# generated using pymatgen
data_Ca4Nb2O9
_symmetry_space_group_name_H-M   'P 1'
_cell_length_a   5.84876700
_cell_length_b   8.02633900
_cell_length_c   18.60565182
_cell_angle_alpha   64.88616134
_cell_angle_beta   90.00000000
_cell_angle_gamma   90.00000000
_symmetry_Int_Tables_number   1
_chemical_formula_structural   Ca4Nb2O9
_chemical_formula_sum   'Ca16 Nb8 O36'
_cell_volume   790.85890156
_cell_formula_units_Z   4
loop_
 _symmetry_equiv_pos_site_id
 _symmetry_equiv_pos_as_xyz
  1  'x, y, z'
loop_
 _atom_site_type_symbol
 _atom_site_label
 _atom_site_symmetry_multiplicity
 _atom_site_fract_x
 _atom_site_fract_y
 _atom_site_fract_z
 _atom_site_occupancy
  Ca  Ca0  1  0.49970400  0.83707000  0.66541300  1
  Ca  Ca1  1  0.05543800  0.59317600  0.66232700  1
  Ca  Ca2  1  0.55114600  0.74297000  0.50710900  1
  Ca  Ca3  1  0.44885400  0.25703000  0.49289100  1
  Ca  Ca4  1  0.94456200  0.40682400  0.33767300  1
  Ca  Ca5  1  0.50029600  0.16293000  0.33458700  1
  Ca  Ca6  1  0.06485100  0.92222300  0.33210800  1
  Ca  Ca7  1  0.56485100  0.07777700  0.16789200  1
  Ca  Ca8  1  0.00029600  0.83707000  0.16541300  1
  Ca  Ca9  1  0.44456200  0.59317600  0.16232700  1
  Ca  Ca10  1  0.94885400  0.74297000  0.00710900  1
  Ca  Ca11  1  0.05114600  0.25703000  0.99289100  1
  Ca  Ca12  1  0.55543800  0.40682400  0.83767300  1
  Ca  Ca13  1  0.99970400  0.16293000  0.83458700  1
  Ca  Ca14  1  0.43514900  0.92222300  0.83210800  1
  Ca  Ca15  1  0.93514900  0.07777700  0.66789200  1
  Nb  Nb0  1  0.48701300  0.32052700  0.67004800  1
  Nb  Nb1  1  0.00000000  0.50000000  0.50000000  1
  Nb  Nb2  1  0.00000000  0.00000000  0.50000000  1
  Nb  Nb3  1  0.51298700  0.67947300  0.32995200  1
  Nb  Nb4  1  0.01298700  0.32052700  0.17004800  1
  Nb  Nb5  1  0.50000000  0.00000000  0.00000000  1
  Nb  Nb6  1  0.50000000  0.50000000  0.00000000  1
  Nb  Nb7  1  0.98701300  0.67947300  0.82995200  1
  O  O0  1  0.55431000  0.14886200  0.62215000  1
  O  O1  1  0.80485400  0.46160700  0.59569300  1
  O  O2  1  0.82985000  0.84919900  0.59878100  1
  O  O3  1  0.28705100  0.49059600  0.56304100  1
  O  O4  1  0.28719100  0.88679100  0.55601800  1
  O  O5  1  0.03878000  0.22045700  0.53381100  1
  O  O6  1  0.96122000  0.77954300  0.46618900  1
  O  O7  1  0.71280900  0.11320900  0.44398200  1
  O  O8  1  0.71294900  0.50940400  0.43695900  1
  O  O9  1  0.17015000  0.15080100  0.40121900  1
  O  O10  1  0.19514600  0.53839300  0.40430700  1
  O  O11  1  0.44569000  0.85113800  0.37785000  1
  O  O12  1  0.54648200  0.47039500  0.30059400  1
  O  O13  1  0.79173000  0.79461200  0.27897100  1
  O  O14  1  0.82209700  0.18359300  0.25977600  1
  O  O15  1  0.32209700  0.81640700  0.24022400  1
  O  O16  1  0.29173000  0.20538800  0.22102900  1
  O  O17  1  0.04648200  0.52960500  0.19940600  1
  O  O18  1  0.94569000  0.14886200  0.12215000  1
  O  O19  1  0.69514600  0.46160700  0.09569300  1
  O  O20  1  0.67015000  0.84919900  0.09878100  1
  O  O21  1  0.21294900  0.49059600  0.06304100  1
  O  O22  1  0.21280900  0.88679100  0.05601800  1
  O  O23  1  0.46122000  0.22045700  0.03381100  1
  O  O24  1  0.53878000  0.77954300  0.96618900  1
  O  O25  1  0.78719100  0.11320900  0.94398200  1
  O  O26  1  0.78705100  0.50940400  0.93695900  1
  O  O27  1  0.32985000  0.15080100  0.90121900  1
  O  O28  1  0.30485400  0.53839300  0.90430700  1
  O  O29  1  0.05431000  0.85113800  0.87785000  1
  O  O30  1  0.95351800  0.47039500  0.80059400  1
  O  O31  1  0.70827000  0.79461200  0.77897100  1
  O  O32  1  0.67790300  0.18359300  0.75977600  1
  O  O33  1  0.17790300  0.81640700  0.74022400  1
  O  O34  1  0.20827000  0.20538800  0.72102900  1
  O  O35  1  0.45351800  0.52960500  0.69940600  1
loop_
_geom_bond_atom_site_label_1
_geom_bond_atom_site_label_2
_geom_bond_distance
_geom_bond_site_symmetry_2
Ca0 O4 2.270989 1_555
Ca0 O2 2.274318 1_555
Ca0 O35 2.288721 1_555
Ca0 O0 2.302777 1_565
Ca0 O33 2.304650 1_555
Ca0 O31 2.336025 1_555
Ca1 O2 2.301985 1_455
Ca1 O30 2.406772 1_455
Ca1 O35 2.420405 1_555
Ca1 O1 2.431361 1_455
Ca1 O3 2.686345 1_555
Ca1 O4 2.710476 1_555
Ca1 O33 2.833395 1_555
Ca1 O34 2.965482 1_555
Ca2 O11 2.268397 1_555
Ca2 O4 2.331441 1_555
Ca2 O3 2.404728 1_555
Ca2 O6 2.495708 1_555
Ca2 O1 2.618949 1_555
Ca2 O2 2.743662 1_555
Ca2 O7 2.853355 1_565
Ca2 O8 2.861896 1_555
Ca3 O0 2.268397 1_555
Ca3 O7 2.331441 1_555
Ca3 O8 2.404728 1_555
Ca3 O5 2.495708 1_555
Ca3 O10 2.618949 1_555
Ca3 O9 2.743662 1_555
Ca3 O4 2.853355 1_545
Ca3 O3 2.861896 1_555
Ca4 O9 2.301985 1_655
Ca4 O17 2.406772 1_655
Ca4 O12 2.420405 1_555
Ca4 O10 2.431361 1_655
Ca4 O8 2.686345 1_555
Ca4 O7 2.710476 1_555
Ca4 O14 2.833395 1_555
Ca4 O13 2.965482 1_555
Ca5 O7 2.270989 1_555
Ca5 O9 2.274318 1_555
Ca5 O12 2.288721 1_555
Ca5 O11 2.302777 1_545
Ca5 O14 2.304650 1_555
Ca5 O16 2.336025 1_555
Ca6 O13 2.331913 1_455
Ca6 O6 2.340337 1_455
Ca6 O11 2.366251 1_555
Ca6 O14 2.414845 1_465
Ca6 O15 2.672105 1_555
Ca6 O16 2.685234 1_565
Ca6 O9 2.720500 1_565
Ca6 O10 2.891957 1_555
Ca7 O16 2.331913 1_555
Ca7 O23 2.340337 1_555
Ca7 O18 2.366251 1_555
Ca7 O15 2.414845 1_545
Ca7 O14 2.672105 1_555
Ca7 O13 2.685234 1_545
Ca7 O20 2.720500 1_545
Ca7 O19 2.891957 1_555
Ca8 O22 2.270989 1_555
Ca8 O20 2.274318 1_455
Ca8 O17 2.288721 1_555
Ca8 O18 2.302777 1_465
Ca8 O15 2.304650 1_555
Ca8 O13 2.336025 1_455
Ca9 O20 2.301985 1_555
Ca9 O12 2.406772 1_555
Ca9 O17 2.420405 1_555
Ca9 O19 2.431361 1_555
Ca9 O21 2.686345 1_555
Ca9 O22 2.710476 1_555
Ca9 O15 2.833395 1_555
Ca9 O16 2.965482 1_555
Ca10 O29 2.268397 1_654
Ca10 O22 2.331441 1_655
Ca10 O21 2.404728 1_655
Ca10 O24 2.495708 1_554
Ca10 O19 2.618949 1_555
Ca10 O20 2.743662 1_555
Ca10 O25 2.853355 1_564
Ca10 O26 2.861896 1_554
Ca11 O18 2.268397 1_456
Ca11 O25 2.331441 1_455
Ca11 O26 2.404728 1_455
Ca11 O23 2.495708 1_556
Ca11 O28 2.618949 1_555
Ca11 O27 2.743662 1_555
Ca11 O22 2.853355 1_546
Ca11 O21 2.861896 1_556
Ca12 O27 2.301985 1_555
Ca12 O35 2.406772 1_555
Ca12 O30 2.420405 1_555
Ca12 O28 2.431361 1_555
Ca12 O26 2.686345 1_555
Ca12 O25 2.710476 1_555
Ca12 O32 2.833395 1_555
Ca12 O31 2.965482 1_555
Ca13 O25 2.270989 1_555
Ca13 O27 2.274318 1_655
Ca13 O30 2.288721 1_555
Ca13 O29 2.302777 1_645
Ca13 O32 2.304650 1_555
Ca13 O34 2.336025 1_655
Ca14 O31 2.331913 1_555
Ca14 O24 2.340337 1_555
Ca14 O29 2.366251 1_555
Ca14 O32 2.414845 1_565
Ca14 O33 2.672105 1_555
Ca14 O34 2.685234 1_565
Ca14 O27 2.720500 1_565
Ca14 O28 2.891957 1_555
Ca15 O34 2.331913 1_655
Ca15 O5 2.340337 1_655
Ca15 O0 2.366251 1_555
Ca15 O33 2.414845 1_645
Ca15 O32 2.672105 1_555
Ca15 O31 2.685234 1_545
Ca15 O2 2.720500 1_545
Ca15 O1 2.891957 1_555
Nb0 O34 1.915091 1_555
Nb0 O32 1.919387 1_555
Nb0 O0 1.972269 1_555
Nb0 O35 1.982659 1_555
Nb0 O3 2.210896 1_555
Nb0 O1 2.306981 1_555
Nb1 O10 2.025312 1_555
Nb1 O1 2.025312 1_455
Nb1 O8 2.031003 1_455
Nb1 O3 2.031003 1_555
Nb1 O5 2.069614 1_555
Nb1 O6 2.069614 1_455
Nb2 O4 1.982294 1_545
Nb2 O7 1.982294 1_455
Nb2 O9 1.986185 1_555
Nb2 O2 1.986185 1_445
Nb2 O6 2.126744 1_445
Nb2 O5 2.126744 1_555
Nb3 O13 1.915091 1_555
Nb3 O15 1.919387 1_555
Nb3 O11 1.972269 1_555
Nb3 O12 1.982659 1_555
Nb3 O8 2.210896 1_555
Nb3 O10 2.306981 1_555
Nb4 O16 1.915091 1_555
Nb4 O14 1.919387 1_455
Nb4 O18 1.972269 1_455
Nb4 O17 1.982659 1_555
Nb4 O21 2.210896 1_555
Nb4 O19 2.306981 1_455
Nb5 O22 1.982294 1_545
Nb5 O25 1.982294 1_554
Nb5 O20 1.986185 1_545
Nb5 O27 1.986185 1_554
Nb5 O23 2.126744 1_555
Nb5 O24 2.126744 1_544
Nb6 O19 2.025312 1_555
Nb6 O28 2.025312 1_554
Nb6 O26 2.031003 1_554
Nb6 O21 2.031003 1_555
Nb6 O23 2.069614 1_555
Nb6 O24 2.069614 1_554
Nb7 O31 1.915091 1_555
Nb7 O33 1.919387 1_655
Nb7 O29 1.972269 1_655
Nb7 O30 1.982659 1_555
Nb7 O26 2.210896 1_555
Nb7 O28 2.306981 1_655
