# generated using pymatgen
data_MnOF
_symmetry_space_group_name_H-M   'P 1'
_cell_length_a   4.64677600
_cell_length_b   4.64677600
_cell_length_c   6.27492500
_cell_angle_alpha   90.00002146
_cell_angle_beta   90.00000000
_cell_angle_gamma   89.99967941
_symmetry_Int_Tables_number   1
_chemical_formula_structural   MnOF
_chemical_formula_sum   'Mn4 O4 F4'
_cell_volume   135.49148870
_cell_formula_units_Z   4
loop_
 _symmetry_equiv_pos_site_id
 _symmetry_equiv_pos_as_xyz
  1  'x, y, z'
loop_
 _atom_site_type_symbol
 _atom_site_label
 _atom_site_symmetry_multiplicity
 _atom_site_fract_x
 _atom_site_fract_y
 _atom_site_fract_z
 _atom_site_occupancy
  Mn  Mn0  1  0.97179800  0.97179900  0.00000000  1
  Mn  Mn1  1  0.02820500  0.02820700  0.50000000  1
  Mn  Mn2  1  0.52820900  0.47179000  0.24999900  1
  Mn  Mn3  1  0.47179200  0.52820600  0.75000000  1
  O  O0  1  0.17599000  0.82400900  0.75000000  1
  O  O1  1  0.32400900  0.32400900  0.50000000  1
  O  O2  1  0.67599000  0.67599000  0.00000000  1
  O  O3  1  0.82400900  0.17599000  0.25000000  1
  F  F0  1  0.22479900  0.77520000  0.25000000  1
  F  F1  1  0.27520000  0.27520000  0.00000000  1
  F  F2  1  0.72479900  0.72479900  0.50000000  1
  F  F3  1  0.77520000  0.22480000  0.75000000  1
loop_
_geom_bond_atom_site_label_1
_geom_bond_atom_site_label_2
_geom_bond_distance
_geom_bond_site_symmetry_2
Mn0 O2 1.943921 1_555
Mn0 O3 1.957754 1_565
Mn0 O0 1.957758 1_654
Mn1 O1 1.943885 1_555
Mn1 O3 1.957756 1_455
Mn1 O0 1.957764 1_545
Mn2 O3 1.943854 1_555
Mn2 O2 1.957761 1_555
Mn2 O1 1.957771 1_555
Mn3 O0 1.943871 1_555
Mn3 O1 1.957762 1_555
Mn3 O2 1.957766 1_556
F0 Mn2 1.993863 1_555
F0 Mn0 2.162778 1_455
F0 Mn1 2.162783 1_565
F1 Mn0 1.993819 1_445
F1 Mn2 2.162781 1_555
F1 Mn3 2.162783 1_554
F2 Mn1 1.993855 1_665
F2 Mn3 2.162787 1_555
F2 Mn2 2.162790 1_555
F3 Mn3 1.993844 1_555
F3 Mn1 2.162776 1_655
F3 Mn0 2.162776 1_546
