# generated using pymatgen
data_ReH(CO)4
_symmetry_space_group_name_H-M   'P 1'
_cell_length_a   9.36773100
_cell_length_b   18.61839212
_cell_length_c   19.54193642
_cell_angle_alpha   77.11253274
_cell_angle_beta   88.17309494
_cell_angle_gamma   85.63782360
_symmetry_Int_Tables_number   1
_chemical_formula_structural   ReH(CO)4
_chemical_formula_sum   'Re20 H20 C80 O80'
_cell_volume   3312.47887504
_cell_formula_units_Z   20
loop_
 _symmetry_equiv_pos_site_id
 _symmetry_equiv_pos_as_xyz
  1  'x, y, z'
loop_
 _atom_site_type_symbol
 _atom_site_label
 _atom_site_symmetry_multiplicity
 _atom_site_fract_x
 _atom_site_fract_y
 _atom_site_fract_z
 _atom_site_occupancy
  Re  Re0  1  0.53269000  0.13152400  0.16626500  1
  Re  Re1  1  0.46731000  0.86847600  0.83373500  1
  Re  Re2  1  0.58079000  0.10977900  0.34784600  1
  Re  Re3  1  0.41921000  0.89022100  0.65215400  1
  Re  Re4  1  0.47104500  0.27782300  0.37666700  1
  Re  Re5  1  0.52895500  0.72217700  0.62333300  1
  Re  Re6  1  0.57862900  0.39121700  0.22981600  1
  Re  Re7  1  0.42137100  0.60878300  0.77018400  1
  Re  Re8  1  0.46333700  0.32157400  0.10034800  1
  Re  Re9  1  0.53666300  0.67842600  0.89965200  1
  Re  Re10  1  0.97529400  0.63671200  0.16447800  1
  Re  Re11  1  0.02470600  0.36328800  0.83552200  1
  Re  Re12  1  0.04843500  0.60368300  0.34494500  1
  Re  Re13  1  0.95156500  0.39631700  0.65505500  1
  Re  Re14  1  0.01855300  0.77490000  0.37590000  1
  Re  Re15  1  0.98144700  0.22510000  0.62410000  1
  Re  Re16  1  0.13442000  0.87957100  0.22501800  1
  Re  Re17  1  0.86558000  0.12042900  0.77498200  1
  Re  Re18  1  0.94574900  0.82841100  0.10315400  1
  Re  Re19  1  0.05425100  0.17158900  0.89684600  1
  H  H0  1  0.57412900  0.15167700  0.25192200  1
  H  H1  1  0.42587100  0.84832300  0.74807800  1
  H  H2  1  0.49681000  0.20475700  0.32638600  1
  H  H3  1  0.50319000  0.79524300  0.67361400  1
  H  H4  1  0.55012200  0.30121300  0.28797800  1
  H  H5  1  0.44987800  0.69878700  0.71202200  1
  H  H6  1  0.47233700  0.33000100  0.19255900  1
  H  H7  1  0.52766300  0.66999900  0.80744100  1
  H  H8  1  0.52533100  0.23297800  0.16017000  1
  H  H9  1  0.47466900  0.76702200  0.83983000  1
  H  H10  1  0.00260200  0.65291800  0.25347400  1
  H  H11  1  0.99739800  0.34708200  0.74652600  1
  H  H12  1  0.08263100  0.70256800  0.32929500  1
  H  H13  1  0.91736900  0.29743200  0.67070500  1
  H  H14  1  0.04343500  0.80328000  0.28064100  1
  H  H15  1  0.95656500  0.19672000  0.71935900  1
  H  H16  1  0.97270100  0.85111900  0.18938600  1
  H  H17  1  0.02729900  0.14888100  0.81061400  1
  H  H18  1  0.99652600  0.73663600  0.16062800  1
  H  H19  1  0.00347400  0.26336400  0.83937200  1
  C  C0  1  0.32487400  0.12069000  0.19089400  1
  C  C1  1  0.67512600  0.87931000  0.80910600  1
  C  C2  1  0.56971700  0.02562200  0.18896000  1
  C  C3  1  0.43028300  0.97437800  0.81104000  1
  C  C4  1  0.49589200  0.12453600  0.07053400  1
  C  C5  1  0.50410800  0.87546400  0.92946600  1
  C  C6  1  0.74044400  0.14566900  0.14420400  1
  C  C7  1  0.25955600  0.85433100  0.85579600  1
  C  C8  1  0.37397200  0.08896400  0.36403900  1
  C  C9  1  0.62602800  0.91103600  0.63596100  1
  C  C10  1  0.61272300  0.08720100  0.44799800  1
  C  C11  1  0.38727700  0.91279900  0.55200200  1
  C  C12  1  0.63599100  0.00714200  0.34840300  1
  C  C13  1  0.36400900  0.99285900  0.65159700  1
  C  C14  1  0.78609500  0.13335600  0.33176500  1
  C  C15  1  0.21390500  0.86664400  0.66823500  1
  C  C16  1  0.27627200  0.27392800  0.33888800  1
  C  C17  1  0.72372800  0.72607200  0.66111200  1
  C  C18  1  0.40981900  0.36891300  0.40569400  1
  C  C19  1  0.59018100  0.63108700  0.59430600  1
  C  C20  1  0.40945700  0.22099500  0.46694100  1
  C  C21  1  0.59054300  0.77900500  0.53305900  1
  C  C22  1  0.67035500  0.27985700  0.41029200  1
  C  C23  1  0.32964500  0.72014300  0.58970800  1
  C  C24  1  0.38692400  0.44356500  0.23288500  1
  C  C25  1  0.61307600  0.55643500  0.76711500  1
  C  C26  1  0.63502200  0.47003800  0.15255400  1
  C  C27  1  0.36497800  0.52996200  0.84744600  1
  C  C28  1  0.65269200  0.44215400  0.29614100  1
  C  C29  1  0.34730800  0.55784600  0.70385900  1
  C  C30  1  0.76526200  0.33043900  0.22765600  1
  C  C31  1  0.23473800  0.66956100  0.77234400  1
  C  C32  1  0.26230700  0.30334500  0.13434800  1
  C  C33  1  0.73769300  0.69665500  0.86565200  1
  C  C34  1  0.42499500  0.29763800  0.01103600  1
  C  C35  1  0.57500500  0.70236200  0.98896400  1
  C  C36  1  0.40085000  0.42421300  0.06373300  1
  C  C37  1  0.59915000  0.57578700  0.93626700  1
  C  C38  1  0.66527400  0.33528400  0.06664000  1
  C  C39  1  0.33472600  0.66471600  0.93336000  1
  C  C40  1  0.76656500  0.64231700  0.19138100  1
  C  C41  1  0.23343500  0.35768300  0.80861900  1
  C  C42  1  0.97515700  0.53023400  0.18184500  1
  C  C43  1  0.02484300  0.46976600  0.81815500  1
  C  C44  1  0.93069300  0.63861800  0.06792300  1
  C  C45  1  0.06930700  0.36138200  0.93207700  1
  C  C46  1  0.18535700  0.63212600  0.14048100  1
  C  C47  1  0.81464300  0.36787400  0.85951900  1
  C  C48  1  0.83938500  0.60970900  0.37188100  1
  C  C49  1  0.16061500  0.39029100  0.62811900  1
  C  C50  1  0.09869800  0.57469500  0.44307000  1
  C  C51  1  0.90130200  0.42530500  0.55693000  1
  C  C52  1  0.04067400  0.50010500  0.34282900  1
  C  C53  1  0.95932600  0.49989500  0.65717100  1
  C  C54  1  0.25764600  0.59933100  0.32014500  1
  C  C55  1  0.74235400  0.40066900  0.67985500  1
  C  C56  1  0.81619400  0.78668900  0.34167500  1
  C  C57  1  0.18380600  0.21331100  0.65832500  1
  C  C58  1  0.99792000  0.86776200  0.40664200  1
  C  C59  1  0.00208000  0.13223800  0.59335800  1
  C  C60  1  0.95391600  0.72286500  0.46804500  1
  C  C61  1  0.04608400  0.27713500  0.53195500  1
  C  C62  1  0.22410100  0.75817900  0.40329900  1
  C  C63  1  0.77589900  0.24182100  0.59670100  1
  C  C64  1  0.99008300  0.96062900  0.23759300  1
  C  C65  1  0.00991700  0.03937100  0.76240700  1
  C  C66  1  0.21595700  0.94478200  0.14399300  1
  C  C67  1  0.78404300  0.05521800  0.85600700  1
  C  C68  1  0.26300100  0.91106400  0.28702400  1
  C  C69  1  0.73699900  0.08893600  0.71297600  1
  C  C70  1  0.27672900  0.79657600  0.21442700  1
  C  C71  1  0.72327100  0.20342400  0.78557300  1
  C  C72  1  0.74436600  0.82275200  0.14159500  1
  C  C73  1  0.25563400  0.17724800  0.85840500  1
  C  C74  1  0.87789400  0.81226500  0.01529300  1
  C  C75  1  0.12210600  0.18773500  0.98470700  1
  C  C76  1  0.90813800  0.93393700  0.07142700  1
  C  C77  1  0.09186200  0.06606300  0.92857300  1
  C  C78  1  0.14279900  0.82401900  0.06120400  1
  C  C79  1  0.85720100  0.17598100  0.93879600  1
  O  O0  1  0.20548000  0.11215000  0.20518800  1
  O  O1  1  0.79452000  0.88785000  0.79481200  1
  O  O2  1  0.59260200  0.96176900  0.19883600  1
  O  O3  1  0.40739800  0.03823100  0.80116400  1
  O  O4  1  0.47368100  0.11588200  0.01479700  1
  O  O5  1  0.52631900  0.88411800  0.98520300  1
  O  O6  1  0.85975700  0.15459100  0.13079600  1
  O  O7  1  0.14024300  0.84540900  0.86920400  1
  O  O8  1  0.25434700  0.07919600  0.37555500  1
  O  O9  1  0.74565300  0.92080400  0.62444500  1
  O  O10  1  0.63269100  0.07166500  0.50827300  1
  O  O11  1  0.36730900  0.92833500  0.49172700  1
  O  O12  1  0.66827300  0.94492400  0.35187400  1
  O  O13  1  0.33172700  0.05507600  0.64812600  1
  O  O14  1  0.90644400  0.14353100  0.32516300  1
  O  O15  1  0.09355600  0.85646900  0.67483700  1
  O  O16  1  0.16395100  0.26972800  0.31809100  1
  O  O17  1  0.83604900  0.73027200  0.68190900  1
  O  O18  1  0.37180800  0.42303900  0.42345000  1
  O  O19  1  0.62819200  0.57696100  0.57655000  1
  O  O20  1  0.36934900  0.18842700  0.52116000  1
  O  O21  1  0.63065100  0.81157300  0.47884000  1
  O  O22  1  0.78729100  0.28063100  0.42746600  1
  O  O23  1  0.21270900  0.71936900  0.57253400  1
  O  O24  1  0.27424000  0.47374100  0.23285200  1
  O  O25  1  0.72576000  0.52625900  0.76714800  1
  O  O26  1  0.67132300  0.51754500  0.10729600  1
  O  O27  1  0.32867700  0.48245500  0.89270400  1
  O  O28  1  0.69581200  0.47304100  0.33599800  1
  O  O29  1  0.30418800  0.52695900  0.66400200  1
  O  O30  1  0.87061300  0.29400300  0.22821500  1
  O  O31  1  0.12938700  0.70599700  0.77178500  1
  O  O32  1  0.14525300  0.29526400  0.15270600  1
  O  O33  1  0.85474700  0.70473600  0.84729400  1
  O  O34  1  0.40349400  0.28597300  0.95629200  1
  O  O35  1  0.59650600  0.71402700  0.04370800  1
  O  O36  1  0.35746600  0.48555800  0.04478500  1
  O  O37  1  0.64253400  0.51444200  0.95521500  1
  O  O38  1  0.78097500  0.34239500  0.04486700  1
  O  O39  1  0.21902500  0.65760500  0.95513300  1
  O  O40  1  0.64709400  0.64239000  0.20813100  1
  O  O41  1  0.35290600  0.35761000  0.79186900  1
  O  O42  1  0.97334500  0.46654300  0.18827200  1
  O  O43  1  0.02665500  0.53345700  0.81172800  1
  O  O44  1  0.90459700  0.63578700  0.01077800  1
  O  O45  1  0.09540300  0.36421300  0.98922200  1
  O  O46  1  0.30557600  0.62887500  0.12527900  1
  O  O47  1  0.69442400  0.37112500  0.87472100  1
  O  O48  1  0.72102600  0.61286300  0.39039100  1
  O  O49  1  0.27897400  0.38713700  0.60960900  1
  O  O50  1  0.13229000  0.55602400  0.50164300  1
  O  O51  1  0.86771000  0.44397600  0.49835700  1
  O  O52  1  0.03804800  0.43744800  0.34427600  1
  O  O53  1  0.96195200  0.56255200  0.65572400  1
  O  O54  1  0.37980100  0.59487100  0.30983800  1
  O  O55  1  0.62019900  0.40512900  0.69016200  1
  O  O56  1  0.70115800  0.79176100  0.32066400  1
  O  O57  1  0.29884200  0.20823900  0.67933600  1
  O  O58  1  0.98834500  0.92277900  0.42600400  1
  O  O59  1  0.01165500  0.07722100  0.57399600  1
  O  O60  1  0.90999900  0.69301400  0.52261400  1
  O  O61  1  0.09000100  0.30698600  0.47738600  1
  O  O62  1  0.34348900  0.74629800  0.41845700  1
  O  O63  1  0.65651100  0.25370200  0.58154300  1
  O  O64  1  0.90903000  0.00849000  0.24488300  1
  O  O65  1  0.09097000  0.99151000  0.75511700  1
  O  O66  1  0.26472200  0.98549400  0.09648200  1
  O  O67  1  0.73527800  0.01450600  0.90351800  1
  O  O68  1  0.33880400  0.93131100  0.32376500  1
  O  O69  1  0.66119600  0.06868900  0.67623500  1
  O  O70  1  0.35854600  0.74825100  0.20959700  1
  O  O71  1  0.64145400  0.25174900  0.79040300  1
  O  O72  1  0.62641600  0.81946800  0.16017100  1
  O  O73  1  0.37358400  0.18053200  0.83982900  1
  O  O74  1  0.83965000  0.80805300  0.96030700  1
  O  O75  1  0.16035000  0.19194700  0.03969300  1
  O  O76  1  0.88161300  0.99760600  0.05670200  1
  O  O77  1  0.11838700  0.00239400  0.94329800  1
  O  O78  1  0.25394400  0.81812800  0.03448700  1
  O  O79  1  0.74605600  0.18187200  0.96551300  1
loop_
_geom_bond_atom_site_label_1
_geom_bond_atom_site_label_2
_geom_bond_distance
_geom_bond_site_symmetry_2
H0 Re0 1.853966 1_555
H0 Re2 1.863888 1_555
H1 Re1 1.853966 1_555
H1 Re3 1.863888 1_555
H2 Re2 1.844017 1_555
H2 Re4 1.845409 1_555
H3 Re3 1.844017 1_555
H3 Re5 1.845409 1_555
H4 Re6 1.835852 1_555
H4 Re4 1.836505 1_555
H5 Re7 1.835852 1_555
H5 Re5 1.836505 1_555
H6 Re6 1.846503 1_555
H6 Re8 1.848426 1_555
H7 Re7 1.846503 1_555
H7 Re9 1.848426 1_555
H8 Re8 1.860696 1_555
H8 Re0 1.862062 1_555
H9 Re9 1.860696 1_555
H9 Re1 1.862062 1_555
H10 Re10 1.858851 1_455
H10 Re12 1.864941 1_555
H11 Re11 1.858851 1_655
H11 Re13 1.864941 1_555
H12 Re14 1.841926 1_555
H12 Re12 1.848791 1_555
H13 Re15 1.841926 1_555
H13 Re13 1.848791 1_555
H14 Re14 1.830622 1_555
H14 Re16 1.833558 1_555
H15 Re15 1.830622 1_555
H15 Re17 1.833558 1_555
H16 Re16 1.847808 1_655
H16 Re18 1.855631 1_555
H17 Re17 1.847808 1_455
H17 Re19 1.855631 1_555
H18 Re18 1.860576 1_555
H18 Re10 1.870641 1_555
H19 Re19 1.860576 1_555
H19 Re11 1.870641 1_555
C0 O0 1.158258 1_555
C0 Re0 2.004723 1_555
C1 O1 1.158258 1_555
C1 Re1 2.004723 1_555
C2 O2 1.165361 1_545
C2 Re0 1.928834 1_555
C3 O3 1.165361 1_565
C3 Re1 1.928834 1_555
C4 O4 1.163384 1_555
C4 Re0 1.947317 1_555
C5 O5 1.163384 1_555
C5 Re1 1.947317 1_555
C6 O6 1.155698 1_555
C6 Re0 2.004164 1_555
C7 O7 1.155698 1_555
C7 Re1 2.004164 1_555
C8 O8 1.155925 1_555
C8 Re2 2.006072 1_555
C9 O9 1.155925 1_555
C9 Re3 2.006072 1_555
C10 O10 1.166156 1_555
C10 Re2 1.935946 1_555
C11 O11 1.166156 1_555
C11 Re3 1.935946 1_555
C12 O12 1.162286 1_545
C12 Re2 1.939060 1_555
C13 O13 1.162268 1_565
C13 Re3 1.939078 1_555
C14 O14 1.155799 1_555
C14 Re2 2.004660 1_555
C15 O15 1.155799 1_555
C15 Re3 2.004660 1_555
C16 O16 1.154277 1_555
C16 Re4 2.002324 1_555
C17 O17 1.154277 1_555
C17 Re5 2.002324 1_555
C18 O18 1.164579 1_555
C18 Re4 1.946120 1_555
C19 O19 1.164579 1_555
C19 Re5 1.946120 1_555
C20 O20 1.163685 1_555
C20 Re4 1.939027 1_555
C21 O21 1.163685 1_555
C21 Re5 1.939027 1_555
C22 O22 1.157929 1_555
C22 Re4 2.004816 1_555
C23 O23 1.157929 1_555
C23 Re5 2.004816 1_555
C24 O24 1.157408 1_555
C24 Re6 1.982803 1_555
C25 O25 1.157408 1_555
C25 Re7 1.982803 1_555
C26 O26 1.165258 1_555
C26 Re6 1.947057 1_555
C27 O27 1.165258 1_555
C27 Re7 1.947057 1_555
C28 O28 1.164355 1_555
C28 Re6 1.940727 1_555
C29 O29 1.164355 1_555
C29 Re7 1.940727 1_555
C30 O30 1.153181 1_555
C30 Re6 2.013596 1_555
C31 O31 1.153181 1_555
C31 Re7 2.013596 1_555
C32 O32 1.153107 1_555
C32 Re8 2.004977 1_555
C33 O33 1.153107 1_555
C33 Re9 2.004977 1_555
C34 O34 1.164583 1_554
C34 Re8 1.945525 1_555
C35 O35 1.164583 1_556
C35 Re9 1.945525 1_555
C36 O36 1.164948 1_555
C36 Re8 1.937278 1_555
C37 O37 1.164948 1_555
C37 Re9 1.937278 1_555
C38 O38 1.157846 1_555
C38 Re8 1.999141 1_555
C39 O39 1.157846 1_555
C39 Re9 1.999141 1_555
C40 O40 1.155985 1_555
C40 Re10 2.009588 1_555
C41 O41 1.155985 1_555
C41 Re11 2.009588 1_555
C42 O42 1.165646 1_555
C42 Re10 1.935335 1_555
C43 O43 1.165646 1_555
C43 Re11 1.935335 1_555
C44 O44 1.164145 1_555
C44 Re10 1.937589 1_555
C45 O45 1.164145 1_555
C45 Re11 1.937589 1_555
C46 O46 1.156079 1_555
C46 Re10 2.008222 1_455
C47 O47 1.156079 1_555
C47 Re11 2.008222 1_655
C48 O48 1.156559 1_555
C48 Re12 2.012932 1_655
C49 O49 1.156559 1_555
C49 Re13 2.012932 1_455
C50 O50 1.165708 1_555
C50 Re12 1.935782 1_555
C51 O51 1.165708 1_555
C51 Re13 1.935782 1_555
C52 O52 1.162713 1_555
C52 Re12 1.945001 1_555
C53 O53 1.162713 1_555
C53 Re13 1.945001 1_555
C54 O54 1.155522 1_555
C54 Re12 2.003792 1_555
C55 O55 1.155522 1_555
C55 Re13 2.003792 1_555
C56 O56 1.155085 1_555
C56 Re14 2.010231 1_655
C57 O57 1.155085 1_555
C57 Re15 2.010231 1_455
C58 O58 1.164991 1_555
C58 Re14 1.947458 1_655
C59 O59 1.164991 1_555
C59 Re15 1.947458 1_455
C60 O60 1.165225 1_555
C60 Re14 1.946598 1_655
C61 O61 1.165225 1_555
C61 Re15 1.946598 1_455
C62 O62 1.158336 1_555
C62 Re14 1.997853 1_555
C63 O63 1.158336 1_555
C63 Re15 1.997853 1_555
C64 O64 1.156573 1_565
C64 Re16 2.000004 1_655
C65 O65 1.156573 1_545
C65 Re17 2.000004 1_455
C66 O66 1.164889 1_555
C66 Re16 1.941916 1_555
C67 O67 1.164889 1_555
C67 Re17 1.941916 1_555
C68 O68 1.164397 1_555
C68 Re16 1.944310 1_555
C69 O69 1.164397 1_555
C69 Re17 1.944310 1_555
C70 O70 1.155088 1_555
C70 Re16 2.004863 1_555
C71 O71 1.155088 1_555
C71 Re17 2.004863 1_555
C72 O72 1.153765 1_555
C72 Re18 2.009697 1_555
C73 O73 1.153765 1_555
C73 Re19 2.009697 1_555
C74 O74 1.164272 1_554
C74 Re18 1.941986 1_555
C75 O75 1.164272 1_556
C75 Re19 1.941986 1_555
C76 O76 1.165051 1_555
C76 Re18 1.932338 1_555
C77 O77 1.165051 1_555
C77 Re19 1.932338 1_555
C78 O78 1.158525 1_555
C78 Re18 1.999144 1_455
C79 O79 1.158525 1_555
C79 Re19 1.999144 1_655
