# generated using pymatgen
data_KLiMnO2
_symmetry_space_group_name_H-M   'P 1'
_cell_length_a   6.41877042
_cell_length_b   6.41876831
_cell_length_c   6.93531700
_cell_angle_alpha   90.00003068
_cell_angle_beta   90.00023299
_cell_angle_gamma   88.87276956
_symmetry_Int_Tables_number   1
_chemical_formula_structural   KLiMnO2
_chemical_formula_sum   'K4 Li4 Mn4 O8'
_cell_volume   285.68392522
_cell_formula_units_Z   4
loop_
 _symmetry_equiv_pos_site_id
 _symmetry_equiv_pos_as_xyz
  1  'x, y, z'
loop_
 _atom_site_type_symbol
 _atom_site_label
 _atom_site_symmetry_multiplicity
 _atom_site_fract_x
 _atom_site_fract_y
 _atom_site_fract_z
 _atom_site_occupancy
  K  K0  1  0.00000800  0.49998100  0.00000500  1
  K  K1  1  0.50002200  0.99998500  0.49999900  1
  K  K2  1  0.99998800  0.00000100  0.25000900  1
  K  K3  1  0.99998900  0.99999500  0.74998800  1
  Li  Li0  1  0.64018000  0.64018300  0.25000100  1
  Li  Li1  1  0.35981000  0.35981600  0.75000100  1
  Li  Li2  1  0.64018000  0.64018300  0.75000100  1
  Li  Li3  1  0.35981200  0.35981500  0.24999900  1
  Mn  Mn0  1  0.16677100  0.61767700  0.49999100  1
  Mn  Mn1  1  0.61768000  0.16677300  0.00000700  1
  Mn  Mn2  1  0.38232100  0.83326300  0.99999500  1
  Mn  Mn3  1  0.83325500  0.38230900  0.50000200  1
  O  O0  1  0.32226200  0.67773100  0.25000500  1
  O  O1  1  0.32225900  0.67773600  0.74999600  1
  O  O2  1  0.67773100  0.32226500  0.75000000  1
  O  O3  1  0.67773200  0.32226400  0.25000100  1
  O  O4  1  0.15954500  0.29457100  0.50000300  1
  O  O5  1  0.70543400  0.84046600  0.99999800  1
  O  O6  1  0.29456300  0.15954900  0.99999900  1
  O  O7  1  0.84046000  0.70543700  0.50000000  1
loop_
_geom_bond_atom_site_label_1
_geom_bond_atom_site_label_2
_geom_bond_distance
_geom_bond_site_symmetry_2
K0 O6 2.861297 1_554
K0 O5 2.861631 1_454
K0 O0 2.946067 1_555
K0 O3 2.946076 1_455
K0 O2 2.946104 1_454
K0 O1 2.946113 1_554
K1 O7 2.861297 1_555
K1 O4 2.861643 1_565
K1 O0 2.946070 1_555
K1 O1 2.946073 1_555
K1 O3 2.946078 1_565
K1 O2 2.946085 1_565
K2 O7 2.775888 1_545
K2 O5 2.775939 1_544
K2 O4 2.775992 1_655
K2 O6 2.776070 1_654
K2 O3 2.896397 1_555
K2 O0 2.896509 1_645
K3 O7 2.775844 1_555
K3 O5 2.775935 1_555
K3 O4 2.775983 1_665
K3 O6 2.776074 1_665
K3 O2 2.896437 1_565
K3 O1 2.896442 1_655
Li0 O0 2.050112 1_555
Li0 O3 2.050120 1_555
Li0 O7 2.203494 1_555
Li0 O5 2.203533 1_554
Li1 O1 2.050126 1_555
Li1 O2 2.050133 1_555
Li1 O4 2.203420 1_555
Li1 O6 2.203436 1_555
Li2 O2 2.050113 1_555
Li2 O1 2.050134 1_555
Li2 O5 2.203496 1_555
Li2 O7 2.203513 1_555
Li3 O0 2.050100 1_555
Li3 O3 2.050126 1_555
Li3 O6 2.203442 1_554
Li3 O4 2.203468 1_555
Mn0 O0 2.041003 1_555
Mn0 O1 2.041105 1_555
Mn0 O4 2.075373 1_555
Mn0 O7 2.158215 1_455
Mn1 O3 2.041042 1_555
Mn1 O2 2.041124 1_554
Mn1 O6 2.075444 1_554
Mn1 O5 2.158180 1_544
Mn2 O1 2.041198 1_555
Mn2 O0 2.041279 1_556
Mn2 O5 2.075413 1_555
Mn2 O6 2.158056 1_565
Mn3 O2 2.041166 1_555
Mn3 O3 2.041174 1_555
Mn3 O7 2.075509 1_555
Mn3 O4 2.158051 1_655
