# generated using pymatgen
data_TeOs3(CO)9
_symmetry_space_group_name_H-M   'P 1'
_cell_length_a   13.01637517
_cell_length_b   13.01637517
_cell_length_c   13.04779778
_cell_angle_alpha   61.73780807
_cell_angle_beta   61.73780807
_cell_angle_gamma   68.98283341
_symmetry_Int_Tables_number   1
_chemical_formula_structural   TeOs3(CO)9
_chemical_formula_sum   'Te4 Os12 C36 O36'
_cell_volume   1689.04484200
_cell_formula_units_Z   4
loop_
 _symmetry_equiv_pos_site_id
 _symmetry_equiv_pos_as_xyz
  1  'x, y, z'
loop_
 _atom_site_type_symbol
 _atom_site_label
 _atom_site_symmetry_multiplicity
 _atom_site_fract_x
 _atom_site_fract_y
 _atom_site_fract_z
 _atom_site_occupancy
  Te  Te0  1  0.06975300  0.49551200  0.18881400  1
  Te  Te1  1  0.50448800  0.93024700  0.31118600  1
  Te  Te2  1  0.93024700  0.50448800  0.81118600  1
  Te  Te3  1  0.49551200  0.06975300  0.68881400  1
  Os  Os0  1  0.93546000  0.69652400  0.23859000  1
  Os  Os1  1  0.30347600  0.06454000  0.26141000  1
  Os  Os2  1  0.06454000  0.30347600  0.76141000  1
  Os  Os3  1  0.69652400  0.93546000  0.73859000  1
  Os  Os4  1  0.01120900  0.70276300  0.00823700  1
  Os  Os5  1  0.29723700  0.98879100  0.49176300  1
  Os  Os6  1  0.98879100  0.29723700  0.99176300  1
  Os  Os7  1  0.70276300  0.01120900  0.50823700  1
  Os  Os8  1  0.21026600  0.64497900  0.10157100  1
  Os  Os9  1  0.35502100  0.78973400  0.39842900  1
  Os  Os10  1  0.78973400  0.35502100  0.89842900  1
  Os  Os11  1  0.64497900  0.21026600  0.60157100  1
  C  C0  1  0.87545500  0.86086600  0.20092800  1
  C  C1  1  0.13913400  0.12454500  0.29907200  1
  C  C2  1  0.12454500  0.13913400  0.79907200  1
  C  C3  1  0.86086600  0.87545500  0.70092800  1
  C  C4  1  0.78855700  0.65135300  0.30541200  1
  C  C5  1  0.34864700  0.21144300  0.19458800  1
  C  C6  1  0.21144300  0.34864700  0.69458800  1
  C  C7  1  0.65135300  0.78855700  0.80541200  1
  C  C8  1  0.93071700  0.65469300  0.40476300  1
  C  C9  1  0.34530700  0.06928300  0.09523700  1
  C  C10  1  0.06928300  0.34530700  0.59523700  1
  C  C11  1  0.65469300  0.93071700  0.90476300  1
  C  C12  1  0.95945600  0.86757600  0.93524600  1
  C  C13  1  0.13242400  0.04054400  0.56475400  1
  C  C14  1  0.04054400  0.13242400  0.06475400  1
  C  C15  1  0.86757600  0.95945600  0.43524600  1
  C  C16  1  0.87811300  0.66476400  0.02249700  1
  C  C17  1  0.33523600  0.12188700  0.47750300  1
  C  C18  1  0.12188700  0.33523600  0.97750300  1
  C  C19  1  0.66476400  0.87811300  0.52249700  1
  C  C20  1  0.11742900  0.66497600  0.85951300  1
  C  C21  1  0.33502400  0.88257100  0.64048700  1
  C  C22  1  0.88257100  0.33502400  0.14048700  1
  C  C23  1  0.66497600  0.11742900  0.35951300  1
  C  C24  1  0.26762600  0.79037200  0.03849000  1
  C  C25  1  0.20962800  0.73237400  0.46151000  1
  C  C26  1  0.73237400  0.20962800  0.96151000  1
  C  C27  1  0.79037200  0.26762600  0.53849000  1
  C  C28  1  0.34027200  0.57831300  0.99171800  1
  C  C29  1  0.42168700  0.65972800  0.50828200  1
  C  C30  1  0.65972800  0.42168700  0.00828200  1
  C  C31  1  0.57831300  0.34027200  0.49171800  1
  C  C32  1  0.27662100  0.56179800  0.22495700  1
  C  C33  1  0.43820200  0.72337900  0.27504300  1
  C  C34  1  0.72337900  0.43820200  0.77504300  1
  C  C35  1  0.56179800  0.27662100  0.72495700  1
  O  O0  1  0.83754900  0.96182700  0.17952700  1
  O  O1  1  0.03817300  0.16245100  0.32047300  1
  O  O2  1  0.16245100  0.03817300  0.82047300  1
  O  O3  1  0.96182700  0.83754900  0.67952700  1
  O  O4  1  0.70019200  0.62162000  0.33741700  1
  O  O5  1  0.37838000  0.29980800  0.16258300  1
  O  O6  1  0.29980800  0.37838000  0.66258300  1
  O  O7  1  0.62162000  0.70019200  0.83741700  1
  O  O8  1  0.91351100  0.63061900  0.50903800  1
  O  O9  1  0.36938100  0.08648900  0.99096200  1
  O  O10  1  0.08648900  0.36938100  0.49096200  1
  O  O11  1  0.63061900  0.91351100  0.00903800  1
  O  O12  1  0.92363700  0.96815100  0.89302200  1
  O  O13  1  0.03184900  0.07636300  0.60697800  1
  O  O14  1  0.07636300  0.03184900  0.10697800  1
  O  O15  1  0.96815100  0.92363700  0.39302200  1
  O  O16  1  0.79029800  0.64102600  0.04209800  1
  O  O17  1  0.35897400  0.20970200  0.45790200  1
  O  O18  1  0.20970200  0.35897400  0.95790200  1
  O  O19  1  0.64102600  0.79029800  0.54209800  1
  O  O20  1  0.17442600  0.63926400  0.77134900  1
  O  O21  1  0.36073600  0.82557400  0.72865100  1
  O  O22  1  0.82557400  0.36073600  0.22865100  1
  O  O23  1  0.63926400  0.17442600  0.27134900  1
  O  O24  1  0.31591600  0.86671800  0.00547400  1
  O  O25  1  0.13328200  0.68408400  0.49452600  1
  O  O26  1  0.68408400  0.13328200  0.99452600  1
  O  O27  1  0.86671800  0.31591600  0.50547400  1
  O  O28  1  0.41363100  0.53600400  0.91995000  1
  O  O29  1  0.46399600  0.58636900  0.58004900  1
  O  O30  1  0.58636900  0.46399600  0.08004900  1
  O  O31  1  0.53600400  0.41363100  0.41995100  1
  O  O32  1  0.30749700  0.51132600  0.30950200  1
  O  O33  1  0.48867400  0.69250300  0.19049800  1
  O  O34  1  0.69250300  0.48867400  0.69049800  1
  O  O35  1  0.51132600  0.30749700  0.80950200  1
loop_
_geom_bond_atom_site_label_1
_geom_bond_atom_site_label_2
_geom_bond_distance
_geom_bond_site_symmetry_2
Os0 Te0 2.752576 1_655
Os1 Te1 2.752576 1_545
Os2 Te2 2.752576 1_455
Os3 Te3 2.752576 1_565
Os4 Te0 2.759695 1_555
Os5 Te1 2.759695 1_555
Os6 Te2 2.759695 1_555
Os7 Te3 2.759695 1_555
Os8 Te0 2.628567 1_555
Os9 Te1 2.628567 1_555
Os10 Te2 2.628567 1_555
Os11 Te3 2.628567 1_555
C0 O0 1.168873 1_555
C0 Os0 1.896570 1_555
C1 O1 1.168873 1_555
C1 Os1 1.896570 1_555
C2 O2 1.168873 1_555
C2 Os2 1.896570 1_555
C3 O3 1.168873 1_555
C3 Os3 1.896570 1_555
C4 O4 1.165543 1_555
C4 Os0 1.871980 1_555
C5 O5 1.165543 1_555
C5 Os1 1.871980 1_555
C6 O6 1.165543 1_555
C6 Os2 1.871980 1_555
C7 O7 1.165543 1_555
C7 Os3 1.871980 1_555
C8 O8 1.165116 1_555
C8 Os0 1.944397 1_555
C9 O9 1.165116 1_554
C9 Os1 1.944397 1_555
C10 O10 1.165116 1_555
C10 Os2 1.944397 1_555
C11 O11 1.165116 1_556
C11 Os3 1.944397 1_555
C12 O12 1.164957 1_555
C12 Os4 1.897132 1_656
C13 O13 1.164957 1_555
C13 Os5 1.897132 1_545
C14 O14 1.164957 1_555
C14 Os6 1.897132 1_454
C15 O15 1.164957 1_555
C15 Os7 1.897132 1_565
C16 O16 1.170068 1_555
C16 Os4 1.871573 1_655
C17 O17 1.170068 1_555
C17 Os5 1.871573 1_545
C18 O18 1.170068 1_555
C18 Os6 1.871573 1_455
C19 O19 1.170068 1_555
C19 Os7 1.871573 1_565
C20 O20 1.167900 1_555
C20 Os4 1.947923 1_556
C21 O21 1.167900 1_555
C21 Os5 1.947923 1_555
C22 O22 1.167900 1_555
C22 Os6 1.947923 1_554
C23 O23 1.167900 1_555
C23 Os7 1.947923 1_555
C24 O24 1.163790 1_555
C24 Os8 1.942381 1_555
C25 O25 1.163790 1_555
C25 Os9 1.942381 1_555
C26 O26 1.163790 1_555
C26 Os10 1.942381 1_555
C27 O27 1.163790 1_555
C27 Os11 1.942381 1_555
C28 O28 1.164614 1_555
C28 Os8 1.870460 1_556
C29 O29 1.164606 1_555
C29 Os9 1.870460 1_555
C30 O30 1.164606 1_555
C30 Os10 1.870460 1_554
C31 O31 1.164606 1_555
C31 Os11 1.870460 1_555
C32 O32 1.163681 1_555
C32 Os8 1.872270 1_555
C33 O33 1.163681 1_555
C33 Os9 1.872270 1_555
C34 O34 1.163681 1_555
C34 Os10 1.872270 1_555
C35 O35 1.163681 1_555
C35 Os11 1.872270 1_555
