# generated using pymatgen
data_Mn5P4(HO2)10
_symmetry_space_group_name_H-M   'P 1'
_cell_length_a   10.05432771
_cell_length_b   10.05432771
_cell_length_c   9.61450367
_cell_angle_alpha   84.34754562
_cell_angle_beta   84.34754562
_cell_angle_gamma   54.81049549
_symmetry_Int_Tables_number   1
_chemical_formula_structural   Mn5P4(HO2)10
_chemical_formula_sum   'Mn10 P8 H20 O40'
_cell_volume   789.40290221
_cell_formula_units_Z   2
loop_
 _symmetry_equiv_pos_site_id
 _symmetry_equiv_pos_as_xyz
  1  'x, y, z'
loop_
 _atom_site_type_symbol
 _atom_site_label
 _atom_site_symmetry_multiplicity
 _atom_site_fract_x
 _atom_site_fract_y
 _atom_site_fract_z
 _atom_site_occupancy
  Mn  Mn0  1  0.39664000  0.60336000  0.75000000  1
  Mn  Mn1  1  0.60336000  0.39664000  0.25000000  1
  Mn  Mn2  1  0.70262700  0.64656400  0.63469400  1
  Mn  Mn3  1  0.35343600  0.29737300  0.86530600  1
  Mn  Mn4  1  0.29737300  0.35343600  0.36530600  1
  Mn  Mn5  1  0.64656400  0.70262700  0.13469400  1
  Mn  Mn6  1  0.27276400  0.09233800  0.18476800  1
  Mn  Mn7  1  0.90766200  0.72723600  0.31523200  1
  Mn  Mn8  1  0.72723600  0.90766200  0.81523200  1
  Mn  Mn9  1  0.09233800  0.27276400  0.68476800  1
  P  P0  1  0.76236000  0.40565600  0.91014200  1
  P  P1  1  0.59434400  0.23764000  0.58985800  1
  P  P2  1  0.23764000  0.59434400  0.08985800  1
  P  P3  1  0.40565600  0.76236000  0.41014200  1
  P  P4  1  0.92113600  0.40013200  0.37133400  1
  P  P5  1  0.59986800  0.07886400  0.12866600  1
  P  P6  1  0.07886400  0.59986800  0.62866600  1
  P  P7  1  0.40013200  0.92113600  0.87133400  1
  H  H0  1  0.58672800  0.88293500  0.41212200  1
  H  H1  1  0.11706500  0.41327200  0.08787800  1
  H  H2  1  0.41327200  0.11706500  0.58787800  1
  H  H3  1  0.88293500  0.58672800  0.91212200  1
  H  H4  1  0.66539900  0.92720200  0.52218500  1
  H  H5  1  0.07279800  0.33460100  0.97781500  1
  H  H6  1  0.33460100  0.07279800  0.47781500  1
  H  H7  1  0.92720200  0.66539900  0.02218500  1
  H  H8  1  0.97560400  0.16066900  0.21971000  1
  H  H9  1  0.83933100  0.02439600  0.28029000  1
  H  H10  1  0.02439600  0.83933100  0.78029000  1
  H  H11  1  0.16066900  0.97560400  0.71971000  1
  H  H12  1  0.07582600  0.99032700  0.13758700  1
  H  H13  1  0.00967300  0.92417400  0.36241300  1
  H  H14  1  0.92417400  0.00967300  0.86241300  1
  H  H15  1  0.99032700  0.07582600  0.63758700  1
  H  H16  1  0.75034600  0.20528400  0.00840700  1
  H  H17  1  0.79471600  0.24965400  0.49159300  1
  H  H18  1  0.24965400  0.79471600  0.99159300  1
  H  H19  1  0.20528400  0.75034600  0.50840700  1
  O  O0  1  0.64456400  0.51121300  0.79310900  1
  O  O1  1  0.48878700  0.35543600  0.70689100  1
  O  O2  1  0.35543600  0.48878700  0.20689100  1
  O  O3  1  0.51121300  0.64456400  0.29310900  1
  O  O4  1  0.69108800  0.47756000  0.05530900  1
  O  O5  1  0.52244000  0.30891200  0.44469100  1
  O  O6  1  0.30891200  0.52244000  0.94469100  1
  O  O7  1  0.47756000  0.69108800  0.55530900  1
  O  O8  1  0.92468700  0.38771800  0.86842000  1
  O  O9  1  0.61228200  0.07531300  0.63158000  1
  O  O10  1  0.07531300  0.61228200  0.13158000  1
  O  O11  1  0.38771800  0.92468700  0.36842000  1
  O  O12  1  0.79772400  0.22910900  0.91896100  1
  O  O13  1  0.77089100  0.20227600  0.58103900  1
  O  O14  1  0.20227600  0.77089100  0.08103900  1
  O  O15  1  0.22910900  0.79772400  0.41896100  1
  O  O16  1  0.89977700  0.42805000  0.53188600  1
  O  O17  1  0.57195000  0.10022300  0.96811400  1
  O  O18  1  0.10022300  0.57195000  0.46811400  1
  O  O19  1  0.42805000  0.89977700  0.03188600  1
  O  O20  1  0.10461300  0.29811800  0.32543400  1
  O  O21  1  0.70188200  0.89538700  0.17456600  1
  O  O22  1  0.89538700  0.70188200  0.67456600  1
  O  O23  1  0.29811800  0.10461300  0.82543400  1
  O  O24  1  0.84178400  0.30970600  0.34234500  1
  O  O25  1  0.69029400  0.15821600  0.15765500  1
  O  O26  1  0.15821600  0.69029400  0.65765500  1
  O  O27  1  0.30970600  0.84178400  0.84234500  1
  O  O28  1  0.83452700  0.56841000  0.28876400  1
  O  O29  1  0.43159000  0.16547300  0.21123600  1
  O  O30  1  0.16547300  0.43159000  0.71123600  1
  O  O31  1  0.56841000  0.83452700  0.78876400  1
  O  O32  1  0.68106900  0.83610300  0.47133300  1
  O  O33  1  0.16389700  0.31893100  0.02866700  1
  O  O34  1  0.31893100  0.16389700  0.52866700  1
  O  O35  1  0.83610300  0.68106900  0.97133300  1
  O  O36  1  0.06622200  0.09120400  0.15139900  1
  O  O37  1  0.90879600  0.93377800  0.34860100  1
  O  O38  1  0.93377800  0.90879600  0.84860100  1
  O  O39  1  0.09120400  0.06622200  0.65139900  1
loop_
_geom_bond_atom_site_label_1
_geom_bond_atom_site_label_2
_geom_bond_distance
_geom_bond_site_symmetry_2
Mn0 O0 2.170218 1_555
Mn0 O1 2.170218 1_555
Mn0 O6 2.268407 1_555
Mn0 O7 2.268407 1_555
Mn0 O27 2.269410 1_555
Mn0 O26 2.269410 1_555
Mn1 O2 2.170218 1_555
Mn1 O3 2.170218 1_555
Mn1 O5 2.268407 1_555
Mn1 O4 2.268407 1_555
Mn1 O24 2.269410 1_555
Mn1 O25 2.269410 1_555
Mn2 O16 2.180715 1_555
Mn2 O31 2.192065 1_555
Mn2 O0 2.201076 1_555
Mn2 O7 2.238083 1_555
Mn2 O32 2.268676 1_555
Mn2 O22 2.375533 1_555
Mn3 O17 2.180715 1_555
Mn3 O30 2.192065 1_555
Mn3 O1 2.201076 1_555
Mn3 O6 2.238083 1_555
Mn3 O33 2.268676 1_556
Mn3 O23 2.375533 1_555
Mn4 O18 2.180715 1_555
Mn4 O29 2.192065 1_555
Mn4 O2 2.201076 1_555
Mn4 O5 2.238083 1_555
Mn4 O34 2.268676 1_555
Mn4 O20 2.375533 1_555
Mn5 O19 2.180715 1_555
Mn5 O28 2.192065 1_555
Mn5 O3 2.201076 1_555
Mn5 O4 2.238083 1_555
Mn5 O35 2.268676 1_554
Mn5 O21 2.375533 1_555
Mn6 O36 2.138866 1_555
Mn6 O29 2.150767 1_555
Mn6 O11 2.205718 1_545
Mn6 O19 2.229606 1_545
Mn6 O20 2.244384 1_555
Mn6 O33 2.327417 1_555
Mn7 O37 2.138866 1_555
Mn7 O28 2.150767 1_555
Mn7 O10 2.205718 1_655
Mn7 O18 2.229606 1_655
Mn7 O21 2.244384 1_555
Mn7 O32 2.327417 1_555
Mn8 O38 2.138866 1_555
Mn8 O31 2.150767 1_555
Mn8 O9 2.205718 1_565
Mn8 O17 2.229606 1_565
Mn8 O22 2.244384 1_555
Mn8 O35 2.327417 1_555
Mn9 O39 2.138866 1_555
Mn9 O30 2.150767 1_555
Mn9 O8 2.205718 1_455
Mn9 O16 2.229606 1_455
Mn9 O23 2.244384 1_555
Mn9 O34 2.327417 1_555
H0 O32 0.992125 1_555
H1 O33 0.992125 1_555
H2 O34 0.992125 1_555
H3 O35 0.992125 1_555
H4 O32 1.004751 1_555
H4 O9 1.700088 1_565
H5 O33 1.004751 1_556
H5 O8 1.700088 1_455
H6 O34 1.004751 1_555
H6 O11 1.700088 1_545
H7 O35 1.004751 1_554
H7 O10 1.700088 1_655
H8 O36 0.994145 1_655
H9 O37 0.994145 1_545
H10 O38 0.994145 1_455
H11 O39 0.994145 1_565
H12 O36 0.983254 1_565
H13 O37 0.983254 1_455
H14 O38 0.983254 1_545
H15 O39 0.983254 1_655
H16 O12 1.016906 1_554
H16 O25 1.634767 1_555
H17 O13 1.016906 1_555
H17 O24 1.634767 1_555
H18 O14 1.016906 1_556
H18 O27 1.634767 1_555
H19 O15 1.016906 1_555
H19 O26 1.634767 1_555
O0 P0 1.540689 1_555
O1 P1 1.540689 1_555
O2 P2 1.540689 1_555
O3 P3 1.540689 1_555
O4 P0 1.545578 1_554
O5 P1 1.545578 1_555
O6 P2 1.545578 1_556
O7 P3 1.545578 1_555
O8 P0 1.550218 1_555
O9 P1 1.550218 1_555
O10 P2 1.550218 1_555
O11 P3 1.550218 1_555
O12 P0 1.591639 1_555
O13 P1 1.591639 1_555
O14 P2 1.591639 1_555
O15 P3 1.591639 1_555
O16 P4 1.567888 1_555
O17 P5 1.567888 1_556
O18 P6 1.567888 1_555
O19 P7 1.567888 1_554
O20 P4 1.548498 1_455
O21 P5 1.548498 1_565
O22 P6 1.548498 1_655
O23 P7 1.548498 1_545
O24 P4 1.571803 1_555
O25 P5 1.571803 1_555
O26 P6 1.571803 1_555
O27 P7 1.571803 1_555
O28 P4 1.557116 1_555
O29 P5 1.557116 1_555
O30 P6 1.557116 1_555
O31 P7 1.557116 1_555
