# generated using pymatgen
data_LiMn2O4
_symmetry_space_group_name_H-M   'P 1'
_cell_length_a   5.93775437
_cell_length_b   5.93775437
_cell_length_c   5.93775421
_cell_angle_alpha   59.52424239
_cell_angle_beta   59.52424239
_cell_angle_gamma   59.52423698
_symmetry_Int_Tables_number   1
_chemical_formula_structural   LiMn2O4
_chemical_formula_sum   'Li2 Mn4 O8'
_cell_volume   146.42919691
_cell_formula_units_Z   2
loop_
 _symmetry_equiv_pos_site_id
 _symmetry_equiv_pos_as_xyz
  1  'x, y, z'
loop_
 _atom_site_type_symbol
 _atom_site_label
 _atom_site_symmetry_multiplicity
 _atom_site_fract_x
 _atom_site_fract_y
 _atom_site_fract_z
 _atom_site_occupancy
  Li  Li0  1  0.88342300  0.88342300  0.88342300  1
  Li  Li1  1  0.50073200  0.50073200  0.50073200  1
  Mn  Mn0  1  0.50100100  0.99421100  0.50100100  1
  Mn  Mn1  1  0.99421100  0.50100100  0.50100100  1
  Mn  Mn2  1  0.50100100  0.50100100  0.99421100  1
  Mn  Mn3  1  0.11863600  0.11863600  0.11863600  1
  O  O0  1  0.73734700  0.73734700  0.73734700  1
  O  O1  1  0.74861700  0.74861700  0.29123200  1
  O  O2  1  0.29123200  0.74861700  0.74861700  1
  O  O3  1  0.74861700  0.29123200  0.74861700  1
  O  O4  1  0.25479100  0.70453500  0.25479100  1
  O  O5  1  0.70453500  0.25479100  0.25479100  1
  O  O6  1  0.25479100  0.25479100  0.70453500  1
  O  O7  1  0.26106600  0.26106600  0.26106600  1
loop_
_geom_bond_atom_site_label_1
_geom_bond_atom_site_label_2
_geom_bond_distance
_geom_bond_site_symmetry_2
Li0 O3 1.965380 1_565
Li0 O2 1.965380 1_655
Li0 O1 1.965380 1_556
Li0 O0 2.132205 1_555
Li1 O4 2.075490 1_555
Li1 O5 2.075490 1_555
Li1 O6 2.075490 1_555
Li1 O2 2.088864 1_555
Li1 O3 2.088864 1_555
Li1 O1 2.088864 1_555
Mn0 O1 1.910420 1_555
Mn0 O2 1.910420 1_555
Mn0 O6 1.949865 1_565
Mn0 O5 1.949865 1_565
Mn0 O0 1.980036 1_555
Mn0 O7 2.012285 1_565
Mn1 O1 1.910420 1_555
Mn1 O3 1.910420 1_555
Mn1 O6 1.949865 1_655
Mn1 O4 1.949865 1_655
Mn1 O0 1.980036 1_555
Mn1 O7 2.012285 1_655
Mn2 O2 1.910420 1_555
Mn2 O3 1.910420 1_555
Mn2 O4 1.949865 1_556
Mn2 O5 1.949865 1_556
Mn2 O0 1.980036 1_555
Mn2 O7 2.012286 1_556
Mn3 O4 1.995814 1_545
Mn3 O5 1.995814 1_455
Mn3 O6 1.995814 1_554
Mn3 O7 2.078986 1_555
