# generated using pymatgen
data_Na2BiBSO7
_symmetry_space_group_name_H-M   'P 1'
_cell_length_a   7.07899900
_cell_length_b   5.52820000
_cell_length_c   9.67658829
_cell_angle_alpha   88.82830983
_cell_angle_beta   90.00000000
_cell_angle_gamma   90.00000000
_symmetry_Int_Tables_number   1
_chemical_formula_structural   Na2BiBSO7
_chemical_formula_sum   'Na4 Bi2 B2 S2 O14'
_cell_volume   378.60560964
_cell_formula_units_Z   2
loop_
 _symmetry_equiv_pos_site_id
 _symmetry_equiv_pos_as_xyz
  1  'x, y, z'
loop_
 _atom_site_type_symbol
 _atom_site_label
 _atom_site_symmetry_multiplicity
 _atom_site_fract_x
 _atom_site_fract_y
 _atom_site_fract_z
 _atom_site_occupancy
  Na  Na0  1  0.50341700  0.23975700  0.81843600  1
  Na  Na1  1  0.99658300  0.23975700  0.81843600  1
  Na  Na2  1  0.49658300  0.76024300  0.18156400  1
  Na  Na3  1  0.00341700  0.76024300  0.18156400  1
  Bi  Bi0  1  0.75000000  0.76375600  0.63931500  1
  Bi  Bi1  1  0.25000000  0.23624400  0.36068500  1
  B  B0  1  0.75000000  0.73762000  0.91374800  1
  B  B1  1  0.25000000  0.26238000  0.08625200  1
  S  S0  1  0.25000000  0.72091600  0.59717400  1
  S  S1  1  0.75000000  0.27908400  0.40282600  1
  O  O0  1  0.25000000  0.27186600  0.95071600  1
  O  O1  1  0.75000000  0.95730900  0.83048400  1
  O  O2  1  0.75000000  0.53260000  0.82359400  1
  O  O3  1  0.08134000  0.84754900  0.65683800  1
  O  O4  1  0.41866000  0.84754900  0.65683800  1
  O  O5  1  0.75000000  0.24739100  0.55765500  1
  O  O6  1  0.25000000  0.46082400  0.63397400  1
  O  O7  1  0.75000000  0.53917600  0.36602600  1
  O  O8  1  0.25000000  0.75260900  0.44234500  1
  O  O9  1  0.58134000  0.15245100  0.34316200  1
  O  O10  1  0.91866000  0.15245100  0.34316200  1
  O  O11  1  0.25000000  0.46740000  0.17640600  1
  O  O12  1  0.25000000  0.04269100  0.16951600  1
  O  O13  1  0.75000000  0.72813400  0.04928400  1
loop_
_geom_bond_atom_site_label_1
_geom_bond_atom_site_label_2
_geom_bond_distance
_geom_bond_site_symmetry_2
Na0 O0 2.213022 1_555
Na0 O1 2.343329 1_545
Na0 O2 2.381932 1_555
Na0 O4 2.764955 1_545
Na0 O6 2.794393 1_555
Na1 O0 2.213022 1_655
Na1 O1 2.343329 1_545
Na1 O2 2.381932 1_555
Na1 O3 2.764955 1_645
Na1 O6 2.794393 1_655
Na2 O13 2.213022 1_555
Na2 O12 2.343329 1_565
Na2 O11 2.381932 1_555
Na2 O9 2.764955 1_565
Na2 O7 2.794393 1_555
Na3 O13 2.213022 1_455
Na3 O12 2.343329 1_565
Na3 O11 2.381932 1_555
Na3 O10 2.764955 1_465
Na3 O7 2.794393 1_455
Bi0 O1 2.155886 1_555
Bi0 O2 2.172453 1_555
Bi0 O4 2.397534 1_555
Bi0 O3 2.397534 1_655
Bi1 O12 2.155886 1_555
Bi1 O11 2.172453 1_555
Bi1 O10 2.397534 1_455
Bi1 O9 2.397534 1_555
B0 O13 1.311502 1_556
B0 O1 1.443650 1_555
B0 O2 1.444322 1_555
B1 O0 1.311502 1_554
B1 O12 1.443650 1_555
B1 O11 1.444322 1_555
O3 S0 1.505135 1_555
O4 S0 1.505135 1_555
O5 S1 1.504864 1_555
O6 S0 1.474195 1_555
O7 S1 1.474195 1_555
O8 S0 1.504864 1_555
O9 S1 1.505135 1_555
O10 S1 1.505135 1_555
