# generated using pymatgen
data_Li4Mn3Sb(PO4)4
_symmetry_space_group_name_H-M   'P 1'
_cell_length_a   6.40108300
_cell_length_b   4.79943900
_cell_length_c   10.77635667
_cell_angle_alpha   88.55611682
_cell_angle_beta   90.00000000
_cell_angle_gamma   90.00000000
_symmetry_Int_Tables_number   1
_chemical_formula_structural   Li4Mn3Sb(PO4)4
_chemical_formula_sum   'Li4 Mn3 Sb1 P4 O16'
_cell_volume   330.96187953
_cell_formula_units_Z   1
loop_
 _symmetry_equiv_pos_site_id
 _symmetry_equiv_pos_as_xyz
  1  'x, y, z'
loop_
 _atom_site_type_symbol
 _atom_site_label
 _atom_site_symmetry_multiplicity
 _atom_site_fract_x
 _atom_site_fract_y
 _atom_site_fract_z
 _atom_site_occupancy
  Li  Li0  1  0.25223900  0.00424400  0.00477800  1
  Li  Li1  1  0.74776100  0.00424400  0.00477800  1
  Li  Li2  1  0.74507400  0.49508700  0.49702800  1
  Li  Li3  1  0.25492600  0.49508700  0.49702800  1
  Mn  Mn0  1  0.00000000  0.03140400  0.27483000  1
  Mn  Mn1  1  0.00000000  0.47314800  0.79153700  1
  Mn  Mn2  1  0.50000000  0.53566100  0.21324400  1
  Sb  Sb0  1  0.50000000  0.91316400  0.71030500  1
  P  P0  1  0.50000000  0.08477100  0.39556200  1
  P  P1  1  0.50000000  0.41441000  0.92044600  1
  P  P2  1  0.00000000  0.59467900  0.09342600  1
  P  P3  1  0.00000000  0.91532800  0.58352300  1
  O  O0  1  0.50000000  0.19444800  0.53183000  1
  O  O1  1  0.30394800  0.21936400  0.33098800  1
  O  O2  1  0.69605200  0.21936400  0.33098800  1
  O  O3  1  0.00000000  0.23402900  0.59374500  1
  O  O4  1  0.00000000  0.27343300  0.09887800  1
  O  O5  1  0.29641200  0.30480300  0.85685500  1
  O  O6  1  0.70358800  0.30480300  0.85685500  1
  O  O7  1  0.50000000  0.27977800  0.05396100  1
  O  O8  1  0.00000000  0.72063300  0.95822400  1
  O  O9  1  0.80561400  0.72200600  0.16136700  1
  O  O10  1  0.19438600  0.72200600  0.16136700  1
  O  O11  1  0.50000000  0.73843100  0.92528600  1
  O  O12  1  0.50000000  0.76329700  0.39473700  1
  O  O13  1  0.81406800  0.76880700  0.65417100  1
  O  O14  1  0.18593200  0.76880700  0.65417100  1
  O  O15  1  0.00000000  0.80476000  0.45008900  1
loop_
_geom_bond_atom_site_label_1
_geom_bond_atom_site_label_2
_geom_bond_distance
_geom_bond_site_symmetry_2
Li0 O7 2.140141 1_555
Li0 O5 2.141490 1_554
Li0 O10 2.168953 1_545
Li0 O8 2.178494 1_544
Li0 O11 2.220731 1_544
Li0 O4 2.317418 1_555
Li1 O7 2.140141 1_555
Li1 O6 2.141490 1_554
Li1 O9 2.168953 1_545
Li1 O8 2.178494 1_644
Li1 O11 2.220731 1_544
Li1 O4 2.317418 1_655
Li2 O0 2.157842 1_555
Li2 O13 2.213746 1_555
Li2 O15 2.256040 1_655
Li2 O2 2.273890 1_555
Li2 O3 2.291966 1_655
Li2 O12 2.293814 1_555
Li3 O0 2.157842 1_555
Li3 O14 2.213746 1_555
Li3 O15 2.256040 1_555
Li3 O1 2.273890 1_555
Li3 O3 2.291966 1_555
Li3 O12 2.293814 1_555
Mn0 O15 2.155623 1_545
Mn0 O4 2.198545 1_555
Mn0 O2 2.234477 1_455
Mn0 O1 2.234477 1_555
Mn0 O9 2.310803 1_445
Mn0 O10 2.310803 1_545
Mn1 O5 2.172457 1_555
Mn1 O6 2.172457 1_455
Mn1 O8 2.178298 1_555
Mn1 O14 2.348509 1_555
Mn1 O13 2.348509 1_455
Mn1 O3 2.446128 1_555
Mn2 O7 2.135601 1_555
Mn2 O9 2.216789 1_555
Mn2 O10 2.216789 1_555
Mn2 O12 2.264195 1_555
Mn2 O1 2.322126 1_555
Mn2 O2 2.322126 1_555
O0 P0 1.572403 1_555
O0 Sb0 2.321807 1_545
O1 P0 1.566445 1_555
O2 P0 1.566445 1_555
O3 P3 1.536313 1_545
O4 P2 1.541440 1_555
O5 P1 1.569329 1_555
O6 P1 1.569329 1_555
O7 P1 1.562315 1_554
O8 P2 1.563282 1_556
O9 P2 1.574890 1_655
O10 P2 1.574890 1_555
O11 P1 1.557306 1_555
O11 Sb0 2.443875 1_555
O12 P0 1.543144 1_565
O13 P3 1.569602 1_655
O13 Sb0 2.215553 1_555
O14 P3 1.569602 1_555
O14 Sb0 2.215553 1_555
O15 P3 1.545221 1_555
