# generated using pymatgen
data_MnV2Pb2O9
_symmetry_space_group_name_H-M   'P 1'
_cell_length_a   5.93204400
_cell_length_b   8.24245122
_cell_length_c   9.09674285
_cell_angle_alpha   113.03762710
_cell_angle_beta   90.00000000
_cell_angle_gamma   90.00000000
_symmetry_Int_Tables_number   1
_chemical_formula_structural   MnV2Pb2O9
_chemical_formula_sum   'Mn2 V4 Pb4 O18'
_cell_volume   409.30926562
_cell_formula_units_Z   2
loop_
 _symmetry_equiv_pos_site_id
 _symmetry_equiv_pos_as_xyz
  1  'x, y, z'
loop_
 _atom_site_type_symbol
 _atom_site_label
 _atom_site_symmetry_multiplicity
 _atom_site_fract_x
 _atom_site_fract_y
 _atom_site_fract_z
 _atom_site_occupancy
  Mn  Mn0  1  0.50000000  0.00000000  0.00000000  1
  Mn  Mn1  1  0.00000000  0.00000000  0.00000000  1
  V  V0  1  0.25000000  0.41478500  0.17398200  1
  V  V1  1  0.75000000  0.58521500  0.82601800  1
  V  V2  1  0.25000000  0.02114200  0.32306200  1
  V  V3  1  0.75000000  0.97885800  0.67693800  1
  Pb  Pb0  1  0.25000000  0.70965200  0.63318300  1
  Pb  Pb1  1  0.75000000  0.29034800  0.36681700  1
  Pb  Pb2  1  0.25000000  0.29165000  0.73062900  1
  Pb  Pb3  1  0.75000000  0.70835000  0.26937100  1
  O  O0  1  0.49078300  0.49020500  0.29125500  1
  O  O1  1  0.99078300  0.50979500  0.70874500  1
  O  O2  1  0.50921700  0.50979500  0.70874500  1
  O  O3  1  0.00921700  0.49020500  0.29125500  1
  O  O4  1  0.25000000  0.48952800  0.02855200  1
  O  O5  1  0.75000000  0.51047200  0.97144800  1
  O  O6  1  0.25000000  0.16875500  0.07992200  1
  O  O7  1  0.75000000  0.83124500  0.92007800  1
  O  O8  1  0.25000000  0.24367300  0.44207400  1
  O  O9  1  0.75000000  0.75632700  0.55792600  1
  O  O10  1  0.50138400  0.03153800  0.79945900  1
  O  O11  1  0.00138400  0.96846200  0.20054100  1
  O  O12  1  0.49861600  0.96846200  0.20054100  1
  O  O13  1  0.99861600  0.03153800  0.79945900  1
  O  O14  1  0.25000000  0.90664300  0.44106000  1
  O  O15  1  0.75000000  0.09335700  0.55894000  1
  O  O16  1  0.25000000  0.84147500  0.92142500  1
  O  O17  1  0.75000000  0.15852500  0.07857500  1
loop_
_geom_bond_atom_site_label_1
_geom_bond_atom_site_label_2
_geom_bond_distance
_geom_bond_site_symmetry_2
Mn0 O17 1.920038 1_555
Mn0 O16 1.920038 1_544
Mn0 O10 1.940814 1_554
Mn0 O12 1.940814 1_545
Mn0 O7 1.967527 1_544
Mn0 O6 1.967527 1_555
Mn1 O17 1.920038 1_455
Mn1 O16 1.920038 1_544
Mn1 O13 1.940814 1_454
Mn1 O11 1.940814 1_545
Mn1 O7 1.967527 1_444
Mn1 O6 1.967527 1_555
O0 V0 1.745166 1_555
O0 Pb3 2.432539 1_555
O0 Pb1 2.537088 1_555
O1 V1 1.745166 1_555
O1 Pb2 2.432539 1_655
O1 Pb0 2.537088 1_655
O2 V1 1.745166 1_555
O2 Pb2 2.432539 1_555
O2 Pb0 2.537088 1_555
O3 V0 1.745166 1_555
O3 Pb3 2.432539 1_455
O3 Pb1 2.537088 1_455
O4 V0 1.663609 1_555
O4 Pb2 2.558394 1_554
O5 V1 1.663609 1_555
O5 Pb3 2.558394 1_556
O6 V0 1.867194 1_555
O7 V1 1.867194 1_555
O8 V2 1.726898 1_555
O8 Pb2 2.496820 1_555
O9 V3 1.726898 1_555
O9 Pb3 2.496820 1_555
O10 V3 1.796388 1_545
O11 V2 1.796388 1_565
O12 V2 1.796388 1_565
O13 V3 1.796388 1_545
O14 V2 1.683958 1_565
O15 V3 1.683958 1_545
O16 Pb0 2.413705 1_555
O17 Pb1 2.413705 1_555
