# generated using pymatgen
data_ZnH12C2(N3Cl2)2
_symmetry_space_group_name_H-M   'P 1'
_cell_length_a   7.22777900
_cell_length_b   7.40080401
_cell_length_c   12.80656544
_cell_angle_alpha   82.15466620
_cell_angle_beta   86.19956078
_cell_angle_gamma   76.87647795
_symmetry_Int_Tables_number   1
_chemical_formula_structural   ZnH12C2(N3Cl2)2
_chemical_formula_sum   'Zn2 H24 C4 N12 Cl8'
_cell_volume   660.46278669
_cell_formula_units_Z   2
loop_
 _symmetry_equiv_pos_site_id
 _symmetry_equiv_pos_as_xyz
  1  'x, y, z'
loop_
 _atom_site_type_symbol
 _atom_site_label
 _atom_site_symmetry_multiplicity
 _atom_site_fract_x
 _atom_site_fract_y
 _atom_site_fract_z
 _atom_site_occupancy
  Zn  Zn0  1  0.95747700  0.17493600  0.22441800  1
  Zn  Zn1  1  0.04252300  0.82506400  0.77558200  1
  H  H0  1  0.24426000  0.04065000  0.52009100  1
  H  H1  1  0.75574000  0.95935000  0.47990900  1
  H  H2  1  0.23583200  0.16854200  0.39292600  1
  H  H3  1  0.76416800  0.83145800  0.60707400  1
  H  H4  1  0.24586500  0.48549100  0.37299000  1
  H  H5  1  0.75413500  0.51450900  0.62701000  1
  H  H6  1  0.26234200  0.59322900  0.48588700  1
  H  H7  1  0.73765800  0.40677100  0.51411300  1
  H  H8  1  0.28718100  0.42704700  0.64698300  1
  H  H9  1  0.71281900  0.57295300  0.35301700  1
  H  H10  1  0.27344800  0.18930400  0.66573700  1
  H  H11  1  0.72655200  0.81069600  0.33426300  1
  H  H12  1  0.37344800  0.65219300  0.17102400  1
  H  H13  1  0.62655200  0.34780700  0.82897600  1
  H  H14  1  0.56898400  0.49391300  0.12137900  1
  H  H15  1  0.43101600  0.50608700  0.87862100  1
  H  H16  1  0.84173100  0.59991000  0.05942500  1
  H  H17  1  0.15826900  0.40009000  0.94057500  1
  H  H18  1  0.84994300  0.83459400  0.06296200  1
  H  H19  1  0.15005700  0.16540600  0.93703800  1
  H  H20  1  0.59252200  0.03948500  0.12852200  1
  H  H21  1  0.40747800  0.96051500  0.87147800  1
  H  H22  1  0.38644800  0.95860000  0.17610700  1
  H  H23  1  0.61355200  0.04140000  0.82389300  1
  C  C0  1  0.25685600  0.31641100  0.51372200  1
  C  C1  1  0.74314400  0.68358900  0.48627800  1
  C  C2  1  0.60256000  0.76230300  0.11948400  1
  C  C3  1  0.39744000  0.23769700  0.88051600  1
  N  N0  1  0.24364300  0.16326800  0.47249600  1
  N  N1  1  0.75635700  0.83673200  0.52750400  1
  N  N2  1  0.25470900  0.47783600  0.45251600  1
  N  N3  1  0.74529100  0.52216400  0.54748400  1
  N  N4  1  0.27518400  0.30906000  0.61744100  1
  N  N5  1  0.72481600  0.69094000  0.38255900  1
  N  N6  1  0.50827700  0.62517200  0.13930200  1
  N  N7  1  0.49172300  0.37482800  0.86069800  1
  N  N8  1  0.77852800  0.72984000  0.07741600  1
  N  N9  1  0.22147200  0.27016000  0.92258400  1
  N  N10  1  0.52115300  0.93394600  0.14377300  1
  N  N11  1  0.47884700  0.06605400  0.85622700  1
  Cl  Cl0  1  0.72202100  0.23850400  0.35437800  1
  Cl  Cl1  1  0.27797900  0.76149600  0.64562200  1
  Cl  Cl2  1  0.11136600  0.87081600  0.26944500  1
  Cl  Cl3  1  0.88863400  0.12918400  0.73055500  1
  Cl  Cl4  1  0.81377500  0.22452900  0.06490900  1
  Cl  Cl5  1  0.18622500  0.77547100  0.93509100  1
  Cl  Cl6  1  0.17753300  0.35526500  0.21208000  1
  Cl  Cl7  1  0.82246700  0.64473500  0.78792000  1
loop_
_geom_bond_atom_site_label_1
_geom_bond_atom_site_label_2
_geom_bond_distance
_geom_bond_site_symmetry_2
H0 N0 1.021063 1_555
H1 N1 1.021063 1_555
H2 N0 1.019253 1_555
H3 N1 1.019253 1_555
H4 N2 1.017733 1_555
H5 N3 1.017733 1_555
H6 N2 1.019393 1_555
H7 N3 1.019393 1_555
H8 N4 1.020808 1_555
H9 N5 1.020808 1_555
H10 N4 1.011231 1_555
H11 N5 1.011231 1_555
H12 N6 1.017796 1_555
H13 N7 1.017796 1_555
H14 N6 1.021193 1_555
H15 N7 1.021193 1_555
H16 N8 1.016599 1_555
H17 N9 1.016599 1_555
H18 N8 1.015680 1_555
H19 N9 1.015680 1_555
H20 N10 1.020917 1_545
H21 N11 1.020917 1_565
H22 N10 1.019414 1_555
H23 N11 1.019414 1_555
C0 N2 1.333957 1_555
C0 N4 1.336103 1_555
C0 N0 1.338511 1_555
C1 N3 1.333957 1_555
C1 N5 1.336103 1_555
C1 N1 1.338511 1_555
C2 N8 1.330915 1_555
C2 N6 1.334012 1_555
C2 N10 1.341944 1_555
C3 N9 1.330915 1_555
C3 N7 1.334012 1_555
C3 N11 1.341944 1_555
Cl0 Zn0 2.315660 1_555
Cl1 Zn1 2.315660 1_555
Cl2 Zn0 2.286780 1_465
Cl3 Zn1 2.286780 1_645
Cl4 Zn0 2.299966 1_555
Cl5 Zn1 2.299966 1_555
Cl6 Zn0 2.282288 1_455
Cl7 Zn1 2.282288 1_655
