# generated using pymatgen
data_V2P2O7
_symmetry_space_group_name_H-M   'P 1'
_cell_length_a   6.52810200
_cell_length_b   6.52810200
_cell_length_c   23.62124200
_cell_angle_alpha   90.00000000
_cell_angle_beta   90.00000000
_cell_angle_gamma   90.00000000
_symmetry_Int_Tables_number   1
_chemical_formula_structural   V2P2O7
_chemical_formula_sum   'V16 P16 O56'
_cell_volume   1006.64558258
_cell_formula_units_Z   8
loop_
 _symmetry_equiv_pos_site_id
 _symmetry_equiv_pos_as_xyz
  1  'x, y, z'
loop_
 _atom_site_type_symbol
 _atom_site_label
 _atom_site_symmetry_multiplicity
 _atom_site_fract_x
 _atom_site_fract_y
 _atom_site_fract_z
 _atom_site_occupancy
  V  V0  1  0.11664800  0.59553900  0.88031000  1
  V  V1  1  0.11263700  0.22013700  0.99854800  1
  V  V2  1  0.16437600  0.53401600  0.26149400  1
  V  V3  1  0.17964500  0.24516600  0.64088700  1
  V  V4  1  0.22013700  0.88736300  0.74854800  1
  V  V5  1  0.24516600  0.82035500  0.39088700  1
  V  V6  1  0.40446100  0.11664800  0.13031000  1
  V  V7  1  0.46598400  0.16437600  0.51149400  1
  V  V8  1  0.53401600  0.83562400  0.01149400  1
  V  V9  1  0.59553900  0.88335200  0.63031000  1
  V  V10  1  0.75483400  0.17964500  0.89088700  1
  V  V11  1  0.77986300  0.11263700  0.24854800  1
  V  V12  1  0.82035500  0.75483400  0.14088700  1
  V  V13  1  0.83562400  0.46598400  0.76149400  1
  V  V14  1  0.88736300  0.77986300  0.49854800  1
  V  V15  1  0.88335200  0.40446100  0.38031000  1
  P  P0  1  0.05013100  0.71890500  0.01771800  1
  P  P1  1  0.11737400  0.73791200  0.62310300  1
  P  P2  1  0.26208800  0.11737400  0.87310300  1
  P  P3  1  0.28109500  0.05013100  0.26771800  1
  P  P4  1  0.29580600  0.63946100  0.12514600  1
  P  P5  1  0.31797900  0.37634400  0.76837600  1
  P  P6  1  0.36053900  0.29580600  0.37514600  1
  P  P7  1  0.37634400  0.68202100  0.51837600  1
  P  P8  1  0.62365600  0.31797900  0.01837600  1
  P  P9  1  0.63946100  0.70419400  0.87514600  1
  P  P10  1  0.68202100  0.62365600  0.26837600  1
  P  P11  1  0.70419400  0.36053900  0.62514600  1
  P  P12  1  0.71890500  0.94986900  0.76771800  1
  P  P13  1  0.73791200  0.88262600  0.37310300  1
  P  P14  1  0.88262600  0.26208800  0.12310300  1
  P  P15  1  0.94986900  0.28109500  0.51771800  1
  O  O0  1  0.03935400  0.55423100  0.97177000  1
  O  O1  1  0.07466300  0.17455100  0.09448400  1
  O  O2  1  0.08569300  0.24984100  0.89888600  1
  O  O3  1  0.10156000  0.56555900  0.66548800  1
  O  O4  1  0.10292900  0.18781700  0.24906800  1
  O  O5  1  0.15241000  0.21102600  0.54492300  1
  O  O6  1  0.14959900  0.74838500  0.16601000  1
  O  O7  1  0.16803900  0.59524800  0.06727800  1
  O  O8  1  0.15989300  0.54286900  0.78667800  1
  O  O9  1  0.17455100  0.92533700  0.84448400  1
  O  O10  1  0.18781700  0.89707100  0.99906800  1
  O  O11  1  0.21179400  0.21632700  0.73052700  1
  O  O12  1  0.21102600  0.84759000  0.29492300  1
  O  O13  1  0.20942200  0.47252400  0.35681400  1
  O  O14  1  0.21632700  0.78820600  0.48052700  1
  O  O15  1  0.25161500  0.14959900  0.41601000  1
  O  O16  1  0.25193000  0.62804200  0.57483100  1
  O  O17  1  0.24984100  0.91430700  0.64888600  1
  O  O18  1  0.37502200  0.43427100  0.14305200  1
  O  O19  1  0.37195800  0.25193000  0.82483100  1
  O  O20  1  0.43444100  0.10156000  0.91548800  1
  O  O21  1  0.40475200  0.16803900  0.31727800  1
  O  O22  1  0.44576900  0.03935400  0.22177000  1
  O  O23  1  0.43427100  0.62497800  0.89305200  1
  O  O24  1  0.45713100  0.15989300  0.03667800  1
  O  O25  1  0.47252400  0.79057800  0.10681400  1
  O  O26  1  0.46774900  0.48574800  0.49781500  1
  O  O27  1  0.51425200  0.46774900  0.74781500  1
  O  O28  1  0.48574800  0.53225100  0.24781500  1
  O  O29  1  0.53225100  0.51425200  0.99781500  1
  O  O30  1  0.52747600  0.20942200  0.60681400  1
  O  O31  1  0.54286900  0.84010700  0.53667800  1
  O  O32  1  0.56572900  0.37502200  0.39305200  1
  O  O33  1  0.55423100  0.96064600  0.72177000  1
  O  O34  1  0.59524800  0.83196100  0.81727800  1
  O  O35  1  0.56555900  0.89844000  0.41548800  1
  O  O36  1  0.62804200  0.74807000  0.32483100  1
  O  O37  1  0.62497800  0.56572900  0.64305200  1
  O  O38  1  0.75015900  0.08569300  0.14888600  1
  O  O39  1  0.74807000  0.37195800  0.07483100  1
  O  O40  1  0.74838500  0.85040100  0.91601000  1
  O  O41  1  0.78367300  0.21179400  0.98052700  1
  O  O42  1  0.79057800  0.52747600  0.85681400  1
  O  O43  1  0.78897400  0.15241000  0.79492300  1
  O  O44  1  0.78820600  0.78367300  0.23052700  1
  O  O45  1  0.81218300  0.10292900  0.49906800  1
  O  O46  1  0.82544900  0.07466300  0.34448400  1
  O  O47  1  0.84010700  0.45713100  0.28667800  1
  O  O48  1  0.83196100  0.40475200  0.56727800  1
  O  O49  1  0.85040100  0.25161500  0.66601000  1
  O  O50  1  0.84759000  0.78897400  0.04492300  1
  O  O51  1  0.89707100  0.81218300  0.74906800  1
  O  O52  1  0.89844000  0.43444100  0.16548800  1
  O  O53  1  0.91430700  0.75015900  0.39888600  1
  O  O54  1  0.92533700  0.82544900  0.59448400  1
  O  O55  1  0.96064600  0.44576900  0.47177000  1
loop_
_geom_bond_atom_site_label_1
_geom_bond_atom_site_label_2
_geom_bond_distance
_geom_bond_site_symmetry_2
O0 P0 1.529240 1_556
O0 V0 2.234870 1_555
O0 V1 2.320715 1_555
O1 P14 1.534653 1_455
O1 V1 2.298988 1_554
O1 V6 2.343980 1_555
O2 P2 1.563563 1_555
O2 V10 2.216028 1_455
O2 V0 2.307878 1_555
O2 V1 2.368653 1_555
O3 P1 1.509625 1_555
O3 V3 2.229830 1_555
O4 P3 1.534514 1_555
O4 V11 2.165394 1_455
O4 V2 2.314036 1_555
O5 P15 1.539617 1_455
O5 V7 2.215096 1_555
O5 V3 2.284647 1_555
O6 P4 1.532424 1_555
O6 V12 2.230156 1_455
O6 V2 2.656077 1_555
O7 P0 1.616964 1_555
O7 P4 1.627096 1_555
O8 P5 1.560030 1_555
O8 V13 2.255415 1_455
O8 V0 2.256004 1_555
O8 V4 2.454262 1_555
O9 P2 1.534653 1_565
O9 V4 2.298988 1_555
O9 V0 2.343980 1_555
O10 P0 1.534514 1_556
O10 V1 2.165394 1_565
O10 V8 2.314036 1_556
O11 P5 1.539812 1_555
O11 V3 2.136096 1_555
O11 V4 2.189970 1_545
O12 P3 1.539617 1_565
O12 V2 2.215096 1_555
O12 V5 2.284647 1_555
O13 P6 1.578473 1_555
O13 V15 2.244208 1_455
O13 V2 2.305909 1_555
O13 V5 2.420371 1_555
O14 P7 1.539812 1_555
O14 V5 2.136096 1_555
O14 V14 2.189970 1_455
O15 P6 1.532424 1_555
O15 V5 2.230156 1_545
O15 V7 2.656077 1_555
O16 P7 1.600669 1_555
O16 P1 1.608158 1_555
O17 P1 1.563563 1_555
O17 V3 2.216028 1_565
O17 V9 2.307878 1_555
O17 V4 2.368653 1_555
O18 P4 1.496858 1_555
O18 V6 2.104002 1_555
O19 P5 1.600669 1_555
O19 P2 1.608158 1_555
O20 P2 1.509625 1_555
O20 V10 2.229830 1_555
O21 P3 1.616964 1_555
O21 P6 1.627096 1_555
O22 P3 1.529240 1_555
O22 V6 2.234870 1_555
O22 V11 2.320715 1_555
O23 P9 1.496858 1_555
O23 V0 2.104002 1_555
O24 P8 1.560030 1_555
O24 V8 2.255415 1_545
O24 V6 2.256004 1_555
O24 V1 2.454262 1_554
O25 P4 1.578473 1_555
O25 V6 2.244208 1_565
O25 V8 2.305909 1_555
O25 V12 2.420371 1_555
O26 P7 1.494536 1_555
O26 V7 2.122717 1_555
O27 P5 1.494536 1_555
O27 V13 2.122717 1_555
O28 P10 1.494536 1_555
O28 V2 2.122717 1_555
O29 P8 1.494536 1_556
O29 V8 2.122717 1_556
O30 P11 1.578473 1_555
O30 V9 2.244208 1_545
O30 V7 2.305909 1_555
O30 V3 2.420371 1_555
O31 P7 1.560030 1_555
O31 V7 2.255415 1_565
O31 V9 2.256004 1_555
O31 V14 2.454262 1_555
O32 P6 1.496858 1_555
O32 V15 2.104002 1_555
O33 P12 1.529240 1_555
O33 V9 2.234870 1_555
O33 V4 2.320715 1_555
O34 P12 1.616964 1_555
O34 P9 1.627096 1_555
O35 P13 1.509625 1_555
O35 V5 2.229830 1_555
O36 P10 1.600669 1_555
O36 P13 1.608158 1_555
O37 P11 1.496858 1_555
O37 V9 2.104002 1_555
O38 P14 1.563563 1_555
O38 V12 2.216028 1_545
O38 V6 2.307878 1_555
O38 V11 2.368653 1_555
O39 P8 1.600669 1_555
O39 P14 1.608158 1_555
O40 P9 1.532424 1_555
O40 V10 2.230156 1_565
O40 V8 2.656077 1_556
O41 P8 1.539812 1_556
O41 V10 2.136096 1_555
O41 V1 2.189970 1_655
O42 P9 1.578473 1_555
O42 V0 2.244208 1_655
O42 V13 2.305909 1_555
O42 V10 2.420371 1_555
O43 P12 1.539617 1_545
O43 V13 2.215096 1_555
O43 V10 2.284647 1_555
O44 P10 1.539812 1_555
O44 V12 2.136096 1_555
O44 V11 2.189970 1_565
O45 P15 1.534514 1_555
O45 V14 2.165394 1_545
O45 V7 2.314036 1_555
O46 P13 1.534653 1_545
O46 V11 2.298988 1_555
O46 V15 2.343980 1_555
O47 P10 1.560030 1_555
O47 V2 2.255415 1_655
O47 V15 2.256004 1_555
O47 V11 2.454262 1_555
O48 P15 1.616964 1_555
O48 P11 1.627096 1_555
O49 P11 1.532424 1_555
O49 V3 2.230156 1_655
O49 V13 2.656077 1_555
O50 P0 1.539617 1_655
O50 V8 2.215096 1_555
O50 V12 2.284647 1_555
O51 P12 1.534514 1_555
O51 V4 2.165394 1_655
O51 V13 2.314036 1_555
O52 P14 1.509625 1_555
O52 V12 2.229830 1_555
O53 P13 1.563563 1_555
O53 V5 2.216028 1_655
O53 V15 2.307878 1_555
O53 V14 2.368653 1_555
O54 P1 1.534653 1_655
O54 V14 2.298988 1_555
O54 V9 2.343980 1_555
O55 P15 1.529240 1_555
O55 V15 2.234870 1_555
O55 V14 2.320715 1_555
