# generated using pymatgen
data_Ti9Fe11O30
_symmetry_space_group_name_H-M   'P 1'
_cell_length_a   7.60586600
_cell_length_b   8.91496499
_cell_length_c   9.19062009
_cell_angle_alpha   81.01188626
_cell_angle_beta   72.18187803
_cell_angle_gamma   66.91885459
_symmetry_Int_Tables_number   1
_chemical_formula_structural   Ti9Fe11O30
_chemical_formula_sum   'Ti9 Fe11 O30'
_cell_volume   545.32670378
_cell_formula_units_Z   1
loop_
 _symmetry_equiv_pos_site_id
 _symmetry_equiv_pos_as_xyz
  1  'x, y, z'
loop_
 _atom_site_type_symbol
 _atom_site_label
 _atom_site_symmetry_multiplicity
 _atom_site_fract_x
 _atom_site_fract_y
 _atom_site_fract_z
 _atom_site_occupancy
  Ti  Ti0  1  0.34245700  0.25971600  0.77435500  1
  Ti  Ti1  1  0.73944500  0.05438100  0.17199300  1
  Ti  Ti2  1  0.86063800  0.14658600  0.42261200  1
  Ti  Ti3  1  0.45966000  0.34134800  0.02819300  1
  Ti  Ti4  1  0.05889200  0.54134000  0.62432300  1
  Ti  Ti5  1  0.53838300  0.65876200  0.97663700  1
  Ti  Ti6  1  0.66545500  0.73815200  0.22790200  1
  Ti  Ti7  1  0.13501800  0.85817300  0.57092900  1
  Ti  Ti8  1  0.26277300  0.94298900  0.82726200  1
  Fe  Fe0  1  0.83557500  0.25970700  0.77838700  1
  Fe  Fe1  1  0.23619000  0.05740500  0.17748300  1
  Fe  Fe2  1  0.35828600  0.14265300  0.42514100  1
  Fe  Fe3  1  0.55919900  0.54730300  0.62370700  1
  Fe  Fe4  1  0.94035000  0.45934900  0.37382800  1
  Fe  Fe5  1  0.03731700  0.65728600  0.97517800  1
  Fe  Fe6  1  0.96228600  0.34078800  0.02896700  1
  Fe  Fe7  1  0.43569700  0.45979200  0.37729000  1
  Fe  Fe8  1  0.63794100  0.86001000  0.57336900  1
  Fe  Fe9  1  0.15943500  0.74209700  0.22331300  1
  Fe  Fe10  1  0.76221000  0.93746600  0.82297600  1
  O  O0  1  0.01895600  0.02352900  0.76442900  1
  O  O1  1  0.21482800  0.11250800  0.95143400  1
  O  O2  1  0.39001500  0.08640700  0.65390100  1
  O  O3  1  0.16823900  0.02736000  0.42634400  1
  O  O4  1  0.57970200  0.19127200  0.83434000  1
  O  O5  1  0.22967500  0.40712200  0.96121800  1
  O  O6  1  0.62762900  0.20834500  0.36177000  1
  O  O7  1  0.02916700  0.36569100  0.77045800  1
  O  O8  1  0.43716100  0.17016700  0.17093900  1
  O  O9  1  0.81215700  0.30748800  0.56290600  1
  O  O10  1  0.59665500  0.48170700  0.85114100  1
  O  O11  1  0.98662100  0.27890100  0.25485200  1
  O  O12  1  0.76506100  0.22725800  0.02138000  1
  O  O13  1  0.35905500  0.43066900  0.63541400  1
  O  O14  1  0.18242100  0.39353800  0.44173200  1
  O  O15  1  0.82312800  0.61647900  0.56594300  1
  O  O16  1  0.23714800  0.77353300  0.96691500  1
  O  O17  1  0.63119700  0.56932000  0.37121700  1
  O  O18  1  0.01576400  0.71276700  0.74888100  1
  O  O19  1  0.41075700  0.51426100  0.14529100  1
  O  O20  1  0.18456400  0.68937800  0.45231800  1
  O  O21  1  0.56250400  0.83087800  0.83032300  1
  O  O22  1  0.95983800  0.63328300  0.21972400  1
  O  O23  1  0.77267100  0.58347600  0.03644800  1
  O  O24  1  0.36789500  0.79080500  0.63946400  1
  O  O25  1  0.43160400  0.80826700  0.15883300  1
  O  O26  1  0.84188700  0.97229100  0.56902400  1
  O  O27  1  0.61478600  0.91205200  0.34486400  1
  O  O28  1  0.78611300  0.88948600  0.05014000  1
  O  O29  1  0.97559500  0.98646100  0.23450900  1
loop_
_geom_bond_atom_site_label_1
_geom_bond_atom_site_label_2
_geom_bond_distance
_geom_bond_site_symmetry_2
Fe0 O9 2.006981 1_555
Fe0 O0 2.016769 1_655
Fe0 O7 2.017359 1_655
Fe0 O10 2.125142 1_555
Fe0 O12 2.132026 1_556
Fe0 O4 2.155122 1_555
Fe1 O1 2.099753 1_554
Fe1 O8 2.116679 1_555
Fe1 O25 2.132196 1_545
Fe1 O11 2.163730 1_455
Fe1 O3 2.182607 1_555
Fe1 O29 2.201544 1_445
Fe2 O3 2.073045 1_555
Fe2 O14 2.109734 1_555
Fe2 O2 2.148529 1_555
Fe2 O8 2.226390 1_555
Fe2 O6 2.232220 1_555
Fe2 O27 2.241670 1_545
Fe3 O24 2.084041 1_555
Fe3 O13 2.125064 1_555
Fe3 O10 2.155039 1_555
Fe3 O17 2.210786 1_555
Fe3 O15 2.215401 1_555
Fe3 O9 2.252752 1_555
Fe4 O11 1.943608 1_555
Fe4 O22 1.948805 1_555
Fe4 O14 1.966061 1_655
Fe4 O15 2.169073 1_555
Fe4 O17 2.170347 1_555
Fe4 O9 2.250834 1_555
Fe5 O18 2.102564 1_555
Fe5 O16 2.128284 1_555
Fe5 O5 2.132363 1_555
Fe5 O22 2.140674 1_456
Fe5 O28 2.224686 1_456
Fe5 O23 2.242929 1_456
Fe6 O23 2.074826 1_555
Fe6 O11 2.108490 1_555
Fe6 O12 2.134458 1_555
Fe6 O1 2.211204 1_654
Fe6 O5 2.219550 1_654
Fe6 O7 2.266463 1_654
Fe7 O17 2.058673 1_555
Fe7 O14 2.120185 1_555
Fe7 O6 2.140807 1_555
Fe7 O19 2.160997 1_555
Fe7 O20 2.209691 1_555
Fe7 O13 2.261638 1_555
Fe8 O15 2.071692 1_555
Fe8 O27 2.124745 1_555
Fe8 O26 2.139338 1_555
Fe8 O2 2.192206 1_565
Fe8 O21 2.251579 1_555
Fe8 O24 2.254148 1_555
Fe9 O29 2.074898 1_455
Fe9 O22 2.107630 1_455
Fe9 O20 2.133974 1_555
Fe9 O19 2.205832 1_555
Fe9 O16 2.247648 1_554
Fe9 O25 2.254302 1_555
Fe10 O21 2.064830 1_555
Fe10 O28 2.113555 1_556
Fe10 O4 2.140080 1_565
Fe10 O18 2.188411 1_655
Fe10 O26 2.228582 1_555
Fe10 O0 2.257040 1_665
O0 Ti8 1.941595 1_545
O0 Ti7 2.225552 1_545
O1 Ti8 1.889803 1_545
O1 Ti0 2.162844 1_555
O2 Ti0 1.895978 1_555
O2 Ti8 2.121303 1_545
O3 Ti7 1.889884 1_545
O3 Ti2 2.166213 1_455
O4 Ti0 1.890162 1_555
O4 Ti3 2.142279 1_556
O5 Ti3 1.877364 1_556
O5 Ti0 2.081323 1_555
O6 Ti2 1.871324 1_555
O6 Ti1 2.138776 1_555
O7 Ti4 1.934328 1_555
O7 Ti0 2.201895 1_555
O8 Ti3 1.876465 1_555
O8 Ti1 2.121633 1_555
O9 Ti2 1.930884 1_555
O10 Ti5 1.930204 1_555
O10 Ti3 2.155853 1_556
O11 Ti2 2.024992 1_555
O12 Ti1 1.932127 1_555
O12 Ti3 2.124259 1_555
O13 Ti0 1.847527 1_555
O13 Ti4 2.130919 1_555
O14 Ti4 2.047039 1_555
O15 Ti4 1.867305 1_655
O16 Ti8 1.854579 1_555
O16 Ti5 2.136099 1_555
O17 Ti6 1.883141 1_555
O18 Ti4 1.917671 1_555
O18 Ti7 2.128261 1_555
O19 Ti3 1.869934 1_555
O19 Ti5 2.107160 1_554
O20 Ti7 1.846971 1_555
O20 Ti4 2.137026 1_555
O21 Ti5 1.902986 1_555
O21 Ti8 2.107317 1_555
O22 Ti6 2.042222 1_555
O23 Ti5 1.863996 1_554
O23 Ti6 2.158910 1_555
O24 Ti7 1.903999 1_555
O24 Ti8 2.120273 1_555
O25 Ti6 1.911155 1_555
O25 Ti5 2.063084 1_554
O26 Ti2 1.910084 1_565
O26 Ti7 2.060570 1_655
O27 Ti6 1.872498 1_555
O27 Ti1 2.103497 1_565
O28 Ti1 1.844772 1_565
O28 Ti6 2.167021 1_555
O29 Ti1 1.895511 1_565
O29 Ti2 2.158326 1_565
