# generated using pymatgen
data_CoBiO4
_symmetry_space_group_name_H-M   'P 1'
_cell_length_a   6.16911768
_cell_length_b   6.16911768
_cell_length_c   6.16911768
_cell_angle_alpha   125.01458575
_cell_angle_beta   113.00029436
_cell_angle_gamma   92.03323477
_symmetry_Int_Tables_number   1
_chemical_formula_structural   CoBiO4
_chemical_formula_sum   'Co2 Bi2 O8'
_cell_volume   166.17173839
_cell_formula_units_Z   2
loop_
 _symmetry_equiv_pos_site_id
 _symmetry_equiv_pos_as_xyz
  1  'x, y, z'
loop_
 _atom_site_type_symbol
 _atom_site_label
 _atom_site_symmetry_multiplicity
 _atom_site_fract_x
 _atom_site_fract_y
 _atom_site_fract_z
 _atom_site_occupancy
  Co  Co0  1  0.50000000  0.50000000  0.50000000  1
  Co  Co1  1  0.50000000  0.00000000  0.00000000  1
  Bi  Bi0  1  0.50000000  0.00000000  0.50000000  1
  Bi  Bi1  1  0.00000000  0.00000000  0.00000000  1
  O  O0  1  0.27570700  0.77544800  0.99974100  1
  O  O1  1  0.31318200  0.75183800  0.56134400  1
  O  O2  1  0.30950700  0.24816200  0.06134400  1
  O  O3  1  0.72429300  0.72403400  0.49974100  1
  O  O4  1  0.27570700  0.27596600  0.50025900  1
  O  O5  1  0.69049300  0.75183800  0.93865600  1
  O  O6  1  0.68681800  0.24816200  0.43865600  1
  O  O7  1  0.72429300  0.22455200  0.00025900  1
loop_
_geom_bond_atom_site_label_1
_geom_bond_atom_site_label_2
_geom_bond_distance
_geom_bond_site_symmetry_2
Co0 O2 1.917912 1_555
Co0 O5 1.917912 1_555
Co0 O1 1.917913 1_555
Co0 O6 1.917913 1_555
Co0 O3 1.921807 1_555
Co0 O4 1.921807 1_555
Co1 O2 1.917908 1_555
Co1 O5 1.917908 1_544
Co1 O6 1.917913 1_555
Co1 O1 1.917913 1_544
Co1 O7 1.921807 1_555
Co1 O0 1.921807 1_544
Bi0 O1 2.166970 1_545
Bi0 O6 2.166970 1_555
Bi0 O7 2.231312 1_556
Bi0 O0 2.231312 1_544
Bi0 O4 2.231312 1_555
Bi0 O3 2.231312 1_545
Bi1 O2 2.166975 1_555
Bi1 O5 2.166975 1_444
Bi1 O0 2.231312 1_544
Bi1 O4 2.231312 1_555
Bi1 O3 2.231312 1_444
Bi1 O7 2.231312 1_455
