# generated using pymatgen
data_Li3Mn5OF11
_symmetry_space_group_name_H-M   'P 1'
_cell_length_a   5.36355990
_cell_length_b   5.76603971
_cell_length_c   9.66128054
_cell_angle_alpha   86.10279200
_cell_angle_beta   72.53567773
_cell_angle_gamma   116.86395747
_symmetry_Int_Tables_number   1
_chemical_formula_structural   Li3Mn5OF11
_chemical_formula_sum   'Li3 Mn5 O1 F11'
_cell_volume   246.87494720
_cell_formula_units_Z   1
loop_
 _symmetry_equiv_pos_site_id
 _symmetry_equiv_pos_as_xyz
  1  'x, y, z'
loop_
 _atom_site_type_symbol
 _atom_site_label
 _atom_site_symmetry_multiplicity
 _atom_site_fract_x
 _atom_site_fract_y
 _atom_site_fract_z
 _atom_site_occupancy
  Li  Li0  1  0.02258000  0.54362400  0.49818500  1
  Li  Li1  1  0.51616800  0.26885700  0.25740800  1
  Li  Li2  1  0.53059700  0.81629000  0.77882900  1
  Mn  Mn0  1  0.29586800  0.71962700  0.14998700  1
  Mn  Mn1  1  0.98537500  0.00861300  0.99914000  1
  Mn  Mn2  1  0.31120700  0.27053000  0.63993200  1
  Mn  Mn3  1  0.80175100  0.99733800  0.41032800  1
  Mn  Mn4  1  0.77516500  0.50533700  0.89497600  1
  O  O0  1  0.61126200  0.75775000  0.95605500  1
  F  F0  1  0.09134700  0.83329100  0.34912500  1
  F  F1  1  0.20927000  0.38727700  0.30781800  1
  F  F2  1  0.23238000  0.92663500  0.79135000  1
  F  F3  1  0.38114100  0.14399400  0.04761400  1
  F  F4  1  0.38863400  0.65126400  0.53785800  1
  F  F5  1  0.09582900  0.36684800  0.84780000  1
  F  F6  1  0.89150100  0.57894300  0.10838700  1
  F  F7  1  0.59811500  0.25118400  0.44384700  1
  F  F8  1  0.71490300  0.50164900  0.68664200  1
  F  F9  1  0.70414400  0.01107800  0.20909500  1
  F  F10  1  0.89252400  0.08427400  0.61049900  1
loop_
_geom_bond_atom_site_label_1
_geom_bond_atom_site_label_2
_geom_bond_distance
_geom_bond_site_symmetry_2
Li2 O0 1.931559 1_555
Mn0 O0 2.031253 1_554
Mn1 O0 2.062041 1_545
Mn4 O0 2.049631 1_555
F0 Li0 1.948616 1_555
F0 Mn3 2.123576 1_455
F0 Mn0 2.211050 1_555
F0 Li1 2.366101 1_565
F1 Li1 1.998188 1_555
F1 Mn0 2.141619 1_555
F1 Mn3 2.184090 1_445
F1 Li0 2.265784 1_555
F2 Li2 1.947287 1_555
F2 Mn2 2.174288 1_565
F2 Mn1 2.259935 1_465
F2 Mn4 2.393574 1_455
F3 Mn1 2.117417 1_454
F3 Mn4 2.171257 1_554
F3 Mn0 2.358581 1_545
F3 Li1 2.399855 1_555
F4 Li0 1.941554 1_555
F4 Mn3 2.107336 1_555
F4 Mn2 2.144856 1_555
F5 Mn4 2.150259 1_455
F5 Mn1 2.172353 1_455
F5 Mn2 2.239420 1_555
F5 Li2 2.443115 1_555
F6 Li1 1.994942 1_555
F6 Mn0 2.121549 1_655
F6 Mn4 2.339318 1_554
F6 Mn1 2.388246 1_564
F7 Li1 1.984629 1_555
F7 Mn2 2.098436 1_555
F7 Mn3 2.176487 1_545
F7 Li0 2.381246 1_655
F8 Li0 1.967900 1_655
F8 Mn4 2.132199 1_555
F8 Mn2 2.174481 1_555
F8 Li2 2.524657 1_555
F9 Mn1 2.139349 1_554
F9 Li1 2.147053 1_555
F9 Mn3 2.165088 1_545
F9 Mn0 2.345370 1_545
F10 Li2 1.963018 1_545
F10 Mn2 2.126576 1_655
F10 Mn3 2.169026 1_545
F10 Li0 2.482846 1_655
