# generated using pymatgen
data_Mg9CuO10
_symmetry_space_group_name_H-M   'P 1'
_cell_length_a   6.68333153
_cell_length_b   6.68333153
_cell_length_c   10.01424523
_cell_angle_alpha   78.81392654
_cell_angle_beta   78.81392654
_cell_angle_gamma   26.16270152
_symmetry_Int_Tables_number   1
_chemical_formula_structural   Mg9CuO10
_chemical_formula_sum   'Mg9 Cu1 O10'
_cell_volume   193.27546508
_cell_formula_units_Z   1
loop_
 _symmetry_equiv_pos_site_id
 _symmetry_equiv_pos_as_xyz
  1  'x, y, z'
loop_
 _atom_site_type_symbol
 _atom_site_label
 _atom_site_symmetry_multiplicity
 _atom_site_fract_x
 _atom_site_fract_y
 _atom_site_fract_z
 _atom_site_occupancy
  Mg  Mg0  1  0.00000000  0.00000000  0.00000000  1
  Mg  Mg1  1  0.60100600  0.60100600  0.19843200  1
  Mg  Mg2  1  0.69924900  0.69924900  0.90020300  1
  Mg  Mg3  1  0.09787200  0.09787200  0.70079700  1
  Mg  Mg4  1  0.30075100  0.30075100  0.09979700  1
  Mg  Mg5  1  0.19772000  0.19772000  0.39986800  1
  Mg  Mg6  1  0.90212800  0.90212800  0.29920300  1
  Mg  Mg7  1  0.80228000  0.80228000  0.60013200  1
  Mg  Mg8  1  0.39899400  0.39899400  0.80156800  1
  Cu  Cu0  1  0.50000000  0.50000000  0.50000000  1
  O  O0  1  0.45042000  0.45042000  0.14985500  1
  O  O1  1  0.54958000  0.54958000  0.85014500  1
  O  O2  1  0.05301800  0.05301800  0.34209900  1
  O  O3  1  0.94698200  0.94698200  0.65790100  1
  O  O4  1  0.15050000  0.15050000  0.04953400  1
  O  O5  1  0.64915200  0.64915200  0.54987500  1
  O  O6  1  0.75118300  0.75118300  0.25153700  1
  O  O7  1  0.84950000  0.84950000  0.95046600  1
  O  O8  1  0.24881700  0.24881700  0.74846300  1
  O  O9  1  0.35084800  0.35084800  0.45012500  1
loop_
_geom_bond_atom_site_label_1
_geom_bond_atom_site_label_2
_geom_bond_distance
_geom_bond_site_symmetry_2
Mg0 O7 2.114897 1_444
Mg0 O4 2.114897 1_555
Mg0 O1 2.138000 1_454
Mg0 O1 2.138000 1_544
Mg0 O0 2.138000 1_545
Mg0 O0 2.138000 1_455
Mg1 O2 2.095322 1_655
Mg1 O2 2.095322 1_565
Mg1 O0 2.111990 1_555
Mg1 O6 2.126054 1_555
Mg1 O4 2.131679 1_565
Mg1 O4 2.131679 1_655
Mg2 O1 2.106579 1_555
Mg2 O7 2.114815 1_555
Mg2 O4 2.132900 1_566
Mg2 O4 2.132900 1_656
Mg2 O8 2.150138 1_565
Mg2 O8 2.150138 1_655
Mg3 O3 2.092886 1_445
Mg3 O8 2.112776 1_555
Mg3 O1 2.132078 1_545
Mg3 O1 2.132078 1_455
Mg3 O5 2.148539 1_455
Mg3 O5 2.148539 1_545
Mg4 O0 2.106579 1_555
Mg4 O4 2.114815 1_555
Mg4 O7 2.132900 1_454
Mg4 O7 2.132900 1_544
Mg4 O6 2.150138 1_545
Mg4 O6 2.150138 1_455
Mg5 O2 2.078037 1_555
Mg5 O5 2.136883 1_545
Mg5 O5 2.136883 1_455
Mg5 O6 2.137126 1_545
Mg5 O6 2.137126 1_455
Mg5 O9 2.151232 1_555
Mg6 O2 2.092886 1_665
Mg6 O6 2.112776 1_555
Mg6 O0 2.132078 1_565
Mg6 O0 2.132078 1_655
Mg6 O9 2.148539 1_655
Mg6 O9 2.148539 1_565
Mg7 O3 2.078037 1_555
Mg7 O9 2.136883 1_565
Mg7 O9 2.136883 1_655
Mg7 O8 2.137126 1_655
Mg7 O8 2.137126 1_565
Mg7 O5 2.151232 1_555
Mg8 O3 2.095322 1_545
Mg8 O3 2.095322 1_455
Mg8 O1 2.111990 1_555
Mg8 O8 2.126054 1_555
Mg8 O7 2.131679 1_455
Mg8 O7 2.131679 1_545
Cu0 O5 2.099260 1_555
Cu0 O9 2.099260 1_555
Cu0 O3 2.197783 1_545
Cu0 O3 2.197783 1_455
Cu0 O2 2.197783 1_565
Cu0 O2 2.197783 1_655
