# generated using pymatgen
data_NdP3(H4O5)3
_symmetry_space_group_name_H-M   'P 1'
_cell_length_a   11.61737900
_cell_length_b   8.92140700
_cell_length_c   12.79236964
_cell_angle_alpha   85.35565476
_cell_angle_beta   90.00000000
_cell_angle_gamma   90.00000000
_symmetry_Int_Tables_number   1
_chemical_formula_structural   NdP3(H4O5)3
_chemical_formula_sum   'Nd4 P12 H48 O60'
_cell_volume   1321.49085421
_cell_formula_units_Z   4
loop_
 _symmetry_equiv_pos_site_id
 _symmetry_equiv_pos_as_xyz
  1  'x, y, z'
loop_
 _atom_site_type_symbol
 _atom_site_label
 _atom_site_symmetry_multiplicity
 _atom_site_fract_x
 _atom_site_fract_y
 _atom_site_fract_z
 _atom_site_occupancy
  Nd  Nd0  1  0.09842500  0.68683700  0.30002800  1
  Nd  Nd1  1  0.59842500  0.31316300  0.19997200  1
  Nd  Nd2  1  0.90157500  0.31316300  0.69997200  1
  Nd  Nd3  1  0.40157500  0.68683700  0.80002800  1
  P  P0  1  0.90551200  0.41440600  0.17844500  1
  P  P1  1  0.40551200  0.58559400  0.32155500  1
  P  P2  1  0.09448800  0.58559400  0.82155500  1
  P  P3  1  0.59448800  0.41440600  0.67844500  1
  P  P4  1  0.78331000  0.46273600  0.97444700  1
  P  P5  1  0.28331000  0.53726400  0.52555300  1
  P  P6  1  0.21669000  0.53726400  0.02555300  1
  P  P7  1  0.71669000  0.46273600  0.47444700  1
  P  P8  1  0.14409600  0.32827700  0.22382000  1
  P  P9  1  0.64409600  0.67172300  0.27618000  1
  P  P10  1  0.85590400  0.67172300  0.77618000  1
  P  P11  1  0.35590400  0.32827700  0.72382000  1
  H  H0  1  0.13437900  0.94695500  0.44605200  1
  H  H1  1  0.63437900  0.05304500  0.05394800  1
  H  H2  1  0.86562100  0.05304500  0.55394800  1
  H  H3  1  0.36562100  0.94695500  0.94605200  1
  H  H4  1  0.16424400  0.03457600  0.33148100  1
  H  H5  1  0.66424400  0.96542400  0.16851900  1
  H  H6  1  0.83575600  0.96542400  0.66851900  1
  H  H7  1  0.33575600  0.03457600  0.83148100  1
  H  H8  1  0.20734800  0.38315100  0.41478800  1
  H  H9  1  0.70734800  0.61684900  0.08521200  1
  H  H10  1  0.79265200  0.61684900  0.58521200  1
  H  H11  1  0.29265200  0.38315100  0.91478800  1
  H  H12  1  0.13720900  0.76787700  0.04498000  1
  H  H13  1  0.63720900  0.23212300  0.45502000  1
  H  H14  1  0.86279100  0.23212300  0.95502000  1
  H  H15  1  0.36279100  0.76787700  0.54498000  1
  H  H16  1  0.88048900  0.68495500  0.45991600  1
  H  H17  1  0.38048900  0.31504500  0.04008400  1
  H  H18  1  0.11951100  0.31504500  0.54008400  1
  H  H19  1  0.61951100  0.68495500  0.95991600  1
  H  H20  1  0.00711100  0.71154200  0.50430400  1
  H  H21  1  0.50711100  0.28845800  0.99569600  1
  H  H22  1  0.99288900  0.28845800  0.49569600  1
  H  H23  1  0.49288900  0.71154200  0.00430400  1
  H  H24  1  0.86361100  0.83161700  0.24200800  1
  H  H25  1  0.36361100  0.16838300  0.25799200  1
  H  H26  1  0.13638900  0.16838300  0.75799200  1
  H  H27  1  0.63638900  0.83161700  0.74200800  1
  H  H28  1  0.93610300  0.92824400  0.15905500  1
  H  H29  1  0.43610300  0.07175600  0.34094500  1
  H  H30  1  0.06389700  0.07175600  0.84094500  1
  H  H31  1  0.56389700  0.92824400  0.65905500  1
  H  H32  1  0.31266100  0.91754300  0.41174200  1
  H  H33  1  0.81266100  0.08245700  0.08825800  1
  H  H34  1  0.68733900  0.08245700  0.58825800  1
  H  H35  1  0.18733900  0.91754300  0.91174200  1
  H  H36  1  0.43950100  0.85651100  0.40369500  1
  H  H37  1  0.93950100  0.14348900  0.09630500  1
  H  H38  1  0.56049900  0.14348900  0.59630500  1
  H  H39  1  0.06049900  0.85651100  0.90369500  1
  H  H40  1  0.91468600  0.00814900  0.36980500  1
  H  H41  1  0.41468600  0.99185100  0.13019500  1
  H  H42  1  0.08531400  0.99185100  0.63019500  1
  H  H43  1  0.58531400  0.00814900  0.86980500  1
  H  H44  1  0.14873000  0.83842800  0.62363100  1
  H  H45  1  0.64873000  0.16157200  0.87636900  1
  H  H46  1  0.85127000  0.16157200  0.37636900  1
  H  H47  1  0.35127000  0.83842800  0.12363100  1
  O  O0  1  0.93618600  0.55112100  0.23320300  1
  O  O1  1  0.43618600  0.44887900  0.26679700  1
  O  O2  1  0.06381400  0.44887900  0.76679700  1
  O  O3  1  0.56381400  0.55112100  0.73320300  1
  O  O4  1  0.80630800  0.31765100  0.21951100  1
  O  O5  1  0.30630800  0.68234900  0.28048900  1
  O  O6  1  0.19369200  0.68234900  0.78048900  1
  O  O7  1  0.69369200  0.31765100  0.71951100  1
  O  O8  1  0.89566100  0.45383600  0.05547700  1
  O  O9  1  0.39566100  0.54616400  0.44452300  1
  O  O10  1  0.10433900  0.54616400  0.94452300  1
  O  O11  1  0.60433900  0.45383600  0.55547700  1
  O  O12  1  0.84733700  0.32155400  0.90576000  1
  O  O13  1  0.34733700  0.67844600  0.59424000  1
  O  O14  1  0.15266300  0.67844600  0.09424000  1
  O  O15  1  0.65266300  0.32155400  0.40576000  1
  O  O16  1  0.68111300  0.36879200  0.01793500  1
  O  O17  1  0.18111300  0.63120800  0.48206500  1
  O  O18  1  0.31888700  0.63120800  0.98206500  1
  O  O19  1  0.81888700  0.36879200  0.51793500  1
  O  O20  1  0.79446700  0.55888000  0.85817900  1
  O  O21  1  0.29446700  0.44112000  0.64182100  1
  O  O22  1  0.20553300  0.44112000  0.14182100  1
  O  O23  1  0.70553300  0.55888000  0.35817900  1
  O  O24  1  0.20357800  0.17954800  0.24095000  1
  O  O25  1  0.70357800  0.82045200  0.25905000  1
  O  O26  1  0.79642200  0.82045200  0.75905000  1
  O  O27  1  0.29642200  0.17954800  0.74095000  1
  O  O28  1  0.12780500  0.41788500  0.31920400  1
  O  O29  1  0.62780500  0.58211500  0.18079600  1
  O  O30  1  0.87219500  0.58211500  0.68079600  1
  O  O31  1  0.37219500  0.41788500  0.81920400  1
  O  O32  1  0.01629200  0.29941600  0.17781700  1
  O  O33  1  0.51629200  0.70058400  0.32218300  1
  O  O34  1  0.98370800  0.70058400  0.82218300  1
  O  O35  1  0.48370800  0.29941600  0.67781700  1
  O  O36  1  0.16230100  0.93484700  0.37328000  1
  O  O37  1  0.66230100  0.06515300  0.12672000  1
  O  O38  1  0.83769900  0.06515300  0.62672000  1
  O  O39  1  0.33769900  0.93484700  0.87328000  1
  O  O40  1  0.25758100  0.36873100  0.98668000  1
  O  O41  1  0.75758100  0.63126900  0.51332000  1
  O  O42  1  0.74241900  0.63126900  0.01332000  1
  O  O43  1  0.24241900  0.36873100  0.48668000  1
  O  O44  1  0.96183300  0.71677600  0.43956300  1
  O  O45  1  0.46183300  0.28322400  0.06043700  1
  O  O46  1  0.03816700  0.28322400  0.56043700  1
  O  O47  1  0.53816700  0.71677600  0.93956300  1
  O  O48  1  0.94265400  0.87171200  0.22917400  1
  O  O49  1  0.44265400  0.12828800  0.27082600  1
  O  O50  1  0.05734600  0.12828800  0.77082600  1
  O  O51  1  0.55734600  0.87171200  0.72917400  1
  O  O52  1  0.39164600  0.92472800  0.44150100  1
  O  O53  1  0.89164600  0.07527200  0.05849900  1
  O  O54  1  0.60835400  0.07527200  0.55849900  1
  O  O55  1  0.10835400  0.92472800  0.94150100  1
  O  O56  1  0.89877300  0.08714000  0.41668400  1
  O  O57  1  0.39877300  0.91286000  0.08331600  1
  O  O58  1  0.10122700  0.91286000  0.58331600  1
  O  O59  1  0.60122700  0.08714000  0.91668400  1
loop_
_geom_bond_atom_site_label_1
_geom_bond_atom_site_label_2
_geom_bond_distance
_geom_bond_site_symmetry_2
Nd0 O28 2.416324 1_555
Nd0 O44 2.419252 1_455
Nd0 O5 2.428619 1_555
Nd0 O0 2.432449 1_455
Nd0 O17 2.530752 1_555
Nd0 O48 2.564103 1_455
Nd0 O36 2.580720 1_555
Nd0 O14 2.713796 1_555
Nd1 O29 2.416324 1_555
Nd1 O45 2.419252 1_555
Nd1 O4 2.428619 1_555
Nd1 O1 2.432449 1_555
Nd1 O16 2.530752 1_555
Nd1 O49 2.564103 1_555
Nd1 O37 2.580720 1_555
Nd1 O15 2.713796 1_555
Nd2 O30 2.416324 1_555
Nd2 O46 2.419252 1_655
Nd2 O7 2.428619 1_555
Nd2 O2 2.432449 1_655
Nd2 O19 2.530752 1_555
Nd2 O50 2.564103 1_655
Nd2 O38 2.580720 1_555
Nd2 O12 2.713796 1_555
Nd3 O31 2.416324 1_555
Nd3 O47 2.419252 1_555
Nd3 O6 2.428619 1_555
Nd3 O3 2.432449 1_555
Nd3 O18 2.530752 1_555
Nd3 O51 2.564103 1_555
Nd3 O39 2.580720 1_555
Nd3 O13 2.713796 1_555
H0 O36 0.999900 1_555
H1 O37 0.999900 1_555
H2 O38 0.999900 1_555
H3 O39 0.999900 1_555
H4 O36 1.000494 1_545
H5 O37 1.000494 1_565
H6 O38 1.000494 1_565
H7 O39 1.000494 1_545
H8 O43 1.004581 1_555
H8 O28 1.543923 1_555
H9 O42 1.004581 1_555
H9 O29 1.543923 1_555
H10 O41 1.004581 1_555
H10 O30 1.543923 1_555
H11 O40 1.004581 1_555
H11 O31 1.543923 1_555
H12 O14 0.992205 1_555
H13 O15 0.992205 1_555
H14 O12 0.992205 1_555
H15 O13 0.992205 1_555
H16 O44 1.014615 1_555
H16 O41 1.637660 1_555
H17 O45 1.014615 1_555
H17 O40 1.637660 1_554
H18 O46 1.014615 1_555
H18 O43 1.637660 1_555
H19 O47 1.014615 1_555
H19 O42 1.637660 1_556
H20 O44 0.979033 1_455
H21 O45 0.979033 1_556
H22 O46 0.979033 1_655
H23 O47 0.979033 1_554
H24 O48 0.994294 1_555
H25 O49 0.994294 1_555
H26 O50 0.994294 1_555
H27 O51 0.994294 1_555
H28 O48 0.995732 1_555
H29 O49 0.995732 1_555
H30 O50 0.995732 1_555
H31 O51 0.995732 1_555
H32 O52 0.997483 1_555
H33 O53 0.997483 1_555
H34 O54 0.997483 1_555
H35 O55 0.997483 1_555
H36 O52 0.980319 1_555
H37 O53 0.980319 1_555
H38 O54 0.980319 1_555
H39 O55 0.980319 1_555
H40 O56 0.979216 1_555
H41 O57 0.979216 1_555
H42 O58 0.979216 1_555
H43 O59 0.979216 1_555
H44 O58 0.977758 1_555
H45 O59 0.977758 1_555
H46 O56 0.977758 1_555
H47 O57 0.977758 1_555
O0 P0 1.497888 1_555
O1 P1 1.497888 1_555
O2 P2 1.497888 1_555
O3 P3 1.497888 1_555
O4 P0 1.508599 1_555
O5 P1 1.508599 1_555
O6 P2 1.508599 1_555
O7 P3 1.508599 1_555
O8 P0 1.587993 1_555
O8 P4 1.664649 1_554
O9 P1 1.587993 1_555
O9 P5 1.664649 1_555
O10 P2 1.587993 1_555
O10 P6 1.664649 1_556
O11 P3 1.587993 1_555
O11 P7 1.664649 1_555
O12 P4 1.758126 1_555
O13 P5 1.758126 1_555
O14 P6 1.758126 1_555
O15 P7 1.758126 1_555
O16 P4 1.531667 1_554
O17 P5 1.531667 1_555
O18 P6 1.531667 1_556
O19 P7 1.531667 1_555
O20 P10 1.565954 1_555
O20 P4 1.660756 1_555
O21 P11 1.565954 1_555
O21 P5 1.660756 1_555
O22 P8 1.565954 1_555
O22 P6 1.660756 1_555
O23 P9 1.565954 1_555
O23 P7 1.660756 1_555
O24 P8 1.496341 1_555
O25 P9 1.496341 1_555
O26 P10 1.496341 1_555
O27 P11 1.496341 1_555
O28 P8 1.523722 1_555
O29 P9 1.523722 1_555
O30 P10 1.523722 1_555
O31 P11 1.523722 1_555
O32 P8 1.625308 1_555
O32 P0 1.646242 1_455
O33 P9 1.625308 1_555
O33 P1 1.646242 1_555
O34 P10 1.625308 1_555
O34 P2 1.646242 1_655
O35 P11 1.625308 1_555
O35 P3 1.646242 1_555
O40 P6 1.689586 1_556
O41 P7 1.689586 1_555
O42 P4 1.689586 1_554
O43 P5 1.689586 1_555
