# generated using pymatgen
data_BeH6(NF2)2
_symmetry_space_group_name_H-M   'P 1'
_cell_length_a   7.85415500
_cell_length_b   5.42899600
_cell_length_c   9.94740967
_cell_angle_alpha   89.45763685
_cell_angle_beta   90.00000000
_cell_angle_gamma   90.00000000
_symmetry_Int_Tables_number   1
_chemical_formula_structural   BeH6(NF2)2
_chemical_formula_sum   'Be4 H24 N8 F16'
_cell_volume   424.14029641
_cell_formula_units_Z   4
loop_
 _symmetry_equiv_pos_site_id
 _symmetry_equiv_pos_as_xyz
  1  'x, y, z'
loop_
 _atom_site_type_symbol
 _atom_site_label
 _atom_site_symmetry_multiplicity
 _atom_site_fract_x
 _atom_site_fract_y
 _atom_site_fract_z
 _atom_site_occupancy
  Be  Be0  1  0.28830000  0.77325500  0.92585400  1
  Be  Be1  1  0.21170000  0.77325500  0.42585400  1
  Be  Be2  1  0.78830000  0.22674500  0.57414600  1
  Be  Be3  1  0.71170000  0.22674500  0.07414600  1
  H  H0  1  0.92404600  0.94733000  0.75517500  1
  H  H1  1  0.65674600  0.80982700  0.83915100  1
  H  H2  1  0.80536000  0.79677200  0.96542600  1
  H  H3  1  0.57595400  0.94733000  0.25517500  1
  H  H4  1  0.84325400  0.80982700  0.33915100  1
  H  H5  1  0.69464000  0.79677200  0.46542600  1
  H  H6  1  0.86495200  0.67718200  0.68624500  1
  H  H7  1  0.01678400  0.67095400  0.81212700  1
  H  H8  1  0.63504800  0.67718200  0.18624500  1
  H  H9  1  0.73637000  0.53267900  0.88154700  1
  H  H10  1  0.48321600  0.67095400  0.31212700  1
  H  H11  1  0.23637000  0.46732100  0.61845300  1
  H  H12  1  0.76363000  0.53267900  0.38154700  1
  H  H13  1  0.51678400  0.32904600  0.68787300  1
  H  H14  1  0.26363000  0.46732100  0.11845300  1
  H  H15  1  0.36495200  0.32281800  0.81375500  1
  H  H16  1  0.98321600  0.32904600  0.18787300  1
  H  H17  1  0.13504800  0.32281800  0.31375500  1
  H  H18  1  0.30536000  0.20322800  0.53457400  1
  H  H19  1  0.15674600  0.19017300  0.66084900  1
  H  H20  1  0.42404600  0.05267000  0.74482500  1
  H  H21  1  0.19464000  0.20322800  0.03457400  1
  H  H22  1  0.34325400  0.19017300  0.16084900  1
  H  H23  1  0.07595400  0.05267000  0.24482500  1
  N  N0  1  0.76892800  0.72228400  0.87141700  1
  N  N1  1  0.73107200  0.72228400  0.37141700  1
  N  N2  1  0.90390100  0.75702600  0.77502000  1
  N  N3  1  0.59609900  0.75702600  0.27502000  1
  N  N4  1  0.40390100  0.24297400  0.72498000  1
  N  N5  1  0.09609900  0.24297400  0.22498000  1
  N  N6  1  0.26892800  0.27771600  0.62858300  1
  N  N7  1  0.23107200  0.27771600  0.12858300  1
  F  F0  1  0.18201800  0.01459900  0.91085400  1
  F  F1  1  0.31798200  0.01459900  0.41085400  1
  F  F2  1  0.44081800  0.78913500  0.82190000  1
  F  F3  1  0.15004300  0.72968900  0.57293600  1
  F  F4  1  0.05918200  0.78913500  0.32190000  1
  F  F5  1  0.17568700  0.54789800  0.88244500  1
  F  F6  1  0.34995700  0.72968900  0.07293600  1
  F  F7  1  0.32431300  0.54789800  0.38244500  1
  F  F8  1  0.67568700  0.45210200  0.61755500  1
  F  F9  1  0.65004300  0.27031100  0.92706400  1
  F  F10  1  0.82431300  0.45210200  0.11755500  1
  F  F11  1  0.94081800  0.21086500  0.67810000  1
  F  F12  1  0.84995700  0.27031100  0.42706400  1
  F  F13  1  0.55918200  0.21086500  0.17810000  1
  F  F14  1  0.68201800  0.98540100  0.58914600  1
  F  F15  1  0.81798200  0.98540100  0.08914600  1
loop_
_geom_bond_atom_site_label_1
_geom_bond_atom_site_label_2
_geom_bond_distance
_geom_bond_site_symmetry_2
Be0 F6 1.557087 1_556
Be0 F0 1.559535 1_565
Be0 F5 1.573411 1_555
Be0 F2 1.584303 1_555
Be1 F3 1.557087 1_555
Be1 F1 1.559535 1_565
Be1 F7 1.573411 1_555
Be1 F4 1.584303 1_555
Be2 F12 1.557087 1_555
Be2 F14 1.559535 1_545
Be2 F8 1.573411 1_555
Be2 F11 1.584303 1_555
Be3 F9 1.557087 1_554
Be3 F15 1.559535 1_545
Be3 F10 1.573411 1_555
Be3 F13 1.584303 1_555
H0 N2 1.061867 1_555
H1 N0 1.049924 1_555
H2 N0 1.061636 1_555
H3 N3 1.061867 1_555
H4 N1 1.049924 1_555
H5 N1 1.061636 1_555
H6 N2 1.033712 1_555
H7 N2 1.066489 1_455
H8 N3 1.033712 1_555
H9 N0 1.064506 1_555
H10 N3 1.066489 1_555
H11 N6 1.064506 1_555
H12 N1 1.064506 1_555
H13 N4 1.066489 1_555
H14 N7 1.064506 1_555
H15 N4 1.033712 1_555
H16 N5 1.066489 1_655
H17 N5 1.033712 1_555
H18 N6 1.061636 1_555
H19 N6 1.049924 1_555
H20 N4 1.061867 1_555
H21 N7 1.061636 1_555
H22 N7 1.049924 1_555
H23 N5 1.061867 1_555
F0 H21 1.611523 1_556
F1 H18 1.611523 1_555
F5 H7 1.576189 1_555
F7 H10 1.576189 1_555
F8 H13 1.576189 1_555
F10 H16 1.576189 1_555
F14 H5 1.611523 1_555
F15 H2 1.611523 1_554
