# generated using pymatgen
data_Sb2(SO4)3
_symmetry_space_group_name_H-M   'P 1'
_cell_length_a   9.07261300
_cell_length_b   9.23258600
_cell_length_c   25.45404600
_cell_angle_alpha   90.00000000
_cell_angle_beta   90.00000000
_cell_angle_gamma   90.00000000
_symmetry_Int_Tables_number   1
_chemical_formula_structural   Sb2(SO4)3
_chemical_formula_sum   'Sb16 S24 O96'
_cell_volume   2132.12455792
_cell_formula_units_Z   8
loop_
 _symmetry_equiv_pos_site_id
 _symmetry_equiv_pos_as_xyz
  1  'x, y, z'
loop_
 _atom_site_type_symbol
 _atom_site_label
 _atom_site_symmetry_multiplicity
 _atom_site_fract_x
 _atom_site_fract_y
 _atom_site_fract_z
 _atom_site_occupancy
  Sb  Sb0  1  0.00380400  0.38071600  0.06335100  1
  Sb  Sb1  1  0.00380400  0.11928400  0.56335100  1
  Sb  Sb2  1  0.99098300  0.80403800  0.17960200  1
  Sb  Sb3  1  0.99098300  0.69596200  0.67960200  1
  Sb  Sb4  1  0.50901700  0.30403800  0.17960200  1
  Sb  Sb5  1  0.50901700  0.19596200  0.67960200  1
  Sb  Sb6  1  0.49619600  0.61928400  0.56335100  1
  Sb  Sb7  1  0.49619600  0.88071600  0.06335100  1
  Sb  Sb8  1  0.50380400  0.38071600  0.43664900  1
  Sb  Sb9  1  0.50380400  0.11928400  0.93664900  1
  Sb  Sb10  1  0.49098300  0.69596200  0.82039800  1
  Sb  Sb11  1  0.49098300  0.80403800  0.32039800  1
  Sb  Sb12  1  0.00901700  0.30403800  0.32039800  1
  Sb  Sb13  1  0.00901700  0.19596200  0.82039800  1
  Sb  Sb14  1  0.99619600  0.88071600  0.43664900  1
  Sb  Sb15  1  0.99619600  0.61928400  0.93664900  1
  S  S0  1  0.14408900  0.94488700  0.29715600  1
  S  S1  1  0.14408900  0.55511300  0.79715600  1
  S  S2  1  0.14887000  0.26367700  0.44973900  1
  S  S3  1  0.14887000  0.23632300  0.94973900  1
  S  S4  1  0.19047200  0.08759100  0.11632600  1
  S  S5  1  0.19047200  0.41240900  0.61632600  1
  S  S6  1  0.30952800  0.58759100  0.11632600  1
  S  S7  1  0.30952800  0.91240900  0.61632600  1
  S  S8  1  0.35113000  0.76367700  0.44973900  1
  S  S9  1  0.35113000  0.73632300  0.94973900  1
  S  S10  1  0.35591100  0.44488700  0.29715600  1
  S  S11  1  0.35591100  0.05511300  0.79715600  1
  S  S12  1  0.64408900  0.55511300  0.70284400  1
  S  S13  1  0.64408900  0.94488700  0.20284400  1
  S  S14  1  0.64887000  0.26367700  0.05026100  1
  S  S15  1  0.64887000  0.23632300  0.55026100  1
  S  S16  1  0.69047200  0.08759100  0.38367400  1
  S  S17  1  0.69047200  0.41240900  0.88367400  1
  S  S18  1  0.80952800  0.58759100  0.38367400  1
  S  S19  1  0.80952800  0.91240900  0.88367400  1
  S  S20  1  0.85113000  0.76367700  0.05026100  1
  S  S21  1  0.85113000  0.73632300  0.55026100  1
  S  S22  1  0.85591100  0.44488700  0.20284400  1
  S  S23  1  0.85591100  0.05511300  0.70284400  1
  O  O0  1  0.07164100  0.39679200  0.45989400  1
  O  O1  1  0.07164100  0.10320800  0.95989400  1
  O  O2  1  0.09386000  0.09030600  0.27990700  1
  O  O3  1  0.09386000  0.40969400  0.77990700  1
  O  O4  1  0.08528400  0.13643000  0.48299300  1
  O  O5  1  0.08528400  0.36357000  0.98299300  1
  O  O6  1  0.08998100  0.90596800  0.34976600  1
  O  O7  1  0.08998100  0.59403200  0.84976600  1
  O  O8  1  0.08914200  0.17876900  0.08180200  1
  O  O9  1  0.08914200  0.32123100  0.58180200  1
  O  O10  1  0.09348600  0.83179700  0.25890500  1
  O  O11  1  0.09348600  0.66820300  0.75890500  1
  O  O12  1  0.09473100  0.01556000  0.15618400  1
  O  O13  1  0.09473100  0.48444000  0.65618400  1
  O  O14  1  0.13941900  0.21263000  0.39408400  1
  O  O15  1  0.13941900  0.28737000  0.89408400  1
  O  O16  1  0.18892100  0.44733400  0.29688000  1
  O  O17  1  0.18892100  0.05266600  0.79688000  1
  O  O18  1  0.20225500  0.68047200  0.14344800  1
  O  O19  1  0.20225500  0.81952800  0.64344800  1
  O  O20  1  0.19025800  0.76656400  0.46579100  1
  O  O21  1  0.19025800  0.73343600  0.96579100  1
  O  O22  1  0.24008000  0.01895000  0.58095700  1
  O  O23  1  0.24008000  0.48105000  0.08095700  1
  O  O24  1  0.25992000  0.51895000  0.58095700  1
  O  O25  1  0.25992000  0.98105000  0.08095700  1
  O  O26  1  0.30974200  0.23343600  0.96579100  1
  O  O27  1  0.30974200  0.26656400  0.46579100  1
  O  O28  1  0.29774500  0.18047200  0.14344800  1
  O  O29  1  0.29774500  0.31952800  0.64344800  1
  O  O30  1  0.31107900  0.94733400  0.29688000  1
  O  O31  1  0.31107900  0.55266600  0.79688000  1
  O  O32  1  0.36058100  0.71263000  0.39408400  1
  O  O33  1  0.36058100  0.78737000  0.89408400  1
  O  O34  1  0.40526900  0.98444000  0.65618400  1
  O  O35  1  0.40526900  0.51556000  0.15618400  1
  O  O36  1  0.40651400  0.33179700  0.25890500  1
  O  O37  1  0.40651400  0.16820300  0.75890500  1
  O  O38  1  0.41085800  0.67876900  0.08180200  1
  O  O39  1  0.41085800  0.82123100  0.58180200  1
  O  O40  1  0.41001900  0.09403200  0.84976600  1
  O  O41  1  0.41001900  0.40596800  0.34976600  1
  O  O42  1  0.41471600  0.86357000  0.98299300  1
  O  O43  1  0.41471600  0.63643000  0.48299300  1
  O  O44  1  0.40614000  0.59030600  0.27990700  1
  O  O45  1  0.40614000  0.90969400  0.77990700  1
  O  O46  1  0.42835900  0.60320800  0.95989400  1
  O  O47  1  0.42835900  0.89679200  0.45989400  1
  O  O48  1  0.57164100  0.39679200  0.04010600  1
  O  O49  1  0.57164100  0.10320800  0.54010600  1
  O  O50  1  0.59386000  0.09030600  0.22009300  1
  O  O51  1  0.59386000  0.40969400  0.72009300  1
  O  O52  1  0.58528400  0.13643000  0.01700700  1
  O  O53  1  0.58528400  0.36357000  0.51700700  1
  O  O54  1  0.58998100  0.59403200  0.65023400  1
  O  O55  1  0.58998100  0.90596800  0.15023400  1
  O  O56  1  0.58914200  0.17876900  0.41819800  1
  O  O57  1  0.58914200  0.32123100  0.91819800  1
  O  O58  1  0.59348600  0.83179700  0.24109500  1
  O  O59  1  0.59348600  0.66820300  0.74109500  1
  O  O60  1  0.59473100  0.01556000  0.34381600  1
  O  O61  1  0.59473100  0.48444000  0.84381600  1
  O  O62  1  0.63941900  0.21263000  0.10591600  1
  O  O63  1  0.63941900  0.28737000  0.60591600  1
  O  O64  1  0.68892100  0.44733400  0.20312000  1
  O  O65  1  0.68892100  0.05266600  0.70312000  1
  O  O66  1  0.70225500  0.68047200  0.35655200  1
  O  O67  1  0.70225500  0.81952800  0.85655200  1
  O  O68  1  0.69025800  0.76656400  0.03420900  1
  O  O69  1  0.69025800  0.73343600  0.53420900  1
  O  O70  1  0.74008000  0.48105000  0.41904300  1
  O  O71  1  0.74008000  0.01895000  0.91904300  1
  O  O72  1  0.75992000  0.98105000  0.41904300  1
  O  O73  1  0.75992000  0.51895000  0.91904300  1
  O  O74  1  0.80974200  0.26656400  0.03420900  1
  O  O75  1  0.80974200  0.23343600  0.53420900  1
  O  O76  1  0.79774500  0.18047200  0.35655200  1
  O  O77  1  0.79774500  0.31952800  0.85655200  1
  O  O78  1  0.81107900  0.55266600  0.70312000  1
  O  O79  1  0.81107900  0.94733400  0.20312000  1
  O  O80  1  0.86058100  0.71263000  0.10591600  1
  O  O81  1  0.86058100  0.78737000  0.60591600  1
  O  O82  1  0.90526900  0.51556000  0.34381600  1
  O  O83  1  0.90526900  0.98444000  0.84381600  1
  O  O84  1  0.90651400  0.33179700  0.24109500  1
  O  O85  1  0.90651400  0.16820300  0.74109500  1
  O  O86  1  0.91085800  0.67876900  0.41819800  1
  O  O87  1  0.91085800  0.82123100  0.91819800  1
  O  O88  1  0.91001900  0.40596800  0.15023400  1
  O  O89  1  0.91001900  0.09403200  0.65023400  1
  O  O90  1  0.91471600  0.63643000  0.01700700  1
  O  O91  1  0.91471600  0.86357000  0.51700700  1
  O  O92  1  0.90614000  0.59030600  0.22009300  1
  O  O93  1  0.90614000  0.90969400  0.72009300  1
  O  O94  1  0.92835900  0.60320800  0.54010600  1
  O  O95  1  0.92835900  0.89679200  0.04010600  1
loop_
_geom_bond_atom_site_label_1
_geom_bond_atom_site_label_2
_geom_bond_distance
_geom_bond_site_symmetry_2
O0 S2 1.438118 1_555
O1 S3 1.438118 1_555
O2 S0 1.484250 1_545
O2 Sb12 2.355564 1_555
O3 S1 1.484250 1_555
O3 Sb13 2.355564 1_555
O4 S2 1.558678 1_555
O4 Sb1 2.180674 1_555
O5 S3 1.558678 1_555
O5 Sb0 2.180674 1_556
O6 S0 1.470845 1_555
O6 Sb14 2.381004 1_455
O7 S1 1.470845 1_555
O7 Sb15 2.381004 1_455
O8 S4 1.525140 1_555
O8 Sb0 2.072765 1_555
O9 S5 1.525140 1_555
O9 Sb1 2.072765 1_555
O10 S0 1.499642 1_555
O10 Sb2 2.237231 1_455
O11 S1 1.499642 1_555
O11 Sb3 2.237231 1_455
O12 S4 1.492004 1_555
O12 Sb2 2.248354 1_445
O13 S5 1.492004 1_555
O13 Sb3 2.248354 1_455
O14 S2 1.495445 1_555
O14 Sb12 2.372724 1_555
O15 S3 1.495445 1_555
O15 Sb13 2.372724 1_555
O16 S10 1.515220 1_555
O16 Sb12 2.184660 1_555
O17 S11 1.515220 1_555
O17 Sb13 2.184660 1_555
O18 S6 1.469412 1_555
O18 Sb2 2.412980 1_455
O19 S7 1.469412 1_555
O19 Sb3 2.412980 1_455
O20 S8 1.515876 1_555
O20 Sb14 2.181942 1_455
O21 S9 1.515876 1_555
O21 Sb15 2.181942 1_455
O22 S7 1.474812 1_545
O22 Sb1 2.377843 1_555
O23 S6 1.474812 1_555
O23 Sb0 2.377843 1_555
O24 S5 1.474812 1_555
O24 Sb6 2.377843 1_555
O25 S4 1.474812 1_565
O25 Sb7 2.377843 1_555
O26 S3 1.515876 1_555
O26 Sb9 2.181942 1_555
O27 S2 1.515876 1_555
O27 Sb8 2.181942 1_555
O28 S4 1.469412 1_555
O28 Sb4 2.412980 1_555
O29 S5 1.469412 1_555
O29 Sb5 2.412980 1_555
O30 S0 1.515220 1_555
O30 Sb11 2.184660 1_555
O31 S1 1.515220 1_555
O31 Sb10 2.184660 1_555
O32 S8 1.495445 1_555
O32 Sb11 2.372724 1_555
O33 S9 1.495445 1_555
O33 Sb10 2.372724 1_555
O34 S7 1.492004 1_555
O34 Sb5 2.248354 1_565
O35 S6 1.492004 1_555
O35 Sb4 2.248354 1_555
O36 S10 1.499642 1_555
O36 Sb4 2.237231 1_555
O37 S11 1.499642 1_555
O37 Sb5 2.237231 1_555
O38 S6 1.525140 1_555
O38 Sb7 2.072765 1_555
O39 S7 1.525140 1_555
O39 Sb6 2.072765 1_555
O40 S11 1.470845 1_555
O40 Sb9 2.381004 1_555
O41 S10 1.470845 1_555
O41 Sb8 2.381004 1_555
O42 S9 1.558678 1_555
O42 Sb7 2.180674 1_556
O43 S8 1.558678 1_555
O43 Sb6 2.180674 1_555
O44 S10 1.484250 1_555
O44 Sb11 2.355564 1_555
O45 S11 1.484250 1_565
O45 Sb10 2.355564 1_555
O46 S9 1.438118 1_555
O47 S8 1.438118 1_555
O48 S14 1.438118 1_555
O49 S15 1.438118 1_555
O50 S13 1.484250 1_545
O50 Sb4 2.355564 1_555
O51 S12 1.484250 1_555
O51 Sb5 2.355564 1_555
O52 S14 1.558678 1_555
O52 Sb9 2.180674 1_554
O53 S15 1.558678 1_555
O53 Sb8 2.180674 1_555
O54 S12 1.470845 1_555
O54 Sb6 2.381004 1_555
O55 S13 1.470845 1_555
O55 Sb7 2.381004 1_555
O56 S16 1.525140 1_555
O56 Sb8 2.072765 1_555
O57 S17 1.525140 1_555
O57 Sb9 2.072765 1_555
O58 S13 1.499642 1_555
O58 Sb11 2.237231 1_555
O59 S12 1.499642 1_555
O59 Sb10 2.237231 1_555
O60 S16 1.492004 1_555
O60 Sb11 2.248354 1_545
O61 S17 1.492004 1_555
O61 Sb10 2.248354 1_555
O62 S14 1.495445 1_555
O62 Sb4 2.372724 1_555
O63 S15 1.495445 1_555
O63 Sb5 2.372724 1_555
O64 S22 1.515220 1_555
O64 Sb4 2.184660 1_555
O65 S23 1.515220 1_555
O65 Sb5 2.184660 1_555
O66 S18 1.469412 1_555
O66 Sb11 2.412980 1_555
O67 S19 1.469412 1_555
O67 Sb10 2.412980 1_555
O68 S20 1.515876 1_555
O68 Sb7 2.181942 1_555
O69 S21 1.515876 1_555
O69 Sb6 2.181942 1_555
O70 S18 1.474812 1_555
O70 Sb8 2.377843 1_555
O71 S19 1.474812 1_545
O71 Sb9 2.377843 1_555
O72 S16 1.474812 1_565
O72 Sb14 2.377843 1_555
O73 S17 1.474812 1_555
O73 Sb15 2.377843 1_555
O74 S14 1.515876 1_555
O74 Sb0 2.181942 1_655
O75 S15 1.515876 1_555
O75 Sb1 2.181942 1_655
O76 S16 1.469412 1_555
O76 Sb12 2.412980 1_655
O77 S17 1.469412 1_555
O77 Sb13 2.412980 1_655
O78 S12 1.515220 1_555
O78 Sb3 2.184660 1_555
O79 S13 1.515220 1_555
O79 Sb2 2.184660 1_555
O80 S20 1.495445 1_555
O80 Sb2 2.372724 1_555
O81 S21 1.495445 1_555
O81 Sb3 2.372724 1_555
O82 S18 1.492004 1_555
O82 Sb12 2.248354 1_655
O83 S19 1.492004 1_555
O83 Sb13 2.248354 1_665
O84 S22 1.499642 1_555
O84 Sb12 2.237231 1_655
O85 S23 1.499642 1_555
O85 Sb13 2.237231 1_655
O86 S18 1.525140 1_555
O86 Sb14 2.072765 1_555
O87 S19 1.525140 1_555
O87 Sb15 2.072765 1_555
O88 S22 1.470845 1_555
O88 Sb0 2.381004 1_655
O89 S23 1.470845 1_555
O89 Sb1 2.381004 1_655
O90 S20 1.558678 1_555
O90 Sb15 2.180674 1_554
O91 S21 1.558678 1_555
O91 Sb14 2.180674 1_555
O92 S22 1.484250 1_555
O92 Sb2 2.355564 1_555
O93 S23 1.484250 1_565
O93 Sb3 2.355564 1_555
O94 S21 1.438118 1_555
O95 S20 1.438118 1_555
