# generated using pymatgen
data_SrCe2O4
_symmetry_space_group_name_H-M   'P 1'
_cell_length_a   3.58126200
_cell_length_b   10.21857300
_cell_length_c   12.30871100
_cell_angle_alpha   90.00000000
_cell_angle_beta   90.00000000
_cell_angle_gamma   90.00000000
_symmetry_Int_Tables_number   1
_chemical_formula_structural   SrCe2O4
_chemical_formula_sum   'Sr4 Ce8 O16'
_cell_volume   450.44204472
_cell_formula_units_Z   4
loop_
 _symmetry_equiv_pos_site_id
 _symmetry_equiv_pos_as_xyz
  1  'x, y, z'
loop_
 _atom_site_type_symbol
 _atom_site_label
 _atom_site_symmetry_multiplicity
 _atom_site_fract_x
 _atom_site_fract_y
 _atom_site_fract_z
 _atom_site_occupancy
  Sr  Sr0  1  0.25000000  0.24871200  0.14603100  1
  Sr  Sr1  1  0.75000000  0.25128800  0.64603100  1
  Sr  Sr2  1  0.25000000  0.74871200  0.35396900  1
  Sr  Sr3  1  0.75000000  0.75128800  0.85396900  1
  Ce  Ce0  1  0.75000000  0.09144000  0.89238500  1
  Ce  Ce1  1  0.75000000  0.07412800  0.38517600  1
  Ce  Ce2  1  0.25000000  0.42587200  0.88517600  1
  Ce  Ce3  1  0.25000000  0.40856000  0.39238500  1
  Ce  Ce4  1  0.75000000  0.59144000  0.60761500  1
  Ce  Ce5  1  0.75000000  0.57412800  0.11482400  1
  Ce  Ce6  1  0.25000000  0.92587200  0.61482400  1
  Ce  Ce7  1  0.25000000  0.90856000  0.10761500  1
  O  O0  1  0.75000000  0.99899100  0.71382600  1
  O  O1  1  0.75000000  0.06688300  0.08310700  1
  O  O2  1  0.25000000  0.13505400  0.51382400  1
  O  O3  1  0.25000000  0.22134500  0.80692000  1
  O  O4  1  0.75000000  0.27865500  0.30692000  1
  O  O5  1  0.75000000  0.36494600  0.01382400  1
  O  O6  1  0.25000000  0.43311700  0.58310700  1
  O  O7  1  0.25000000  0.50100900  0.21382600  1
  O  O8  1  0.75000000  0.49899100  0.78617400  1
  O  O9  1  0.75000000  0.56688300  0.41689300  1
  O  O10  1  0.25000000  0.63505400  0.98617600  1
  O  O11  1  0.25000000  0.72134500  0.69308000  1
  O  O12  1  0.75000000  0.77865500  0.19308000  1
  O  O13  1  0.75000000  0.86494600  0.48617600  1
  O  O14  1  0.25000000  0.93311700  0.91689300  1
  O  O15  1  0.25000000  0.00100900  0.28617400  1
loop_
_geom_bond_atom_site_label_1
_geom_bond_atom_site_label_2
_geom_bond_distance
_geom_bond_site_symmetry_2
Ce0 O1 2.360916 1_556
Ce0 O0 2.392261 1_545
Ce0 O14 2.432026 1_645
Ce0 O14 2.432026 1_545
Ce0 O3 2.464771 1_555
Ce0 O3 2.464771 1_655
Ce0 O5 3.169454 1_556
Ce1 O15 2.291196 1_655
Ce1 O15 2.291196 1_555
Ce1 O4 2.301262 1_555
Ce1 O2 2.470102 1_655
Ce1 O2 2.470102 1_555
Ce1 O13 2.472768 1_545
Ce2 O8 2.291196 1_455
Ce2 O8 2.291196 1_555
Ce2 O3 2.301262 1_555
Ce2 O5 2.470102 1_556
Ce2 O5 2.470102 1_456
Ce2 O10 2.472768 1_555
Ce3 O6 2.360916 1_555
Ce3 O7 2.392261 1_555
Ce3 O9 2.432026 1_555
Ce3 O9 2.432026 1_455
Ce3 O4 2.464771 1_455
Ce3 O4 2.464771 1_555
Ce3 O2 3.169454 1_555
Ce4 O9 2.360916 1_555
Ce4 O8 2.392261 1_555
Ce4 O6 2.432026 1_655
Ce4 O6 2.432026 1_555
Ce4 O11 2.464771 1_655
Ce4 O11 2.464771 1_555
Ce4 O13 3.169454 1_555
Ce5 O7 2.291196 1_555
Ce5 O7 2.291196 1_655
Ce5 O12 2.301262 1_555
Ce5 O10 2.470102 1_554
Ce5 O10 2.470102 1_654
Ce5 O5 2.472768 1_555
Ce6 O0 2.291196 1_455
Ce6 O0 2.291196 1_555
Ce6 O11 2.301262 1_555
Ce6 O13 2.470102 1_455
Ce6 O13 2.470102 1_555
Ce6 O2 2.472768 1_565
Ce7 O14 2.360916 1_554
Ce7 O15 2.392261 1_565
Ce7 O1 2.432026 1_465
Ce7 O1 2.432026 1_565
Ce7 O12 2.464771 1_555
Ce7 O12 2.464771 1_455
Ce7 O10 3.169454 1_554
O0 Sr1 2.709800 1_565
O0 Sr3 3.063067 1_555
O1 Sr0 2.694163 1_655
O1 Sr0 2.694163 1_555
O2 Sr1 2.695403 1_455
O2 Sr1 2.695403 1_555
O3 Sr1 2.687324 1_455
O3 Sr1 2.687324 1_555
O4 Sr0 2.687324 1_655
O4 Sr0 2.687324 1_555
O5 Sr0 2.695403 1_555
O5 Sr0 2.695403 1_655
O6 Sr1 2.694163 1_455
O6 Sr1 2.694163 1_555
O7 Sr0 2.709800 1_555
O7 Sr2 3.063067 1_555
O8 Sr3 2.709800 1_555
O8 Sr1 3.063067 1_555
O9 Sr2 2.694163 1_555
O9 Sr2 2.694163 1_655
O10 Sr3 2.695403 1_455
O10 Sr3 2.695403 1_555
O11 Sr3 2.687324 1_555
O11 Sr3 2.687324 1_455
O12 Sr2 2.687324 1_555
O12 Sr2 2.687324 1_655
O13 Sr2 2.695403 1_555
O13 Sr2 2.695403 1_655
O14 Sr3 2.694163 1_455
O14 Sr3 2.694163 1_555
O15 Sr2 2.709800 1_545
O15 Sr0 3.063067 1_555
