# generated using pymatgen
data_Li3VO3F
_symmetry_space_group_name_H-M   'P 1'
_cell_length_a   5.16636937
_cell_length_b   9.71413406
_cell_length_c   5.84930646
_cell_angle_alpha   87.29045034
_cell_angle_beta   88.63935984
_cell_angle_gamma   80.68878957
_symmetry_Int_Tables_number   1
_chemical_formula_structural   Li3VO3F
_chemical_formula_sum   'Li12 V4 O12 F4'
_cell_volume   289.32764805
_cell_formula_units_Z   4
loop_
 _symmetry_equiv_pos_site_id
 _symmetry_equiv_pos_as_xyz
  1  'x, y, z'
loop_
 _atom_site_type_symbol
 _atom_site_label
 _atom_site_symmetry_multiplicity
 _atom_site_fract_x
 _atom_site_fract_y
 _atom_site_fract_z
 _atom_site_occupancy
  Li  Li0  1  0.38339100  0.12082900  0.12659600  1
  Li  Li1  1  0.88336500  0.62083900  0.12660400  1
  Li  Li2  1  0.11664200  0.37915900  0.87339600  1
  Li  Li3  1  0.61661200  0.87917100  0.87340400  1
  Li  Li4  1  0.37528300  0.13383000  0.63089900  1
  Li  Li5  1  0.87524300  0.63384700  0.63090100  1
  Li  Li6  1  0.12476200  0.36614800  0.36909800  1
  Li  Li7  1  0.62472100  0.86616800  0.36909800  1
  Li  Li8  1  0.86796500  0.12863600  0.37596900  1
  Li  Li9  1  0.36798000  0.62865400  0.37600800  1
  Li  Li10  1  0.63201500  0.37134500  0.62399200  1
  Li  Li11  1  0.13203000  0.87136500  0.62402700  1
  V  V0  1  0.38926400  0.63509300  0.88074700  1
  V  V1  1  0.61073900  0.36489900  0.11925500  1
  V  V2  1  0.88931900  0.13513300  0.88073100  1
  V  V3  1  0.11068000  0.86487100  0.11927500  1
  O  O0  1  0.72709600  0.49978300  0.89793200  1
  O  O1  1  0.22707400  0.99977700  0.89794200  1
  O  O2  1  0.77292100  0.00022500  0.10205800  1
  O  O3  1  0.27290200  0.50021900  0.10206800  1
  O  O4  1  0.52588400  0.24752800  0.88613800  1
  O  O5  1  0.02582400  0.74750200  0.88613400  1
  O  O6  1  0.97417200  0.25250100  0.11386700  1
  O  O7  1  0.47411100  0.75247700  0.11386800  1
  O  O8  1  0.50278500  0.26490000  0.35982800  1
  O  O9  1  0.00275400  0.76488600  0.35986300  1
  O  O10  1  0.99725200  0.23511400  0.64013000  1
  O  O11  1  0.49721600  0.73510000  0.64017300  1
  F  F0  1  0.74466100  0.00596700  0.62824300  1
  F  F1  1  0.24466500  0.50595300  0.62823600  1
  F  F2  1  0.75533600  0.49404600  0.37176900  1
  F  F3  1  0.25533700  0.99403400  0.37175300  1
loop_
_geom_bond_atom_site_label_1
_geom_bond_atom_site_label_2
_geom_bond_distance
_geom_bond_site_symmetry_2
Li0 O4 2.028639 1_554
Li0 O1 2.081129 1_544
Li0 O2 2.163880 1_555
Li0 O8 2.167983 1_555
Li0 O6 2.287955 1_455
Li1 O5 2.028386 1_654
Li1 O0 2.081103 1_554
Li1 O3 2.163971 1_655
Li1 O9 2.167910 1_655
Li1 O7 2.287973 1_555
Li2 O6 2.028384 1_456
Li2 O3 2.081106 1_556
Li2 O0 2.164025 1_455
Li2 O10 2.167925 1_455
Li2 O4 2.287894 1_555
Li3 O7 2.028650 1_556
Li3 O2 2.081121 1_566
Li3 O1 2.163923 1_555
Li3 O11 2.167983 1_555
Li3 O5 2.287913 1_655
Li4 O10 2.040477 1_455
Li4 O4 2.131516 1_555
Li4 O8 2.144765 1_555
Li4 O1 2.189860 1_545
Li5 O11 2.040367 1_555
Li5 O5 2.131187 1_655
Li5 O9 2.144464 1_655
Li5 O0 2.189741 1_555
Li6 O8 2.040332 1_555
Li6 O6 2.131153 1_455
Li6 O10 2.144408 1_455
Li6 O3 2.189763 1_555
Li7 O9 2.040481 1_655
Li7 O7 2.131457 1_555
Li7 O11 2.144776 1_555
Li7 O2 2.189852 1_565
Li8 O6 2.024498 1_555
Li8 O10 2.080195 1_555
Li8 O8 2.123452 1_555
Li8 O2 2.188301 1_555
Li9 O7 2.024276 1_555
Li9 O11 2.079921 1_555
Li9 O9 2.123491 1_555
Li9 O3 2.188638 1_555
Li10 O4 2.024266 1_555
Li10 O8 2.079898 1_555
Li10 O10 2.123530 1_555
Li10 O0 2.188662 1_555
Li11 O5 2.024506 1_555
Li11 O9 2.080191 1_555
Li11 O11 2.123482 1_555
Li11 O1 2.188325 1_555
O0 V1 1.952361 1_556
O0 V0 2.009371 1_555
O1 V3 1.952621 1_556
O1 V2 2.009302 1_465
O2 V2 1.952621 1_554
O2 V3 2.009309 1_645
O3 V0 1.952297 1_554
O3 V1 2.009441 1_555
O4 V1 1.920573 1_556
O4 V2 2.013868 1_555
O5 V3 1.920666 1_556
O5 V0 2.013941 1_555
O6 V2 1.920633 1_554
O6 V1 2.013869 1_555
O7 V0 1.920660 1_554
O7 V3 2.013847 1_555
O8 V1 1.801018 1_555
O9 V3 1.800953 1_555
O10 V2 1.801002 1_555
O11 V0 1.801061 1_555
F0 Li8 2.009479 1_555
F0 Li3 2.015641 1_545
F0 Li4 2.101945 1_555
F0 V2 2.201169 1_555
F0 Li11 2.206666 1_645
F0 Li7 2.244427 1_545
F1 Li9 2.009503 1_555
F1 Li2 2.015570 1_555
F1 Li5 2.102264 1_455
F1 V0 2.200961 1_555
F1 Li10 2.206615 1_555
F1 Li6 2.244363 1_555
F2 Li10 2.009495 1_555
F2 Li1 2.015596 1_555
F2 Li6 2.102298 1_655
F2 V1 2.201014 1_555
F2 Li9 2.206640 1_555
F2 Li5 2.244319 1_555
F3 Li11 2.009485 1_555
F3 Li0 2.015630 1_565
F3 Li7 2.101983 1_555
F3 V3 2.201106 1_555
F3 Li8 2.206678 1_465
F3 Li4 2.244423 1_565
