# generated using pymatgen
data_Fe6OF11
_symmetry_space_group_name_H-M   'P 1'
_cell_length_a   4.83779200
_cell_length_b   5.84457567
_cell_length_c   8.11251353
_cell_angle_alpha   87.61952124
_cell_angle_beta   89.51346286
_cell_angle_gamma   89.59270135
_symmetry_Int_Tables_number   1
_chemical_formula_structural   Fe6OF11
_chemical_formula_sum   'Fe6 O1 F11'
_cell_volume   229.16858531
_cell_formula_units_Z   1
loop_
 _symmetry_equiv_pos_site_id
 _symmetry_equiv_pos_as_xyz
  1  'x, y, z'
loop_
 _atom_site_type_symbol
 _atom_site_label
 _atom_site_symmetry_multiplicity
 _atom_site_fract_x
 _atom_site_fract_y
 _atom_site_fract_z
 _atom_site_occupancy
  Fe  Fe0  1  0.49727000  0.17028300  0.33482000  1
  Fe  Fe1  1  0.51122300  0.49124100  0.99536900  1
  Fe  Fe2  1  0.50429600  0.82913900  0.66588300  1
  Fe  Fe3  1  0.00650600  0.66515400  0.32959300  1
  Fe  Fe4  1  0.98752800  0.33262600  0.67818100  1
  Fe  Fe5  1  0.98333600  0.02222700  0.99402600  1
  O  O0  1  0.80561800  0.28146800  0.91010400  1
  F  F0  1  0.80173400  0.63240000  0.56497600  1
  F  F1  1  0.80624500  0.97378900  0.22263900  1
  F  F2  1  0.71182300  0.80209000  0.90204800  1
  F  F3  1  0.69465800  0.47411000  0.23876600  1
  F  F4  1  0.70257100  0.12856700  0.56317700  1
  F  F5  1  0.30170400  0.86497700  0.43026600  1
  F  F6  1  0.30034200  0.53391600  0.76483800  1
  F  F7  1  0.28828000  0.19440500  0.10336800  1
  F  F8  1  0.20274800  0.02085700  0.77582000  1
  F  F9  1  0.19587900  0.36503300  0.43768500  1
  F  F10  1  0.19823900  0.71771700  0.08844200  1
loop_
_geom_bond_atom_site_label_1
_geom_bond_atom_site_label_2
_geom_bond_distance
_geom_bond_site_symmetry_2
Fe1 O0 2.009708 1_555
Fe4 O0 2.081520 1_555
Fe5 O0 1.845027 1_555
F0 Fe2 2.024231 1_555
F0 Fe4 2.139852 1_555
F0 Fe3 2.145833 1_655
F1 Fe5 2.046122 1_564
F1 Fe0 2.102550 1_565
F1 Fe3 2.191966 1_655
F2 Fe5 2.014423 1_565
F2 Fe2 2.169987 1_555
F2 Fe1 2.171168 1_555
F3 Fe3 2.043740 1_655
F3 Fe0 2.137491 1_555
F3 Fe1 2.169909 1_554
F4 Fe4 2.081083 1_555
F4 Fe0 2.113793 1_555
F4 Fe2 2.136840 1_545
F5 Fe3 2.047732 1_555
F5 Fe0 2.139038 1_565
F5 Fe2 2.157251 1_555
F6 Fe4 2.068940 1_455
F6 Fe2 2.119168 1_555
F6 Fe1 2.142579 1_555
F7 Fe5 2.023204 1_454
F7 Fe0 2.139140 1_555
F7 Fe1 2.196588 1_554
F8 Fe2 2.053490 1_545
F8 Fe5 2.056583 1_455
F8 Fe4 2.213343 1_455
F9 Fe0 2.037782 1_555
F9 Fe3 2.132626 1_555
F9 Fe4 2.190201 1_455
F10 Fe1 2.156373 1_554
F10 Fe3 2.169177 1_555
F10 Fe5 2.170020 1_464
