# generated using pymatgen
data_Li3SbH18S4O9
_symmetry_space_group_name_H-M   'P 1'
_cell_length_a   11.53979300
_cell_length_b   11.53979300
_cell_length_c   11.53979300
_cell_angle_alpha   90.00000000
_cell_angle_beta   90.00000000
_cell_angle_gamma   90.00000000
_symmetry_Int_Tables_number   1
_chemical_formula_structural   Li3SbH18S4O9
_chemical_formula_sum   'Li12 Sb4 H72 S16 O36'
_cell_volume   1536.71756592
_cell_formula_units_Z   4
loop_
 _symmetry_equiv_pos_site_id
 _symmetry_equiv_pos_as_xyz
  1  'x, y, z'
loop_
 _atom_site_type_symbol
 _atom_site_label
 _atom_site_symmetry_multiplicity
 _atom_site_fract_x
 _atom_site_fract_y
 _atom_site_fract_z
 _atom_site_occupancy
  Li  Li0  1  0.04973800  0.54973800  0.95026200  1
  Li  Li1  1  0.09047700  0.90952300  0.40952300  1
  Li  Li2  1  0.20512600  0.70512600  0.79487400  1
  Li  Li3  1  0.29487400  0.29487400  0.29487400  1
  Li  Li4  1  0.40952300  0.09047700  0.90952300  1
  Li  Li5  1  0.45026200  0.45026200  0.45026200  1
  Li  Li6  1  0.54973800  0.95026200  0.04973800  1
  Li  Li7  1  0.59047700  0.59047700  0.59047700  1
  Li  Li8  1  0.70512600  0.79487400  0.20512600  1
  Li  Li9  1  0.79487400  0.20512600  0.70512600  1
  Li  Li10  1  0.90952300  0.40952300  0.09047700  1
  Li  Li11  1  0.95026200  0.04973800  0.54973800  1
  Sb  Sb0  1  0.03837300  0.03837300  0.03837300  1
  Sb  Sb1  1  0.46162700  0.96162700  0.53837300  1
  Sb  Sb2  1  0.53837300  0.46162700  0.96162700  1
  Sb  Sb3  1  0.96162700  0.53837300  0.46162700  1
  H  H0  1  0.01572800  0.25197000  0.65652900  1
  H  H1  1  0.02718900  0.30515100  0.92757800  1
  H  H2  1  0.03741800  0.16505600  0.75886200  1
  H  H3  1  0.05583500  0.22697400  0.26730900  1
  H  H4  1  0.06493400  0.31050600  0.37296600  1
  H  H5  1  0.07701400  0.86814600  0.63737400  1
  H  H6  1  0.07242200  0.52718900  0.19484900  1
  H  H7  1  0.12703400  0.93506600  0.81050600  1
  H  H8  1  0.13737400  0.42298600  0.13185400  1
  H  H9  1  0.13185400  0.13737400  0.42298600  1
  H  H10  1  0.15652900  0.48427200  0.74803000  1
  H  H11  1  0.16505600  0.75886200  0.03741800  1
  H  H12  1  0.18949400  0.62703400  0.56493400  1
  H  H13  1  0.19484900  0.07242200  0.52718900  1
  H  H14  1  0.22697400  0.26730900  0.05583500  1
  H  H15  1  0.23269100  0.94416500  0.72697400  1
  H  H16  1  0.24113800  0.53741800  0.33494400  1
  H  H17  1  0.24803000  0.34347100  0.51572800  1
  H  H18  1  0.25197000  0.65652900  0.01572800  1
  H  H19  1  0.25886200  0.46258200  0.83494400  1
  H  H20  1  0.26730900  0.05583500  0.22697400  1
  H  H21  1  0.27302600  0.73269100  0.55583500  1
  H  H22  1  0.30515100  0.92757800  0.02718900  1
  H  H23  1  0.31050600  0.37296600  0.06493400  1
  H  H24  1  0.33494400  0.24113800  0.53741800  1
  H  H25  1  0.34347100  0.51572800  0.24803000  1
  H  H26  1  0.36814600  0.86262600  0.92298600  1
  H  H27  1  0.36262600  0.57701400  0.63185400  1
  H  H28  1  0.37296600  0.06493400  0.31050600  1
  H  H29  1  0.42757800  0.47281100  0.69484900  1
  H  H30  1  0.42298600  0.13185400  0.13737400  1
  H  H31  1  0.43506600  0.68949400  0.87296600  1
  H  H32  1  0.44416500  0.77302600  0.76730900  1
  H  H33  1  0.46258200  0.83494400  0.25886200  1
  H  H34  1  0.47281100  0.69484900  0.42757800  1
  H  H35  1  0.48427200  0.74803000  0.15652900  1
  H  H36  1  0.51572800  0.24803000  0.34347100  1
  H  H37  1  0.52718900  0.19484900  0.07242200  1
  H  H38  1  0.53741800  0.33494400  0.24113800  1
  H  H39  1  0.55583500  0.27302600  0.73269100  1
  H  H40  1  0.56493400  0.18949400  0.62703400  1
  H  H41  1  0.57701400  0.63185400  0.36262600  1
  H  H42  1  0.57242200  0.97281100  0.80515100  1
  H  H43  1  0.62703400  0.56493400  0.18949400  1
  H  H44  1  0.63737400  0.07701400  0.86814600  1
  H  H45  1  0.63185400  0.36262600  0.57701400  1
  H  H46  1  0.65652900  0.01572800  0.25197000  1
  H  H47  1  0.66505600  0.74113800  0.96258200  1
  H  H48  1  0.68949400  0.87296600  0.43506600  1
  H  H49  1  0.69484900  0.42757800  0.47281100  1
  H  H50  1  0.72697400  0.23269100  0.94416500  1
  H  H51  1  0.73269100  0.55583500  0.27302600  1
  H  H52  1  0.74113800  0.96258200  0.66505600  1
  H  H53  1  0.74803000  0.15652900  0.48427200  1
  H  H54  1  0.75197000  0.84347100  0.98427200  1
  H  H55  1  0.75886200  0.03741800  0.16505600  1
  H  H56  1  0.76730900  0.44416500  0.77302600  1
  H  H57  1  0.77302600  0.76730900  0.44416500  1
  H  H58  1  0.80515100  0.57242200  0.97281100  1
  H  H59  1  0.81050600  0.12703400  0.93506600  1
  H  H60  1  0.83494400  0.25886200  0.46258200  1
  H  H61  1  0.84347100  0.98427200  0.75197000  1
  H  H62  1  0.86814600  0.63737400  0.07701400  1
  H  H63  1  0.86262600  0.92298600  0.36814600  1
  H  H64  1  0.87296600  0.43506600  0.68949400  1
  H  H65  1  0.92757800  0.02718900  0.30515100  1
  H  H66  1  0.92298600  0.36814600  0.86262600  1
  H  H67  1  0.93506600  0.81050600  0.12703400  1
  H  H68  1  0.94416500  0.72697400  0.23269100  1
  H  H69  1  0.96258200  0.66505600  0.74113800  1
  H  H70  1  0.97281100  0.80515100  0.57242200  1
  H  H71  1  0.98427200  0.75197000  0.84347100  1
  S  S0  1  0.08015300  0.41984700  0.58015300  1
  S  S1  1  0.08259400  0.65551400  0.34516100  1
  S  S2  1  0.15483900  0.91740600  0.15551400  1
  S  S3  1  0.15551400  0.15483900  0.91740600  1
  S  S4  1  0.34448600  0.84516100  0.41740600  1
  S  S5  1  0.34516100  0.08259400  0.65551400  1
  S  S6  1  0.41740600  0.34448600  0.84516100  1
  S  S7  1  0.41984700  0.58015300  0.08015300  1
  S  S8  1  0.58015300  0.08015300  0.41984700  1
  S  S9  1  0.58259400  0.84448600  0.65483900  1
  S  S10  1  0.65483900  0.58259400  0.84448600  1
  S  S11  1  0.65551400  0.34516100  0.08259400  1
  S  S12  1  0.84448600  0.65483900  0.58259400  1
  S  S13  1  0.84516100  0.41740600  0.34448600  1
  S  S14  1  0.91740600  0.15551400  0.15483900  1
  S  S15  1  0.91984700  0.91984700  0.91984700  1
  O  O0  1  0.01370900  0.67929700  0.80852100  1
  O  O1  1  0.02581600  0.87242500  0.56818500  1
  O  O2  1  0.06818500  0.47418400  0.12757500  1
  O  O3  1  0.11119400  0.25565400  0.32707100  1
  O  O4  1  0.12757500  0.06818500  0.47418400  1
  O  O5  1  0.17292900  0.88880600  0.75565400  1
  O  O6  1  0.17929700  0.69147900  0.98629100  1
  O  O7  1  0.19147900  0.51370900  0.82070300  1
  O  O8  1  0.24434600  0.67292900  0.61119400  1
  O  O9  1  0.25565400  0.32707100  0.11119400  1
  O  O10  1  0.30852100  0.48629100  0.32070300  1
  O  O11  1  0.32070300  0.30852100  0.48629100  1
  O  O12  1  0.32707100  0.11119400  0.25565400  1
  O  O13  1  0.37242500  0.93181500  0.97418400  1
  O  O14  1  0.38880600  0.74434600  0.82707100  1
  O  O15  1  0.43181500  0.52581600  0.62757500  1
  O  O16  1  0.47418400  0.12757500  0.06818500  1
  O  O17  1  0.48629100  0.32070300  0.30852100  1
  O  O18  1  0.51370900  0.82070300  0.19147900  1
  O  O19  1  0.52581600  0.62757500  0.43181500  1
  O  O20  1  0.56818500  0.02581600  0.87242500  1
  O  O21  1  0.61119400  0.24434600  0.67292900  1
  O  O22  1  0.62757500  0.43181500  0.52581600  1
  O  O23  1  0.67292900  0.61119400  0.24434600  1
  O  O24  1  0.67929700  0.80852100  0.01370900  1
  O  O25  1  0.69147900  0.98629100  0.17929700  1
  O  O26  1  0.74434600  0.82707100  0.38880600  1
  O  O27  1  0.75565400  0.17292900  0.88880600  1
  O  O28  1  0.80852100  0.01370900  0.67929700  1
  O  O29  1  0.82070300  0.19147900  0.51370900  1
  O  O30  1  0.82707100  0.38880600  0.74434600  1
  O  O31  1  0.87242500  0.56818500  0.02581600  1
  O  O32  1  0.88880600  0.75565400  0.17292900  1
  O  O33  1  0.93181500  0.97418400  0.37242500  1
  O  O34  1  0.97418400  0.37242500  0.93181500  1
  O  O35  1  0.98629100  0.17929700  0.69147900  1
loop_
_geom_bond_atom_site_label_1
_geom_bond_atom_site_label_2
_geom_bond_distance
_geom_bond_site_symmetry_2
Li0 O34 2.234332 1_455
Li0 O31 2.234332 1_456
Li0 O2 2.234332 1_556
Li0 O7 2.254668 1_555
Li0 O6 2.254668 1_555
Li0 O0 2.254668 1_555
Li1 O33 2.022954 1_455
Li1 O1 2.022954 1_555
Li1 O4 2.022954 1_565
Li2 O8 2.199025 1_555
Li2 O14 2.199025 1_555
Li2 O5 2.199025 1_555
Li2 O7 2.234488 1_555
Li2 O6 2.234488 1_555
Li2 O0 2.234488 1_555
Li3 O9 2.199025 1_555
Li3 O3 2.199025 1_555
Li3 O12 2.199025 1_555
Li3 O10 2.234488 1_555
Li3 O17 2.234488 1_555
Li3 O11 2.234488 1_555
Li4 O13 2.022954 1_545
Li4 O20 2.022954 1_555
Li4 O16 2.022954 1_556
Li5 O15 2.234332 1_555
Li5 O22 2.234332 1_555
Li5 O19 2.234332 1_555
Li5 O10 2.254668 1_555
Li5 O17 2.254668 1_555
Li5 O11 2.254668 1_555
Li6 O13 2.234332 1_554
Li6 O20 2.234332 1_564
Li6 O16 2.234332 1_565
Li6 O18 2.254668 1_555
Li6 O25 2.254668 1_555
Li6 O24 2.254668 1_555
Li7 O22 2.022954 1_555
Li7 O19 2.022954 1_555
Li7 O15 2.022954 1_555
Li8 O23 2.199025 1_555
Li8 O26 2.199025 1_555
Li8 O32 2.199025 1_555
Li8 O18 2.234488 1_555
Li8 O25 2.234488 1_555
Li8 O24 2.234488 1_555
Li9 O21 2.199025 1_555
Li9 O30 2.199025 1_555
Li9 O27 2.199025 1_555
Li9 O35 2.234488 1_555
Li9 O29 2.234488 1_555
Li9 O28 2.234488 1_555
Li10 O34 2.022954 1_554
Li10 O31 2.022954 1_555
Li10 O2 2.022954 1_655
Li11 O33 2.234332 1_545
Li11 O1 2.234332 1_645
Li11 O4 2.234332 1_655
Li11 O29 2.254668 1_555
Li11 O35 2.254668 1_555
Li11 O28 2.254668 1_555
H0 O35 0.990636 1_455
H1 O34 0.989551 1_455
H2 O35 0.989819 1_455
H3 O3 0.996617 1_555
H4 O3 0.982922 1_555
H5 O1 0.994477 1_555
H6 O2 0.989551 1_555
H7 O5 0.982922 1_555
H8 O2 0.994477 1_555
H9 O4 0.994477 1_555
H10 O7 0.990636 1_555
H11 O6 0.989819 1_554
H12 O8 0.982922 1_555
H13 O4 0.989551 1_555
H14 O9 0.996617 1_555
H15 O5 0.996617 1_555
H16 O10 0.989819 1_555
H17 O11 0.990636 1_555
H18 O6 0.990636 1_554
H19 O7 0.989819 1_555
H20 O12 0.996617 1_555
H21 O8 0.996617 1_555
H22 O13 0.989551 1_554
H23 O9 0.982922 1_555
H24 O11 0.989819 1_555
H25 O10 0.990636 1_555
H26 O13 0.994477 1_555
H27 O15 0.994477 1_555
H28 O12 0.982922 1_555
H29 O15 0.989551 1_555
H30 O16 0.994477 1_555
H31 O14 0.982922 1_555
H32 O14 0.996617 1_555
H33 O18 0.989819 1_555
H34 O19 0.989551 1_555
H35 O18 0.990636 1_555
H36 O17 0.990636 1_555
H37 O16 0.989551 1_555
H38 O17 0.989819 1_555
H39 O21 0.996617 1_555
H40 O21 0.982922 1_555
H41 O19 0.994477 1_555
H42 O20 0.989551 1_565
H43 O23 0.982922 1_555
H44 O20 0.994477 1_555
H45 O22 0.994477 1_555
H46 O25 0.990636 1_545
H47 O24 0.989819 1_556
H48 O26 0.982922 1_555
H49 O22 0.989551 1_555
H50 O27 0.996617 1_555
H51 O23 0.996617 1_555
H52 O28 0.989819 1_565
H53 O29 0.990636 1_555
H54 O24 0.990636 1_556
H55 O25 0.989819 1_545
H56 O30 0.996617 1_555
H57 O26 0.996617 1_555
H58 O31 0.989551 1_556
H59 O27 0.982922 1_555
H60 O29 0.989819 1_555
H61 O28 0.990636 1_565
H62 O31 0.994477 1_555
H63 O33 0.994477 1_555
H64 O30 0.982922 1_555
H65 O33 0.989551 1_545
H66 O34 0.994477 1_555
H67 O32 0.982922 1_555
H68 O32 0.996617 1_555
H69 O0 0.989819 1_655
H70 O1 0.989551 1_655
H71 O0 0.990636 1_655
S0 Sb3 2.369039 1_455
S1 Sb3 2.362682 1_455
S2 Sb0 2.362682 1_565
S3 Sb0 2.362682 1_556
S4 Sb1 2.362682 1_555
S5 Sb1 2.362682 1_545
S6 Sb2 2.362682 1_555
S7 Sb2 2.369039 1_554
S8 Sb1 2.369039 1_545
S9 Sb1 2.362682 1_555
S10 Sb2 2.362682 1_555
S11 Sb2 2.362682 1_554
S12 Sb3 2.362682 1_555
S13 Sb3 2.362682 1_555
S14 Sb0 2.362682 1_655
S15 Sb0 2.369039 1_666
