# generated using pymatgen
data_Ti3(SnO5)2
_symmetry_space_group_name_H-M   'P 1'
_cell_length_a   4.72613942
_cell_length_b   4.72613942
_cell_length_c   15.43283900
_cell_angle_alpha   90.00000000
_cell_angle_beta   90.00000000
_cell_angle_gamma   90.04258755
_symmetry_Int_Tables_number   1
_chemical_formula_structural   Ti3(SnO5)2
_chemical_formula_sum   'Ti6 Sn4 O20'
_cell_volume   344.71387400
_cell_formula_units_Z   2
loop_
 _symmetry_equiv_pos_site_id
 _symmetry_equiv_pos_as_xyz
  1  'x, y, z'
loop_
 _atom_site_type_symbol
 _atom_site_label
 _atom_site_symmetry_multiplicity
 _atom_site_fract_x
 _atom_site_fract_y
 _atom_site_fract_z
 _atom_site_occupancy
  Ti  Ti0  1  0.00000000  0.00000000  0.80765500  1
  Ti  Ti1  1  0.00000000  0.00000000  0.99926900  1
  Ti  Ti2  1  0.00000000  0.00000000  0.39918100  1
  Ti  Ti3  1  0.00000000  0.00000000  0.19964500  1
  Ti  Ti4  1  0.50000000  0.50000000  0.49732100  1
  Ti  Ti5  1  0.50000000  0.50000000  0.89942300  1
  Sn  Sn0  1  0.00000000  0.00000000  0.59840900  1
  Sn  Sn1  1  0.50000000  0.50000000  0.30137600  1
  Sn  Sn2  1  0.50000000  0.50000000  0.70243000  1
  Sn  Sn3  1  0.50000000  0.50000000  0.09741000  1
  O  O0  1  0.80061400  0.19938600  0.49325800  1
  O  O1  1  0.80690600  0.19309400  0.90096200  1
  O  O2  1  0.80954000  0.19046000  0.70584500  1
  O  O3  1  0.81337500  0.18662500  0.29923000  1
  O  O4  1  0.81376100  0.18623900  0.09859300  1
  O  O5  1  0.30016500  0.30016500  0.99428700  1
  O  O6  1  0.30132500  0.30132500  0.80760500  1
  O  O7  1  0.29661000  0.29661000  0.19948400  1
  O  O8  1  0.30949100  0.30949100  0.59548800  1
  O  O9  1  0.29980500  0.29980500  0.40418900  1
  O  O10  1  0.69983500  0.69983500  0.99428700  1
  O  O11  1  0.69867500  0.69867500  0.80760500  1
  O  O12  1  0.69050900  0.69050900  0.59548800  1
  O  O13  1  0.70019500  0.70019500  0.40418900  1
  O  O14  1  0.70339000  0.70339000  0.19948400  1
  O  O15  1  0.19309400  0.80690600  0.90096200  1
  O  O16  1  0.19938600  0.80061400  0.49325800  1
  O  O17  1  0.19046000  0.80954000  0.70584500  1
  O  O18  1  0.18662500  0.81337500  0.29923000  1
  O  O19  1  0.18623900  0.81376100  0.09859300  1
loop_
_geom_bond_atom_site_label_1
_geom_bond_atom_site_label_2
_geom_bond_distance
_geom_bond_site_symmetry_2
O0 Ti2 1.971096 1_655
O0 Ti4 2.010959 1_555
O0 Sn0 2.100163 1_655
O1 Ti0 1.934025 1_655
O1 Ti1 1.992144 1_655
O1 Ti5 2.052189 1_555
O2 Ti0 2.022482 1_655
O2 Sn2 2.070334 1_555
O2 Sn0 2.090649 1_655
O3 Ti3 1.979661 1_655
O3 Ti2 1.984049 1_655
O3 Sn1 2.095567 1_555
O4 Ti1 1.974907 1_654
O4 Ti3 1.995677 1_655
O4 Sn3 2.097965 1_555
O5 Ti5 1.981412 1_555
O5 Ti1 2.006962 1_555
O5 Sn3 2.077366 1_556
O6 Ti5 1.941630 1_555
O6 Ti0 2.013239 1_555
O6 Sn2 2.096811 1_555
O7 Ti3 1.981738 1_555
O7 Sn1 2.078300 1_555
O7 Sn3 2.080426 1_555
O8 Ti4 1.978723 1_555
O8 Sn0 2.068289 1_555
O8 Sn2 2.084230 1_555
O9 Ti4 1.963383 1_555
O9 Ti2 2.004573 1_555
O9 Sn1 2.075252 1_555
O10 Ti5 1.981412 1_555
O10 Ti1 2.006962 1_665
O10 Sn3 2.077366 1_556
O11 Ti5 1.941630 1_555
O11 Ti0 2.013239 1_665
O11 Sn2 2.096811 1_555
O12 Ti4 1.978723 1_555
O12 Sn0 2.068289 1_665
O12 Sn2 2.084230 1_555
O13 Ti4 1.963383 1_555
O13 Ti2 2.004573 1_665
O13 Sn1 2.075252 1_555
O14 Ti3 1.981738 1_665
O14 Sn1 2.078300 1_555
O14 Sn3 2.080426 1_555
O15 Ti0 1.934025 1_565
O15 Ti1 1.992144 1_565
O15 Ti5 2.052189 1_555
O16 Ti2 1.971096 1_565
O16 Ti4 2.010959 1_555
O16 Sn0 2.100163 1_565
O17 Ti0 2.022482 1_565
O17 Sn2 2.070334 1_555
O17 Sn0 2.090649 1_565
O18 Ti3 1.979661 1_565
O18 Ti2 1.984049 1_565
O18 Sn1 2.095567 1_555
O19 Ti1 1.974907 1_564
O19 Ti3 1.995677 1_565
O19 Sn3 2.097965 1_555
