# generated using pymatgen
data_LiSi2BiO6
_symmetry_space_group_name_H-M   'P 1'
_cell_length_a   7.11089480
_cell_length_b   7.11089480
_cell_length_c   5.52821005
_cell_angle_alpha   75.72488072
_cell_angle_beta   75.72488072
_cell_angle_gamma   88.13358010
_symmetry_Int_Tables_number   1
_chemical_formula_structural   LiSi2BiO6
_chemical_formula_sum   'Li2 Si4 Bi2 O12'
_cell_volume   262.41850939
_cell_formula_units_Z   2
loop_
 _symmetry_equiv_pos_site_id
 _symmetry_equiv_pos_as_xyz
  1  'x, y, z'
loop_
 _atom_site_type_symbol
 _atom_site_label
 _atom_site_symmetry_multiplicity
 _atom_site_fract_x
 _atom_site_fract_y
 _atom_site_fract_z
 _atom_site_occupancy
  Li  Li0  1  0.23900800  0.76099200  0.25000000  1
  Li  Li1  1  0.76099200  0.23900800  0.75000000  1
  Si  Si0  1  0.77644800  0.61653700  0.29322800  1
  Si  Si1  1  0.61653700  0.77644800  0.79322800  1
  Si  Si2  1  0.38346300  0.22355200  0.20677200  1
  Si  Si3  1  0.22355200  0.38346300  0.70677200  1
  Bi  Bi0  1  0.87550300  0.12449700  0.25000000  1
  Bi  Bi1  1  0.12449700  0.87550300  0.75000000  1
  O  O0  1  0.96217100  0.77235900  0.18895700  1
  O  O1  1  0.77235900  0.96217100  0.68895700  1
  O  O2  1  0.83352900  0.39239200  0.39322900  1
  O  O3  1  0.67498200  0.63129700  0.04806300  1
  O  O4  1  0.39239200  0.83352900  0.89322900  1
  O  O5  1  0.63129700  0.67498200  0.54806300  1
  O  O6  1  0.36870300  0.32501800  0.45193700  1
  O  O7  1  0.60760800  0.16647100  0.10677100  1
  O  O8  1  0.32501800  0.36870300  0.95193700  1
  O  O9  1  0.16647100  0.60760800  0.60677100  1
  O  O10  1  0.22764100  0.03782900  0.31104300  1
  O  O11  1  0.03782900  0.22764100  0.81104300  1
loop_
_geom_bond_atom_site_label_1
_geom_bond_atom_site_label_2
_geom_bond_distance
_geom_bond_site_symmetry_2
Li0 O4 1.954415 1_554
Li0 O9 1.954415 1_555
Li0 O10 2.073506 1_565
Li0 O0 2.073506 1_455
Li1 O2 1.954415 1_555
Li1 O7 1.954415 1_556
Li1 O11 2.073506 1_655
Li1 O1 2.073506 1_545
Bi0 O2 2.221537 1_555
Bi0 O7 2.221537 1_555
Bi0 O1 2.356904 1_545
Bi0 O11 2.356904 1_654
Bi0 O10 2.641481 1_655
Bi0 O0 2.641481 1_545
Bi1 O4 2.221537 1_555
Bi1 O9 2.221537 1_555
Bi1 O0 2.356904 1_456
Bi1 O10 2.356904 1_565
Bi1 O11 2.641481 1_565
Bi1 O1 2.641481 1_455
O0 Si0 1.645922 1_555
O1 Si1 1.645922 1_555
O2 Si0 1.626277 1_555
O3 Si1 1.663259 1_554
O3 Si0 1.666033 1_555
O4 Si1 1.626277 1_555
O5 Si0 1.663259 1_555
O5 Si1 1.666033 1_555
O6 Si3 1.663259 1_555
O6 Si2 1.666033 1_555
O7 Si2 1.626277 1_555
O8 Si2 1.663259 1_556
O8 Si3 1.666033 1_555
O9 Si3 1.626277 1_555
O10 Si2 1.645922 1_555
O11 Si3 1.645922 1_555
