# generated using pymatgen
data_Mn2SnC10BrO10
_symmetry_space_group_name_H-M   'P 1'
_cell_length_a   12.60528800
_cell_length_b   16.79421200
_cell_length_c   17.40415025
_cell_angle_alpha   71.89535287
_cell_angle_beta   90.00000000
_cell_angle_gamma   90.00000000
_symmetry_Int_Tables_number   1
_chemical_formula_structural   Mn2SnC10BrO10
_chemical_formula_sum   'Mn16 Sn8 C80 Br8 O80'
_cell_volume   3501.97484433
_cell_formula_units_Z   8
loop_
 _symmetry_equiv_pos_site_id
 _symmetry_equiv_pos_as_xyz
  1  'x, y, z'
loop_
 _atom_site_type_symbol
 _atom_site_label
 _atom_site_symmetry_multiplicity
 _atom_site_fract_x
 _atom_site_fract_y
 _atom_site_fract_z
 _atom_site_occupancy
  Mn  Mn0  1  0.17174800  0.60569000  0.33952600  1
  Mn  Mn1  1  0.94341800  0.91822500  0.33722300  1
  Mn  Mn2  1  0.44341800  0.08177500  0.16277700  1
  Mn  Mn3  1  0.82825200  0.39431000  0.66047400  1
  Mn  Mn4  1  0.32825200  0.60569000  0.83952600  1
  Mn  Mn5  1  0.16160900  0.81263100  0.07803900  1
  Mn  Mn6  1  0.69787700  0.70530600  0.32043900  1
  Mn  Mn7  1  0.80212300  0.70530600  0.82043900  1
  Mn  Mn8  1  0.33839100  0.81263100  0.57803900  1
  Mn  Mn9  1  0.19787700  0.29469400  0.17956100  1
  Mn  Mn10  1  0.83839100  0.18736900  0.92196100  1
  Mn  Mn11  1  0.30212300  0.29469400  0.67956100  1
  Mn  Mn12  1  0.55658200  0.91822500  0.83722300  1
  Mn  Mn13  1  0.67174800  0.39431000  0.16047400  1
  Mn  Mn14  1  0.05658200  0.08177500  0.66277700  1
  Mn  Mn15  1  0.66160900  0.18736900  0.42196100  1
  Sn  Sn0  1  0.62338000  0.80013700  0.76495700  1
  Sn  Sn1  1  0.05509100  0.71431000  0.21304100  1
  Sn  Sn2  1  0.87662000  0.80013700  0.26495700  1
  Sn  Sn3  1  0.12338000  0.19986300  0.73504300  1
  Sn  Sn4  1  0.94490900  0.28569000  0.78695900  1
  Sn  Sn5  1  0.44490900  0.71431000  0.71304100  1
  Sn  Sn6  1  0.37662000  0.19986300  0.23504300  1
  Sn  Sn7  1  0.55509100  0.28569000  0.28695900  1
  C  C0  1  0.05453400  0.60654100  0.40390500  1
  C  C1  1  0.40176300  0.90913200  0.58898900  1
  C  C2  1  0.17039200  0.29133800  0.28622400  1
  C  C3  1  0.19205200  0.08816300  0.61968900  1
  C  C4  1  0.51494700  0.99774600  0.88227900  1
  C  C5  1  0.79280500  0.29022800  0.92854500  1
  C  C6  1  0.75391300  0.46580100  0.57768700  1
  C  C7  1  0.28165000  0.61357900  0.26609200  1
  C  C8  1  0.32960800  0.29133800  0.78622400  1
  C  C9  1  0.70719500  0.29022800  0.42854500  1
  C  C10  1  0.45456700  0.80270100  0.51471700  1
  C  C11  1  0.74608700  0.46580100  0.07768700  1
  C  C12  1  0.51467700  0.82906900  0.92584400  1
  C  C13  1  0.61085300  0.47930300  0.19394900  1
  C  C14  1  0.71835000  0.38642100  0.73390800  1
  C  C15  1  0.63580200  0.81050100  0.29498300  1
  C  C16  1  0.26886400  0.81204700  0.15107700  1
  C  C17  1  0.73113600  0.18795300  0.84892300  1
  C  C18  1  0.59927400  0.99945400  0.74212900  1
  C  C19  1  0.40072600  0.00054600  0.25787100  1
  C  C20  1  0.44546600  0.60654100  0.90390500  1
  C  C21  1  0.38914700  0.52069700  0.80605100  1
  C  C22  1  0.59823700  0.09086800  0.41101100  1
  C  C23  1  0.86419800  0.81050100  0.79498300  1
  C  C24  1  0.82960800  0.70866200  0.71377600  1
  C  C25  1  0.77578200  0.30016800  0.63924800  1
  C  C26  1  0.80794800  0.91183700  0.38031100  1
  C  C27  1  0.21835000  0.61357900  0.76609200  1
  C  C28  1  0.98532300  0.82906900  0.42584400  1
  C  C29  1  0.29280500  0.70977200  0.57145500  1
  C  C30  1  0.77441600  0.60651200  0.33613100  1
  C  C31  1  0.90072600  0.99945400  0.24212900  1
  C  C32  1  0.23113600  0.81204700  0.65107700  1
  C  C33  1  0.74163700  0.12632600  0.50657200  1
  C  C34  1  0.11085300  0.52069700  0.30605100  1
  C  C35  1  0.25391300  0.53419900  0.92231300  1
  C  C36  1  0.27441600  0.39348800  0.16386900  1
  C  C37  1  0.22558400  0.39348800  0.66386900  1
  C  C38  1  0.04543300  0.80270100  0.01471700  1
  C  C39  1  0.57353700  0.08548500  0.21090400  1
  C  C40  1  0.22421800  0.69983200  0.36075200  1
  C  C41  1  0.42506100  0.34936900  0.64025300  1
  C  C42  1  0.95456700  0.19729900  0.98528300  1
  C  C43  1  0.09823700  0.90913200  0.08898900  1
  C  C44  1  0.88914700  0.47930300  0.69394900  1
  C  C45  1  0.48505300  0.00225400  0.11772100  1
  C  C46  1  0.75836300  0.12632600  0.00657200  1
  C  C47  1  0.75939200  0.70843300  0.92174400  1
  C  C48  1  0.07353700  0.91451500  0.28909600  1
  C  C49  1  0.78165000  0.38642100  0.23390800  1
  C  C50  1  0.25939200  0.29156700  0.57825600  1
  C  C51  1  0.09927400  0.00054600  0.75787100  1
  C  C52  1  0.57493900  0.65063100  0.35974700  1
  C  C53  1  0.90176300  0.09086800  0.91101100  1
  C  C54  1  0.54543300  0.19729900  0.48528300  1
  C  C55  1  0.76886400  0.18795300  0.34892300  1
  C  C56  1  0.24060800  0.29156700  0.07825600  1
  C  C57  1  0.07493900  0.34936900  0.14025300  1
  C  C58  1  0.55453400  0.39345900  0.09609500  1
  C  C59  1  0.42646300  0.91451500  0.78909600  1
  C  C60  1  0.13580200  0.18949900  0.20501700  1
  C  C61  1  0.69205200  0.91183700  0.88031100  1
  C  C62  1  0.36419800  0.18949900  0.70501700  1
  C  C63  1  0.67039200  0.70866200  0.21377600  1
  C  C64  1  0.24608700  0.53419900  0.42231300  1
  C  C65  1  0.72421800  0.30016800  0.13924800  1
  C  C66  1  0.92646300  0.08548500  0.71090400  1
  C  C67  1  0.24163700  0.87367400  0.99342800  1
  C  C68  1  0.72558400  0.60651200  0.83613100  1
  C  C69  1  0.94546600  0.39345900  0.59609500  1
  C  C70  1  0.01467700  0.17093100  0.57415600  1
  C  C71  1  0.27578200  0.69983200  0.86075200  1
  C  C72  1  0.20719500  0.70977200  0.07145500  1
  C  C73  1  0.98505300  0.99774600  0.38227900  1
  C  C74  1  0.25836300  0.87367400  0.49342800  1
  C  C75  1  0.92506100  0.65063100  0.85974700  1
  C  C76  1  0.30794800  0.08816300  0.11968900  1
  C  C77  1  0.01494700  0.00225400  0.61772100  1
  C  C78  1  0.48532300  0.17093100  0.07415600  1
  C  C79  1  0.74060800  0.70843300  0.42174400  1
  Br  Br0  1  0.81773200  0.88230400  0.11906200  1
  Br  Br1  1  0.93822500  0.62135800  0.15228400  1
  Br  Br2  1  0.31773200  0.11769600  0.38093800  1
  Br  Br3  1  0.43822500  0.37864200  0.34771600  1
  Br  Br4  1  0.18226800  0.11769600  0.88093800  1
  Br  Br5  1  0.56177500  0.62135800  0.65228400  1
  Br  Br6  1  0.06177500  0.37864200  0.84771600  1
  Br  Br7  1  0.68226800  0.88230400  0.61906200  1
  O  O0  1  0.00391200  0.61764700  0.88561600  1
  O  O1  1  0.72539600  0.90930500  0.41005100  1
  O  O2  1  0.90590200  0.87513400  0.77717400  1
  O  O3  1  0.22539600  0.09069500  0.08994900  1
  O  O4  1  0.48617800  0.77548200  0.98176700  1
  O  O5  1  0.62100500  0.05308400  0.68443300  1
  O  O6  1  0.70363400  0.08712000  0.05785600  1
  O  O7  1  0.01675400  0.39398600  0.55382800  1
  O  O8  1  0.49024600  0.04930700  0.91008300  1
  O  O9  1  0.23451200  0.64679100  0.06391900  1
  O  O10  1  0.64734000  0.38219900  0.77706900  1
  O  O11  1  0.42366700  0.46607200  0.78679400  1
  O  O12  1  0.98617800  0.22451800  0.51823300  1
  O  O13  1  0.59409800  0.87513400  0.27717400  1
  O  O14  1  0.81811500  0.54338400  0.34716500  1
  O  O15  1  0.37899500  0.94691600  0.31556700  1
  O  O16  1  0.40590200  0.12486600  0.72282600  1
  O  O17  1  0.12100500  0.94691600  0.81556700  1
  O  O18  1  0.35266000  0.61780100  0.22293100  1
  O  O19  1  0.76548800  0.35320900  0.93608100  1
  O  O20  1  0.68188500  0.54338400  0.84716500  1
  O  O21  1  0.75877800  0.24328200  0.12332300  1
  O  O22  1  0.09409800  0.12486600  0.22282600  1
  O  O23  1  0.26678200  0.29069100  0.01486200  1
  O  O24  1  0.64769800  0.71065200  0.14902800  1
  O  O25  1  0.65571300  0.08585600  0.24066200  1
  O  O26  1  0.18188500  0.45661600  0.65283500  1
  O  O27  1  0.26548800  0.64679100  0.56391900  1
  O  O28  1  0.14734000  0.61780100  0.72293100  1
  O  O29  1  0.97759600  0.79729300  0.97209300  1
  O  O30  1  0.92366700  0.53392800  0.71320600  1
  O  O31  1  0.16095300  0.81068700  0.69457200  1
  O  O32  1  0.20363400  0.91288000  0.44214400  1
  O  O33  1  0.93901300  0.02882200  0.90864500  1
  O  O34  1  0.98324600  0.60601400  0.44617200  1
  O  O35  1  0.51675400  0.60601400  0.94617200  1
  O  O36  1  0.52240400  0.79729300  0.47209300  1
  O  O37  1  0.70622800  0.51036200  0.52480600  1
  O  O38  1  0.73451200  0.35320900  0.43608100  1
  O  O39  1  0.50975400  0.95069300  0.08991700  1
  O  O40  1  0.07633300  0.46607200  0.28679400  1
  O  O41  1  0.99608800  0.38235300  0.11438400  1
  O  O42  1  0.74122200  0.24328200  0.62332300  1
  O  O43  1  0.31811500  0.45661600  0.15283500  1
  O  O44  1  0.20622800  0.48963800  0.97519400  1
  O  O45  1  0.14769800  0.28934800  0.35097200  1
  O  O46  1  0.00975400  0.04930700  0.41008300  1
  O  O47  1  0.29636600  0.91288000  0.94214400  1
  O  O48  1  0.50391200  0.38235300  0.61438400  1
  O  O49  1  0.99024600  0.95069300  0.58991700  1
  O  O50  1  0.87899500  0.05308400  0.18443300  1
  O  O51  1  0.85266000  0.38219900  0.27706900  1
  O  O52  1  0.79636600  0.08712000  0.55785600  1
  O  O53  1  0.48324600  0.39398600  0.05382800  1
  O  O54  1  0.34428700  0.91414400  0.75933800  1
  O  O55  1  0.24122200  0.75671800  0.87667700  1
  O  O56  1  0.43901300  0.97117800  0.59135500  1
  O  O57  1  0.57633300  0.53392800  0.21320600  1
  O  O58  1  0.73321800  0.70930900  0.98513800  1
  O  O59  1  0.51382200  0.22451800  0.01823300  1
  O  O60  1  0.35230200  0.28934800  0.85097200  1
  O  O61  1  0.79377200  0.51036200  0.02480600  1
  O  O62  1  0.84428700  0.08585600  0.74066200  1
  O  O63  1  0.49608800  0.61764700  0.38561600  1
  O  O64  1  0.02240400  0.20270700  0.02790700  1
  O  O65  1  0.56098700  0.02882200  0.40864500  1
  O  O66  1  0.27460400  0.09069500  0.58994900  1
  O  O67  1  0.47759600  0.20270700  0.52790700  1
  O  O68  1  0.23321800  0.29069100  0.51486200  1
  O  O69  1  0.25877800  0.75671800  0.37667700  1
  O  O70  1  0.66095300  0.18931300  0.80542800  1
  O  O71  1  0.33904700  0.81068700  0.19457200  1
  O  O72  1  0.01382200  0.77548200  0.48176700  1
  O  O73  1  0.15571300  0.91414400  0.25933800  1
  O  O74  1  0.77460400  0.90930500  0.91005100  1
  O  O75  1  0.85230200  0.71065200  0.64902800  1
  O  O76  1  0.06098700  0.97117800  0.09135500  1
  O  O77  1  0.76678200  0.70930900  0.48513800  1
  O  O78  1  0.29377200  0.48963800  0.47519400  1
  O  O79  1  0.83904700  0.18931300  0.30542800  1
loop_
_geom_bond_atom_site_label_1
_geom_bond_atom_site_label_2
_geom_bond_distance
_geom_bond_site_symmetry_2
C0 O34 1.159596 1_455
C0 Mn0 1.857053 1_555
C1 O56 1.155262 1_555
C1 Mn8 1.868937 1_555
C2 O45 1.153001 1_555
C2 Mn9 1.871984 1_555
C3 O66 1.157095 1_555
C3 Mn14 1.854697 1_555
C4 O8 1.158174 1_565
C4 Mn12 1.823391 1_555
C5 O19 1.157910 1_555
C5 Mn10 1.857521 1_555
C6 O37 1.157725 1_555
C6 Mn3 1.822216 1_555
C7 O18 1.156462 1_555
C7 Mn0 1.861431 1_555
C8 O60 1.153001 1_555
C8 Mn11 1.871984 1_555
C9 O38 1.157910 1_555
C9 Mn15 1.857521 1_555
C10 O36 1.153970 1_555
C10 Mn8 1.871135 1_555
C11 O61 1.157725 1_555
C11 Mn13 1.822216 1_555
C12 O4 1.158393 1_555
C12 Mn12 1.861330 1_555
C13 O57 1.155142 1_555
C13 Mn13 1.866260 1_555
C14 O10 1.156462 1_555
C14 Mn3 1.861431 1_555
C15 O13 1.158251 1_555
C15 Mn6 1.855588 1_555
C16 O71 1.159943 1_555
C16 Mn5 1.853660 1_555
C17 O70 1.159943 1_555
C17 Mn10 1.853660 1_555
C18 O5 1.154325 1_565
C18 Mn12 1.867216 1_555
C19 O15 1.154325 1_545
C19 Mn2 1.867216 1_555
C20 O35 1.159596 1_555
C20 Mn4 1.857053 1_555
C21 O11 1.155142 1_555
C21 Mn4 1.866260 1_555
C22 O65 1.155262 1_555
C22 Mn15 1.868937 1_555
C23 O2 1.158251 1_555
C23 Mn7 1.855588 1_555
C24 O75 1.153001 1_555
C24 Mn7 1.871984 1_555
C25 O42 1.159254 1_555
C25 Mn3 1.853810 1_555
C26 O1 1.157095 1_555
C26 Mn1 1.854697 1_555
C27 O28 1.156462 1_555
C27 Mn4 1.861431 1_555
C28 O72 1.158393 1_655
C28 Mn1 1.861330 1_555
C29 O27 1.157910 1_555
C29 Mn8 1.857521 1_555
C30 O14 1.156615 1_555
C30 Mn6 1.864573 1_555
C31 O50 1.154325 1_565
C31 Mn1 1.867216 1_555
C32 O31 1.159943 1_555
C32 Mn8 1.853660 1_555
C33 O52 1.157957 1_555
C33 Mn15 1.816272 1_555
C34 O40 1.155142 1_555
C34 Mn0 1.866260 1_555
C35 O44 1.157725 1_555
C35 Mn4 1.822216 1_555
C36 O43 1.156615 1_555
C36 Mn9 1.864573 1_555
C37 O26 1.156615 1_555
C37 Mn11 1.864573 1_555
C38 O29 1.153970 1_454
C38 Mn5 1.871135 1_555
C39 O25 1.158994 1_555
C39 Mn2 1.851519 1_555
C40 O69 1.159254 1_555
C40 Mn0 1.853810 1_555
C41 O48 1.158649 1_555
C41 Mn11 1.822694 1_555
C42 O64 1.153970 1_656
C42 Mn10 1.871135 1_555
C43 O76 1.155262 1_555
C43 Mn5 1.868937 1_555
C44 O30 1.155142 1_555
C44 Mn3 1.866260 1_555
C45 O39 1.158174 1_545
C45 Mn2 1.823391 1_555
C46 O6 1.157957 1_555
C46 Mn10 1.816272 1_554
C47 O58 1.156058 1_555
C47 Mn7 1.859853 1_555
C48 O73 1.158994 1_555
C48 Mn1 1.851519 1_455
C49 O51 1.156462 1_555
C49 Mn13 1.861431 1_555
C50 O68 1.156058 1_555
C50 Mn11 1.859853 1_555
C51 O17 1.154325 1_545
C51 Mn14 1.867216 1_555
C52 O63 1.158649 1_555
C52 Mn6 1.822694 1_555
C53 O33 1.155262 1_555
C53 Mn10 1.868937 1_555
C54 O67 1.153970 1_555
C54 Mn15 1.871135 1_555
C55 O79 1.159943 1_555
C55 Mn15 1.853660 1_555
C56 O23 1.156058 1_555
C56 Mn9 1.859853 1_555
C57 O41 1.158649 1_455
C57 Mn9 1.822694 1_555
C58 O53 1.159596 1_555
C58 Mn13 1.857053 1_555
C59 O54 1.158994 1_555
C59 Mn12 1.851519 1_555
C60 O22 1.158251 1_555
C60 Mn9 1.855588 1_555
C61 O74 1.157095 1_555
C61 Mn12 1.854697 1_555
C62 O16 1.158251 1_555
C62 Mn11 1.855588 1_555
C63 O24 1.153001 1_555
C63 Mn6 1.871984 1_555
C64 O78 1.157725 1_555
C64 Mn0 1.822216 1_555
C65 O21 1.159254 1_555
C65 Mn13 1.853810 1_555
C66 O62 1.158994 1_555
C66 Mn14 1.851519 1_655
C67 O47 1.157957 1_555
C67 Mn5 1.816272 1_556
C68 O20 1.156615 1_555
C68 Mn7 1.864573 1_555
C69 O7 1.159596 1_655
C69 Mn3 1.857053 1_555
C70 O12 1.158393 1_455
C70 Mn14 1.861330 1_555
C71 O55 1.159254 1_555
C71 Mn4 1.853810 1_555
C72 O9 1.157910 1_555
C72 Mn5 1.857521 1_555
C73 O46 1.158174 1_665
C73 Mn1 1.823391 1_555
C74 O32 1.157957 1_555
C74 Mn8 1.816272 1_555
C75 O0 1.158649 1_655
C75 Mn7 1.822694 1_555
C76 O3 1.157095 1_555
C76 Mn2 1.854697 1_555
C77 O49 1.158174 1_445
C77 Mn14 1.823391 1_555
C78 O59 1.158393 1_555
C78 Mn2 1.861330 1_555
C79 O77 1.156058 1_555
C79 Mn6 1.859853 1_555
Br0 Sn2 2.593251 1_555
Br1 Sn1 2.598282 1_655
Br2 Sn6 2.593251 1_555
Br3 Sn7 2.598282 1_555
Br4 Sn3 2.593251 1_555
Br5 Sn5 2.598282 1_555
Br6 Sn4 2.598282 1_455
Br7 Sn0 2.593251 1_555
