# generated using pymatgen
data_Li4Mn3Fe2Sn3O16
_symmetry_space_group_name_H-M   'P 1'
_cell_length_a   6.10379600
_cell_length_b   6.12578634
_cell_length_c   9.64168826
_cell_angle_alpha   89.35081570
_cell_angle_beta   88.99574845
_cell_angle_gamma   60.36350908
_symmetry_Int_Tables_number   1
_chemical_formula_structural   Li4Mn3Fe2Sn3O16
_chemical_formula_sum   'Li4 Mn3 Fe2 Sn3 O16'
_cell_volume   313.29682666
_cell_formula_units_Z   1
loop_
 _symmetry_equiv_pos_site_id
 _symmetry_equiv_pos_as_xyz
  1  'x, y, z'
loop_
 _atom_site_type_symbol
 _atom_site_label
 _atom_site_symmetry_multiplicity
 _atom_site_fract_x
 _atom_site_fract_y
 _atom_site_fract_z
 _atom_site_occupancy
  Li  Li0  1  0.32540600  0.33231200  0.11419800  1
  Li  Li1  1  0.01822800  0.01326000  0.00686700  1
  Li  Li2  1  0.01115400  0.01004900  0.49857200  1
  Li  Li3  1  0.66118200  0.66650200  0.60440100  1
  Mn  Mn0  1  0.16840100  0.16953900  0.77975700  1
  Mn  Mn1  1  0.34194200  0.83045400  0.28619700  1
  Mn  Mn2  1  0.82511700  0.34047100  0.28324500  1
  Fe  Fe0  1  0.33418100  0.32663000  0.50397900  1
  Fe  Fe1  1  0.65640000  0.66229900  0.00996200  1
  Sn  Sn0  1  0.16865100  0.65841400  0.78761100  1
  Sn  Sn1  1  0.65881500  0.16842200  0.78867000  1
  Sn  Sn2  1  0.83304100  0.82809400  0.28664600  1
  O  O0  1  0.17147900  0.67494200  0.40161900  1
  O  O1  1  0.48264400  0.47799100  0.65350800  1
  O  O2  1  0.33693600  0.34017500  0.90900500  1
  O  O3  1  0.99172900  0.98975200  0.68144500  1
  O  O4  1  0.02478400  0.98756900  0.19078900  1
  O  O5  1  0.67969700  0.16973300  0.39858400  1
  O  O6  1  0.03909600  0.47058200  0.65764600  1
  O  O7  1  0.47118900  0.03939200  0.65986100  1
  O  O8  1  0.83573600  0.83753400  0.91262300  1
  O  O9  1  0.18237800  0.15253000  0.39539900  1
  O  O10  1  0.51008000  0.95788000  0.16076100  1
  O  O11  1  0.95335800  0.50896900  0.16145300  1
  O  O12  1  0.64341600  0.68052600  0.39810300  1
  O  O13  1  0.32805600  0.84361400  0.89714300  1
  O  O14  1  0.50324700  0.53587800  0.16444800  1
  O  O15  1  0.84335700  0.32678700  0.89967000  1
loop_
_geom_bond_atom_site_label_1
_geom_bond_atom_site_label_2
_geom_bond_distance
_geom_bond_site_symmetry_2
Li0 O2 1.979313 1_554
Li0 O11 2.019937 1_455
Li0 O10 2.042197 1_545
Li0 O14 2.083008 1_555
Li1 O4 1.777910 1_545
Li1 O13 1.945935 1_544
Li1 O15 1.965323 1_454
Li1 O8 2.113934 1_444
Li2 O3 1.772199 1_445
Li2 O9 1.920844 1_555
Li2 O5 2.017211 1_455
Li2 O0 2.017455 1_545
Li3 O1 1.989816 1_555
Li3 O12 1.992480 1_555
Li3 O7 2.057833 1_565
Li3 O6 2.077126 1_655
Mn0 O7 1.968857 1_555
Mn0 O6 1.988417 1_555
Mn0 O15 2.062913 1_455
Mn0 O13 2.068831 1_545
Mn0 O3 2.123296 1_445
Mn0 O2 2.200381 1_555
Mn1 O4 1.928677 1_555
Mn1 O12 1.941516 1_555
Mn1 O10 1.962811 1_555
Mn1 O14 1.963154 1_555
Mn1 O9 2.015062 1_565
Mn1 O0 2.035736 1_555
Mn2 O11 1.948438 1_555
Mn2 O5 1.993901 1_555
Mn2 O14 2.080042 1_555
Mn2 O4 2.086451 1_645
Mn2 O12 2.126052 1_555
Mn2 O9 2.195802 1_655
Fe0 O9 2.031887 1_555
Fe0 O5 2.084815 1_555
Fe0 O0 2.098542 1_555
Fe0 O6 2.140594 1_555
Fe0 O7 2.140833 1_555
Fe0 O1 2.160203 1_555
Fe1 O13 2.069064 1_554
Fe1 O14 2.081652 1_555
Fe1 O8 2.081965 1_554
Fe1 O15 2.084378 1_554
Fe1 O10 2.145918 1_555
Fe1 O11 2.163110 1_555
O0 Sn2 2.125175 1_455
O1 Sn0 2.101690 1_555
O1 Sn1 2.104080 1_555
O2 Sn1 2.053414 1_555
O2 Sn0 2.058028 1_555
O3 Sn1 2.036746 1_565
O3 Sn0 2.039020 1_655
O4 Sn2 2.061712 1_455
O5 Sn2 2.121141 1_545
O6 Sn0 2.118193 1_555
O7 Sn1 2.108565 1_555
O8 Sn0 2.127199 1_655
O8 Sn1 2.128039 1_565
O10 Sn2 2.122085 1_555
O11 Sn2 2.102499 1_555
O12 Sn2 2.069010 1_555
O13 Sn0 2.122241 1_555
O15 Sn1 2.121741 1_555
