# generated using pymatgen
data_Hg2W2O7
_symmetry_space_group_name_H-M   'P 1'
_cell_length_a   5.31424100
_cell_length_b   8.55690931
_cell_length_c   9.09400420
_cell_angle_alpha   105.56429948
_cell_angle_beta   105.92332113
_cell_angle_gamma   97.42922239
_symmetry_Int_Tables_number   1
_chemical_formula_structural   Hg2W2O7
_chemical_formula_sum   'Hg4 W4 O14'
_cell_volume   373.78273683
_cell_formula_units_Z   2
loop_
 _symmetry_equiv_pos_site_id
 _symmetry_equiv_pos_as_xyz
  1  'x, y, z'
loop_
 _atom_site_type_symbol
 _atom_site_label
 _atom_site_symmetry_multiplicity
 _atom_site_fract_x
 _atom_site_fract_y
 _atom_site_fract_z
 _atom_site_occupancy
  Hg  Hg0  1  0.75332900  0.18955900  0.81526900  1
  Hg  Hg1  1  0.28587900  0.98885800  0.71337300  1
  Hg  Hg2  1  0.71412100  0.01114200  0.28662700  1
  Hg  Hg3  1  0.24667100  0.81044100  0.18473100  1
  W  W0  1  0.78049700  0.68083600  0.79241300  1
  W  W1  1  0.17980300  0.45328100  0.65601800  1
  W  W2  1  0.82019700  0.54671900  0.34398200  1
  W  W3  1  0.21950300  0.31916400  0.20758700  1
  O  O0  1  0.17015000  0.25576100  0.99193100  1
  O  O1  1  0.08292700  0.55411200  0.83907700  1
  O  O2  1  0.53555500  0.43715000  0.74009900  1
  O  O3  1  0.01251800  0.24016600  0.60885700  1
  O  O4  1  0.42825200  0.70208300  0.70685700  1
  O  O5  1  0.95311500  0.87059400  0.77614100  1
  O  O6  1  0.84614700  0.55692700  0.56819100  1
  O  O7  1  0.15385300  0.44307300  0.43180900  1
  O  O8  1  0.04688500  0.12940600  0.22385900  1
  O  O9  1  0.57174800  0.29791700  0.29314300  1
  O  O10  1  0.98748200  0.75983400  0.39114300  1
  O  O11  1  0.46444500  0.56285000  0.25990100  1
  O  O12  1  0.91707300  0.44588800  0.16092300  1
  O  O13  1  0.82985000  0.74423900  0.00806900  1
loop_
_geom_bond_atom_site_label_1
_geom_bond_atom_site_label_2
_geom_bond_distance
_geom_bond_site_symmetry_2
Hg0 O0 2.245668 1_655
Hg1 O5 2.208662 1_455
Hg1 O4 2.650344 1_555
Hg2 O8 2.208662 1_655
Hg2 O9 2.650344 1_555
Hg3 O13 2.245668 1_455
O0 W3 1.821902 1_556
O1 W1 1.896091 1_555
O1 W0 2.064553 1_455
O2 W1 1.873188 1_555
O2 W0 2.166724 1_555
O3 W1 1.803227 1_555
O4 W0 1.872765 1_555
O4 W1 2.213474 1_555
O5 W0 1.821584 1_555
O6 W2 1.982680 1_555
O6 W1 2.139676 1_655
O6 W0 2.174749 1_555
O7 W1 1.982680 1_555
O7 W2 2.139676 1_455
O7 W3 2.174749 1_555
O8 W3 1.821584 1_555
O9 W3 1.872765 1_555
O9 W2 2.213474 1_555
O10 W2 1.803227 1_555
O11 W2 1.873188 1_555
O11 W3 2.166724 1_555
O12 W2 1.896091 1_555
O12 W3 2.064553 1_655
O13 W0 1.821902 1_554
