# generated using pymatgen
data_Bi12O16F5
_symmetry_space_group_name_H-M   'P 1'
_cell_length_a   13.84748999
_cell_length_b   13.84748999
_cell_length_c   10.44098958
_cell_angle_alpha   79.15816212
_cell_angle_beta   79.15816212
_cell_angle_gamma   15.80613247
_symmetry_Int_Tables_number   1
_chemical_formula_structural   Bi12O16F5
_chemical_formula_sum   'Bi12 O16 F5'
_cell_volume   535.41250741
_cell_formula_units_Z   1
loop_
 _symmetry_equiv_pos_site_id
 _symmetry_equiv_pos_as_xyz
  1  'x, y, z'
loop_
 _atom_site_type_symbol
 _atom_site_label
 _atom_site_symmetry_multiplicity
 _atom_site_fract_x
 _atom_site_fract_y
 _atom_site_fract_z
 _atom_site_occupancy
  Bi  Bi0  1  0.68290400  0.68264200  0.93470800  1
  Bi  Bi1  1  0.93027500  0.94160200  0.92565000  1
  Bi  Bi2  1  0.54820600  0.56155600  0.76544700  1
  Bi  Bi3  1  0.80952300  0.82353800  0.75112000  1
  Bi  Bi4  1  0.41653100  0.44526900  0.60654300  1
  Bi  Bi5  1  0.65954200  0.72639900  0.56068500  1
  Bi  Bi6  1  0.27360100  0.34045800  0.43931500  1
  Bi  Bi7  1  0.55473100  0.58346900  0.39345700  1
  Bi  Bi8  1  0.17646200  0.19047700  0.24888000  1
  Bi  Bi9  1  0.43844400  0.45179400  0.23455300  1
  Bi  Bi10  1  0.05839800  0.06972500  0.07435000  1
  Bi  Bi11  1  0.31735800  0.31709600  0.06529200  1
  O  O0  1  0.84494000  0.84507800  0.95993300  1
  O  O1  1  0.59207700  0.60082100  0.93038400  1
  O  O2  1  0.03123100  0.02463400  0.87405500  1
  O  O3  1  0.28143400  0.28925800  0.87944200  1
  O  O4  1  0.45754300  0.47453300  0.78219400  1
  O  O5  1  0.88993400  0.91325800  0.70948200  1
  O  O6  1  0.33737900  0.35426300  0.61828500  1
  O  O7  1  0.77085100  0.78258000  0.55138100  1
  O  O8  1  0.21742000  0.22914900  0.44861900  1
  O  O9  1  0.64573700  0.66262100  0.38171500  1
  O  O10  1  0.08674200  0.11006600  0.29051800  1
  O  O11  1  0.52546700  0.54245700  0.21780600  1
  O  O12  1  0.71074200  0.71856600  0.12055800  1
  O  O13  1  0.97536600  0.96876900  0.12594500  1
  O  O14  1  0.39917900  0.40792300  0.06961600  1
  O  O15  1  0.15492200  0.15506000  0.04006700  1
  F  F0  1  0.23640600  0.16716400  0.73162500  1
  F  F1  1  0.15147000  0.06681800  0.63078700  1
  F  F2  1  0.99436700  0.00563300  0.50000000  1
  F  F3  1  0.93318200  0.84853000  0.36921300  1
  F  F4  1  0.83283600  0.76359400  0.26837500  1
loop_
_geom_bond_atom_site_label_1
_geom_bond_atom_site_label_2
_geom_bond_distance
_geom_bond_site_symmetry_2
Bi0 O15 2.257171 1_656
Bi0 O15 2.258455 1_566
Bi0 O12 2.274865 1_556
Bi0 O1 2.377083 1_555
Bi0 F0 2.736850 1_565
Bi1 O0 2.451808 1_555
Bi1 O4 2.457595 1_655
Bi1 O4 2.474246 1_565
Bi1 O2 2.478601 1_665
Bi1 O13 2.478722 1_556
Bi1 O14 2.479532 1_566
Bi1 O14 2.487073 1_656
Bi1 O5 2.605704 1_555
Bi2 O2 2.235178 1_565
Bi2 O1 2.238707 1_555
Bi2 O2 2.298971 1_655
Bi2 O4 2.410062 1_555
Bi2 F1 2.519350 1_565
Bi2 F1 2.787155 1_655
Bi3 O5 2.291132 1_555
Bi3 O3 2.381602 1_565
Bi3 O6 2.397990 1_655
Bi3 O3 2.400375 1_655
Bi3 O6 2.406649 1_565
Bi3 O0 2.451781 1_555
Bi3 O7 2.531250 1_555
Bi4 O4 2.228108 1_555
Bi4 O5 2.249282 1_455
Bi4 O5 2.266667 1_545
Bi4 O6 2.313843 1_555
Bi4 F2 2.743961 1_465
Bi4 F2 2.789746 1_555
Bi5 O8 2.219812 1_565
Bi5 O7 2.283249 1_555
Bi5 O9 2.321292 1_555
Bi5 O8 2.393108 1_655
Bi5 F0 2.472529 1_565
Bi6 O7 2.219812 1_455
Bi6 O8 2.283249 1_555
Bi6 O6 2.321292 1_555
Bi6 O7 2.393108 1_545
Bi6 F4 2.472529 1_455
Bi7 O11 2.228108 1_555
Bi7 O10 2.249282 1_565
Bi7 O10 2.266667 1_655
Bi7 O9 2.313843 1_555
Bi7 F2 2.743961 1_465
Bi7 F2 2.789746 1_555
Bi8 O10 2.291132 1_555
Bi8 O12 2.381602 1_455
Bi8 O9 2.397990 1_545
Bi8 O12 2.400375 1_545
Bi8 O9 2.406649 1_455
Bi8 O15 2.451781 1_555
Bi8 O8 2.531250 1_555
Bi9 O13 2.235178 1_455
Bi9 O14 2.238707 1_555
Bi9 O13 2.298971 1_545
Bi9 O11 2.410062 1_555
Bi9 F3 2.519350 1_455
Bi9 F3 2.787155 1_545
Bi10 O15 2.451808 1_555
Bi10 O11 2.457595 1_545
Bi10 O11 2.474246 1_455
Bi10 O13 2.478601 1_445
Bi10 O2 2.478722 1_554
Bi10 O1 2.479532 1_454
Bi10 O1 2.487073 1_544
Bi10 O10 2.605704 1_555
Bi11 O0 2.257171 1_544
Bi11 O0 2.258455 1_454
Bi11 O3 2.274865 1_554
Bi11 O14 2.377083 1_555
Bi11 F4 2.736850 1_455
