# generated using pymatgen
data_Li2Co(SiO3)2
_symmetry_space_group_name_H-M   'P 1'
_cell_length_a   5.48302473
_cell_length_b   9.71410628
_cell_length_c   9.53987301
_cell_angle_alpha   89.99698531
_cell_angle_beta   89.99690889
_cell_angle_gamma   86.88342860
_symmetry_Int_Tables_number   1
_chemical_formula_structural   Li2Co(SiO3)2
_chemical_formula_sum   'Li8 Co4 Si8 O24'
_cell_volume   507.36773419
_cell_formula_units_Z   4
loop_
 _symmetry_equiv_pos_site_id
 _symmetry_equiv_pos_as_xyz
  1  'x, y, z'
loop_
 _atom_site_type_symbol
 _atom_site_label
 _atom_site_symmetry_multiplicity
 _atom_site_fract_x
 _atom_site_fract_y
 _atom_site_fract_z
 _atom_site_occupancy
  Li  Li0  1  0.35336400  0.33384400  0.39872400  1
  Li  Li1  1  0.35336000  0.33383800  0.89870500  1
  Li  Li2  1  0.64664800  0.66616100  0.14869900  1
  Li  Li3  1  0.64663600  0.66616500  0.64871700  1
  Li  Li4  1  0.16227600  0.48719900  0.14903500  1
  Li  Li5  1  0.16228700  0.48719700  0.64903400  1
  Li  Li6  1  0.83772000  0.51279900  0.39903300  1
  Li  Li7  1  0.83771000  0.51280100  0.89903200  1
  Co  Co0  1  0.23204900  0.14756800  0.65136600  1
  Co  Co1  1  0.76797800  0.85242300  0.90134900  1
  Co  Co2  1  0.23209700  0.14758100  0.15138000  1
  Co  Co3  1  0.76793100  0.85240100  0.40134000  1
  Si  Si0  1  0.87556200  0.17615600  0.39565300  1
  Si  Si1  1  0.87558900  0.17615200  0.89567000  1
  Si  Si2  1  0.12444700  0.82385300  0.14565300  1
  Si  Si3  1  0.12440900  0.82383500  0.64563800  1
  Si  Si4  1  0.69202700  0.33965600  0.14701200  1
  Si  Si5  1  0.69206500  0.33965800  0.64702400  1
  Si  Si6  1  0.30796600  0.66034600  0.39701500  1
  Si  Si7  1  0.30792700  0.66033800  0.89702100  1
  O  O0  1  0.73620400  0.04228400  0.35865100  1
  O  O1  1  0.73625100  0.04227900  0.85863400  1
  O  O2  1  0.26379400  0.95772500  0.10859800  1
  O  O3  1  0.26375000  0.95771800  0.60861300  1
  O  O4  1  0.15760700  0.18669800  0.34938700  1
  O  O5  1  0.15762900  0.18668900  0.84940100  1
  O  O6  1  0.84240700  0.81332500  0.09941300  1
  O  O7  1  0.84237100  0.81331800  0.59938200  1
  O  O8  1  0.87083500  0.21609200  0.06877200  1
  O  O9  1  0.87091500  0.21613600  0.56875400  1
  O  O10  1  0.12916500  0.78390500  0.31876600  1
  O  O11  1  0.12906700  0.78385600  0.81874200  1
  O  O12  1  0.71667300  0.31506200  0.32167200  1
  O  O13  1  0.71670000  0.31505900  0.82168300  1
  O  O14  1  0.28329700  0.68493000  0.07168000  1
  O  O15  1  0.28331600  0.68493600  0.57167700  1
  O  O16  1  0.40725000  0.32227000  0.10409800  1
  O  O17  1  0.40730700  0.32224100  0.60410800  1
  O  O18  1  0.59274400  0.67772600  0.35409000  1
  O  O19  1  0.59268400  0.67776900  0.85410000  1
  O  O20  1  0.80099300  0.48570600  0.10780500  1
  O  O21  1  0.80099900  0.48572000  0.60782600  1
  O  O22  1  0.19900200  0.51429600  0.35782500  1
  O  O23  1  0.19899500  0.51428000  0.85782400  1
loop_
_geom_bond_atom_site_label_1
_geom_bond_atom_site_label_2
_geom_bond_distance
_geom_bond_site_symmetry_2
Li0 O4 1.893066 1_555
Li0 O22 1.944217 1_555
Li0 O17 1.983835 1_555
Li0 O12 2.121825 1_555
Li1 O5 1.892924 1_555
Li1 O23 1.944104 1_555
Li1 O16 1.983861 1_556
Li1 O13 2.121883 1_555
Li2 O6 1.893023 1_555
Li2 O20 1.944216 1_555
Li2 O18 1.983832 1_555
Li2 O14 2.121994 1_555
Li3 O7 1.892975 1_555
Li3 O21 1.944163 1_555
Li3 O19 1.983813 1_555
Li3 O15 2.121905 1_555
Li4 O20 2.020442 1_455
Li4 O22 2.020665 1_555
Li4 O16 2.078658 1_555
Li4 O14 2.193781 1_555
Li5 O21 2.020418 1_455
Li5 O23 2.020636 1_555
Li5 O17 2.078982 1_555
Li5 O15 2.193872 1_555
Li6 O22 2.020356 1_655
Li6 O21 2.020617 1_555
Li6 O18 2.078657 1_555
Li6 O12 2.193995 1_555
Li7 O23 2.020362 1_655
Li7 O20 2.020448 1_556
Li7 O19 2.079094 1_555
Li7 O13 2.193928 1_555
Co0 O3 1.887574 1_545
Co0 O5 1.965512 1_555
Co0 O17 2.045223 1_555
Co0 O9 2.200522 1_455
Co1 O1 1.887520 1_565
Co1 O6 1.965751 1_556
Co1 O19 2.045210 1_555
Co1 O11 2.200233 1_655
Co2 O2 1.887689 1_545
Co2 O4 1.965324 1_555
Co2 O16 2.045110 1_555
Co2 O8 2.200988 1_455
Co3 O0 1.887721 1_565
Co3 O7 1.965535 1_555
Co3 O18 2.045085 1_555
Co3 O10 2.200648 1_655
O0 Si0 1.583586 1_555
O1 Si1 1.583609 1_555
O2 Si2 1.583618 1_555
O3 Si3 1.583628 1_555
O4 Si0 1.616779 1_455
O5 Si1 1.616755 1_455
O6 Si2 1.616718 1_655
O7 Si3 1.616737 1_655
O8 Si4 1.682594 1_555
O8 Si1 1.696231 1_554
O9 Si5 1.682568 1_555
O9 Si0 1.696308 1_555
O10 Si6 1.682569 1_555
O10 Si2 1.696313 1_555
O11 Si7 1.682601 1_555
O11 Si3 1.696297 1_555
O12 Si4 1.687645 1_555
O12 Si0 1.717547 1_555
O13 Si5 1.687638 1_555
O13 Si1 1.717578 1_555
O14 Si7 1.687637 1_554
O14 Si2 1.717562 1_555
O15 Si6 1.687671 1_555
O15 Si3 1.717483 1_555
O16 Si4 1.631861 1_555
O17 Si5 1.631813 1_555
O18 Si6 1.631837 1_555
O19 Si7 1.631794 1_555
O20 Si4 1.613006 1_555
O21 Si5 1.613017 1_555
O22 Si6 1.613013 1_555
O23 Si7 1.613025 1_555
