# generated using pymatgen
data_V2Bi4O11
_symmetry_space_group_name_H-M   'P 1'
_cell_length_a   8.11459037
_cell_length_b   8.11459037
_cell_length_c   11.10758401
_cell_angle_alpha   89.91474800
_cell_angle_beta   89.91474800
_cell_angle_gamma   40.98818869
_symmetry_Int_Tables_number   1
_chemical_formula_structural   V2Bi4O11
_chemical_formula_sum   'V4 Bi8 O22'
_cell_volume   479.72479563
_cell_formula_units_Z   2
loop_
 _symmetry_equiv_pos_site_id
 _symmetry_equiv_pos_as_xyz
  1  'x, y, z'
loop_
 _atom_site_type_symbol
 _atom_site_label
 _atom_site_symmetry_multiplicity
 _atom_site_fract_x
 _atom_site_fract_y
 _atom_site_fract_z
 _atom_site_occupancy
  V  V0  1  0.99065200  0.00934800  0.00000000  1
  V  V1  1  0.44607400  0.56575900  0.75329100  1
  V  V2  1  0.99832700  0.00167300  0.50000000  1
  V  V3  1  0.43424100  0.55392600  0.24670900  1
  Bi  Bi0  1  0.66912900  0.66041600  0.00882400  1
  Bi  Bi1  1  0.09626300  0.22370600  0.74843500  1
  Bi  Bi2  1  0.75806700  0.88221200  0.75025300  1
  Bi  Bi3  1  0.33314200  0.33680100  0.50795700  1
  Bi  Bi4  1  0.66319900  0.66685800  0.49204300  1
  Bi  Bi5  1  0.11778800  0.24193300  0.24974700  1
  Bi  Bi6  1  0.77629400  0.90373700  0.25156500  1
  Bi  Bi7  1  0.33958400  0.33087100  0.99117600  1
  O  O0  1  0.77491700  0.01728900  0.95606600  1
  O  O1  1  0.93826300  0.54369600  0.87131300  1
  O  O2  1  0.19210600  0.85759400  0.87293100  1
  O  O3  1  0.65998400  0.42974400  0.87023400  1
  O  O4  1  0.43888600  0.03279100  0.87152500  1
  O  O5  1  0.37913300  0.40976200  0.74854100  1
  O  O6  1  0.94314200  0.54264100  0.62540700  1
  O  O7  1  0.66407500  0.44191100  0.64077300  1
  O  O8  1  0.19541700  0.85577200  0.62802300  1
  O  O9  1  0.43981300  0.03181500  0.62780800  1
  O  O10  1  0.97088600  0.22950200  0.45555100  1
  O  O11  1  0.77049800  0.02911400  0.54444900  1
  O  O12  1  0.96818500  0.56018700  0.37219200  1
  O  O13  1  0.14422800  0.80458300  0.37197700  1
  O  O14  1  0.55808900  0.33592500  0.35922700  1
  O  O15  1  0.45735900  0.05685800  0.37459300  1
  O  O16  1  0.59023800  0.62086700  0.25145900  1
  O  O17  1  0.96720900  0.56111400  0.12847500  1
  O  O18  1  0.57025600  0.34001600  0.12976600  1
  O  O19  1  0.14240600  0.80789400  0.12706900  1
  O  O20  1  0.45630400  0.06173700  0.12868700  1
  O  O21  1  0.98271100  0.22508300  0.04393400  1
loop_
_geom_bond_atom_site_label_1
_geom_bond_atom_site_label_2
_geom_bond_distance
_geom_bond_site_symmetry_2
Bi0 O1 2.207075 1_554
Bi0 O17 2.308707 1_555
Bi0 O21 2.352520 1_555
Bi0 O3 2.469320 1_554
Bi0 O4 2.533536 1_564
Bi0 O20 2.622166 1_565
Bi0 O16 2.842316 1_555
Bi1 O1 2.286566 1_455
Bi1 O6 2.291080 1_455
Bi1 O9 2.330930 1_555
Bi1 O4 2.345560 1_555
Bi2 O4 2.287470 1_565
Bi2 O9 2.294639 1_565
Bi2 O1 2.328706 1_555
Bi2 O6 2.351363 1_555
Bi2 O0 2.584753 1_565
Bi2 O11 2.613355 1_565
Bi2 O5 2.812235 1_565
Bi3 O15 2.217988 1_555
Bi3 O9 2.325054 1_555
Bi3 O11 2.370085 1_555
Bi3 O14 2.456144 1_555
Bi3 O12 2.496217 1_455
Bi3 O6 2.553646 1_455
Bi3 O5 2.823520 1_555
Bi4 O6 2.217988 1_555
Bi4 O12 2.325054 1_555
Bi4 O10 2.370085 1_555
Bi4 O7 2.456144 1_555
Bi4 O9 2.496217 1_565
Bi4 O15 2.553646 1_565
Bi4 O16 2.823520 1_555
Bi5 O17 2.287470 1_455
Bi5 O12 2.294639 1_455
Bi5 O20 2.328706 1_555
Bi5 O15 2.351363 1_555
Bi5 O21 2.584753 1_455
Bi5 O10 2.613355 1_455
Bi5 O16 2.812235 1_455
Bi6 O20 2.286566 1_565
Bi6 O15 2.291080 1_565
Bi6 O12 2.330930 1_555
Bi6 O17 2.345560 1_555
Bi7 O20 2.207075 1_556
Bi7 O4 2.308707 1_555
Bi7 O0 2.352520 1_555
Bi7 O18 2.469320 1_556
Bi7 O17 2.533536 1_456
Bi7 O1 2.622166 1_455
Bi7 O5 2.842316 1_555
O0 V0 1.771736 1_556
O2 V0 1.772031 1_466
O2 V1 2.062648 1_555
O3 V1 1.740286 1_555
O5 V1 1.714232 1_555
O7 V1 1.736246 1_555
O8 V2 1.767721 1_465
O8 V1 2.093721 1_555
O10 V2 1.757073 1_555
O11 V2 1.757073 1_555
O13 V2 1.767721 1_465
O13 V3 2.093721 1_555
O14 V3 1.736246 1_555
O16 V3 1.714232 1_555
O18 V3 1.740286 1_555
O19 V0 1.772031 1_465
O19 V3 2.062648 1_555
O21 V0 1.771736 1_555
