# generated using pymatgen
data_Mn3Cu(PO4)4
_symmetry_space_group_name_H-M   'P 1'
_cell_length_a   6.00918700
_cell_length_b   4.90491400
_cell_length_c   9.82965348
_cell_angle_alpha   89.21079258
_cell_angle_beta   90.00000000
_cell_angle_gamma   90.00000000
_symmetry_Int_Tables_number   1
_chemical_formula_structural   Mn3Cu(PO4)4
_chemical_formula_sum   'Mn3 Cu1 P4 O16'
_cell_volume   289.69708378
_cell_formula_units_Z   1
loop_
 _symmetry_equiv_pos_site_id
 _symmetry_equiv_pos_as_xyz
  1  'x, y, z'
loop_
 _atom_site_type_symbol
 _atom_site_label
 _atom_site_symmetry_multiplicity
 _atom_site_fract_x
 _atom_site_fract_y
 _atom_site_fract_z
 _atom_site_occupancy
  Mn  Mn0  1  0.00000000  0.43525800  0.78554200  1
  Mn  Mn1  1  0.50000000  0.55822100  0.21406300  1
  Mn  Mn2  1  0.50000000  0.93389900  0.71683400  1
  Cu  Cu0  1  0.00000000  0.09324300  0.28997500  1
  P  P0  1  0.50000000  0.07988800  0.39935200  1
  P  P1  1  0.50000000  0.41234600  0.90150600  1
  P  P2  1  0.00000000  0.57936800  0.10104500  1
  P  P3  1  0.00000000  0.92319700  0.59929400  1
  O  O0  1  0.50000000  0.14529400  0.55177500  1
  O  O1  1  0.30217900  0.23250000  0.32667600  1
  O  O2  1  0.69782100  0.23250000  0.32667600  1
  O  O3  1  0.00000000  0.23309500  0.62011400  1
  O  O4  1  0.00000000  0.26417400  0.11805000  1
  O  O5  1  0.29989100  0.27197500  0.82921800  1
  O  O6  1  0.70010900  0.27197500  0.82921800  1
  O  O7  1  0.50000000  0.34164200  0.05420300  1
  O  O8  1  0.00000000  0.64554500  0.94701100  1
  O  O9  1  0.79684800  0.71568100  0.16994300  1
  O  O10  1  0.20315200  0.71568100  0.16994300  1
  O  O11  1  0.50000000  0.72469200  0.88327800  1
  O  O12  1  0.50000000  0.77192400  0.37837400  1
  O  O13  1  0.80077700  0.77481400  0.67126000  1
  O  O14  1  0.19922300  0.77481400  0.67126000  1
  O  O15  1  0.00000000  0.86827800  0.44538900  1
loop_
_geom_bond_atom_site_label_1
_geom_bond_atom_site_label_2
_geom_bond_distance
_geom_bond_site_symmetry_2
Mn0 O8 1.904762 1_555
Mn0 O3 1.916214 1_555
Mn0 O5 2.015896 1_555
Mn0 O6 2.015896 1_455
Mn0 O14 2.327544 1_555
Mn0 O13 2.327544 1_455
Mn1 O7 1.908839 1_555
Mn1 O12 1.937515 1_555
Mn1 O10 1.989307 1_555
Mn1 O9 1.989307 1_555
Mn1 O1 2.267632 1_555
Mn1 O2 2.267632 1_555
Mn2 O0 1.913422 1_565
Mn2 O11 1.919245 1_555
Mn2 O13 2.021377 1_555
Mn2 O14 2.021377 1_555
Mn2 O5 2.338064 1_565
Mn2 O6 2.338064 1_565
Cu0 O15 1.872136 1_545
Cu0 O4 1.876129 1_555
Cu0 O2 1.975043 1_455
Cu0 O1 1.975043 1_555
Cu0 O10 2.524314 1_545
Cu0 O9 2.524314 1_445
O0 P0 1.536541 1_555
O1 P0 1.571319 1_555
O2 P0 1.571319 1_555
O3 P3 1.536529 1_545
O4 P2 1.552719 1_555
O5 P1 1.561542 1_555
O6 P1 1.561542 1_555
O7 P1 1.535840 1_554
O8 P2 1.544125 1_556
O9 P2 1.551922 1_655
O10 P2 1.551922 1_555
O11 P1 1.540019 1_555
O12 P0 1.527358 1_565
O13 P3 1.564975 1_655
O14 P3 1.564975 1_555
O15 P3 1.540276 1_555
