# generated using pymatgen
data_NaNiPO4
_symmetry_space_group_name_H-M   'P 1'
_cell_length_a   4.68862300
_cell_length_b   11.38230301
_cell_length_c   6.45840401
_cell_angle_alpha   90.00505916
_cell_angle_beta   89.99990675
_cell_angle_gamma   90.00010061
_symmetry_Int_Tables_number   1
_chemical_formula_structural   NaNiPO4
_chemical_formula_sum   'Na4 Ni4 P4 O16'
_cell_volume   344.66776162
_cell_formula_units_Z   4
loop_
 _symmetry_equiv_pos_site_id
 _symmetry_equiv_pos_as_xyz
  1  'x, y, z'
loop_
 _atom_site_type_symbol
 _atom_site_label
 _atom_site_symmetry_multiplicity
 _atom_site_fract_x
 _atom_site_fract_y
 _atom_site_fract_z
 _atom_site_occupancy
  Na  Na0  1  0.47682700  0.22216900  0.75003500  1
  Na  Na1  1  0.97685300  0.27780900  0.24996300  1
  Na  Na2  1  0.02314500  0.72219000  0.75003800  1
  Na  Na3  1  0.52317100  0.77783100  0.24996500  1
  Ni  Ni0  1  0.00000300  0.00000200  0.49999800  1
  Ni  Ni1  1  0.50000500  0.49999900  0.50000200  1
  Ni  Ni2  1  0.00000000  0.00000100  0.99999900  1
  Ni  Ni3  1  0.50000000  0.49999800  0.00000200  1
  P  P0  1  0.40534500  0.07947300  0.25001300  1
  P  P1  1  0.90533900  0.42052400  0.74998700  1
  P  P2  1  0.09466400  0.57947600  0.25001400  1
  P  P3  1  0.59465500  0.92052700  0.74998600  1
  O  O0  1  0.74503200  0.04648200  0.75002400  1
  O  O1  1  0.24503600  0.45352100  0.24997600  1
  O  O2  1  0.75496300  0.54647900  0.75002500  1
  O  O3  1  0.25496800  0.95351900  0.24997500  1
  O  O4  1  0.73615000  0.07173400  0.25003600  1
  O  O5  1  0.23615600  0.42826000  0.74996300  1
  O  O6  1  0.76384200  0.57174000  0.25003800  1
  O  O7  1  0.26384900  0.92826600  0.74996400  1
  O  O8  1  0.28745100  0.13953000  0.44788700  1
  O  O9  1  0.28749500  0.13952800  0.05220300  1
  O  O10  1  0.78749400  0.36047800  0.94780600  1
  O  O11  1  0.78745000  0.36047700  0.55209900  1
  O  O12  1  0.21250500  0.63952200  0.05219300  1
  O  O13  1  0.21254900  0.63952300  0.44790000  1
  O  O14  1  0.71254800  0.86047100  0.55211200  1
  O  O15  1  0.71250400  0.86047200  0.94779700  1
loop_
_geom_bond_atom_site_label_1
_geom_bond_atom_site_label_2
_geom_bond_distance
_geom_bond_site_symmetry_2
Na0 O8 2.341106 1_555
Na0 O9 2.341280 1_556
Na0 O0 2.362252 1_555
Na0 O10 2.496222 1_555
Na0 O11 2.496780 1_555
Na0 O5 2.603087 1_555
Na1 O11 2.341220 1_555
Na1 O10 2.341401 1_554
Na1 O1 2.362435 1_655
Na1 O9 2.495918 1_655
Na1 O8 2.496470 1_655
Na1 O4 2.602985 1_555
Na2 O13 2.341228 1_555
Na2 O12 2.341387 1_556
Na2 O2 2.362423 1_455
Na2 O15 2.495919 1_455
Na2 O14 2.496488 1_455
Na2 O7 2.602997 1_555
Na3 O14 2.341107 1_555
Na3 O15 2.341282 1_554
Na3 O3 2.362257 1_555
Na3 O12 2.496223 1_555
Na3 O13 2.496774 1_555
Na3 O6 2.603087 1_555
Ni0 O3 2.077560 1_545
Ni0 O0 2.077582 1_455
Ni0 O8 2.109968 1_555
Ni0 O14 2.110018 1_445
Ni0 O4 2.191678 1_455
Ni0 O7 2.191696 1_545
Ni1 O2 2.077534 1_555
Ni1 O1 2.077573 1_555
Ni1 O11 2.109897 1_555
Ni1 O13 2.109953 1_555
Ni1 O6 2.191679 1_555
Ni1 O5 2.191688 1_555
Ni2 O0 2.077397 1_455
Ni2 O3 2.077405 1_546
Ni2 O9 2.110152 1_556
Ni2 O15 2.110170 1_445
Ni2 O7 2.191918 1_545
Ni2 O4 2.191922 1_456
Ni3 O1 2.077365 1_555
Ni3 O2 2.077389 1_554
Ni3 O10 2.110084 1_554
Ni3 O12 2.110116 1_555
Ni3 O6 2.191936 1_555
Ni3 O5 2.191938 1_554
O0 P3 1.597649 1_545
O1 P2 1.597641 1_555
O2 P1 1.597649 1_555
O3 P0 1.597639 1_565
O4 P0 1.553519 1_555
O5 P1 1.553573 1_455
O6 P2 1.553597 1_655
O7 P3 1.553524 1_555
O8 P0 1.551076 1_555
O9 P0 1.550753 1_555
O10 P1 1.550745 1_555
O11 P1 1.551093 1_555
O12 P2 1.550749 1_555
O13 P2 1.551075 1_555
O14 P3 1.551069 1_555
O15 P3 1.550757 1_555
