# generated using pymatgen
data_Li2Fe2B2O7
_symmetry_space_group_name_H-M   'P 1'
_cell_length_a   12.12774400
_cell_length_b   5.28990300
_cell_length_c   9.45928320
_cell_angle_alpha   56.51694639
_cell_angle_beta   90.00000000
_cell_angle_gamma   90.00000000
_symmetry_Int_Tables_number   1
_chemical_formula_structural   Li2Fe2B2O7
_chemical_formula_sum   'Li8 Fe8 B8 O28'
_cell_volume   506.14801775
_cell_formula_units_Z   4
loop_
 _symmetry_equiv_pos_site_id
 _symmetry_equiv_pos_as_xyz
  1  'x, y, z'
loop_
 _atom_site_type_symbol
 _atom_site_label
 _atom_site_symmetry_multiplicity
 _atom_site_fract_x
 _atom_site_fract_y
 _atom_site_fract_z
 _atom_site_occupancy
  Li  Li0  1  0.34125700  0.72910700  0.12640700  1
  Li  Li1  1  0.74546000  0.01402600  0.18172000  1
  Li  Li2  1  0.24546000  0.98597400  0.31828000  1
  Li  Li3  1  0.84125700  0.27089300  0.37359300  1
  Li  Li4  1  0.15874300  0.72910700  0.62640700  1
  Li  Li5  1  0.75454000  0.01402600  0.68172000  1
  Li  Li6  1  0.25454000  0.98597400  0.81828000  1
  Li  Li7  1  0.65874300  0.27089300  0.87359300  1
  Fe  Fe0  1  0.09480700  0.55164700  0.10578300  1
  Fe  Fe1  1  0.48833600  0.18596200  0.19704600  1
  Fe  Fe2  1  0.98833600  0.81403800  0.30295400  1
  Fe  Fe3  1  0.59480700  0.44835300  0.39421700  1
  Fe  Fe4  1  0.40519300  0.55164700  0.60578300  1
  Fe  Fe5  1  0.01166400  0.18596200  0.69704600  1
  Fe  Fe6  1  0.51166400  0.81403800  0.80295400  1
  Fe  Fe7  1  0.90519300  0.44835300  0.89421700  1
  B  B0  1  0.88140000  0.77970000  0.02948000  1
  B  B1  1  0.67822400  0.62622100  0.04190000  1
  B  B2  1  0.17822400  0.37377900  0.45810000  1
  B  B3  1  0.38140000  0.22030000  0.47052000  1
  B  B4  1  0.61860000  0.77970000  0.52948000  1
  B  B5  1  0.82177600  0.62622100  0.54190000  1
  B  B6  1  0.32177600  0.37377900  0.95810000  1
  B  B7  1  0.11860000  0.22030000  0.97052000  1
  O  O0  1  0.79932500  0.56701800  0.03091200  1
  O  O1  1  0.16469500  0.93948900  0.01044800  1
  O  O2  1  0.03284300  0.19654900  0.09747100  1
  O  O3  1  0.61834800  0.35606000  0.06300400  1
  O  O4  1  0.35821400  0.09844000  0.12356200  1
  O  O5  1  0.66308500  0.67179900  0.17967700  1
  O  O6  1  0.94478200  0.60754900  0.19527700  1
  O  O7  1  0.44478200  0.39245100  0.30472300  1
  O  O8  1  0.16308500  0.32820100  0.32032300  1
  O  O9  1  0.85821400  0.90156000  0.37643800  1
  O  O10  1  0.11834800  0.64394000  0.43699600  1
  O  O11  1  0.53284300  0.80345100  0.40252900  1
  O  O12  1  0.66469500  0.06051100  0.48955200  1
  O  O13  1  0.29932500  0.43298200  0.46908800  1
  O  O14  1  0.70067500  0.56701800  0.53091200  1
  O  O15  1  0.33530500  0.93948900  0.51044800  1
  O  O16  1  0.46715700  0.19654900  0.59747100  1
  O  O17  1  0.88165200  0.35606000  0.56300400  1
  O  O18  1  0.14178600  0.09844000  0.62356300  1
  O  O19  1  0.83691500  0.67179900  0.67967700  1
  O  O20  1  0.55521800  0.60754900  0.69527700  1
  O  O21  1  0.05521800  0.39245100  0.80472300  1
  O  O22  1  0.33691500  0.32820100  0.82032300  1
  O  O23  1  0.64178600  0.90156000  0.87643700  1
  O  O24  1  0.38165200  0.64394000  0.93699600  1
  O  O25  1  0.96715700  0.80345100  0.90252900  1
  O  O26  1  0.83530500  0.06051100  0.98955200  1
  O  O27  1  0.20067500  0.43298200  0.96908800  1
loop_
_geom_bond_atom_site_label_1
_geom_bond_atom_site_label_2
_geom_bond_distance
_geom_bond_site_symmetry_2
Li0 O4 1.949894 1_565
Li0 O7 2.068463 1_555
Li0 O24 2.131616 1_554
Li0 O1 2.383264 1_555
Li1 O26 2.014652 1_554
Li1 O5 2.077109 1_545
Li1 O9 2.099369 1_545
Li1 O3 2.160863 1_555
Li1 O0 2.532699 1_555
Li2 O15 2.014652 1_555
Li2 O8 2.077109 1_565
Li2 O4 2.099369 1_565
Li2 O10 2.160863 1_555
Li2 O13 2.532699 1_555
Li3 O9 1.949894 1_545
Li3 O6 2.068463 1_555
Li3 O17 2.131616 1_555
Li3 O12 2.383264 1_555
Li4 O18 1.949899 1_565
Li4 O21 2.068463 1_555
Li4 O10 2.131616 1_555
Li4 O15 2.383264 1_555
Li5 O12 2.014652 1_555
Li5 O19 2.077109 1_545
Li5 O23 2.099362 1_545
Li5 O17 2.160863 1_555
Li5 O14 2.532699 1_555
Li6 O1 2.014652 1_556
Li6 O22 2.077109 1_565
Li6 O18 2.099362 1_565
Li6 O24 2.160863 1_555
Li6 O27 2.532699 1_555
Li7 O23 1.949899 1_545
Li7 O20 2.068463 1_555
Li7 O3 2.131616 1_556
Li7 O26 2.383264 1_555
Fe0 O8 1.885343 1_555
Fe0 O1 1.923395 1_555
Fe0 O2 2.064554 1_555
Fe0 O6 2.095415 1_455
Fe0 O27 2.147108 1_554
Fe0 O25 2.245372 1_454
Fe1 O4 1.882279 1_555
Fe1 O3 1.909090 1_555
Fe1 O7 1.933175 1_555
Fe1 O11 1.955537 1_545
Fe2 O9 1.882279 1_555
Fe2 O10 1.909090 1_655
Fe2 O6 1.933175 1_555
Fe2 O2 1.955537 1_665
Fe3 O5 1.885343 1_555
Fe3 O12 1.923395 1_555
Fe3 O11 2.064554 1_555
Fe3 O7 2.095415 1_555
Fe3 O14 2.147108 1_555
Fe3 O16 2.245372 1_555
Fe4 O22 1.885343 1_555
Fe4 O15 1.923395 1_555
Fe4 O16 2.064554 1_555
Fe4 O20 2.095415 1_555
Fe4 O13 2.147108 1_555
Fe4 O11 2.245372 1_555
Fe5 O18 1.882274 1_555
Fe5 O17 1.909090 1_455
Fe5 O21 1.933175 1_555
Fe5 O25 1.955537 1_445
Fe6 O23 1.882274 1_555
Fe6 O24 1.909090 1_555
Fe6 O20 1.933175 1_555
Fe6 O16 1.955537 1_565
Fe7 O19 1.885343 1_555
Fe7 O26 1.923395 1_555
Fe7 O25 2.064554 1_555
Fe7 O21 2.095415 1_655
Fe7 O0 2.147108 1_556
Fe7 O2 2.245372 1_656
B0 O26 1.429236 1_564
B0 O0 1.496641 1_555
B0 O6 1.517875 1_555
B0 O25 1.540477 1_554
B1 O5 1.461870 1_555
B1 O23 1.500366 1_554
B1 O3 1.514851 1_555
B1 O0 1.517177 1_555
B2 O8 1.461870 1_555
B2 O18 1.500366 1_555
B2 O10 1.514851 1_555
B2 O13 1.517177 1_555
B3 O15 1.429236 1_545
B3 O13 1.496641 1_555
B3 O7 1.517875 1_555
B3 O16 1.540477 1_555
B4 O12 1.429236 1_565
B4 O14 1.496641 1_555
B4 O20 1.517875 1_555
B4 O11 1.540477 1_555
B5 O19 1.461870 1_555
B5 O9 1.500361 1_555
B5 O17 1.514851 1_555
B5 O14 1.517177 1_555
B6 O22 1.461870 1_555
B6 O4 1.500361 1_556
B6 O24 1.514851 1_555
B6 O27 1.517177 1_555
B7 O1 1.429236 1_546
B7 O27 1.496641 1_555
B7 O21 1.517875 1_555
B7 O2 1.540477 1_556
