# generated using pymatgen
data_Li3Mn2Fe(BO3)3
_symmetry_space_group_name_H-M   'P 1'
_cell_length_a   3.17341800
_cell_length_b   8.27087400
_cell_length_c   14.32463868
_cell_angle_alpha   89.83599972
_cell_angle_beta   90.00000000
_cell_angle_gamma   90.00000000
_symmetry_Int_Tables_number   1
_chemical_formula_structural   Li3Mn2Fe(BO3)3
_chemical_formula_sum   'Li6 Mn4 Fe2 B6 O18'
_cell_volume   375.97639791
_cell_formula_units_Z   2
loop_
 _symmetry_equiv_pos_site_id
 _symmetry_equiv_pos_as_xyz
  1  'x, y, z'
loop_
 _atom_site_type_symbol
 _atom_site_label
 _atom_site_symmetry_multiplicity
 _atom_site_fract_x
 _atom_site_fract_y
 _atom_site_fract_z
 _atom_site_occupancy
  Li  Li0  1  0.50000000  0.70769200  0.00749600  1
  Li  Li1  1  0.50000000  0.66161500  0.64145400  1
  Li  Li2  1  0.50000000  0.63491200  0.35012700  1
  Li  Li3  1  0.50000000  0.20713500  0.50920500  1
  Li  Li4  1  0.50000000  0.15829800  0.14210200  1
  Li  Li5  1  0.50000000  0.13200200  0.84851700  1
  Mn  Mn0  1  0.00000000  0.82582100  0.18609200  1
  Mn  Mn1  1  0.00000000  0.36616200  0.99404900  1
  Mn  Mn2  1  0.00000000  0.32619000  0.68572300  1
  Mn  Mn3  1  0.00000000  0.30865200  0.32047000  1
  Fe  Fe0  1  0.00000000  0.86285100  0.49632800  1
  Fe  Fe1  1  0.00000000  0.81269100  0.82051700  1
  B  B0  1  0.50000000  0.99944800  0.33511200  1
  B  B1  1  0.00000000  0.99803800  0.99951800  1
  B  B2  1  0.50000000  0.99792600  0.66669600  1
  B  B3  1  0.50000000  0.50218400  0.83263700  1
  B  B4  1  0.00000000  0.50150500  0.49921600  1
  B  B5  1  0.50000000  0.49986100  0.16669000  1
  O  O0  1  0.50000000  0.98531100  0.56973300  1
  O  O1  1  0.50000000  0.98481500  0.23803900  1
  O  O2  1  0.50000000  0.86256100  0.39175300  1
  O  O3  1  0.50000000  0.85930500  0.72209700  1
  O  O4  1  0.00000000  0.84468100  0.03964700  1
  O  O5  1  0.50000000  0.65498300  0.87287600  1
  O  O6  1  0.50000000  0.64969900  0.21026200  1
  O  O7  1  0.00000000  0.63906800  0.55554900  1
  O  O8  1  0.00000000  0.51852700  0.40256800  1
  O  O9  1  0.50000000  0.49043700  0.06975100  1
  O  O10  1  0.50000000  0.48625000  0.73575000  1
  O  O11  1  0.50000000  0.36339200  0.88849600  1
  O  O12  1  0.50000000  0.35904200  0.21979800  1
  O  O13  1  0.00000000  0.34784700  0.53965300  1
  O  O14  1  0.50000000  0.15268600  0.37531300  1
  O  O15  1  0.50000000  0.14943800  0.70841500  1
  O  O16  1  0.00000000  0.13513600  0.05601000  1
  O  O17  1  0.00000000  0.01384200  0.90234400  1
loop_
_geom_bond_atom_site_label_1
_geom_bond_atom_site_label_2
_geom_bond_distance
_geom_bond_site_symmetry_2
Li0 O5 1.978263 1_554
Li0 O9 2.003724 1_555
Li0 O4 2.004114 1_655
Li0 O4 2.004114 1_555
Li1 O10 1.979154 1_555
Li1 O3 2.004672 1_555
Li1 O7 2.016930 1_655
Li1 O7 2.016930 1_555
Li2 O2 1.976644 1_555
Li2 O8 2.001103 1_655
Li2 O8 2.001103 1_555
Li2 O6 2.006896 1_555
Li3 O14 1.971370 1_555
Li3 O13 2.016244 1_555
Li3 O13 2.016244 1_655
Li3 O0 2.026993 1_545
Li4 O1 1.983966 1_545
Li4 O12 2.001491 1_555
Li4 O16 2.019052 1_555
Li4 O16 2.019052 1_655
Li5 O11 1.999216 1_555
Li5 O15 2.011673 1_555
Li5 O17 2.015674 1_555
Li5 O17 2.015674 1_655
Mn0 O4 2.103118 1_555
Mn0 O6 2.180953 1_455
Mn0 O6 2.180953 1_555
Mn0 O1 2.192314 1_455
Mn0 O1 2.192314 1_555
Mn1 O16 2.104561 1_556
Mn1 O9 2.180931 1_556
Mn1 O9 2.180931 1_456
Mn1 O11 2.191926 1_555
Mn1 O11 2.191926 1_455
Mn2 O13 2.099542 1_555
Mn2 O15 2.181219 1_455
Mn2 O15 2.181219 1_555
Mn2 O10 2.188415 1_455
Mn2 O10 2.188415 1_555
Mn3 O8 2.099498 1_555
Mn3 O12 2.183466 1_555
Mn3 O12 2.183466 1_455
Mn3 O14 2.189305 1_455
Mn3 O14 2.189305 1_555
Fe0 O7 2.033819 1_555
Fe0 O0 2.157606 1_455
Fe0 O0 2.157606 1_555
Fe0 O2 2.182126 1_455
Fe0 O2 2.182126 1_555
Fe1 O17 2.037881 1_565
Fe1 O3 2.156571 1_455
Fe1 O3 2.156571 1_555
Fe1 O5 2.185405 1_555
Fe1 O5 2.185405 1_455
B0 O2 1.390996 1_555
B0 O14 1.393604 1_565
B0 O1 1.396138 1_555
B1 O4 1.391075 1_556
B1 O16 1.394947 1_566
B1 O17 1.397734 1_565
B2 O15 1.389883 1_565
B2 O3 1.392513 1_555
B2 O0 1.393171 1_555
B3 O5 1.390525 1_555
B3 O10 1.394490 1_555
B3 O11 1.397406 1_555
B4 O8 1.391187 1_555
B4 O13 1.395157 1_555
B4 O7 1.396759 1_555
B5 O6 1.389186 1_555
B5 O12 1.389313 1_555
B5 O9 1.391025 1_555
