# generated using pymatgen
data_Li2Si5Ni5O16
_symmetry_space_group_name_H-M   'P 1'
_cell_length_a   4.92555300
_cell_length_b   7.00786152
_cell_length_c   10.06297120
_cell_angle_alpha   89.23726447
_cell_angle_beta   89.96751730
_cell_angle_gamma   89.95136957
_symmetry_Int_Tables_number   1
_chemical_formula_structural   Li2Si5Ni5O16
_chemical_formula_sum   'Li2 Si5 Ni5 O16'
_cell_volume   347.31859160
_cell_formula_units_Z   1
loop_
 _symmetry_equiv_pos_site_id
 _symmetry_equiv_pos_as_xyz
  1  'x, y, z'
loop_
 _atom_site_type_symbol
 _atom_site_label
 _atom_site_symmetry_multiplicity
 _atom_site_fract_x
 _atom_site_fract_y
 _atom_site_fract_z
 _atom_site_occupancy
  Li  Li0  1  0.33983500  0.50343200  0.33816800  1
  Li  Li1  1  0.81721400  0.99746300  0.14335800  1
  Si  Si0  1  0.30357400  0.98797500  0.33623600  1
  Si  Si1  1  0.17992900  0.76600800  0.59250900  1
  Si  Si2  1  0.33292000  0.74103500  0.09851400  1
  Si  Si3  1  0.68504300  0.25859000  0.90906900  1
  Si  Si4  1  0.79749000  0.23250400  0.40681400  1
  Ni  Ni0  1  0.19166400  0.01250400  0.85571900  1
  Ni  Ni1  1  0.19550700  0.51647300  0.84743500  1
  Ni  Ni2  1  0.69678200  0.49787300  0.64417800  1
  Ni  Ni3  1  0.81714200  0.49604000  0.15168800  1
  Ni  Ni4  1  0.68996300  0.99950400  0.66156300  1
  O  O0  1  0.29341800  0.95277200  0.66952400  1
  O  O1  1  0.21261400  0.93283800  0.18471700  1
  O  O2  1  0.23033000  0.76325600  0.94387000  1
  O  O3  1  0.84964300  0.75412000  0.60602600  1
  O  O4  1  0.65825400  0.75115000  0.11712900  1
  O  O5  1  0.26506400  0.79570900  0.43166300  1
  O  O6  1  0.30348400  0.56616700  0.65186300  1
  O  O7  1  0.20864100  0.54852000  0.16466000  1
  O  O8  1  0.72355300  0.43493400  0.34042800  1
  O  O9  1  0.80533800  0.44994200  0.83143400  1
  O  O10  1  0.35423300  0.26428400  0.88219100  1
  O  O11  1  0.73500200  0.24174600  0.56530300  1
  O  O12  1  0.12105000  0.17222100  0.38145100  1
  O  O13  1  0.77131900  0.24909700  0.06414600  1
  O  O14  1  0.62402000  0.05268900  0.33984100  1
  O  O15  1  0.79697600  0.06115700  0.84050700  1
loop_
_geom_bond_atom_site_label_1
_geom_bond_atom_site_label_2
_geom_bond_distance
_geom_bond_site_symmetry_2
Li0 O7 1.884727 1_555
Li0 O8 1.949704 1_555
Li0 O5 2.294715 1_555
Li0 O12 2.591375 1_555
Li1 O4 1.917518 1_555
Li1 O13 1.938614 1_565
Li1 O1 2.041012 1_655
Li1 O14 2.232094 1_565
Ni0 O2 1.957669 1_545
Ni0 O10 1.959732 1_555
Ni0 O15 1.979106 1_455
Ni0 O0 1.989104 1_545
Ni1 O10 1.959192 1_555
Ni1 O9 1.985065 1_455
Ni1 O2 2.001852 1_555
Ni1 O6 2.063536 1_555
Ni2 O3 1.980555 1_555
Ni2 O11 1.980982 1_555
Ni2 O9 1.983304 1_555
Ni2 O6 1.996762 1_555
Ni3 O13 1.965512 1_555
Ni3 O7 1.968145 1_655
Ni3 O4 1.977611 1_555
Ni3 O8 1.995206 1_555
Ni4 O15 1.931122 1_565
Ni4 O11 1.956010 1_565
Ni4 O3 1.977577 1_555
Ni4 O0 1.982141 1_555
O0 Si1 1.629368 1_555
O1 Si0 1.640606 1_555
O1 Si2 1.714473 1_555
O2 Si2 1.641824 1_556
O3 Si1 1.634543 1_655
O4 Si2 1.615192 1_555
O5 Si0 1.655086 1_555
O5 Si1 1.682083 1_555
O6 Si1 1.632509 1_555
O7 Si2 1.617074 1_555
O8 Si4 1.601719 1_555
O9 Si3 1.653040 1_555
O10 Si3 1.652231 1_555
O11 Si4 1.626253 1_555
O12 Si0 1.641831 1_545
O12 Si4 1.668770 1_455
O13 Si3 1.618093 1_554
O14 Si0 1.643157 1_545
O14 Si4 1.672500 1_555
O15 Si3 1.648627 1_555
