# generated using pymatgen
data_Fe6O7F5
_symmetry_space_group_name_H-M   'P 1'
_cell_length_a   5.62252300
_cell_length_b   5.62163973
_cell_length_c   7.34419627
_cell_angle_alpha   71.68381549
_cell_angle_beta   71.59789091
_cell_angle_gamma   71.50510991
_symmetry_Int_Tables_number   1
_chemical_formula_structural   Fe6O7F5
_chemical_formula_sum   'Fe6 O7 F5'
_cell_volume   202.88769678
_cell_formula_units_Z   1
loop_
 _symmetry_equiv_pos_site_id
 _symmetry_equiv_pos_as_xyz
  1  'x, y, z'
loop_
 _atom_site_type_symbol
 _atom_site_label
 _atom_site_symmetry_multiplicity
 _atom_site_fract_x
 _atom_site_fract_y
 _atom_site_fract_z
 _atom_site_occupancy
  Fe  Fe0  1  0.69253300  0.68132500  0.84193500  1
  Fe  Fe1  1  0.33846700  0.33833000  0.66851200  1
  Fe  Fe2  1  0.67947300  0.61735600  0.30998700  1
  Fe  Fe3  1  0.32854700  0.33121400  0.16357500  1
  Fe  Fe4  1  0.98366800  0.99385300  0.50660600  1
  Fe  Fe5  1  0.97231400  0.03718700  0.00511100  1
  O  O0  1  0.03973600  0.63819100  0.66374400  1
  O  O1  1  0.22836900  0.24179800  0.95721400  1
  O  O2  1  0.77308200  0.78748200  0.03737500  1
  O  O3  1  0.42703300  0.41592700  0.37724900  1
  O  O4  1  0.98159300  0.33588100  0.32926800  1
  O  O5  1  0.63493100  0.03523800  0.66978700  1
  O  O6  1  0.67991600  0.32851100  0.00552000  1
  F  F0  1  0.36797700  0.94713300  0.33681500  1
  F  F1  1  0.89813900  0.88314400  0.30220000  1
  F  F2  1  0.57677200  0.57210600  0.62168000  1
  F  F3  1  0.10221600  0.09881700  0.70324300  1
  F  F4  1  0.29523600  0.71650500  0.00017900  1
loop_
_geom_bond_atom_site_label_1
_geom_bond_atom_site_label_2
_geom_bond_distance
_geom_bond_site_symmetry_2
Fe0 O2 1.934362 1_556
Fe0 O0 1.966846 1_655
Fe0 O6 1.979906 1_556
Fe0 O5 1.982536 1_565
Fe1 O1 1.958201 1_555
Fe1 O0 1.966643 1_555
Fe1 O5 1.969688 1_555
Fe1 O3 1.973012 1_555
Fe2 O2 1.910684 1_555
Fe2 O4 1.927463 1_555
Fe2 O3 1.940682 1_555
Fe3 O4 1.943134 1_455
Fe3 O6 1.948010 1_555
Fe3 O1 2.015996 1_554
Fe3 O3 2.044910 1_555
Fe4 O5 1.933191 1_565
Fe4 O0 1.951507 1_655
Fe4 O4 1.953153 1_565
Fe5 O6 1.917473 1_555
Fe5 O2 1.975467 1_545
Fe5 O1 1.999012 1_654
F0 Fe4 2.106546 1_455
F0 Fe3 2.116053 1_565
F0 Fe2 2.120107 1_555
F1 Fe4 2.026101 1_555
F1 Fe5 2.037522 1_565
F1 Fe2 2.194249 1_555
F2 Fe1 2.045190 1_555
F2 Fe2 2.128595 1_555
F2 Fe0 2.227048 1_555
F3 Fe5 2.055219 1_456
F3 Fe4 2.066605 1_445
F3 Fe1 2.085041 1_555
F4 Fe3 2.101763 1_555
F4 Fe5 2.114400 1_465
F4 Fe0 2.145874 1_554
