# generated using pymatgen
data_Cu6OF11
_symmetry_space_group_name_H-M   'P 1'
_cell_length_a   3.20297665
_cell_length_b   10.26355441
_cell_length_c   6.37966956
_cell_angle_alpha   107.80330713
_cell_angle_beta   86.88185883
_cell_angle_gamma   86.69955229
_symmetry_Int_Tables_number   1
_chemical_formula_structural   Cu6OF11
_chemical_formula_sum   'Cu6 O1 F11'
_cell_volume   198.77754667
_cell_formula_units_Z   1
loop_
 _symmetry_equiv_pos_site_id
 _symmetry_equiv_pos_as_xyz
  1  'x, y, z'
loop_
 _atom_site_type_symbol
 _atom_site_label
 _atom_site_symmetry_multiplicity
 _atom_site_fract_x
 _atom_site_fract_y
 _atom_site_fract_z
 _atom_site_occupancy
  Cu  Cu0  1  0.49946264  0.66478382  0.83218968  1
  Cu  Cu1  1  0.48620007  0.00066007  0.47956867  1
  Cu  Cu2  1  0.50202502  0.33575116  0.16790470  1
  Cu  Cu3  1  0.00064751  0.66940217  0.33437757  1
  Cu  Cu4  1  -0.00042967  0.33135473  0.66557620  1
  Cu  Cu5  1  0.00242380  0.00121453  0.01184192  1
  O  O0  1  -0.00560918  0.99383313  0.29800116  1
  F  F0  1  0.96804924  0.66331033  0.62911292  1
  F  F1  1  -0.02682869  0.33311089  0.96380345  1
  F  F2  1  0.45799616  0.86172719  0.92577765  1
  F  F3  1  0.52972879  0.46820345  0.73517856  1
  F  F4  1  0.52305494  0.80228018  0.40526234  1
  F  F5  1  0.47251799  0.19698715  0.59845591  1
  F  F6  1  0.47207887  0.53193199  0.26400524  1
  F  F7  1  0.54809881  0.13957580  0.07613160  1
  F  F8  1  0.02835515  0.66624965  0.03517403  1
  F  F9  1  0.00818962  0.00216047  0.70608815  1
  F  F10  1  0.03403893  0.33746528  0.37154824  1
loop_
_geom_bond_atom_site_label_1
_geom_bond_atom_site_label_2
_geom_bond_distance
_geom_bond_site_symmetry_2
Cu0 F3 1.915873 1_555
Cu0 F2 1.918957 1_555
Cu0 F0 1.924888 1_555
Cu0 F8 1.930542 1_556
Cu0 F8 2.185543 1_656
Cu0 F0 2.192432 1_455
Cu1 F5 1.920708 1_555
Cu1 O0 1.930871 1_645
Cu1 F4 1.939151 1_545
Cu1 O0 1.997416 1_545
Cu1 F9 2.043456 1_555
Cu1 F9 2.266303 1_655
Cu2 F7 1.911570 1_555
Cu2 F6 1.912015 1_555
Cu2 F10 1.925136 1_555
Cu2 F1 1.932210 1_654
Cu2 F1 2.188418 1_554
Cu2 F10 2.195952 1_655
Cu3 F8 1.896309 1_555
Cu3 F0 1.897808 1_455
Cu3 F4 1.926625 1_455
Cu3 F6 1.940600 1_555
Cu3 F4 2.198225 1_555
Cu3 F6 2.242520 1_455
Cu4 F10 1.893399 1_555
Cu4 F1 1.894381 1_555
Cu4 F5 1.925555 1_555
Cu4 F3 1.933180 1_455
Cu4 F5 2.218253 1_455
Cu4 F3 2.242479 1_555
Cu5 O0 1.849030 1_545
Cu5 F7 1.908767 1_455
Cu5 F2 1.916222 1_544
Cu5 F9 1.952688 1_554
Cu5 F7 2.290677 1_555
Cu5 F2 2.302779 1_444
