# generated using pymatgen
data_Li2Mn3CuO8
_symmetry_space_group_name_H-M   'P 1'
_cell_length_a   8.38357575
_cell_length_b   8.30052138
_cell_length_c   8.33339297
_cell_angle_alpha   89.89732798
_cell_angle_beta   90.22882249
_cell_angle_gamma   90.08057196
_symmetry_Int_Tables_number   1
_chemical_formula_structural   Li2Mn3CuO8
_chemical_formula_sum   'Li8 Mn12 Cu4 O32'
_cell_volume   579.89844120
_cell_formula_units_Z   4
loop_
 _symmetry_equiv_pos_site_id
 _symmetry_equiv_pos_as_xyz
  1  'x, y, z'
loop_
 _atom_site_type_symbol
 _atom_site_label
 _atom_site_symmetry_multiplicity
 _atom_site_fract_x
 _atom_site_fract_y
 _atom_site_fract_z
 _atom_site_occupancy
  Li  Li0  1  0.00526100  0.00603000  0.00463600  1
  Li  Li1  1  0.24669500  0.24327000  0.24262800  1
  Li  Li2  1  0.25542200  0.75435900  0.74568000  1
  Li  Li3  1  0.49544000  0.99252000  0.50682700  1
  Li  Li4  1  0.50344600  0.49586900  0.99570400  1
  Li  Li5  1  0.74446300  0.25733500  0.75716200  1
  Li  Li6  1  0.75412000  0.74364100  0.25412800  1
  Li  Li7  1  0.99461000  0.50740700  0.49359800  1
  Mn  Mn0  1  0.11916400  0.12916300  0.62779000  1
  Mn  Mn1  1  0.12816400  0.38323200  0.87059300  1
  Mn  Mn2  1  0.13322600  0.62595100  0.11788700  1
  Mn  Mn3  1  0.36893800  0.37873200  0.62065300  1
  Mn  Mn4  1  0.37671200  0.62150300  0.36737400  1
  Mn  Mn5  1  0.38183400  0.86712200  0.12170300  1
  Mn  Mn6  1  0.61635900  0.37054900  0.37117600  1
  Mn  Mn7  1  0.62292500  0.12001300  0.12865700  1
  Mn  Mn8  1  0.63118500  0.87075500  0.88332300  1
  Mn  Mn9  1  0.86780800  0.12372700  0.37973100  1
  Mn  Mn10  1  0.87447000  0.87902900  0.63219600  1
  Mn  Mn11  1  0.88068400  0.63000200  0.87853800  1
  Cu  Cu0  1  0.12318400  0.87493000  0.37235200  1
  Cu  Cu1  1  0.37309900  0.12316700  0.87542100  1
  Cu  Cu2  1  0.62286500  0.62552000  0.62687900  1
  Cu  Cu3  1  0.87485300  0.37668200  0.12650000  1
  O  O0  1  0.09988200  0.11510700  0.39238400  1
  O  O1  1  0.10340500  0.90034100  0.63352300  1
  O  O2  1  0.11514200  0.61802700  0.88293700  1
  O  O3  1  0.12574200  0.15284600  0.85910000  1
  O  O4  1  0.14037300  0.39564500  0.09749900  1
  O  O5  1  0.13373700  0.36628200  0.63174700  1
  O  O6  1  0.14301600  0.63540000  0.35012500  1
  O  O7  1  0.15455900  0.85838600  0.11632600  1
  O  O8  1  0.35057400  0.14257300  0.63502900  1
  O  O9  1  0.35531200  0.38991500  0.84627700  1
  O  O10  1  0.36603500  0.63310500  0.13332000  1
  O  O11  1  0.37512800  0.61110200  0.59604300  1
  O  O12  1  0.38141700  0.85102000  0.35339900  1
  O  O13  1  0.38211100  0.38239500  0.38505200  1
  O  O14  1  0.39108900  0.09858200  0.11446300  1
  O  O15  1  0.40609000  0.86015200  0.89239800  1
  O  O16  1  0.60046800  0.38500300  0.60717500  1
  O  O17  1  0.60360700  0.59772600  0.36112900  1
  O  O18  1  0.61722000  0.88391400  0.11724000  1
  O  O19  1  0.60951300  0.34599300  0.14287500  1
  O  O20  1  0.62428800  0.10517000  0.89856700  1
  O  O21  1  0.63345500  0.13328700  0.36704000  1
  O  O22  1  0.64170200  0.86498000  0.65141800  1
  O  O23  1  0.65625000  0.64052300  0.88928300  1
  O  O24  1  0.84812300  0.35933300  0.36716200  1
  O  O25  1  0.85437000  0.12806400  0.14916400  1
  O  O26  1  0.86620200  0.86661200  0.86784700  1
  O  O27  1  0.86850900  0.89195300  0.40333400  1
  O  O28  1  0.87468300  0.64828800  0.64625500  1
  O  O29  1  0.88355100  0.11766200  0.61596100  1
  O  O30  1  0.89482300  0.39786000  0.88399800  1
  O  O31  1  0.90469300  0.62238700  0.11093300  1
loop_
_geom_bond_atom_site_label_1
_geom_bond_atom_site_label_2
_geom_bond_distance
_geom_bond_site_symmetry_2
Li0 O7 1.981354 1_545
Li0 O3 1.994307 1_554
Li0 O26 1.997011 1_444
Li0 O25 2.024116 1_455
Li1 O4 1.961119 1_555
Li1 O13 2.005383 1_555
Li1 O14 2.016807 1_555
Li1 O0 2.051316 1_555
Li2 O15 1.962123 1_555
Li2 O1 1.989179 1_555
Li2 O2 1.993576 1_555
Li2 O11 1.998688 1_555
Li3 O12 1.980027 1_555
Li3 O21 2.015717 1_565
Li3 O22 2.015798 1_555
Li3 O8 2.046238 1_565
Li4 O19 1.957407 1_556
Li4 O9 1.963385 1_555
Li4 O23 1.967281 1_555
Li4 O10 1.989675 1_556
Li5 O20 1.999875 1_555
Li5 O30 2.014049 1_555
Li5 O29 2.026828 1_555
Li5 O16 2.032081 1_555
Li6 O17 1.963436 1_555
Li6 O18 1.990668 1_555
Li6 O27 1.993452 1_555
Li6 O31 2.012551 1_555
Li7 O28 2.003883 1_555
Li7 O5 2.011544 1_655
Li7 O6 2.027262 1_655
Li7 O24 2.029551 1_555
Mn0 O1 1.904273 1_545
Mn0 O3 1.938503 1_555
Mn0 O8 1.943780 1_555
Mn0 O0 1.971387 1_555
Mn0 O5 1.972155 1_555
Mn0 O29 1.979522 1_455
Mn1 O4 1.896235 1_556
Mn1 O3 1.914967 1_555
Mn1 O9 1.916583 1_555
Mn1 O2 1.955045 1_555
Mn1 O30 1.963804 1_455
Mn1 O5 1.996353 1_555
Mn2 O31 1.916757 1_455
Mn2 O4 1.920538 1_555
Mn2 O7 1.937378 1_555
Mn2 O6 1.938466 1_555
Mn2 O10 1.956317 1_555
Mn2 O2 1.964400 1_554
Mn3 O9 1.886595 1_555
Mn3 O11 1.939943 1_555
Mn3 O16 1.945362 1_555
Mn3 O13 1.967078 1_555
Mn3 O8 1.969534 1_555
Mn3 O5 1.976909 1_555
Mn4 O11 1.907487 1_555
Mn4 O12 1.908821 1_555
Mn4 O17 1.913603 1_555
Mn4 O10 1.954368 1_555
Mn4 O6 1.967433 1_555
Mn4 O13 1.990482 1_555
Mn5 O7 1.907005 1_555
Mn5 O15 1.923468 1_554
Mn5 O14 1.923544 1_565
Mn5 O12 1.935212 1_555
Mn5 O10 1.949047 1_555
Mn5 O18 1.978590 1_555
Mn6 O17 1.890552 1_555
Mn6 O19 1.914397 1_555
Mn6 O24 1.945795 1_555
Mn6 O13 1.970302 1_555
Mn6 O21 1.975180 1_555
Mn6 O16 1.975583 1_555
Mn7 O19 1.883248 1_555
Mn7 O20 1.921685 1_554
Mn7 O25 1.948231 1_555
Mn7 O14 1.954620 1_555
Mn7 O18 1.962730 1_545
Mn7 O21 1.991388 1_555
Mn8 O15 1.890837 1_555
Mn8 O23 1.923389 1_555
Mn8 O22 1.935600 1_555
Mn8 O20 1.951089 1_565
Mn8 O18 1.956557 1_556
Mn8 O26 1.975365 1_555
Mn9 O25 1.924531 1_555
Mn9 O27 1.933538 1_545
Mn9 O0 1.949452 1_655
Mn9 O24 1.965406 1_555
Mn9 O21 1.968842 1_555
Mn9 O29 1.973048 1_555
Mn10 O27 1.910478 1_555
Mn10 O28 1.918644 1_555
Mn10 O1 1.927171 1_655
Mn10 O22 1.961917 1_555
Mn10 O26 1.967783 1_555
Mn10 O29 1.986525 1_565
Mn11 O23 1.886199 1_555
Mn11 O30 1.931152 1_555
Mn11 O28 1.941833 1_555
Mn11 O31 1.947194 1_556
Mn11 O2 1.968440 1_655
Mn11 O26 1.969740 1_555
Cu0 O6 2.004366 1_555
Cu0 O0 2.010721 1_565
Cu0 O7 2.155407 1_555
Cu0 O27 2.156526 1_455
Cu0 O12 2.180653 1_555
Cu0 O1 2.193970 1_555
Cu1 O14 2.007189 1_556
Cu1 O8 2.017585 1_555
Cu1 O3 2.092518 1_555
Cu1 O20 2.119366 1_555
Cu1 O15 2.205218 1_545
Cu1 O9 2.232125 1_555
Cu2 O22 2.004444 1_555
Cu2 O16 2.011907 1_555
Cu2 O11 2.095020 1_555
Cu2 O28 2.124840 1_555
Cu2 O23 2.207161 1_555
Cu2 O17 2.232176 1_555
Cu3 O24 2.023752 1_555
Cu3 O30 2.035724 1_554
Cu3 O31 2.058340 1_555
Cu3 O25 2.078873 1_555
Cu3 O19 2.243348 1_555
Cu3 O4 2.245321 1_655
