# generated using pymatgen
data_Li3Sn3(PO4)4
_symmetry_space_group_name_H-M   'P 1'
_cell_length_a   12.38892200
_cell_length_b   6.45693500
_cell_length_c   8.94404347
_cell_angle_alpha   76.45816536
_cell_angle_beta   90.00000000
_cell_angle_gamma   90.00000000
_symmetry_Int_Tables_number   1
_chemical_formula_structural   Li3Sn3(PO4)4
_chemical_formula_sum   'Li6 Sn6 P8 O32'
_cell_volume   695.58322295
_cell_formula_units_Z   2
loop_
 _symmetry_equiv_pos_site_id
 _symmetry_equiv_pos_as_xyz
  1  'x, y, z'
loop_
 _atom_site_type_symbol
 _atom_site_label
 _atom_site_symmetry_multiplicity
 _atom_site_fract_x
 _atom_site_fract_y
 _atom_site_fract_z
 _atom_site_occupancy
  Li  Li0  1  0.57744300  0.65370900  0.09035100  1
  Li  Li1  1  0.90097700  0.16047600  0.08346500  1
  Li  Li2  1  0.21254300  0.12082000  0.34235100  1
  Li  Li3  1  0.71254300  0.87918000  0.65764900  1
  Li  Li4  1  0.07744300  0.34629100  0.90964900  1
  Li  Li5  1  0.40097700  0.83952400  0.91653500  1
  Sn  Sn0  1  0.92929200  0.60246100  0.26461700  1
  Sn  Sn1  1  0.58506100  0.08804000  0.28233200  1
  Sn  Sn2  1  0.31223000  0.63570800  0.32213300  1
  Sn  Sn3  1  0.81223000  0.36429200  0.67786700  1
  Sn  Sn4  1  0.42929200  0.39753900  0.73538300  1
  Sn  Sn5  1  0.08506100  0.91196000  0.71766800  1
  P  P0  1  0.36774500  0.36065900  0.08825400  1
  P  P1  1  0.12502000  0.88214300  0.07959700  1
  P  P2  1  0.59742700  0.54866400  0.41567000  1
  P  P3  1  0.90873100  0.05403200  0.40199400  1
  P  P4  1  0.09742700  0.45133600  0.58433000  1
  P  P5  1  0.40873100  0.94596800  0.59800600  1
  P  P6  1  0.86774500  0.63934100  0.91174600  1
  P  P7  1  0.62502000  0.11785700  0.92040300  1
  O  O0  1  0.42950500  0.57133000  0.06961100  1
  O  O1  1  0.82886400  0.66848100  0.07450200  1
  O  O2  1  0.05006900  0.07312500  0.05122900  1
  O  O3  1  0.68330500  0.14589300  0.06912700  1
  O  O4  1  0.06445800  0.66217600  0.14184300  1
  O  O5  1  0.26657100  0.36923200  0.18817400  1
  O  O6  1  0.43872600  0.16409200  0.16471100  1
  O  O7  1  0.62396100  0.39859300  0.30652900  1
  O  O8  1  0.90884700  0.27908800  0.27972000  1
  O  O9  1  0.20962800  0.89969500  0.20466400  1
  O  O10  1  0.88364600  0.90095900  0.29005700  1
  O  O11  1  0.56875700  0.75502900  0.29144300  1
  O  O12  1  0.19213100  0.41708300  0.48370100  1
  O  O13  1  0.49471400  0.46479200  0.51383400  1
  O  O14  1  0.31733800  0.95442500  0.48379800  1
  O  O15  1  0.99471400  0.53520800  0.48616600  1
  O  O16  1  0.02301000  0.01140900  0.47082900  1
  O  O17  1  0.69213100  0.58291700  0.51629900  1
  O  O18  1  0.52301000  0.98859100  0.52917100  1
  O  O19  1  0.81733800  0.04557500  0.51620200  1
  O  O20  1  0.40884700  0.72091200  0.72028000  1
  O  O21  1  0.12396100  0.60140700  0.69347100  1
  O  O22  1  0.76657100  0.63076800  0.81182600  1
  O  O23  1  0.06875700  0.24497100  0.70855700  1
  O  O24  1  0.38364600  0.09904100  0.70994300  1
  O  O25  1  0.56445800  0.33782400  0.85815700  1
  O  O26  1  0.70962800  0.10030500  0.79533600  1
  O  O27  1  0.93872600  0.83590800  0.83528900  1
  O  O28  1  0.32886400  0.33151900  0.92549800  1
  O  O29  1  0.92950500  0.42867000  0.93038900  1
  O  O30  1  0.18330500  0.85410700  0.93087300  1
  O  O31  1  0.55006900  0.92687500  0.94877100  1
loop_
_geom_bond_atom_site_label_1
_geom_bond_atom_site_label_2
_geom_bond_distance
_geom_bond_site_symmetry_2
Li0 O0 1.929425 1_555
Li0 O31 1.945144 1_554
Li0 O11 2.055601 1_555
Li0 O7 2.300542 1_555
Li1 O29 1.971775 1_554
Li1 O2 1.972091 1_655
Li1 O8 2.075273 1_555
Li1 O10 2.195051 1_545
Li2 O14 1.950351 1_545
Li2 O5 1.971421 1_555
Li2 O9 2.092810 1_545
Li2 O12 2.540514 1_555
Li2 O16 2.636852 1_555
Li3 O19 1.950351 1_565
Li3 O22 1.971421 1_555
Li3 O26 2.092810 1_565
Li3 O17 2.540514 1_555
Li3 O18 2.636852 1_555
Li4 O29 1.929425 1_455
Li4 O2 1.945144 1_556
Li4 O23 2.055601 1_555
Li4 O21 2.300542 1_555
Li5 O0 1.971775 1_556
Li5 O31 1.972091 1_555
Li5 O20 2.075273 1_555
Li5 O24 2.195051 1_565
O0 P0 1.535385 1_555
O1 P6 1.585797 1_554
O1 Sn0 2.069210 1_555
O2 P1 1.516825 1_545
O3 P7 1.560887 1_554
O3 Sn1 2.218940 1_555
O4 P1 1.587412 1_555
O4 Sn0 1.990064 1_455
O5 P0 1.547907 1_555
O5 Sn2 2.383583 1_555
O6 P0 1.563775 1_555
O6 Sn1 2.095867 1_555
O7 P2 1.562974 1_555
O7 Sn1 2.122082 1_555
O8 P3 1.601085 1_555
O8 Sn0 2.076067 1_555
O9 P1 1.556347 1_555
O9 Sn2 2.187789 1_555
O10 P3 1.593497 1_565
O10 Sn0 2.071653 1_555
O11 P2 1.562966 1_555
O11 Sn1 2.142166 1_565
O12 P4 1.526034 1_555
O12 Sn2 2.310735 1_555
O13 P2 1.568672 1_555
O13 Sn4 2.090224 1_555
O14 P5 1.517333 1_555
O15 P4 1.568672 1_655
O15 Sn0 2.090224 1_555
O16 P3 1.542694 1_455
O16 Sn5 2.283311 1_545
O17 P2 1.526034 1_555
O17 Sn3 2.310735 1_555
O18 P5 1.542694 1_555
O18 Sn1 2.283311 1_565
O19 P3 1.517333 1_555
O20 P5 1.601085 1_555
O20 Sn4 2.076067 1_555
O21 P4 1.562974 1_555
O21 Sn5 2.122082 1_555
O22 P6 1.547907 1_555
O22 Sn3 2.383583 1_555
O23 P4 1.562966 1_555
O23 Sn5 2.142166 1_545
O24 P5 1.593497 1_545
O24 Sn4 2.071653 1_555
O25 P7 1.587412 1_555
O25 Sn4 1.990064 1_555
O26 P7 1.556347 1_555
O26 Sn3 2.187789 1_555
O27 P6 1.563775 1_555
O27 Sn5 2.095867 1_655
O28 P0 1.585797 1_556
O28 Sn4 2.069210 1_555
O29 P6 1.535385 1_555
O30 P1 1.560887 1_556
O30 Sn5 2.218940 1_555
O31 P7 1.516825 1_565
