# generated using pymatgen
data_Li3Fe(NiO3)2
_symmetry_space_group_name_H-M   'P 1'
_cell_length_a   6.68550973
_cell_length_b   6.68550973
_cell_length_c   5.86465844
_cell_angle_alpha   76.48902906
_cell_angle_beta   76.48902906
_cell_angle_gamma   25.18003512
_symmetry_Int_Tables_number   1
_chemical_formula_structural   Li3Fe(NiO3)2
_chemical_formula_sum   'Li3 Fe1 Ni2 O6'
_cell_volume   108.28288869
_cell_formula_units_Z   1
loop_
 _symmetry_equiv_pos_site_id
 _symmetry_equiv_pos_as_xyz
  1  'x, y, z'
loop_
 _atom_site_type_symbol
 _atom_site_label
 _atom_site_symmetry_multiplicity
 _atom_site_fract_x
 _atom_site_fract_y
 _atom_site_fract_z
 _atom_site_occupancy
  Li  Li0  1  0.50000000  0.50000000  0.50000000  1
  Li  Li1  1  0.16827600  0.16827600  0.17167600  1
  Li  Li2  1  0.83172400  0.83172400  0.82832400  1
  Fe  Fe0  1  0.50000000  0.50000000  0.00000000  1
  Ni  Ni0  1  0.83391500  0.83391500  0.33444200  1
  Ni  Ni1  1  0.16608500  0.16608500  0.66555800  1
  O  O0  1  0.66188400  0.66188400  0.89967700  1
  O  O1  1  0.33811600  0.33811600  0.10032300  1
  O  O2  1  0.00065500  0.00065500  0.76306200  1
  O  O3  1  0.32919700  0.32919700  0.56526200  1
  O  O4  1  0.99934500  0.99934500  0.23693800  1
  O  O5  1  0.67080300  0.67080300  0.43473800  1
loop_
_geom_bond_atom_site_label_1
_geom_bond_atom_site_label_2
_geom_bond_distance
_geom_bond_site_symmetry_2
Li0 O4 2.123708 1_455
Li0 O4 2.123708 1_545
Li0 O2 2.123708 1_655
Li0 O2 2.123708 1_565
Li0 O3 2.169338 1_555
Li0 O5 2.169338 1_555
Li1 O5 2.128190 1_545
Li1 O5 2.128190 1_455
Li1 O4 2.145275 1_445
Li1 O1 2.154805 1_555
Li1 O0 2.176896 1_454
Li1 O0 2.176896 1_544
Li2 O3 2.128190 1_565
Li2 O3 2.128190 1_655
Li2 O2 2.145275 1_665
Li2 O0 2.154805 1_555
Li2 O1 2.176896 1_656
Li2 O1 2.176896 1_566
Fe0 O2 2.012182 1_654
Fe0 O2 2.012182 1_564
Fe0 O4 2.012182 1_545
Fe0 O4 2.012182 1_455
Fe0 O1 2.052748 1_555
Fe0 O0 2.052748 1_554
Ni0 O3 1.979887 1_655
Ni0 O3 1.979887 1_565
Ni0 O1 1.993937 1_565
Ni0 O1 1.993937 1_655
Ni0 O5 2.068139 1_555
Ni0 O4 2.096734 1_555
Ni1 O5 1.979887 1_545
Ni1 O5 1.979887 1_455
Ni1 O0 1.993937 1_545
Ni1 O0 1.993937 1_455
Ni1 O3 2.068139 1_555
Ni1 O2 2.096734 1_555
