# generated using pymatgen
data_LiMnBO3
_symmetry_space_group_name_H-M   'P 1'
_cell_length_a   6.44040800
_cell_length_b   8.29867826
_cell_length_c   8.29197346
_cell_angle_alpha   59.98768628
_cell_angle_beta   90.00060041
_cell_angle_gamma   90.00049840
_symmetry_Int_Tables_number   1
_chemical_formula_structural   LiMnBO3
_chemical_formula_sum   'Li6 Mn6 B6 O18'
_cell_volume   383.75755828
_cell_formula_units_Z   6
loop_
 _symmetry_equiv_pos_site_id
 _symmetry_equiv_pos_as_xyz
  1  'x, y, z'
loop_
 _atom_site_type_symbol
 _atom_site_label
 _atom_site_symmetry_multiplicity
 _atom_site_fract_x
 _atom_site_fract_y
 _atom_site_fract_z
 _atom_site_occupancy
  Li  Li0  1  0.99998500  0.37559900  0.96888300  1
  Li  Li1  1  0.50002300  0.37559400  0.96888800  1
  Li  Li2  1  0.00003100  0.65588400  0.37546200  1
  Li  Li3  1  0.49996800  0.65588200  0.37547300  1
  Li  Li4  1  0.00000600  0.96879700  0.65580100  1
  Li  Li5  1  0.49999800  0.96879700  0.65580400  1
  Mn  Mn0  1  0.74998400  0.29037700  0.67158300  1
  Mn  Mn1  1  0.75002400  0.03851200  0.29026600  1
  Mn  Mn2  1  0.24998100  0.67098400  0.03884100  1
  Mn  Mn3  1  0.25000600  0.29033700  0.67165700  1
  Mn  Mn4  1  0.24999300  0.03848900  0.29020500  1
  Mn  Mn5  1  0.74996700  0.67093900  0.03898100  1
  B  B0  1  0.25000300  0.33325500  0.33325800  1
  B  B1  1  0.75000200  0.33323200  0.33327800  1
  B  B2  1  0.99998600  0.99997200  0.99989600  1
  B  B3  1  0.50000000  0.99997400  0.99990800  1
  B  B4  1  0.25000900  0.66668500  0.66660900  1
  B  B5  1  0.75000800  0.66666500  0.66664500  1
  O  O0  1  0.99998500  0.10358200  0.80668900  1
  O  O1  1  0.50000900  0.10356400  0.80670500  1
  O  O2  1  0.99998400  0.08954300  0.10354400  1
  O  O3  1  0.50002500  0.08954000  0.10356000  1
  O  O4  1  0.00000900  0.80683300  0.08958700  1
  O  O5  1  0.49995300  0.80683100  0.08959200  1
  O  O6  1  0.25000100  0.14775000  0.47261000  1
  O  O7  1  0.74999500  0.14776500  0.47270500  1
  O  O8  1  0.25000100  0.47260600  0.37952300  1
  O  O9  1  0.75000900  0.47265900  0.37944700  1
  O  O10  1  0.25000200  0.37983200  0.14737600  1
  O  O11  1  0.75000300  0.37973000  0.14742300  1
  O  O12  1  0.25000900  0.47283400  0.77015600  1
  O  O13  1  0.75000500  0.47281600  0.77014100  1
  O  O14  1  0.25001300  0.77012700  0.75706200  1
  O  O15  1  0.75000800  0.77004900  0.75717000  1
  O  O16  1  0.25000600  0.75697100  0.47262200  1
  O  O17  1  0.75001100  0.75698800  0.47265700  1
loop_
_geom_bond_atom_site_label_1
_geom_bond_atom_site_label_2
_geom_bond_distance
_geom_bond_site_symmetry_2
Li0 O2 2.056809 1_556
Li0 O13 2.151423 1_555
Li0 O12 2.151577 1_655
Li0 O11 2.199041 1_556
Li0 O10 2.199216 1_656
Li1 O3 2.056791 1_556
Li1 O13 2.151471 1_555
Li1 O12 2.151537 1_555
Li1 O11 2.198995 1_556
Li1 O10 2.199244 1_556
Li2 O4 2.053724 1_555
Li2 O16 2.149596 1_555
Li2 O17 2.150083 1_455
Li2 O8 2.203425 1_555
Li2 O9 2.203559 1_455
Li3 O5 2.053766 1_555
Li3 O16 2.149514 1_555
Li3 O17 2.150128 1_555
Li3 O8 2.203411 1_555
Li3 O9 2.203686 1_555
Li4 O0 2.053415 1_465
Li4 O14 2.151968 1_555
Li4 O15 2.152292 1_455
Li4 O7 2.201764 1_465
Li4 O6 2.201930 1_565
Li5 O1 2.053384 1_565
Li5 O14 2.151853 1_555
Li5 O15 2.152358 1_555
Li5 O7 2.201712 1_565
Li5 O6 2.201944 1_565
Mn0 O13 2.048866 1_555
Mn0 O9 2.119080 1_555
Mn0 O1 2.124394 1_555
Mn0 O0 2.124432 1_555
Mn0 O7 2.464257 1_555
Mn1 O17 2.052031 1_545
Mn1 O7 2.117217 1_555
Mn1 O2 2.124210 1_555
Mn1 O3 2.124302 1_555
Mn1 O11 2.462926 1_555
Mn2 O14 2.052581 1_554
Mn2 O10 2.114843 1_555
Mn2 O5 2.124714 1_555
Mn2 O4 2.124727 1_555
Mn2 O8 2.457253 1_555
Mn3 O12 2.048941 1_555
Mn3 O8 2.119052 1_555
Mn3 O0 2.124273 1_455
Mn3 O1 2.124279 1_555
Mn3 O6 2.465363 1_555
Mn4 O16 2.052029 1_545
Mn4 O6 2.117007 1_555
Mn4 O2 2.124080 1_455
Mn4 O3 2.124132 1_555
Mn4 O10 2.463880 1_555
Mn5 O15 2.052876 1_554
Mn5 O11 2.115395 1_555
Mn5 O5 2.124638 1_555
Mn5 O4 2.124745 1_655
Mn5 O9 2.455717 1_555
B0 O6 1.387655 1_555
B0 O8 1.388633 1_555
B0 O10 1.388924 1_555
B1 O7 1.387609 1_555
B1 O9 1.388694 1_555
B1 O11 1.388888 1_555
B2 O0 1.388491 1_565
B2 O4 1.389103 1_656
B2 O2 1.389337 1_566
B3 O1 1.388456 1_565
B3 O5 1.389134 1_556
B3 O3 1.389331 1_566
B4 O16 1.393957 1_555
B4 O12 1.394053 1_555
B4 O14 1.394112 1_555
B5 O17 1.393952 1_555
B5 O13 1.394023 1_555
B5 O15 1.394191 1_555
