# generated using pymatgen
data_Li3VB4O9
_symmetry_space_group_name_H-M   'P 1'
_cell_length_a   8.76149900
_cell_length_b   5.78345200
_cell_length_c   6.74984778
_cell_angle_alpha   77.58904686
_cell_angle_beta   90.00000000
_cell_angle_gamma   90.00000000
_symmetry_Int_Tables_number   1
_chemical_formula_structural   Li3VB4O9
_chemical_formula_sum   'Li6 V2 B8 O18'
_cell_volume   334.03358040
_cell_formula_units_Z   2
loop_
 _symmetry_equiv_pos_site_id
 _symmetry_equiv_pos_as_xyz
  1  'x, y, z'
loop_
 _atom_site_type_symbol
 _atom_site_label
 _atom_site_symmetry_multiplicity
 _atom_site_fract_x
 _atom_site_fract_y
 _atom_site_fract_z
 _atom_site_occupancy
  Li  Li0  1  0.43418000  0.76366500  0.16452700  1
  Li  Li1  1  0.06582000  0.76366500  0.16452700  1
  Li  Li2  1  0.75000000  0.58177900  0.47585300  1
  Li  Li3  1  0.25000000  0.41822100  0.52414700  1
  Li  Li4  1  0.93418000  0.23633500  0.83547300  1
  Li  Li5  1  0.56582000  0.23633500  0.83547300  1
  V  V0  1  0.75000000  0.74414300  0.88469900  1
  V  V1  1  0.25000000  0.25585700  0.11530100  1
  B  B0  1  0.75000000  0.98094300  0.23241900  1
  B  B1  1  0.25000000  0.86720600  0.46276200  1
  B  B2  1  0.45225800  0.72468400  0.72023100  1
  B  B3  1  0.04774200  0.72468400  0.72023100  1
  B  B4  1  0.95225800  0.27531600  0.27976900  1
  B  B5  1  0.54774200  0.27531600  0.27976900  1
  B  B6  1  0.75000000  0.13279400  0.53723800  1
  B  B7  1  0.25000000  0.01905700  0.76758100  1
  O  O0  1  0.39238500  0.87015300  0.84270800  1
  O  O1  1  0.10761500  0.87015300  0.84270800  1
  O  O2  1  0.75000000  0.92374700  0.45295300  1
  O  O3  1  0.25000000  0.92022900  0.24327600  1
  O  O4  1  0.38667100  0.71219500  0.53705800  1
  O  O5  1  0.11332900  0.71219500  0.53705800  1
  O  O6  1  0.75000000  0.76179000  0.16249900  1
  O  O7  1  0.92121500  0.58823400  0.78652500  1
  O  O8  1  0.57878500  0.58823400  0.78652500  1
  O  O9  1  0.07878500  0.41176600  0.21347500  1
  O  O10  1  0.42121500  0.41176600  0.21347500  1
  O  O11  1  0.25000000  0.23821000  0.83750100  1
  O  O12  1  0.88667100  0.28780500  0.46294200  1
  O  O13  1  0.61332900  0.28780500  0.46294200  1
  O  O14  1  0.75000000  0.07977100  0.75672400  1
  O  O15  1  0.25000000  0.07625300  0.54704700  1
  O  O16  1  0.89238500  0.12984700  0.15729200  1
  O  O17  1  0.60761500  0.12984700  0.15729200  1
loop_
_geom_bond_atom_site_label_1
_geom_bond_atom_site_label_2
_geom_bond_distance
_geom_bond_site_symmetry_2
Li0 O3 1.978212 1_555
Li0 O10 1.993748 1_555
Li0 O0 2.157989 1_554
Li0 O4 2.502595 1_555
Li1 O3 1.978212 1_555
Li1 O9 1.993748 1_555
Li1 O1 2.157989 1_554
Li1 O5 2.502595 1_555
Li2 O2 1.950386 1_555
Li2 O13 2.096612 1_555
Li2 O12 2.096612 1_555
Li2 O6 2.147314 1_555
Li2 O8 2.585093 1_555
Li2 O7 2.585093 1_555
Li3 O15 1.950386 1_555
Li3 O4 2.096612 1_555
Li3 O5 2.096612 1_555
Li3 O11 2.147314 1_555
Li3 O9 2.585093 1_555
Li3 O10 2.585093 1_555
Li4 O14 1.978212 1_555
Li4 O7 1.993748 1_555
Li4 O16 2.157989 1_556
Li4 O12 2.502595 1_555
Li5 O14 1.978212 1_555
Li5 O8 1.993748 1_555
Li5 O17 2.157989 1_556
Li5 O13 2.502595 1_555
B0 O6 1.444409 1_555
B0 O2 1.453825 1_555
B0 O17 1.538614 1_565
B0 O16 1.538614 1_565
B1 O15 1.442577 1_565
B1 O3 1.446924 1_555
B1 O4 1.515196 1_555
B1 O5 1.515196 1_555
B2 O8 1.378450 1_555
B2 O4 1.379302 1_555
B2 O0 1.401922 1_555
B3 O7 1.378450 1_455
B3 O5 1.379302 1_555
B3 O1 1.401922 1_555
B4 O9 1.378450 1_655
B4 O12 1.379302 1_555
B4 O16 1.401922 1_555
B5 O10 1.378450 1_555
B5 O13 1.379302 1_555
B5 O17 1.401922 1_555
B6 O2 1.442577 1_545
B6 O14 1.446924 1_555
B6 O12 1.515196 1_555
B6 O13 1.515196 1_555
B7 O11 1.444409 1_555
B7 O15 1.453825 1_555
B7 O0 1.538614 1_545
B7 O1 1.538614 1_545
O3 V1 1.947629 1_565
O6 V0 1.899660 1_554
O7 V0 1.938893 1_555
O8 V0 1.938893 1_555
O9 V1 1.938893 1_555
O10 V1 1.938893 1_555
O11 V1 1.899660 1_556
O14 V0 1.947629 1_545
