# generated using pymatgen
data_Li4Ti3Cr3(SbO8)2
_symmetry_space_group_name_H-M   'P 1'
_cell_length_a   5.98354961
_cell_length_b   5.98354961
_cell_length_c   10.15504870
_cell_angle_alpha   89.72119810
_cell_angle_beta   89.72119810
_cell_angle_gamma   60.24338320
_symmetry_Int_Tables_number   1
_chemical_formula_structural   Li4Ti3Cr3(SbO8)2
_chemical_formula_sum   'Li4 Ti3 Cr3 Sb2 O16'
_cell_volume   315.63376063
_cell_formula_units_Z   1
loop_
 _symmetry_equiv_pos_site_id
 _symmetry_equiv_pos_as_xyz
  1  'x, y, z'
loop_
 _atom_site_type_symbol
 _atom_site_label
 _atom_site_symmetry_multiplicity
 _atom_site_fract_x
 _atom_site_fract_y
 _atom_site_fract_z
 _atom_site_occupancy
  Li  Li0  1  0.66563800  0.66563800  0.89816100  1
  Li  Li1  1  0.99945300  0.99945300  0.99187400  1
  Li  Li2  1  0.99972800  0.99972800  0.49601900  1
  Li  Li3  1  0.33309200  0.33309200  0.39297300  1
  Ti  Ti0  1  0.83263800  0.34546300  0.21759100  1
  Ti  Ti1  1  0.34546300  0.83263800  0.21759100  1
  Ti  Ti2  1  0.17187400  0.17187400  0.72291000  1
  Cr  Cr0  1  0.83120700  0.83120700  0.20697800  1
  Cr  Cr1  1  0.66180900  0.16965300  0.72074900  1
  Cr  Cr2  1  0.16965300  0.66180900  0.72074900  1
  Sb  Sb0  1  0.66942300  0.66942300  0.51096200  1
  Sb  Sb1  1  0.33627600  0.33627600  0.99288500  1
  O  O0  1  0.84795700  0.31466300  0.61082300  1
  O  O1  1  0.51069700  0.51069700  0.31552500  1
  O  O2  1  0.66163600  0.66163600  0.10664200  1
  O  O3  1  0.00091100  0.00091100  0.30749700  1
  O  O4  1  0.00235900  0.00235900  0.81240000  1
  O  O5  1  0.31466300  0.84795700  0.61082300  1
  O  O6  1  0.98051700  0.49902600  0.31531200  1
  O  O7  1  0.49902600  0.98051700  0.31531200  1
  O  O8  1  0.15614500  0.15614500  0.09656000  1
  O  O9  1  0.84401800  0.84401800  0.60981200  1
  O  O10  1  0.47694400  0.03245400  0.83721200  1
  O  O11  1  0.03245400  0.47694400  0.83721200  1
  O  O12  1  0.32886300  0.32886300  0.61368100  1
  O  O13  1  0.68550300  0.15895800  0.09607700  1
  O  O14  1  0.48308200  0.48308200  0.83743200  1
  O  O15  1  0.15895800  0.68550300  0.09607700  1
loop_
_geom_bond_atom_site_label_1
_geom_bond_atom_site_label_2
_geom_bond_distance
_geom_bond_site_symmetry_2
Li0 O14 1.991035 1_555
Li0 O11 2.002245 1_655
Li0 O10 2.002245 1_565
Li0 O2 2.117307 1_556
Li1 O4 1.822646 1_665
Li1 O15 1.941739 1_656
Li1 O13 1.941739 1_566
Li1 O8 1.944280 1_666
Li2 O3 1.914420 1_665
Li2 O9 1.977925 1_555
Li2 O0 2.011799 1_565
Li2 O5 2.011799 1_655
Li3 O1 1.995501 1_555
Li3 O7 1.996942 1_545
Li3 O6 1.996942 1_455
Li3 O12 2.241482 1_555
Cr0 O2 2.034500 1_555
Cr0 O3 2.036632 1_665
Cr0 O15 2.040905 1_655
Cr0 O13 2.040905 1_565
Cr0 O6 2.045661 1_555
Cr0 O7 2.045661 1_555
Cr1 O4 2.001283 1_655
Cr1 O14 2.020730 1_555
Cr1 O9 2.038390 1_545
Cr1 O10 2.043395 1_555
Cr1 O0 2.043867 1_555
Cr1 O12 2.045896 1_555
Cr2 O4 2.001283 1_565
Cr2 O14 2.020730 1_555
Cr2 O9 2.038390 1_455
Cr2 O11 2.043395 1_555
Cr2 O5 2.043867 1_555
Cr2 O12 2.045896 1_555
O0 Ti2 2.037243 1_655
O0 Sb0 2.101000 1_555
O1 Ti1 1.943657 1_555
O1 Ti0 1.943657 1_555
O1 Sb0 2.583605 1_555
O2 Ti0 1.991087 1_555
O2 Ti1 1.991087 1_555
O3 Ti1 2.006949 1_545
O3 Ti0 2.006949 1_455
O4 Ti2 1.971490 1_555
O5 Ti2 2.037243 1_565
O5 Sb0 2.101000 1_555
O6 Ti0 1.853775 1_555
O6 Sb0 2.559658 1_555
O7 Ti1 1.853775 1_555
O7 Sb0 2.559658 1_555
O8 Ti1 2.086777 1_545
O8 Ti0 2.086777 1_455
O8 Sb1 2.136095 1_554
O9 Sb0 2.072250 1_555
O10 Ti2 1.968493 1_555
O10 Sb1 2.237995 1_555
O11 Ti2 1.968493 1_555
O11 Sb1 2.237995 1_555
O12 Ti2 1.962331 1_555
O13 Sb1 2.097640 1_554
O13 Ti0 2.131287 1_555
O14 Sb1 2.185012 1_555
O15 Sb1 2.097640 1_554
O15 Ti1 2.131287 1_555
