# generated using pymatgen
data_Li3NbNi3O8
_symmetry_space_group_name_H-M   'P 1'
_cell_length_a   5.87155138
_cell_length_b   5.88269194
_cell_length_c   8.62539281
_cell_angle_alpha   90.41319205
_cell_angle_beta   90.00137654
_cell_angle_gamma   89.99808542
_symmetry_Int_Tables_number   1
_chemical_formula_structural   Li3NbNi3O8
_chemical_formula_sum   'Li6 Nb2 Ni6 O16'
_cell_volume   297.91787445
_cell_formula_units_Z   2
loop_
 _symmetry_equiv_pos_site_id
 _symmetry_equiv_pos_as_xyz
  1  'x, y, z'
loop_
 _atom_site_type_symbol
 _atom_site_label
 _atom_site_symmetry_multiplicity
 _atom_site_fract_x
 _atom_site_fract_y
 _atom_site_fract_z
 _atom_site_occupancy
  Li  Li0  1  0.50000200  0.49999200  0.00001000  1
  Li  Li1  1  0.00000200  0.99998500  0.50001400  1
  Li  Li2  1  0.24996800  0.25003600  0.75001500  1
  Li  Li3  1  0.74998200  0.75003300  0.25001400  1
  Li  Li4  1  0.75003500  0.25003700  0.75001500  1
  Li  Li5  1  0.25002300  0.75003400  0.25001300  1
  Nb  Nb0  1  0.99999900  0.00016300  0.00000400  1
  Nb  Nb1  1  0.50000000  0.50016400  0.49999900  1
  Ni  Ni0  1  0.00000000  0.49992000  0.49997600  1
  Ni  Ni1  1  0.74998300  0.75001300  0.75008200  1
  Ni  Ni2  1  0.25002200  0.75001100  0.75008400  1
  Ni  Ni3  1  0.50000000  0.99992900  0.99998900  1
  Ni  Ni4  1  0.24998100  0.25001400  0.25008300  1
  Ni  Ni5  1  0.75002500  0.25001200  0.25008500  1
  O  O0  1  0.50000600  0.50050600  0.26778200  1
  O  O1  1  0.00000600  0.00050900  0.76778300  1
  O  O2  1  0.49999800  0.49933100  0.73220100  1
  O  O3  1  0.99996600  0.99939700  0.23221900  1
  O  O4  1  0.00000200  0.48727500  0.28019000  1
  O  O5  1  0.50000100  0.98746200  0.78024300  1
  O  O6  1  0.00000200  0.51261700  0.71971700  1
  O  O7  1  0.50000200  0.01261900  0.21971600  1
  O  O8  1  0.26456100  0.22500000  0.00139500  1
  O  O9  1  0.76456600  0.72499800  0.50139100  1
  O  O10  1  0.73543900  0.22499900  0.00139200  1
  O  O11  1  0.23543300  0.72499600  0.50138800  1
  O  O12  1  0.26459400  0.77498900  0.99860200  1
  O  O13  1  0.76461200  0.27498200  0.49854900  1
  O  O14  1  0.73539600  0.77497900  0.99855000  1
  O  O15  1  0.23539400  0.27498000  0.49854600  1
loop_
_geom_bond_atom_site_label_1
_geom_bond_atom_site_label_2
_geom_bond_distance
_geom_bond_site_symmetry_2
Li0 O14 2.127843 1_554
Li0 O12 2.127866 1_554
Li0 O10 2.127956 1_555
Li0 O8 2.128038 1_555
Li0 O0 2.309619 1_555
Li0 O2 2.309933 1_554
Li1 O13 2.127803 1_465
Li1 O15 2.127872 1_565
Li1 O11 2.127914 1_555
Li1 O9 2.127995 1_455
Li1 O1 2.309593 1_565
Li1 O3 2.309815 1_455
Li2 O2 2.081568 1_555
Li2 O1 2.082217 1_555
Li2 O6 2.148046 1_555
Li2 O5 2.148209 1_545
Li2 O8 2.175992 1_556
Li2 O15 2.176713 1_555
Li3 O3 2.081650 1_555
Li3 O0 2.082275 1_555
Li3 O7 2.148123 1_565
Li3 O4 2.148879 1_655
Li3 O9 2.175964 1_555
Li3 O14 2.176673 1_554
Li4 O2 2.081518 1_555
Li4 O1 2.082184 1_655
Li4 O6 2.148125 1_655
Li4 O5 2.148296 1_545
Li4 O10 2.175973 1_556
Li4 O13 2.176693 1_555
Li5 O3 2.081873 1_455
Li5 O0 2.082235 1_555
Li5 O7 2.148193 1_565
Li5 O4 2.148968 1_555
Li5 O11 2.175954 1_555
Li5 O12 2.176223 1_554
Nb0 O3 2.002983 1_545
Nb0 O1 2.003013 1_654
Nb0 O10 2.040132 1_555
Nb0 O8 2.040212 1_655
Nb0 O12 2.041578 1_644
Nb0 O14 2.041720 1_544
Nb1 O2 2.002875 1_555
Nb1 O0 2.002978 1_555
Nb1 O11 2.040148 1_555
Nb1 O9 2.040218 1_555
Nb1 O13 2.041685 1_555
Nb1 O15 2.041733 1_555
Ni0 O6 1.896285 1_555
Ni0 O4 1.896663 1_555
Ni0 O15 1.913392 1_555
Ni0 O13 1.913422 1_455
Ni0 O9 1.914123 1_455
Ni0 O11 1.914174 1_555
Ni1 O5 2.041534 1_555
Ni1 O6 2.041694 1_655
Ni1 O1 2.084889 1_665
Ni1 O2 2.085611 1_555
Ni1 O14 2.148813 1_555
Ni1 O9 2.150747 1_555
Ni2 O5 2.041586 1_555
Ni2 O6 2.041750 1_555
Ni2 O1 2.084803 1_565
Ni2 O2 2.085502 1_555
Ni2 O12 2.149240 1_555
Ni2 O11 2.150788 1_555
Ni3 O7 1.896163 1_566
Ni3 O5 1.896285 1_555
Ni3 O14 1.913442 1_555
Ni3 O12 1.913506 1_555
Ni3 O8 1.914116 1_566
Ni3 O10 1.914175 1_566
Ni4 O4 2.040709 1_555
Ni4 O7 2.041701 1_555
Ni4 O0 2.084879 1_555
Ni4 O3 2.085455 1_445
Ni4 O15 2.148770 1_555
Ni4 O8 2.150720 1_555
Ni5 O4 2.040765 1_655
Ni5 O7 2.041761 1_555
Ni5 O0 2.084797 1_555
Ni5 O3 2.085077 1_545
Ni5 O13 2.148776 1_555
Ni5 O10 2.150761 1_555
