# generated using pymatgen
data_Mn6O7F5
_symmetry_space_group_name_H-M   'P 1'
_cell_length_a   4.68743315
_cell_length_b   4.68743315
_cell_length_c   9.22759955
_cell_angle_alpha   89.68740386
_cell_angle_beta   89.68740386
_cell_angle_gamma   86.18750760
_symmetry_Int_Tables_number   1
_chemical_formula_structural   Mn6O7F5
_chemical_formula_sum   'Mn6 O7 F5'
_cell_volume   202.29475880
_cell_formula_units_Z   1
loop_
 _symmetry_equiv_pos_site_id
 _symmetry_equiv_pos_as_xyz
  1  'x, y, z'
loop_
 _atom_site_type_symbol
 _atom_site_label
 _atom_site_symmetry_multiplicity
 _atom_site_fract_x
 _atom_site_fract_y
 _atom_site_fract_z
 _atom_site_occupancy
  Mn  Mn0  1  0.00327500  0.01279000  0.82494300  1
  Mn  Mn1  1  0.02361100  0.97638900  0.50000000  1
  Mn  Mn2  1  0.98721000  0.99672500  0.17505700  1
  Mn  Mn3  1  0.49402000  0.50598000  0.00000000  1
  Mn  Mn4  1  0.47102300  0.48109200  0.67422900  1
  Mn  Mn5  1  0.51890800  0.52897700  0.32577100  1
  O  O0  1  0.81891400  0.81487400  0.33781200  1
  O  O1  1  0.28645400  0.68778700  0.83389800  1
  O  O2  1  0.32065800  0.67934200  0.50000000  1
  O  O3  1  0.31221300  0.71354600  0.16610200  1
  O  O4  1  0.67479800  0.29757200  0.83278600  1
  O  O5  1  0.70242800  0.32520200  0.16721400  1
  O  O6  1  0.18512600  0.18108600  0.66218800  1
  F  F0  1  0.78289500  0.77811800  0.66364600  1
  F  F1  1  0.80821800  0.81833800  0.98836100  1
  F  F2  1  0.70670700  0.29329300  0.50000000  1
  F  F3  1  0.22188200  0.21710500  0.33635400  1
  F  F4  1  0.18166200  0.19178200  0.01163900  1
loop_
_geom_bond_atom_site_label_1
_geom_bond_atom_site_label_2
_geom_bond_distance
_geom_bond_site_symmetry_2
Mn0 O6 1.914936 1_555
Mn0 O1 1.954615 1_545
Mn0 O4 1.970892 1_455
Mn1 O2 1.902543 1_555
Mn1 O0 1.964255 1_455
Mn1 O6 1.964255 1_565
Mn2 O0 1.914936 1_555
Mn2 O3 1.954615 1_655
Mn2 O5 1.970892 1_565
Mn3 O3 1.978355 1_555
Mn3 O1 1.978355 1_554
Mn3 O4 1.986275 1_554
Mn3 O5 1.986275 1_555
Mn4 O4 1.919711 1_555
Mn4 O1 1.936025 1_555
Mn4 O2 1.963175 1_555
Mn4 O6 2.009921 1_555
Mn5 O5 1.919711 1_555
Mn5 O3 1.936025 1_555
Mn5 O2 1.963175 1_555
Mn5 O0 2.009921 1_555
F0 Mn4 2.086318 1_555
F0 Mn1 2.126671 1_655
F0 Mn0 2.162911 1_665
F1 Mn0 2.005364 1_665
F1 Mn2 2.120332 1_556
F1 Mn3 2.146555 1_556
F2 Mn1 2.029724 1_645
F2 Mn4 2.108763 1_555
F2 Mn5 2.108763 1_555
F3 Mn5 2.086318 1_555
F3 Mn1 2.126671 1_545
F3 Mn2 2.162911 1_445
F4 Mn2 2.005364 1_445
F4 Mn0 2.120332 1_554
F4 Mn3 2.146555 1_555
