# generated using pymatgen
data_Cs2MgH8(CO5)2
_symmetry_space_group_name_H-M   'P 1'
_cell_length_a   6.76497892
_cell_length_b   12.61063271
_cell_length_c   13.11948601
_cell_angle_alpha   90.00000000
_cell_angle_beta   90.00000000
_cell_angle_gamma   90.00000000
_symmetry_Int_Tables_number   1
_chemical_formula_structural   Cs2MgH8(CO5)2
_chemical_formula_sum   'Cs8 Mg4 H32 C8 O40'
_cell_volume   1119.23206877
_cell_formula_units_Z   4
loop_
 _symmetry_equiv_pos_site_id
 _symmetry_equiv_pos_as_xyz
  1  'x, y, z'
loop_
 _atom_site_type_symbol
 _atom_site_label
 _atom_site_symmetry_multiplicity
 _atom_site_fract_x
 _atom_site_fract_y
 _atom_site_fract_z
 _atom_site_occupancy
  Cs  Cs0  1  0.63057032  0.27257621  0.37060797  1
  Cs  Cs1  1  0.13057032  0.22742379  0.62939203  1
  Cs  Cs2  1  0.36942968  0.77257621  0.12939203  1
  Cs  Cs3  1  0.86942968  0.72742379  0.87060797  1
  Cs  Cs4  1  0.36942968  0.72742379  0.62939203  1
  Cs  Cs5  1  0.86942968  0.77257621  0.37060797  1
  Cs  Cs6  1  0.63057032  0.22742379  0.87060797  1
  Cs  Cs7  1  0.13057032  0.27257621  0.12939203  1
  Mg  Mg0  1  0.50000000  0.00000000  0.50000000  1
  Mg  Mg1  1  0.00000000  0.50000000  0.50000000  1
  Mg  Mg2  1  0.50000000  0.50000000  0.00000000  1
  Mg  Mg3  1  0.00000000  0.00000000  0.00000000  1
  H  H0  1  0.72170019  0.56998622  0.60531357  1
  H  H1  1  0.22170019  0.93001378  0.39468643  1
  H  H2  1  0.27829981  0.06998622  0.89468643  1
  H  H3  1  0.77829981  0.43001378  0.10531357  1
  H  H4  1  0.27829981  0.43001378  0.39468643  1
  H  H5  1  0.77829981  0.06998622  0.60531357  1
  H  H6  1  0.72170019  0.93001378  0.10531357  1
  H  H7  1  0.22170019  0.56998622  0.89468643  1
  H  H8  1  0.85166475  0.68363465  0.59774785  1
  H  H9  1  0.35166475  0.81636535  0.40225215  1
  H  H10  1  0.14833525  0.18363465  0.90225215  1
  H  H11  1  0.64833525  0.31636535  0.09774785  1
  H  H12  1  0.14833525  0.31636535  0.40225215  1
  H  H13  1  0.64833525  0.18363465  0.59774785  1
  H  H14  1  0.85166475  0.81636535  0.09774785  1
  H  H15  1  0.35166475  0.68363465  0.90225215  1
  H  H16  1  0.63138578  0.48208687  0.78762190  1
  H  H17  1  0.13138578  0.01791313  0.21237810  1
  H  H18  1  0.36861422  0.98208687  0.71237810  1
  H  H19  1  0.86861422  0.51791313  0.28762190  1
  H  H20  1  0.36861422  0.51791313  0.21237810  1
  H  H21  1  0.86861422  0.98208687  0.78762190  1
  H  H22  1  0.63138578  0.01791313  0.28762190  1
  H  H23  1  0.13138578  0.48208687  0.71237810  1
  H  H24  1  0.81805149  0.47235747  0.86051938  1
  H  H25  1  0.31805149  0.02764253  0.13948062  1
  H  H26  1  0.18194851  0.97235747  0.63948062  1
  H  H27  1  0.68194851  0.52764253  0.36051938  1
  H  H28  1  0.18194851  0.52764253  0.13948062  1
  H  H29  1  0.68194851  0.97235747  0.86051938  1
  H  H30  1  0.81805149  0.02764253  0.36051938  1
  H  H31  1  0.31805149  0.47235747  0.63948062  1
  C  C0  1  0.65824169  0.11365081  0.11894191  1
  C  C1  1  0.15824169  0.38634919  0.88105809  1
  C  C2  1  0.34175831  0.61365081  0.38105809  1
  C  C3  1  0.84175831  0.88634919  0.61894191  1
  C  C4  1  0.34175831  0.88634919  0.88105809  1
  C  C5  1  0.84175831  0.61365081  0.11894191  1
  C  C6  1  0.65824169  0.38634919  0.61894191  1
  C  C7  1  0.15824169  0.11365081  0.38105809  1
  O  O0  1  0.69571453  0.88765619  0.55454205  1
  O  O1  1  0.19571453  0.61234381  0.44545795  1
  O  O2  1  0.30428547  0.38765619  0.94545795  1
  O  O3  1  0.80428547  0.11234381  0.05454205  1
  O  O4  1  0.30428547  0.11234381  0.44545795  1
  O  O5  1  0.80428547  0.38765619  0.55454205  1
  O  O6  1  0.69571453  0.61234381  0.05454205  1
  O  O7  1  0.19571453  0.88765619  0.94545795  1
  O  O8  1  0.57844828  0.20206660  0.14639817  1
  O  O9  1  0.07844828  0.29793340  0.85360183  1
  O  O10  1  0.42155172  0.70206660  0.35360183  1
  O  O11  1  0.92155172  0.79793340  0.64639817  1
  O  O12  1  0.42155172  0.79793340  0.85360183  1
  O  O13  1  0.92155172  0.70206660  0.14639817  1
  O  O14  1  0.57844828  0.29793340  0.64639817  1
  O  O15  1  0.07844828  0.20206660  0.35360183  1
  O  O16  1  0.41036823  0.52367758  0.34350919  1
  O  O17  1  0.91036823  0.97632242  0.65649081  1
  O  O18  1  0.58963177  0.02367758  0.15649081  1
  O  O19  1  0.08963177  0.47632242  0.84350919  1
  O  O20  1  0.58963177  0.47632242  0.65649081  1
  O  O21  1  0.08963177  0.02367758  0.34350919  1
  O  O22  1  0.41036823  0.97632242  0.84350919  1
  O  O23  1  0.91036823  0.52367758  0.15649081  1
  O  O24  1  0.68445366  0.11479655  0.56286365  1
  O  O25  1  0.18445366  0.38520345  0.43713635  1
  O  O26  1  0.31554634  0.61479655  0.93713635  1
  O  O27  1  0.81554634  0.88520345  0.06286365  1
  O  O28  1  0.31554634  0.88520345  0.43713635  1
  O  O29  1  0.81554634  0.61479655  0.56286365  1
  O  O30  1  0.68445366  0.38520345  0.06286365  1
  O  O31  1  0.18445366  0.11479655  0.93713635  1
  O  O32  1  0.67235774  0.01643031  0.36074705  1
  O  O33  1  0.17235774  0.48356969  0.63925295  1
  O  O34  1  0.32764226  0.51643031  0.13925295  1
  O  O35  1  0.82764226  0.98356969  0.86074705  1
  O  O36  1  0.32764226  0.98356969  0.63925295  1
  O  O37  1  0.82764226  0.51643031  0.36074705  1
  O  O38  1  0.67235774  0.48356969  0.86074705  1
  O  O39  1  0.17235774  0.01643031  0.13925295  1
loop_
_geom_bond_atom_site_label_1
_geom_bond_atom_site_label_2
_geom_bond_distance
_geom_bond_site_symmetry_2
Cs0 O5 3.051273 1_555
Cs0 O8 3.093134 1_555
Cs0 H4 3.117809 1_555
Cs0 O4 3.149521 1_555
Cs0 O15 3.165534 1_655
Cs1 O4 3.051273 1_555
Cs1 O9 3.093134 1_555
Cs1 H5 3.117809 1_455
Cs1 O5 3.149521 1_455
Cs1 O14 3.165534 1_555
Cs2 O7 3.051273 1_554
Cs2 O10 3.093134 1_555
Cs2 H6 3.117809 1_555
Cs2 O6 3.149521 1_555
Cs2 O13 3.165534 1_455
Cs3 O6 3.051273 1_556
Cs3 O11 3.093134 1_555
Cs3 H7 3.117809 1_655
Cs3 O7 3.149521 1_655
Cs3 O12 3.165534 1_555
Cs4 O1 3.051273 1_555
Cs4 O12 3.093134 1_555
Cs4 H0 3.117809 1_555
Cs4 O0 3.149521 1_555
Cs4 O11 3.165534 1_455
Cs5 O0 3.051273 1_555
Cs5 O13 3.093134 1_555
Cs5 H1 3.117809 1_655
Cs5 O1 3.149521 1_655
Cs5 O10 3.165534 1_555
Cs6 O3 3.051273 1_556
Cs6 O14 3.093134 1_555
Cs6 H2 3.117809 1_555
Cs6 O2 3.149521 1_555
Cs6 O9 3.165534 1_655
Cs7 O2 3.051273 1_554
Cs7 O15 3.093134 1_555
Cs7 H3 3.117809 1_455
Cs7 O3 3.149521 1_455
Cs7 O8 3.165534 1_555
Mg0 O0 2.066914 1_545
Mg0 O4 2.066914 1_555
Mg0 O28 2.081579 1_545
Mg0 O24 2.081579 1_555
Mg0 O32 2.177186 1_555
Mg0 O36 2.177186 1_545
Mg1 O5 2.066914 1_455
Mg1 O1 2.066914 1_555
Mg1 O25 2.081579 1_555
Mg1 O29 2.081579 1_455
Mg1 O33 2.177186 1_555
Mg1 O37 2.177186 1_455
Mg2 O2 2.066914 1_554
Mg2 O6 2.066914 1_555
Mg2 O26 2.081579 1_554
Mg2 O30 2.081579 1_555
Mg2 O38 2.177186 1_554
Mg2 O34 2.177186 1_555
Mg3 O7 2.066914 1_544
Mg3 O3 2.066914 1_455
Mg3 O31 2.081579 1_554
Mg3 O27 2.081579 1_445
Mg3 O35 2.177186 1_444
Mg3 O39 2.177186 1_555
H0 O29 1.016140 1_555
H0 O20 1.626093 1_555
H1 O28 1.016140 1_555
H1 O21 1.626093 1_565
H2 O31 1.016140 1_555
H2 O22 1.626093 1_545
H3 O30 1.016140 1_555
H3 O23 1.626093 1_555
H4 O25 1.016140 1_555
H4 O16 1.626093 1_555
H5 O24 1.016140 1_555
H5 O17 1.626093 1_545
H6 O27 1.016140 1_555
H6 O18 1.626093 1_565
H7 O26 1.016140 1_555
H7 O19 1.626093 1_555
H8 O29 1.011307 1_555
H9 O28 1.011307 1_555
H10 O31 1.011307 1_555
H11 O30 1.011307 1_555
H12 O25 1.011307 1_555
H13 O24 1.011307 1_555
H14 O27 1.011307 1_555
H15 O26 1.011307 1_555
H16 O38 0.998777 1_555
H17 O39 0.998777 1_555
H18 O36 0.998777 1_555
H19 O37 0.998777 1_555
H20 O34 0.998777 1_555
H21 O35 0.998777 1_555
H22 O32 0.998777 1_555
H23 O33 0.998777 1_555
H24 O38 0.995710 1_555
H25 O39 0.995710 1_555
H26 O36 0.995710 1_555
H27 O37 0.995710 1_555
H28 O34 0.995710 1_555
H29 O35 0.995710 1_555
H30 O32 0.995710 1_555
H31 O33 0.995710 1_555
C0 O8 1.290084 1_555
C0 O3 1.300087 1_555
C0 O18 1.321162 1_555
C1 O9 1.290084 1_555
C1 O2 1.300087 1_555
C1 O19 1.321162 1_555
C2 O10 1.290084 1_555
C2 O1 1.300087 1_555
C2 O16 1.321162 1_555
C3 O11 1.290084 1_555
C3 O0 1.300087 1_555
C3 O17 1.321162 1_555
C4 O12 1.290084 1_555
C4 O7 1.300087 1_555
C4 O22 1.321162 1_555
C5 O13 1.290084 1_555
C5 O6 1.300087 1_555
C5 O23 1.321162 1_555
C6 O14 1.290084 1_555
C6 O5 1.300087 1_555
C6 O20 1.321162 1_555
C7 O15 1.290084 1_555
C7 O4 1.300087 1_555
C7 O21 1.321162 1_555
