# generated using pymatgen
data_Li3Fe4(BO3)4
_symmetry_space_group_name_H-M   'P 1'
_cell_length_a   5.25038000
_cell_length_b   9.03181700
_cell_length_c   10.21909619
_cell_angle_alpha   89.07765204
_cell_angle_beta   89.19928150
_cell_angle_gamma   89.65053217
_symmetry_Int_Tables_number   1
_chemical_formula_structural   Li3Fe4(BO3)4
_chemical_formula_sum   'Li6 Fe8 B8 O24'
_cell_volume   484.47589069
_cell_formula_units_Z   2
loop_
 _symmetry_equiv_pos_site_id
 _symmetry_equiv_pos_as_xyz
  1  'x, y, z'
loop_
 _atom_site_type_symbol
 _atom_site_label
 _atom_site_symmetry_multiplicity
 _atom_site_fract_x
 _atom_site_fract_y
 _atom_site_fract_z
 _atom_site_occupancy
  Li  Li0  1  0.18074900  0.16198800  0.15752900  1
  Li  Li1  1  0.31806700  0.32819300  0.42104200  1
  Li  Li2  1  0.33975000  0.32526700  0.90450000  1
  Li  Li3  1  0.65151800  0.67735400  0.66561800  1
  Li  Li4  1  0.68687100  0.66342600  0.16296100  1
  Li  Li5  1  0.82488400  0.83398100  0.40377700  1
  Fe  Fe0  1  0.14687900  0.84657600  0.63390100  1
  Fe  Fe1  1  0.18262000  0.50000100  0.13300000  1
  Fe  Fe2  1  0.32333600  0.98975600  0.88041900  1
  Fe  Fe3  1  0.33670000  0.66689500  0.38419600  1
  Fe  Fe4  1  0.67888000  0.33340000  0.63182400  1
  Fe  Fe5  1  0.68196600  0.99444200  0.12424000  1
  Fe  Fe6  1  0.83389600  0.15865400  0.37829900  1
  Fe  Fe7  1  0.83532400  0.50817000  0.88838700  1
  B  B0  1  0.17681000  0.50535800  0.62636700  1
  B  B1  1  0.17326700  0.82927200  0.12844300  1
  B  B2  1  0.33221600  0.99927600  0.37431100  1
  B  B3  1  0.32840500  0.66367700  0.87372100  1
  B  B4  1  0.65017500  0.99827500  0.62938300  1
  B  B5  1  0.67094200  0.33081400  0.12631300  1
  B  B6  1  0.83613800  0.49620300  0.38165000  1
  B  B7  1  0.82633700  0.16699100  0.87668000  1
  O  O0  1  0.09355100  0.48435500  0.35085400  1
  O  O1  1  0.08742500  0.15965000  0.88432100  1
  O  O2  1  0.18774500  0.79351700  0.85043800  1
  O  O3  1  0.19654100  0.87618700  0.41826800  1
  O  O4  1  0.21148900  0.13470100  0.35852700  1
  O  O5  1  0.20462100  0.53403800  0.91542800  1
  O  O6  1  0.31868700  0.37567400  0.62404900  1
  O  O7  1  0.29430400  0.96005100  0.08341600  1
  O  O8  1  0.29436500  0.63794600  0.59713500  1
  O  O9  1  0.32138900  0.70764300  0.16560200  1
  O  O10  1  0.40940200  0.32120200  0.11040300  1
  O  O11  1  0.41024300  0.99971500  0.68705200  1
  O  O12  1  0.58920200  0.98687100  0.34254600  1
  O  O13  1  0.58300400  0.66379500  0.85204400  1
  O  O14  1  0.70220500  0.29702800  0.83059700  1
  O  O15  1  0.70147600  0.37108500  0.42778900  1
  O  O16  1  0.71064100  0.62931000  0.36554900  1
  O  O17  1  0.67335000  0.05166400  0.91919100  1
  O  O18  1  0.79303800  0.46442400  0.09791700  1
  O  O19  1  0.77542300  0.86749100  0.60559100  1
  O  O20  1  0.76182000  0.13139700  0.58938200  1
  O  O21  1  0.80943800  0.20764100  0.16626100  1
  O  O22  1  0.91473200  0.82386200  0.13958500  1
  O  O23  1  0.91438500  0.50193300  0.65453100  1
loop_
_geom_bond_atom_site_label_1
_geom_bond_atom_site_label_2
_geom_bond_distance
_geom_bond_site_symmetry_2
Li0 O10 1.929659 1_555
Li0 O21 1.991265 1_455
Li0 O7 2.067393 1_545
Li0 O4 2.073224 1_555
Li1 O4 1.957847 1_555
Li1 O0 1.965731 1_555
Li1 O15 2.054610 1_555
Li1 O6 2.125209 1_555
Li2 O5 2.014819 1_555
Li2 O1 2.019121 1_555
Li2 O14 2.053541 1_555
Li2 O10 2.140410 1_556
Li3 O19 1.927983 1_555
Li3 O13 1.935897 1_555
Li3 O8 2.045880 1_555
Li3 O23 2.098242 1_555
Li4 O22 1.894738 1_555
Li4 O9 1.957554 1_555
Li4 O18 1.999720 1_555
Li4 O16 2.093499 1_555
Li5 O12 1.950009 1_555
Li5 O16 1.993203 1_555
Li5 O3 1.998484 1_655
Li5 O19 2.101552 1_555
Fe0 O19 1.983055 1_455
Fe0 O11 2.046603 1_555
Fe0 O8 2.070814 1_555
Fe0 O3 2.227346 1_555
Fe0 O2 2.269384 1_555
Fe1 O10 2.014888 1_555
Fe1 O9 2.049994 1_555
Fe1 O18 2.109001 1_455
Fe1 O5 2.241106 1_554
Fe1 O0 2.270798 1_555
Fe2 O2 1.944487 1_555
Fe2 O1 1.966652 1_565
Fe2 O17 1.971499 1_565
Fe2 O11 2.022521 1_555
Fe2 O7 2.091000 1_556
Fe3 O16 1.997427 1_555
Fe3 O3 2.057428 1_555
Fe3 O0 2.126003 1_555
Fe3 O8 2.195862 1_555
Fe3 O9 2.260555 1_555
Fe4 O20 1.927921 1_555
Fe4 O6 1.929496 1_555
Fe4 O23 1.985465 1_555
Fe4 O14 2.057667 1_555
Fe4 O15 2.109052 1_555
Fe5 O22 1.966303 1_555
Fe5 O21 2.095362 1_565
Fe5 O7 2.109237 1_555
Fe5 O17 2.151142 1_564
Fe5 O12 2.276815 1_555
Fe6 O4 2.000735 1_655
Fe6 O12 2.060804 1_545
Fe6 O15 2.103679 1_555
Fe6 O20 2.194999 1_555
Fe6 O21 2.209897 1_555
Fe7 O13 1.960316 1_555
Fe7 O5 1.978143 1_655
Fe7 O14 2.130245 1_555
Fe7 O18 2.179614 1_556
Fe7 O23 2.421350 1_555
B0 O8 1.377157 1_555
B0 O6 1.384597 1_555
B0 O23 1.404051 1_455
B1 O22 1.361696 1_455
B1 O9 1.392904 1_555
B1 O7 1.412171 1_555
B2 O4 1.382354 1_565
B2 O12 1.387642 1_555
B2 O3 1.389162 1_555
B3 O13 1.351918 1_555
B3 O5 1.400166 1_555
B3 O2 1.400924 1_555
B4 O19 1.371906 1_555
B4 O11 1.383366 1_555
B4 O20 1.393695 1_565
B5 O21 1.384493 1_555
B5 O10 1.388436 1_555
B5 O18 1.394395 1_555
B6 O16 1.376049 1_555
B6 O0 1.387271 1_655
B6 O15 1.408002 1_555
B7 O1 1.375257 1_655
B7 O17 1.380130 1_555
B7 O14 1.416811 1_555
