# generated using pymatgen
data_TaTiO4
_symmetry_space_group_name_H-M   'P 1'
_cell_length_a   5.62709756
_cell_length_b   5.62709610
_cell_length_c   5.62717425
_cell_angle_alpha   107.22686728
_cell_angle_beta   107.22797662
_cell_angle_gamma   114.05832773
_symmetry_Int_Tables_number   1
_chemical_formula_structural   TaTiO4
_chemical_formula_sum   'Ta2 Ti2 O8'
_cell_volume   136.49854984
_cell_formula_units_Z   2
loop_
 _symmetry_equiv_pos_site_id
 _symmetry_equiv_pos_as_xyz
  1  'x, y, z'
loop_
 _atom_site_type_symbol
 _atom_site_label
 _atom_site_symmetry_multiplicity
 _atom_site_fract_x
 _atom_site_fract_y
 _atom_site_fract_z
 _atom_site_occupancy
  Ta  Ta0  1  0.75971287  0.25970913  0.50000122  1
  Ta  Ta1  1  0.50971287  0.50971483  0.00000428  1
  Ti  Ti0  1  0.24768250  0.74768173  0.49999956  1
  Ti  Ti1  1  0.99767491  0.99767716  -0.00000405  1
  O  O0  1  0.94124261  0.73741147  0.20379741  1
  O  O1  1  0.45775592  0.25886731  0.19886030  1
  O  O2  1  0.98741188  0.28353379  0.29616572  1
  O  O3  1  0.50891569  0.81002974  0.30112805  1
  O  O4  1  0.50890171  0.20779500  0.69886556  1
  O  O5  1  0.98737263  0.69124284  0.70384102  1
  O  O6  1  0.06000382  0.25888516  0.80113329  1
  O  O7  1  0.53361260  0.73745085  0.79620865  1
loop_
_geom_bond_atom_site_label_1
_geom_bond_atom_site_label_2
_geom_bond_distance
_geom_bond_site_symmetry_2
O0 Ta1 1.948509 1_555
O0 Ti0 1.978418 1_655
O0 Ti1 2.095780 1_555
O1 Ta0 2.010423 1_555
O1 Ta1 2.030509 1_555
O1 Ti1 2.079002 1_445
O2 Ta0 1.948561 1_555
O2 Ti1 1.978177 1_545
O2 Ti0 2.096147 1_655
O3 Ta1 2.010382 1_555
O3 Ta0 2.030399 1_565
O3 Ti0 2.079132 1_555
O4 Ta1 2.010420 1_556
O4 Ta0 2.030388 1_555
O4 Ti0 2.079164 1_545
O5 Ta0 1.948550 1_555
O5 Ti1 1.978168 1_556
O5 Ti0 2.096171 1_655
O6 Ta0 2.010393 1_455
O6 Ta1 2.030526 1_556
O6 Ti1 2.078964 1_446
O7 Ta1 1.948525 1_556
O7 Ti0 1.978413 1_555
O7 Ti1 2.095752 1_556
