# generated using pymatgen
data_Fe5(OF4)2
_symmetry_space_group_name_H-M   'P 1'
_cell_length_a   4.83459000
_cell_length_b   8.00215679
_cell_length_c   10.14961971
_cell_angle_alpha   70.91095679
_cell_angle_beta   87.56990716
_cell_angle_gamma   88.82949514
_symmetry_Int_Tables_number   1
_chemical_formula_structural   Fe5(OF4)2
_chemical_formula_sum   'Fe10 O4 F16'
_cell_volume   370.72539088
_cell_formula_units_Z   2
loop_
 _symmetry_equiv_pos_site_id
 _symmetry_equiv_pos_as_xyz
  1  'x, y, z'
loop_
 _atom_site_type_symbol
 _atom_site_label
 _atom_site_symmetry_multiplicity
 _atom_site_fract_x
 _atom_site_fract_y
 _atom_site_fract_z
 _atom_site_occupancy
  Fe  Fe0  1  0.51303900  0.70083500  0.89117800  1
  Fe  Fe1  1  0.49735100  0.89947500  0.30624600  1
  Fe  Fe2  1  0.50264900  0.10052500  0.69375400  1
  Fe  Fe3  1  0.48696100  0.29916500  0.10882200  1
  Fe  Fe4  1  0.50000000  0.50000000  0.50000000  1
  Fe  Fe5  1  0.03242400  0.39154500  0.78737900  1
  Fe  Fe6  1  0.97393600  0.80771700  0.61107800  1
  Fe  Fe7  1  0.02606400  0.19228300  0.38892200  1
  Fe  Fe8  1  0.96757600  0.60845500  0.21262100  1
  Fe  Fe9  1  0.00000000  0.00000000  0.00000000  1
  O  O0  1  0.31292600  0.32986900  0.67728000  1
  O  O1  1  0.31312800  0.11911800  0.27504700  1
  O  O2  1  0.68687200  0.88088200  0.72495300  1
  O  O3  1  0.68707400  0.67013100  0.32272000  1
  F  F0  1  0.18581000  0.24973700  0.96968000  1
  F  F1  1  0.20816000  0.04446700  0.58195000  1
  F  F2  1  0.18571900  0.45073900  0.36663400  1
  F  F3  1  0.18754600  0.62134900  0.78646200  1
  F  F4  1  0.19959900  0.82684300  0.18363500  1
  F  F5  1  0.29834500  0.95419300  0.87623400  1
  F  F6  1  0.29223800  0.55317300  0.07711700  1
  F  F7  1  0.28784700  0.75135200  0.48176100  1
  F  F8  1  0.71215300  0.24864800  0.51823900  1
  F  F9  1  0.70165500  0.04580700  0.12376600  1
  F  F10  1  0.70776200  0.44682700  0.92288300  1
  F  F11  1  0.81428100  0.54926100  0.63336600  1
  F  F12  1  0.79184000  0.95553300  0.41805000  1
  F  F13  1  0.80040100  0.17315700  0.81636500  1
  F  F14  1  0.81419000  0.75026300  0.03032000  1
  F  F15  1  0.81245400  0.37865100  0.21353800  1
loop_
_geom_bond_atom_site_label_1
_geom_bond_atom_site_label_2
_geom_bond_distance
_geom_bond_site_symmetry_2
Fe0 O2 1.991937 1_555
Fe1 O1 1.891736 1_565
Fe1 O3 1.995226 1_555
Fe2 O2 1.891736 1_545
Fe2 O0 1.995226 1_555
Fe3 O1 1.991937 1_555
Fe4 O3 2.054038 1_555
Fe4 O0 2.054038 1_555
Fe5 O0 1.880485 1_555
Fe6 O2 1.969290 1_555
Fe7 O1 1.969290 1_555
Fe8 O3 1.880485 1_555
F0 Fe5 1.992440 1_555
F0 Fe9 2.131447 1_556
F0 Fe3 2.198607 1_556
F1 Fe2 2.002996 1_555
F1 Fe7 2.144865 1_555
F1 Fe6 2.156796 1_445
F2 Fe8 1.985855 1_455
F2 Fe7 2.160746 1_555
F2 Fe4 2.200951 1_555
F3 Fe5 1.997179 1_555
F3 Fe0 2.152989 1_555
F3 Fe6 2.194514 1_455
F4 Fe8 2.028469 1_455
F4 Fe1 2.148917 1_555
F4 Fe9 2.175706 1_565
F5 Fe9 1.979575 1_566
F5 Fe2 2.061711 1_565
F5 Fe0 2.221935 1_555
F6 Fe0 2.125896 1_554
F6 Fe3 2.154298 1_555
F6 Fe8 2.176549 1_455
F7 Fe1 2.029586 1_555
F7 Fe6 2.102303 1_455
F7 Fe4 2.195476 1_555
F8 Fe2 2.029586 1_555
F8 Fe7 2.102303 1_655
F8 Fe4 2.195476 1_555
F9 Fe9 1.979575 1_655
F9 Fe1 2.061711 1_545
F9 Fe3 2.221935 1_555
F10 Fe3 2.125896 1_556
F10 Fe0 2.154298 1_555
F10 Fe5 2.176549 1_655
F11 Fe5 1.985855 1_655
F11 Fe6 2.160746 1_555
F11 Fe4 2.200951 1_555
F12 Fe1 2.002996 1_555
F12 Fe6 2.144865 1_555
F12 Fe7 2.156796 1_665
F13 Fe5 2.028469 1_655
F13 Fe2 2.148917 1_555
F13 Fe9 2.175706 1_656
F14 Fe8 1.992440 1_555
F14 Fe9 2.131447 1_665
F14 Fe0 2.198607 1_554
F15 Fe8 1.997179 1_555
F15 Fe3 2.152989 1_555
F15 Fe7 2.194514 1_655
