# generated using pymatgen
data_LiFeCO4
_symmetry_space_group_name_H-M   'P 1'
_cell_length_a   8.34128789
_cell_length_b   8.34128789
_cell_length_c   6.08252700
_cell_angle_alpha   90.00000000
_cell_angle_beta   90.00000000
_cell_angle_gamma   121.25304726
_symmetry_Int_Tables_number   1
_chemical_formula_structural   LiFeCO4
_chemical_formula_sum   'Li4 Fe4 C4 O16'
_cell_volume   361.79086478
_cell_formula_units_Z   4
loop_
 _symmetry_equiv_pos_site_id
 _symmetry_equiv_pos_as_xyz
  1  'x, y, z'
loop_
 _atom_site_type_symbol
 _atom_site_label
 _atom_site_symmetry_multiplicity
 _atom_site_fract_x
 _atom_site_fract_y
 _atom_site_fract_z
 _atom_site_occupancy
  Li  Li0  1  0.20716000  0.02969600  0.50167100  1
  Li  Li1  1  0.02969600  0.20716000  0.00167100  1
  Li  Li2  1  0.97030400  0.79284000  0.00167100  1
  Li  Li3  1  0.79284000  0.97030400  0.50167100  1
  Fe  Fe0  1  0.70218500  0.27818700  0.76208700  1
  Fe  Fe1  1  0.72181300  0.29781500  0.26208700  1
  Fe  Fe2  1  0.27818700  0.70218500  0.26208700  1
  Fe  Fe3  1  0.29781500  0.72181300  0.76208700  1
  C  C0  1  0.35541900  0.15360200  0.02301900  1
  C  C1  1  0.84639800  0.64458100  0.52301900  1
  C  C2  1  0.15360200  0.35541900  0.52301900  1
  C  C3  1  0.64458100  0.84639800  0.02301900  1
  O  O0  1  0.18252000  0.08831400  0.03563300  1
  O  O1  1  0.43652900  0.17401100  0.83081300  1
  O  O2  1  0.45580900  0.19933400  0.20458300  1
  O  O3  1  0.73102900  0.17155500  0.50868600  1
  O  O4  1  0.82844500  0.26897100  0.00868600  1
  O  O5  1  0.08831400  0.18252000  0.53563300  1
  O  O6  1  0.80066600  0.54419100  0.70458300  1
  O  O7  1  0.82598900  0.56347100  0.33081300  1
  O  O8  1  0.17401100  0.43652900  0.33081300  1
  O  O9  1  0.19933400  0.45580900  0.70458300  1
  O  O10  1  0.91168600  0.81748000  0.53563300  1
  O  O11  1  0.17155500  0.73102900  0.00868600  1
  O  O12  1  0.26897100  0.82844500  0.50868600  1
  O  O13  1  0.54419100  0.80066600  0.20458300  1
  O  O14  1  0.56347100  0.82598900  0.83081300  1
  O  O15  1  0.81748000  0.91168600  0.03563300  1
loop_
_geom_bond_atom_site_label_1
_geom_bond_atom_site_label_2
_geom_bond_distance
_geom_bond_site_symmetry_2
Li0 O5 1.990389 1_555
Li0 O12 1.995930 1_545
Li0 O10 2.173374 1_445
Li0 O2 2.554230 1_555
Li0 O1 2.593803 1_555
Li1 O0 1.990389 1_555
Li1 O4 1.995930 1_455
Li1 O15 2.173374 1_445
Li1 O9 2.554230 1_554
Li1 O8 2.593803 1_555
Li2 O15 1.990389 1_555
Li2 O11 1.995930 1_655
Li2 O0 2.173374 1_665
Li2 O6 2.554230 1_554
Li2 O7 2.593803 1_555
Li3 O10 1.990389 1_555
Li3 O3 1.995930 1_565
Li3 O5 2.173374 1_665
Li3 O13 2.554230 1_555
Li3 O14 2.593803 1_555
Fe0 O3 1.856534 1_555
Fe0 O4 1.857127 1_556
Fe0 O6 1.956786 1_555
Fe0 O1 1.960127 1_555
Fe1 O4 1.856534 1_555
Fe1 O3 1.857127 1_555
Fe1 O2 1.956786 1_555
Fe1 O7 1.960127 1_555
Fe2 O11 1.856534 1_555
Fe2 O12 1.857127 1_555
Fe2 O13 1.956786 1_555
Fe2 O8 1.960127 1_555
Fe3 O12 1.856534 1_555
Fe3 O11 1.857127 1_556
Fe3 O9 1.956786 1_555
Fe3 O14 1.960127 1_555
C0 O0 1.251974 1_555
C0 O1 1.316813 1_554
C0 O2 1.317155 1_555
C1 O10 1.251974 1_555
C1 O7 1.316813 1_555
C1 O6 1.317155 1_555
C2 O5 1.251974 1_555
C2 O8 1.316813 1_555
C2 O9 1.317155 1_555
C3 O15 1.251974 1_555
C3 O14 1.316813 1_554
C3 O13 1.317155 1_555
