# generated using pymatgen
data_LiCrBO3
_symmetry_space_group_name_H-M   'P 1'
_cell_length_a   3.17572600
_cell_length_b   14.25605958
_cell_length_c   14.26342528
_cell_angle_alpha   60.03972499
_cell_angle_beta   89.10577369
_cell_angle_gamma   89.11970154
_symmetry_Int_Tables_number   1
_chemical_formula_structural   LiCrBO3
_chemical_formula_sum   'Li9 Cr9 B9 O27'
_cell_volume   559.37263870
_cell_formula_units_Z   9
loop_
 _symmetry_equiv_pos_site_id
 _symmetry_equiv_pos_as_xyz
  1  'x, y, z'
loop_
 _atom_site_type_symbol
 _atom_site_label
 _atom_site_symmetry_multiplicity
 _atom_site_fract_x
 _atom_site_fract_y
 _atom_site_fract_z
 _atom_site_occupancy
  Li  Li0  1  0.05589100  0.82615700  0.74486000  1
  Li  Li1  1  0.00474800  0.42831700  0.82758200  1
  Li  Li2  1  0.01280900  0.09739800  0.77396800  1
  Li  Li3  1  0.94859700  0.74511800  0.42910600  1
  Li  Li4  1  0.97080900  0.48169000  0.41300200  1
  Li  Li5  1  0.02418500  0.10572600  0.48199100  1
  Li  Li6  1  0.98306100  0.77372000  0.12934600  1
  Li  Li7  1  0.99227900  0.41216100  0.10666000  1
  Li  Li8  1  0.01022200  0.12863800  0.09775300  1
  Cr  Cr0  1  0.52416100  0.86832500  0.91197400  1
  Cr  Cr1  1  0.49065300  0.57092600  0.88086000  1
  Cr  Cr2  1  0.55675000  0.87997300  0.54856800  1
  Cr  Cr3  1  0.52075700  0.21962800  0.86908500  1
  Cr  Cr4  1  0.45009100  0.54927300  0.57175600  1
  Cr  Cr5  1  0.49181100  0.26393500  0.54728200  1
  Cr  Cr6  1  0.47509400  0.91175400  0.22017100  1
  Cr  Cr7  1  0.48086700  0.54669800  0.18976600  1
  Cr  Cr8  1  0.51655000  0.18892100  0.26449000  1
  B  B0  1  0.99947600  0.66594700  0.99133500  1
  B  B1  1  0.99928300  0.66678200  0.66698200  1
  B  B2  1  0.98775500  0.34320900  0.66678300  1
  B  B3  1  0.01438000  0.99083700  0.34315200  1
  B  B4  1  0.53002600  0.01517700  0.66911300  1
  B  B5  1  0.46688200  0.66893700  0.31635300  1
  B  B6  1  0.99574200  0.33310700  0.33393100  1
  B  B7  1  0.00686800  0.99980700  0.00045800  1
  B  B8  1  0.50358400  0.31535900  0.01622400  1
  O  O0  1  0.01479400  0.91437500  0.97969400  1
  O  O1  1  0.98322500  0.57614400  0.97652600  1
  O  O2  1  0.03646200  0.77021700  0.90321600  1
  O  O3  1  0.55560000  0.91023700  0.68698100  1
  O  O4  1  0.50038900  0.40237000  0.91126600  1
  O  O5  1  0.99859200  0.58930300  0.77562700  1
  O  O6  1  0.06383000  0.77416600  0.63547200  1
  O  O7  1  0.02572100  0.10584300  0.91521100  1
  O  O8  1  0.05478000  0.97559000  0.44744000  1
  O  O9  1  0.02241900  0.32649300  0.77124400  1
  O  O10  1  0.93555400  0.63675700  0.59004600  1
  O  O11  1  0.96156100  0.90318000  0.32702800  1
  O  O12  1  0.98327200  0.25452300  0.65111100  1
  O  O13  1  0.95762100  0.44791600  0.57759900  1
  O  O14  1  0.51749800  0.03091100  0.75773000  1
  O  O15  1  0.45349300  0.68714100  0.40322500  1
  O  O16  1  0.46985600  0.56283500  0.33604200  1
  O  O17  1  0.51721400  0.10152600  0.56321300  1
  O  O18  1  0.97946500  0.97919800  0.10640200  1
  O  O19  1  0.47746700  0.75739100  0.21205800  1
  O  O20  1  0.99666200  0.32714800  0.43396400  1
  O  O21  1  0.00646200  0.23905200  0.32781500  1
  O  O22  1  0.98438600  0.43325100  0.23995600  1
  O  O23  1  0.97863400  0.65071500  0.09542000  1
  O  O24  1  0.02707900  0.09495000  0.25436200  1
  O  O25  1  0.49930600  0.33505000  0.10258800  1
  O  O26  1  0.51114000  0.21111200  0.03174200  1
loop_
_geom_bond_atom_site_label_1
_geom_bond_atom_site_label_2
_geom_bond_distance
_geom_bond_site_symmetry_2
Li0 O3 1.906989 1_455
Li0 O3 1.914646 1_555
Li0 O2 1.984832 1_555
Li0 O6 2.034112 1_555
Li1 O4 1.907579 1_555
Li1 O4 1.909073 1_455
Li1 O9 1.979194 1_555
Li1 O5 2.029055 1_455
Li2 O14 1.918820 1_555
Li2 O14 1.924250 1_455
Li2 O12 2.043336 1_455
Li2 O7 2.078415 1_555
Li3 O15 1.906802 1_655
Li3 O15 1.911644 1_555
Li3 O11 1.980712 1_555
Li3 O10 2.028493 1_555
Li4 O16 1.946433 1_655
Li4 O16 1.950321 1_555
Li4 O20 2.070586 1_555
Li4 O13 2.147993 1_555
Li5 O17 1.944650 1_555
Li5 O17 1.952762 1_455
Li5 O21 2.068233 1_555
Li5 O8 2.144837 1_545
Li6 O19 1.919246 1_655
Li6 O19 1.924088 1_555
Li6 O23 2.039082 1_555
Li6 O0 2.076463 1_654
Li7 O25 1.944803 1_555
Li7 O25 1.952171 1_655
Li7 O22 2.067615 1_555
Li7 O1 2.139347 1_554
Li8 O26 1.914311 1_455
Li8 O26 1.924709 1_555
Li8 O24 2.038315 1_555
Li8 O18 2.075328 1_445
Cr0 O0 2.122138 1_655
Cr0 O0 2.128990 1_555
Cr0 O2 2.148875 1_555
Cr0 O2 2.171847 1_655
Cr0 O14 2.262685 1_565
Cr1 O5 2.105073 1_455
Cr1 O5 2.113823 1_555
Cr1 O1 2.118017 1_555
Cr1 O1 2.119742 1_455
Cr1 O4 2.218205 1_555
Cr2 O6 2.099201 1_555
Cr2 O8 2.114563 1_655
Cr2 O8 2.126283 1_555
Cr2 O6 2.127236 1_655
Cr2 O3 2.221323 1_555
Cr3 O7 2.125035 1_555
Cr3 O7 2.126694 1_655
Cr3 O9 2.155093 1_555
Cr3 O9 2.165243 1_655
Cr3 O26 2.261606 1_556
Cr4 O10 2.096889 1_555
Cr4 O13 2.117985 1_455
Cr4 O13 2.122500 1_555
Cr4 O10 2.131338 1_455
Cr4 O15 2.218653 1_555
Cr5 O20 2.116161 1_455
Cr5 O20 2.122194 1_555
Cr5 O12 2.124712 1_555
Cr5 O12 2.133760 1_455
Cr5 O17 2.210920 1_555
Cr6 O18 2.123677 1_455
Cr6 O18 2.128647 1_555
Cr6 O11 2.146219 1_555
Cr6 O11 2.177170 1_455
Cr6 O19 2.260516 1_555
Cr7 O22 2.117770 1_555
Cr7 O22 2.121515 1_455
Cr7 O23 2.126306 1_555
Cr7 O23 2.134224 1_455
Cr7 O16 2.209994 1_555
Cr8 O21 2.114224 1_655
Cr8 O24 2.120395 1_555
Cr8 O21 2.124653 1_555
Cr8 O24 2.136213 1_655
Cr8 O25 2.207048 1_555
B0 O23 1.389597 1_556
B0 O2 1.392062 1_655
B0 O1 1.399555 1_555
B1 O6 1.380994 1_655
B1 O10 1.380995 1_555
B1 O5 1.382681 1_555
B2 O12 1.389817 1_555
B2 O9 1.392335 1_655
B2 O13 1.399414 1_555
B3 O24 1.389705 1_565
B3 O11 1.391882 1_455
B3 O8 1.399477 1_555
B4 O3 1.387714 1_545
B4 O14 1.389561 1_555
B4 O17 1.393487 1_555
B5 O15 1.386976 1_555
B5 O19 1.389370 1_555
B5 O16 1.393654 1_555
B6 O21 1.386359 1_655
B6 O20 1.386391 1_555
B6 O22 1.387365 1_555
B7 O18 1.389472 1_455
B7 O0 1.389527 1_554
B7 O7 1.389895 1_564
B8 O4 1.387546 1_554
B8 O26 1.388789 1_555
B8 O25 1.393261 1_555
