# generated using pymatgen
data_CeTh9O20
_symmetry_space_group_name_H-M   'P 1'
_cell_length_a   6.84092640
_cell_length_b   7.89942657
_cell_length_c   8.83084641
_cell_angle_alpha   102.92416903
_cell_angle_beta   97.42036373
_cell_angle_gamma   106.77791563
_symmetry_Int_Tables_number   1
_chemical_formula_structural   CeTh9O20
_chemical_formula_sum   'Ce1 Th9 O20'
_cell_volume   435.62412560
_cell_formula_units_Z   1
loop_
 _symmetry_equiv_pos_site_id
 _symmetry_equiv_pos_as_xyz
  1  'x, y, z'
loop_
 _atom_site_type_symbol
 _atom_site_label
 _atom_site_symmetry_multiplicity
 _atom_site_fract_x
 _atom_site_fract_y
 _atom_site_fract_z
 _atom_site_occupancy
  Ce  Ce0  1  -0.00000000  0.50000000  0.00000000  1
  Th  Th0  1  0.19944201  0.89898710  0.39872923  1
  Th  Th1  1  0.19942274  0.40006290  0.39867279  1
  Th  Th2  1  0.59975643  0.69911367  0.19925931  1
  Th  Th3  1  0.60127565  0.20085646  0.19952923  1
  Th  Th4  1  -0.00000000  -0.00000000  0.00000000  1
  Th  Th5  1  0.80055799  0.10101290  0.60127077  1
  Th  Th6  1  0.80057726  0.59993710  0.60132721  1
  Th  Th7  1  0.40024357  0.30088633  0.80074069  1
  Th  Th8  1  0.39872435  0.79914354  0.80047077  1
  O  O0  1  0.84974657  0.32501192  0.44983876  1
  O  O1  1  0.15025343  0.67498808  0.55016124  1
  O  O2  1  0.14998037  0.17513179  0.55019869  1
  O  O3  1  0.85001963  0.82486821  0.44980131  1
  O  O4  1  0.54958689  0.47492231  0.34963432  1
  O  O5  1  0.54986861  0.97476033  0.34973862  1
  O  O6  1  0.24716679  0.62334350  0.24706852  1
  O  O7  1  0.95030224  0.77186044  0.14804040  1
  O  O8  1  0.24913629  0.12489528  0.24960498  1
  O  O9  1  0.95020920  0.27728191  0.14833550  1
  O  O10  1  0.34647631  0.57407430  0.95071139  1
  O  O11  1  0.34955524  0.07506344  0.94986388  1
  O  O12  1  0.04969776  0.22813956  0.85195960  1
  O  O13  1  0.65044476  0.92493656  0.05013612  1
  O  O14  1  0.65352369  0.42592570  0.04928861  1
  O  O15  1  0.04979080  0.72271809  0.85166450  1
  O  O16  1  0.45041311  0.52507769  0.65036568  1
  O  O17  1  0.45013139  0.02523967  0.65026138  1
  O  O18  1  0.75086371  0.87510472  0.75039502  1
  O  O19  1  0.75283321  0.37665650  0.75293148  1
loop_
_geom_bond_atom_site_label_1
_geom_bond_atom_site_label_2
_geom_bond_distance
_geom_bond_site_symmetry_2
Ce0 O6 2.390339 1_555
Ce0 O19 2.390339 1_454
Ce0 O7 2.391037 1_455
Ce0 O12 2.391037 1_554
Ce0 O15 2.393201 1_554
Ce0 O9 2.393201 1_455
Ce0 O10 2.393634 1_554
Ce0 O14 2.393634 1_455
O0 Th3 2.415471 1_555
O0 Th6 2.420254 1_555
O0 Th1 2.420347 1_655
O0 Th5 2.421464 1_555
O1 Th8 2.415471 1_555
O1 Th1 2.420254 1_555
O1 Th6 2.420347 1_455
O1 Th0 2.421464 1_555
O2 Th5 2.418406 1_455
O2 Th7 2.422727 1_555
O2 Th1 2.428068 1_555
O2 Th0 2.428977 1_545
O3 Th0 2.418406 1_655
O3 Th2 2.422727 1_555
O3 Th6 2.428068 1_555
O3 Th5 2.428977 1_565
O4 Th2 2.415865 1_555
O4 Th1 2.416626 1_555
O4 Th3 2.418368 1_555
O4 Th6 2.432499 1_555
O5 Th0 2.418167 1_555
O5 Th2 2.423933 1_555
O5 Th3 2.427087 1_565
O5 Th5 2.430493 1_565
O6 Th1 2.417983 1_555
O6 Th0 2.420816 1_555
O6 Th2 2.428379 1_555
O7 Th0 2.420124 1_655
O7 Th2 2.426177 1_555
O7 Th4 2.426412 1_665
O8 Th4 2.413048 1_555
O8 Th1 2.415745 1_555
O8 Th0 2.418885 1_545
O8 Th3 2.432699 1_555
O9 Th3 2.415700 1_555
O9 Th1 2.418084 1_655
O9 Th4 2.427375 1_655
O10 Th7 2.419080 1_555
O10 Th2 2.419746 1_556
O10 Th8 2.420702 1_555
O11 Th4 2.416225 1_556
O11 Th7 2.418322 1_555
O11 Th8 2.419899 1_545
O11 Th3 2.421800 1_556
O12 Th5 2.420124 1_455
O12 Th7 2.426177 1_555
O12 Th4 2.426412 1_556
O13 Th4 2.416225 1_665
O13 Th2 2.418322 1_555
O13 Th3 2.419899 1_565
O13 Th8 2.421800 1_554
O14 Th2 2.419080 1_555
O14 Th7 2.419746 1_554
O14 Th3 2.420702 1_555
O15 Th8 2.415700 1_555
O15 Th6 2.418084 1_455
O15 Th4 2.427375 1_566
O16 Th7 2.415865 1_555
O16 Th6 2.416626 1_555
O16 Th8 2.418368 1_555
O16 Th1 2.432499 1_555
O17 Th5 2.418167 1_555
O17 Th7 2.423933 1_555
O17 Th8 2.427087 1_545
O17 Th0 2.430493 1_545
O18 Th4 2.413048 1_666
O18 Th6 2.415745 1_555
O18 Th5 2.418885 1_565
O18 Th8 2.432699 1_555
O19 Th6 2.417983 1_555
O19 Th5 2.420816 1_555
O19 Th7 2.428379 1_555
