# generated using pymatgen
data_Li5Mn6(BO3)6
_symmetry_space_group_name_H-M   'P 1'
_cell_length_a   5.21694600
_cell_length_b   7.94921275
_cell_length_c   9.70024120
_cell_angle_alpha   104.32918077
_cell_angle_beta   103.60545593
_cell_angle_gamma   88.12662225
_symmetry_Int_Tables_number   1
_chemical_formula_structural   Li5Mn6(BO3)6
_chemical_formula_sum   'Li5 Mn6 B6 O18'
_cell_volume   378.68367464
_cell_formula_units_Z   1
loop_
 _symmetry_equiv_pos_site_id
 _symmetry_equiv_pos_as_xyz
  1  'x, y, z'
loop_
 _atom_site_type_symbol
 _atom_site_label
 _atom_site_symmetry_multiplicity
 _atom_site_fract_x
 _atom_site_fract_y
 _atom_site_fract_z
 _atom_site_occupancy
  Li  Li0  1  0.75803800  0.99802900  0.68812500  1
  Li  Li1  1  0.91305400  0.67336500  0.64604700  1
  Li  Li2  1  0.56793300  0.35555300  0.98750800  1
  Li  Li3  1  0.08880000  0.32789300  0.35123800  1
  Li  Li4  1  0.24210700  0.00666800  0.31476300  1
  Mn  Mn0  1  0.32712400  0.91649700  0.84406600  1
  Mn  Mn1  1  0.34711400  0.74441800  0.49606500  1
  Mn  Mn2  1  0.01953500  0.42106000  0.83109700  1
  Mn  Mn3  1  0.98510200  0.59289100  0.16677100  1
  Mn  Mn4  1  0.65102400  0.25254200  0.50614200  1
  Mn  Mn5  1  0.67939100  0.07844000  0.16461500  1
  B  B0  1  0.86466400  0.79535400  0.92734000  1
  B  B1  1  0.79640200  0.86633300  0.39544300  1
  B  B2  1  0.46293200  0.52949900  0.72828500  1
  B  B3  1  0.54098900  0.46445700  0.27539500  1
  B  B4  1  0.20702500  0.13883600  0.61228300  1
  B  B5  1  0.12749200  0.20126400  0.06006900  1
  O  O0  1  0.00113600  0.65513400  0.97100900  1
  O  O1  1  0.65546000  0.85762300  0.98707600  1
  O  O2  1  0.93102500  0.86679800  0.82355200  1
  O  O3  1  0.02759800  0.82676400  0.34505300  1
  O  O4  1  0.62776800  0.98799500  0.34363200  1
  O  O5  1  0.30300400  0.65731200  0.67872900  1
  O  O6  1  0.74651700  0.79621900  0.50318300  1
  O  O7  1  0.39712500  0.43841900  0.81758200  1
  O  O8  1  0.69970200  0.49382400  0.68153700  1
  O  O9  1  0.30552800  0.50746200  0.32261800  1
  O  O10  1  0.60468700  0.53417600  0.17349300  1
  O  O11  1  0.25227700  0.20424400  0.50068000  1
  O  O12  1  0.70336700  0.34114100  0.33239900  1
  O  O13  1  0.36867300  0.01438300  0.66382200  1
  O  O14  1  0.97829300  0.18828200  0.66681000  1
  O  O15  1  0.07681800  0.13352400  0.16936400  1
  O  O16  1  0.35870700  0.15717800  0.01077500  1
  O  O17  1  0.96036100  0.31941000  0.00193000  1
loop_
_geom_bond_atom_site_label_1
_geom_bond_atom_site_label_2
_geom_bond_distance
_geom_bond_site_symmetry_2
Li0 O2 1.920268 1_555
Li0 O13 1.992800 1_565
Li0 O14 2.007610 1_565
Li0 O6 2.080040 1_555
Li1 O6 1.917558 1_555
Li1 O8 1.980316 1_555
Li1 O5 1.988715 1_655
Li1 O2 1.990184 1_555
Li2 O7 1.937258 1_555
Li2 O10 1.973515 1_556
Li2 O16 2.033139 1_556
Li2 O17 2.034735 1_556
Li3 O9 1.960199 1_555
Li3 O11 1.965631 1_555
Li3 O12 1.977508 1_455
Li3 O15 2.027025 1_555
Li4 O15 1.955672 1_555
Li4 O3 1.962439 1_545
Li4 O4 1.970904 1_545
Li4 O11 2.068896 1_555
Mn0 O1 2.056335 1_555
Mn0 O2 2.070460 1_455
Mn0 O13 2.138253 1_565
Mn0 O16 2.160200 1_566
Mn0 O5 2.262596 1_555
Mn1 O5 2.116962 1_555
Mn1 O6 2.119038 1_555
Mn1 O3 2.146471 1_555
Mn1 O9 2.170740 1_555
Mn1 O13 2.338196 1_565
Mn2 O7 2.016142 1_555
Mn2 O0 2.028051 1_555
Mn2 O17 2.100965 1_456
Mn2 O14 2.101190 1_455
Mn2 O8 2.106363 1_455
Mn3 O10 2.072983 1_555
Mn3 O0 2.097685 1_654
Mn3 O3 2.179752 1_655
Mn3 O9 2.187687 1_655
Mn3 O17 2.345240 1_555
Mn4 O12 2.056119 1_555
Mn4 O11 2.113743 1_555
Mn4 O14 2.165663 1_555
Mn4 O8 2.202547 1_555
Mn4 O4 2.282077 1_545
Mn5 O4 2.110822 1_545
Mn5 O1 2.116475 1_544
Mn5 O15 2.120636 1_655
Mn5 O16 2.153340 1_555
Mn5 O12 2.294423 1_555
B0 O1 1.375568 1_555
B0 O2 1.384134 1_555
B0 O0 1.403101 1_655
B1 O6 1.377091 1_555
B1 O4 1.392413 1_555
B1 O3 1.403241 1_655
B2 O7 1.363433 1_555
B2 O5 1.398968 1_555
B2 O8 1.410241 1_555
B3 O10 1.353664 1_555
B3 O12 1.406385 1_555
B3 O9 1.412584 1_555
B4 O11 1.380189 1_555
B4 O13 1.389874 1_555
B4 O14 1.421811 1_455
B5 O15 1.381158 1_555
B5 O17 1.391981 1_455
B5 O16 1.402581 1_555
