# generated using pymatgen
data_Li2Cu3(CO3)3
_symmetry_space_group_name_H-M   'P 1'
_cell_length_a   14.24198052
_cell_length_b   14.25777036
_cell_length_c   6.27768173
_cell_angle_alpha   89.44510932
_cell_angle_beta   90.52416925
_cell_angle_gamma   120.26531968
_symmetry_Int_Tables_number   1
_chemical_formula_structural   Li2Cu3(CO3)3
_chemical_formula_sum   'Li12 Cu18 C18 O54'
_cell_volume   1100.92805239
_cell_formula_units_Z   6
loop_
 _symmetry_equiv_pos_site_id
 _symmetry_equiv_pos_as_xyz
  1  'x, y, z'
loop_
 _atom_site_type_symbol
 _atom_site_label
 _atom_site_symmetry_multiplicity
 _atom_site_fract_x
 _atom_site_fract_y
 _atom_site_fract_z
 _atom_site_occupancy
  Li  Li0  1  0.09632400  0.88057100  0.25591400  1
  Li  Li1  1  0.11710800  0.56341600  0.74354200  1
  Li  Li2  1  0.11840600  0.21477900  0.75552700  1
  Li  Li3  1  0.43495500  0.55403600  0.72779400  1
  Li  Li4  1  0.43475900  0.55360400  0.22758300  1
  Li  Li5  1  0.45353000  0.25031700  0.75132100  1
  Li  Li6  1  0.78733600  0.90657800  0.74594600  1
  Li  Li7  1  0.78757900  0.90611300  0.24615500  1
  Li  Li8  1  0.80005800  0.54604400  0.74377500  1
  Li  Li9  1  0.79967100  0.54635700  0.24360800  1
  Li  Li10  1  0.74623500  0.20113100  0.75217400  1
  Li  Li11  1  0.74727400  0.20251200  0.25180000  1
  Cu  Cu0  1  0.23955800  0.79358900  0.53502900  1
  Cu  Cu1  1  0.23855400  0.79064000  0.03089500  1
  Cu  Cu2  1  0.20653900  0.44382900  0.48994100  1
  Cu  Cu3  1  0.20682700  0.44464100  0.02011600  1
  Cu  Cu4  1  0.22534300  0.10793000  0.50516500  1
  Cu  Cu5  1  0.22677600  0.10923600  0.00936300  1
  Cu  Cu6  1  0.54767100  0.77352500  0.97162700  1
  Cu  Cu7  1  0.54713400  0.77335000  0.46805000  1
  Cu  Cu8  1  0.56649900  0.46152300  0.98954700  1
  Cu  Cu9  1  0.56508500  0.46008800  0.47786700  1
  Cu  Cu10  1  0.52641000  0.09529300  0.51072900  1
  Cu  Cu11  1  0.52663500  0.09591700  0.02241400  1
  Cu  Cu12  1  0.88685700  0.77499400  0.98740800  1
  Cu  Cu13  1  0.88673400  0.77426900  0.49643200  1
  Cu  Cu14  1  0.90149000  0.43304400  0.00181200  1
  Cu  Cu15  1  0.90036300  0.43226700  0.47830900  1
  Cu  Cu16  1  0.89534400  0.11922900  0.49594500  1
  Cu  Cu17  1  0.89607500  0.11928800  0.01392300  1
  C  C0  1  0.00928900  0.66455000  0.50249100  1
  C  C1  1  0.00938300  0.66515400  0.00051800  1
  C  C2  1  0.33161200  0.66597300  0.99485800  1
  C  C3  1  0.33144800  0.66603700  0.50361500  1
  C  C4  1  0.65946800  0.99552700  0.50333400  1
  C  C5  1  0.33174600  0.34316000  0.98677800  1
  C  C6  1  0.65940300  0.99575300  0.00325200  1
  C  C7  1  0.33099000  0.34218900  0.50430200  1
  C  C8  1  0.33102800  0.01125200  0.76407900  1
  C  C9  1  0.32843200  0.00616000  0.26325200  1
  C  C10  1  0.67797200  0.66773800  0.73500500  1
  C  C11  1  0.67765300  0.66808300  0.23537600  1
  C  C12  1  0.66639800  0.33195700  0.99385000  1
  C  C13  1  0.66621800  0.33194600  0.50389400  1
  C  C14  1  0.00027500  0.00005000  0.50273200  1
  C  C15  1  0.00035300  0.99992100  0.00182600  1
  C  C16  1  0.98763000  0.32036800  0.75193800  1
  C  C17  1  0.98719800  0.31979800  0.25175000  1
  O  O0  1  0.01773100  0.92063100  0.47908200  1
  O  O1  1  0.01734700  0.91979400  0.02118700  1
  O  O2  1  0.09033900  0.76255100  0.51157900  1
  O  O3  1  0.08940300  0.76058000  0.04553500  1
  O  O4  1  0.02391300  0.58421400  0.96655300  1
  O  O5  1  0.02235000  0.58135500  0.51491700  1
  O  O6  1  0.32129100  0.91754600  0.77744700  1
  O  O7  1  0.07921600  0.40933900  0.75105300  1
  O  O8  1  0.31692000  0.91142800  0.27618400  1
  O  O9  1  0.07979800  0.40629500  0.25258800  1
  O  O10  1  0.23154500  0.58866700  0.51642100  1
  O  O11  1  0.23110400  0.58959200  0.98746600  1
  O  O12  1  0.35911300  0.76530100  0.52551700  1
  O  O13  1  0.35920500  0.76494500  0.02219600  1
  O  O14  1  0.07962200  0.09819800  0.52505500  1
  O  O15  1  0.07988100  0.09851900  0.99148700  1
  O  O16  1  0.56413300  0.97993300  0.51710900  1
  O  O17  1  0.56398000  0.98020000  0.01806000  1
  O  O18  1  0.23463900  0.32785100  0.53423500  1
  O  O19  1  0.23453700  0.32760100  0.00646500  1
  O  O20  1  0.40869500  0.64081900  0.97414600  1
  O  O21  1  0.40783200  0.64104200  0.46950700  1
  O  O22  1  0.41649400  0.44244600  0.98696700  1
  O  O23  1  0.41467100  0.44137500  0.48157700  1
  O  O24  1  0.67634000  0.91355200  0.97373100  1
  O  O25  1  0.67644900  0.91328200  0.47415400  1
  O  O26  1  0.34563000  0.26123800  0.96303800  1
  O  O27  1  0.34589400  0.26020800  0.50188600  1
  O  O28  1  0.24702000  0.02535600  0.75614100  1
  O  O29  1  0.24121400  0.01725900  0.25533300  1
  O  O30  1  0.58905400  0.66971500  0.72808200  1
  O  O31  1  0.58828200  0.66918900  0.22898200  1
  O  O32  1  0.42962500  0.09952600  0.75915500  1
  O  O33  1  0.42446500  0.09323800  0.25891600  1
  O  O34  1  0.67728000  0.57551500  0.73727100  1
  O  O35  1  0.77180200  0.75952100  0.73985600  1
  O  O36  1  0.67658600  0.57503900  0.23744800  1
  O  O37  1  0.77087200  0.75906600  0.23969500  1
  O  O38  1  0.89948300  0.98075500  0.99318600  1
  O  O39  1  0.57351100  0.32538500  0.51968600  1
  O  O40  1  0.89943700  0.98068900  0.50323500  1
  O  O41  1  0.57336300  0.32520600  0.98315400  1
  O  O42  1  0.75538700  0.42730300  0.99761800  1
  O  O43  1  0.75505600  0.42724300  0.49246500  1
  O  O44  1  0.67357400  0.24421900  0.50038700  1
  O  O45  1  0.67369400  0.24413400  0.00011200  1
  O  O46  1  0.90985300  0.64899300  0.98974800  1
  O  O47  1  0.90996400  0.64827900  0.48119400  1
  O  O48  1  0.74467800  0.09332000  0.51835200  1
  O  O49  1  0.74475600  0.09362300  0.01761800  1
  O  O50  1  0.89650800  0.32199000  0.74985100  1
  O  O51  1  0.89699300  0.32618100  0.24791400  1
  O  O52  1  0.98496200  0.22710000  0.75485200  1
  O  O53  1  0.97674600  0.22383200  0.25414100  1
loop_
_geom_bond_atom_site_label_1
_geom_bond_atom_site_label_2
_geom_bond_distance
_geom_bond_site_symmetry_2
Li0 O29 2.000618 1_565
Li0 O0 2.056812 1_555
Li0 O1 2.082543 1_555
Li0 O3 2.133587 1_555
Li0 O2 2.284806 1_555
Li1 O7 1.980608 1_555
Li1 O4 2.061155 1_555
Li1 O5 2.062030 1_555
Li1 O10 2.063950 1_555
Li1 O11 2.115361 1_555
Li2 O52 1.994788 1_455
Li2 O14 2.065855 1_555
Li2 O15 2.072063 1_555
Li2 O18 2.139582 1_555
Li2 O19 2.263683 1_556
Li3 O30 1.971835 1_555
Li3 O20 2.139321 1_555
Li3 O23 2.150560 1_555
Li3 O21 2.179398 1_555
Li3 O22 2.187157 1_555
Li4 O31 1.965804 1_555
Li4 O22 2.117714 1_554
Li4 O21 2.130028 1_555
Li4 O20 2.152090 1_554
Li4 O23 2.163831 1_555
Li5 O32 2.000256 1_555
Li5 O41 2.078139 1_555
Li5 O39 2.086073 1_555
Li5 O26 2.105892 1_555
Li5 O27 2.234166 1_555
Li6 O35 1.995093 1_555
Li6 O40 2.073603 1_555
Li6 O38 2.088602 1_555
Li6 O24 2.180865 1_555
Li6 O25 2.348205 1_555
Li7 O37 1.988077 1_555
Li7 O38 2.120942 1_554
Li7 O40 2.133489 1_555
Li7 O25 2.184356 1_555
Li7 O24 2.358429 1_554
Li8 O34 1.993697 1_555
Li8 O46 2.161049 1_555
Li8 O42 2.165852 1_555
Li8 O43 2.169741 1_555
Li8 O47 2.234462 1_555
Li9 O36 1.990655 1_555
Li9 O47 2.121755 1_555
Li9 O43 2.146530 1_555
Li9 O42 2.148860 1_554
Li9 O46 2.197600 1_554
Li10 O50 1.957696 1_555
Li10 O48 2.127596 1_555
Li10 O44 2.130449 1_555
Li10 O45 2.133615 1_556
Li10 O49 2.246200 1_556
Li11 O51 1.966356 1_555
Li11 O45 2.127245 1_555
Li11 O49 2.135407 1_555
Li11 O44 2.137232 1_555
Li11 O48 2.262252 1_555
Cu0 O12 1.939069 1_555
Cu0 O2 1.944587 1_555
Cu0 O6 2.177246 1_555
Cu0 O8 2.188860 1_555
Cu1 O13 1.930399 1_555
Cu1 O3 1.946661 1_555
Cu1 O8 2.159878 1_555
Cu1 O6 2.241266 1_554
Cu2 O18 1.904719 1_555
Cu2 O10 1.919166 1_555
Cu2 O9 2.181117 1_555
Cu2 O7 2.314480 1_555
Cu3 O19 1.901307 1_555
Cu3 O11 1.924974 1_554
Cu3 O9 2.176589 1_555
Cu3 O7 2.334018 1_554
Cu4 O27 1.975931 1_555
Cu4 O14 2.013970 1_555
Cu4 O28 2.070095 1_555
Cu4 O29 2.126597 1_555
Cu5 O26 1.986354 1_554
Cu5 O15 2.021516 1_554
Cu5 O29 2.091199 1_555
Cu5 O28 2.105507 1_554
Cu6 O24 1.912162 1_555
Cu6 O20 1.929470 1_555
Cu6 O30 2.411478 1_555
Cu6 O31 2.441569 1_556
Cu7 O25 1.915770 1_555
Cu7 O21 1.929286 1_555
Cu7 O31 2.395389 1_555
Cu7 O30 2.455434 1_555
Cu8 O41 1.995435 1_555
Cu8 O22 2.012965 1_555
Cu8 O36 2.223922 1_556
Cu8 O34 2.247214 1_555
Cu9 O39 1.998466 1_555
Cu9 O23 2.021233 1_555
Cu9 O36 2.204140 1_555
Cu9 O34 2.295011 1_555
Cu10 O16 1.970938 1_545
Cu10 O44 2.102258 1_555
Cu10 O32 2.112068 1_555
Cu10 O33 2.126929 1_555
Cu11 O17 1.972655 1_545
Cu11 O33 2.074964 1_555
Cu11 O45 2.100034 1_555
Cu11 O32 2.161253 1_554
Cu12 O1 1.973516 1_656
Cu12 O46 1.981753 1_555
Cu12 O35 2.178176 1_555
Cu12 O37 2.225155 1_556
Cu13 O0 1.980440 1_655
Cu13 O47 1.987058 1_555
Cu13 O35 2.179754 1_555
Cu13 O37 2.228231 1_555
Cu14 O4 1.986011 1_654
Cu14 O42 2.040701 1_554
Cu14 O51 2.137819 1_555
Cu14 O50 2.224234 1_554
Cu15 O5 1.967023 1_655
Cu15 O43 2.037034 1_555
Cu15 O51 2.085654 1_555
Cu15 O50 2.289931 1_555
Cu16 O48 1.991515 1_555
Cu16 O40 2.005357 1_545
Cu16 O53 2.029293 1_555
Cu16 O52 2.160539 1_555
Cu17 O49 1.996160 1_555
Cu17 O38 2.005577 1_544
Cu17 O53 2.025210 1_555
Cu17 O52 2.153653 1_554
C0 O2 1.289418 1_555
C0 O5 1.291531 1_555
C0 O47 1.318745 1_455
C1 O4 1.290873 1_554
C1 O3 1.291650 1_555
C1 O46 1.317685 1_454
C2 O13 1.272643 1_556
C2 O11 1.290557 1_555
C2 O20 1.323297 1_555
C3 O12 1.271949 1_555
C3 O10 1.290741 1_555
C3 O21 1.323939 1_555
C4 O16 1.264081 1_555
C4 O48 1.311692 1_565
C4 O25 1.325874 1_555
C5 O26 1.289307 1_555
C5 O19 1.293910 1_556
C5 O22 1.318499 1_555
C6 O17 1.266043 1_555
C6 O49 1.312845 1_565
C6 O24 1.325186 1_554
C7 O27 1.289197 1_555
C7 O18 1.296657 1_555
C7 O23 1.319431 1_555
C8 O6 1.273796 1_545
C8 O28 1.309819 1_555
C8 O32 1.332434 1_555
C9 O8 1.277761 1_545
C9 O33 1.304276 1_555
C9 O29 1.329409 1_555
C10 O30 1.281141 1_555
C10 O34 1.309895 1_555
C10 O35 1.317747 1_555
C11 O31 1.281099 1_555
C11 O37 1.307708 1_555
C11 O36 1.318945 1_555
C12 O41 1.280369 1_555
C12 O45 1.307812 1_556
C12 O42 1.310804 1_555
C13 O39 1.280457 1_555
C13 O44 1.307135 1_555
C13 O43 1.311102 1_555
C14 O0 1.285975 1_545
C14 O14 1.289098 1_555
C14 O40 1.318765 1_445
C15 O1 1.286075 1_555
C15 O15 1.287593 1_564
C15 O38 1.320814 1_454
C16 O7 1.281672 1_655
C16 O50 1.309510 1_555
C16 O52 1.311006 1_555
C17 O9 1.273084 1_655
C17 O53 1.299561 1_555
C17 O51 1.332875 1_555
