# generated using pymatgen
data_Li3Ti(FeO2)4
_symmetry_space_group_name_H-M   'P 1'
_cell_length_a   6.02599008
_cell_length_b   6.02599008
_cell_length_c   6.06227314
_cell_angle_alpha   59.73973747
_cell_angle_beta   59.73973747
_cell_angle_gamma   60.82603006
_symmetry_Int_Tables_number   1
_chemical_formula_structural   Li3Ti(FeO2)4
_chemical_formula_sum   'Li3 Ti1 Fe4 O8'
_cell_volume   155.98172460
_cell_formula_units_Z   1
loop_
 _symmetry_equiv_pos_site_id
 _symmetry_equiv_pos_as_xyz
  1  'x, y, z'
loop_
 _atom_site_type_symbol
 _atom_site_label
 _atom_site_symmetry_multiplicity
 _atom_site_fract_x
 _atom_site_fract_y
 _atom_site_fract_z
 _atom_site_occupancy
  Li  Li0  1  0.00000000  0.50000000  0.50000000  1
  Li  Li1  1  0.00000000  0.00000000  0.50000000  1
  Li  Li2  1  0.50000000  0.00000000  0.50000000  1
  Ti  Ti0  1  0.50000000  0.50000000  0.00000000  1
  Fe  Fe0  1  0.50000000  0.50000000  0.50000000  1
  Fe  Fe1  1  0.00000000  0.00000000  0.00000000  1
  Fe  Fe2  1  0.00000000  0.50000000  0.00000000  1
  Fe  Fe3  1  0.50000000  0.00000000  0.00000000  1
  O  O0  1  0.73326800  0.73326800  0.77776800  1
  O  O1  1  0.73277300  0.27699800  0.75122900  1
  O  O2  1  0.27699800  0.73277300  0.75122900  1
  O  O3  1  0.25469000  0.25469000  0.74487100  1
  O  O4  1  0.74531000  0.74531000  0.25512900  1
  O  O5  1  0.72300200  0.26722700  0.24877100  1
  O  O6  1  0.26722700  0.72300200  0.24877100  1
  O  O7  1  0.26673200  0.26673200  0.22223200  1
loop_
_geom_bond_atom_site_label_1
_geom_bond_atom_site_label_2
_geom_bond_distance
_geom_bond_site_symmetry_2
Li0 O6 2.072114 1_555
Li0 O1 2.072114 1_455
Li0 O3 2.148732 1_555
Li0 O4 2.148732 1_455
Li0 O7 2.202269 1_555
Li0 O0 2.202269 1_455
Li1 O7 2.250675 1_555
Li1 O0 2.250675 1_445
Li1 O1 2.273485 1_455
Li1 O5 2.273485 1_455
Li1 O6 2.273485 1_545
Li1 O2 2.273485 1_545
Li2 O2 2.072114 1_545
Li2 O5 2.072114 1_555
Li2 O3 2.148732 1_555
Li2 O4 2.148732 1_545
Li2 O7 2.202269 1_555
Li2 O0 2.202269 1_545
Fe0 O4 2.069088 1_555
Fe0 O3 2.069088 1_555
Fe0 O6 2.084620 1_555
Fe0 O1 2.084620 1_555
Fe0 O5 2.084620 1_555
Fe0 O2 2.084620 1_555
Fe1 O4 2.148197 1_445
Fe1 O3 2.148197 1_554
Fe1 O2 2.223441 1_544
Fe1 O5 2.223441 1_455
Fe1 O1 2.223441 1_454
Fe1 O6 2.223441 1_545
Fe2 O7 2.108441 1_555
Fe2 O0 2.108441 1_454
Fe2 O3 2.152410 1_554
Fe2 O4 2.152410 1_455
Fe2 O5 2.154444 1_455
Fe2 O2 2.154444 1_554
Fe3 O7 2.108441 1_555
Fe3 O0 2.108441 1_544
Fe3 O4 2.152410 1_545
Fe3 O3 2.152410 1_554
Fe3 O1 2.154444 1_554
Fe3 O6 2.154444 1_545
O0 Ti0 1.968738 1_556
O1 Ti0 2.029925 1_556
O2 Ti0 2.029925 1_556
O5 Ti0 2.029925 1_555
O6 Ti0 2.029925 1_555
O7 Ti0 1.968738 1_555
