# generated using pymatgen
data_V4(OF3)3
_symmetry_space_group_name_H-M   'P 1'
_cell_length_a   5.08096802
_cell_length_b   5.29440815
_cell_length_c   8.95522849
_cell_angle_alpha   73.72726430
_cell_angle_beta   90.44343229
_cell_angle_gamma   61.07627580
_symmetry_Int_Tables_number   1
_chemical_formula_structural   V4(OF3)3
_chemical_formula_sum   'V4 O3 F9'
_cell_volume   199.44196833
_cell_formula_units_Z   1
loop_
 _symmetry_equiv_pos_site_id
 _symmetry_equiv_pos_as_xyz
  1  'x, y, z'
loop_
 _atom_site_type_symbol
 _atom_site_label
 _atom_site_symmetry_multiplicity
 _atom_site_fract_x
 _atom_site_fract_y
 _atom_site_fract_z
 _atom_site_occupancy
  V  V0  1  0.75295644  0.49868939  0.25123722  1
  V  V1  1  0.46361032  0.01246226  0.50158388  1
  V  V2  1  0.26326379  0.52032731  0.74536469  1
  V  V3  1  0.03717661  0.98404443  0.00256631  1
  O  O0  1  0.40017712  0.75018077  0.08595802  1
  O  O1  1  0.39756375  0.75183450  0.66632277  1
  O  O2  1  0.10169159  0.25304891  0.41247925  1
  F  F0  1  0.89901122  0.77216088  0.17017558  1
  F  F1  1  0.91196154  0.73333728  0.58000446  1
  F  F2  1  0.96633583  0.26890704  0.11755103  1
  F  F3  1  0.53102633  0.73877557  0.37801426  1
  F  F4  1  0.60704917  0.22711487  0.33287177  1
  F  F5  1  0.58103786  0.25202930  0.92478032  1
  F  F6  1  0.48907043  0.23439532  0.63223481  1
  F  F7  1  0.01421077  0.75222880  0.87501282  1
  F  F8  1  0.08385925  0.25046436  0.82384282  1
loop_
_geom_bond_atom_site_label_1
_geom_bond_atom_site_label_2
_geom_bond_distance
_geom_bond_site_symmetry_2
O0 V3 1.656521 1_555
O0 V0 1.929358 1_555
O1 V2 1.673104 1_555
O1 V1 1.872919 1_565
O2 V1 1.668148 1_555
O2 V0 1.896048 1_455
F0 V0 1.905947 1_555
F0 V3 1.959242 1_655
F1 V2 1.930493 1_655
F1 V1 2.000964 1_565
F2 V0 1.910292 1_555
F2 V3 1.953315 1_645
F3 V0 1.902189 1_555
F3 V1 1.966185 1_565
F4 V0 1.897832 1_555
F4 V1 1.990312 1_555
F5 V2 1.915339 1_555
F5 V3 2.027332 1_646
F6 V1 1.918703 1_555
F6 V2 1.957519 1_555
F7 V3 1.935684 1_556
F7 V2 1.943067 1_555
F8 V3 1.916198 1_546
F8 V2 2.018211 1_555
