# generated using pymatgen
data_WOF3
_symmetry_space_group_name_H-M   'P 1'
_cell_length_a   5.54778935
_cell_length_b   4.97041236
_cell_length_c   9.16448092
_cell_angle_alpha   90.00000000
_cell_angle_beta   90.00000000
_cell_angle_gamma   90.00000000
_symmetry_Int_Tables_number   1
_chemical_formula_structural   WOF3
_chemical_formula_sum   'W4 O4 F12'
_cell_volume   252.70873540
_cell_formula_units_Z   4
loop_
 _symmetry_equiv_pos_site_id
 _symmetry_equiv_pos_as_xyz
  1  'x, y, z'
loop_
 _atom_site_type_symbol
 _atom_site_label
 _atom_site_symmetry_multiplicity
 _atom_site_fract_x
 _atom_site_fract_y
 _atom_site_fract_z
 _atom_site_occupancy
  W  W0  1  0.13865144  0.59869032  0.10704227  1
  W  W1  1  0.36134856  0.40130968  0.60704227  1
  W  W2  1  0.63865144  0.90130968  0.89295773  1
  W  W3  1  0.86134856  0.09869032  0.39295773  1
  O  O0  1  0.12268685  0.23856308  0.49798171  1
  O  O1  1  0.37731315  0.76143692  0.99798171  1
  O  O2  1  0.62268685  0.26143692  0.50201829  1
  O  O3  1  0.87731315  0.73856308  0.00201829  1
  F  F0  1  0.10484505  0.91361748  0.25117111  1
  F  F1  1  0.14187346  0.53788565  0.74578875  1
  F  F2  1  0.35632380  0.73044316  0.50787623  1
  F  F3  1  0.14367620  0.26955684  0.00787623  1
  F  F4  1  0.35812654  0.46211435  0.24578875  1
  F  F5  1  0.39515495  0.08638252  0.75117111  1
  F  F6  1  0.60484505  0.58638252  0.74882889  1
  F  F7  1  0.64187346  0.96211435  0.25421125  1
  F  F8  1  0.85632380  0.76955684  0.49212377  1
  F  F9  1  0.64367620  0.23044316  0.99212377  1
  F  F10  1  0.85812654  0.03788565  0.75421125  1
  F  F11  1  0.89515495  0.41361748  0.24882889  1
loop_
_geom_bond_atom_site_label_1
_geom_bond_atom_site_label_2
_geom_bond_distance
_geom_bond_site_symmetry_2
O0 W1 1.845646 1_555
O0 W3 1.873977 1_455
O1 W0 1.845646 1_556
O1 W2 1.873977 1_555
O2 W3 1.845646 1_555
O2 W1 1.873977 1_555
O3 W2 1.845646 1_554
O3 W0 1.873977 1_655
F0 W0 2.056716 1_555
F0 W3 2.087937 1_465
F1 W1 1.886846 1_555
F2 W1 1.871622 1_555
F3 W0 1.871622 1_555
F4 W0 1.886846 1_555
F5 W1 2.056716 1_555
F5 W2 2.087937 1_545
F6 W2 2.056716 1_555
F6 W1 2.087937 1_555
F7 W3 1.886846 1_565
F8 W3 1.871622 1_565
F9 W2 1.871622 1_545
F10 W2 1.886846 1_545
F11 W3 2.056716 1_555
F11 W0 2.087937 1_655
