# generated using pymatgen
data_CrNi(PO4)2
_symmetry_space_group_name_H-M   'P 1'
_cell_length_a   8.38724007
_cell_length_b   8.38724007
_cell_length_c   8.38724006
_cell_angle_alpha   61.99454044
_cell_angle_beta   61.99454044
_cell_angle_gamma   61.99453326
_symmetry_Int_Tables_number   1
_chemical_formula_structural   CrNi(PO4)2
_chemical_formula_sum   'Cr3 Ni3 P6 O24'
_cell_volume   435.81118243
_cell_formula_units_Z   3
loop_
 _symmetry_equiv_pos_site_id
 _symmetry_equiv_pos_as_xyz
  1  'x, y, z'
loop_
 _atom_site_type_symbol
 _atom_site_label
 _atom_site_symmetry_multiplicity
 _atom_site_fract_x
 _atom_site_fract_y
 _atom_site_fract_z
 _atom_site_occupancy
  Cr  Cr0  1  0.99848000  0.99848000  0.99848000  1
  Cr  Cr1  1  0.14230100  0.14230100  0.14230100  1
  Cr  Cr2  1  0.49921600  0.49921600  0.49921600  1
  Ni  Ni0  1  0.64172100  0.64172100  0.64172100  1
  Ni  Ni1  1  0.85685800  0.85685800  0.85685800  1
  Ni  Ni2  1  0.35789800  0.35789800  0.35789800  1
  P  P0  1  0.54671600  0.95344600  0.25121400  1
  P  P1  1  0.25121400  0.54671600  0.95344600  1
  P  P2  1  0.95344600  0.25121400  0.54671600  1
  P  P3  1  0.04797300  0.75030800  0.45210100  1
  P  P4  1  0.75030800  0.45210100  0.04797300  1
  P  P5  1  0.45210100  0.04797300  0.75030800  1
  O  O0  1  0.32902600  0.50776900  0.10327000  1
  O  O1  1  0.10327000  0.32902600  0.50776900  1
  O  O2  1  0.50776900  0.10327000  0.32902600  1
  O  O3  1  0.74953700  0.93826600  0.09761300  1
  O  O4  1  0.38830000  0.00340200  0.17369300  1
  O  O5  1  0.55352100  0.75045300  0.40083800  1
  O  O6  1  0.09761300  0.74953700  0.93826600  1
  O  O7  1  0.40083800  0.55352100  0.75045300  1
  O  O8  1  0.00716800  0.82970700  0.60166200  1
  O  O9  1  0.75045300  0.40083800  0.55352100  1
  O  O10  1  0.06709100  0.90752500  0.24458300  1
  O  O11  1  0.82970700  0.60166200  0.00716800  1
  O  O12  1  0.17369300  0.38830000  0.00340200  1
  O  O13  1  0.93826600  0.09761300  0.74953700  1
  O  O14  1  0.25238400  0.59998800  0.43607700  1
  O  O15  1  0.00340200  0.17369300  0.38830000  1
  O  O16  1  0.59998800  0.43607700  0.25238400  1
  O  O17  1  0.90752500  0.24458300  0.06709100  1
  O  O18  1  0.43607700  0.25238400  0.59998800  1
  O  O19  1  0.60166200  0.00716800  0.82970700  1
  O  O20  1  0.24458300  0.06709100  0.90752500  1
  O  O21  1  0.48436100  0.89508300  0.68044000  1
  O  O22  1  0.89508300  0.68044000  0.48436100  1
  O  O23  1  0.68044000  0.48436100  0.89508300  1
loop_
_geom_bond_atom_site_label_1
_geom_bond_atom_site_label_2
_geom_bond_distance
_geom_bond_site_symmetry_2
Cr0 O6 2.066757 1_655
Cr0 O13 2.066757 1_565
Cr0 O3 2.066757 1_556
Cr0 O17 2.097184 1_566
Cr0 O10 2.097184 1_656
Cr0 O20 2.097185 1_665
Cr1 O4 1.910059 1_555
Cr1 O15 1.910059 1_555
Cr1 O12 1.910059 1_555
Cr1 O17 2.020695 1_455
Cr1 O20 2.020695 1_554
Cr1 O10 2.020695 1_545
Cr2 O9 2.060115 1_555
Cr2 O7 2.060115 1_555
Cr2 O5 2.060115 1_555
Cr2 O14 2.060752 1_555
Cr2 O16 2.060752 1_555
Cr2 O18 2.060752 1_555
Ni0 O21 1.993676 1_555
Ni0 O23 1.993676 1_555
Ni0 O22 1.993676 1_555
Ni0 O9 2.121418 1_555
Ni0 O5 2.121418 1_555
Ni0 O7 2.121418 1_555
Ni1 O19 1.968889 1_565
Ni1 O8 1.968890 1_655
Ni1 O11 1.968890 1_556
Ni1 O6 2.089153 1_655
Ni1 O3 2.089153 1_556
Ni1 O13 2.089154 1_565
Ni2 O2 1.969358 1_555
Ni2 O0 1.969358 1_555
Ni2 O1 1.969358 1_555
Ni2 O14 2.086576 1_555
Ni2 O18 2.086576 1_555
Ni2 O16 2.086577 1_555
O0 P1 1.515311 1_554
O1 P2 1.515311 1_455
O2 P0 1.515311 1_545
O3 P0 1.569149 1_555
O4 P0 1.548003 1_545
O5 P0 1.564068 1_555
O6 P1 1.569149 1_555
O7 P1 1.564068 1_555
O8 P3 1.517044 1_555
O9 P2 1.564068 1_555
O10 P3 1.604671 1_555
O11 P4 1.517044 1_555
O12 P1 1.548003 1_554
O13 P2 1.569149 1_555
O14 P3 1.568360 1_555
O15 P2 1.548003 1_455
O16 P4 1.568360 1_555
O17 P4 1.604671 1_555
O18 P5 1.568360 1_555
O19 P5 1.517044 1_555
O20 P5 1.604671 1_555
O21 P5 1.513907 1_565
O22 P3 1.513907 1_655
O23 P4 1.513907 1_556
