# generated using pymatgen
data_Li2CuP3H8O13
_symmetry_space_group_name_H-M   'P 1'
_cell_length_a   6.72217200
_cell_length_b   9.25941080
_cell_length_c   10.10586186
_cell_angle_alpha   94.22039951
_cell_angle_beta   104.75758585
_cell_angle_gamma   107.15219998
_symmetry_Int_Tables_number   1
_chemical_formula_structural   Li2CuP3H8O13
_chemical_formula_sum   'Li4 Cu2 P6 H16 O26'
_cell_volume   573.64220775
_cell_formula_units_Z   2
loop_
 _symmetry_equiv_pos_site_id
 _symmetry_equiv_pos_as_xyz
  1  'x, y, z'
loop_
 _atom_site_type_symbol
 _atom_site_label
 _atom_site_symmetry_multiplicity
 _atom_site_fract_x
 _atom_site_fract_y
 _atom_site_fract_z
 _atom_site_occupancy
  Li  Li0  1  0.20806400  0.65935400  0.95670300  1
  Li  Li1  1  0.55040400  0.93760200  0.84728900  1
  Li  Li2  1  0.44959600  0.06239800  0.15271100  1
  Li  Li3  1  0.79193600  0.34064600  0.04329700  1
  Cu  Cu0  1  0.63945900  0.75648400  0.60258700  1
  Cu  Cu1  1  0.36054100  0.24351600  0.39741300  1
  P  P0  1  0.08331200  0.98129500  0.83030300  1
  P  P1  1  0.27515600  0.29891700  0.97092500  1
  P  P2  1  0.17750800  0.22544100  0.66959900  1
  P  P3  1  0.82249200  0.77455900  0.33040100  1
  P  P4  1  0.72484400  0.70108300  0.02907500  1
  P  P5  1  0.91668800  0.01870500  0.16969700  1
  H  H0  1  0.03775100  0.45766400  0.68411500  1
  H  H1  1  0.26191400  0.79931200  0.54897900  1
  H  H2  1  0.26157700  0.69596700  0.66385100  1
  H  H3  1  0.08273300  0.42531600  0.31220200  1
  H  H4  1  0.20860800  0.80217600  0.25216500  1
  H  H5  1  0.43573800  0.79012300  0.27633800  1
  H  H6  1  0.33355100  0.44304200  0.21904900  1
  H  H7  1  0.52302200  0.44883000  0.63891400  1
  H  H8  1  0.47697800  0.55117000  0.36108600  1
  H  H9  1  0.66644900  0.55695800  0.78095100  1
  H  H10  1  0.56426200  0.20987700  0.72366200  1
  H  H11  1  0.79139200  0.19782400  0.74783500  1
  H  H12  1  0.91726700  0.57468400  0.68779800  1
  H  H13  1  0.73842300  0.30403300  0.33614900  1
  H  H14  1  0.73808600  0.20068800  0.45102100  1
  H  H15  1  0.96224900  0.54233600  0.31588500  1
  O  O0  1  0.25736800  0.91949700  0.90301400  1
  O  O1  1  0.06599700  0.56665700  0.71750000  1
  O  O2  1  0.04248900  0.75543300  0.38266300  1
  O  O3  1  0.08497300  0.13334000  0.92248800  1
  O  O4  1  0.35762200  0.78608000  0.63586300  1
  O  O5  1  0.30585100  0.33225200  0.81914500  1
  O  O6  1  0.15683700  0.05416000  0.70005900  1
  O  O7  1  0.51796100  0.71916400  0.94313400  1
  O  O8  1  0.32596400  0.81755900  0.20756400  1
  O  O9  1  0.18117600  0.41073200  0.02483000  1
  O  O10  1  0.34040900  0.26542100  0.58838800  1
  O  O11  1  0.15156500  0.11490500  0.21714700  1
  O  O12  1  0.35834700  0.45307700  0.32040500  1
  O  O13  1  0.64165300  0.54692300  0.67959500  1
  O  O14  1  0.84843500  0.88509500  0.78285300  1
  O  O15  1  0.65959100  0.73457900  0.41161200  1
  O  O16  1  0.81882400  0.58926800  0.97517000  1
  O  O17  1  0.67403600  0.18244100  0.79243600  1
  O  O18  1  0.48203900  0.28083600  0.05686600  1
  O  O19  1  0.84316300  0.94584000  0.29994100  1
  O  O20  1  0.69414900  0.66774800  0.18085500  1
  O  O21  1  0.64237800  0.21392000  0.36413700  1
  O  O22  1  0.91502700  0.86666000  0.07751200  1
  O  O23  1  0.95751100  0.24456700  0.61733700  1
  O  O24  1  0.93400300  0.43334300  0.28250000  1
  O  O25  1  0.74263200  0.08050300  0.09698600  1
loop_
_geom_bond_atom_site_label_1
_geom_bond_atom_site_label_2
_geom_bond_distance
_geom_bond_site_symmetry_2
Li0 O7 2.035041 1_555
Li0 O1 2.351029 1_555
Li0 O9 2.420242 1_556
Li0 O0 2.453469 1_555
Li0 O16 2.562678 1_455
Li0 O8 2.635541 1_556
Li1 O0 2.147039 1_555
Li1 O7 2.283085 1_555
Li1 O4 2.299736 1_555
Li1 O17 2.333656 1_565
Li1 O14 2.422112 1_555
Li1 O25 2.574296 1_566
Li2 O25 2.147039 1_555
Li2 O18 2.283085 1_555
Li2 O21 2.299736 1_555
Li2 O8 2.333656 1_545
Li2 O11 2.422112 1_555
Li2 O0 2.574296 1_544
Li3 O18 2.035041 1_555
Li3 O24 2.351029 1_555
Li3 O16 2.420242 1_554
Li3 O25 2.453469 1_555
Li3 O9 2.562678 1_655
Li3 O17 2.635541 1_554
Cu0 O15 1.968721 1_555
Cu0 O14 2.024967 1_555
Cu0 O4 2.096372 1_555
Cu0 O13 2.145776 1_555
Cu1 O10 1.968721 1_555
Cu1 O11 2.024967 1_555
Cu1 O21 2.096372 1_555
Cu1 O12 2.145776 1_555
H0 O1 0.986211 1_555
H1 O4 0.987124 1_555
H2 O4 1.001538 1_555
H3 O24 0.994698 1_455
H4 O8 0.984944 1_555
H5 O8 0.983558 1_555
H6 O12 0.987655 1_555
H7 O13 0.990318 1_555
H7 O10 1.724857 1_555
H8 O12 0.990318 1_555
H8 O15 1.724857 1_555
H9 O13 0.987655 1_555
H10 O17 0.983558 1_555
H11 O17 0.984944 1_555
H12 O1 0.994698 1_655
H13 O21 1.001538 1_555
H14 O21 0.987124 1_555
H15 O24 0.986211 1_555
O0 P0 1.501706 1_555
O2 P3 1.505871 1_455
O3 P1 1.624564 1_555
O3 P0 1.625558 1_545
O5 P2 1.618311 1_555
O5 P1 1.638279 1_555
O6 P2 1.610280 1_555
O6 P0 1.642373 1_545
O7 P4 1.503255 1_556
O9 P1 1.498634 1_554
O10 P2 1.507717 1_555
O11 P5 1.496044 1_455
O14 P0 1.496044 1_655
O15 P3 1.507717 1_555
O16 P4 1.498634 1_556
O18 P1 1.503255 1_554
O19 P3 1.610280 1_555
O19 P5 1.642373 1_565
O20 P3 1.618311 1_555
O20 P4 1.638279 1_555
O22 P4 1.624564 1_555
O22 P5 1.625558 1_565
O23 P2 1.505871 1_655
O25 P5 1.501706 1_555
