# generated using pymatgen
data_Li3Cr10Fe5O24
_symmetry_space_group_name_H-M   'P 1'
_cell_length_a   5.99049019
_cell_length_b   5.99049019
_cell_length_c   14.66454841
_cell_angle_alpha   89.92576705
_cell_angle_beta   89.92576705
_cell_angle_gamma   60.00220677
_symmetry_Int_Tables_number   1
_chemical_formula_structural   Li3Cr10Fe5O24
_chemical_formula_sum   'Li3 Cr10 Fe5 O24'
_cell_volume   455.75686415
_cell_formula_units_Z   1
loop_
 _symmetry_equiv_pos_site_id
 _symmetry_equiv_pos_as_xyz
  1  'x, y, z'
loop_
 _atom_site_type_symbol
 _atom_site_label
 _atom_site_symmetry_multiplicity
 _atom_site_fract_x
 _atom_site_fract_y
 _atom_site_fract_z
 _atom_site_occupancy
  Li  Li0  1  0.33240000  0.33240000  0.91691400  1
  Li  Li1  1  0.66620400  0.66620400  0.58349100  1
  Li  Li2  1  0.00027200  0.00027200  0.24908700  1
  Cr  Cr0  1  0.82921400  0.82921400  0.79349300  1
  Cr  Cr1  1  0.82932900  0.34067500  0.79348300  1
  Cr  Cr2  1  0.67521200  0.16279800  0.45917700  1
  Cr  Cr3  1  0.16279800  0.67521200  0.45917700  1
  Cr  Cr4  1  0.34067500  0.82932900  0.79348300  1
  Cr  Cr5  1  0.16275900  0.16275900  0.45895700  1
  Cr  Cr6  1  0.33388300  0.33388300  0.28806600  1
  Cr  Cr7  1  0.99988400  0.99988400  0.62220800  1
  Cr  Cr8  1  0.49623200  0.00809400  0.12538200  1
  Cr  Cr9  1  0.00809400  0.49623200  0.12538200  1
  Fe  Fe0  1  0.66559100  0.66559100  0.95432300  1
  Fe  Fe1  1  0.33345900  0.33345900  0.66722200  1
  Fe  Fe2  1  0.99922300  0.99922300  0.00028800  1
  Fe  Fe3  1  0.49405200  0.49405200  0.12576300  1
  Fe  Fe4  1  0.66751400  0.66751400  0.33262500  1
  O  O0  1  0.15674200  0.68614700  0.71158000  1
  O  O1  1  0.68614700  0.15674200  0.71158000  1
  O  O2  1  0.96898900  0.51487800  0.87113600  1
  O  O3  1  0.51487800  0.96898900  0.87113600  1
  O  O4  1  0.85057900  0.85057900  0.53749400  1
  O  O5  1  0.66653200  0.66653200  0.72253300  1
  O  O6  1  0.51421900  0.51421900  0.87093800  1
  O  O7  1  0.33353600  0.33353600  0.53459900  1
  O  O8  1  0.49090900  0.49090900  0.37706200  1
  O  O9  1  0.99960200  0.99960200  0.86809200  1
  O  O10  1  0.15695300  0.15695300  0.71153800  1
  O  O11  1  0.49037700  0.02030900  0.37673200  1
  O  O12  1  0.02030900  0.49037700  0.37673200  1
  O  O13  1  0.63573000  0.18077200  0.20393500  1
  O  O14  1  0.85092700  0.29853500  0.53736100  1
  O  O15  1  0.18077200  0.63573000  0.20393500  1
  O  O16  1  0.29853500  0.85092700  0.53736100  1
  O  O17  1  0.18510000  0.18510000  0.20344800  1
  O  O18  1  0.33243500  0.33243500  0.05248000  1
  O  O19  1  0.00037300  0.00037300  0.38764300  1
  O  O20  1  0.82360100  0.82360100  0.04459200  1
  O  O21  1  0.66822300  0.66822300  0.20064700  1
  O  O22  1  0.82652000  0.35122000  0.04446300  1
  O  O23  1  0.35122000  0.82652000  0.04446300  1
loop_
_geom_bond_atom_site_label_1
_geom_bond_atom_site_label_2
_geom_bond_distance
_geom_bond_site_symmetry_2
Li0 O18 1.988015 1_556
Li0 O3 2.001813 1_545
Li0 O2 2.001813 1_455
Li0 O6 2.002412 1_555
Li1 O14 2.024363 1_555
Li1 O16 2.024363 1_555
Li1 O4 2.027506 1_555
Li1 O5 2.038996 1_555
Li2 O13 2.004313 1_455
Li2 O15 2.004313 1_545
Li2 O17 2.030210 1_555
Li2 O19 2.031863 1_555
Cr0 O5 1.984250 1_555
Cr0 O2 1.990886 1_555
Cr0 O3 1.990886 1_555
Cr0 O9 2.080384 1_555
Cr0 O0 2.083796 1_655
Cr0 O1 2.083796 1_565
Cr1 O5 1.984410 1_555
Cr1 O2 1.991051 1_555
Cr1 O6 1.992336 1_555
Cr1 O9 2.079734 1_545
Cr1 O1 2.084099 1_555
Cr1 O10 2.084387 1_655
Cr2 O19 1.985842 1_655
Cr2 O14 1.986235 1_555
Cr2 O4 1.988380 1_545
Cr2 O8 2.088000 1_555
Cr2 O7 2.088677 1_555
Cr2 O11 2.089866 1_555
Cr3 O19 1.985842 1_565
Cr3 O16 1.986235 1_555
Cr3 O4 1.988380 1_455
Cr3 O8 2.088000 1_555
Cr3 O7 2.088677 1_555
Cr3 O12 2.089866 1_555
Cr4 O5 1.984410 1_555
Cr4 O3 1.991051 1_555
Cr4 O6 1.992336 1_555
Cr4 O9 2.079734 1_455
Cr4 O0 2.084099 1_555
Cr4 O10 2.084387 1_565
Cr5 O19 1.984373 1_555
Cr5 O16 1.987613 1_545
Cr5 O14 1.987613 1_455
Cr5 O12 2.087050 1_555
Cr5 O11 2.087050 1_555
Cr5 O7 2.091908 1_555
Cr6 O17 1.982077 1_555
Cr6 O15 1.992932 1_555
Cr6 O13 1.992932 1_555
Cr6 O11 2.081840 1_555
Cr6 O12 2.081840 1_555
Cr6 O8 2.089041 1_555
Cr7 O16 1.986436 1_655
Cr7 O14 1.986436 1_565
Cr7 O4 1.987185 1_555
Cr7 O0 2.088975 1_655
Cr7 O1 2.088975 1_565
Cr7 O10 2.092458 1_665
Cr8 O17 1.982479 1_555
Cr8 O13 1.991305 1_555
Cr8 O18 1.992938 1_555
Cr8 O23 2.072852 1_545
Cr8 O20 2.073915 1_545
Cr8 O21 2.079563 1_545
Cr9 O17 1.982479 1_555
Cr9 O15 1.991305 1_555
Cr9 O18 1.992938 1_555
Cr9 O22 2.072852 1_455
Cr9 O20 2.073915 1_455
Cr9 O21 2.079563 1_455
Fe0 O2 1.990702 1_555
Fe0 O3 1.990702 1_555
Fe0 O6 1.991923 1_555
Fe0 O22 2.098745 1_556
Fe0 O23 2.098745 1_556
Fe0 O20 2.108713 1_556
Fe1 O10 1.942348 1_555
Fe1 O0 1.942403 1_555
Fe1 O1 1.942403 1_555
Fe1 O7 1.944855 1_555
Fe2 O20 1.933648 1_555
Fe2 O22 1.938233 1_565
Fe2 O23 1.938233 1_655
Fe2 O9 1.938593 1_554
Fe3 O15 1.990157 1_555
Fe3 O13 1.990157 1_555
Fe3 O18 1.993053 1_555
Fe3 O22 2.100632 1_555
Fe3 O23 2.100632 1_555
Fe3 O21 2.116043 1_555
Fe4 O21 1.935401 1_555
Fe4 O12 1.941697 1_655
Fe4 O11 1.941697 1_565
Fe4 O8 1.943907 1_555
