# generated using pymatgen
data_Li2MnCr3O8
_symmetry_space_group_name_H-M   'P 1'
_cell_length_a   8.38360944
_cell_length_b   8.38360944
_cell_length_c   8.34946000
_cell_angle_alpha   90.00000000
_cell_angle_beta   90.00000000
_cell_angle_gamma   90.52021642
_symmetry_Int_Tables_number   1
_chemical_formula_structural   Li2MnCr3O8
_chemical_formula_sum   'Li8 Mn4 Cr12 O32'
_cell_volume   586.81683326
_cell_formula_units_Z   4
loop_
 _symmetry_equiv_pos_site_id
 _symmetry_equiv_pos_as_xyz
  1  'x, y, z'
loop_
 _atom_site_type_symbol
 _atom_site_label
 _atom_site_symmetry_multiplicity
 _atom_site_fract_x
 _atom_site_fract_y
 _atom_site_fract_z
 _atom_site_occupancy
  Li  Li0  1  0.74942000  0.49948400  0.62473100  1
  Li  Li1  1  0.50051600  0.25058000  0.87526900  1
  Li  Li2  1  0.99929200  0.75029000  0.87741300  1
  Li  Li3  1  0.75029000  0.99929200  0.12258700  1
  Li  Li4  1  0.25058000  0.50051600  0.12473100  1
  Li  Li5  1  0.49948400  0.74942000  0.37526900  1
  Li  Li6  1  0.00070800  0.24971000  0.37741300  1
  Li  Li7  1  0.24971000  0.00070800  0.62258700  1
  Mn  Mn0  1  0.87499600  0.12500400  0.75000000  1
  Mn  Mn1  1  0.62516900  0.62516900  0.00000000  1
  Mn  Mn2  1  0.12500400  0.87499600  0.25000000  1
  Mn  Mn3  1  0.37483100  0.37483100  0.50000000  1
  Cr  Cr0  1  0.62549200  0.87548000  0.74917900  1
  Cr  Cr1  1  0.37675100  0.62324900  0.75000000  1
  Cr  Cr2  1  0.12452000  0.37450800  0.75082100  1
  Cr  Cr3  1  0.37664900  0.87449600  0.00181500  1
  Cr  Cr4  1  0.12499600  0.12499600  0.00000000  1
  Cr  Cr5  1  0.87449600  0.37664900  0.99818500  1
  Cr  Cr6  1  0.37450800  0.12452000  0.24917900  1
  Cr  Cr7  1  0.62324900  0.37675100  0.25000000  1
  Cr  Cr8  1  0.87548000  0.62549200  0.25082100  1
  Cr  Cr9  1  0.62335100  0.12550400  0.50181500  1
  Cr  Cr10  1  0.87500400  0.87500400  0.50000000  1
  Cr  Cr11  1  0.12550400  0.62335100  0.49818500  1
  O  O0  1  0.64263200  0.10861000  0.74690300  1
  O  O1  1  0.86341300  0.89202900  0.74123400  1
  O  O2  1  0.13693500  0.60372100  0.74134300  1
  O  O3  1  0.61860500  0.64175200  0.76654300  1
  O  O4  1  0.35824800  0.38139500  0.73345700  1
  O  O5  1  0.39627900  0.86306500  0.75865700  1
  O  O6  1  0.10797100  0.13658700  0.75876600  1
  O  O7  1  0.89139000  0.35736800  0.75309700  1
  O  O8  1  0.61475500  0.86005000  0.98491700  1
  O  O9  1  0.39447800  0.63469600  0.99059500  1
  O  O10  1  0.11268400  0.36709700  0.97895300  1
  O  O11  1  0.13677400  0.88547600  0.01838000  1
  O  O12  1  0.88547600  0.13677400  0.98162000  1
  O  O13  1  0.36709700  0.11268400  0.02104700  1
  O  O14  1  0.63469600  0.39447800  0.00940500  1
  O  O15  1  0.86005000  0.61475500  0.01508300  1
  O  O16  1  0.35736800  0.89139000  0.24690300  1
  O  O17  1  0.13658700  0.10797100  0.24123400  1
  O  O18  1  0.86306500  0.39627900  0.24134300  1
  O  O19  1  0.38139500  0.35824800  0.26654300  1
  O  O20  1  0.64175200  0.61860500  0.23345700  1
  O  O21  1  0.60372100  0.13693500  0.25865700  1
  O  O22  1  0.89202900  0.86341300  0.25876600  1
  O  O23  1  0.10861000  0.64263200  0.25309700  1
  O  O24  1  0.38524500  0.13995000  0.48491700  1
  O  O25  1  0.60552200  0.36530400  0.49059500  1
  O  O26  1  0.88731600  0.63290300  0.47895300  1
  O  O27  1  0.86322600  0.11452400  0.51838000  1
  O  O28  1  0.11452400  0.86322600  0.48162000  1
  O  O29  1  0.63290300  0.88731600  0.52104700  1
  O  O30  1  0.36530400  0.60552200  0.50940500  1
  O  O31  1  0.13995000  0.38524500  0.51508300  1
loop_
_geom_bond_atom_site_label_1
_geom_bond_atom_site_label_2
_geom_bond_distance
_geom_bond_site_symmetry_2
Li0 O25 1.987578 1_555
Li0 O7 2.002659 1_555
Li0 O26 2.011373 1_555
Li0 O3 2.012727 1_555
Li1 O14 1.987578 1_556
Li1 O0 2.002659 1_555
Li1 O13 2.011373 1_556
Li1 O4 2.012727 1_555
Li2 O15 1.987717 1_556
Li2 O11 1.993629 1_656
Li2 O1 2.006762 1_555
Li2 O2 2.039112 1_655
Li3 O8 1.987717 1_554
Li3 O12 1.993629 1_564
Li3 O22 2.006762 1_555
Li3 O21 2.039112 1_565
Li4 O9 1.987578 1_554
Li4 O23 2.002659 1_555
Li4 O10 2.011373 1_554
Li4 O19 2.012727 1_555
Li5 O30 1.987578 1_555
Li5 O16 2.002659 1_555
Li5 O29 2.011373 1_555
Li5 O20 2.012727 1_555
Li6 O31 1.987717 1_555
Li6 O27 1.993629 1_455
Li6 O17 2.006762 1_555
Li6 O18 2.039112 1_455
Li7 O24 1.987717 1_555
Li7 O28 1.993629 1_545
Li7 O6 2.006762 1_555
Li7 O5 2.039112 1_545
Mn0 O27 1.938369 1_555
Mn0 O12 1.938369 1_555
Mn0 O7 1.951818 1_555
Mn0 O0 1.951818 1_555
Mn0 O1 1.956073 1_545
Mn0 O6 1.956073 1_655
Mn1 O14 1.937988 1_555
Mn1 O9 1.937988 1_554
Mn1 O20 1.955002 1_555
Mn1 O3 1.955002 1_554
Mn1 O8 1.975894 1_554
Mn1 O15 1.975894 1_555
Mn2 O28 1.938369 1_555
Mn2 O11 1.938369 1_555
Mn2 O16 1.951818 1_555
Mn2 O23 1.951818 1_555
Mn2 O17 1.956073 1_565
Mn2 O22 1.956073 1_455
Mn3 O25 1.937988 1_555
Mn3 O30 1.937988 1_555
Mn3 O19 1.955002 1_555
Mn3 O4 1.955002 1_555
Mn3 O24 1.975894 1_555
Mn3 O31 1.975894 1_555
Cr0 O29 1.908344 1_555
Cr0 O5 1.925132 1_555
Cr0 O0 1.958537 1_565
Cr0 O3 1.965166 1_555
Cr0 O8 1.974531 1_555
Cr0 O1 1.999300 1_555
Cr1 O9 2.016549 1_555
Cr1 O30 2.016549 1_555
Cr1 O5 2.016992 1_555
Cr1 O2 2.016992 1_555
Cr1 O3 2.036819 1_555
Cr1 O4 2.036819 1_555
Cr2 O10 1.908344 1_555
Cr2 O2 1.925132 1_555
Cr2 O7 1.958537 1_455
Cr2 O4 1.965166 1_555
Cr2 O31 1.974531 1_555
Cr2 O6 1.999300 1_555
Cr3 O13 2.005645 1_565
Cr3 O8 2.005923 1_554
Cr3 O11 2.018702 1_555
Cr3 O9 2.019465 1_554
Cr3 O5 2.039220 1_554
Cr3 O16 2.057708 1_555
Cr4 O11 2.017210 1_545
Cr4 O12 2.017210 1_454
Cr4 O6 2.021624 1_554
Cr4 O17 2.021624 1_555
Cr4 O10 2.040819 1_554
Cr4 O13 2.040819 1_555
Cr5 O10 2.005645 1_655
Cr5 O15 2.005923 1_556
Cr5 O12 2.018702 1_555
Cr5 O14 2.019465 1_556
Cr5 O18 2.039220 1_556
Cr5 O7 2.057708 1_555
Cr6 O13 1.908344 1_555
Cr6 O21 1.925132 1_555
Cr6 O16 1.958537 1_545
Cr6 O19 1.965166 1_555
Cr6 O24 1.974531 1_555
Cr6 O17 1.999300 1_555
Cr7 O25 2.016549 1_555
Cr7 O14 2.016549 1_555
Cr7 O18 2.016992 1_555
Cr7 O21 2.016992 1_555
Cr7 O20 2.036819 1_555
Cr7 O19 2.036819 1_555
Cr8 O26 1.908344 1_555
Cr8 O18 1.925132 1_555
Cr8 O23 1.958537 1_655
Cr8 O20 1.965166 1_555
Cr8 O15 1.974531 1_555
Cr8 O22 1.999300 1_555
Cr9 O29 2.005645 1_545
Cr9 O24 2.005923 1_555
Cr9 O27 2.018702 1_555
Cr9 O25 2.019465 1_555
Cr9 O21 2.039220 1_555
Cr9 O0 2.057708 1_555
Cr10 O27 2.017210 1_565
Cr10 O28 2.017210 1_655
Cr10 O1 2.021624 1_555
Cr10 O22 2.021624 1_555
Cr10 O26 2.040819 1_555
Cr10 O29 2.040819 1_555
Cr11 O26 2.005645 1_455
Cr11 O31 2.005923 1_555
Cr11 O28 2.018702 1_555
Cr11 O30 2.019465 1_555
Cr11 O2 2.039220 1_555
Cr11 O23 2.057708 1_555
