# generated using pymatgen
data_Li9Mn2AlO8
_symmetry_space_group_name_H-M   'P 1'
_cell_length_a   6.52018400
_cell_length_b   7.64875600
_cell_length_c   16.22827800
_cell_angle_alpha   90.00000000
_cell_angle_beta   90.00000000
_cell_angle_gamma   90.00000000
_symmetry_Int_Tables_number   1
_chemical_formula_structural   Li9Mn2AlO8
_chemical_formula_sum   'Li36 Mn8 Al4 O32'
_cell_volume   809.32526368
_cell_formula_units_Z   4
loop_
 _symmetry_equiv_pos_site_id
 _symmetry_equiv_pos_as_xyz
  1  'x, y, z'
loop_
 _atom_site_type_symbol
 _atom_site_label
 _atom_site_symmetry_multiplicity
 _atom_site_fract_x
 _atom_site_fract_y
 _atom_site_fract_z
 _atom_site_occupancy
  Li  Li0  1  0.52313700  0.53233900  0.06883700  1
  Li  Li1  1  0.97686300  0.53233900  0.06883700  1
  Li  Li2  1  0.25000000  0.33900900  0.13879100  1
  Li  Li3  1  0.50840000  0.10505900  0.12143300  1
  Li  Li4  1  0.99160000  0.10505900  0.12143300  1
  Li  Li5  1  0.75000000  0.33178400  0.16601100  1
  Li  Li6  1  0.25000000  0.80169000  0.19470600  1
  Li  Li7  1  0.01016200  0.54871200  0.20947900  1
  Li  Li8  1  0.48983800  0.54871200  0.20947900  1
  Li  Li9  1  0.51016200  0.04871200  0.29052100  1
  Li  Li10  1  0.98983800  0.04871200  0.29052100  1
  Li  Li11  1  0.75000000  0.30169000  0.30529400  1
  Li  Li12  1  0.25000000  0.83178400  0.33398900  1
  Li  Li13  1  0.49160000  0.60505900  0.37856700  1
  Li  Li14  1  0.00840000  0.60505900  0.37856700  1
  Li  Li15  1  0.75000000  0.83900900  0.36120900  1
  Li  Li16  1  0.02313700  0.03233900  0.43116300  1
  Li  Li17  1  0.47686300  0.03233900  0.43116300  1
  Li  Li18  1  0.52313700  0.96766100  0.56883700  1
  Li  Li19  1  0.97686300  0.96766100  0.56883700  1
  Li  Li20  1  0.25000000  0.16099100  0.63879100  1
  Li  Li21  1  0.99160000  0.39494100  0.62143300  1
  Li  Li22  1  0.50840000  0.39494100  0.62143300  1
  Li  Li23  1  0.75000000  0.16821600  0.66601100  1
  Li  Li24  1  0.25000000  0.69831000  0.69470600  1
  Li  Li25  1  0.01016200  0.95128800  0.70947900  1
  Li  Li26  1  0.48983800  0.95128800  0.70947900  1
  Li  Li27  1  0.51016200  0.45128800  0.79052100  1
  Li  Li28  1  0.98983800  0.45128800  0.79052100  1
  Li  Li29  1  0.75000000  0.19831000  0.80529400  1
  Li  Li30  1  0.25000000  0.66821600  0.83398900  1
  Li  Li31  1  0.49160000  0.89494100  0.87856700  1
  Li  Li32  1  0.00840000  0.89494100  0.87856700  1
  Li  Li33  1  0.75000000  0.66099100  0.86120900  1
  Li  Li34  1  0.02313700  0.46766100  0.93116300  1
  Li  Li35  1  0.47686300  0.46766100  0.93116300  1
  Mn  Mn0  1  0.25000000  0.77292100  0.03049800  1
  Mn  Mn1  1  0.75000000  0.80236500  0.19550500  1
  Mn  Mn2  1  0.25000000  0.30236500  0.30449500  1
  Mn  Mn3  1  0.75000000  0.27292100  0.46950200  1
  Mn  Mn4  1  0.25000000  0.72707900  0.53049800  1
  Mn  Mn5  1  0.75000000  0.69763500  0.69550500  1
  Mn  Mn6  1  0.25000000  0.19763500  0.80449500  1
  Mn  Mn7  1  0.75000000  0.22707900  0.96950200  1
  Al  Al0  1  0.75000000  0.83925100  0.00052400  1
  Al  Al1  1  0.25000000  0.33925100  0.49947600  1
  Al  Al2  1  0.75000000  0.66074900  0.50052400  1
  Al  Al3  1  0.25000000  0.16074900  0.99947600  1
  O  O0  1  0.47050800  0.29181500  0.02438400  1
  O  O1  1  0.02949200  0.29181500  0.02438400  1
  O  O2  1  0.25000000  0.01271700  0.08833600  1
  O  O3  1  0.25000000  0.59056000  0.12966800  1
  O  O4  1  0.75000000  0.56443100  0.14119200  1
  O  O5  1  0.75000000  0.96793800  0.09307000  1
  O  O6  1  0.99912000  0.27768500  0.22424000  1
  O  O7  1  0.50088000  0.27768500  0.22424000  1
  O  O8  1  0.49912000  0.77768500  0.27576000  1
  O  O9  1  0.00088000  0.77768500  0.27576000  1
  O  O10  1  0.25000000  0.46793800  0.40693000  1
  O  O11  1  0.25000000  0.06443100  0.35880800  1
  O  O12  1  0.75000000  0.09056000  0.37033200  1
  O  O13  1  0.75000000  0.51271700  0.41166400  1
  O  O14  1  0.97050800  0.79181500  0.47561600  1
  O  O15  1  0.52949200  0.79181500  0.47561600  1
  O  O16  1  0.47050800  0.20818500  0.52438400  1
  O  O17  1  0.02949200  0.20818500  0.52438400  1
  O  O18  1  0.25000000  0.48728300  0.58833600  1
  O  O19  1  0.25000000  0.90944000  0.62966800  1
  O  O20  1  0.75000000  0.93556900  0.64119200  1
  O  O21  1  0.75000000  0.53206200  0.59307000  1
  O  O22  1  0.99912000  0.22231500  0.72424000  1
  O  O23  1  0.50088000  0.22231500  0.72424000  1
  O  O24  1  0.49912000  0.72231500  0.77576000  1
  O  O25  1  0.00088000  0.72231500  0.77576000  1
  O  O26  1  0.25000000  0.03206200  0.90693000  1
  O  O27  1  0.25000000  0.43556900  0.85880800  1
  O  O28  1  0.75000000  0.40944000  0.87033200  1
  O  O29  1  0.75000000  0.98728300  0.91166400  1
  O  O30  1  0.97050800  0.70818500  0.97561600  1
  O  O31  1  0.52949200  0.70818500  0.97561600  1
loop_
_geom_bond_atom_site_label_1
_geom_bond_atom_site_label_2
_geom_bond_distance
_geom_bond_site_symmetry_2
Li0 O4 1.904466 1_555
Li0 O0 2.005666 1_555
Li0 O31 2.024689 1_554
Li0 O3 2.084336 1_555
Li1 O4 1.904466 1_555
Li1 O1 2.005666 1_655
Li1 O30 2.024689 1_554
Li1 O3 2.084336 1_655
Li2 O3 1.929740 1_555
Li2 O7 2.195156 1_555
Li2 O6 2.195156 1_455
Li2 O1 2.375817 1_555
Li2 O0 2.375817 1_555
Li3 O2 1.904193 1_555
Li3 O5 1.947652 1_545
Li3 O7 2.128212 1_555
Li3 O0 2.140547 1_555
Li4 O2 1.904193 1_655
Li4 O5 1.947652 1_545
Li4 O6 2.128212 1_555
Li4 O1 2.140547 1_655
Li5 O4 1.824473 1_555
Li5 O7 1.924199 1_555
Li5 O6 1.924199 1_555
Li6 O3 1.929204 1_555
Li6 O9 2.098161 1_555
Li6 O8 2.098161 1_555
Li6 O2 2.363276 1_565
Li7 O4 2.029770 1_455
Li7 O3 2.055582 1_555
Li7 O9 2.056184 1_555
Li7 O6 2.088055 1_455
Li8 O4 2.029770 1_555
Li8 O3 2.055582 1_555
Li8 O8 2.056184 1_555
Li8 O7 2.088055 1_555
Li9 O11 2.029770 1_555
Li9 O12 2.055582 1_555
Li9 O7 2.056184 1_555
Li9 O8 2.088055 1_545
Li10 O11 2.029770 1_655
Li10 O12 2.055582 1_555
Li10 O6 2.056184 1_555
Li10 O9 2.088055 1_645
Li11 O12 1.929204 1_555
Li11 O6 2.098161 1_555
Li11 O7 2.098161 1_555
Li11 O13 2.363276 1_555
Li12 O11 1.824473 1_565
Li12 O9 1.924199 1_555
Li12 O8 1.924199 1_555
Li13 O13 1.904193 1_555
Li13 O10 1.947652 1_555
Li13 O8 2.128212 1_555
Li13 O15 2.140547 1_555
Li14 O13 1.904193 1_455
Li14 O10 1.947652 1_555
Li14 O9 2.128212 1_555
Li14 O14 2.140547 1_455
Li15 O12 1.929740 1_565
Li15 O9 2.195156 1_655
Li15 O8 2.195156 1_555
Li15 O15 2.375817 1_555
Li15 O14 2.375817 1_555
Li16 O11 1.904466 1_555
Li16 O14 2.005666 1_445
Li16 O17 2.024689 1_555
Li16 O12 2.084336 1_455
Li17 O11 1.904466 1_555
Li17 O15 2.005666 1_545
Li17 O16 2.024689 1_555
Li17 O12 2.084336 1_555
Li18 O20 1.904466 1_555
Li18 O16 2.005666 1_565
Li18 O15 2.024689 1_555
Li18 O19 2.084336 1_555
Li19 O20 1.904466 1_555
Li19 O17 2.005666 1_665
Li19 O14 2.024689 1_555
Li19 O19 2.084336 1_655
Li20 O19 1.929740 1_545
Li20 O23 2.195156 1_555
Li20 O22 2.195156 1_455
Li20 O16 2.375817 1_555
Li20 O17 2.375817 1_555
Li21 O18 1.904193 1_655
Li21 O21 1.947652 1_555
Li21 O22 2.128212 1_555
Li21 O17 2.140547 1_655
Li22 O18 1.904193 1_555
Li22 O21 1.947652 1_555
Li22 O23 2.128212 1_555
Li22 O16 2.140547 1_555
Li23 O20 1.824473 1_545
Li23 O23 1.924199 1_555
Li23 O22 1.924199 1_555
Li24 O19 1.929204 1_555
Li24 O24 2.098161 1_555
Li24 O25 2.098161 1_555
Li24 O18 2.363276 1_555
Li25 O20 2.029770 1_455
Li25 O19 2.055582 1_555
Li25 O25 2.056184 1_555
Li25 O22 2.088055 1_465
Li26 O20 2.029770 1_555
Li26 O19 2.055582 1_555
Li26 O24 2.056184 1_555
Li26 O23 2.088055 1_565
Li27 O27 2.029770 1_555
Li27 O28 2.055582 1_555
Li27 O23 2.056184 1_555
Li27 O24 2.088055 1_555
Li28 O27 2.029770 1_655
Li28 O28 2.055582 1_555
Li28 O22 2.056184 1_555
Li28 O25 2.088055 1_655
Li29 O28 1.929204 1_555
Li29 O22 2.098161 1_555
Li29 O23 2.098161 1_555
Li29 O29 2.363276 1_545
Li30 O27 1.824473 1_555
Li30 O24 1.924199 1_555
Li30 O25 1.924199 1_555
Li31 O29 1.904193 1_555
Li31 O26 1.947652 1_565
Li31 O24 2.128212 1_555
Li31 O31 2.140547 1_555
Li32 O29 1.904193 1_455
Li32 O26 1.947652 1_565
Li32 O25 2.128212 1_555
Li32 O30 2.140547 1_455
Li33 O28 1.929740 1_555
Li33 O25 2.195156 1_655
Li33 O24 2.195156 1_555
Li33 O30 2.375817 1_555
Li33 O31 2.375817 1_555
Li34 O27 1.904466 1_555
Li34 O30 2.005666 1_455
Li34 O1 2.024689 1_556
Li34 O28 2.084336 1_455
Li35 O27 1.904466 1_555
Li35 O31 2.005666 1_555
Li35 O0 2.024689 1_556
Li35 O28 2.084336 1_555
Mn0 O2 2.060355 1_565
Mn0 O31 2.087902 1_554
Mn0 O30 2.087902 1_454
Mn0 O3 2.129694 1_555
Mn1 O4 2.022105 1_555
Mn1 O5 2.089791 1_555
Mn1 O9 2.099445 1_655
Mn1 O8 2.099445 1_555
Mn2 O11 2.022105 1_555
Mn2 O10 2.089791 1_555
Mn2 O6 2.099445 1_455
Mn2 O7 2.099445 1_555
Mn3 O13 2.060355 1_555
Mn3 O16 2.087902 1_555
Mn3 O17 2.087902 1_655
Mn3 O12 2.129694 1_555
Mn4 O18 2.060355 1_555
Mn4 O15 2.087902 1_555
Mn4 O14 2.087902 1_455
Mn4 O19 2.129694 1_555
Mn5 O20 2.022105 1_555
Mn5 O21 2.089791 1_555
Mn5 O24 2.099445 1_555
Mn5 O25 2.099445 1_655
Mn6 O27 2.022105 1_555
Mn6 O26 2.089791 1_555
Mn6 O22 2.099445 1_455
Mn6 O23 2.099445 1_555
Mn7 O29 2.060355 1_545
Mn7 O1 2.087902 1_656
Mn7 O0 2.087902 1_556
Mn7 O28 2.129694 1_555
Al0 O5 1.795669 1_555
Al0 O30 1.798753 1_554
Al0 O31 1.798753 1_554
Al0 O29 1.833441 1_554
Al1 O10 1.795669 1_555
Al1 O17 1.798753 1_555
Al1 O16 1.798753 1_555
Al1 O18 1.833441 1_555
Al2 O21 1.795669 1_555
Al2 O15 1.798753 1_555
Al2 O14 1.798753 1_555
Al2 O13 1.833441 1_555
Al3 O26 1.795669 1_555
Al3 O0 1.798753 1_556
Al3 O1 1.798753 1_556
Al3 O2 1.833441 1_556
