# generated using pymatgen
data_LiSiBiO4
_symmetry_space_group_name_H-M   'P 1'
_cell_length_a   5.35539000
_cell_length_b   10.57509800
_cell_length_c   14.87735600
_cell_angle_alpha   90.00000000
_cell_angle_beta   90.00000000
_cell_angle_gamma   90.00000000
_symmetry_Int_Tables_number   1
_chemical_formula_structural   LiSiBiO4
_chemical_formula_sum   'Li8 Si8 Bi8 O32'
_cell_volume   842.56081859
_cell_formula_units_Z   8
loop_
 _symmetry_equiv_pos_site_id
 _symmetry_equiv_pos_as_xyz
  1  'x, y, z'
loop_
 _atom_site_type_symbol
 _atom_site_label
 _atom_site_symmetry_multiplicity
 _atom_site_fract_x
 _atom_site_fract_y
 _atom_site_fract_z
 _atom_site_occupancy
  Li  Li0  1  0.05195800  0.02841200  0.24801900  1
  Li  Li1  1  0.54872400  0.21233200  0.99696300  1
  Li  Li2  1  0.54872400  0.28766800  0.49696300  1
  Li  Li3  1  0.05195800  0.47158800  0.74801900  1
  Li  Li4  1  0.94804200  0.52841200  0.24801900  1
  Li  Li5  1  0.45127600  0.71233200  0.99696300  1
  Li  Li6  1  0.45127600  0.78766800  0.49696300  1
  Li  Li7  1  0.94804200  0.97158800  0.74801900  1
  Si  Si0  1  0.44376900  0.03420700  0.62517800  1
  Si  Si1  1  0.06895800  0.21556900  0.87167500  1
  Si  Si2  1  0.06895800  0.28443100  0.37167500  1
  Si  Si3  1  0.44376900  0.46579300  0.12517800  1
  Si  Si4  1  0.55623100  0.53420700  0.62517800  1
  Si  Si5  1  0.93104200  0.71556900  0.87167500  1
  Si  Si6  1  0.93104200  0.78443100  0.37167500  1
  Si  Si7  1  0.55623100  0.96579300  0.12517800  1
  Bi  Bi0  1  0.94077200  0.03210800  0.49861200  1
  Bi  Bi1  1  0.55648000  0.21222800  0.24844400  1
  Bi  Bi2  1  0.55648000  0.28777200  0.74844400  1
  Bi  Bi3  1  0.94077200  0.46789200  0.99861200  1
  Bi  Bi4  1  0.05922800  0.53210800  0.49861200  1
  Bi  Bi5  1  0.44352000  0.71222800  0.24844400  1
  Bi  Bi6  1  0.44352000  0.78777200  0.74844400  1
  Bi  Bi7  1  0.05922800  0.96789200  0.99861200  1
  O  O0  1  0.84744200  0.00955700  0.13615300  1
  O  O1  1  0.55942900  0.96629400  0.53261700  1
  O  O2  1  0.40890900  0.01650400  0.21665500  1
  O  O3  1  0.03298300  0.06124000  0.86268100  1
  O  O4  1  0.49194300  0.18686800  0.61281400  1
  O  O5  1  0.90422600  0.23887400  0.46068200  1
  O  O6  1  0.97192100  0.28887600  0.77979200  1
  O  O7  1  0.36593300  0.25219300  0.88411500  1
  O  O8  1  0.36593300  0.24780700  0.38411500  1
  O  O9  1  0.97192100  0.21112400  0.27979200  1
  O  O10  1  0.90422600  0.26112600  0.96068200  1
  O  O11  1  0.49194300  0.31313200  0.11281400  1
  O  O12  1  0.03298300  0.43876000  0.36268100  1
  O  O13  1  0.40890900  0.48349600  0.71665500  1
  O  O14  1  0.55942900  0.53370600  0.03261700  1
  O  O15  1  0.84744200  0.49044300  0.63615300  1
  O  O16  1  0.15255800  0.50955700  0.13615300  1
  O  O17  1  0.44057100  0.46629400  0.53261700  1
  O  O18  1  0.59109100  0.51650400  0.21665500  1
  O  O19  1  0.96701700  0.56124000  0.86268100  1
  O  O20  1  0.50805700  0.68686800  0.61281400  1
  O  O21  1  0.09577400  0.73887400  0.46068200  1
  O  O22  1  0.02807900  0.78887600  0.77979200  1
  O  O23  1  0.63406700  0.75219300  0.88411500  1
  O  O24  1  0.63406700  0.74780700  0.38411500  1
  O  O25  1  0.02807900  0.71112400  0.27979200  1
  O  O26  1  0.09577400  0.76112600  0.96068200  1
  O  O27  1  0.50805700  0.81313200  0.11281400  1
  O  O28  1  0.96701700  0.93876000  0.36268100  1
  O  O29  1  0.59109100  0.98349600  0.71665500  1
  O  O30  1  0.44057100  0.03370600  0.03261700  1
  O  O31  1  0.15255800  0.99044300  0.63615300  1
loop_
_geom_bond_atom_site_label_1
_geom_bond_atom_site_label_2
_geom_bond_distance
_geom_bond_site_symmetry_2
Li0 O2 1.971762 1_555
Li0 O0 2.002287 1_455
Li0 O28 2.003937 1_445
Li0 O9 2.034835 1_455
Li1 O7 1.988619 1_555
Li1 O10 2.045056 1_555
Li1 O30 2.045755 1_556
Li1 O11 2.049245 1_556
Li2 O8 1.988619 1_555
Li2 O5 2.045056 1_555
Li2 O17 2.045755 1_555
Li2 O4 2.049245 1_555
Li3 O13 1.971762 1_555
Li3 O15 2.002287 1_455
Li3 O19 2.003937 1_455
Li3 O6 2.034835 1_455
Li4 O18 1.971762 1_555
Li4 O16 2.002287 1_655
Li4 O12 2.003937 1_655
Li4 O25 2.034835 1_655
Li5 O23 1.988619 1_555
Li5 O26 2.045056 1_555
Li5 O14 2.045755 1_556
Li5 O27 2.049245 1_556
Li6 O24 1.988619 1_555
Li6 O21 2.045056 1_555
Li6 O1 2.045755 1_555
Li6 O20 2.049245 1_555
Li7 O29 1.971762 1_555
Li7 O31 2.002287 1_655
Li7 O3 2.003937 1_665
Li7 O22 2.034835 1_655
Bi0 O1 2.216097 1_545
Bi0 O28 2.254755 1_545
Bi0 O5 2.266678 1_555
Bi0 O31 2.380686 1_645
Bi1 O2 2.265462 1_555
Bi1 O9 2.273234 1_555
Bi1 O8 2.292800 1_555
Bi1 O11 2.308608 1_555
Bi2 O13 2.265462 1_555
Bi2 O6 2.273234 1_555
Bi2 O7 2.292800 1_555
Bi2 O4 2.308608 1_555
Bi3 O14 2.216097 1_556
Bi3 O19 2.254755 1_555
Bi3 O10 2.266678 1_555
Bi3 O16 2.380686 1_656
Bi4 O17 2.216097 1_555
Bi4 O12 2.254755 1_555
Bi4 O21 2.266678 1_555
Bi4 O15 2.380686 1_455
Bi5 O18 2.265462 1_555
Bi5 O25 2.273234 1_555
Bi5 O24 2.292800 1_555
Bi5 O27 2.308608 1_555
Bi6 O29 2.265462 1_555
Bi6 O22 2.273234 1_555
Bi6 O23 2.292800 1_555
Bi6 O20 2.308608 1_555
Bi7 O30 2.216097 1_566
Bi7 O3 2.254755 1_565
Bi7 O26 2.266678 1_555
Bi7 O0 2.380686 1_466
O0 Si7 1.634944 1_545
O1 Si0 1.672052 1_565
O2 Si7 1.661988 1_545
O3 Si1 1.648815 1_555
O4 Si0 1.645205 1_555
O5 Si2 1.662487 1_655
O6 Si1 1.655192 1_655
O7 Si1 1.647326 1_555
O8 Si2 1.647326 1_555
O9 Si2 1.655192 1_655
O10 Si1 1.662487 1_655
O11 Si3 1.645205 1_555
O12 Si2 1.648815 1_555
O13 Si4 1.661988 1_555
O14 Si3 1.672052 1_555
O15 Si4 1.634944 1_555
O16 Si3 1.634944 1_555
O17 Si4 1.672052 1_555
O18 Si3 1.661988 1_555
O19 Si5 1.648815 1_555
O20 Si4 1.645205 1_555
O21 Si6 1.662487 1_455
O22 Si5 1.655192 1_455
O23 Si5 1.647326 1_555
O24 Si6 1.647326 1_555
O25 Si6 1.655192 1_455
O26 Si5 1.662487 1_455
O27 Si7 1.645205 1_555
O28 Si6 1.648815 1_555
O29 Si0 1.661988 1_565
O30 Si7 1.672052 1_545
O31 Si0 1.634944 1_565
