# generated using pymatgen
data_Li3Fe3(WO6)2
_symmetry_space_group_name_H-M   'P 1'
_cell_length_a   9.34298700
_cell_length_b   9.03901700
_cell_length_c   15.26444368
_cell_angle_alpha   55.34465382
_cell_angle_beta   90.00000000
_cell_angle_gamma   90.00000000
_symmetry_Int_Tables_number   1
_chemical_formula_structural   Li3Fe3(WO6)2
_chemical_formula_sum   'Li12 Fe12 W8 O48'
_cell_volume   1060.40072196
_cell_formula_units_Z   4
loop_
 _symmetry_equiv_pos_site_id
 _symmetry_equiv_pos_as_xyz
  1  'x, y, z'
loop_
 _atom_site_type_symbol
 _atom_site_label
 _atom_site_symmetry_multiplicity
 _atom_site_fract_x
 _atom_site_fract_y
 _atom_site_fract_z
 _atom_site_occupancy
  Li  Li0  1  0.91295300  0.36479700  0.70137800  1
  Li  Li1  1  0.48487200  0.72185300  0.34747000  1
  Li  Li2  1  0.22115000  0.00057500  0.18228600  1
  Li  Li3  1  0.72115000  0.99942500  0.31771400  1
  Li  Li4  1  0.41295300  0.63520300  0.79862200  1
  Li  Li5  1  0.98487200  0.27814700  0.15253000  1
  Li  Li6  1  0.01512800  0.72185300  0.84747000  1
  Li  Li7  1  0.58704700  0.36479700  0.20137800  1
  Li  Li8  1  0.27885000  0.00057500  0.68228600  1
  Li  Li9  1  0.77885000  0.99942500  0.81771400  1
  Li  Li10  1  0.51512800  0.27814700  0.65253000  1
  Li  Li11  1  0.08704700  0.63520300  0.29862200  1
  Fe  Fe0  1  0.75408100  0.54323200  0.48682700  1
  Fe  Fe1  1  0.61783000  0.26406100  0.85090700  1
  Fe  Fe2  1  0.87867800  0.97662700  0.13273400  1
  Fe  Fe3  1  0.11783000  0.73593900  0.64909300  1
  Fe  Fe4  1  0.37867800  0.02337300  0.36726600  1
  Fe  Fe5  1  0.25408100  0.45676800  0.01317300  1
  Fe  Fe6  1  0.74591900  0.54323200  0.98682700  1
  Fe  Fe7  1  0.62132200  0.97662700  0.63273400  1
  Fe  Fe8  1  0.88217000  0.26406100  0.35090700  1
  Fe  Fe9  1  0.12132200  0.02337300  0.86726600  1
  Fe  Fe10  1  0.38217000  0.73593900  0.14909300  1
  Fe  Fe11  1  0.24591900  0.45676800  0.51317300  1
  W  W0  1  0.98188800  0.36421000  0.88912900  1
  W  W1  1  0.48188800  0.63579000  0.61087100  1
  W  W2  1  0.51811200  0.36421000  0.38912900  1
  W  W3  1  0.01811200  0.63579000  0.11087100  1
  W  W4  1  0.02865600  0.87285900  0.37793500  1
  W  W5  1  0.52865600  0.12714100  0.12206500  1
  W  W6  1  0.47134400  0.87285900  0.87793500  1
  W  W7  1  0.97134400  0.12714100  0.62206500  1
  O  O0  1  0.10974200  0.63989700  0.43037200  1
  O  O1  1  0.10456800  0.17843100  0.91127800  1
  O  O2  1  0.35455700  0.45343200  0.61733300  1
  O  O3  1  0.42407300  0.89085500  0.19400000  1
  O  O4  1  0.63586700  0.50103100  0.60051500  1
  O  O5  1  0.82081100  0.27547300  0.84989000  1
  O  O6  1  0.57038700  0.14883600  0.99611900  1
  O  O7  1  0.01759100  0.88726500  0.24156500  1
  O  O8  1  0.70451900  0.99312300  0.18855200  1
  O  O9  1  0.83641000  0.77493800  0.41801000  1
  O  O10  1  0.51713600  0.48196800  0.76637200  1
  O  O11  1  0.01713600  0.51803200  0.73362800  1
  O  O12  1  0.94523900  0.21970900  0.04295000  1
  O  O13  1  0.44523900  0.78029100  0.45705000  1
  O  O14  1  0.33641000  0.22506200  0.08199000  1
  O  O15  1  0.20451900  0.00687700  0.31144800  1
  O  O16  1  0.07038700  0.85116400  0.50388100  1
  O  O17  1  0.51759100  0.11273500  0.25843500  1
  O  O18  1  0.32081100  0.72452700  0.65011000  1
  O  O19  1  0.13586700  0.49896900  0.89948500  1
  O  O20  1  0.85455700  0.54656800  0.88266700  1
  O  O21  1  0.60456800  0.82156900  0.58872200  1
  O  O22  1  0.92407300  0.10914500  0.30600000  1
  O  O23  1  0.60974200  0.36010300  0.06962800  1
  O  O24  1  0.39025800  0.63989700  0.93037200  1
  O  O25  1  0.07592700  0.89085500  0.69400000  1
  O  O26  1  0.39543200  0.17843100  0.41127800  1
  O  O27  1  0.14544300  0.45343200  0.11733300  1
  O  O28  1  0.86413300  0.50103100  0.10051500  1
  O  O29  1  0.67918900  0.27547300  0.34989000  1
  O  O30  1  0.48240900  0.88726500  0.74156500  1
  O  O31  1  0.92961300  0.14883600  0.49611900  1
  O  O32  1  0.79548100  0.99312300  0.68855200  1
  O  O33  1  0.66359000  0.77493800  0.91801000  1
  O  O34  1  0.55476100  0.21970900  0.54295000  1
  O  O35  1  0.05476100  0.78029100  0.95705000  1
  O  O36  1  0.98286400  0.48196800  0.26637200  1
  O  O37  1  0.48286400  0.51803200  0.23362800  1
  O  O38  1  0.16359000  0.22506200  0.58199000  1
  O  O39  1  0.29548100  0.00687700  0.81144800  1
  O  O40  1  0.98240900  0.11273500  0.75843500  1
  O  O41  1  0.42961300  0.85116400  0.00388100  1
  O  O42  1  0.17918900  0.72452700  0.15011000  1
  O  O43  1  0.36413300  0.49896900  0.39948500  1
  O  O44  1  0.57592700  0.10914500  0.80600000  1
  O  O45  1  0.64544300  0.54656800  0.38266700  1
  O  O46  1  0.89543200  0.82156900  0.08872200  1
  O  O47  1  0.89025800  0.36010300  0.56962800  1
loop_
_geom_bond_atom_site_label_1
_geom_bond_atom_site_label_2
_geom_bond_distance
_geom_bond_site_symmetry_2
Li0 O11 1.970722 1_655
Li0 O40 2.028291 1_555
Li0 O47 2.046531 1_555
Li0 O5 2.109617 1_555
Li1 O3 2.018491 1_555
Li1 O45 2.020279 1_555
Li1 O43 2.035331 1_555
Li1 O13 2.053977 1_555
Li2 O15 2.010539 1_555
Li2 O14 2.021861 1_555
Li2 O3 2.099606 1_545
Li2 O7 2.104951 1_545
Li3 O8 2.010539 1_555
Li3 O9 2.021861 1_555
Li3 O22 2.099606 1_565
Li3 O17 2.104951 1_565
Li4 O10 1.970722 1_555
Li4 O30 2.028291 1_555
Li4 O24 2.046531 1_555
Li4 O18 2.109617 1_555
Li5 O22 2.018491 1_555
Li5 O27 2.020279 1_655
Li5 O28 2.035331 1_555
Li5 O12 2.053977 1_555
Li6 O25 2.018491 1_555
Li6 O20 2.020279 1_455
Li6 O19 2.035331 1_555
Li6 O35 2.053977 1_555
Li7 O37 1.970722 1_555
Li7 O17 2.028291 1_555
Li7 O23 2.046531 1_555
Li7 O29 2.109617 1_555
Li8 O39 2.010539 1_555
Li8 O38 2.021861 1_555
Li8 O25 2.099606 1_545
Li8 O30 2.104951 1_545
Li9 O32 2.010539 1_555
Li9 O33 2.021861 1_555
Li9 O44 2.099606 1_565
Li9 O40 2.104951 1_565
Li10 O44 2.018491 1_555
Li10 O2 2.020279 1_555
Li10 O4 2.035331 1_555
Li10 O34 2.053977 1_555
Li11 O36 1.970722 1_455
Li11 O7 2.028291 1_555
Li11 O0 2.046531 1_555
Li11 O42 2.109617 1_555
Fe0 O45 1.872042 1_555
Fe0 O47 1.891267 1_555
Fe0 O9 1.891963 1_555
Fe0 O4 1.903701 1_555
Fe1 O10 1.881279 1_555
Fe1 O6 1.889163 1_555
Fe1 O5 1.898836 1_555
Fe1 O44 1.917186 1_555
Fe2 O46 1.873795 1_555
Fe2 O8 1.881579 1_555
Fe2 O7 1.889593 1_655
Fe2 O12 1.915232 1_565
Fe3 O11 1.881279 1_555
Fe3 O16 1.889163 1_555
Fe3 O18 1.898836 1_555
Fe3 O25 1.917186 1_555
Fe4 O26 1.873795 1_555
Fe4 O15 1.881579 1_555
Fe4 O17 1.889593 1_555
Fe4 O13 1.915232 1_545
Fe5 O27 1.872042 1_555
Fe5 O24 1.891267 1_554
Fe5 O14 1.891963 1_555
Fe5 O19 1.903701 1_554
Fe6 O20 1.872042 1_555
Fe6 O23 1.891267 1_556
Fe6 O33 1.891963 1_555
Fe6 O28 1.903701 1_556
Fe7 O21 1.873795 1_555
Fe7 O32 1.881579 1_555
Fe7 O30 1.889593 1_555
Fe7 O34 1.915232 1_565
Fe8 O36 1.881279 1_555
Fe8 O31 1.889163 1_555
Fe8 O29 1.898836 1_555
Fe8 O22 1.917186 1_555
Fe9 O1 1.873795 1_555
Fe9 O39 1.881579 1_555
Fe9 O40 1.889593 1_455
Fe9 O35 1.915232 1_545
Fe10 O37 1.881279 1_555
Fe10 O41 1.889163 1_555
Fe10 O42 1.898836 1_555
Fe10 O3 1.917186 1_555
Fe11 O2 1.872042 1_555
Fe11 O0 1.891267 1_555
Fe11 O38 1.891963 1_555
Fe11 O43 1.903701 1_555
O0 W4 1.931817 1_555
O1 W0 1.897974 1_455
O2 W1 1.989248 1_555
O3 W5 2.013687 1_565
O4 W1 1.948680 1_555
O5 W0 1.952776 1_555
O6 W5 1.859490 1_556
O7 W4 2.013078 1_555
O8 W5 1.949102 1_565
O9 W4 1.941138 1_655
O10 W1 1.980519 1_555
O11 W0 1.980519 1_455
O12 W0 1.961760 1_554
O13 W1 1.961760 1_555
O14 W5 1.941138 1_555
O15 W4 1.949102 1_545
O16 W4 1.859490 1_555
O17 W5 2.013078 1_555
O18 W1 1.952776 1_555
O19 W0 1.948680 1_455
O20 W0 1.989248 1_555
O21 W1 1.897974 1_555
O22 W4 2.013687 1_645
O23 W5 1.931817 1_555
O24 W6 1.931817 1_555
O25 W7 2.013687 1_465
O26 W2 1.897974 1_555
O27 W3 1.989248 1_555
O28 W3 1.948680 1_655
O29 W2 1.952776 1_555
O30 W6 2.013078 1_555
O31 W7 1.859490 1_555
O32 W7 1.949102 1_565
O33 W6 1.941138 1_555
O34 W2 1.961760 1_555
O35 W3 1.961760 1_556
O36 W3 1.980519 1_655
O37 W2 1.980519 1_555
O38 W7 1.941138 1_455
O39 W6 1.949102 1_545
O40 W7 2.013078 1_555
O41 W6 1.859490 1_554
O42 W3 1.952776 1_555
O43 W2 1.948680 1_555
O44 W6 2.013687 1_545
O45 W2 1.989248 1_555
O46 W3 1.897974 1_655
O47 W7 1.931817 1_555
