# generated using pymatgen
data_Li2FePO4F
_symmetry_space_group_name_H-M   'P 1'
_cell_length_a   5.12417800
_cell_length_b   13.09416000
_cell_length_c   13.10165820
_cell_angle_alpha   60.90651083
_cell_angle_beta   90.00000000
_cell_angle_gamma   90.00000000
_symmetry_Int_Tables_number   1
_chemical_formula_structural   Li2FePO4F
_chemical_formula_sum   'Li16 Fe8 P8 O32 F8'
_cell_volume   768.16376198
_cell_formula_units_Z   8
loop_
 _symmetry_equiv_pos_site_id
 _symmetry_equiv_pos_as_xyz
  1  'x, y, z'
loop_
 _atom_site_type_symbol
 _atom_site_label
 _atom_site_symmetry_multiplicity
 _atom_site_fract_x
 _atom_site_fract_y
 _atom_site_fract_z
 _atom_site_occupancy
  Li  Li0  1  0.73390400  0.34809200  0.82681400  1
  Li  Li1  1  0.73024900  0.57758800  0.59730500  1
  Li  Li2  1  0.23024900  0.42241200  0.90269500  1
  Li  Li3  1  0.72264300  0.85070900  0.32434600  1
  Li  Li4  1  0.23390400  0.65190800  0.67318600  1
  Li  Li5  1  0.27410600  0.92073100  0.17127900  1
  Li  Li6  1  0.77410600  0.07926900  0.32872100  1
  Li  Li7  1  0.77735700  0.85070900  0.82434600  1
  Li  Li8  1  0.22264300  0.14929100  0.17565400  1
  Li  Li9  1  0.22589400  0.92073100  0.67127900  1
  Li  Li10  1  0.72589400  0.07926900  0.82872100  1
  Li  Li11  1  0.76609600  0.34809200  0.32681400  1
  Li  Li12  1  0.27735700  0.14929100  0.67565400  1
  Li  Li13  1  0.76975100  0.57758800  0.09730500  1
  Li  Li14  1  0.26975100  0.42241200  0.40269500  1
  Li  Li15  1  0.26609600  0.65190800  0.17318600  1
  Fe  Fe0  1  0.27519100  0.42221900  0.67308500  1
  Fe  Fe1  1  0.77519100  0.57778100  0.82691500  1
  Fe  Fe2  1  0.22778100  0.92374400  0.40280200  1
  Fe  Fe3  1  0.72778100  0.07625600  0.09719800  1
  Fe  Fe4  1  0.27221900  0.92374400  0.90280200  1
  Fe  Fe5  1  0.77221900  0.07625600  0.59719800  1
  Fe  Fe6  1  0.22480900  0.42221900  0.17308500  1
  Fe  Fe7  1  0.72480900  0.57778100  0.32691500  1
  P  P0  1  0.21705800  0.16553500  0.91918000  1
  P  P1  1  0.21355800  0.66657200  0.41764000  1
  P  P2  1  0.28644200  0.66657200  0.91764000  1
  P  P3  1  0.71705800  0.83446500  0.58082000  1
  P  P4  1  0.28294200  0.16553500  0.41918000  1
  P  P5  1  0.71355800  0.33342800  0.08236000  1
  P  P6  1  0.78644200  0.33342800  0.58236000  1
  P  P7  1  0.78294200  0.83446500  0.08082000  1
  O  O0  1  0.91101600  0.15579500  0.92506400  1
  O  O1  1  0.66762100  0.39452200  0.64782700  1
  O  O2  1  0.30096700  0.29541900  0.85335200  1
  O  O3  1  0.90805700  0.66126800  0.41299200  1
  O  O4  1  0.30744500  0.60409200  0.54619400  1
  O  O5  1  0.80744500  0.39590800  0.95380600  1
  O  O6  1  0.31148400  0.79496400  0.35792800  1
  O  O7  1  0.67073700  0.89777900  0.14591100  1
  O  O8  1  0.80096700  0.70458100  0.64664800  1
  O  O9  1  0.16762100  0.60547800  0.85217300  1
  O  O10  1  0.59194300  0.66126800  0.91299200  1
  O  O11  1  0.82909500  0.89174700  0.45514600  1
  O  O12  1  0.41101600  0.84420500  0.57493600  1
  O  O13  1  0.32909500  0.10825300  0.04485400  1
  O  O14  1  0.18851600  0.79496400  0.85792800  1
  O  O15  1  0.82926300  0.89777900  0.64591100  1
  O  O16  1  0.17073700  0.10222100  0.35408900  1
  O  O17  1  0.81148400  0.20503600  0.14207200  1
  O  O18  1  0.67090500  0.89174700  0.95514600  1
  O  O19  1  0.58898400  0.15579500  0.42506400  1
  O  O20  1  0.17090500  0.10825300  0.54485400  1
  O  O21  1  0.40805700  0.33873200  0.08700800  1
  O  O22  1  0.83237900  0.39452200  0.14782700  1
  O  O23  1  0.19903300  0.29541900  0.35335200  1
  O  O24  1  0.32926300  0.10222100  0.85408900  1
  O  O25  1  0.68851600  0.20503600  0.64207200  1
  O  O26  1  0.19255500  0.60409200  0.04619400  1
  O  O27  1  0.69255500  0.39590800  0.45380600  1
  O  O28  1  0.09194300  0.33873200  0.58700800  1
  O  O29  1  0.69903300  0.70458100  0.14664800  1
  O  O30  1  0.33237900  0.60547800  0.35217300  1
  O  O31  1  0.08898400  0.84420500  0.07493600  1
  F  F0  1  0.98689200  0.48933700  0.73615900  1
  F  F1  1  0.48689200  0.51066300  0.76384100  1
  F  F2  1  0.02031000  0.98962900  0.23235200  1
  F  F3  1  0.52031000  0.01037100  0.26764800  1
  F  F4  1  0.47969000  0.98962900  0.73235200  1
  F  F5  1  0.97969000  0.01037100  0.76764800  1
  F  F6  1  0.51310800  0.48933700  0.23615900  1
  F  F7  1  0.01310800  0.51066300  0.26384100  1
loop_
_geom_bond_atom_site_label_1
_geom_bond_atom_site_label_2
_geom_bond_distance
_geom_bond_site_symmetry_2
Li0 O5 2.077335 1_555
Li0 O1 2.144221 1_555
Li0 O2 2.298888 1_555
Li0 O0 2.380923 1_555
Li1 O8 2.088008 1_555
Li1 O1 2.178115 1_555
Li1 O4 2.244255 1_555
Li1 O3 2.299764 1_555
Li2 O2 2.088008 1_555
Li2 O9 2.178115 1_555
Li2 O5 2.244255 1_455
Li2 O21 2.299764 1_556
Li3 O11 2.102041 1_555
Li3 O7 2.124779 1_555
Li3 O6 2.202929 1_555
Li3 O3 2.367093 1_555
Li4 O4 2.077335 1_555
Li4 O9 2.144221 1_555
Li4 O8 2.298888 1_455
Li4 O12 2.380923 1_555
Li5 O7 2.104426 1_555
Li5 O31 2.174219 1_555
Li5 O6 2.193727 1_555
Li5 O13 2.212917 1_565
Li6 O16 2.104426 1_655
Li6 O19 2.174219 1_555
Li6 O17 2.193727 1_555
Li6 O11 2.212917 1_545
Li7 O18 2.102041 1_555
Li7 O15 2.124779 1_555
Li7 O14 2.202929 1_655
Li7 O10 2.367093 1_555
Li8 O13 2.102041 1_555
Li8 O16 2.124779 1_555
Li8 O17 2.202929 1_455
Li8 O21 2.367093 1_555
Li9 O15 2.104426 1_455
Li9 O12 2.174219 1_555
Li9 O14 2.193727 1_555
Li9 O20 2.212917 1_565
Li10 O24 2.104426 1_555
Li10 O0 2.174219 1_555
Li10 O25 2.193727 1_555
Li10 O18 2.212917 1_545
Li11 O27 2.077335 1_555
Li11 O22 2.144221 1_555
Li11 O23 2.298888 1_655
Li11 O19 2.380923 1_555
Li12 O20 2.102041 1_555
Li12 O24 2.124779 1_555
Li12 O25 2.202929 1_555
Li12 O28 2.367093 1_555
Li13 O29 2.088008 1_555
Li13 O22 2.178115 1_555
Li13 O26 2.244255 1_655
Li13 O10 2.299764 1_554
Li14 O23 2.088008 1_555
Li14 O30 2.178115 1_555
Li14 O27 2.244255 1_555
Li14 O28 2.299764 1_555
Li15 O26 2.077335 1_555
Li15 O30 2.144221 1_555
Li15 O29 2.298888 1_555
Li15 O31 2.380923 1_555
Fe0 O1 2.097950 1_555
Fe0 O2 2.130450 1_555
Fe0 O28 2.132491 1_555
Fe0 O4 2.147652 1_555
Fe1 O9 2.097950 1_655
Fe1 O8 2.130450 1_555
Fe1 O10 2.132491 1_555
Fe1 O5 2.147652 1_555
Fe2 O6 2.082598 1_555
Fe2 O16 2.122239 1_565
Fe2 O11 2.130734 1_455
Fe2 O12 2.183631 1_555
Fe3 O17 2.082598 1_555
Fe3 O7 2.122239 1_545
Fe3 O13 2.130734 1_555
Fe3 O0 2.183631 1_554
Fe4 O14 2.082598 1_555
Fe4 O24 2.122239 1_565
Fe4 O18 2.130734 1_555
Fe4 O31 2.183631 1_556
Fe5 O25 2.082598 1_555
Fe5 O15 2.122239 1_545
Fe5 O20 2.130734 1_655
Fe5 O19 2.183631 1_555
Fe6 O22 2.097950 1_455
Fe6 O23 2.130450 1_555
Fe6 O21 2.132491 1_555
Fe6 O26 2.147652 1_555
Fe7 O30 2.097950 1_555
Fe7 O29 2.130450 1_555
Fe7 O3 2.132491 1_555
Fe7 O27 2.147652 1_555
O0 P0 1.572241 1_655
O1 P6 1.553588 1_555
O2 P0 1.547493 1_555
O3 P1 1.569475 1_655
O4 P1 1.548398 1_555
O5 P5 1.548398 1_556
O6 P1 1.552798 1_555
O7 P7 1.559713 1_555
O8 P3 1.547493 1_555
O9 P2 1.553588 1_555
O10 P2 1.569475 1_555
O11 P3 1.549922 1_555
O12 P3 1.572241 1_555
O13 P0 1.549922 1_554
O14 P2 1.552798 1_555
O15 P3 1.559713 1_555
O16 P4 1.559713 1_555
O17 P5 1.552798 1_555
O18 P7 1.549922 1_556
O19 P4 1.572241 1_555
O20 P4 1.549922 1_555
O21 P5 1.569475 1_555
O22 P5 1.553588 1_555
O23 P4 1.547493 1_555
O24 P0 1.559713 1_555
O25 P6 1.552798 1_555
O26 P2 1.548398 1_554
O27 P6 1.548398 1_555
O28 P6 1.569475 1_455
O29 P7 1.547493 1_555
O30 P1 1.553588 1_555
O31 P7 1.572241 1_455
F0 Li1 2.080860 1_555
F0 Fe0 2.084214 1_655
F0 Li0 2.091797 1_555
F0 Li4 2.259717 1_655
F0 Li2 2.285657 1_655
F0 Fe1 2.295857 1_555
F1 Li2 2.080860 1_555
F1 Fe1 2.084214 1_555
F1 Li4 2.091797 1_555
F1 Li0 2.259717 1_555
F1 Li1 2.285657 1_555
F1 Fe0 2.295857 1_555
F2 Li5 1.961488 1_555
F2 Li8 2.118316 1_565
F2 Fe3 2.171593 1_465
F2 Li3 2.226217 1_455
F2 Fe2 2.233388 1_555
F2 Li6 2.450441 1_465
F3 Li6 1.961488 1_555
F3 Li3 2.118316 1_545
F3 Fe2 2.171593 1_545
F3 Li8 2.226217 1_555
F3 Fe3 2.233388 1_555
F3 Li5 2.450441 1_545
F4 Li9 1.961488 1_555
F4 Li12 2.118316 1_565
F4 Fe5 2.171593 1_565
F4 Li7 2.226217 1_555
F4 Fe4 2.233388 1_555
F4 Li10 2.450441 1_565
F5 Li10 1.961488 1_555
F5 Li7 2.118316 1_545
F5 Fe4 2.171593 1_645
F5 Li12 2.226217 1_655
F5 Fe5 2.233388 1_555
F5 Li9 2.450441 1_645
F6 Li13 2.080860 1_555
F6 Fe6 2.084214 1_555
F6 Li11 2.091797 1_555
F6 Li15 2.259717 1_555
F6 Li14 2.285657 1_555
F6 Fe7 2.295857 1_555
F7 Li14 2.080860 1_555
F7 Fe7 2.084214 1_455
F7 Li15 2.091797 1_555
F7 Li11 2.259717 1_455
F7 Li13 2.285657 1_455
F7 Fe6 2.295857 1_555
