# generated using pymatgen
data_Li2VP4(HO2)8
_symmetry_space_group_name_H-M   'P 1'
_cell_length_a   6.76021600
_cell_length_b   7.13158219
_cell_length_c   7.34578499
_cell_angle_alpha   79.30718132
_cell_angle_beta   77.41053641
_cell_angle_gamma   79.39339712
_symmetry_Int_Tables_number   1
_chemical_formula_structural   Li2VP4(HO2)8
_chemical_formula_sum   'Li2 V1 P4 H8 O16'
_cell_volume   335.80121032
_cell_formula_units_Z   1
loop_
 _symmetry_equiv_pos_site_id
 _symmetry_equiv_pos_as_xyz
  1  'x, y, z'
loop_
 _atom_site_type_symbol
 _atom_site_label
 _atom_site_symmetry_multiplicity
 _atom_site_fract_x
 _atom_site_fract_y
 _atom_site_fract_z
 _atom_site_occupancy
  Li  Li0  1  0.18561700  0.72341500  0.28885100  1
  Li  Li1  1  0.81438300  0.27658500  0.71114900  1
  V  V0  1  0.50000000  0.50000000  0.50000000  1
  P  P0  1  0.30535300  0.28277000  0.23307300  1
  P  P1  1  0.24049800  0.82072100  0.76964600  1
  P  P2  1  0.75950200  0.17927900  0.23035400  1
  P  P3  1  0.69464700  0.71723000  0.76692700  1
  H  H0  1  0.04105100  0.27400400  0.04337400  1
  H  H1  1  0.22686100  0.06116100  0.48429800  1
  H  H2  1  0.40205100  0.17247200  0.71964000  1
  H  H3  1  0.38479600  0.31653100  0.85988100  1
  H  H4  1  0.61520400  0.68346900  0.14011900  1
  H  H5  1  0.59794900  0.82752800  0.28036000  1
  H  H6  1  0.77313900  0.93883900  0.51570200  1
  H  H7  1  0.95894900  0.72599600  0.95662600  1
  O  O0  1  0.21690000  0.34893700  0.05482200  1
  O  O1  1  0.23233800  0.08750300  0.33642900  1
  O  O2  1  0.08940600  0.78559000  0.96328700  1
  O  O3  1  0.22110800  0.03481300  0.68421800  1
  O  O4  1  0.27104600  0.43316100  0.36376700  1
  O  O5  1  0.23939300  0.68844300  0.63036800  1
  O  O6  1  0.54749100  0.23443800  0.15081200  1
  O  O7  1  0.52535900  0.72689800  0.25771900  1
  O  O8  1  0.47464100  0.27310200  0.74228100  1
  O  O9  1  0.45250900  0.76556200  0.84918800  1
  O  O10  1  0.76060700  0.31155700  0.36963200  1
  O  O11  1  0.72895400  0.56683900  0.63623300  1
  O  O12  1  0.77889200  0.96518700  0.31578200  1
  O  O13  1  0.91059400  0.21441000  0.03671300  1
  O  O14  1  0.76766200  0.91249700  0.66357100  1
  O  O15  1  0.78310000  0.65106300  0.94517800  1
loop_
_geom_bond_atom_site_label_1
_geom_bond_atom_site_label_2
_geom_bond_distance
_geom_bond_site_symmetry_2
Li0 O4 2.048634 1_555
Li0 O7 2.262258 1_555
Li0 O2 2.552923 1_554
Li0 O5 2.572936 1_555
Li1 O11 2.048634 1_555
Li1 O8 2.262258 1_555
Li1 O13 2.552923 1_556
Li1 O10 2.572936 1_555
H0 O13 1.060804 1_455
H0 O0 1.414198 1_555
H1 O1 1.061051 1_555
H1 O3 1.438370 1_555
H2 O8 0.996498 1_555
H3 O8 1.006179 1_555
H3 O0 1.646205 1_556
H4 O7 1.006179 1_555
H4 O15 1.646205 1_554
H5 O7 0.996498 1_555
H6 O14 1.061051 1_555
H6 O12 1.438370 1_555
H7 O2 1.060804 1_655
H7 O15 1.414198 1_555
O0 P0 1.517530 1_555
O1 P0 1.567365 1_555
O2 P1 1.567803 1_555
O3 P1 1.532573 1_545
O4 P0 1.522913 1_555
O4 V0 2.179022 1_555
O5 P1 1.516837 1_555
O5 V0 2.167366 1_555
O6 P0 1.613011 1_555
O6 P2 1.619427 1_555
O7 V0 2.171564 1_555
O8 V0 2.171564 1_555
O9 P3 1.613011 1_555
O9 P1 1.619427 1_555
O10 P2 1.516837 1_555
O10 V0 2.167366 1_555
O11 P3 1.522913 1_555
O11 V0 2.179022 1_555
O12 P2 1.532573 1_565
O13 P2 1.567803 1_555
O14 P3 1.567365 1_555
O15 P3 1.517530 1_555
