# generated using pymatgen
data_Dy2TiO5
_symmetry_space_group_name_H-M   'P 1'
_cell_length_a   6.46708232
_cell_length_b   6.46708232
_cell_length_c   7.55119748
_cell_angle_alpha   68.15337512
_cell_angle_beta   68.15337512
_cell_angle_gamma   48.22489218
_symmetry_Int_Tables_number   1
_chemical_formula_structural   Dy2TiO5
_chemical_formula_sum   'Dy4 Ti2 O10'
_cell_volume   215.06093424
_cell_formula_units_Z   2
loop_
 _symmetry_equiv_pos_site_id
 _symmetry_equiv_pos_as_xyz
  1  'x, y, z'
loop_
 _atom_site_type_symbol
 _atom_site_label
 _atom_site_symmetry_multiplicity
 _atom_site_fract_x
 _atom_site_fract_y
 _atom_site_fract_z
 _atom_site_occupancy
  Dy  Dy0  1  0.65197900  0.62761200  0.74186300  1
  Dy  Dy1  1  0.62761200  0.65197900  0.24186300  1
  Dy  Dy2  1  0.37238800  0.34802100  0.75813700  1
  Dy  Dy3  1  0.34802100  0.37238800  0.25813700  1
  Ti  Ti0  1  0.00000000  0.00000000  0.50000000  1
  Ti  Ti1  1  0.00000000  0.00000000  0.00000000  1
  O  O0  1  0.97875600  0.68499500  0.63980600  1
  O  O1  1  0.68499500  0.97875600  0.13980600  1
  O  O2  1  0.38873200  0.75451100  0.54114700  1
  O  O3  1  0.83514800  0.16485200  0.75000000  1
  O  O4  1  0.24548900  0.61126800  0.95885300  1
  O  O5  1  0.75451100  0.38873200  0.04114700  1
  O  O6  1  0.16485200  0.83514800  0.25000000  1
  O  O7  1  0.61126800  0.24548900  0.45885300  1
  O  O8  1  0.31500500  0.02124400  0.86019400  1
  O  O9  1  0.02124400  0.31500500  0.36019400  1
loop_
_geom_bond_atom_site_label_1
_geom_bond_atom_site_label_2
_geom_bond_distance
_geom_bond_site_symmetry_2
Dy0 O0 2.194911 1_555
Dy0 O8 2.209030 1_565
Dy0 O2 2.236530 1_555
Dy0 O5 2.255139 1_556
Dy0 O3 2.357346 1_555
Dy0 O4 2.577237 1_555
Dy1 O1 2.194911 1_555
Dy1 O9 2.209030 1_655
Dy1 O5 2.236530 1_555
Dy1 O2 2.255139 1_555
Dy1 O6 2.357346 1_555
Dy1 O7 2.577237 1_555
Dy2 O8 2.194911 1_555
Dy2 O0 2.209030 1_455
Dy2 O4 2.236530 1_555
Dy2 O7 2.255139 1_555
Dy2 O3 2.357346 1_555
Dy2 O2 2.577237 1_555
Dy3 O9 2.194911 1_555
Dy3 O1 2.209030 1_545
Dy3 O7 2.236530 1_555
Dy3 O4 2.255139 1_554
Dy3 O6 2.357346 1_555
Dy3 O5 2.577237 1_555
O0 Ti0 1.986903 1_665
O1 Ti1 1.986903 1_665
O2 Ti0 1.957891 1_565
O3 Ti0 2.079076 1_655
O3 Ti1 2.079076 1_656
O4 Ti1 1.957891 1_566
O5 Ti1 1.957891 1_655
O6 Ti1 2.079076 1_565
O6 Ti0 2.079076 1_565
O7 Ti0 1.957891 1_655
O8 Ti1 1.986903 1_556
O9 Ti0 1.986903 1_555
