# generated using pymatgen
data_EuSeO4
_symmetry_space_group_name_H-M   'P 1'
_cell_length_a   7.30896009
_cell_length_b   6.84629410
_cell_length_c   8.59708384
_cell_angle_alpha   53.07388313
_cell_angle_beta   90.00000000
_cell_angle_gamma   90.00000000
_symmetry_Int_Tables_number   1
_chemical_formula_structural   EuSeO4
_chemical_formula_sum   'Eu4 Se4 O16'
_cell_volume   343.90014810
_cell_formula_units_Z   4
loop_
 _symmetry_equiv_pos_site_id
 _symmetry_equiv_pos_as_xyz
  1  'x, y, z'
loop_
 _atom_site_type_symbol
 _atom_site_label
 _atom_site_symmetry_multiplicity
 _atom_site_fract_x
 _atom_site_fract_y
 _atom_site_fract_z
 _atom_site_occupancy
  Eu  Eu0  1  0.84545886  0.82183687  0.77910787  1
  Eu  Eu1  1  0.34545886  0.17816313  0.72089213  1
  Eu  Eu2  1  0.65454114  0.82183687  0.27910787  1
  Eu  Eu3  1  0.15454114  0.17816313  0.22089213  1
  Se  Se0  1  0.83637614  0.31136323  0.80450137  1
  Se  Se1  1  0.33637614  0.68863677  0.69549863  1
  Se  Se2  1  0.66362386  0.31136323  0.30450137  1
  Se  Se3  1  0.16362386  0.68863677  0.19549863  1
  O  O0  1  0.89140873  0.33663524  0.97994346  1
  O  O1  1  0.66001714  0.11647907  0.88630790  1
  O  O2  1  0.28785179  0.40242641  0.88128509  1
  O  O3  1  0.49931090  0.81303542  0.74603169  1
  O  O4  1  0.78785179  0.59757359  0.61871491  1
  O  O5  1  -0.00068910  0.18696458  0.75396831  1
  O  O6  1  0.16001714  0.88352093  0.61369210  1
  O  O7  1  0.39140873  0.66336476  0.52005654  1
  O  O8  1  0.60859127  0.33663524  0.47994346  1
  O  O9  1  0.83998286  0.11647907  0.38630790  1
  O  O10  1  0.00068910  0.81303542  0.24603169  1
  O  O11  1  0.21214821  0.40242641  0.38128509  1
  O  O12  1  0.50068910  0.18696458  0.25396831  1
  O  O13  1  0.71214821  0.59757359  0.11871491  1
  O  O14  1  0.33998286  0.88352093  0.11369210  1
  O  O15  1  0.10859127  0.66336476  0.02005654  1
loop_
_geom_bond_atom_site_label_1
_geom_bond_atom_site_label_2
_geom_bond_distance
_geom_bond_site_symmetry_2
Eu0 O13 2.538640 1_556
Eu0 O15 2.542912 1_656
Eu0 O3 2.550664 1_555
Eu0 O6 2.600944 1_655
Eu0 O5 2.628858 1_665
Eu0 O4 2.641958 1_555
Eu0 O0 2.690156 1_555
Eu0 O9 2.699880 1_565
Eu0 O1 2.998227 1_565
Eu1 O11 2.538640 1_555
Eu1 O8 2.542912 1_555
Eu1 O5 2.550664 1_555
Eu1 O1 2.600944 1_555
Eu1 O3 2.628858 1_545
Eu1 O2 2.641958 1_555
Eu1 O7 2.690156 1_555
Eu1 O14 2.699880 1_546
Eu1 O6 2.998227 1_545
Eu2 O4 2.538640 1_555
Eu2 O7 2.542912 1_555
Eu2 O10 2.550664 1_655
Eu2 O14 2.600944 1_555
Eu2 O12 2.628858 1_565
Eu2 O13 2.641958 1_555
Eu2 O8 2.690156 1_555
Eu2 O1 2.699880 1_564
Eu2 O9 2.998227 1_565
Eu3 O2 2.538640 1_554
Eu3 O0 2.542912 1_454
Eu3 O12 2.550664 1_555
Eu3 O9 2.600944 1_455
Eu3 O10 2.628858 1_545
Eu3 O11 2.641958 1_555
Eu3 O15 2.690156 1_555
Eu3 O6 2.699880 1_545
Eu3 O14 2.998227 1_545
O0 Se0 1.667403 1_555
O1 Se0 1.675954 1_555
O2 Se1 1.660086 1_555
O3 Se1 1.666391 1_555
O4 Se0 1.660086 1_555
O5 Se0 1.666391 1_455
O6 Se1 1.675954 1_555
O7 Se1 1.667403 1_555
O8 Se2 1.667403 1_555
O9 Se2 1.675954 1_555
O10 Se3 1.666391 1_555
O11 Se3 1.660086 1_555
O12 Se2 1.666391 1_555
O13 Se2 1.660086 1_555
O14 Se3 1.675954 1_555
O15 Se3 1.667403 1_555
