# generated using pymatgen
data_Li5Fe2P2(CO7)2
_symmetry_space_group_name_H-M   'P 1'
_cell_length_a   6.50010600
_cell_length_b   9.41605800
_cell_length_c   10.11673623
_cell_angle_alpha   63.02539759
_cell_angle_beta   90.00000000
_cell_angle_gamma   90.00000000
_symmetry_Int_Tables_number   1
_chemical_formula_structural   Li5Fe2P2(CO7)2
_chemical_formula_sum   'Li10 Fe4 P4 C4 O28'
_cell_volume   551.83457813
_cell_formula_units_Z   2
loop_
 _symmetry_equiv_pos_site_id
 _symmetry_equiv_pos_as_xyz
  1  'x, y, z'
loop_
 _atom_site_type_symbol
 _atom_site_label
 _atom_site_symmetry_multiplicity
 _atom_site_fract_x
 _atom_site_fract_y
 _atom_site_fract_z
 _atom_site_occupancy
  Li  Li0  1  0.24493700  0.10639400  0.55922100  1
  Li  Li1  1  0.24732400  0.08843600  0.07487800  1
  Li  Li2  1  0.45896800  0.27993000  0.72684300  1
  Li  Li3  1  0.48657200  0.26981800  0.23977800  1
  Li  Li4  1  0.01207900  0.26956800  0.24311300  1
  Li  Li5  1  0.51207900  0.73043200  0.75688700  1
  Li  Li6  1  0.98657200  0.73018200  0.76022200  1
  Li  Li7  1  0.95896800  0.72007000  0.27315700  1
  Li  Li8  1  0.74732400  0.91156400  0.92512200  1
  Li  Li9  1  0.74493700  0.89360600  0.44077900  1
  Fe  Fe0  1  0.75662500  0.33052800  0.92966200  1
  Fe  Fe1  1  0.75252700  0.33181800  0.44623700  1
  Fe  Fe2  1  0.25252700  0.66818200  0.55376300  1
  Fe  Fe3  1  0.25662500  0.66947200  0.07033800  1
  P  P0  1  0.25300600  0.41595500  0.93613400  1
  P  P1  1  0.25271700  0.41460100  0.42514700  1
  P  P2  1  0.75271700  0.58539900  0.57485300  1
  P  P3  1  0.75300600  0.58404500  0.06386600  1
  C  C0  1  0.73859200  0.03046100  0.63355800  1
  C  C1  1  0.75756800  0.04571100  0.13319700  1
  C  C2  1  0.25756800  0.95428900  0.86680300  1
  C  C3  1  0.23859200  0.96953900  0.36644200  1
  O  O0  1  0.75422200  0.07991300  0.99224400  1
  O  O1  1  0.75290000  0.06659200  0.49343000  1
  O  O2  1  0.27747700  0.09332700  0.76229200  1
  O  O3  1  0.71808000  0.14432700  0.67066000  1
  O  O4  1  0.24647300  0.11707200  0.26378700  1
  O  O5  1  0.74210700  0.17122800  0.15863100  1
  O  O6  1  0.06216400  0.30968800  0.95377700  1
  O  O7  1  0.43606600  0.30586500  0.94196300  1
  O  O8  1  0.06738400  0.30365000  0.43760700  1
  O  O9  1  0.43950400  0.31877500  0.41164400  1
  O  O10  1  0.72455400  0.42125000  0.71397900  1
  O  O11  1  0.27852400  0.44173800  0.56308300  1
  O  O12  1  0.75531300  0.42409300  0.20447500  1
  O  O13  1  0.26233000  0.45076400  0.07456000  1
  O  O14  1  0.76233000  0.54923600  0.92544000  1
  O  O15  1  0.25531300  0.57590700  0.79552500  1
  O  O16  1  0.77852400  0.55826200  0.43691700  1
  O  O17  1  0.22455400  0.57875000  0.28602100  1
  O  O18  1  0.56738400  0.69635000  0.56239300  1
  O  O19  1  0.93950400  0.68122500  0.58835600  1
  O  O20  1  0.93606600  0.69413500  0.05803700  1
  O  O21  1  0.56216400  0.69031200  0.04622300  1
  O  O22  1  0.24210700  0.82877200  0.84136900  1
  O  O23  1  0.74647300  0.88292800  0.73621300  1
  O  O24  1  0.21808000  0.85567300  0.32934000  1
  O  O25  1  0.77747700  0.90667300  0.23770800  1
  O  O26  1  0.25290000  0.93340800  0.50657000  1
  O  O27  1  0.25422200  0.92008700  0.00775600  1
loop_
_geom_bond_atom_site_label_1
_geom_bond_atom_site_label_2
_geom_bond_distance
_geom_bond_site_symmetry_2
Li0 O26 1.930449 1_545
Li0 O2 2.012756 1_555
Li0 O8 2.054857 1_555
Li0 O9 2.262544 1_555
Li1 O27 1.988080 1_545
Li1 O4 2.047606 1_555
Li1 O6 2.230309 1_554
Li1 O7 2.237709 1_554
Li1 O24 2.519592 1_545
Li2 O2 2.008969 1_555
Li2 O11 2.037610 1_555
Li2 O10 2.147271 1_555
Li2 O7 2.302233 1_555
Li2 O3 2.334203 1_555
Li3 O9 2.014050 1_555
Li3 O4 2.060672 1_555
Li3 O12 2.195127 1_555
Li3 O5 2.232947 1_555
Li3 O13 2.288620 1_555
Li4 O4 2.038246 1_555
Li4 O12 2.130606 1_455
Li4 O8 2.162566 1_555
Li4 O5 2.320638 1_455
Li4 O13 2.413581 1_555
Li5 O23 2.038246 1_555
Li5 O15 2.130606 1_555
Li5 O18 2.162566 1_555
Li5 O22 2.320638 1_555
Li5 O14 2.413581 1_555
Li6 O19 2.014050 1_555
Li6 O23 2.060672 1_555
Li6 O15 2.195127 1_655
Li6 O22 2.232947 1_655
Li6 O14 2.288620 1_555
Li7 O25 2.008969 1_555
Li7 O16 2.037610 1_555
Li7 O17 2.147271 1_655
Li7 O20 2.302233 1_555
Li7 O24 2.334203 1_655
Li8 O0 1.988080 1_565
Li8 O23 2.047606 1_555
Li8 O21 2.230309 1_556
Li8 O20 2.237709 1_556
Li8 O3 2.519592 1_565
Li9 O1 1.930449 1_565
Li9 O25 2.012756 1_555
Li9 O18 2.054857 1_555
Li9 O19 2.262544 1_555
Fe0 O10 1.960453 1_555
Fe0 O6 1.999733 1_655
Fe0 O14 2.040685 1_555
Fe0 O7 2.094008 1_555
Fe0 O5 2.114836 1_556
Fe0 O0 2.148111 1_555
Fe1 O8 2.070644 1_655
Fe1 O9 2.077616 1_555
Fe1 O16 2.097947 1_555
Fe1 O3 2.164588 1_555
Fe1 O12 2.193062 1_555
Fe1 O1 2.320170 1_555
Fe2 O18 2.070644 1_555
Fe2 O19 2.077616 1_455
Fe2 O11 2.097947 1_555
Fe2 O24 2.164588 1_555
Fe2 O15 2.193062 1_555
Fe2 O26 2.320170 1_555
Fe3 O17 1.960453 1_555
Fe3 O21 1.999733 1_555
Fe3 O13 2.040685 1_555
Fe3 O20 2.094008 1_455
Fe3 O22 2.114836 1_554
Fe3 O27 2.148111 1_555
C0 O3 1.293561 1_555
C0 O1 1.302519 1_555
C0 O23 1.304677 1_545
C1 O25 1.262093 1_545
C1 O0 1.311871 1_554
C1 O5 1.322505 1_555
C2 O2 1.262093 1_565
C2 O27 1.311871 1_556
C2 O22 1.322505 1_555
C3 O24 1.293561 1_555
C3 O26 1.302519 1_555
C3 O4 1.304677 1_565
O6 P0 1.552382 1_555
O7 P0 1.561561 1_555
O8 P1 1.561770 1_555
O9 P1 1.555235 1_555
O10 P2 1.558840 1_555
O11 P1 1.537604 1_555
O12 P3 1.532486 1_555
O13 P0 1.577556 1_554
O14 P3 1.577556 1_556
O15 P0 1.532486 1_555
O16 P2 1.537604 1_555
O17 P1 1.558840 1_555
O18 P2 1.561770 1_555
O19 P2 1.555235 1_555
O20 P3 1.561561 1_555
O21 P3 1.552382 1_555
