# generated using pymatgen
data_NaCu3O4
_symmetry_space_group_name_H-M   'P 1'
_cell_length_a   5.45593045
_cell_length_b   6.07642507
_cell_length_c   3.51214668
_cell_angle_alpha   89.93013701
_cell_angle_beta   89.98105662
_cell_angle_gamma   63.07823603
_symmetry_Int_Tables_number   1
_chemical_formula_structural   NaCu3O4
_chemical_formula_sum   'Na1 Cu3 O4'
_cell_volume   103.81779808
_cell_formula_units_Z   1
loop_
 _symmetry_equiv_pos_site_id
 _symmetry_equiv_pos_as_xyz
  1  'x, y, z'
loop_
 _atom_site_type_symbol
 _atom_site_label
 _atom_site_symmetry_multiplicity
 _atom_site_fract_x
 _atom_site_fract_y
 _atom_site_fract_z
 _atom_site_occupancy
  Na  Na0  1  0.00248500  0.00429000  0.49531700  1
  Cu  Cu0  1  0.24281400  0.51308500  0.99878300  1
  Cu  Cu1  1  0.75895800  0.48077100  0.99130400  1
  Cu  Cu2  1  0.50186300  0.99587500  0.00885700  1
  O  O0  1  0.39402200  0.73595100  0.99165300  1
  O  O1  1  0.86808000  0.73485500  0.98835600  1
  O  O2  1  0.13393700  0.25769800  0.00259500  1
  O  O3  1  0.60833800  0.25761000  0.99195200  1
loop_
_geom_bond_atom_site_label_1
_geom_bond_atom_site_label_2
_geom_bond_distance
_geom_bond_site_symmetry_2
Na0 O2 2.621599 1_555
Na0 O3 2.653825 1_455
Na0 O2 2.658418 1_556
Na0 O0 2.664984 1_545
Na0 O3 2.667885 1_454
Na0 O0 2.683568 1_544
Na0 O1 2.701131 1_445
Na0 O1 2.735610 1_444
Cu0 O1 1.871465 1_455
Cu0 O0 1.877963 1_555
Cu0 O3 1.893194 1_555
Cu0 O2 1.896301 1_556
Cu1 O2 1.874347 1_656
Cu1 O3 1.877015 1_555
Cu1 O1 1.889600 1_555
Cu1 O0 1.890224 1_555
Cu2 O1 1.908790 1_554
Cu2 O2 1.915496 1_565
Cu2 O0 1.919930 1_554
Cu2 O3 1.925303 1_564
