# generated using pymatgen
data_Li4Co3OF11
_symmetry_space_group_name_H-M   'P 1'
_cell_length_a   5.81291100
_cell_length_b   5.95587194
_cell_length_c   6.22542590
_cell_angle_alpha   99.74572429
_cell_angle_beta   100.08855256
_cell_angle_gamma   98.83568843
_symmetry_Int_Tables_number   1
_chemical_formula_structural   Li4Co3OF11
_chemical_formula_sum   'Li4 Co3 O1 F11'
_cell_volume   205.37193844
_cell_formula_units_Z   1
loop_
 _symmetry_equiv_pos_site_id
 _symmetry_equiv_pos_as_xyz
  1  'x, y, z'
loop_
 _atom_site_type_symbol
 _atom_site_label
 _atom_site_symmetry_multiplicity
 _atom_site_fract_x
 _atom_site_fract_y
 _atom_site_fract_z
 _atom_site_occupancy
  Li  Li0  1  0.68307100  0.42842400  0.87486100  1
  Li  Li1  1  0.14388100  0.34906900  0.60800500  1
  Li  Li2  1  0.87559100  0.66680300  0.39273400  1
  Li  Li3  1  0.30514000  0.57412600  0.12296500  1
  Co  Co0  1  0.60126100  0.15507600  0.34104500  1
  Co  Co1  1  0.97771200  0.99701500  0.98900100  1
  Co  Co2  1  0.40885300  0.84874000  0.67020400  1
  O  O0  1  0.66069200  0.00976300  0.86925000  1
  F  F0  1  0.08880500  0.29233700  0.94763800  1
  F  F1  1  0.38235600  0.15330700  0.55133100  1
  F  F2  1  0.92420400  0.13582800  0.28933800  1
  F  F3  1  0.40561800  0.57877200  0.82291500  1
  F  F4  1  0.80130400  0.39301400  0.58679000  1
  F  F5  1  0.21153500  0.60747100  0.41866000  1
  F  F6  1  0.58503300  0.40301300  0.18399200  1
  F  F7  1  0.07069200  0.86884600  0.71064800  1
  F  F8  1  0.62718800  0.85299300  0.42900800  1
  F  F9  1  0.91784000  0.70323800  0.06189400  1
  F  F10  1  0.32922200  0.98216200  0.12972300  1
loop_
_geom_bond_atom_site_label_1
_geom_bond_atom_site_label_2
_geom_bond_distance
_geom_bond_site_symmetry_2
Li0 O0 2.470812 1_555
Co0 F10 1.898457 1_545
Co0 F6 1.909110 1_555
Co0 F4 1.958943 1_555
Co0 F2 1.976388 1_555
Co0 F1 1.979206 1_555
Co0 F8 1.986840 1_545
Co1 F0 1.854648 1_665
Co1 F9 1.877648 1_556
Co1 O0 1.881043 1_565
Co1 F7 1.970964 1_655
Co1 F2 2.008866 1_566
Co1 F10 2.098809 1_656
Co2 O0 1.768937 1_565
Co2 F5 1.983760 1_555
Co2 F3 2.000995 1_555
Co2 F7 2.043822 1_555
Co2 F1 2.088589 1_565
Co2 F8 2.129954 1_555
F0 Li3 1.959598 1_556
F0 Li1 2.265606 1_555
F1 Li1 1.983463 1_555
F2 Li1 2.222726 1_655
F3 Li0 1.966353 1_555
F3 Li1 2.001054 1_555
F3 Li3 2.055689 1_556
F4 Li0 2.020217 1_555
F4 Li1 2.032529 1_655
F4 Li2 2.222237 1_555
F5 Li3 1.996118 1_555
F5 Li2 2.021207 1_455
F5 Li1 2.122101 1_555
F6 Li3 2.062515 1_555
F6 Li0 2.123113 1_554
F6 Li2 2.175872 1_555
F7 Li2 2.153918 1_455
F8 Li2 1.971558 1_555
F8 Li3 2.572356 1_555
F9 Li0 2.002251 1_554
F9 Li2 2.159071 1_555
F9 Li3 2.476963 1_655
F10 Li3 2.405431 1_555
