# generated using pymatgen
data_Na3CuPCO7
_symmetry_space_group_name_H-M   'P 1'
_cell_length_a   6.51904900
_cell_length_b   5.29019500
_cell_length_c   9.05636822
_cell_angle_alpha   86.66076650
_cell_angle_beta   90.00000000
_cell_angle_gamma   90.00000000
_symmetry_Int_Tables_number   1
_chemical_formula_structural   Na3CuPCO7
_chemical_formula_sum   'Na6 Cu2 P2 C2 O14'
_cell_volume   311.79705658
_cell_formula_units_Z   2
loop_
 _symmetry_equiv_pos_site_id
 _symmetry_equiv_pos_as_xyz
  1  'x, y, z'
loop_
 _atom_site_type_symbol
 _atom_site_label
 _atom_site_symmetry_multiplicity
 _atom_site_fract_x
 _atom_site_fract_y
 _atom_site_fract_z
 _atom_site_occupancy
  Na  Na0  1  0.49436400  0.24254400  0.27353200  1
  Na  Na1  1  0.99436400  0.75745600  0.72646800  1
  Na  Na2  1  0.50563600  0.75745600  0.72646800  1
  Na  Na3  1  0.00563600  0.24254400  0.27353200  1
  Na  Na4  1  0.75000000  0.21696500  0.91614700  1
  Na  Na5  1  0.25000000  0.78303500  0.08385300  1
  Cu  Cu0  1  0.25000000  0.24095700  0.65312500  1
  Cu  Cu1  1  0.75000000  0.75904300  0.34687500  1
  P  P0  1  0.75000000  0.30734800  0.58130500  1
  P  P1  1  0.25000000  0.69265200  0.41869500  1
  C  C0  1  0.25000000  0.29147800  0.94751400  1
  C  C1  1  0.75000000  0.70852200  0.05248600  1
  O  O0  1  0.25000000  0.09620500  0.86398000  1
  O  O1  1  0.75000000  0.90379500  0.13602000  1
  O  O2  1  0.25000000  0.51813000  0.88727600  1
  O  O3  1  0.75000000  0.48187000  0.11272400  1
  O  O4  1  0.25000000  0.24624500  0.08920700  1
  O  O5  1  0.75000000  0.75375500  0.91079300  1
  O  O6  1  0.93864400  0.23921400  0.68296000  1
  O  O7  1  0.43864400  0.76078600  0.31704000  1
  O  O8  1  0.06135600  0.76078600  0.31704000  1
  O  O9  1  0.56135600  0.23921400  0.68296000  1
  O  O10  1  0.75000000  0.16915300  0.43812200  1
  O  O11  1  0.25000000  0.83084700  0.56187800  1
  O  O12  1  0.25000000  0.39708700  0.45248900  1
  O  O13  1  0.75000000  0.60291300  0.54751100  1
loop_
_geom_bond_atom_site_label_1
_geom_bond_atom_site_label_2
_geom_bond_distance
_geom_bond_site_symmetry_2
Na0 O10 2.254420 1_555
Na0 O4 2.306709 1_555
Na0 O12 2.446866 1_555
Na0 O3 2.507252 1_555
Na0 O7 2.581772 1_545
Na0 O1 2.792773 1_545
Na0 O7 2.815923 1_555
Na1 O11 2.254420 1_655
Na1 O5 2.306709 1_555
Na1 O13 2.446866 1_555
Na1 O2 2.507252 1_655
Na1 O6 2.581772 1_565
Na1 O0 2.792773 1_665
Na1 O6 2.815923 1_555
Na2 O11 2.254420 1_555
Na2 O5 2.306709 1_555
Na2 O13 2.446866 1_555
Na2 O2 2.507252 1_555
Na2 O9 2.581772 1_565
Na2 O0 2.792773 1_565
Na2 O9 2.815923 1_555
Na3 O10 2.254420 1_455
Na3 O4 2.306709 1_555
Na3 O12 2.446866 1_555
Na3 O3 2.507252 1_455
Na3 O8 2.581772 1_545
Na3 O1 2.792773 1_445
Na3 O8 2.815923 1_555
Na4 O3 2.328934 1_556
Na4 O6 2.440711 1_555
Na4 O9 2.440711 1_555
Na4 O5 2.453773 1_545
Na4 O1 2.515059 1_546
Na4 O5 2.837312 1_555
Na5 O2 2.328934 1_554
Na5 O7 2.440711 1_555
Na5 O8 2.440711 1_555
Na5 O4 2.453773 1_565
Na5 O0 2.515059 1_564
Na5 O4 2.837312 1_555
Cu0 O12 1.951661 1_555
Cu0 O0 2.015576 1_555
Cu0 O9 2.047600 1_555
Cu0 O6 2.047600 1_455
Cu0 O11 2.366165 1_545
Cu1 O13 1.951661 1_555
Cu1 O1 2.015576 1_555
Cu1 O8 2.047600 1_655
Cu1 O7 2.047600 1_555
Cu1 O10 2.366165 1_565
C0 O2 1.288057 1_555
C0 O4 1.291570 1_556
C0 O0 1.315489 1_555
C1 O3 1.288057 1_555
C1 O5 1.291570 1_554
C1 O1 1.315489 1_555
O6 P0 1.565621 1_555
O7 P1 1.565621 1_555
O8 P1 1.565621 1_555
O9 P0 1.565621 1_555
O10 P0 1.525251 1_555
O11 P1 1.525251 1_555
O12 P1 1.575676 1_555
O13 P0 1.575676 1_555
