# generated using pymatgen
data_Li3Mn3O3F5
_symmetry_space_group_name_H-M   'P 1'
_cell_length_a   5.84003238
_cell_length_b   10.53275117
_cell_length_c   6.24524927
_cell_angle_alpha   104.31864098
_cell_angle_beta   62.12573841
_cell_angle_gamma   106.09382207
_symmetry_Int_Tables_number   1
_chemical_formula_structural   Li3Mn3O3F5
_chemical_formula_sum   'Li6 Mn6 O6 F10'
_cell_volume   323.12675588
_cell_formula_units_Z   2
loop_
 _symmetry_equiv_pos_site_id
 _symmetry_equiv_pos_as_xyz
  1  'x, y, z'
loop_
 _atom_site_type_symbol
 _atom_site_label
 _atom_site_symmetry_multiplicity
 _atom_site_fract_x
 _atom_site_fract_y
 _atom_site_fract_z
 _atom_site_occupancy
  Li  Li0  1  0.17868800  0.56912800  0.21213200  1
  Li  Li1  1  0.67833500  0.06912600  0.71213500  1
  Li  Li2  1  0.87663800  0.61348800  0.86017700  1
  Li  Li3  1  0.37671000  0.11348600  0.36017700  1
  Li  Li4  1  0.01379500  0.01808600  0.99060600  1
  Li  Li5  1  0.51368200  0.51808800  0.49061800  1
  Mn  Mn0  1  0.93668500  0.31098900  0.43773400  1
  Mn  Mn1  1  0.92389300  0.30793300  0.94319600  1
  Mn  Mn2  1  0.42375100  0.80780000  0.44316600  1
  Mn  Mn3  1  0.43659700  0.81098400  0.93769700  1
  Mn  Mn4  1  0.44087500  0.30779300  0.94315000  1
  Mn  Mn5  1  0.94084600  0.80793000  0.44318100  1
  O  O0  1  0.07519100  0.21575800  0.06619800  1
  O  O1  1  0.57436600  0.71576300  0.56621200  1
  O  O2  1  0.79705400  0.40691000  0.81205700  1
  O  O3  1  0.29780800  0.90691300  0.31205900  1
  O  O4  1  0.57991800  0.19913400  0.03889800  1
  O  O5  1  0.08028600  0.69913900  0.53889900  1
  F  F0  1  0.29794100  0.42416800  0.82853700  1
  F  F1  1  0.79769900  0.92417300  0.32853500  1
  F  F2  1  0.55304400  0.68044800  0.06849700  1
  F  F3  1  0.05257900  0.18087800  0.56913500  1
  F  F4  1  0.05923300  0.68089100  0.06905400  1
  F  F5  1  0.55893700  0.18043900  0.56841600  1
  F  F6  1  0.82923700  0.44486700  0.30208500  1
  F  F7  1  0.32889200  0.94543900  0.80268900  1
  F  F8  1  0.31383000  0.44540900  0.30266500  1
  F  F9  1  0.81349500  0.94484000  0.80209500  1
loop_
_geom_bond_atom_site_label_1
_geom_bond_atom_site_label_2
_geom_bond_distance
_geom_bond_site_symmetry_2
Li0 O5 2.080262 1_555
Li1 O4 2.080230 1_556
Li2 O2 2.070528 1_555
Li2 O5 2.079262 1_655
Li3 O3 2.070478 1_545
Li3 O4 2.079251 1_555
Li4 O0 1.986076 1_556
Li5 O1 1.986106 1_555
Mn0 O0 2.141954 1_655
Mn0 O2 2.157944 1_555
Mn1 O4 1.909351 1_556
Mn1 O2 1.929764 1_555
Mn1 O0 1.947447 1_656
Mn2 O5 1.906583 1_555
Mn2 O3 1.926867 1_555
Mn2 O1 1.943503 1_555
Mn3 O1 2.141670 1_555
Mn3 O3 2.158162 1_556
Mn4 O4 1.906449 1_556
Mn4 O2 1.927008 1_555
Mn4 O0 1.943495 1_556
Mn5 O5 1.909146 1_655
Mn5 O3 1.929872 1_655
Mn5 O1 1.947508 1_555
F0 Mn4 2.066772 1_555
F0 Mn1 2.066805 1_455
F0 Li5 2.207957 1_555
F0 Li0 2.403245 1_556
F1 Mn5 2.066722 1_555
F1 Mn2 2.066939 1_555
F1 Li4 2.207968 1_664
F1 Li1 2.403232 1_565
F2 Li2 1.935840 1_554
F2 Li0 2.055329 1_555
F2 Mn3 2.147904 1_554
F2 Mn2 2.280686 1_555
F3 Li3 1.940868 1_555
F3 Li1 2.056303 1_455
F3 Mn0 2.144638 1_455
F3 Mn1 2.276548 1_455
F4 Li2 1.940555 1_454
F4 Li0 2.056533 1_555
F4 Mn3 2.144438 1_554
F4 Mn5 2.276776 1_455
F5 Li3 1.935353 1_555
F5 Li1 2.055580 1_555
F5 Mn0 2.147857 1_555
F5 Mn4 2.280991 1_555
F6 Li5 1.920184 1_555
F6 Li0 2.001059 1_655
F6 Mn0 2.162951 1_555
F6 Mn1 2.256978 1_554
F7 Li4 1.914720 1_565
F7 Li1 1.998240 1_565
F7 Mn3 2.166223 1_555
F7 Mn2 2.263211 1_555
F8 Li5 1.915020 1_555
F8 Li0 1.998130 1_555
F8 Mn0 2.166058 1_455
F8 Mn4 2.263066 1_554
F9 Li4 1.920336 1_665
F9 Li1 2.000928 1_565
F9 Mn3 2.162593 1_555
F9 Mn5 2.256977 1_555
