# generated using pymatgen
data_Li5V5(CoO6)2
_symmetry_space_group_name_H-M   'P 1'
_cell_length_a   5.18629007
_cell_length_b   5.18629007
_cell_length_c   9.88702243
_cell_angle_alpha   85.06092911
_cell_angle_beta   85.06092911
_cell_angle_gamma   119.86769629
_symmetry_Int_Tables_number   1
_chemical_formula_structural   Li5V5(CoO6)2
_chemical_formula_sum   'Li5 V5 Co2 O12'
_cell_volume   227.18402629
_cell_formula_units_Z   1
loop_
 _symmetry_equiv_pos_site_id
 _symmetry_equiv_pos_as_xyz
  1  'x, y, z'
loop_
 _atom_site_type_symbol
 _atom_site_label
 _atom_site_symmetry_multiplicity
 _atom_site_fract_x
 _atom_site_fract_y
 _atom_site_fract_z
 _atom_site_occupancy
  Li  Li0  1  0.83602200  0.66019500  0.26244100  1
  Li  Li1  1  0.68236100  0.84975600  0.73588300  1
  Li  Li2  1  0.33980500  0.16397800  0.73755900  1
  Li  Li3  1  0.15024400  0.31763900  0.26411700  1
  Li  Li4  1  0.07984500  0.92015500  0.50000000  1
  V  V0  1  0.57701800  0.42298200  0.00000000  1
  V  V1  1  0.42381700  0.57618300  0.50000000  1
  V  V2  1  0.91720800  0.08279200  0.00000000  1
  V  V3  1  0.00309100  0.51377800  0.74107000  1
  V  V4  1  0.48622200  0.99690900  0.25893000  1
  Co  Co0  1  0.75410100  0.24589900  0.50000000  1
  Co  Co1  1  0.24750900  0.75249100  0.00000000  1
  O  O0  1  0.05804800  0.23566400  0.62167800  1
  O  O1  1  0.76433600  0.94195200  0.37832200  1
  O  O2  1  0.85307100  0.35972700  0.11907200  1
  O  O3  1  0.64027300  0.14692900  0.88092800  1
  O  O4  1  0.71607900  0.53526900  0.62541000  1
  O  O5  1  0.46473100  0.28392100  0.37459000  1
  O  O6  1  0.55590300  0.72972000  0.11781000  1
  O  O7  1  0.27028000  0.44409700  0.88219000  1
  O  O8  1  0.36660700  0.84737800  0.62853300  1
  O  O9  1  0.15262200  0.63339300  0.37146700  1
  O  O10  1  0.21858400  0.05777500  0.11851800  1
  O  O11  1  0.94222500  0.78141600  0.88148200  1
loop_
_geom_bond_atom_site_label_1
_geom_bond_atom_site_label_2
_geom_bond_distance
_geom_bond_site_symmetry_2
Li0 O5 2.064636 1_555
Li0 O1 2.083808 1_555
Li0 O9 2.093723 1_655
Li0 O2 2.222939 1_555
Li0 O6 2.253013 1_555
Li0 O10 2.268700 1_665
Li1 O8 2.022324 1_555
Li1 O0 2.103580 1_665
Li1 O4 2.107549 1_555
Li1 O11 2.176295 1_555
Li1 O3 2.267447 1_565
Li1 O7 2.356169 1_555
Li2 O4 2.064636 1_555
Li2 O0 2.083808 1_555
Li2 O8 2.093723 1_545
Li2 O3 2.222939 1_555
Li2 O7 2.253013 1_555
Li2 O11 2.268700 1_445
Li3 O9 2.022324 1_555
Li3 O1 2.103580 1_445
Li3 O5 2.107549 1_555
Li3 O10 2.176295 1_555
Li3 O2 2.267447 1_455
Li3 O6 2.356169 1_555
Li4 O5 2.121651 1_565
Li4 O4 2.121651 1_455
Li4 O1 2.153464 1_455
Li4 O0 2.153464 1_565
Li4 O8 2.184312 1_555
Li4 O9 2.184312 1_555
Co0 O1 2.081802 1_545
Co0 O0 2.081802 1_655
Co0 O4 2.098013 1_555
Co0 O5 2.098013 1_555
Co0 O9 2.212795 1_655
Co0 O8 2.212795 1_545
Co1 O7 2.100968 1_554
Co1 O6 2.100968 1_555
Co1 O10 2.104322 1_565
Co1 O11 2.104322 1_454
Co1 O3 2.177635 1_564
Co1 O2 2.177635 1_455
O0 V1 2.017219 1_555
O0 V3 2.049348 1_555
O1 V1 2.017219 1_555
O1 V4 2.049348 1_555
O2 V0 2.057874 1_555
O2 V2 2.063740 1_555
O2 V4 2.146124 1_545
O3 V0 2.057874 1_556
O3 V2 2.063740 1_556
O3 V3 2.146124 1_655
O4 V3 1.993039 1_655
O4 V1 2.116278 1_555
O5 V4 1.993039 1_545
O5 V1 2.116278 1_555
O6 V2 2.015051 1_565
O6 V0 2.090477 1_555
O6 V4 2.177713 1_555
O7 V2 2.015051 1_456
O7 V0 2.090477 1_556
O7 V3 2.177713 1_555
O8 V3 1.960685 1_555
O8 V1 2.083199 1_555
O9 V4 1.960685 1_555
O9 V1 2.083199 1_555
O10 V0 2.037676 1_555
O10 V2 2.079459 1_455
O10 V4 2.155537 1_545
O11 V0 2.037676 1_556
O11 V2 2.079459 1_566
O11 V3 2.155537 1_655
