# generated using pymatgen
data_Li3V(Si2O5)3
_symmetry_space_group_name_H-M   'P 1'
_cell_length_a   7.90621100
_cell_length_b   9.90784600
_cell_length_c   15.00292000
_cell_angle_alpha   90.00000000
_cell_angle_beta   90.00000000
_cell_angle_gamma   90.00000000
_symmetry_Int_Tables_number   1
_chemical_formula_structural   Li3V(Si2O5)3
_chemical_formula_sum   'Li12 V4 Si24 O60'
_cell_volume   1175.23154935
_cell_formula_units_Z   4
loop_
 _symmetry_equiv_pos_site_id
 _symmetry_equiv_pos_as_xyz
  1  'x, y, z'
loop_
 _atom_site_type_symbol
 _atom_site_label
 _atom_site_symmetry_multiplicity
 _atom_site_fract_x
 _atom_site_fract_y
 _atom_site_fract_z
 _atom_site_occupancy
  Li  Li0  1  0.25000000  0.57839800  0.06337700  1
  Li  Li1  1  0.25000000  0.92160200  0.56337700  1
  Li  Li2  1  0.00195000  0.00275300  0.24321600  1
  Li  Li3  1  0.49805000  0.00275300  0.24321600  1
  Li  Li4  1  0.99805000  0.99724700  0.75678400  1
  Li  Li5  1  0.50195000  0.99724700  0.75678400  1
  Li  Li6  1  0.75000000  0.07839800  0.43662300  1
  Li  Li7  1  0.75000000  0.42160200  0.93662300  1
  Li  Li8  1  0.99805000  0.50275300  0.25678400  1
  Li  Li9  1  0.50195000  0.50275300  0.25678400  1
  Li  Li10  1  0.49805000  0.49724700  0.74321600  1
  Li  Li11  1  0.00195000  0.49724700  0.74321600  1
  V  V0  1  0.25000000  0.75291500  0.25073600  1
  V  V1  1  0.25000000  0.74708500  0.75073600  1
  V  V2  1  0.75000000  0.24708500  0.74926400  1
  V  V3  1  0.75000000  0.25291500  0.24926400  1
  Si  Si0  1  0.75000000  0.52811900  0.40154100  1
  Si  Si1  1  0.75000000  0.52747600  0.59845500  1
  Si  Si2  1  0.55793100  0.70712200  0.09850300  1
  Si  Si3  1  0.94206900  0.70712200  0.09850300  1
  Si  Si4  1  0.94050400  0.70422900  0.89958800  1
  Si  Si5  1  0.55949600  0.70422900  0.89958800  1
  Si  Si6  1  0.94050400  0.79577100  0.39958800  1
  Si  Si7  1  0.55793100  0.79287800  0.59850300  1
  Si  Si8  1  0.55949600  0.79577100  0.39958800  1
  Si  Si9  1  0.94206900  0.79287800  0.59850300  1
  Si  Si10  1  0.75000000  0.97252400  0.09845500  1
  Si  Si11  1  0.75000000  0.97188100  0.90154100  1
  Si  Si12  1  0.25000000  0.02747600  0.90154500  1
  Si  Si13  1  0.25000000  0.02811900  0.09845900  1
  Si  Si14  1  0.44206900  0.20712200  0.40149700  1
  Si  Si15  1  0.05949600  0.20422900  0.60041200  1
  Si  Si16  1  0.05793100  0.20712200  0.40149700  1
  Si  Si17  1  0.44050400  0.20422900  0.60041200  1
  Si  Si18  1  0.05949600  0.29577100  0.10041200  1
  Si  Si19  1  0.44206900  0.29287800  0.90149700  1
  Si  Si20  1  0.05793100  0.29287800  0.90149700  1
  Si  Si21  1  0.44050400  0.29577100  0.10041200  1
  Si  Si22  1  0.25000000  0.47188100  0.59845900  1
  Si  Si23  1  0.25000000  0.47252400  0.40154500  1
  O  O0  1  0.25000000  0.54530900  0.49980600  1
  O  O1  1  0.25000000  0.56996900  0.31675600  1
  O  O2  1  0.25000000  0.56739000  0.68264600  1
  O  O3  1  0.58496800  0.63161700  0.39456700  1
  O  O4  1  0.91503200  0.63161700  0.39456700  1
  O  O5  1  0.58383300  0.63135800  0.60568300  1
  O  O6  1  0.91616700  0.63135800  0.60568300  1
  O  O7  1  0.75000000  0.63791600  0.10690100  1
  O  O8  1  0.75000000  0.62992800  0.89767100  1
  O  O9  1  0.07108000  0.65275900  0.17102700  1
  O  O10  1  0.42892000  0.65275900  0.17102700  1
  O  O11  1  0.05867600  0.65499100  0.81998400  1
  O  O12  1  0.44132400  0.65499100  0.81998400  1
  O  O13  1  0.47766400  0.66413900  0.99906700  1
  O  O14  1  0.02233600  0.66413900  0.99906700  1
  O  O15  1  0.47766400  0.83586100  0.49906700  1
  O  O16  1  0.02233600  0.83586100  0.49906700  1
  O  O17  1  0.07108000  0.84724100  0.67102700  1
  O  O18  1  0.05867600  0.84500900  0.31998400  1
  O  O19  1  0.44132400  0.84500900  0.31998400  1
  O  O20  1  0.42892000  0.84724100  0.67102700  1
  O  O21  1  0.75000000  0.87007200  0.39767100  1
  O  O22  1  0.75000000  0.86208400  0.60690100  1
  O  O23  1  0.91616700  0.86864200  0.10568300  1
  O  O24  1  0.58383300  0.86864200  0.10568300  1
  O  O25  1  0.91503200  0.86838300  0.89456700  1
  O  O26  1  0.58496800  0.86838300  0.89456700  1
  O  O27  1  0.25000000  0.93261000  0.18264600  1
  O  O28  1  0.25000000  0.93003100  0.81675600  1
  O  O29  1  0.25000000  0.95469100  0.99980600  1
  O  O30  1  0.75000000  0.04530900  0.00019400  1
  O  O31  1  0.75000000  0.06996900  0.18324400  1
  O  O32  1  0.75000000  0.06739000  0.81735400  1
  O  O33  1  0.08383300  0.13135800  0.89431700  1
  O  O34  1  0.41616700  0.13135800  0.89431700  1
  O  O35  1  0.08496800  0.13161700  0.10543300  1
  O  O36  1  0.41503200  0.13161700  0.10543300  1
  O  O37  1  0.25000000  0.12992800  0.60232900  1
  O  O38  1  0.25000000  0.13791600  0.39309900  1
  O  O39  1  0.55867600  0.15499100  0.68001600  1
  O  O40  1  0.94132400  0.15499100  0.68001600  1
  O  O41  1  0.57108000  0.15275900  0.32897300  1
  O  O42  1  0.92892000  0.15275900  0.32897300  1
  O  O43  1  0.97766400  0.16413900  0.50093300  1
  O  O44  1  0.52233600  0.16413900  0.50093300  1
  O  O45  1  0.97766400  0.33586100  0.00093300  1
  O  O46  1  0.52233600  0.33586100  0.00093300  1
  O  O47  1  0.55867600  0.34500900  0.18001600  1
  O  O48  1  0.94132400  0.34500900  0.18001600  1
  O  O49  1  0.57108000  0.34724100  0.82897300  1
  O  O50  1  0.92892000  0.34724100  0.82897300  1
  O  O51  1  0.25000000  0.37007200  0.10232900  1
  O  O52  1  0.25000000  0.36208400  0.89309900  1
  O  O53  1  0.41503200  0.36838300  0.60543300  1
  O  O54  1  0.41616700  0.36864200  0.39431700  1
  O  O55  1  0.08383300  0.36864200  0.39431700  1
  O  O56  1  0.08496800  0.36838300  0.60543300  1
  O  O57  1  0.75000000  0.43261000  0.31735400  1
  O  O58  1  0.75000000  0.43003100  0.68324400  1
  O  O59  1  0.75000000  0.45469100  0.50019400  1
loop_
_geom_bond_atom_site_label_1
_geom_bond_atom_site_label_2
_geom_bond_distance
_geom_bond_site_symmetry_2
Li0 O51 2.145196 1_555
Li0 O13 2.211884 1_554
Li0 O14 2.211884 1_554
Li0 O9 2.269863 1_555
Li0 O10 2.269863 1_555
Li1 O37 2.145196 1_565
Li1 O15 2.211884 1_555
Li1 O16 2.211884 1_555
Li1 O17 2.269863 1_555
Li1 O20 2.269863 1_555
Li2 O18 1.992567 1_545
Li2 O42 2.048812 1_455
Li2 O27 2.270422 1_545
Li2 O31 2.284954 1_455
Li2 O35 2.516750 1_555
Li2 O23 2.546206 1_445
Li3 O19 1.992567 1_545
Li3 O41 2.048812 1_555
Li3 O27 2.270422 1_545
Li3 O31 2.284954 1_555
Li3 O36 2.516750 1_555
Li3 O24 2.546206 1_545
Li4 O40 1.992567 1_565
Li4 O17 2.048812 1_655
Li4 O32 2.270422 1_565
Li4 O28 2.284954 1_655
Li4 O25 2.516750 1_555
Li4 O33 2.546206 1_665
Li5 O39 1.992567 1_565
Li5 O20 2.048812 1_555
Li5 O32 2.270422 1_565
Li5 O28 2.284954 1_555
Li5 O26 2.516750 1_555
Li5 O34 2.546206 1_565
Li6 O21 2.145196 1_545
Li6 O43 2.211884 1_555
Li6 O44 2.211884 1_555
Li6 O42 2.269863 1_555
Li6 O41 2.269863 1_555
Li7 O8 2.145196 1_555
Li7 O45 2.211884 1_556
Li7 O46 2.211884 1_556
Li7 O50 2.269863 1_555
Li7 O49 2.269863 1_555
Li8 O48 1.992567 1_555
Li8 O9 2.048812 1_655
Li8 O57 2.270422 1_555
Li8 O1 2.284954 1_655
Li8 O4 2.516750 1_555
Li8 O55 2.546206 1_655
Li9 O47 1.992567 1_555
Li9 O10 2.048812 1_555
Li9 O57 2.270422 1_555
Li9 O1 2.284954 1_555
Li9 O3 2.516750 1_555
Li9 O54 2.546206 1_555
Li10 O12 1.992567 1_555
Li10 O49 2.048812 1_555
Li10 O2 2.270422 1_555
Li10 O58 2.284954 1_555
Li10 O53 2.516750 1_555
Li10 O5 2.546206 1_555
Li11 O11 1.992567 1_555
Li11 O50 2.048812 1_455
Li11 O2 2.270422 1_555
Li11 O58 2.284954 1_455
Li11 O56 2.516750 1_555
Li11 O6 2.546206 1_455
O0 Si23 1.641133 1_555
O0 Si22 1.649218 1_555
O1 Si23 1.596974 1_555
O1 V0 2.065574 1_555
O2 Si22 1.578214 1_555
O2 V1 2.052645 1_555
O3 Si8 1.640564 1_555
O3 Si0 1.662806 1_555
O4 Si6 1.640564 1_555
O4 Si0 1.662806 1_555
O5 Si7 1.616957 1_555
O5 Si1 1.672439 1_555
O6 Si9 1.616957 1_555
O6 Si1 1.672439 1_555
O7 Si2 1.670926 1_555
O7 Si3 1.670926 1_555
O8 Si5 1.676692 1_555
O8 Si4 1.676692 1_555
O9 Si3 1.585682 1_455
O9 V0 2.101393 1_555
O10 Si2 1.585682 1_555
O10 V0 2.101393 1_555
O11 Si4 1.592868 1_455
O11 V1 2.049398 1_555
O12 Si5 1.592868 1_555
O12 V1 2.049398 1_555
O13 Si5 1.674467 1_555
O13 Si2 1.676201 1_556
O14 Si4 1.674467 1_455
O14 Si3 1.676201 1_456
O15 Si8 1.674467 1_555
O15 Si7 1.676201 1_555
O16 Si6 1.674467 1_455
O16 Si9 1.676201 1_455
O17 Si9 1.585682 1_455
O17 V1 2.101393 1_555
O18 Si6 1.592868 1_455
O18 V0 2.049398 1_555
O19 Si8 1.592868 1_555
O19 V0 2.049398 1_555
O20 Si7 1.585682 1_555
O20 V1 2.101393 1_555
O21 Si8 1.676692 1_555
O21 Si6 1.676692 1_555
O22 Si9 1.670926 1_555
O22 Si7 1.670926 1_555
O23 Si3 1.616957 1_555
O23 Si10 1.672439 1_555
O24 Si2 1.616957 1_555
O24 Si10 1.672439 1_555
O25 Si4 1.640564 1_555
O25 Si11 1.662806 1_555
O26 Si5 1.640564 1_555
O26 Si11 1.662806 1_555
O27 Si13 1.578214 1_565
O27 V0 2.052645 1_555
O28 Si12 1.596974 1_565
O28 V1 2.065574 1_555
O29 Si12 1.641133 1_565
O29 Si13 1.649218 1_566
O30 Si10 1.641133 1_545
O30 Si11 1.649218 1_544
O31 Si10 1.596974 1_545
O31 V3 2.065574 1_555
O32 Si11 1.578214 1_545
O32 V2 2.052645 1_555
O33 Si20 1.616957 1_555
O33 Si12 1.672439 1_555
O34 Si19 1.616957 1_555
O34 Si12 1.672439 1_555
O35 Si18 1.640564 1_555
O35 Si13 1.662806 1_555
O36 Si21 1.640564 1_555
O36 Si13 1.662806 1_555
O37 Si15 1.676692 1_555
O37 Si17 1.676692 1_555
O38 Si16 1.670926 1_555
O38 Si14 1.670926 1_555
O39 Si17 1.592868 1_555
O39 V2 2.049398 1_555
O40 Si15 1.592868 1_655
O40 V2 2.049398 1_555
O41 Si14 1.585682 1_555
O41 V3 2.101393 1_555
O42 Si16 1.585682 1_655
O42 V3 2.101393 1_555
O43 Si15 1.674467 1_655
O43 Si16 1.676201 1_655
O44 Si17 1.674467 1_555
O44 Si14 1.676201 1_555
O45 Si18 1.674467 1_655
O45 Si20 1.676201 1_654
O46 Si21 1.674467 1_555
O46 Si19 1.676201 1_554
O47 Si21 1.592868 1_555
O47 V3 2.049398 1_555
O48 Si18 1.592868 1_655
O48 V3 2.049398 1_555
O49 Si19 1.585682 1_555
O49 V2 2.101393 1_555
O50 Si20 1.585682 1_655
O50 V2 2.101393 1_555
O51 Si18 1.676692 1_555
O51 Si21 1.676692 1_555
O52 Si19 1.670926 1_555
O52 Si20 1.670926 1_555
O53 Si17 1.640564 1_555
O53 Si22 1.662806 1_555
O54 Si14 1.616957 1_555
O54 Si23 1.672439 1_555
O55 Si16 1.616957 1_555
O55 Si23 1.672439 1_555
O56 Si15 1.640564 1_555
O56 Si22 1.662806 1_555
O57 Si0 1.578214 1_555
O57 V3 2.052645 1_555
O58 Si1 1.596974 1_555
O58 V2 2.065574 1_555
O59 Si1 1.641133 1_555
O59 Si0 1.649218 1_555
