# generated using pymatgen
data_Na4FeO5
_symmetry_space_group_name_H-M   'P 1'
_cell_length_a   5.50585921
_cell_length_b   9.83021812
_cell_length_c   9.74647954
_cell_angle_alpha   113.20036541
_cell_angle_beta   96.91644002
_cell_angle_gamma   95.27824159
_symmetry_Int_Tables_number   1
_chemical_formula_structural   Na4FeO5
_chemical_formula_sum   'Na16 Fe4 O20'
_cell_volume   475.67625044
_cell_formula_units_Z   4
loop_
 _symmetry_equiv_pos_site_id
 _symmetry_equiv_pos_as_xyz
  1  'x, y, z'
loop_
 _atom_site_type_symbol
 _atom_site_label
 _atom_site_symmetry_multiplicity
 _atom_site_fract_x
 _atom_site_fract_y
 _atom_site_fract_z
 _atom_site_occupancy
  Na  Na0  1  0.48795983  0.09302232  0.90072813  1
  Na  Na1  1  -0.00320020  0.19090264  0.80530612  1
  Na  Na2  1  0.24982008  0.54771189  0.94021576  1
  Na  Na3  1  0.72075584  0.64243744  0.84369741  1
  Na  Na4  1  -0.00000000  0.00000000  -0.00000000  1
  Na  Na5  1  -0.00071877  0.39130216  0.59426638  1
  Na  Na6  1  0.76892233  0.06572676  0.45826216  1
  Na  Na7  1  0.27896558  0.15211946  0.35692088  1
  Na  Na8  1  0.50000000  0.50000000  0.50000000  1
  Na  Na9  1  0.72103442  0.84788054  0.64307912  1
  Na  Na10  1  0.23107767  0.93427324  0.54173784  1
  Na  Na11  1  0.00071877  0.60869784  0.40573362  1
  Na  Na12  1  0.27924416  0.35756256  0.15630259  1
  Na  Na13  1  0.75017992  0.45228811  0.05978424  1
  Na  Na14  1  0.00320020  0.80909736  0.19469388  1
  Na  Na15  1  0.51204017  0.90697768  0.09927187  1
  Fe  Fe0  1  0.48859734  0.26050824  0.70953888  1
  Fe  Fe1  1  0.21748622  0.76780203  0.78531950  1
  Fe  Fe2  1  0.78251378  0.23219797  0.21468050  1
  Fe  Fe3  1  0.51140266  0.73949176  0.29046112  1
  O  O0  1  0.38835672  0.31506251  0.88818008  1
  O  O1  1  0.12421549  0.77663594  0.95251791  1
  O  O2  1  0.60120053  0.09497909  0.68316595  1
  O  O3  1  0.77947197  0.39496700  0.80157897  1
  O  O4  1  0.18716154  0.18633880  0.60099563  1
  O  O5  1  0.30915949  0.58373726  0.71789967  1
  O  O6  1  0.53417241  0.84820926  0.84729984  1
  O  O7  1  0.12106626  0.93071451  0.77059317  1
  O  O8  1  0.59446063  0.29549802  0.55560488  1
  O  O9  1  0.94210041  0.64945135  0.65080335  1
  O  O10  1  0.05789959  0.35054865  0.34919665  1
  O  O11  1  0.40553937  0.70450198  0.44439512  1
  O  O12  1  0.87893374  0.06928549  0.22940683  1
  O  O13  1  0.46582759  0.15179074  0.15270016  1
  O  O14  1  0.69084051  0.41626274  0.28210033  1
  O  O15  1  0.81283846  0.81366120  0.39900437  1
  O  O16  1  0.22052803  0.60503300  0.19842103  1
  O  O17  1  0.39879947  0.90502091  0.31683405  1
  O  O18  1  0.87578451  0.22336406  0.04748209  1
  O  O19  1  0.61164328  0.68493749  0.11181992  1
loop_
_geom_bond_atom_site_label_1
_geom_bond_atom_site_label_2
_geom_bond_distance
_geom_bond_site_symmetry_2
Na0 O2 2.287755 1_555
Na0 O6 2.298837 1_545
Na0 O13 2.312346 1_556
Na0 O7 2.330354 1_545
Na0 O0 2.343991 1_555
Na0 O18 2.358853 1_556
Na1 O0 2.260434 1_555
Na1 O2 2.272374 1_455
Na1 O4 2.346651 1_555
Na1 O18 2.437527 1_456
Na1 O3 2.438383 1_455
Na1 O7 2.611583 1_545
Na2 O19 2.347590 1_556
Na2 O0 2.360004 1_555
Na2 O1 2.377082 1_555
Na2 O16 2.382006 1_556
Na2 O5 2.383479 1_555
Na2 O3 2.762249 1_455
Na3 O6 2.341641 1_555
Na3 O5 2.346201 1_555
Na3 O3 2.362380 1_555
Na3 O1 2.364484 1_655
Na3 O9 2.379705 1_555
Na3 O19 2.632226 1_556
Na4 O1 2.248329 1_544
Na4 O18 2.248329 1_455
Na4 O7 2.269388 1_544
Na4 O12 2.269388 1_455
Na4 O6 2.765218 1_444
Na4 O13 2.765218 1_555
Na5 O5 2.248657 1_555
Na5 O8 2.264679 1_455
Na5 O10 2.329255 1_555
Na5 O4 2.367525 1_555
Na5 O9 2.435060 1_455
Na5 O3 2.467446 1_455
Na6 O15 2.355447 1_545
Na6 O17 2.358811 1_545
Na6 O12 2.392981 1_555
Na6 O2 2.404194 1_555
Na6 O8 2.419667 1_555
Na6 O4 2.463808 1_655
Na7 O12 2.296114 1_455
Na7 O8 2.311455 1_555
Na7 O13 2.347145 1_555
Na7 O4 2.391246 1_555
Na7 O10 2.412973 1_555
Na7 O17 2.469287 1_545
Na8 O11 2.363976 1_555
Na8 O8 2.363976 1_555
Na8 O14 2.368791 1_555
Na8 O5 2.368791 1_555
Na8 O10 2.650054 1_555
Na8 O9 2.650054 1_555
Na9 O7 2.296114 1_655
Na9 O11 2.311455 1_555
Na9 O6 2.347145 1_555
Na9 O15 2.391246 1_555
Na9 O9 2.412973 1_555
Na9 O2 2.469287 1_565
Na10 O4 2.355447 1_565
Na10 O2 2.358811 1_565
Na10 O7 2.392981 1_555
Na10 O17 2.404194 1_555
Na10 O11 2.419667 1_555
Na10 O15 2.463808 1_455
Na11 O14 2.248657 1_455
Na11 O11 2.264679 1_555
Na11 O9 2.329255 1_455
Na11 O15 2.367525 1_455
Na11 O10 2.435060 1_555
Na11 O16 2.467446 1_555
Na12 O13 2.341641 1_555
Na12 O14 2.346201 1_555
Na12 O16 2.362380 1_555
Na12 O18 2.364484 1_455
Na12 O10 2.379705 1_555
Na12 O0 2.632226 1_554
Na13 O0 2.347590 1_554
Na13 O19 2.360004 1_555
Na13 O18 2.377082 1_555
Na13 O3 2.382006 1_554
Na13 O14 2.383479 1_555
Na13 O16 2.762249 1_655
Na14 O19 2.260434 1_455
Na14 O17 2.272374 1_555
Na14 O15 2.346651 1_455
Na14 O1 2.437527 1_554
Na14 O16 2.438383 1_555
Na14 O12 2.611583 1_465
Na15 O17 2.287755 1_555
Na15 O13 2.298837 1_565
Na15 O6 2.312346 1_554
Na15 O12 2.330354 1_565
Na15 O19 2.343991 1_555
Na15 O1 2.358853 1_554
Fe0 O2 1.729921 1_555
Fe0 O4 1.775395 1_555
Fe0 O0 1.781550 1_555
Fe0 O8 1.813644 1_555
Fe0 O3 1.856593 1_555
Fe1 O1 1.739282 1_555
Fe1 O6 1.773830 1_555
Fe1 O7 1.785019 1_555
Fe1 O5 1.808755 1_555
Fe1 O9 1.834742 1_455
Fe2 O18 1.739282 1_555
Fe2 O13 1.773830 1_555
Fe2 O12 1.785019 1_555
Fe2 O14 1.808755 1_555
Fe2 O10 1.834742 1_655
Fe3 O17 1.729921 1_555
Fe3 O15 1.775395 1_555
Fe3 O19 1.781550 1_555
Fe3 O11 1.813644 1_555
Fe3 O16 1.856593 1_555
