# generated using pymatgen
data_ZrH6NOF5
_symmetry_space_group_name_H-M   'P 1'
_cell_length_a   7.60824900
_cell_length_b   6.87155200
_cell_length_c   11.45931395
_cell_angle_alpha   66.39236782
_cell_angle_beta   90.00000000
_cell_angle_gamma   90.00000000
_symmetry_Int_Tables_number   1
_chemical_formula_structural   ZrH6NOF5
_chemical_formula_sum   'Zr4 H24 N4 O4 F20'
_cell_volume   548.95950733
_cell_formula_units_Z   4
loop_
 _symmetry_equiv_pos_site_id
 _symmetry_equiv_pos_as_xyz
  1  'x, y, z'
loop_
 _atom_site_type_symbol
 _atom_site_label
 _atom_site_symmetry_multiplicity
 _atom_site_fract_x
 _atom_site_fract_y
 _atom_site_fract_z
 _atom_site_occupancy
  Zr  Zr0  1  0.55813800  0.72135400  0.54372500  1
  Zr  Zr1  1  0.94186200  0.72135400  0.04372500  1
  Zr  Zr2  1  0.44186200  0.27864600  0.45627500  1
  Zr  Zr3  1  0.05813800  0.27864600  0.95627500  1
  H  H0  1  0.45359400  0.46324800  0.80710600  1
  H  H1  1  0.04640600  0.46324800  0.30710600  1
  H  H2  1  0.54640600  0.53675200  0.19289400  1
  H  H3  1  0.95359400  0.53675200  0.69289400  1
  H  H4  1  0.65782600  0.50248400  0.80764400  1
  H  H5  1  0.84217400  0.50248400  0.30764400  1
  H  H6  1  0.34217400  0.49751600  0.19235600  1
  H  H7  1  0.15782600  0.49751600  0.69235600  1
  H  H8  1  0.06587500  0.83378100  0.29517400  1
  H  H9  1  0.43412500  0.83378100  0.79517400  1
  H  H10  1  0.93412500  0.16621900  0.70482600  1
  H  H11  1  0.56587500  0.16621900  0.20482600  1
  H  H12  1  0.93599700  0.88404600  0.39404100  1
  H  H13  1  0.56400300  0.88404600  0.89404100  1
  H  H14  1  0.06400300  0.11595400  0.60595900  1
  H  H15  1  0.43599700  0.11595400  0.10595900  1
  H  H16  1  0.15197700  0.82322400  0.43444200  1
  H  H17  1  0.34802300  0.82322400  0.93444200  1
  H  H18  1  0.84802300  0.17677600  0.56555800  1
  H  H19  1  0.65197700  0.17677600  0.06555800  1
  H  H20  1  0.10184800  0.05705700  0.31844700  1
  H  H21  1  0.39815200  0.05705700  0.81844700  1
  H  H22  1  0.89815200  0.94294300  0.68155300  1
  H  H23  1  0.60184800  0.94294300  0.18155300  1
  N  N0  1  0.06477800  0.90039500  0.36135200  1
  N  N1  1  0.43522200  0.90039500  0.86135200  1
  N  N2  1  0.93522200  0.09960500  0.63864800  1
  N  N3  1  0.56477800  0.09960500  0.13864800  1
  O  O0  1  0.54689800  0.57134600  0.76532700  1
  O  O1  1  0.95310200  0.57134600  0.26532700  1
  O  O2  1  0.45310200  0.42865400  0.23467300  1
  O  O3  1  0.04689800  0.42865400  0.73467300  1
  F  F0  1  0.57110200  0.98866200  0.59669500  1
  F  F1  1  0.92889800  0.98866200  0.09669500  1
  F  F2  1  0.42889800  0.01133800  0.40330500  1
  F  F3  1  0.07110200  0.01133800  0.90330500  1
  F  F4  1  0.29738200  0.69191500  0.60067700  1
  F  F5  1  0.20261800  0.69191500  0.10067700  1
  F  F6  1  0.70261800  0.30808500  0.39932300  1
  F  F7  1  0.79738200  0.30808500  0.89932300  1
  F  F8  1  0.81689700  0.71341600  0.61125600  1
  F  F9  1  0.68310300  0.71341600  0.11125600  1
  F  F10  1  0.18310300  0.28658400  0.38874400  1
  F  F11  1  0.31689700  0.28658400  0.88874400  1
  F  F12  1  0.70823900  0.80791300  0.38366700  1
  F  F13  1  0.79176100  0.80791300  0.88366700  1
  F  F14  1  0.29176100  0.19208700  0.61633300  1
  F  F15  1  0.20823900  0.19208700  0.11633300  1
  F  F16  1  0.59824300  0.39635200  0.58772900  1
  F  F17  1  0.90175700  0.39635200  0.08772900  1
  F  F18  1  0.40175700  0.60364800  0.41227100  1
  F  F19  1  0.09824300  0.60364800  0.91227100  1
loop_
_geom_bond_atom_site_label_1
_geom_bond_atom_site_label_2
_geom_bond_distance
_geom_bond_site_symmetry_2
H0 O0 1.000030 1_555
H1 O1 1.000030 1_455
H2 O2 1.000030 1_555
H3 O3 1.000030 1_655
H4 O0 0.993758 1_555
H5 O1 0.993758 1_555
H6 O2 0.993758 1_555
H7 O3 0.993758 1_555
H8 N0 1.030888 1_555
H9 N1 1.030888 1_555
H10 N2 1.030888 1_555
H11 N3 1.030888 1_555
H12 N0 1.038864 1_655
H13 N1 1.038864 1_555
H14 N2 1.038864 1_455
H15 N3 1.038864 1_555
H16 N0 1.033014 1_555
H17 N1 1.033014 1_555
H18 N2 1.033014 1_555
H19 N3 1.033014 1_555
H20 N0 1.027731 1_545
H21 N1 1.027731 1_545
H22 N2 1.027731 1_565
H23 N3 1.027731 1_565
O0 Zr0 2.328494 1_555
O1 Zr1 2.328494 1_555
O2 Zr2 2.328494 1_555
O3 Zr3 2.328494 1_555
F0 Zr0 2.155249 1_555
F0 Zr2 2.226791 1_565
F1 Zr1 2.155249 1_555
F1 Zr3 2.226791 1_664
F2 Zr2 2.155249 1_555
F2 Zr0 2.226791 1_545
F3 Zr3 2.155249 1_555
F3 Zr1 2.226791 1_446
F4 Zr0 2.072909 1_555
F5 Zr1 2.072909 1_455
F6 Zr2 2.072909 1_555
F7 Zr3 2.072909 1_655
F8 H3 1.587741 1_555
F8 Zr0 2.108036 1_555
F9 H2 1.587741 1_555
F9 Zr1 2.108036 1_555
F10 H1 1.587741 1_555
F10 Zr2 2.108036 1_555
F11 H0 1.587741 1_555
F11 Zr3 2.108036 1_555
F12 Zr0 2.036737 1_555
F13 Zr1 2.036737 1_556
F14 Zr2 2.036737 1_555
F15 Zr3 2.036737 1_554
F16 Zr0 2.105444 1_555
F16 Zr2 2.305385 1_555
F17 Zr1 2.105444 1_555
F17 Zr3 2.305385 1_654
F18 Zr2 2.105444 1_555
F18 Zr0 2.305385 1_555
F19 Zr3 2.105444 1_555
F19 Zr1 2.305385 1_456
