# generated using pymatgen
data_Mo15Se19
_symmetry_space_group_name_H-M   'P 1'
_cell_length_a   14.19257085
_cell_length_b   14.19257085
_cell_length_c   12.13877134
_cell_angle_alpha   69.00886621
_cell_angle_beta   69.00886621
_cell_angle_gamma   42.05089622
_symmetry_Int_Tables_number   1
_chemical_formula_structural   Mo15Se19
_chemical_formula_sum   'Mo30 Se38'
_cell_volume   1512.30117291
_cell_formula_units_Z   2
loop_
 _symmetry_equiv_pos_site_id
 _symmetry_equiv_pos_as_xyz
  1  'x, y, z'
loop_
 _atom_site_type_symbol
 _atom_site_label
 _atom_site_symmetry_multiplicity
 _atom_site_fract_x
 _atom_site_fract_y
 _atom_site_fract_z
 _atom_site_occupancy
  Mo  Mo0  1  0.30117700  0.80376800  0.20626000  1
  Mo  Mo1  1  0.22921800  0.81936600  0.82347900  1
  Mo  Mo2  1  0.70126300  0.58322000  0.65096700  1
  Mo  Mo3  1  0.69882300  0.19623200  0.79374000  1
  Mo  Mo4  1  0.77078200  0.18063400  0.17652100  1
  Mo  Mo5  1  0.29873700  0.41678000  0.34903300  1
  Mo  Mo6  1  0.81936600  0.22921800  0.32347900  1
  Mo  Mo7  1  0.58322000  0.70126300  0.15096700  1
  Mo  Mo8  1  0.80376800  0.30117700  0.70626000  1
  Mo  Mo9  1  0.18063400  0.77078200  0.67652100  1
  Mo  Mo10  1  0.41678000  0.29873700  0.84903300  1
  Mo  Mo11  1  0.19623200  0.69882300  0.29374000  1
  Mo  Mo12  1  0.34442000  0.59695700  0.46119400  1
  Mo  Mo13  1  0.93244600  0.26274600  0.01751000  1
  Mo  Mo14  1  0.14537000  0.87549900  0.43245100  1
  Mo  Mo15  1  0.65558000  0.40304300  0.53880600  1
  Mo  Mo16  1  0.06755400  0.73725400  0.98249000  1
  Mo  Mo17  1  0.85463000  0.12450100  0.56754900  1
  Mo  Mo18  1  0.26274600  0.93244600  0.51751000  1
  Mo  Mo19  1  0.87549900  0.14537000  0.93245100  1
  Mo  Mo20  1  0.59695700  0.34442000  0.96119400  1
  Mo  Mo21  1  0.73725400  0.06755400  0.48249000  1
  Mo  Mo22  1  0.12450100  0.85463000  0.06754900  1
  Mo  Mo23  1  0.40304300  0.65558000  0.03880600  1
  Mo  Mo24  1  0.95853900  0.32294800  0.21691700  1
  Mo  Mo25  1  0.50766200  0.49233800  0.25000000  1
  Mo  Mo26  1  0.67705200  0.04146100  0.28308300  1
  Mo  Mo27  1  0.04146100  0.67705200  0.78308300  1
  Mo  Mo28  1  0.49233800  0.50766200  0.75000000  1
  Mo  Mo29  1  0.32294800  0.95853900  0.71691700  1
  Se  Se0  1  0.50198300  0.15929200  0.46548200  1
  Se  Se1  1  0.51297300  0.32344500  0.19362200  1
  Se  Se2  1  0.60193000  0.94397900  0.27537400  1
  Se  Se3  1  0.49801700  0.84070800  0.53451800  1
  Se  Se4  1  0.48702700  0.67655500  0.80637800  1
  Se  Se5  1  0.39807000  0.05602100  0.72462600  1
  Se  Se6  1  0.32344500  0.51297300  0.69362200  1
  Se  Se7  1  0.94397900  0.60193000  0.77537400  1
  Se  Se8  1  0.15929200  0.50198300  0.96548200  1
  Se  Se9  1  0.67655500  0.48702700  0.30637800  1
  Se  Se10  1  0.05602100  0.39807000  0.22462600  1
  Se  Se11  1  0.84070800  0.49801700  0.03451800  1
  Se  Se12  1  0.13543000  0.14973400  0.59467500  1
  Se  Se13  1  0.66973100  0.41803000  0.05085200  1
  Se  Se14  1  0.63751600  0.83218300  0.09029200  1
  Se  Se15  1  0.86457000  0.85026600  0.40532500  1
  Se  Se16  1  0.33026900  0.58197000  0.94914800  1
  Se  Se17  1  0.36248400  0.16781700  0.90970800  1
  Se  Se18  1  0.41803000  0.66973100  0.55085200  1
  Se  Se19  1  0.83218300  0.63751600  0.59029200  1
  Se  Se20  1  0.14973400  0.13543000  0.09467500  1
  Se  Se21  1  0.58197000  0.33026900  0.44914800  1
  Se  Se22  1  0.16781700  0.36248400  0.40970800  1
  Se  Se23  1  0.85026600  0.86457000  0.90532500  1
  Se  Se24  1  0.86761100  0.97136600  0.08460100  1
  Se  Se25  1  0.97261300  0.02738700  0.75000000  1
  Se  Se26  1  0.02863400  0.13238900  0.41539900  1
  Se  Se27  1  0.13238900  0.02863400  0.91539900  1
  Se  Se28  1  0.02738700  0.97261300  0.25000000  1
  Se  Se29  1  0.97136600  0.86761100  0.58460100  1
  Se  Se30  1  0.43497000  0.82007100  0.99991300  1
  Se  Se31  1  0.56503000  0.17992900  0.00008700  1
  Se  Se32  1  0.82007100  0.43497000  0.49991300  1
  Se  Se33  1  0.17992900  0.56503000  0.50008700  1
  Se  Se34  1  0.12450500  0.62828000  0.19801800  1
  Se  Se35  1  0.87549500  0.37172000  0.80198200  1
  Se  Se36  1  0.62828000  0.12450500  0.69801800  1
  Se  Se37  1  0.37172000  0.87549500  0.30198200  1
loop_
_geom_bond_atom_site_label_1
_geom_bond_atom_site_label_2
_geom_bond_distance
_geom_bond_site_symmetry_2
Mo0 Se37 2.565799 1_555
Mo0 Se28 2.593904 1_555
Mo0 Se30 2.600557 1_554
Mo1 Se4 2.506545 1_555
Mo1 Se16 2.538655 1_555
Mo1 Se27 2.677477 1_565
Mo1 Se25 2.692196 1_465
Mo2 Se19 2.308272 1_555
Mo2 Se32 2.431551 1_555
Mo2 Se4 2.501576 1_555
Mo2 Se35 2.601427 1_555
Mo2 Se3 2.690525 1_555
Mo3 Se36 2.565799 1_555
Mo3 Se25 2.593904 1_555
Mo3 Se31 2.600557 1_556
Mo4 Se1 2.506545 1_555
Mo4 Se13 2.538655 1_555
Mo4 Se24 2.677477 1_545
Mo4 Se28 2.692196 1_645
Mo5 Se22 2.308272 1_555
Mo5 Se33 2.431551 1_555
Mo5 Se1 2.501576 1_555
Mo5 Se34 2.601427 1_555
Mo5 Se0 2.690525 1_555
Mo6 Se9 2.506545 1_555
Mo6 Se21 2.538655 1_555
Mo6 Se26 2.677477 1_655
Mo6 Se28 2.692196 1_645
Mo7 Se14 2.308272 1_555
Mo7 Se30 2.431551 1_554
Mo7 Se9 2.501576 1_555
Mo7 Se37 2.601427 1_555
Mo7 Se11 2.690525 1_555
Mo8 Se35 2.565799 1_555
Mo8 Se25 2.593904 1_555
Mo8 Se32 2.600557 1_555
Mo9 Se6 2.506545 1_555
Mo9 Se18 2.538655 1_555
Mo9 Se29 2.677477 1_455
Mo9 Se25 2.692196 1_465
Mo10 Se17 2.308272 1_555
Mo10 Se31 2.431551 1_556
Mo10 Se6 2.501576 1_555
Mo10 Se36 2.601427 1_555
Mo10 Se8 2.690525 1_555
Mo11 Se34 2.565799 1_555
Mo11 Se28 2.593904 1_555
Mo11 Se33 2.600557 1_555
Mo12 Se33 2.550771 1_555
Mo12 Se18 2.562248 1_555
Mo12 Se21 2.608888 1_555
Mo12 Se6 2.642999 1_555
Mo13 Se20 2.496817 1_655
Mo13 Se13 2.505513 1_555
Mo13 Se35 2.578685 1_554
Mo13 Se11 2.594659 1_555
Mo13 Se27 2.656506 1_654
Mo14 Se29 2.552852 1_455
Mo14 Se28 2.578969 1_555
Mo14 Se26 2.610521 1_565
Mo14 Se37 3.030347 1_555
Mo15 Se32 2.550771 1_555
Mo15 Se21 2.562248 1_555
Mo15 Se18 2.608888 1_555
Mo15 Se9 2.642999 1_555
Mo16 Se23 2.496817 1_455
Mo16 Se16 2.505513 1_555
Mo16 Se34 2.578685 1_556
Mo16 Se8 2.594659 1_555
Mo16 Se24 2.656506 1_456
Mo17 Se26 2.552852 1_655
Mo17 Se25 2.578969 1_555
Mo17 Se29 2.610521 1_545
Mo17 Se36 3.030347 1_555
Mo18 Se12 2.496817 1_565
Mo18 Se18 2.505513 1_555
Mo18 Se37 2.578685 1_555
Mo18 Se3 2.594659 1_555
Mo18 Se26 2.656506 1_565
Mo19 Se24 2.552852 1_546
Mo19 Se25 2.578969 1_555
Mo19 Se27 2.610521 1_655
Mo19 Se35 3.030347 1_555
Mo20 Se31 2.550771 1_556
Mo20 Se13 2.562248 1_556
Mo20 Se16 2.608888 1_555
Mo20 Se1 2.642999 1_556
Mo21 Se15 2.496817 1_545
Mo21 Se21 2.505513 1_555
Mo21 Se36 2.578685 1_555
Mo21 Se0 2.594659 1_555
Mo21 Se29 2.656506 1_545
Mo22 Se27 2.552852 1_564
Mo22 Se28 2.578969 1_555
Mo22 Se24 2.610521 1_455
Mo22 Se34 3.030347 1_555
Mo23 Se30 2.550771 1_554
Mo23 Se16 2.562248 1_554
Mo23 Se13 2.608888 1_555
Mo23 Se4 2.642999 1_554
Mo24 Se10 2.326904 1_655
Mo24 Se20 2.422308 1_655
Mo24 Se11 2.532398 1_555
Mo24 Se26 2.676205 1_655
Mo24 Se9 2.734269 1_555
Mo25 Se13 2.546979 1_555
Mo25 Se21 2.546979 1_555
Mo25 Se1 2.662660 1_555
Mo25 Se9 2.662660 1_555
Mo26 Se2 2.326904 1_545
Mo26 Se15 2.422308 1_545
Mo26 Se0 2.532398 1_555
Mo26 Se24 2.676205 1_545
Mo26 Se1 2.734269 1_555
Mo27 Se7 2.326904 1_455
Mo27 Se23 2.422308 1_455
Mo27 Se8 2.532398 1_555
Mo27 Se29 2.676205 1_455
Mo27 Se6 2.734269 1_555
Mo28 Se16 2.546979 1_555
Mo28 Se18 2.546979 1_555
Mo28 Se6 2.662660 1_555
Mo28 Se4 2.662660 1_555
Mo29 Se5 2.326904 1_565
Mo29 Se12 2.422308 1_565
Mo29 Se3 2.532398 1_555
Mo29 Se27 2.676205 1_565
Mo29 Se4 2.734269 1_555
