# generated using pymatgen
data_Li4Co3P4O15
_symmetry_space_group_name_H-M   'P 1'
_cell_length_a   17.53134061
_cell_length_b   6.43659073
_cell_length_c   10.45728376
_cell_angle_alpha   90.00000000
_cell_angle_beta   90.00000000
_cell_angle_gamma   90.00000000
_symmetry_Int_Tables_number   1
_chemical_formula_structural   Li4Co3P4O15
_chemical_formula_sum   'Li16 Co12 P16 O60'
_cell_volume   1180.02148807
_cell_formula_units_Z   4
loop_
 _symmetry_equiv_pos_site_id
 _symmetry_equiv_pos_as_xyz
  1  'x, y, z'
loop_
 _atom_site_type_symbol
 _atom_site_label
 _atom_site_symmetry_multiplicity
 _atom_site_fract_x
 _atom_site_fract_y
 _atom_site_fract_z
 _atom_site_occupancy
  Li  Li0  1  0.00563032  0.32247312  0.47976050  1
  Li  Li1  1  0.03456680  0.19495008  0.04938783  1
  Li  Li2  1  0.09641785  0.93854198  0.81844442  1
  Li  Li3  1  0.20324466  0.36585667  0.24386539  1
  Li  Li4  1  0.29675534  0.86585667  0.74386539  1
  Li  Li5  1  0.40358215  0.43854198  0.31844442  1
  Li  Li6  1  0.46543320  0.69495008  0.54938783  1
  Li  Li7  1  0.49436968  0.82247312  0.97976050  1
  Li  Li8  1  0.50563032  0.32247312  0.02023950  1
  Li  Li9  1  0.53456580  0.19495008  0.45061217  1
  Li  Li10  1  0.59641785  0.93854198  0.68155558  1
  Li  Li11  1  0.70324466  0.36585667  0.25613461  1
  Li  Li12  1  0.79675534  0.86585667  0.75613461  1
  Li  Li13  1  0.90358215  0.43854198  0.18155558  1
  Li  Li14  1  0.96543420  0.69495008  0.95061217  1
  Li  Li15  1  0.99436968  0.82247312  0.52023950  1
  Co  Co0  1  0.13426892  0.59275409  0.49499978  1
  Co  Co1  1  0.16576115  0.59996703  0.00041733  1
  Co  Co2  1  0.24047117  0.32567188  0.74179199  1
  Co  Co3  1  0.25952883  0.82567188  0.24179199  1
  Co  Co4  1  0.33423885  0.09996703  0.50041733  1
  Co  Co5  1  0.36573108  0.09275409  0.99499978  1
  Co  Co6  1  0.63426892  0.59275409  0.00500022  1
  Co  Co7  1  0.66576115  0.59996703  0.49958267  1
  Co  Co8  1  0.74047117  0.32567188  0.75820801  1
  Co  Co9  1  0.75952883  0.82567188  0.25820801  1
  Co  Co10  1  0.83423885  0.09996703  0.99958267  1
  Co  Co11  1  0.86573108  0.09275409  0.50500022  1
  P  P0  1  0.04939950  0.63371318  0.22551737  1
  P  P1  1  0.06184301  0.45998335  0.75973961  1
  P  P2  1  0.17295907  0.08892995  0.48088947  1
  P  P3  1  0.20532791  0.09748109  0.00411011  1
  P  P4  1  0.29467209  0.59748109  0.50411011  1
  P  P5  1  0.32704093  0.58892995  0.98088947  1
  P  P6  1  0.43815699  0.95998335  0.25973961  1
  P  P7  1  0.45060050  0.13371318  0.72551737  1
  P  P8  1  0.54939950  0.63371318  0.27448263  1
  P  P9  1  0.56184301  0.45998335  0.74026039  1
  P  P10  1  0.67295907  0.08892995  0.01911053  1
  P  P11  1  0.70532791  0.09748109  0.49588989  1
  P  P12  1  0.79467209  0.59748109  0.99588989  1
  P  P13  1  0.82704093  0.58892995  0.51911053  1
  P  P14  1  0.93815699  0.95998335  0.24026039  1
  P  P15  1  0.95060050  0.13371318  0.77448263  1
  O  O0  1  0.00582899  0.49579792  0.13112294  1
  O  O1  1  0.02077518  0.87141186  0.19095903  1
  O  O2  1  0.03127090  0.59768214  0.36739727  1
  O  O3  1  0.04631311  0.55829221  0.62836401  1
  O  O4  1  0.07881346  0.62590303  0.86216595  1
  O  O5  1  0.11875640  0.28112974  0.76051055  1
  O  O6  1  0.12020194  0.90161259  0.50219554  1
  O  O7  1  0.13500137  0.63216882  0.19709531  1
  O  O8  1  0.12419949  0.28419444  0.45577453  1
  O  O9  1  0.15142021  0.91476269  0.98077632  1
  O  O10  1  0.15455672  0.28613653  0.03947153  1
  O  O11  1  0.22895671  0.11134344  0.59819743  1
  O  O12  1  0.23037954  0.06859747  0.36517041  1
  O  O13  1  0.23495084  0.56416301  0.61349653  1
  O  O14  1  0.24170777  0.62216170  0.38366229  1
  O  O15  1  0.25829223  0.12216170  0.88366229  1
  O  O16  1  0.26504916  0.06416301  0.11349653  1
  O  O17  1  0.26962046  0.56859747  0.86517041  1
  O  O18  1  0.27104329  0.61134344  0.09819743  1
  O  O19  1  0.34544328  0.78613653  0.53947153  1
  O  O20  1  0.34857979  0.41476269  0.48077632  1
  O  O21  1  0.37580051  0.78419444  0.95577453  1
  O  O22  1  0.36499863  0.13216882  0.69709531  1
  O  O23  1  0.37979806  0.40161259  0.00219554  1
  O  O24  1  0.38124360  0.78112974  0.26051055  1
  O  O25  1  0.42118654  0.12590303  0.36216595  1
  O  O26  1  0.45368689  0.05829221  0.12836401  1
  O  O27  1  0.46872910  0.09768214  0.86739727  1
  O  O28  1  0.47922482  0.37141186  0.69095903  1
  O  O29  1  0.49417101  0.99579792  0.63112294  1
  O  O30  1  0.50582899  0.49579792  0.36887706  1
  O  O31  1  0.52077518  0.87141186  0.30904097  1
  O  O32  1  0.53127090  0.59768214  0.13260273  1
  O  O33  1  0.54631311  0.55829221  0.87163599  1
  O  O34  1  0.57881346  0.62590303  0.63783405  1
  O  O35  1  0.61875640  0.28112974  0.73948945  1
  O  O36  1  0.62020194  0.90161259  0.99780446  1
  O  O37  1  0.63500137  0.63216882  0.30290469  1
  O  O38  1  0.62419949  0.28419444  0.04422547  1
  O  O39  1  0.65142021  0.91476269  0.51922368  1
  O  O40  1  0.65455672  0.28613653  0.46052847  1
  O  O41  1  0.72895671  0.11134344  0.90180257  1
  O  O42  1  0.73037954  0.06859747  0.13482959  1
  O  O43  1  0.73495084  0.56416301  0.88650347  1
  O  O44  1  0.74170777  0.62216170  0.11633771  1
  O  O45  1  0.75829223  0.12216170  0.61633771  1
  O  O46  1  0.76504916  0.06416301  0.38650347  1
  O  O47  1  0.76962046  0.56859747  0.63482959  1
  O  O48  1  0.77104329  0.61134344  0.40180257  1
  O  O49  1  0.84544328  0.78613653  0.96052847  1
  O  O50  1  0.84857979  0.41476269  0.01922368  1
  O  O51  1  0.87580051  0.78419444  0.54422547  1
  O  O52  1  0.86499863  0.13216882  0.80290469  1
  O  O53  1  0.87979806  0.40161259  0.49780446  1
  O  O54  1  0.88124360  0.78112974  0.23948945  1
  O  O55  1  0.92118654  0.12590303  0.13783405  1
  O  O56  1  0.95368689  0.05829221  0.37163599  1
  O  O57  1  0.96872910  0.09768214  0.63260273  1
  O  O58  1  0.97922482  0.37141186  0.80904097  1
  O  O59  1  0.99417101  0.99579792  0.86887706  1
loop_
_geom_bond_atom_site_label_1
_geom_bond_atom_site_label_2
_geom_bond_distance
_geom_bond_site_symmetry_2
Li0 O8 2.108202 1_555
Li0 O2 2.172696 1_555
Li0 O56 2.235880 1_455
Li0 O57 2.250913 1_455
Li0 O53 2.271905 1_455
Li0 O3 2.286373 1_555
Li1 O0 2.175813 1_555
Li1 O10 2.186391 1_555
Li1 O55 2.236952 1_455
Li1 O59 2.389129 1_444
Li1 O1 2.566501 1_545
Li2 O59 1.904494 1_455
Li2 O9 1.958293 1_555
Li2 O4 2.086566 1_555
Li2 O5 2.320098 1_565
Li3 O7 2.146824 1_555
Li3 O14 2.305091 1_555
Li3 O12 2.344419 1_555
Li3 O10 2.358044 1_555
Li3 O18 2.495976 1_555
Li3 O16 2.608351 1_555
Li3 O8 2.665945 1_555
Li4 O22 2.146824 1_565
Li4 O15 2.305091 1_565
Li4 O17 2.344419 1_555
Li4 O19 2.358044 1_555
Li4 O11 2.495976 1_565
Li4 O13 2.608351 1_555
Li4 O21 2.665945 1_555
Li5 O30 1.904494 1_555
Li5 O20 1.958293 1_555
Li5 O25 2.086566 1_555
Li5 O24 2.320098 1_555
Li6 O29 2.175813 1_555
Li6 O19 2.186391 1_555
Li6 O34 2.236952 1_555
Li6 O30 2.389129 1_555
Li6 O28 2.566501 1_555
Li7 O21 2.108202 1_555
Li7 O27 2.172696 1_565
Li7 O33 2.235880 1_555
Li7 O32 2.250913 1_556
Li7 O36 2.271905 1_555
Li7 O26 2.286373 1_566
Li8 O38 2.108202 1_555
Li8 O32 2.172696 1_555
Li8 O26 2.235880 1_555
Li8 O27 2.250913 1_554
Li8 O23 2.271905 1_555
Li8 O33 2.286373 1_554
Li9 O30 2.175809 1_555
Li9 O40 2.186408 1_555
Li9 O25 2.236936 1_555
Li9 O29 2.389123 1_545
Li9 O31 2.566500 1_545
Li10 O29 1.904494 1_555
Li10 O39 1.958293 1_555
Li10 O34 2.086566 1_555
Li10 O35 2.320098 1_565
Li11 O37 2.146824 1_555
Li11 O44 2.305091 1_555
Li11 O42 2.344419 1_555
Li11 O40 2.358044 1_555
Li11 O48 2.495976 1_555
Li11 O46 2.608351 1_555
Li11 O38 2.665945 1_555
Li12 O52 2.146824 1_565
Li12 O45 2.305091 1_565
Li12 O47 2.344419 1_555
Li12 O49 2.358044 1_555
Li12 O41 2.495976 1_565
Li12 O43 2.608351 1_555
Li12 O51 2.665945 1_555
Li13 O0 1.904494 1_655
Li13 O50 1.958293 1_555
Li13 O55 2.086566 1_555
Li13 O54 2.320098 1_555
Li14 O59 2.175809 1_555
Li14 O49 2.186408 1_555
Li14 O4 2.236936 1_655
Li14 O0 2.389123 1_656
Li14 O58 2.566500 1_555
Li15 O51 2.108202 1_555
Li15 O57 2.172696 1_565
Li15 O3 2.235880 1_655
Li15 O2 2.250913 1_655
Li15 O6 2.271905 1_655
Li15 O56 2.286373 1_565
Co0 O6 2.004646 1_555
Co0 O8 2.035657 1_555
Co0 O3 2.090909 1_555
Co0 O13 2.164465 1_555
Co0 O14 2.222419 1_555
Co0 O2 2.245461 1_555
Co1 O9 2.052054 1_554
Co1 O10 2.070210 1_555
Co1 O4 2.107495 1_554
Co1 O18 2.111313 1_555
Co1 O7 2.136317 1_555
Co1 O17 2.314378 1_554
Co2 O15 2.003617 1_555
Co2 O13 2.041018 1_555
Co2 O11 2.049078 1_555
Co2 O17 2.090611 1_555
Co2 O5 2.161877 1_555
Co2 O22 2.556523 1_555
Co3 O14 2.003617 1_555
Co3 O16 2.041018 1_565
Co3 O18 2.049078 1_555
Co3 O12 2.090611 1_565
Co3 O24 2.161877 1_555
Co3 O7 2.556523 1_555
Co4 O20 2.052054 1_555
Co4 O19 2.070210 1_545
Co4 O25 2.107495 1_555
Co4 O11 2.111313 1_555
Co4 O22 2.136317 1_555
Co4 O12 2.314378 1_555
Co5 O23 2.004646 1_556
Co5 O21 2.035657 1_545
Co5 O26 2.090909 1_556
Co5 O16 2.164465 1_556
Co5 O15 2.222419 1_555
Co5 O27 2.245461 1_555
Co6 O36 2.004646 1_554
Co6 O38 2.035657 1_555
Co6 O33 2.090909 1_554
Co6 O43 2.164465 1_554
Co6 O44 2.222419 1_555
Co6 O32 2.245461 1_555
Co7 O39 2.052054 1_555
Co7 O40 2.070210 1_555
Co7 O34 2.107495 1_555
Co7 O48 2.111313 1_555
Co7 O37 2.136317 1_555
Co7 O47 2.314378 1_555
Co8 O45 2.003617 1_555
Co8 O43 2.041018 1_555
Co8 O41 2.049078 1_555
Co8 O47 2.090611 1_555
Co8 O35 2.161877 1_555
Co8 O52 2.556523 1_555
Co9 O44 2.003617 1_555
Co9 O46 2.041018 1_565
Co9 O48 2.049078 1_555
Co9 O42 2.090611 1_565
Co9 O54 2.161877 1_555
Co9 O37 2.556523 1_555
Co10 O50 2.052054 1_556
Co10 O49 2.070210 1_545
Co10 O55 2.107495 1_556
Co10 O41 2.111313 1_555
Co10 O52 2.136317 1_555
Co10 O42 2.314378 1_556
Co11 O53 2.004646 1_555
Co11 O51 2.035657 1_545
Co11 O56 2.090909 1_555
Co11 O46 2.164465 1_555
Co11 O45 2.222419 1_555
Co11 O57 2.245461 1_555
O0 P0 1.531623 1_555
O1 P14 1.639725 1_455
O1 P0 1.650222 1_555
O2 P0 1.534958 1_555
O3 P1 1.536861 1_555
O4 P1 1.541527 1_555
O5 P1 1.523445 1_555
O6 P2 1.535827 1_565
O7 P0 1.529897 1_555
O8 P2 1.542510 1_555
O9 P3 1.528358 1_566
O10 P3 1.550327 1_555
O11 P2 1.577791 1_555
O12 P2 1.579508 1_555
O13 P4 1.565458 1_555
O14 P4 1.572863 1_555
O15 P3 1.572863 1_556
O16 P3 1.565458 1_555
O17 P5 1.579508 1_555
O18 P5 1.577791 1_554
O19 P4 1.550327 1_555
O20 P4 1.528358 1_555
O21 P5 1.542510 1_555
O22 P7 1.529897 1_555
O23 P5 1.535827 1_554
O24 P6 1.523445 1_555
O25 P6 1.541527 1_545
O26 P6 1.536861 1_545
O27 P7 1.534958 1_555
O28 P9 1.639725 1_555
O28 P7 1.650222 1_555
O29 P7 1.531623 1_565
O30 P8 1.531623 1_555
O31 P6 1.639725 1_555
O31 P8 1.650222 1_555
O32 P8 1.534958 1_555
O33 P9 1.536861 1_555
O34 P9 1.541527 1_555
O35 P9 1.523445 1_555
O36 P10 1.535827 1_566
O37 P8 1.529897 1_555
O38 P10 1.542510 1_555
O39 P11 1.528358 1_565
O40 P11 1.550327 1_555
O41 P10 1.577791 1_556
O42 P10 1.579508 1_555
O43 P12 1.565458 1_555
O44 P12 1.572863 1_554
O45 P11 1.572863 1_555
O46 P11 1.565458 1_555
O47 P13 1.579508 1_555
O48 P13 1.577791 1_555
O49 P12 1.550327 1_555
O50 P12 1.528358 1_554
O51 P13 1.542510 1_555
O52 P15 1.529897 1_555
O53 P13 1.535827 1_555
O54 P14 1.523445 1_555
O55 P14 1.541527 1_545
O56 P14 1.536861 1_545
O57 P15 1.534958 1_555
O58 P1 1.639725 1_655
O58 P15 1.650222 1_555
O59 P15 1.531623 1_565
