# generated using pymatgen
data_Li10Ti11Cr9O40
_symmetry_space_group_name_H-M   'P 1'
_cell_length_a   5.95285025
_cell_length_b   5.95717789
_cell_length_c   24.58700999
_cell_angle_alpha   90.23136797
_cell_angle_beta   97.03606091
_cell_angle_gamma   119.75220941
_symmetry_Int_Tables_number   1
_chemical_formula_structural   Li10Ti11Cr9O40
_chemical_formula_sum   'Li10 Ti11 Cr9 O40'
_cell_volume   749.14399779
_cell_formula_units_Z   1
loop_
 _symmetry_equiv_pos_site_id
 _symmetry_equiv_pos_as_xyz
  1  'x, y, z'
loop_
 _atom_site_type_symbol
 _atom_site_label
 _atom_site_symmetry_multiplicity
 _atom_site_fract_x
 _atom_site_fract_y
 _atom_site_fract_z
 _atom_site_occupancy
  Li  Li0  1  0.84990200  0.67646400  0.02416400  1
  Li  Li1  1  0.94950600  0.72330100  0.17495700  1
  Li  Li2  1  0.45049400  0.47669900  0.42504300  1
  Li  Li3  1  0.24997300  0.87636100  0.62546300  1
  Li  Li4  1  0.65148100  0.07724200  0.22548000  1
  Li  Li5  1  0.74851900  0.12275900  0.37452000  1
  Li  Li6  1  0.55009800  0.52353600  0.57583600  1
  Li  Li7  1  0.35131800  0.92372300  0.77553000  1
  Li  Li8  1  0.04868200  0.27627700  0.82447000  1
  Li  Li9  1  0.15002700  0.32363900  0.97453700  1
  Ti  Ti0  1  0.20000000  0.60000000  0.30000000  1
  Ti  Ti1  1  0.49263700  0.99838600  0.99928800  1
  Ti  Ti2  1  0.40250500  0.20519000  0.10134200  1
  Ti  Ti3  1  0.90254700  0.20248700  0.10060400  1
  Ti  Ti4  1  0.70000000  0.60000000  0.30000000  1
  Ti  Ti5  1  0.99749500  0.99481000  0.49865800  1
  Ti  Ti6  1  0.49745300  0.99751300  0.49939600  1
  Ti  Ti7  1  0.60192500  0.80180500  0.89994300  1
  Ti  Ti8  1  0.79807500  0.39819500  0.70005700  1
  Ti  Ti9  1  0.90736300  0.20161400  0.60071200  1
  Ti  Ti10  1  0.70000000  0.60000000  0.80000000  1
  Cr  Cr0  1  0.39976500  0.69990800  0.09950300  1
  Cr  Cr1  1  0.30029600  0.40087600  0.20039100  1
  Cr  Cr2  1  0.09970400  0.79912400  0.39960900  1
  Cr  Cr3  1  0.20000000  0.10000000  0.30000000  1
  Cr  Cr4  1  0.00023500  0.50009200  0.50049700  1
  Cr  Cr5  1  0.30068800  0.40081500  0.70021400  1
  Cr  Cr6  1  0.09931200  0.79918500  0.89978600  1
  Cr  Cr7  1  0.79930800  0.89942500  0.70004200  1
  Cr  Cr8  1  0.60069200  0.30057500  0.89995800  1
  O  O0  1  0.23684000  0.87392000  0.05154400  1
  O  O1  1  0.68889700  0.87471000  0.05189400  1
  O  O2  1  0.00057400  0.74477000  0.25730000  1
  O  O3  1  0.20174700  0.34614000  0.05730300  1
  O  O4  1  0.10961400  0.52817800  0.14631300  1
  O  O5  1  0.36429500  0.92594700  0.34681100  1
  O  O6  1  0.11323600  0.07859400  0.14652200  1
  O  O7  1  0.56535100  0.52828700  0.14663200  1
  O  O8  1  0.48714400  0.72145700  0.25391100  1
  O  O9  1  0.68461200  0.31773600  0.05256800  1
  O  O10  1  0.03570500  0.27405300  0.25318900  1
  O  O11  1  0.39942600  0.45523000  0.34270000  1
  O  O12  1  0.29038600  0.67182200  0.45368700  1
  O  O13  1  0.49142900  0.27352200  0.25339100  1
  O  O14  1  0.19825300  0.85386000  0.54269700  1
  O  O15  1  0.59798100  0.05327100  0.14238200  1
  O  O16  1  0.90857100  0.92647800  0.34660900  1
  O  O17  1  0.16316000  0.32608000  0.54845600  1
  O  O18  1  0.71538800  0.88226400  0.54743200  1
  O  O19  1  0.91285600  0.47854300  0.34608900  1
  O  O20  1  0.28676400  0.12140600  0.45347800  1
  O  O21  1  0.07935900  0.51734000  0.65161100  1
  O  O22  1  0.83464900  0.67171300  0.45336800  1
  O  O23  1  0.08204400  0.06769800  0.65092400  1
  O  O24  1  0.71110300  0.32529000  0.54810600  1
  O  O25  1  0.80201900  0.14672900  0.45761800  1
  O  O26  1  0.51825200  0.73164000  0.74896200  1
  O  O27  1  0.60837600  0.54819800  0.65772600  1
  O  O28  1  0.40862400  0.94811100  0.85790500  1
  O  O29  1  0.96480100  0.72705000  0.74839900  1
  O  O30  1  0.52084700  0.28252200  0.74819700  1
  O  O31  1  0.32064100  0.68266000  0.94838900  1
  O  O32  1  0.43519900  0.47295000  0.85160100  1
  O  O33  1  0.87915300  0.91747800  0.85180300  1
  O  O34  1  0.63538400  0.07295300  0.65156400  1
  O  O35  1  0.88174800  0.46836000  0.85103800  1
  O  O36  1  0.99137600  0.25188900  0.74209500  1
  O  O37  1  0.79162400  0.65180200  0.94227400  1
  O  O38  1  0.31795600  0.13230200  0.94907600  1
  O  O39  1  0.76461600  0.12704700  0.94843600  1
loop_
_geom_bond_atom_site_label_1
_geom_bond_atom_site_label_2
_geom_bond_distance
_geom_bond_site_symmetry_2
Li0 O37 1.992923 1_554
Li0 O1 2.013749 1_555
Li0 O0 2.016685 1_655
Li0 O9 2.028826 1_555
Li1 O4 2.003227 1_655
Li1 O2 2.004043 1_655
Li1 O7 2.007665 1_555
Li1 O6 2.012450 1_665
Li2 O12 2.003227 1_555
Li2 O11 2.004043 1_555
Li2 O22 2.007665 1_555
Li2 O20 2.012450 1_555
Li3 O23 1.992197 1_565
Li3 O34 2.003403 1_565
Li3 O21 2.008549 1_555
Li3 O14 2.014249 1_555
Li4 O13 2.001323 1_555
Li4 O10 2.005104 1_655
Li4 O8 2.014811 1_545
Li4 O15 2.022202 1_555
Li5 O16 2.001328 1_545
Li5 O5 2.005105 1_545
Li5 O19 2.014806 1_555
Li5 O25 2.022202 1_555
Li6 O27 1.992923 1_555
Li6 O24 2.013749 1_555
Li6 O17 2.016685 1_555
Li6 O18 2.028826 1_555
Li7 O26 2.001284 1_555
Li7 O28 2.004672 1_555
Li7 O29 2.013417 1_455
Li7 O30 2.018802 1_565
Li8 O35 2.001284 1_455
Li8 O36 2.004672 1_455
Li8 O32 2.013417 1_555
Li8 O33 2.018802 1_445
Li9 O38 1.992197 1_555
Li9 O39 2.003403 1_455
Li9 O31 2.008549 1_555
Li9 O3 2.014249 1_556
Cr0 O7 2.022264 1_555
Cr0 O4 2.024173 1_555
Cr0 O3 2.030902 1_555
Cr0 O0 2.033028 1_555
Cr0 O1 2.035080 1_555
Cr0 O15 2.036437 1_565
Cr1 O10 2.016087 1_555
Cr1 O13 2.017354 1_555
Cr1 O4 2.030813 1_555
Cr1 O8 2.031945 1_555
Cr1 O7 2.035476 1_555
Cr1 O6 2.043647 1_555
Cr2 O5 2.016087 1_555
Cr2 O16 2.017354 1_455
Cr2 O12 2.030813 1_555
Cr2 O19 2.031945 1_455
Cr2 O22 2.035476 1_455
Cr2 O20 2.043647 1_565
Cr3 O5 2.024013 1_545
Cr3 O10 2.024013 1_555
Cr3 O13 2.026874 1_555
Cr3 O16 2.026874 1_445
Cr3 O11 2.042807 1_555
Cr3 O2 2.042807 1_545
Cr4 O22 2.022264 1_455
Cr4 O12 2.024173 1_555
Cr4 O14 2.030902 1_555
Cr4 O17 2.033028 1_555
Cr4 O24 2.035080 1_455
Cr4 O25 2.036437 1_455
Cr5 O26 2.016250 1_555
Cr5 O36 2.021967 1_455
Cr5 O27 2.024126 1_555
Cr5 O23 2.032581 1_555
Cr5 O30 2.037295 1_555
Cr5 O21 2.043158 1_555
Cr6 O35 2.016250 1_455
Cr6 O28 2.021967 1_555
Cr6 O37 2.024126 1_455
Cr6 O38 2.032581 1_565
Cr6 O33 2.037295 1_455
Cr6 O31 2.043158 1_555
Cr7 O27 2.021031 1_555
Cr7 O26 2.021868 1_555
Cr7 O36 2.023658 1_565
Cr7 O23 2.032072 1_665
Cr7 O29 2.040966 1_555
Cr7 O34 2.041494 1_565
Cr8 O37 2.021031 1_555
Cr8 O35 2.021868 1_555
Cr8 O28 2.023658 1_545
Cr8 O38 2.032072 1_555
Cr8 O32 2.040966 1_555
Cr8 O39 2.041494 1_555
O0 Ti1 1.971199 1_554
O0 Ti2 2.029585 1_565
O1 Ti3 2.001947 1_565
O1 Ti1 2.018043 1_554
O2 Ti0 1.993348 1_555
O2 Ti4 1.995863 1_455
O3 Ti2 1.997987 1_555
O3 Ti3 1.999308 1_455
O4 Ti3 1.953506 1_455
O5 Ti0 1.967959 1_555
O6 Ti2 1.988569 1_555
O6 Ti3 1.992713 1_455
O7 Ti2 1.936684 1_555
O8 Ti4 1.994480 1_555
O8 Ti0 1.995770 1_555
O9 Ti3 2.016069 1_555
O9 Ti2 2.022420 1_555
O9 Ti1 2.024012 1_544
O10 Ti0 1.967959 1_555
O11 Ti0 1.993348 1_555
O11 Ti4 1.995863 1_555
O12 Ti6 1.953506 1_555
O13 Ti4 1.968292 1_555
O14 Ti5 1.997987 1_455
O14 Ti6 1.999308 1_555
O15 Ti2 1.989021 1_555
O15 Ti3 1.999120 1_555
O16 Ti4 1.968292 1_555
O17 Ti9 1.971199 1_455
O17 Ti5 2.029585 1_445
O18 Ti6 2.016069 1_555
O18 Ti5 2.022420 1_555
O18 Ti9 2.024012 1_565
O19 Ti4 1.994480 1_555
O19 Ti0 1.995770 1_655
O20 Ti5 1.988569 1_445
O20 Ti6 1.992713 1_545
O21 Ti9 1.976812 1_455
O21 Ti8 2.010535 1_455
O22 Ti5 1.936684 1_555
O23 Ti9 1.938720 1_455
O24 Ti6 2.001947 1_545
O24 Ti9 2.018043 1_555
O25 Ti5 1.989021 1_545
O25 Ti6 1.999120 1_545
O26 Ti10 1.969173 1_555
O27 Ti8 1.969280 1_555
O28 Ti7 1.965533 1_555
O29 Ti10 1.995209 1_555
O29 Ti8 1.999519 1_555
O30 Ti8 1.988902 1_555
O30 Ti10 1.995606 1_555
O31 Ti1 1.976812 1_555
O31 Ti7 2.010535 1_555
O32 Ti10 1.995209 1_555
O32 Ti7 1.999519 1_555
O33 Ti7 1.988902 1_555
O33 Ti10 1.995606 1_555
O34 Ti8 1.987360 1_555
O34 Ti9 2.010987 1_555
O35 Ti10 1.969173 1_555
O36 Ti8 1.965533 1_555
O37 Ti7 1.969280 1_555
O38 Ti1 1.938720 1_545
O39 Ti7 1.987360 1_545
O39 Ti1 2.010987 1_545
