# generated using pymatgen
data_Li2Fe(CuO3)2
_symmetry_space_group_name_H-M   'P 1'
_cell_length_a   6.61089869
_cell_length_b   6.61089869
_cell_length_c   5.96854575
_cell_angle_alpha   75.66671681
_cell_angle_beta   75.66671681
_cell_angle_gamma   25.92134683
_symmetry_Int_Tables_number   1
_chemical_formula_structural   Li2Fe(CuO3)2
_chemical_formula_sum   'Li2 Fe1 Cu2 O6'
_cell_volume   110.28621446
_cell_formula_units_Z   1
loop_
 _symmetry_equiv_pos_site_id
 _symmetry_equiv_pos_as_xyz
  1  'x, y, z'
loop_
 _atom_site_type_symbol
 _atom_site_label
 _atom_site_symmetry_multiplicity
 _atom_site_fract_x
 _atom_site_fract_y
 _atom_site_fract_z
 _atom_site_occupancy
  Li  Li0  1  0.83573600  0.83573600  0.81936600  1
  Li  Li1  1  0.16426400  0.16426400  0.18063400  1
  Fe  Fe0  1  0.50000000  0.50000000  0.00000000  1
  Cu  Cu0  1  0.83598800  0.83598800  0.33749000  1
  Cu  Cu1  1  0.16401200  0.16401200  0.66251000  1
  O  O0  1  0.66405000  0.66405000  0.90021800  1
  O  O1  1  0.99498000  0.99498000  0.22140500  1
  O  O2  1  0.32165700  0.32165700  0.57263700  1
  O  O3  1  0.00502000  0.00502000  0.77859500  1
  O  O4  1  0.33595000  0.33595000  0.09978200  1
  O  O5  1  0.67834300  0.67834300  0.42736300  1
loop_
_geom_bond_atom_site_label_1
_geom_bond_atom_site_label_2
_geom_bond_distance
_geom_bond_site_symmetry_2
Li0 O2 2.129705 1_655
Li0 O2 2.129705 1_565
Li0 O3 2.132429 1_665
Li0 O0 2.141071 1_555
Li0 O4 2.236507 1_566
Li0 O4 2.236507 1_656
Li1 O5 2.129705 1_545
Li1 O5 2.129705 1_455
Li1 O1 2.132429 1_445
Li1 O4 2.141071 1_555
Li1 O0 2.236507 1_454
Li1 O0 2.236507 1_544
Fe0 O3 1.976221 1_654
Fe0 O3 1.976221 1_564
Fe0 O1 1.976221 1_545
Fe0 O1 1.976221 1_455
Fe0 O4 2.045276 1_555
Fe0 O0 2.045276 1_554
Cu0 O5 1.964721 1_555
Cu0 O1 1.988892 1_555
Cu0 O2 2.017577 1_565
Cu0 O2 2.017577 1_655
Cu0 O4 2.052239 1_655
Cu0 O4 2.052239 1_565
Cu1 O2 1.964721 1_555
Cu1 O3 1.988892 1_555
Cu1 O5 2.017577 1_455
Cu1 O5 2.017577 1_545
Cu1 O0 2.052239 1_455
Cu1 O0 2.052239 1_545
