# generated using pymatgen
data_Li3Cr2(CoO4)2
_symmetry_space_group_name_H-M   'P 1'
_cell_length_a   5.88879520
_cell_length_b   5.92540100
_cell_length_c   5.94562415
_cell_angle_alpha   59.41779771
_cell_angle_beta   60.03958705
_cell_angle_gamma   88.86210629
_symmetry_Int_Tables_number   1
_chemical_formula_structural   Li3Cr2(CoO4)2
_chemical_formula_sum   'Li3 Cr2 Co2 O8'
_cell_volume   146.91054571
_cell_formula_units_Z   1
loop_
 _symmetry_equiv_pos_site_id
 _symmetry_equiv_pos_as_xyz
  1  'x, y, z'
loop_
 _atom_site_type_symbol
 _atom_site_label
 _atom_site_symmetry_multiplicity
 _atom_site_fract_x
 _atom_site_fract_y
 _atom_site_fract_z
 _atom_site_occupancy
  Li  Li0  1  0.00000300  0.49998000  0.99990300  1
  Li  Li1  1  0.50003400  0.50003000  0.49997200  1
  Li  Li2  1  0.50006200  0.00012200  0.49978700  1
  Cr  Cr0  1  0.00010700  0.99980100  0.99988600  1
  Cr  Cr1  1  0.99984000  0.00005000  0.49999000  1
  Co  Co0  1  0.99992900  0.49997700  0.50026800  1
  Co  Co1  1  0.50002000  0.00012100  0.00015400  1
  O  O0  1  0.23568700  0.21386000  0.01675800  1
  O  O1  1  0.24256800  0.75541000  0.48724800  1
  O  O2  1  0.21362800  0.23290300  0.53613700  1
  O  O3  1  0.77026900  0.23102200  0.98753600  1
  O  O4  1  0.22997600  0.76875300  0.01260300  1
  O  O5  1  0.78631400  0.76700100  0.46382100  1
  O  O6  1  0.75721700  0.24482200  0.51281400  1
  O  O7  1  0.76434600  0.78614800  0.98312400  1
loop_
_geom_bond_atom_site_label_1
_geom_bond_atom_site_label_2
_geom_bond_distance
_geom_bond_site_symmetry_2
Li0 O1 2.159790 1_555
Li0 O6 2.160862 1_456
Li0 O3 2.163257 1_455
Li0 O0 2.164065 1_556
Li0 O7 2.164189 1_455
Li0 O4 2.164771 1_556
Li1 O6 2.119755 1_555
Li1 O1 2.121625 1_555
Li1 O0 2.182987 1_556
Li1 O7 2.183200 1_554
Li1 O5 2.188316 1_555
Li1 O2 2.189443 1_555
Li2 O2 2.154341 1_555
Li2 O5 2.154851 1_545
Li2 O3 2.164655 1_554
Li2 O4 2.166846 1_546
Li2 O1 2.172003 1_545
Li2 O6 2.172597 1_555
Cr0 O4 1.906747 1_556
Cr0 O3 1.907256 1_465
Cr0 O2 1.955069 1_565
Cr0 O5 1.955800 1_456
Cr0 O7 1.968892 1_455
Cr0 O0 1.970221 1_566
Cr1 O1 2.017786 1_645
Cr1 O6 2.017958 1_555
Cr1 O7 2.041411 1_545
Cr1 O0 2.041872 1_655
Cr1 O5 2.043392 1_545
Cr1 O2 2.043484 1_655
Co0 O5 1.994273 1_555
Co0 O2 1.994753 1_655
Co0 O1 2.048076 1_655
Co0 O6 2.049102 1_555
Co0 O3 2.058204 1_555
Co0 O4 2.059678 1_655
Co1 O0 1.982975 1_555
Co1 O7 1.983803 1_544
Co1 O1 2.053569 1_545
Co1 O6 2.054496 1_554
Co1 O3 2.067128 1_554
Co1 O4 2.068718 1_545
