# generated using pymatgen
data_Li3SbS3
_symmetry_space_group_name_H-M   'P 1'
_cell_length_a   7.69386646
_cell_length_b   7.69386646
_cell_length_c   7.69386754
_cell_angle_alpha   55.26599640
_cell_angle_beta   55.26599640
_cell_angle_gamma   55.26599477
_symmetry_Int_Tables_number   1
_chemical_formula_structural   Li3SbS3
_chemical_formula_sum   'Li6 Sb2 S6'
_cell_volume   286.61375147
_cell_formula_units_Z   2
loop_
 _symmetry_equiv_pos_site_id
 _symmetry_equiv_pos_as_xyz
  1  'x, y, z'
loop_
 _atom_site_type_symbol
 _atom_site_label
 _atom_site_symmetry_multiplicity
 _atom_site_fract_x
 _atom_site_fract_y
 _atom_site_fract_z
 _atom_site_occupancy
  Li  Li0  1  0.36615100  0.09196700  0.68691300  1
  Li  Li1  1  0.90803300  0.31308700  0.63384900  1
  Li  Li2  1  0.68691300  0.36615100  0.09196700  1
  Li  Li3  1  0.31308700  0.63384900  0.90803300  1
  Li  Li4  1  0.09196700  0.68691300  0.36615100  1
  Li  Li5  1  0.63384900  0.90803300  0.31308700  1
  Sb  Sb0  1  0.18154000  0.18154000  0.18154000  1
  Sb  Sb1  1  0.81846000  0.81846000  0.81846000  1
  S  S0  1  0.76899300  0.03594700  0.43350500  1
  S  S1  1  0.56649500  0.23100700  0.96405300  1
  S  S2  1  0.03594700  0.43350500  0.76899300  1
  S  S3  1  0.96405300  0.56649500  0.23100700  1
  S  S4  1  0.43350500  0.76899300  0.03594700  1
  S  S5  1  0.23100700  0.96405300  0.56649500  1
loop_
_geom_bond_atom_site_label_1
_geom_bond_atom_site_label_2
_geom_bond_distance
_geom_bond_site_symmetry_2
Li0 S0 2.478435 1_555
Li0 S4 2.483763 1_546
Li0 S5 2.492175 1_545
Li0 S2 2.492701 1_555
Li1 S3 2.478436 1_555
Li1 S5 2.483763 1_645
Li1 S2 2.492175 1_655
Li1 S1 2.492701 1_555
Li2 S4 2.478435 1_555
Li2 S2 2.483763 1_654
Li2 S1 2.492175 1_554
Li2 S0 2.492701 1_555
Li3 S1 2.478435 1_555
Li3 S3 2.483763 1_456
Li3 S4 2.492175 1_556
Li3 S5 2.492701 1_555
Li4 S2 2.478436 1_555
Li4 S0 2.483763 1_465
Li4 S3 2.492175 1_455
Li4 S4 2.492701 1_555
Li5 S5 2.478435 1_555
Li5 S1 2.483763 1_564
Li5 S0 2.492175 1_565
Li5 S3 2.492701 1_555
S0 Sb1 2.574551 1_545
S1 Sb0 2.574551 1_556
S2 Sb1 2.574551 1_455
S3 Sb0 2.574551 1_655
S4 Sb1 2.574551 1_554
S5 Sb0 2.574551 1_565
