# generated using pymatgen
data_Na6Bi2P(CO4)4
_symmetry_space_group_name_H-M   'P 1'
_cell_length_a   10.34045945
_cell_length_b   10.34045945
_cell_length_c   10.34045945
_cell_angle_alpha   60.00000000
_cell_angle_beta   60.00000000
_cell_angle_gamma   60.00000000
_symmetry_Int_Tables_number   1
_chemical_formula_structural   Na6Bi2P(CO4)4
_chemical_formula_sum   'Na12 Bi4 P2 C8 O32'
_cell_volume   781.81592097
_cell_formula_units_Z   2
loop_
 _symmetry_equiv_pos_site_id
 _symmetry_equiv_pos_as_xyz
  1  'x, y, z'
loop_
 _atom_site_type_symbol
 _atom_site_label
 _atom_site_symmetry_multiplicity
 _atom_site_fract_x
 _atom_site_fract_y
 _atom_site_fract_z
 _atom_site_occupancy
  Na  Na0  1  0.05480100  0.44519900  0.44519900  1
  Na  Na1  1  0.05480100  0.05480100  0.44519900  1
  Na  Na2  1  0.44519900  0.05480100  0.44519900  1
  Na  Na3  1  0.05480100  0.44519900  0.05480100  1
  Na  Na4  1  0.80480100  0.19519900  0.19519900  1
  Na  Na5  1  0.80480100  0.80480100  0.19519900  1
  Na  Na6  1  0.44519900  0.44519900  0.05480100  1
  Na  Na7  1  0.44519900  0.05480100  0.05480100  1
  Na  Na8  1  0.80480100  0.19519900  0.80480100  1
  Na  Na9  1  0.19519900  0.80480100  0.19519900  1
  Na  Na10  1  0.19519900  0.80480100  0.80480100  1
  Na  Na11  1  0.19519900  0.19519900  0.80480100  1
  Bi  Bi0  1  0.12500000  0.62500000  0.62500000  1
  Bi  Bi1  1  0.62500000  0.62500000  0.62500000  1
  Bi  Bi2  1  0.62500000  0.12500000  0.62500000  1
  Bi  Bi3  1  0.62500000  0.62500000  0.12500000  1
  P  P0  1  0.00000000  0.00000000  0.00000000  1
  P  P1  1  0.25000000  0.25000000  0.25000000  1
  C  C0  1  0.85236700  0.85236700  0.44289800  1
  C  C1  1  0.85236700  0.85236700  0.85236700  1
  C  C2  1  0.85236700  0.44289800  0.85236700  1
  C  C3  1  0.44289800  0.85236700  0.85236700  1
  C  C4  1  0.80710200  0.39763300  0.39763300  1
  C  C5  1  0.39763300  0.39763300  0.39763300  1
  C  C6  1  0.39763300  0.80710200  0.39763300  1
  C  C7  1  0.39763300  0.39763300  0.80710200  1
  O  O0  1  0.06163800  0.06163800  0.81508500  1
  O  O1  1  0.06163800  0.06163800  0.06163800  1
  O  O2  1  0.06163800  0.81508500  0.06163800  1
  O  O3  1  0.81508500  0.06163800  0.06163800  1
  O  O4  1  0.98132300  0.72918900  0.44413600  1
  O  O5  1  0.84535100  0.98132300  0.44413600  1
  O  O6  1  0.98132300  0.84535100  0.72918900  1
  O  O7  1  0.72918900  0.84535100  0.44413600  1
  O  O8  1  0.98132300  0.44413600  0.84535100  1
  O  O9  1  0.84535100  0.44413600  0.72918900  1
  O  O10  1  0.72918900  0.98132300  0.84535100  1
  O  O11  1  0.84535100  0.72918900  0.98132300  1
  O  O12  1  0.44413600  0.98132300  0.72918900  1
  O  O13  1  0.72918900  0.44413600  0.98132300  1
  O  O14  1  0.44413600  0.72918900  0.84535100  1
  O  O15  1  0.80586400  0.40464900  0.26867700  1
  O  O16  1  0.44413600  0.84535100  0.98132300  1
  O  O17  1  0.80586400  0.52081100  0.40464900  1
  O  O18  1  0.52081100  0.80586400  0.26867700  1
  O  O19  1  0.80586400  0.26867700  0.52081100  1
  O  O20  1  0.40464900  0.52081100  0.26867700  1
  O  O21  1  0.52081100  0.26867700  0.40464900  1
  O  O22  1  0.40464900  0.80586400  0.52081100  1
  O  O23  1  0.26867700  0.80586400  0.40464900  1
  O  O24  1  0.52081100  0.40464900  0.80586400  1
  O  O25  1  0.26867700  0.40464900  0.52081100  1
  O  O26  1  0.40464900  0.26867700  0.80586400  1
  O  O27  1  0.26867700  0.52081100  0.80586400  1
  O  O28  1  0.43491500  0.18836200  0.18836200  1
  O  O29  1  0.18836200  0.43491500  0.18836200  1
  O  O30  1  0.18836200  0.18836200  0.18836200  1
  O  O31  1  0.18836200  0.18836200  0.43491500  1
loop_
_geom_bond_atom_site_label_1
_geom_bond_atom_site_label_2
_geom_bond_distance
_geom_bond_site_symmetry_2
Na0 O29 2.332316 1_555
Na0 O31 2.332316 1_555
Na0 O17 2.480349 1_455
Na0 O25 2.480359 1_555
Na0 O4 2.635492 1_455
Na0 O9 2.635495 1_455
Na1 O30 2.332319 1_555
Na1 O31 2.332325 1_555
Na1 O23 2.480352 1_545
Na1 O19 2.480354 1_455
Na1 O6 2.635497 1_445
Na1 O5 2.635502 1_445
Na2 O28 2.332316 1_555
Na2 O31 2.332316 1_555
Na2 O22 2.480349 1_545
Na2 O21 2.480359 1_555
Na2 O12 2.635492 1_545
Na2 O7 2.635495 1_545
Na3 O30 2.332319 1_555
Na3 O29 2.332325 1_555
Na3 O15 2.480352 1_455
Na3 O27 2.480354 1_554
Na3 O11 2.635497 1_454
Na3 O8 2.635502 1_454
Na4 O1 2.332319 1_655
Na4 O3 2.332325 1_555
Na4 O5 2.480352 1_545
Na4 O13 2.480354 1_554
Na4 O21 2.635497 1_555
Na4 O15 2.635502 1_555
Na5 O3 2.332316 1_565
Na5 O2 2.332316 1_655
Na5 O7 2.480349 1_555
Na5 O11 2.480359 1_554
Na5 O18 2.635492 1_555
Na5 O17 2.635495 1_555
Na6 O29 2.332316 1_555
Na6 O28 2.332316 1_555
Na6 O24 2.480349 1_554
Na6 O20 2.480359 1_555
Na6 O13 2.635492 1_554
Na6 O14 2.635495 1_554
Na7 O30 2.332319 1_555
Na7 O28 2.332325 1_555
Na7 O26 2.480352 1_554
Na7 O18 2.480354 1_545
Na7 O10 2.635497 1_544
Na7 O16 2.635502 1_544
Na8 O0 2.332316 1_655
Na8 O3 2.332316 1_556
Na8 O9 2.480349 1_555
Na8 O10 2.480359 1_545
Na8 O19 2.635492 1_555
Na8 O24 2.635495 1_555
Na9 O1 2.332319 1_565
Na9 O2 2.332325 1_555
Na9 O16 2.480352 1_554
Na9 O4 2.480354 1_455
Na9 O20 2.635497 1_555
Na9 O23 2.635502 1_555
Na10 O0 2.332316 1_565
Na10 O2 2.332316 1_556
Na10 O14 2.480349 1_555
Na10 O6 2.480359 1_455
Na10 O27 2.635492 1_555
Na10 O22 2.635495 1_555
Na11 O1 2.332319 1_556
Na11 O0 2.332325 1_555
Na11 O8 2.480352 1_455
Na11 O12 2.480354 1_545
Na11 O25 2.635497 1_555
Na11 O26 2.635502 1_555
Bi0 O6 2.455336 1_455
Bi0 O25 2.455336 1_555
Bi0 O23 2.455342 1_555
Bi0 O8 2.455342 1_455
Bi0 O27 2.455344 1_555
Bi0 O4 2.455344 1_455
Bi1 O14 2.455336 1_555
Bi1 O9 2.455336 1_555
Bi1 O7 2.455336 1_555
Bi1 O17 2.455336 1_555
Bi1 O24 2.455336 1_555
Bi1 O22 2.455336 1_555
Bi2 O10 2.455336 1_545
Bi2 O21 2.455336 1_555
Bi2 O5 2.455342 1_545
Bi2 O26 2.455342 1_555
Bi2 O19 2.455344 1_555
Bi2 O12 2.455344 1_545
Bi3 O11 2.455336 1_554
Bi3 O20 2.455336 1_555
Bi3 O15 2.455342 1_555
Bi3 O16 2.455342 1_554
Bi3 O18 2.455344 1_555
Bi3 O13 2.455344 1_554
C0 O5 1.304973 1_555
C0 O4 1.304973 1_555
C0 O7 1.304973 1_555
C1 O6 1.304973 1_555
C1 O10 1.304973 1_555
C1 O11 1.304973 1_555
C2 O8 1.304973 1_555
C2 O13 1.304973 1_555
C2 O9 1.304973 1_555
C3 O16 1.304973 1_555
C3 O12 1.304973 1_555
C3 O14 1.304973 1_555
C4 O17 1.304973 1_555
C4 O15 1.304973 1_555
C4 O19 1.304973 1_555
C5 O20 1.304973 1_555
C5 O25 1.304973 1_555
C5 O21 1.304973 1_555
C6 O23 1.304973 1_555
C6 O18 1.304973 1_555
C6 O22 1.304973 1_555
C7 O26 1.304973 1_555
C7 O24 1.304973 1_555
C7 O27 1.304973 1_555
O0 P0 1.561228 1_556
O1 P0 1.561220 1_555
O2 P0 1.561228 1_565
O3 P0 1.561228 1_655
O28 P1 1.561228 1_555
O29 P1 1.561228 1_555
O30 P1 1.561220 1_555
O31 P1 1.561228 1_555
