# generated using pymatgen
data_Na2Sb4O11
_symmetry_space_group_name_H-M   'P 1'
_cell_length_a   10.58891150
_cell_length_b   10.58891150
_cell_length_c   7.26848624
_cell_angle_alpha   85.04279527
_cell_angle_beta   85.04279527
_cell_angle_gamma   42.32207167
_symmetry_Int_Tables_number   1
_chemical_formula_structural   Na2Sb4O11
_chemical_formula_sum   'Na4 Sb8 O22'
_cell_volume   546.36277276
_cell_formula_units_Z   2
loop_
 _symmetry_equiv_pos_site_id
 _symmetry_equiv_pos_as_xyz
  1  'x, y, z'
loop_
 _atom_site_type_symbol
 _atom_site_label
 _atom_site_symmetry_multiplicity
 _atom_site_fract_x
 _atom_site_fract_y
 _atom_site_fract_z
 _atom_site_occupancy
  Na  Na0  1  0.99070000  0.95805900  0.78064100  1
  Na  Na1  1  0.26640000  0.26194100  0.56339200  1
  Na  Na2  1  0.73805900  0.73360000  0.43660800  1
  Na  Na3  1  0.04194100  0.00930000  0.21935900  1
  Sb  Sb0  1  0.42732200  0.42419400  0.11374300  1
  Sb  Sb1  1  0.43145200  0.42952900  0.59294200  1
  Sb  Sb2  1  0.58776500  0.06764000  0.93145400  1
  Sb  Sb3  1  0.07039300  0.58455800  0.93208600  1
  Sb  Sb4  1  0.41544200  0.92960700  0.06791400  1
  Sb  Sb5  1  0.93236000  0.41223500  0.06854600  1
  Sb  Sb6  1  0.57047100  0.56854800  0.40705800  1
  Sb  Sb7  1  0.57580600  0.57267800  0.88625700  1
  O  O0  1  0.47973600  0.47704600  0.84033700  1
  O  O1  1  0.67275700  0.15664500  0.06211800  1
  O  O2  1  0.15956900  0.67056800  0.06163400  1
  O  O3  1  0.38187600  0.38205900  0.36484200  1
  O  O4  1  0.56281500  0.17563100  0.68062700  1
  O  O5  1  0.17680100  0.56467900  0.68209000  1
  O  O6  1  0.33548100  0.33305300  0.00926700  1
  O  O7  1  0.84857200  0.84579200  0.84835400  1
  O  O8  1  0.97231800  0.55848200  0.16405300  1
  O  O9  1  0.56043900  0.97062900  0.16405500  1
  O  O10  1  0.02937100  0.43956100  0.83594500  1
  O  O11  1  0.44151800  0.02768200  0.83594700  1
  O  O12  1  0.15420800  0.15142800  0.15164600  1
  O  O13  1  0.66694700  0.66451900  0.99073300  1
  O  O14  1  0.43532100  0.82319900  0.31791000  1
  O  O15  1  0.82436900  0.43718500  0.31937300  1
  O  O16  1  0.61794100  0.61812400  0.63515800  1
  O  O17  1  0.84335500  0.32724300  0.93788200  1
  O  O18  1  0.32943200  0.84043100  0.93836600  1
  O  O19  1  0.52295400  0.52026400  0.15966300  1
  O  O20  1  0.67517800  0.32482200  0.50000000  1
  O  O21  1  0.32609300  0.67390700  0.50000000  1
loop_
_geom_bond_atom_site_label_1
_geom_bond_atom_site_label_2
_geom_bond_distance
_geom_bond_site_symmetry_2
Na0 O7 2.517320 1_555
Na0 O2 2.853628 1_656
Na1 O11 2.549510 1_555
Na1 O10 2.562332 1_555
Na1 O3 2.621691 1_555
Na1 O4 2.738368 1_555
Na1 O5 2.785651 1_555
Na2 O8 2.549510 1_555
Na2 O9 2.562332 1_555
Na2 O16 2.621691 1_555
Na2 O15 2.738368 1_555
Na2 O14 2.785651 1_555
Na3 O12 2.517320 1_555
Na3 O18 2.853628 1_544
O0 Sb7 1.952457 1_555
O0 Sb1 2.108009 1_555
O0 Sb0 2.155662 1_556
O1 Sb0 2.012144 1_555
O1 Sb2 2.038835 1_554
O2 Sb0 2.016195 1_555
O2 Sb3 2.044840 1_554
O3 Sb0 1.945929 1_555
O3 Sb1 1.990390 1_555
O4 Sb1 1.973868 1_555
O4 Sb2 1.994349 1_555
O5 Sb1 1.972522 1_555
O5 Sb3 1.994299 1_555
O6 Sb0 2.023844 1_555
O6 Sb3 2.060579 1_554
O6 Sb2 2.065504 1_554
O7 Sb2 1.968147 1_565
O7 Sb3 1.971662 1_655
O8 Sb3 2.009592 1_654
O8 Sb5 2.065077 1_555
O9 Sb2 2.012987 1_564
O9 Sb4 2.063597 1_555
O10 Sb5 2.012987 1_456
O10 Sb3 2.063597 1_555
O11 Sb4 2.009592 1_546
O11 Sb2 2.065077 1_555
O12 Sb5 1.968147 1_455
O12 Sb4 1.971662 1_545
O13 Sb7 2.023844 1_555
O13 Sb4 2.060579 1_556
O13 Sb5 2.065504 1_556
O14 Sb6 1.972522 1_555
O14 Sb4 1.994299 1_555
O15 Sb6 1.973868 1_555
O15 Sb5 1.994349 1_555
O16 Sb7 1.945929 1_555
O16 Sb6 1.990390 1_555
O17 Sb7 2.012144 1_555
O17 Sb5 2.038835 1_556
O18 Sb7 2.016195 1_555
O18 Sb4 2.044840 1_556
O19 Sb0 1.952457 1_555
O19 Sb6 2.108009 1_555
O19 Sb7 2.155662 1_554
O20 Sb1 1.985696 1_555
O20 Sb6 1.985696 1_555
O21 Sb6 1.989043 1_555
O21 Sb1 1.989043 1_555
