# generated using pymatgen
data_SmYO3
_symmetry_space_group_name_H-M   'P 1'
_cell_length_a   5.87908400
_cell_length_b   6.00962800
_cell_length_c   8.50855700
_cell_angle_alpha   90.00000000
_cell_angle_beta   90.00000000
_cell_angle_gamma   90.00000000
_symmetry_Int_Tables_number   1
_chemical_formula_structural   SmYO3
_chemical_formula_sum   'Sm4 Y4 O12'
_cell_volume   300.61674477
_cell_formula_units_Z   4
loop_
 _symmetry_equiv_pos_site_id
 _symmetry_equiv_pos_as_xyz
  1  'x, y, z'
loop_
 _atom_site_type_symbol
 _atom_site_label
 _atom_site_symmetry_multiplicity
 _atom_site_fract_x
 _atom_site_fract_y
 _atom_site_fract_z
 _atom_site_occupancy
  Sm  Sm0  1  0.99520600  0.46606600  0.48088100  1
  Sm  Sm1  1  0.50479400  0.96606600  0.48088100  1
  Sm  Sm2  1  0.49520600  0.03393400  0.98088100  1
  Sm  Sm3  1  0.00479400  0.53393400  0.98088100  1
  Y  Y0  1  0.00118600  0.97873900  0.21309800  1
  Y  Y1  1  0.49881400  0.47873900  0.21309800  1
  Y  Y2  1  0.50118600  0.52126100  0.71309800  1
  Y  Y3  1  0.99881400  0.02126100  0.71309800  1
  O  O0  1  0.15102900  0.37687000  0.75175300  1
  O  O1  1  0.13280000  0.08552800  0.45369300  1
  O  O2  1  0.20698900  0.26213000  0.11219400  1
  O  O3  1  0.29301100  0.76213000  0.11219400  1
  O  O4  1  0.36720000  0.58552800  0.45369300  1
  O  O5  1  0.34897100  0.87687000  0.75175300  1
  O  O6  1  0.65102900  0.12313000  0.25175300  1
  O  O7  1  0.63280000  0.41447200  0.95369300  1
  O  O8  1  0.70698900  0.23787000  0.61219400  1
  O  O9  1  0.79301100  0.73787000  0.61219400  1
  O  O10  1  0.86720000  0.91447200  0.95369300  1
  O  O11  1  0.84897100  0.62313000  0.25175300  1
loop_
_geom_bond_atom_site_label_1
_geom_bond_atom_site_label_2
_geom_bond_distance
_geom_bond_site_symmetry_2
O0 Y2 2.258093 1_555
O0 Sm3 2.330410 1_555
O0 Y3 2.340106 1_455
O0 Sm0 2.537390 1_455
O1 Y0 2.280628 1_545
O1 Sm1 2.313401 1_545
O1 Y3 2.375127 1_455
O1 Sm0 2.436750 1_455
O2 Y0 2.258651 1_545
O2 Sm3 2.308574 1_554
O2 Y1 2.318433 1_555
O2 Sm2 2.449521 1_554
O3 Y1 2.258651 1_555
O3 Sm2 2.308574 1_564
O3 Y0 2.318433 1_555
O3 Sm3 2.449521 1_554
O4 Y1 2.280628 1_555
O4 Sm0 2.313401 1_455
O4 Y2 2.375127 1_555
O4 Sm1 2.436750 1_555
O5 Y3 2.258093 1_465
O5 Sm2 2.330410 1_565
O5 Y2 2.340106 1_555
O5 Sm1 2.537390 1_555
O6 Y0 2.258093 1_645
O6 Sm1 2.330410 1_545
O6 Y1 2.340106 1_555
O6 Sm2 2.537390 1_554
O7 Y2 2.280628 1_555
O7 Sm3 2.313401 1_655
O7 Y1 2.375127 1_556
O7 Sm2 2.436750 1_555
O8 Y2 2.258651 1_555
O8 Sm1 2.308574 1_545
O8 Y3 2.318433 1_555
O8 Sm0 2.449521 1_555
O9 Y3 2.258651 1_565
O9 Sm0 2.308574 1_555
O9 Y2 2.318433 1_555
O9 Sm1 2.449521 1_555
O10 Y3 2.280628 1_565
O10 Sm2 2.313401 1_565
O10 Y0 2.375127 1_656
O10 Sm3 2.436750 1_655
O11 Y1 2.258093 1_555
O11 Sm0 2.330410 1_555
O11 Y0 2.340106 1_655
O11 Sm3 2.537390 1_654
