# generated using pymatgen
data_Li2Cr3NiO8
_symmetry_space_group_name_H-M   'P 1'
_cell_length_a   5.91553121
_cell_length_b   5.91553121
_cell_length_c   5.91553067
_cell_angle_alpha   59.26304467
_cell_angle_beta   59.26304467
_cell_angle_gamma   59.26304710
_symmetry_Int_Tables_number   1
_chemical_formula_structural   Li2Cr3NiO8
_chemical_formula_sum   'Li2 Cr3 Ni1 O8'
_cell_volume   143.91797968
_cell_formula_units_Z   1
loop_
 _symmetry_equiv_pos_site_id
 _symmetry_equiv_pos_as_xyz
  1  'x, y, z'
loop_
 _atom_site_type_symbol
 _atom_site_label
 _atom_site_symmetry_multiplicity
 _atom_site_fract_x
 _atom_site_fract_y
 _atom_site_fract_z
 _atom_site_occupancy
  Li  Li0  1  0.12323200  0.12323200  0.12323200  1
  Li  Li1  1  0.50057800  0.50057800  0.50057800  1
  Cr  Cr0  1  0.00581700  0.49839200  0.49839200  1
  Cr  Cr1  1  0.49839200  0.49839200  0.00581700  1
  Cr  Cr2  1  0.49839200  0.00581700  0.49839200  1
  Ni  Ni0  1  0.87838200  0.87838200  0.87838200  1
  O  O0  1  0.26000800  0.26000800  0.26000800  1
  O  O1  1  0.24954900  0.70824500  0.24954900  1
  O  O2  1  0.24954900  0.24954900  0.70824500  1
  O  O3  1  0.70824500  0.24954900  0.24954900  1
  O  O4  1  0.28832800  0.74960300  0.74960300  1
  O  O5  1  0.74960300  0.74960300  0.28832800  1
  O  O6  1  0.74960300  0.28832800  0.74960300  1
  O  O7  1  0.74031800  0.74031800  0.74031800  1
loop_
_geom_bond_atom_site_label_1
_geom_bond_atom_site_label_2
_geom_bond_distance
_geom_bond_site_symmetry_2
Li0 O2 1.990904 1_554
Li0 O3 1.990904 1_455
Li0 O1 1.990904 1_545
Li0 O0 1.992855 1_555
Li1 O6 2.086510 1_555
Li1 O4 2.086510 1_555
Li1 O5 2.086510 1_555
Li1 O3 2.108088 1_555
Li1 O1 2.108088 1_555
Li1 O2 2.108088 1_555
Cr0 O1 1.891795 1_555
Cr0 O2 1.891795 1_555
Cr0 O6 1.945494 1_455
Cr0 O5 1.945494 1_455
Cr0 O0 1.983911 1_555
Cr0 O7 2.015277 1_455
Cr1 O3 1.891795 1_555
Cr1 O1 1.891795 1_555
Cr1 O4 1.945494 1_554
Cr1 O6 1.945494 1_554
Cr1 O0 1.983911 1_555
Cr1 O7 2.015277 1_554
Cr2 O3 1.891795 1_555
Cr2 O2 1.891795 1_555
Cr2 O4 1.945494 1_545
Cr2 O5 1.945494 1_545
Cr2 O0 1.983911 1_555
Cr2 O7 2.015277 1_545
Ni0 O5 1.964166 1_556
Ni0 O4 1.964167 1_655
Ni0 O6 1.964167 1_565
Ni0 O7 2.011622 1_555
