# generated using pymatgen
data_Mn12O5F19
_symmetry_space_group_name_H-M   'P 1'
_cell_length_a   4.83523700
_cell_length_b   5.85588950
_cell_length_c   15.99555439
_cell_angle_alpha   89.28302075
_cell_angle_beta   89.61765288
_cell_angle_gamma   89.38484924
_symmetry_Int_Tables_number   1
_chemical_formula_structural   Mn12O5F19
_chemical_formula_sum   'Mn12 O5 F19'
_cell_volume   452.83669656
_cell_formula_units_Z   1
loop_
 _symmetry_equiv_pos_site_id
 _symmetry_equiv_pos_as_xyz
  1  'x, y, z'
loop_
 _atom_site_type_symbol
 _atom_site_label
 _atom_site_symmetry_multiplicity
 _atom_site_fract_x
 _atom_site_fract_y
 _atom_site_fract_z
 _atom_site_occupancy
  Mn  Mn0  1  0.99818500  0.17328700  0.40589100  1
  Mn  Mn1  1  0.01709700  0.85222100  0.24971900  1
  Mn  Mn2  1  0.98794200  0.18192700  0.08037500  1
  Mn  Mn3  1  0.02878100  0.14525000  0.74684300  1
  Mn  Mn4  1  0.01023000  0.85291400  0.58347200  1
  Mn  Mn5  1  0.01415200  0.83981000  0.91125600  1
  Mn  Mn6  1  0.48995300  0.31530500  0.58947000  1
  Mn  Mn7  1  0.52075600  0.33752900  0.92094100  1
  Mn  Mn8  1  0.49680200  0.32591700  0.26119300  1
  Mn  Mn9  1  0.51790600  0.64275900  0.08283200  1
  Mn  Mn10  1  0.51627400  0.64473600  0.41812600  1
  Mn  Mn11  1  0.47929200  0.67653700  0.75185800  1
  O  O0  1  0.21637300  0.12398600  0.30545100  1
  O  O1  1  0.21048300  0.09928000  0.64099100  1
  O  O2  1  0.21878200  0.90009100  0.80237600  1
  O  O3  1  0.71607500  0.40603500  0.03175500  1
  O  O4  1  0.71648600  0.37456300  0.36043700  1
  F  F0  1  0.22456500  0.11364200  0.97281900  1
  F  F1  1  0.24728000  0.87437300  0.13287000  1
  F  F2  1  0.22899900  0.89834800  0.46867400  1
  F  F3  1  0.27793400  0.38207700  0.15051900  1
  F  F4  1  0.26603900  0.61841100  0.30931200  1
  F  F5  1  0.26191700  0.39268700  0.47686700  1
  F  F6  1  0.26620400  0.59997600  0.63910300  1
  F  F7  1  0.27104200  0.39875900  0.81104600  1
  F  F8  1  0.26663900  0.61581500  0.97884900  1
  F  F9  1  0.72764700  0.60364600  0.19671400  1
  F  F10  1  0.73828900  0.61709600  0.53379800  1
  F  F11  1  0.72889400  0.61989100  0.85952600  1
  F  F12  1  0.74228200  0.37580700  0.69963700  1
  F  F13  1  0.76116900  0.10116400  0.19071700  1
  F  F14  1  0.77344600  0.12032000  0.51647100  1
  F  F15  1  0.76583600  0.87971400  0.35893600  1
  F  F16  1  0.76658900  0.89046800  0.02287500  1
  F  F17  1  0.78286100  0.12416100  0.85199900  1
  F  F18  1  0.74679700  0.88149700  0.68628400  1
loop_
_geom_bond_atom_site_label_1
_geom_bond_atom_site_label_2
_geom_bond_distance
_geom_bond_site_symmetry_2
Mn0 O4 1.931424 1_555
Mn0 O0 1.939057 1_655
Mn1 O0 2.082225 1_565
Mn2 O3 2.001541 1_555
Mn3 O2 1.909116 1_545
Mn3 O1 1.922921 1_555
Mn4 O1 1.985070 1_565
Mn5 O2 2.026292 1_555
Mn6 O1 2.025141 1_555
Mn7 O3 2.059852 1_556
Mn8 O0 1.933567 1_555
Mn8 O4 1.941604 1_555
Mn9 O3 1.869930 1_555
Mn10 O4 2.069648 1_555
Mn11 O2 1.982643 1_555
F0 Mn2 2.099973 1_456
F0 Mn7 2.110868 1_555
F0 Mn5 2.159636 1_545
F1 Mn9 2.041456 1_555
F1 Mn1 2.172152 1_555
F1 Mn2 2.334269 1_465
F2 Mn4 2.128253 1_555
F2 Mn10 2.181637 1_555
F2 Mn0 2.186804 1_465
F3 Mn8 2.089259 1_555
F3 Mn2 2.165153 1_455
F3 Mn9 2.197441 1_555
F4 Mn1 2.044356 1_555
F4 Mn10 2.134488 1_555
F4 Mn8 2.179826 1_555
F5 Mn10 2.136065 1_555
F5 Mn0 2.157946 1_455
F5 Mn6 2.158834 1_555
F6 Mn4 2.111860 1_555
F6 Mn6 2.136020 1_555
F6 Mn11 2.137858 1_555
F7 Mn11 2.130752 1_555
F7 Mn7 2.163254 1_555
F7 Mn3 2.173052 1_555
F8 Mn9 2.074866 1_556
F8 Mn5 2.080306 1_555
F8 Mn7 2.236727 1_555
F9 Mn9 2.099626 1_555
F9 Mn1 2.210639 1_655
F9 Mn8 2.221772 1_555
F10 Mn4 2.085098 1_655
F10 Mn10 2.148779 1_555
F10 Mn6 2.312991 1_555
F11 Mn5 2.079817 1_655
F11 Mn11 2.130131 1_555
F11 Mn7 2.166509 1_555
F12 Mn3 2.064046 1_655
F12 Mn6 2.184716 1_555
F12 Mn11 2.321760 1_555
F13 Mn1 2.118865 1_645
F13 Mn2 2.122631 1_555
F13 Mn8 2.149133 1_555
F14 Mn0 2.091295 1_555
F14 Mn6 2.127094 1_555
F14 Mn4 2.201662 1_645
F15 Mn10 2.057591 1_555
F15 Mn1 2.128002 1_655
F15 Mn0 2.206068 1_565
F16 Mn9 2.111159 1_555
F16 Mn5 2.164638 1_654
F16 Mn2 2.235198 1_565
F17 Mn3 2.056610 1_655
F17 Mn7 2.089311 1_555
F17 Mn5 2.203731 1_645
F18 Mn11 2.048767 1_555
F18 Mn4 2.080705 1_655
F18 Mn3 2.298510 1_665
