# generated using pymatgen
data_Li4Cr3Co3(SbO8)2
_symmetry_space_group_name_H-M   'P 1'
_cell_length_a   5.85447633
_cell_length_b   5.85447633
_cell_length_c   9.54492704
_cell_angle_alpha   89.39861769
_cell_angle_beta   89.39861769
_cell_angle_gamma   60.28380091
_symmetry_Int_Tables_number   1
_chemical_formula_structural   Li4Cr3Co3(SbO8)2
_chemical_formula_sum   'Li4 Cr3 Co3 Sb2 O16'
_cell_volume   284.10720972
_cell_formula_units_Z   1
loop_
 _symmetry_equiv_pos_site_id
 _symmetry_equiv_pos_as_xyz
  1  'x, y, z'
loop_
 _atom_site_type_symbol
 _atom_site_label
 _atom_site_symmetry_multiplicity
 _atom_site_fract_x
 _atom_site_fract_y
 _atom_site_fract_z
 _atom_site_occupancy
  Li  Li0  1  0.32972100  0.32972100  0.10131200  1
  Li  Li1  1  0.00575100  0.00575100  0.00816600  1
  Li  Li2  1  0.00483100  0.00483100  0.50563700  1
  Li  Li3  1  0.66391300  0.66391300  0.59704000  1
  Cr  Cr0  1  0.66073400  0.16966200  0.78541700  1
  Cr  Cr1  1  0.16966200  0.66073400  0.78541700  1
  Cr  Cr2  1  0.83056300  0.83056300  0.28575400  1
  Co  Co0  1  0.17148400  0.17148400  0.78490900  1
  Co  Co1  1  0.82998500  0.34144900  0.28547100  1
  Co  Co2  1  0.34144900  0.82998500  0.28547100  1
  Sb  Sb0  1  0.33297200  0.33297200  0.50907900  1
  Sb  Sb1  1  0.66528800  0.66528800  0.01321700  1
  O  O0  1  0.67585200  0.16480400  0.40395900  1
  O  O1  1  0.48194800  0.48194800  0.65473400  1
  O  O2  1  0.32934000  0.32934000  0.89264700  1
  O  O3  1  0.00598200  0.00598200  0.69172100  1
  O  O4  1  0.00656000  0.00656000  0.19406100  1
  O  O5  1  0.16480400  0.67585200  0.40395900  1
  O  O6  1  0.47568900  0.03373600  0.65864900  1
  O  O7  1  0.03373600  0.47568900  0.65864900  1
  O  O8  1  0.83667700  0.83667700  0.90779900  1
  O  O9  1  0.16391200  0.16391200  0.39813900  1
  O  O10  1  0.96353500  0.51145100  0.15971400  1
  O  O11  1  0.51145100  0.96353500  0.15971400  1
  O  O12  1  0.66105600  0.66105600  0.38873500  1
  O  O13  1  0.83782000  0.32895300  0.90318500  1
  O  O14  1  0.51660900  0.51660900  0.16636300  1
  O  O15  1  0.32895300  0.83782000  0.90318500  1
loop_
_geom_bond_atom_site_label_1
_geom_bond_atom_site_label_2
_geom_bond_distance
_geom_bond_site_symmetry_2
Li0 O10 1.940300 1_455
Li0 O11 1.940300 1_545
Li0 O2 1.991743 1_554
Li0 O14 1.998783 1_555
Li1 O4 1.774473 1_555
Li1 O13 1.920304 1_454
Li1 O15 1.920304 1_544
Li1 O8 1.971927 1_444
Li2 O3 1.776338 1_555
Li2 O9 1.899313 1_555
Li2 O0 1.939162 1_455
Li2 O5 1.939162 1_545
Li3 O1 1.916645 1_555
Li3 O6 1.973731 1_565
Li3 O7 1.973731 1_655
Li3 O12 1.988818 1_555
Cr0 O3 1.965532 1_655
Cr0 O2 1.966185 1_555
Cr0 O1 2.019006 1_555
Cr0 O6 2.042887 1_555
Cr0 O8 2.052453 1_545
Cr0 O13 2.052581 1_555
Cr1 O3 1.965532 1_565
Cr1 O2 1.966185 1_555
Cr1 O1 2.019006 1_555
Cr1 O7 2.042887 1_555
Cr1 O8 2.052453 1_455
Cr1 O15 2.052581 1_555
Cr2 O12 1.967534 1_555
Cr2 O4 1.975851 1_665
Cr2 O10 2.032061 1_555
Cr2 O11 2.032061 1_555
Cr2 O0 2.046994 1_565
Cr2 O5 2.046994 1_655
Co0 O3 1.906762 1_555
Co0 O2 1.911101 1_555
Co0 O6 1.956012 1_555
Co0 O7 1.956012 1_555
Co0 O15 2.032348 1_545
Co0 O13 2.032348 1_455
Co1 O12 1.906399 1_555
Co1 O4 1.918715 1_655
Co1 O10 1.941496 1_555
Co1 O14 1.965737 1_555
Co1 O0 2.010482 1_555
Co1 O9 2.016156 1_655
Co2 O12 1.906399 1_555
Co2 O4 1.918715 1_565
Co2 O11 1.941496 1_555
Co2 O14 1.965737 1_555
Co2 O5 2.010482 1_555
Co2 O9 2.016156 1_565
O0 Sb0 2.006173 1_555
O1 Sb0 2.063804 1_555
O5 Sb0 2.006173 1_555
O6 Sb0 2.080066 1_555
O7 Sb0 2.080066 1_555
O8 Sb1 1.995447 1_556
O9 Sb0 2.023795 1_555
O10 Sb1 2.069043 1_555
O11 Sb1 2.069043 1_555
O13 Sb1 2.012416 1_556
O14 Sb1 2.085622 1_555
O15 Sb1 2.012416 1_556
