# generated using pymatgen
data_Ti3TeO8
_symmetry_space_group_name_H-M   'P 1'
_cell_length_a   5.49925000
_cell_length_b   5.50075156
_cell_length_c   7.34273280
_cell_angle_alpha   85.62590334
_cell_angle_beta   85.97377319
_cell_angle_gamma   77.88372903
_symmetry_Int_Tables_number   1
_chemical_formula_structural   Ti3TeO8
_chemical_formula_sum   'Ti3 Te1 O8'
_cell_volume   216.20223953
_cell_formula_units_Z   1
loop_
 _symmetry_equiv_pos_site_id
 _symmetry_equiv_pos_as_xyz
  1  'x, y, z'
loop_
 _atom_site_type_symbol
 _atom_site_label
 _atom_site_symmetry_multiplicity
 _atom_site_fract_x
 _atom_site_fract_y
 _atom_site_fract_z
 _atom_site_occupancy
  Ti  Ti0  1  0.88679100  0.99270100  0.88758600  1
  Ti  Ti1  1  0.60648200  0.50586200  0.36807700  1
  Ti  Ti2  1  0.40684000  0.01705600  0.61843200  1
  Te  Te0  1  0.16883100  0.40563000  0.11658600  1
  O  O0  1  0.00466600  0.65281900  0.94221600  1
  O  O1  1  0.94915400  0.51280100  0.32082900  1
  O  O2  1  0.56170600  0.07170000  0.81873100  1
  O  O3  1  0.49595000  0.21227700  0.41890400  1
  O  O4  1  0.51265200  0.69335800  0.56595900  1
  O  O5  1  0.41463200  0.63412200  0.18380600  1
  O  O6  1  0.07431100  0.07773800  0.68754900  1
  O  O7  1  0.91798500  0.17553600  0.07132600  1
loop_
_geom_bond_atom_site_label_1
_geom_bond_atom_site_label_2
_geom_bond_distance
_geom_bond_site_symmetry_2
O0 Ti0 1.868125 1_455
O0 Te0 1.919537 1_556
O1 Ti1 1.899815 1_555
O1 Te0 1.907230 1_655
O2 Ti2 1.824698 1_555
O2 Ti0 1.845995 1_545
O3 Ti1 1.845284 1_555
O3 Ti2 1.849293 1_555
O4 Ti2 1.815416 1_565
O4 Ti1 1.827858 1_555
O5 Ti1 1.784372 1_555
O5 Te0 2.133550 1_555
O6 Ti0 1.823360 1_445
O6 Ti2 1.830917 1_555
O7 Ti0 1.781302 1_544
O7 Te0 2.115851 1_655
