# generated using pymatgen
data_Li4CrFe3O8
_symmetry_space_group_name_H-M   'P 1'
_cell_length_a   5.95163900
_cell_length_b   5.16054400
_cell_length_c   5.17951981
_cell_angle_alpha   70.53889999
_cell_angle_beta   90.00000000
_cell_angle_gamma   90.00000000
_symmetry_Int_Tables_number   1
_chemical_formula_structural   Li4CrFe3O8
_chemical_formula_sum   'Li4 Cr1 Fe3 O8'
_cell_volume   149.99349271
_cell_formula_units_Z   1
loop_
 _symmetry_equiv_pos_site_id
 _symmetry_equiv_pos_as_xyz
  1  'x, y, z'
loop_
 _atom_site_type_symbol
 _atom_site_label
 _atom_site_symmetry_multiplicity
 _atom_site_fract_x
 _atom_site_fract_y
 _atom_site_fract_z
 _atom_site_occupancy
  Li  Li0  1  0.24921600  0.00000000  0.00000000  1
  Li  Li1  1  0.75078400  0.00000000  0.00000000  1
  Li  Li2  1  0.00000000  0.50000000  0.00000000  1
  Li  Li3  1  0.50000000  0.50000000  0.00000000  1
  Cr  Cr0  1  0.00000000  0.00000000  0.50000000  1
  Fe  Fe0  1  0.50000000  0.00000000  0.50000000  1
  Fe  Fe1  1  0.25005200  0.50000000  0.50000000  1
  Fe  Fe2  1  0.74994800  0.50000000  0.50000000  1
  O  O0  1  0.24888400  0.75820400  0.72747700  1
  O  O1  1  0.75111600  0.75820400  0.72747700  1
  O  O2  1  0.00000000  0.74454100  0.27335000  1
  O  O3  1  0.00000000  0.25545900  0.72665000  1
  O  O4  1  0.50000000  0.74183400  0.27060100  1
  O  O5  1  0.24888400  0.24179600  0.27252300  1
  O  O6  1  0.50000000  0.25816600  0.72939900  1
  O  O7  1  0.75111600  0.24179600  0.27252300  1
loop_
_geom_bond_atom_site_label_1
_geom_bond_atom_site_label_2
_geom_bond_distance
_geom_bond_site_symmetry_2
Li0 O3 2.167670 1_554
Li0 O2 2.167670 1_545
Li0 O4 2.173232 1_545
Li0 O6 2.173232 1_554
Li0 O5 2.173263 1_555
Li0 O0 2.173263 1_544
Li1 O2 2.167670 1_645
Li1 O3 2.167670 1_654
Li1 O4 2.173232 1_545
Li1 O6 2.173232 1_554
Li1 O7 2.173263 1_555
Li1 O1 2.173263 1_544
Li2 O7 2.169980 1_455
Li2 O5 2.169980 1_555
Li2 O1 2.169980 1_454
Li2 O0 2.169980 1_554
Li2 O2 2.188071 1_555
Li2 O3 2.188071 1_554
Li3 O6 2.165054 1_554
Li3 O4 2.165054 1_555
Li3 O7 2.179070 1_555
Li3 O5 2.179070 1_555
Li3 O0 2.179070 1_554
Li3 O1 2.179070 1_554
Cr0 O3 2.036490 1_555
Cr0 O2 2.036490 1_545
Cr0 O7 2.039542 1_455
Cr0 O5 2.039542 1_555
Cr0 O0 2.039542 1_545
Cr0 O1 2.039542 1_445
Fe0 O0 2.049210 1_545
Fe0 O5 2.049210 1_555
Fe0 O1 2.049210 1_545
Fe0 O7 2.049210 1_555
Fe0 O4 2.059495 1_545
Fe0 O6 2.059495 1_555
Fe1 O6 2.047961 1_555
Fe1 O4 2.047961 1_555
Fe1 O2 2.048983 1_555
Fe1 O3 2.048983 1_555
Fe1 O0 2.051792 1_555
Fe1 O5 2.051792 1_555
Fe2 O6 2.047961 1_555
Fe2 O4 2.047961 1_555
Fe2 O2 2.048983 1_655
Fe2 O3 2.048983 1_655
Fe2 O1 2.051792 1_555
Fe2 O7 2.051792 1_555
