# generated using pymatgen
data_LiFe3P3O11
_symmetry_space_group_name_H-M   'P 1'
_cell_length_a   9.78638800
_cell_length_b   10.02009600
_cell_length_c   10.38884391
_cell_angle_alpha   59.41320355
_cell_angle_beta   90.00000000
_cell_angle_gamma   90.00000000
_symmetry_Int_Tables_number   1
_chemical_formula_structural   LiFe3P3O11
_chemical_formula_sum   'Li4 Fe12 P12 O44'
_cell_volume   876.98812825
_cell_formula_units_Z   4
loop_
 _symmetry_equiv_pos_site_id
 _symmetry_equiv_pos_as_xyz
  1  'x, y, z'
loop_
 _atom_site_type_symbol
 _atom_site_label
 _atom_site_symmetry_multiplicity
 _atom_site_fract_x
 _atom_site_fract_y
 _atom_site_fract_z
 _atom_site_occupancy
  Li  Li0  1  0.67103600  0.30054100  0.69413600  1
  Li  Li1  1  0.17103600  0.69945900  0.80586400  1
  Li  Li2  1  0.82896400  0.30054100  0.19413600  1
  Li  Li3  1  0.32896400  0.69945900  0.30586400  1
  Fe  Fe0  1  0.37665000  0.89913600  0.61442100  1
  Fe  Fe1  1  0.87204900  0.91660700  0.27002900  1
  Fe  Fe2  1  0.63162700  0.72197000  0.13923900  1
  Fe  Fe3  1  0.12795100  0.08339300  0.72997100  1
  Fe  Fe4  1  0.86837300  0.72197000  0.63923900  1
  Fe  Fe5  1  0.87665000  0.10086400  0.88557900  1
  Fe  Fe6  1  0.12335000  0.89913600  0.11442100  1
  Fe  Fe7  1  0.62795100  0.91660700  0.77002900  1
  Fe  Fe8  1  0.13162700  0.27803000  0.36076100  1
  Fe  Fe9  1  0.37204900  0.08339300  0.22997100  1
  Fe  Fe10  1  0.62335000  0.10086400  0.38557900  1
  Fe  Fe11  1  0.36837300  0.27803000  0.86076100  1
  P  P0  1  0.92206200  0.75984900  0.93760400  1
  P  P1  1  0.93385700  0.58877800  0.26373200  1
  P  P2  1  0.43385700  0.41122200  0.23626800  1
  P  P3  1  0.42206200  0.24015100  0.56239600  1
  P  P4  1  0.16157200  0.89420400  0.43970600  1
  P  P5  1  0.66157200  0.10579600  0.06029400  1
  P  P6  1  0.06614300  0.41122200  0.73626800  1
  P  P7  1  0.57793800  0.75984900  0.43760400  1
  P  P8  1  0.33842800  0.89420400  0.93970600  1
  P  P9  1  0.56614300  0.58877800  0.76373200  1
  P  P10  1  0.07793800  0.24015100  0.06239600  1
  P  P11  1  0.83842800  0.10579600  0.56029400  1
  O  O0  1  0.52097400  0.73063700  0.31830300  1
  O  O1  1  0.48220900  0.25751700  0.24706600  1
  O  O2  1  0.77332200  0.94447700  0.59669200  1
  O  O3  1  0.22667800  0.05552300  0.40330800  1
  O  O4  1  0.96959900  0.61753700  0.09409500  1
  O  O5  1  0.02182500  0.45134500  0.36371000  1
  O  O6  1  0.53040100  0.61753700  0.59409500  1
  O  O7  1  0.49311600  0.09138000  0.57605900  1
  O  O8  1  0.27285200  0.87014100  0.81430200  1
  O  O9  1  0.28571500  0.77649800  0.09727600  1
  O  O10  1  0.00419700  0.89596700  0.43370200  1
  O  O11  1  0.23363100  0.22627500  0.05838800  1
  O  O12  1  0.26636900  0.22627500  0.55838800  1
  O  O13  1  0.28071500  0.42826100  0.21594900  1
  O  O14  1  0.22714800  0.87014100  0.31430200  1
  O  O15  1  0.76636900  0.77372500  0.94161200  1
  O  O16  1  0.78071500  0.57173900  0.28405100  1
  O  O17  1  0.47817500  0.45134500  0.86371000  1
  O  O18  1  0.99580300  0.10403300  0.56629800  1
  O  O19  1  0.97817500  0.54865500  0.63629000  1
  O  O20  1  0.52182500  0.54865500  0.13629000  1
  O  O21  1  0.71428500  0.22350200  0.90272400  1
  O  O22  1  0.27332200  0.05552300  0.90330800  1
  O  O23  1  0.72667800  0.94447700  0.09669200  1
  O  O24  1  0.21428500  0.77649800  0.59727600  1
  O  O25  1  0.72714800  0.12985900  0.18569800  1
  O  O26  1  0.98220900  0.74248300  0.25293400  1
  O  O27  1  0.97902600  0.73063700  0.81830300  1
  O  O28  1  0.50419700  0.10403300  0.06629800  1
  O  O29  1  0.00688400  0.09138000  0.07605900  1
  O  O30  1  0.51779100  0.74248300  0.75293400  1
  O  O31  1  0.50688400  0.90862000  0.42394100  1
  O  O32  1  0.78571500  0.22350200  0.40272400  1
  O  O33  1  0.77285200  0.12985900  0.68569800  1
  O  O34  1  0.01779100  0.25751700  0.74706600  1
  O  O35  1  0.46959900  0.38246300  0.40590500  1
  O  O36  1  0.21928500  0.42826100  0.71594900  1
  O  O37  1  0.02097400  0.26936300  0.18169700  1
  O  O38  1  0.03040100  0.38246300  0.90590500  1
  O  O39  1  0.71928500  0.57173900  0.78405100  1
  O  O40  1  0.49580300  0.89596700  0.93370200  1
  O  O41  1  0.73363100  0.77372500  0.44161200  1
  O  O42  1  0.99311600  0.90862000  0.92394100  1
  O  O43  1  0.47902600  0.26936300  0.68169700  1
loop_
_geom_bond_atom_site_label_1
_geom_bond_atom_site_label_2
_geom_bond_distance
_geom_bond_site_symmetry_2
Li0 O43 1.919985 1_555
Li0 O21 1.941263 1_555
Li0 O33 2.019418 1_555
Li1 O27 1.919985 1_455
Li1 O24 1.941263 1_555
Li1 O8 2.019418 1_555
Li2 O37 1.919985 1_655
Li2 O32 1.941263 1_555
Li2 O25 2.019418 1_555
Li3 O0 1.919985 1_555
Li3 O9 1.941263 1_555
Li3 O14 2.019418 1_555
Fe0 O30 2.035623 1_555
Fe0 O24 2.071074 1_555
Fe0 O7 2.094588 1_565
Fe0 O8 2.194149 1_555
Fe0 O31 2.314729 1_555
Fe0 O3 2.433568 1_565
Fe1 O10 2.061228 1_655
Fe1 O41 2.113055 1_555
Fe1 O26 2.133830 1_555
Fe1 O23 2.198394 1_555
Fe1 O29 2.297258 1_665
Fe1 O25 2.332212 1_565
Fe2 O20 2.055643 1_555
Fe2 O16 2.086477 1_555
Fe2 O0 2.192078 1_555
Fe2 O23 2.242453 1_555
Fe2 O15 2.267040 1_554
Fe2 O40 2.361639 1_554
Fe3 O18 2.061228 1_455
Fe3 O12 2.113055 1_555
Fe3 O34 2.133830 1_555
Fe3 O22 2.198394 1_555
Fe3 O42 2.297258 1_445
Fe3 O8 2.332212 1_545
Fe4 O19 2.055643 1_555
Fe4 O39 2.086477 1_555
Fe4 O27 2.192078 1_555
Fe4 O2 2.242453 1_555
Fe4 O41 2.267040 1_555
Fe4 O10 2.361639 1_655
Fe5 O34 2.035623 1_655
Fe5 O21 2.071074 1_555
Fe5 O42 2.094588 1_545
Fe5 O33 2.194149 1_555
Fe5 O29 2.314729 1_656
Fe5 O23 2.433568 1_546
Fe6 O26 2.035623 1_455
Fe6 O9 2.071074 1_555
Fe6 O29 2.094588 1_565
Fe6 O14 2.194149 1_555
Fe6 O42 2.314729 1_454
Fe6 O22 2.433568 1_564
Fe7 O40 2.061228 1_555
Fe7 O15 2.113055 1_555
Fe7 O30 2.133830 1_555
Fe7 O2 2.198394 1_555
Fe7 O7 2.297258 1_565
Fe7 O33 2.332212 1_565
Fe8 O5 2.055643 1_555
Fe8 O13 2.086477 1_555
Fe8 O37 2.192078 1_555
Fe8 O3 2.242453 1_555
Fe8 O12 2.267040 1_555
Fe8 O18 2.361639 1_455
Fe9 O28 2.061228 1_555
Fe9 O11 2.113055 1_555
Fe9 O1 2.133830 1_555
Fe9 O3 2.198394 1_555
Fe9 O31 2.297258 1_545
Fe9 O14 2.332212 1_545
Fe10 O1 2.035623 1_555
Fe10 O32 2.071074 1_555
Fe10 O31 2.094588 1_545
Fe10 O25 2.194149 1_555
Fe10 O7 2.314729 1_555
Fe10 O2 2.433568 1_545
Fe11 O17 2.055643 1_555
Fe11 O36 2.086477 1_555
Fe11 O43 2.192078 1_555
Fe11 O22 2.242453 1_555
Fe11 O11 2.267040 1_556
Fe11 O28 2.361639 1_556
O0 P7 1.517155 1_555
O1 P2 1.559710 1_555
O2 P11 1.593664 1_565
O3 P4 1.593664 1_545
O4 P0 1.591741 1_554
O4 P1 1.671639 1_555
O5 P1 1.503561 1_455
O6 P7 1.591741 1_555
O6 P9 1.671639 1_555
O7 P3 1.584464 1_555
O8 P8 1.577008 1_555
O9 P8 1.540132 1_554
O10 P4 1.541133 1_555
O11 P10 1.532493 1_555
O12 P3 1.532493 1_555
O13 P2 1.511011 1_555
O14 P4 1.577008 1_555
O15 P0 1.532493 1_555
O16 P1 1.511011 1_555
O17 P9 1.503561 1_555
O18 P11 1.541133 1_555
O19 P6 1.503561 1_655
O20 P2 1.503561 1_555
O21 P5 1.540132 1_556
O22 P8 1.593664 1_545
O23 P5 1.593664 1_565
O24 P4 1.540132 1_555
O25 P5 1.577008 1_555
O26 P1 1.559710 1_555
O27 P0 1.517155 1_555
O28 P5 1.541133 1_555
O29 P10 1.584464 1_555
O30 P9 1.559710 1_555
O31 P7 1.584464 1_555
O32 P11 1.540132 1_555
O33 P11 1.577008 1_555
O34 P6 1.559710 1_555
O35 P3 1.591741 1_555
O35 P2 1.671639 1_555
O36 P6 1.511011 1_555
O37 P10 1.517155 1_555
O38 P10 1.591741 1_556
O38 P6 1.671639 1_555
O39 P9 1.511011 1_555
O40 P8 1.541133 1_555
O41 P7 1.532493 1_555
O42 P0 1.584464 1_555
O43 P3 1.517155 1_555
