# generated using pymatgen
data_Ga2HgO4
_symmetry_space_group_name_H-M   'P 1'
_cell_length_a   2.95547600
_cell_length_b   9.80408700
_cell_length_c   12.61596900
_cell_angle_alpha   90.00000000
_cell_angle_beta   90.00000000
_cell_angle_gamma   90.00000000
_symmetry_Int_Tables_number   1
_chemical_formula_structural   Ga2HgO4
_chemical_formula_sum   'Ga8 Hg4 O16'
_cell_volume   365.55708592
_cell_formula_units_Z   4
loop_
 _symmetry_equiv_pos_site_id
 _symmetry_equiv_pos_as_xyz
  1  'x, y, z'
loop_
 _atom_site_type_symbol
 _atom_site_label
 _atom_site_symmetry_multiplicity
 _atom_site_fract_x
 _atom_site_fract_y
 _atom_site_fract_z
 _atom_site_occupancy
  Ga  Ga0  1  0.75000000  0.12217100  0.28626200  1
  Ga  Ga1  1  0.75000000  0.10859600  0.87090000  1
  Ga  Ga2  1  0.25000000  0.39140400  0.37090000  1
  Ga  Ga3  1  0.25000000  0.37782900  0.78626200  1
  Ga  Ga4  1  0.75000000  0.62217100  0.21373800  1
  Ga  Ga5  1  0.75000000  0.60859600  0.62910000  1
  Ga  Ga6  1  0.25000000  0.89140400  0.12910000  1
  Ga  Ga7  1  0.25000000  0.87782900  0.71373800  1
  Hg  Hg0  1  0.75000000  0.15437500  0.56156800  1
  Hg  Hg1  1  0.25000000  0.34562500  0.06156800  1
  Hg  Hg2  1  0.75000000  0.65437500  0.93843200  1
  Hg  Hg3  1  0.25000000  0.84562500  0.43843200  1
  O  O0  1  0.75000000  0.00969100  0.16591700  1
  O  O1  1  0.75000000  0.96147500  0.62962200  1
  O  O2  1  0.25000000  0.25144300  0.26036400  1
  O  O3  1  0.75000000  0.31458100  0.45598200  1
  O  O4  1  0.25000000  0.18541900  0.95598200  1
  O  O5  1  0.75000000  0.24855700  0.76036400  1
  O  O6  1  0.25000000  0.53852500  0.12962200  1
  O  O7  1  0.25000000  0.49030900  0.66591700  1
  O  O8  1  0.75000000  0.50969100  0.33408300  1
  O  O9  1  0.75000000  0.46147500  0.87037800  1
  O  O10  1  0.25000000  0.75144300  0.23963600  1
  O  O11  1  0.75000000  0.81458100  0.04401800  1
  O  O12  1  0.25000000  0.68541900  0.54401800  1
  O  O13  1  0.75000000  0.74855700  0.73963600  1
  O  O14  1  0.25000000  0.03852500  0.37037800  1
  O  O15  1  0.25000000  0.99030900  0.83408300  1
loop_
_geom_bond_atom_site_label_1
_geom_bond_atom_site_label_2
_geom_bond_distance
_geom_bond_site_symmetry_2
Ga0 O0 1.876494 1_555
Ga0 O2 1.974018 1_655
Ga0 O2 1.974018 1_555
Ga0 O14 1.995591 1_555
Ga0 O14 1.995591 1_655
Ga1 O15 1.935032 1_645
Ga1 O15 1.935032 1_545
Ga1 O5 1.956422 1_555
Ga1 O4 1.975641 1_555
Ga1 O4 1.975641 1_655
Ga2 O8 1.935032 1_455
Ga2 O8 1.935032 1_555
Ga2 O2 1.956422 1_555
Ga2 O3 1.975641 1_555
Ga2 O3 1.975641 1_455
Ga3 O7 1.876494 1_555
Ga3 O5 1.974018 1_455
Ga3 O5 1.974018 1_555
Ga3 O9 1.995591 1_455
Ga3 O9 1.995591 1_555
Ga4 O8 1.876494 1_555
Ga4 O10 1.974018 1_555
Ga4 O10 1.974018 1_655
Ga4 O6 1.995591 1_655
Ga4 O6 1.995591 1_555
Ga5 O7 1.935032 1_655
Ga5 O7 1.935032 1_555
Ga5 O13 1.956422 1_555
Ga5 O12 1.975641 1_655
Ga5 O12 1.975641 1_555
Ga6 O0 1.935032 1_465
Ga6 O0 1.935032 1_565
Ga6 O10 1.956422 1_555
Ga6 O11 1.975641 1_555
Ga6 O11 1.975641 1_455
Ga7 O15 1.876494 1_555
Ga7 O13 1.974018 1_555
Ga7 O13 1.974018 1_455
Ga7 O1 1.995591 1_555
Ga7 O1 1.995591 1_455
Hg0 O3 2.059472 1_555
Hg0 O1 2.076971 1_545
Hg1 O4 2.059472 1_554
Hg1 O6 2.076971 1_555
Hg2 O11 2.059472 1_556
Hg2 O9 2.076971 1_555
Hg3 O12 2.059472 1_555
Hg3 O14 2.076971 1_565
