# generated using pymatgen
data_La4Mn4O11
_symmetry_space_group_name_H-M   'P 1'
_cell_length_a   7.99234600
_cell_length_b   7.96439000
_cell_length_c   11.28587162
_cell_angle_alpha   46.68221538
_cell_angle_beta   90.00000000
_cell_angle_gamma   90.00000000
_symmetry_Int_Tables_number   1
_chemical_formula_structural   La4Mn4O11
_chemical_formula_sum   'La8 Mn8 O22'
_cell_volume   522.67366951
_cell_formula_units_Z   2
loop_
 _symmetry_equiv_pos_site_id
 _symmetry_equiv_pos_as_xyz
  1  'x, y, z'
loop_
 _atom_site_type_symbol
 _atom_site_label
 _atom_site_symmetry_multiplicity
 _atom_site_fract_x
 _atom_site_fract_y
 _atom_site_fract_z
 _atom_site_occupancy
  La  La0  1  0.99169300  0.04492100  0.98923000  1
  La  La1  1  0.98990600  0.55203400  0.96860900  1
  La  La2  1  0.01009400  0.55203400  0.46860900  1
  La  La3  1  0.48366200  0.93395200  0.53312500  1
  La  La4  1  0.00830700  0.04492100  0.48923000  1
  La  La5  1  0.51362000  0.46334100  0.51503400  1
  La  La6  1  0.48638000  0.46334100  0.01503400  1
  La  La7  1  0.51633800  0.93395200  0.03312500  1
  Mn  Mn0  1  0.24222200  0.50126100  0.74957600  1
  Mn  Mn1  1  0.74874500  0.50060600  0.74974000  1
  Mn  Mn2  1  0.24916700  0.00048400  0.74973500  1
  Mn  Mn3  1  0.75091900  0.00204900  0.75019500  1
  Mn  Mn4  1  0.24908100  0.00204900  0.25019500  1
  Mn  Mn5  1  0.75083300  0.00048400  0.24973500  1
  Mn  Mn6  1  0.25125500  0.50060600  0.24974000  1
  Mn  Mn7  1  0.75777800  0.50126100  0.24957600  1
  O  O0  1  0.19916300  0.30221200  0.98339900  1
  O  O1  1  0.79215700  0.30059000  0.00591100  1
  O  O2  1  0.01213200  0.45302500  0.72180500  1
  O  O3  1  0.48230800  0.51154400  0.78395700  1
  O  O4  1  0.29705300  0.66722000  0.52119400  1
  O  O5  1  0.68972800  0.73531100  0.49431300  1
  O  O6  1  0.20962200  0.80762400  0.69205900  1
  O  O7  1  0.79764400  0.80011700  0.70932900  1
  O  O8  1  0.20235600  0.80011700  0.20932900  1
  O  O9  1  0.79037800  0.80762400  0.19205900  1
  O  O10  1  0.99619600  0.97375300  0.81376200  1
  O  O11  1  0.00380400  0.97375300  0.31376200  1
  O  O12  1  0.50447500  0.03647000  0.69172600  1
  O  O13  1  0.49552500  0.03647000  0.19172600  1
  O  O14  1  0.69728400  0.19528500  0.79750200  1
  O  O15  1  0.30271600  0.19528500  0.29750200  1
  O  O16  1  0.20784300  0.30059000  0.50591100  1
  O  O17  1  0.80083700  0.30221200  0.48339900  1
  O  O18  1  0.98786800  0.45302500  0.22180500  1
  O  O19  1  0.51769200  0.51154400  0.28395700  1
  O  O20  1  0.70294700  0.66722000  0.02119400  1
  O  O21  1  0.31027200  0.73531100  0.99431300  1
loop_
_geom_bond_atom_site_label_1
_geom_bond_atom_site_label_2
_geom_bond_distance
_geom_bond_site_symmetry_2
La0 O9 2.337659 1_546
La0 O10 2.405058 1_545
La0 O8 2.482203 1_646
La0 O2 2.498056 1_655
La0 O0 2.601522 1_655
La0 O1 2.692766 1_556
La0 O14 2.845604 1_555
La1 O1 2.351336 1_556
La1 O18 2.386601 1_556
La1 O10 2.506784 1_555
La1 O0 2.515572 1_655
La1 O7 2.625795 1_555
La1 O20 2.683440 1_556
La1 O6 2.872516 1_655
La1 O21 3.058085 1_655
La2 O16 2.351336 1_555
La2 O2 2.386601 1_555
La2 O11 2.506784 1_555
La2 O17 2.515572 1_455
La2 O8 2.625795 1_555
La2 O4 2.683440 1_555
La2 O9 2.872516 1_455
La2 O5 3.058085 1_455
La3 O15 2.429137 1_565
La3 O12 2.429720 1_565
La3 O3 2.502917 1_555
La3 O5 2.521516 1_555
La3 O6 2.559405 1_555
La3 O4 2.673558 1_555
La3 O7 2.911994 1_555
La4 O6 2.337659 1_545
La4 O11 2.405058 1_545
La4 O7 2.482203 1_445
La4 O18 2.498056 1_455
La4 O17 2.601522 1_455
La4 O16 2.692766 1_555
La4 O15 2.845604 1_555
La5 O19 2.361332 1_555
La5 O4 2.406719 1_555
La5 O5 2.456144 1_555
La5 O12 2.497626 1_555
La5 O14 2.745363 1_555
La5 O17 2.769921 1_555
La5 O16 2.801145 1_555
La6 O3 2.361332 1_554
La6 O20 2.406719 1_555
La6 O21 2.456144 1_554
La6 O13 2.497626 1_555
La6 O15 2.745363 1_555
La6 O0 2.769921 1_554
La6 O1 2.801145 1_555
La7 O14 2.429137 1_564
La7 O13 2.429720 1_565
La7 O19 2.502917 1_555
La7 O21 2.521516 1_554
La7 O9 2.559405 1_555
La7 O20 2.673558 1_555
La7 O8 2.911994 1_555
Mn0 O2 1.947511 1_555
Mn0 O0 1.963499 1_555
Mn0 O3 1.970496 1_555
Mn0 O4 1.976887 1_555
Mn0 O6 2.066305 1_555
Mn1 O7 2.135006 1_555
Mn1 O14 2.138778 1_555
Mn1 O5 2.152465 1_555
Mn1 O1 2.167337 1_556
Mn1 O3 2.176571 1_555
Mn1 O2 2.199612 1_655
Mn2 O6 2.062712 1_545
Mn2 O21 2.078288 1_545
Mn2 O16 2.090387 1_555
Mn2 O12 2.101661 1_555
Mn2 O10 2.108127 1_445
Mn3 O7 1.989078 1_545
Mn3 O14 1.991171 1_555
Mn3 O12 2.035181 1_555
Mn3 O10 2.046108 1_545
Mn3 O17 2.250314 1_555
Mn3 O20 2.328461 1_546
Mn4 O8 1.989078 1_545
Mn4 O15 1.991171 1_555
Mn4 O13 2.035181 1_555
Mn4 O11 2.046108 1_545
Mn4 O0 2.250314 1_554
Mn4 O4 2.328461 1_545
Mn5 O9 2.062712 1_545
Mn5 O5 2.078288 1_545
Mn5 O1 2.090387 1_555
Mn5 O13 2.101661 1_555
Mn5 O11 2.108127 1_645
Mn6 O8 2.135006 1_555
Mn6 O15 2.138778 1_555
Mn6 O21 2.152465 1_554
Mn6 O16 2.167337 1_555
Mn6 O19 2.176571 1_555
Mn6 O18 2.199612 1_455
Mn7 O18 1.947511 1_555
Mn7 O17 1.963499 1_555
Mn7 O19 1.970496 1_555
Mn7 O20 1.976887 1_555
Mn7 O9 2.066305 1_555
