# generated using pymatgen
data_Li3Fe3(PO4)4
_symmetry_space_group_name_H-M   'P 1'
_cell_length_a   8.52776900
_cell_length_b   9.21324108
_cell_length_c   10.03660871
_cell_angle_alpha   108.15266091
_cell_angle_beta   105.36546497
_cell_angle_gamma   109.61331428
_symmetry_Int_Tables_number   1
_chemical_formula_structural   Li3Fe3(PO4)4
_chemical_formula_sum   'Li6 Fe6 P8 O32'
_cell_volume   642.87202532
_cell_formula_units_Z   2
loop_
 _symmetry_equiv_pos_site_id
 _symmetry_equiv_pos_as_xyz
  1  'x, y, z'
loop_
 _atom_site_type_symbol
 _atom_site_label
 _atom_site_symmetry_multiplicity
 _atom_site_fract_x
 _atom_site_fract_y
 _atom_site_fract_z
 _atom_site_occupancy
  Li  Li0  1  0.94815300  0.52739900  0.19931400  1
  Li  Li1  1  0.63833400  0.61302300  0.15054400  1
  Li  Li2  1  0.71626700  0.66388400  0.74350800  1
  Li  Li3  1  0.28373300  0.33611600  0.25649200  1
  Li  Li4  1  0.36166600  0.38697700  0.84945600  1
  Li  Li5  1  0.05184700  0.47260100  0.80068600  1
  Fe  Fe0  1  0.23284700  0.94840000  0.45511200  1
  Fe  Fe1  1  0.13856500  0.88672200  0.82248800  1
  Fe  Fe2  1  0.55416700  0.96236200  0.75722300  1
  Fe  Fe3  1  0.44583300  0.03763800  0.24277700  1
  Fe  Fe4  1  0.86143500  0.11327800  0.17751200  1
  Fe  Fe5  1  0.76715300  0.05160000  0.54488800  1
  P  P0  1  0.40750400  0.72755000  0.39070500  1
  P  P1  1  0.98887200  0.81340300  0.08370100  1
  P  P2  1  0.45833500  0.77683300  0.95915200  1
  P  P3  1  0.91673700  0.75024300  0.51090500  1
  P  P4  1  0.08326300  0.24975700  0.48909500  1
  P  P5  1  0.54166500  0.22316700  0.04084800  1
  P  P6  1  0.01112800  0.18659700  0.91629900  1
  P  P7  1  0.59249600  0.27245000  0.60929500  1
  O  O0  1  0.19555500  0.92621500  0.21209900  1
  O  O1  1  0.56514700  0.94527700  0.11937700  1
  O  O2  1  0.13392000  0.85934500  0.58758000  1
  O  O3  1  0.52043400  0.89729100  0.37432800  1
  O  O4  1  0.21357300  0.71559600  0.34965400  1
  O  O5  1  0.87944300  0.90086800  0.14827900  1
  O  O6  1  0.49512200  0.77967100  0.56684600  1
  O  O7  1  0.25826500  0.75070500  0.88552800  1
  O  O8  1  0.83870600  0.88032500  0.51502900  1
  O  O9  1  0.56653200  0.81541600  0.85975500  1
  O  O10  1  0.41793400  0.57123600  0.29684800  1
  O  O11  1  0.91834000  0.63173400  0.06242600  1
  O  O12  1  0.84363800  0.61937900  0.34677400  1
  O  O13  1  0.10621500  0.30843700  0.36258000  1
  O  O14  1  0.98277500  0.82768200  0.93235000  1
  O  O15  1  0.54087300  0.37451400  0.01359100  1
  O  O16  1  0.45912700  0.62548600  0.98640900  1
  O  O17  1  0.01722500  0.17231800  0.06765000  1
  O  O18  1  0.89378500  0.69156300  0.63742000  1
  O  O19  1  0.15636200  0.38062100  0.65322600  1
  O  O20  1  0.08166000  0.36826600  0.93757400  1
  O  O21  1  0.58206600  0.42876400  0.70315200  1
  O  O22  1  0.43346800  0.18458400  0.14024500  1
  O  O23  1  0.16129400  0.11967500  0.48497100  1
  O  O24  1  0.74173500  0.24929500  0.11447200  1
  O  O25  1  0.50487800  0.22032900  0.43315400  1
  O  O26  1  0.12055700  0.09913200  0.85172100  1
  O  O27  1  0.78642700  0.28440400  0.65034600  1
  O  O28  1  0.47956600  0.10270900  0.62567200  1
  O  O29  1  0.86608000  0.14065500  0.41242000  1
  O  O30  1  0.43485300  0.05472300  0.88062300  1
  O  O31  1  0.80444500  0.07378500  0.78790100  1
loop_
_geom_bond_atom_site_label_1
_geom_bond_atom_site_label_2
_geom_bond_distance
_geom_bond_site_symmetry_2
Li0 O11 1.917840 1_555
Li0 O12 2.031636 1_555
Li0 O4 2.081221 1_655
Li0 O24 2.281884 1_555
Li1 O15 1.922316 1_555
Li1 O16 1.990973 1_554
Li1 O12 2.231481 1_555
Li2 O21 1.926034 1_555
Li2 O18 2.062686 1_555
Li2 O14 2.160411 1_555
Li2 O9 2.431501 1_555
Li3 O10 1.926034 1_555
Li3 O13 2.062686 1_555
Li3 O17 2.160411 1_555
Li3 O22 2.431501 1_555
Li4 O16 1.922316 1_555
Li4 O15 1.990973 1_556
Li4 O19 2.231481 1_555
Li5 O20 1.917840 1_555
Li5 O19 2.031636 1_555
Li5 O27 2.081221 1_455
Li5 O7 2.281884 1_555
Fe0 O23 1.844147 1_565
Fe0 O28 1.986208 1_565
Fe0 O2 1.990472 1_555
Fe0 O4 2.001092 1_555
Fe0 O0 2.307907 1_555
Fe1 O26 1.951236 1_565
Fe1 O14 1.985352 1_455
Fe1 O7 2.005804 1_555
Fe1 O18 2.094022 1_455
Fe1 O30 2.269532 1_565
Fe1 O2 2.279714 1_555
Fe2 O6 1.911739 1_555
Fe2 O31 1.920365 1_565
Fe2 O9 1.951784 1_555
Fe2 O30 1.971218 1_565
Fe2 O28 2.234025 1_565
Fe3 O25 1.911739 1_555
Fe3 O0 1.920365 1_545
Fe3 O22 1.951784 1_555
Fe3 O1 1.971218 1_545
Fe3 O3 2.234025 1_545
Fe4 O5 1.951236 1_545
Fe4 O17 1.985352 1_655
Fe4 O24 2.005804 1_555
Fe4 O13 2.094022 1_655
Fe4 O1 2.269532 1_545
Fe4 O29 2.279714 1_555
Fe5 O8 1.844147 1_545
Fe5 O3 1.986208 1_545
Fe5 O29 1.990472 1_555
Fe5 O27 2.001092 1_555
Fe5 O31 2.307907 1_555
O0 P1 1.606052 1_455
O1 P2 1.594945 1_554
O2 P3 1.595520 1_455
O3 P0 1.622687 1_555
O4 P0 1.550897 1_555
O5 P1 1.562124 1_555
O6 P0 1.563438 1_555
O7 P2 1.568513 1_555
O8 P3 1.549174 1_555
O9 P2 1.568917 1_555
O10 P0 1.501473 1_555
O11 P1 1.497407 1_555
O12 P3 1.506513 1_555
O13 P4 1.559282 1_555
O14 P1 1.553957 1_556
O15 P5 1.504081 1_555
O16 P2 1.504081 1_555
O17 P6 1.553957 1_554
O18 P3 1.559282 1_555
O19 P4 1.506513 1_555
O20 P6 1.497407 1_555
O21 P7 1.501473 1_555
O22 P5 1.568917 1_555
O23 P4 1.549174 1_555
O24 P5 1.568513 1_555
O25 P7 1.563438 1_555
O26 P6 1.562124 1_555
O27 P7 1.550897 1_555
O28 P7 1.622687 1_555
O29 P4 1.595520 1_655
O30 P5 1.594945 1_556
O31 P6 1.606052 1_655
