# generated using pymatgen
data_Na2FeCSO7
_symmetry_space_group_name_H-M   'P 1'
_cell_length_a   5.27609377
_cell_length_b   18.30290504
_cell_length_c   6.81522006
_cell_angle_alpha   89.89858952
_cell_angle_beta   89.80347433
_cell_angle_gamma   88.30105227
_symmetry_Int_Tables_number   1
_chemical_formula_structural   Na2FeCSO7
_chemical_formula_sum   'Na8 Fe4 C4 S4 O28'
_cell_volume   657.83700475
_cell_formula_units_Z   4
loop_
 _symmetry_equiv_pos_site_id
 _symmetry_equiv_pos_as_xyz
  1  'x, y, z'
loop_
 _atom_site_type_symbol
 _atom_site_label
 _atom_site_symmetry_multiplicity
 _atom_site_fract_x
 _atom_site_fract_y
 _atom_site_fract_z
 _atom_site_occupancy
  Na  Na0  1  0.22848300  0.10391500  0.99513500  1
  Na  Na1  1  0.22971000  0.60380400  0.99557000  1
  Na  Na2  1  0.23089000  0.10469900  0.50348400  1
  Na  Na3  1  0.23221900  0.60408300  0.50459000  1
  Na  Na4  1  0.77115900  0.39662500  0.49509500  1
  Na  Na5  1  0.76850000  0.89574600  0.49494900  1
  Na  Na6  1  0.76700900  0.39674100  0.00587700  1
  Na  Na7  1  0.77027400  0.89573400  0.00455200  1
  Fe  Fe0  1  0.77389100  0.67930000  0.75018600  1
  Fe  Fe1  1  0.22282200  0.32104500  0.24920000  1
  Fe  Fe2  1  0.77055700  0.17927100  0.74925600  1
  Fe  Fe3  1  0.22713500  0.82054200  0.24977800  1
  C  C0  1  0.72692100  0.04083700  0.74954100  1
  C  C1  1  0.72784100  0.54076600  0.75017200  1
  C  C2  1  0.27344300  0.45910400  0.25077300  1
  C  C3  1  0.27194400  0.95914500  0.24969500  1
  S  S0  1  0.72543000  0.21129500  0.24975900  1
  S  S1  1  0.72642700  0.71144400  0.25017100  1
  S  S2  1  0.27414500  0.28855300  0.75022700  1
  S  S3  1  0.27438800  0.78829600  0.74967500  1
  O  O0  1  0.30712700  0.02721700  0.24996500  1
  O  O1  1  0.31222200  0.52701500  0.25040900  1
  O  O2  1  0.69144800  0.47274400  0.75009000  1
  O  O3  1  0.69438500  0.97264600  0.74972200  1
  O  O4  1  0.95035400  0.07015200  0.74957800  1
  O  O5  1  0.95256500  0.56906000  0.75000500  1
  O  O6  1  0.04778200  0.43151000  0.24877900  1
  O  O7  1  0.04772400  0.93049400  0.24945800  1
  O  O8  1  0.53432400  0.08911300  0.74931400  1
  O  O9  1  0.53726300  0.58975800  0.75047700  1
  O  O10  1  0.46305400  0.40958800  0.25338200  1
  O  O11  1  0.46318400  0.91032400  0.24960000  1
  O  O12  1  0.16626700  0.21368900  0.75003000  1
  O  O13  1  0.16721300  0.71317100  0.74974800  1
  O  O14  1  0.83432800  0.28637400  0.24705700  1
  O  O15  1  0.83338400  0.78656300  0.25003600  1
  O  O16  1  0.44099400  0.21919900  0.25424200  1
  O  O17  1  0.44112400  0.71887600  0.25069500  1
  O  O18  1  0.55959500  0.28091700  0.75040400  1
  O  O19  1  0.55960900  0.78083900  0.74931300  1
  O  O20  1  0.80976700  0.17027200  0.07244400  1
  O  O21  1  0.81395600  0.67092400  0.07288300  1
  O  O22  1  0.81534000  0.17103800  0.42680200  1
  O  O23  1  0.81365100  0.67066200  0.42705700  1
  O  O24  1  0.18888400  0.32981800  0.57339600  1
  O  O25  1  0.18734900  0.82905500  0.57271700  1
  O  O26  1  0.18713800  0.32924200  0.92773200  1
  O  O27  1  0.18678100  0.82879500  0.92697900  1
loop_
_geom_bond_atom_site_label_1
_geom_bond_atom_site_label_2
_geom_bond_distance
_geom_bond_site_symmetry_2
Na0 O0 2.262917 1_556
Na0 O4 2.325985 1_455
Na0 O8 2.332617 1_555
Na0 O20 2.543296 1_456
Na0 O12 2.624448 1_555
Na0 O16 2.999124 1_556
Na1 O1 2.267494 1_556
Na1 O5 2.327897 1_455
Na1 O9 2.333983 1_555
Na1 O21 2.536353 1_456
Na1 O13 2.622057 1_555
Na1 O17 2.978061 1_556
Na2 O0 2.264567 1_555
Na2 O4 2.332011 1_455
Na2 O8 2.332585 1_555
Na2 O22 2.530242 1_455
Na2 O12 2.624216 1_555
Na2 O16 2.935699 1_555
Na3 O1 2.266509 1_555
Na3 O5 2.328252 1_455
Na3 O9 2.336490 1_555
Na3 O23 2.547032 1_455
Na3 O13 2.619736 1_555
Na3 O17 2.955455 1_555
Na4 O2 2.259823 1_555
Na4 O6 2.321738 1_655
Na4 O10 2.325219 1_555
Na4 O24 2.546233 1_655
Na4 O14 2.647442 1_555
Na4 O18 2.978654 1_555
Na5 O3 2.262778 1_555
Na5 O7 2.325704 1_655
Na5 O11 2.335266 1_555
Na5 O25 2.549561 1_655
Na5 O15 2.619923 1_555
Na5 O19 2.958795 1_555
Na6 O2 2.257483 1_554
Na6 O6 2.327310 1_655
Na6 O10 2.330861 1_555
Na6 O26 2.560324 1_654
Na6 O14 2.618806 1_555
Na6 O18 2.981066 1_554
Na7 O3 2.262935 1_554
Na7 O7 2.325774 1_655
Na7 O11 2.333007 1_555
Na7 O27 2.538578 1_654
Na7 O15 2.618209 1_555
Na7 O19 2.974618 1_554
Fe0 O9 2.089475 1_555
Fe0 O19 2.146513 1_555
Fe0 O13 2.183355 1_655
Fe0 O5 2.201605 1_555
Fe0 O21 2.214716 1_556
Fe0 O23 2.216926 1_555
Fe1 O10 2.087072 1_555
Fe1 O16 2.161897 1_555
Fe1 O14 2.163716 1_455
Fe1 O6 2.197724 1_555
Fe1 O26 2.204060 1_554
Fe1 O24 2.221807 1_555
Fe2 O8 2.097245 1_555
Fe2 O18 2.139465 1_555
Fe2 O4 2.185484 1_555
Fe2 O12 2.198604 1_655
Fe2 O22 2.214375 1_555
Fe2 O20 2.218374 1_556
Fe3 O11 2.091110 1_555
Fe3 O17 2.147717 1_555
Fe3 O15 2.186146 1_455
Fe3 O7 2.198408 1_555
Fe3 O27 2.215410 1_554
Fe3 O25 2.215493 1_555
C0 O3 1.264873 1_545
C0 O4 1.309614 1_555
C0 O8 1.326681 1_555
C1 O2 1.265335 1_555
C1 O5 1.307815 1_555
C1 O9 1.327269 1_555
C2 O1 1.265664 1_555
C2 O6 1.307134 1_555
C2 O10 1.329957 1_555
C3 O0 1.265105 1_565
C3 O7 1.308166 1_555
C3 O11 1.327810 1_555
O12 S2 1.499248 1_555
O13 S3 1.502162 1_555
O14 S0 1.505136 1_555
O15 S1 1.501596 1_555
O16 S0 1.503603 1_555
O17 S1 1.507390 1_555
O18 S2 1.508405 1_555
O19 S3 1.506988 1_555
O20 S0 1.483846 1_555
O21 S1 1.483985 1_555
O22 S0 1.484534 1_555
O23 S1 1.484071 1_555
O24 S2 1.485096 1_555
O25 S3 1.483972 1_555
O26 S2 1.485907 1_555
O27 S3 1.484005 1_555
