# generated using pymatgen
data_Ti2Sb(PO4)3
_symmetry_space_group_name_H-M   'P 1'
_cell_length_a   8.95807756
_cell_length_b   8.95807756
_cell_length_c   8.95807775
_cell_angle_alpha   58.05230247
_cell_angle_beta   58.05230247
_cell_angle_gamma   58.05230569
_symmetry_Int_Tables_number   1
_chemical_formula_structural   Ti2Sb(PO4)3
_chemical_formula_sum   'Ti4 Sb2 P6 O24'
_cell_volume   485.60708407
_cell_formula_units_Z   2
loop_
 _symmetry_equiv_pos_site_id
 _symmetry_equiv_pos_as_xyz
  1  'x, y, z'
loop_
 _atom_site_type_symbol
 _atom_site_label
 _atom_site_symmetry_multiplicity
 _atom_site_fract_x
 _atom_site_fract_y
 _atom_site_fract_z
 _atom_site_occupancy
  Ti  Ti0  1  0.14802900  0.14802900  0.14802900  1
  Ti  Ti1  1  0.35197100  0.35197100  0.35197100  1
  Ti  Ti2  1  0.64802900  0.64802900  0.64802900  1
  Ti  Ti3  1  0.85197100  0.85197100  0.85197100  1
  Sb  Sb0  1  0.00000000  0.00000000  0.00000000  1
  Sb  Sb1  1  0.50000000  0.50000000  0.50000000  1
  P  P0  1  0.45920100  0.75000000  0.04079900  1
  P  P1  1  0.75000000  0.04079900  0.45920100  1
  P  P2  1  0.04079900  0.45920100  0.75000000  1
  P  P3  1  0.95920100  0.54079900  0.25000000  1
  P  P4  1  0.25000000  0.95920100  0.54079900  1
  P  P5  1  0.54079900  0.25000000  0.95920100  1
  O  O0  1  0.50505300  0.30055800  0.11737500  1
  O  O1  1  0.11737500  0.50505300  0.30055800  1
  O  O2  1  0.26980900  0.91855200  0.06258800  1
  O  O3  1  0.30055800  0.11737500  0.50505300  1
  O  O4  1  0.61737500  0.80055800  0.00505300  1
  O  O5  1  0.43741200  0.58144800  0.23019100  1
  O  O6  1  0.91855200  0.06258800  0.26980900  1
  O  O7  1  0.58144800  0.23019100  0.43741200  1
  O  O8  1  0.99494700  0.38262500  0.19944200  1
  O  O9  1  0.23019100  0.43741200  0.58144800  1
  O  O10  1  0.93741200  0.73019100  0.08144800  1
  O  O11  1  0.19944200  0.99494700  0.38262500  1
  O  O12  1  0.80055800  0.00505300  0.61737500  1
  O  O13  1  0.06258800  0.26980900  0.91855200  1
  O  O14  1  0.76980900  0.56258800  0.41855200  1
  O  O15  1  0.00505300  0.61737500  0.80055800  1
  O  O16  1  0.41855200  0.76980900  0.56258800  1
  O  O17  1  0.08144800  0.93741200  0.73019100  1
  O  O18  1  0.56258800  0.41855200  0.76980900  1
  O  O19  1  0.38262500  0.19944200  0.99494700  1
  O  O20  1  0.69944200  0.88262500  0.49494700  1
  O  O21  1  0.73019100  0.08144800  0.93741200  1
  O  O22  1  0.88262500  0.49494700  0.69944200  1
  O  O23  1  0.49494700  0.69944200  0.88262500  1
loop_
_geom_bond_atom_site_label_1
_geom_bond_atom_site_label_2
_geom_bond_distance
_geom_bond_site_symmetry_2
O0 P5 1.536506 1_554
O0 Ti1 1.953233 1_555
O1 P3 1.536506 1_455
O1 Ti1 1.953233 1_555
O2 P0 1.564209 1_555
O2 Ti0 2.099971 1_565
O2 Sb0 2.413166 1_565
O3 P4 1.536506 1_545
O3 Ti1 1.953233 1_555
O4 P0 1.536506 1_555
O4 Ti3 1.953233 1_554
O5 P0 1.564209 1_555
O5 Ti1 2.099970 1_555
O5 Sb1 2.413166 1_555
O6 P1 1.564209 1_555
O6 Ti0 2.099970 1_655
O6 Sb0 2.413166 1_655
O7 P1 1.564209 1_555
O7 Ti1 2.099971 1_555
O7 Sb1 2.413166 1_555
O8 P3 1.536506 1_555
O8 Ti0 1.953233 1_655
O9 P2 1.564209 1_555
O9 Ti1 2.099971 1_555
O9 Sb1 2.413166 1_555
O10 P3 1.564209 1_555
O10 Ti3 2.099971 1_554
O10 Sb0 2.413166 1_665
O11 P4 1.536506 1_555
O11 Ti0 1.953233 1_565
O12 P1 1.536506 1_555
O12 Ti3 1.953233 1_545
O13 P2 1.564209 1_555
O13 Ti0 2.099971 1_556
O13 Sb0 2.413166 1_556
O14 P3 1.564209 1_555
O14 Ti2 2.099971 1_555
O14 Sb1 2.413166 1_555
O15 P2 1.536506 1_555
O15 Ti3 1.953233 1_455
O16 P4 1.564209 1_555
O16 Ti2 2.099971 1_555
O16 Sb1 2.413166 1_555
O17 P4 1.564209 1_555
O17 Ti3 2.099970 1_455
O17 Sb0 2.413166 1_566
O18 P5 1.564209 1_555
O18 Ti2 2.099970 1_555
O18 Sb1 2.413166 1_555
O19 P5 1.536506 1_555
O19 Ti0 1.953233 1_556
O20 P1 1.536506 1_565
O20 Ti2 1.953233 1_555
O21 P5 1.564209 1_555
O21 Ti3 2.099971 1_545
O21 Sb0 2.413166 1_656
O22 P2 1.536506 1_655
O22 Ti2 1.953233 1_555
O23 P0 1.536506 1_556
O23 Ti2 1.953233 1_555
