# generated using pymatgen
data_V4OF11
_symmetry_space_group_name_H-M   'P 1'
_cell_length_a   5.07364349
_cell_length_b   5.30645205
_cell_length_c   16.87634189
_cell_angle_alpha   88.14332471
_cell_angle_beta   98.75840583
_cell_angle_gamma   118.04578015
_symmetry_Int_Tables_number   1
_chemical_formula_structural   V4OF11
_chemical_formula_sum   'V8 O2 F22'
_cell_volume   395.93137318
_cell_formula_units_Z   2
loop_
 _symmetry_equiv_pos_site_id
 _symmetry_equiv_pos_as_xyz
  1  'x, y, z'
loop_
 _atom_site_type_symbol
 _atom_site_label
 _atom_site_symmetry_multiplicity
 _atom_site_fract_x
 _atom_site_fract_y
 _atom_site_fract_z
 _atom_site_occupancy
  V  V0  1  0.23481142  0.61506812  0.87748520  1
  V  V1  1  0.25501614  0.12236616  0.37539230  1
  V  V2  1  0.49608451  0.24664423  0.75128297  1
  V  V3  1  0.50685298  0.74606371  0.24491354  1
  V  V4  1  0.75013458  0.87236952  0.62609408  1
  V  V5  1  0.73676674  0.39890842  0.12374063  1
  V  V6  1  0.99099339  0.02861033  0.99537232  1
  V  V7  1  0.00338733  0.49830974  0.50089756  1
  O  O0  1  0.02695880  0.30603289  0.93870034  1
  O  O1  1  0.59405841  0.58717534  0.16242804  1
  F  F0  1  0.06098900  0.83765578  0.90806391  1
  F  F1  1  0.00345223  0.80421705  0.43865009  1
  F  F2  1  0.49310021  0.94278146  0.81492348  1
  F  F3  1  0.05466810  0.02312371  0.71880413  1
  F  F4  1  0.07153378  0.33798905  0.41022355  1
  F  F5  1  0.08260032  0.53751638  0.21173387  1
  F  F6  1  0.55766249  0.78246155  0.96662393  1
  F  F7  1  0.43481187  0.41733814  0.84079323  1
  F  F8  1  0.42322058  0.90080761  0.33993628  1
  F  F9  1  0.44372524  0.72316796  0.53381398  1
  F  F10  1  0.49551704  0.55078351  0.68750951  1
  F  F11  1  0.49597891  0.44332573  0.31148663  1
  F  F12  1  0.56418379  0.08688758  0.66039624  1
  F  F13  1  0.56318293  0.27272195  0.46744925  1
  F  F14  1  0.42639406  0.20495221  0.03339008  1
  F  F15  1  0.93218649  0.65453946  0.59260974  1
  F  F16  1  0.93882628  0.47129128  0.78397767  1
  F  F17  1  0.93258957  0.97157821  0.28482840  1
  F  F18  1  0.52256672  0.06506140  0.18726249  1
  F  F19  1  0.97900792  0.69258016  0.05659324  1
  F  F20  1  0.00340681  0.19201047  0.56388213  1
  F  F21  1  0.92533034  0.16566188  0.09073719  1
loop_
_geom_bond_atom_site_label_1
_geom_bond_atom_site_label_2
_geom_bond_distance
_geom_bond_site_symmetry_2
O0 V6 1.680626 1_455
O0 V0 1.861285 1_555
O1 V5 1.677804 1_555
O1 V3 1.859802 1_555
F0 V0 1.896534 1_555
F0 V6 1.979498 1_465
F1 V7 1.904657 1_555
F1 V1 1.972516 1_565
F2 V2 1.903540 1_565
F2 V0 2.003892 1_555
F3 V4 1.912552 1_445
F3 V2 1.973167 1_555
F4 V7 1.925363 1_555
F4 V1 1.932146 1_555
F5 V3 1.898581 1_555
F5 V5 1.971965 1_455
F6 V0 1.924352 1_555
F6 V6 1.947042 1_565
F7 V2 1.922362 1_555
F7 V0 1.936152 1_555
F8 V1 1.900841 1_565
F8 V3 2.011509 1_555
F9 V4 1.911588 1_555
F9 V7 1.970241 1_555
F10 V2 1.911517 1_555
F10 V4 1.968586 1_555
F11 V3 1.914321 1_555
F11 V1 1.970544 1_555
F12 V2 1.926597 1_555
F12 V4 1.933890 1_545
F13 V1 1.913723 1_555
F13 V7 1.971194 1_655
F14 V5 1.926243 1_555
F14 V6 1.957216 1_454
F15 V4 1.927142 1_555
F15 V7 1.936080 1_655
F16 V0 1.899072 1_655
F16 V2 1.979527 1_555
F17 V3 1.931317 1_555
F17 V1 1.933715 1_665
F18 V3 1.899566 1_545
F18 V5 1.972300 1_555
F19 V5 1.931796 1_555
F19 V6 2.012090 1_564
F20 V7 1.913069 1_555
F20 V4 1.968861 1_445
F21 V6 1.922774 1_554
F21 V5 2.019376 1_555
