# generated using pymatgen
data_Li2TiCo2O5
_symmetry_space_group_name_H-M   'P 1'
_cell_length_a   7.78238886
_cell_length_b   7.78238886
_cell_length_c   5.25637924
_cell_angle_alpha   82.74768872
_cell_angle_beta   82.74768872
_cell_angle_gamma   140.79317830
_symmetry_Int_Tables_number   1
_chemical_formula_structural   Li2TiCo2O5
_chemical_formula_sum   'Li4 Ti2 Co4 O10'
_cell_volume   186.45099092
_cell_formula_units_Z   2
loop_
 _symmetry_equiv_pos_site_id
 _symmetry_equiv_pos_as_xyz
  1  'x, y, z'
loop_
 _atom_site_type_symbol
 _atom_site_label
 _atom_site_symmetry_multiplicity
 _atom_site_fract_x
 _atom_site_fract_y
 _atom_site_fract_z
 _atom_site_occupancy
  Li  Li0  1  0.10238400  0.89761600  0.00000000  1
  Li  Li1  1  0.20139800  0.79860200  0.50000000  1
  Li  Li2  1  0.50023800  0.49976200  0.00000000  1
  Li  Li3  1  0.79786600  0.20213400  0.50000000  1
  Ti  Ti0  1  0.69505500  0.30494500  0.00000000  1
  Ti  Ti1  1  0.99812100  0.00187900  0.50000000  1
  Co  Co0  1  0.30009600  0.69990400  0.00000000  1
  Co  Co1  1  0.39504600  0.60495400  0.50000000  1
  Co  Co2  1  0.90117600  0.09882400  0.00000000  1
  Co  Co3  1  0.60355400  0.39644600  0.50000000  1
  O  O0  1  0.15095000  0.33558300  0.26333300  1
  O  O1  1  0.04115300  0.44788000  0.76685300  1
  O  O2  1  0.35259800  0.15090200  0.25063600  1
  O  O3  1  0.55212000  0.95884700  0.23314700  1
  O  O4  1  0.66441700  0.84905000  0.73666700  1
  O  O5  1  0.22897600  0.22935100  0.72922500  1
  O  O6  1  0.47619800  0.07629500  0.77476300  1
  O  O7  1  0.77064900  0.77102400  0.27077500  1
  O  O8  1  0.92370500  0.52380200  0.22523700  1
  O  O9  1  0.84909800  0.64740200  0.74936400  1
loop_
_geom_bond_atom_site_label_1
_geom_bond_atom_site_label_2
_geom_bond_distance
_geom_bond_site_symmetry_2
Li0 O8 2.060120 1_455
Li0 O6 2.060120 1_564
Li0 O7 2.106668 1_455
Li0 O5 2.106668 1_564
Li0 O9 2.183542 1_454
Li0 O2 2.183542 1_565
Li1 O1 2.071057 1_555
Li1 O3 2.071057 1_555
Li1 O9 2.079254 1_455
Li1 O2 2.079254 1_565
Li1 O6 2.394839 1_565
Li1 O8 2.394839 1_455
Li2 O4 2.039262 1_554
Li2 O0 2.039262 1_555
Li2 O2 2.075390 1_555
Li2 O9 2.075390 1_554
Li2 O5 2.353934 1_554
Li2 O7 2.353934 1_555
Li3 O8 2.059718 1_555
Li3 O6 2.059718 1_555
Li3 O0 2.136566 1_655
Li3 O4 2.136566 1_545
Li3 O3 2.223985 1_545
Li3 O1 2.223985 1_655
Co0 O8 2.086536 1_455
Co0 O6 2.086536 1_564
Co0 O1 2.124813 1_554
Co0 O3 2.124813 1_555
Co0 O0 2.192132 1_555
Co0 O4 2.192132 1_554
Co1 O3 2.102688 1_555
Co1 O1 2.102688 1_555
Co1 O7 2.128256 1_555
Co1 O5 2.128256 1_555
Co1 O4 2.152773 1_555
Co1 O0 2.152773 1_555
Co2 O7 2.065872 1_545
Co2 O5 2.065872 1_654
Co2 O3 2.074676 1_545
Co2 O1 2.074676 1_654
Co2 O4 2.205022 1_544
Co2 O0 2.205022 1_655
Co3 O6 2.044276 1_555
Co3 O8 2.044276 1_555
Co3 O7 2.117434 1_555
Co3 O5 2.117434 1_555
Co3 O2 2.163096 1_555
Co3 O9 2.163096 1_555
O0 Ti1 1.931461 1_455
O1 Ti0 2.042841 1_456
O2 Ti0 2.009742 1_555
O2 Ti1 2.102008 1_455
O3 Ti0 2.042841 1_565
O4 Ti1 1.931461 1_565
O5 Ti1 1.992382 1_455
O6 Ti0 1.952737 1_556
O7 Ti1 1.992382 1_565
O8 Ti0 1.952737 1_555
O9 Ti0 2.009742 1_556
O9 Ti1 2.102008 1_565
