# generated using pymatgen
data_LiFePO4
_symmetry_space_group_name_H-M   'P 1'
_cell_length_a   8.04491200
_cell_length_b   8.75398600
_cell_length_c   17.57938580
_cell_angle_alpha   60.25080847
_cell_angle_beta   90.00000000
_cell_angle_gamma   90.00000000
_symmetry_Int_Tables_number   1
_chemical_formula_structural   LiFePO4
_chemical_formula_sum   'Li12 Fe12 P12 O48'
_cell_volume   1074.86404076
_cell_formula_units_Z   12
loop_
 _symmetry_equiv_pos_site_id
 _symmetry_equiv_pos_as_xyz
  1  'x, y, z'
loop_
 _atom_site_type_symbol
 _atom_site_label
 _atom_site_symmetry_multiplicity
 _atom_site_fract_x
 _atom_site_fract_y
 _atom_site_fract_z
 _atom_site_occupancy
  Li  Li0  1  0.33111300  0.50259700  0.74966300  1
  Li  Li1  1  0.66888700  0.49740300  0.25033700  1
  Li  Li2  1  0.16888700  0.50259700  0.24966300  1
  Li  Li3  1  0.83111300  0.49740300  0.75033700  1
  Li  Li4  1  0.96101700  0.79230100  0.44238600  1
  Li  Li5  1  0.45984100  0.14505100  0.59640200  1
  Li  Li6  1  0.46101700  0.20769900  0.05761400  1
  Li  Li7  1  0.53898300  0.79230100  0.94238600  1
  Li  Li8  1  0.04015900  0.14505100  0.09640200  1
  Li  Li9  1  0.54015900  0.85494900  0.40359800  1
  Li  Li10  1  0.95984200  0.85494900  0.90359800  1
  Li  Li11  1  0.03898300  0.20769900  0.55761400  1
  Fe  Fe0  1  0.21719300  0.81823200  0.27280100  1
  Fe  Fe1  1  0.22692700  0.54505200  0.07106700  1
  Fe  Fe2  1  0.71719300  0.18176800  0.22719900  1
  Fe  Fe3  1  0.73451100  0.86466800  0.09663500  1
  Fe  Fe4  1  0.27307300  0.54505200  0.57106700  1
  Fe  Fe5  1  0.76548900  0.86466800  0.59663500  1
  Fe  Fe6  1  0.72692700  0.45494800  0.42893300  1
  Fe  Fe7  1  0.78280700  0.18176800  0.72719900  1
  Fe  Fe8  1  0.28280700  0.81823200  0.77280100  1
  Fe  Fe9  1  0.77307300  0.45494800  0.92893300  1
  Fe  Fe10  1  0.23451100  0.13533200  0.40336500  1
  Fe  Fe11  1  0.26548900  0.13533200  0.90336500  1
  P  P0  1  0.82794500  0.81439300  0.27649700  1
  P  P1  1  0.66966800  0.54077300  0.57392200  1
  P  P2  1  0.33483300  0.85804700  0.09299600  1
  P  P3  1  0.16516700  0.85804700  0.59299600  1
  P  P4  1  0.66516700  0.14195300  0.90700400  1
  P  P5  1  0.32794500  0.18560700  0.22350300  1
  P  P6  1  0.83033200  0.54077300  0.07392200  1
  P  P7  1  0.16966800  0.45922700  0.92607800  1
  P  P8  1  0.67205500  0.81439300  0.77649700  1
  P  P9  1  0.17205500  0.18560700  0.72350300  1
  P  P10  1  0.83483300  0.14195300  0.40700400  1
  P  P11  1  0.33033200  0.45922700  0.42607800  1
  O  O0  1  0.29239300  0.08232800  0.69606900  1
  O  O1  1  0.24171800  0.73791900  0.18054500  1
  O  O2  1  0.62572100  0.24975700  0.95391100  1
  O  O3  1  0.00951000  0.22344600  0.66927500  1
  O  O4  1  0.50191100  0.07170700  0.88870700  1
  O  O5  1  0.75828200  0.26208100  0.81945500  1
  O  O6  1  0.78559400  0.58602100  0.49439700  1
  O  O7  1  0.74171800  0.26208100  0.31945500  1
  O  O8  1  0.13492400  0.66027500  0.87315500  1
  O  O9  1  0.75443100  0.60137000  0.63409400  1
  O  O10  1  0.99519900  0.64454800  0.03658100  1
  O  O11  1  0.49519900  0.35545200  0.46341900  1
  O  O12  1  0.86833600  0.92372400  0.17632200  1
  O  O13  1  0.00191100  0.92829300  0.61129300  1
  O  O14  1  0.99049000  0.77655400  0.33072500  1
  O  O15  1  0.25443100  0.39863000  0.86590600  1
  O  O16  1  0.99808900  0.07170700  0.38870700  1
  O  O17  1  0.36833600  0.07627600  0.32367800  1
  O  O18  1  0.36507600  0.66027500  0.37315500  1
  O  O19  1  0.72385600  0.97964400  0.46594900  1
  O  O20  1  0.37427900  0.75024300  0.04608900  1
  O  O21  1  0.71440600  0.58602100  0.99439700  1
  O  O22  1  0.74556900  0.60137000  0.13409400  1
  O  O23  1  0.74533000  0.63742700  0.29718000  1
  O  O24  1  0.49049000  0.22344600  0.16927500  1
  O  O25  1  0.20760700  0.08232800  0.19606900  1
  O  O26  1  0.28559400  0.41397900  0.00560300  1
  O  O27  1  0.49808900  0.92829300  0.11129300  1
  O  O28  1  0.87427900  0.24975700  0.45391100  1
  O  O29  1  0.75467000  0.63742700  0.79718000  1
  O  O30  1  0.22385600  0.02035600  0.03405100  1
  O  O31  1  0.63492400  0.33972500  0.62684500  1
  O  O32  1  0.50951000  0.77655400  0.83072500  1
  O  O33  1  0.25467000  0.36257300  0.70282000  1
  O  O34  1  0.77614400  0.97964400  0.96594900  1
  O  O35  1  0.13166400  0.07627600  0.82367800  1
  O  O36  1  0.12572100  0.75024300  0.54608900  1
  O  O37  1  0.70760700  0.91767200  0.30393100  1
  O  O38  1  0.24556900  0.39863000  0.36590600  1
  O  O39  1  0.79239300  0.91767200  0.80393100  1
  O  O40  1  0.21440600  0.41397900  0.50560300  1
  O  O41  1  0.86507600  0.33972500  0.12684500  1
  O  O42  1  0.00480100  0.35545200  0.96341900  1
  O  O43  1  0.24533000  0.36257300  0.20282000  1
  O  O44  1  0.25828200  0.73791900  0.68054500  1
  O  O45  1  0.63166400  0.92372400  0.67632200  1
  O  O46  1  0.27614400  0.02035600  0.53405100  1
  O  O47  1  0.50480100  0.64454800  0.53658100  1
loop_
_geom_bond_atom_site_label_1
_geom_bond_atom_site_label_2
_geom_bond_distance
_geom_bond_site_symmetry_2
Li0 O15 1.881223 1_555
Li0 O33 1.886937 1_555
Li0 O44 1.891894 1_555
Li1 O22 1.881223 1_555
Li1 O23 1.886937 1_555
Li1 O7 1.891894 1_555
Li2 O38 1.881223 1_555
Li2 O43 1.886937 1_555
Li2 O1 1.891894 1_555
Li3 O9 1.881223 1_555
Li3 O29 1.886937 1_555
Li3 O5 1.891894 1_555
Li4 O14 2.048623 1_555
Li4 O6 2.109487 1_555
Li4 O36 2.132747 1_655
Li4 O16 2.161334 1_565
Li5 O0 2.057000 1_555
Li5 O11 2.159936 1_555
Li5 O45 2.221959 1_545
Li5 O46 2.400900 1_555
Li5 O31 2.465697 1_555
Li6 O24 2.048623 1_555
Li6 O26 2.109487 1_555
Li6 O2 2.132747 1_554
Li6 O27 2.161334 1_545
Li7 O32 2.048623 1_555
Li7 O21 2.109487 1_555
Li7 O20 2.132747 1_556
Li7 O4 2.161334 1_565
Li8 O25 2.057000 1_555
Li8 O42 2.159936 1_554
Li8 O12 2.221959 1_445
Li8 O30 2.400900 1_555
Li8 O41 2.465697 1_455
Li9 O37 2.057000 1_555
Li9 O47 2.159936 1_555
Li9 O17 2.221959 1_565
Li9 O19 2.400900 1_555
Li9 O18 2.465697 1_555
Li10 O39 2.057006 1_555
Li10 O10 2.159935 1_556
Li10 O35 2.221953 1_665
Li10 O34 2.400905 1_555
Li10 O8 2.465692 1_655
Li11 O3 2.048623 1_555
Li11 O40 2.109487 1_555
Li11 O28 2.132747 1_455
Li11 O13 2.161334 1_545
Fe0 O18 2.004692 1_555
Fe0 O25 2.018784 1_565
Fe0 O14 2.031639 1_455
Fe0 O1 2.072447 1_555
Fe1 O20 2.010422 1_555
Fe1 O10 2.019279 1_455
Fe1 O26 2.043067 1_555
Fe1 O43 2.065527 1_555
Fe2 O41 2.004692 1_555
Fe2 O37 2.018784 1_545
Fe2 O24 2.031639 1_555
Fe2 O7 2.072447 1_555
Fe3 O12 2.026681 1_555
Fe3 O34 2.026923 1_554
Fe3 O27 2.033870 1_555
Fe3 O22 2.061036 1_555
Fe4 O36 2.010422 1_555
Fe4 O47 2.019279 1_555
Fe4 O40 2.043067 1_555
Fe4 O33 2.065527 1_555
Fe5 O45 2.026681 1_555
Fe5 O19 2.026923 1_555
Fe5 O13 2.033870 1_655
Fe5 O9 2.061036 1_555
Fe6 O28 2.010422 1_555
Fe6 O11 2.019279 1_555
Fe6 O6 2.043067 1_555
Fe6 O23 2.065527 1_555
Fe7 O31 2.004692 1_555
Fe7 O39 2.018784 1_545
Fe7 O3 2.031639 1_655
Fe7 O5 2.072447 1_555
Fe8 O8 2.004692 1_555
Fe8 O0 2.018784 1_565
Fe8 O32 2.031639 1_555
Fe8 O44 2.072447 1_555
Fe9 O2 2.010422 1_555
Fe9 O42 2.019279 1_655
Fe9 O21 2.043067 1_555
Fe9 O29 2.065527 1_555
Fe10 O17 2.026681 1_555
Fe10 O46 2.026923 1_555
Fe10 O16 2.033870 1_455
Fe10 O38 2.061036 1_555
Fe11 O35 2.026681 1_555
Fe11 O30 2.026923 1_556
Fe11 O4 2.033870 1_555
Fe11 O15 2.061036 1_555
O0 P9 1.555615 1_555
O1 P2 1.558694 1_555
O2 P4 1.563182 1_555
O3 P9 1.554057 1_555
O4 P4 1.550116 1_555
O5 P4 1.558694 1_555
O6 P1 1.559335 1_555
O7 P10 1.558694 1_555
O8 P7 1.554419 1_555
O9 P1 1.556332 1_555
O10 P6 1.556775 1_555
O11 P11 1.556775 1_555
O12 P0 1.565288 1_555
O13 P3 1.550116 1_555
O14 P0 1.554057 1_555
O15 P7 1.556332 1_555
O16 P10 1.550116 1_555
O17 P5 1.565288 1_555
O18 P11 1.554419 1_555
O19 P10 1.558372 1_565
O20 P2 1.563182 1_555
O21 P6 1.559335 1_556
O22 P6 1.556332 1_555
O23 P0 1.553974 1_555
O24 P5 1.554057 1_555
O25 P5 1.555615 1_555
O26 P7 1.559335 1_554
O27 P2 1.550116 1_555
O28 P10 1.563182 1_555
O29 P8 1.553974 1_555
O30 P2 1.558372 1_545
O31 P1 1.554419 1_555
O32 P8 1.554057 1_555
O33 P9 1.553974 1_555
O34 P4 1.558372 1_565
O35 P9 1.565288 1_555
O36 P3 1.563182 1_555
O37 P0 1.555615 1_555
O38 P11 1.556332 1_555
O39 P8 1.555615 1_555
O40 P11 1.559335 1_555
O41 P6 1.554419 1_555
O42 P7 1.556775 1_555
O43 P5 1.553974 1_555
O44 P3 1.558694 1_555
O45 P8 1.565288 1_555
O46 P3 1.558372 1_545
O47 P1 1.556775 1_555
