# generated using pymatgen
data_LiFeSiO4
_symmetry_space_group_name_H-M   'P 1'
_cell_length_a   5.73247300
_cell_length_b   5.73241900
_cell_length_c   8.06375500
_cell_angle_alpha   90.00000000
_cell_angle_beta   90.00065668
_cell_angle_gamma   89.99930035
_symmetry_Int_Tables_number   1
_chemical_formula_structural   LiFeSiO4
_chemical_formula_sum   'Li4 Fe4 Si4 O16'
_cell_volume   264.98254617
_cell_formula_units_Z   4
loop_
 _symmetry_equiv_pos_site_id
 _symmetry_equiv_pos_as_xyz
  1  'x, y, z'
loop_
 _atom_site_type_symbol
 _atom_site_label
 _atom_site_symmetry_multiplicity
 _atom_site_fract_x
 _atom_site_fract_y
 _atom_site_fract_z
 _atom_site_occupancy
  Li  Li0  1  0.00000000  0.22077200  0.99999800  1
  Li  Li1  1  0.00000100  0.77922500  0.49999600  1
  Li  Li2  1  0.22078200  0.00000200  0.25000200  1
  Li  Li3  1  0.77922000  0.00000300  0.75000100  1
  Fe  Fe0  1  0.50004900  0.77452000  0.50005500  1
  Fe  Fe1  1  0.77454300  0.50005700  0.74995700  1
  Fe  Fe2  1  0.22542900  0.49994800  0.24995000  1
  Fe  Fe3  1  0.49995000  0.22544800  0.00005000  1
  Si  Si0  1  0.25643200  0.25642600  0.62500200  1
  Si  Si1  1  0.25646200  0.74355000  0.87500000  1
  Si  Si2  1  0.74354600  0.25645100  0.37499900  1
  Si  Si3  1  0.74356000  0.74357100  0.12499900  1
  O  O0  1  0.98254200  0.25838900  0.26047900  1
  O  O1  1  0.98252600  0.74163100  0.23954100  1
  O  O2  1  0.25839700  0.98255000  0.98951600  1
  O  O3  1  0.25837000  0.01747500  0.51045400  1
  O  O4  1  0.74161400  0.01745800  0.48951600  1
  O  O5  1  0.74162400  0.98253000  0.01045500  1
  O  O6  1  0.01748300  0.25836700  0.73954700  1
  O  O7  1  0.01746400  0.74162100  0.76048600  1
  O  O8  1  0.25934800  0.49486200  0.50126800  1
  O  O9  1  0.25930600  0.50515600  0.99866800  1
  O  O10  1  0.50515700  0.25930900  0.25132700  1
  O  O11  1  0.50512900  0.74064700  0.24872500  1
  O  O12  1  0.49486800  0.25935500  0.74873500  1
  O  O13  1  0.49484900  0.74070100  0.75133800  1
  O  O14  1  0.74070300  0.49484200  0.49866300  1
  O  O15  1  0.74064500  0.50513200  0.00127000  1
loop_
_geom_bond_atom_site_label_1
_geom_bond_atom_site_label_2
_geom_bond_distance
_geom_bond_site_symmetry_2
Li0 O2 2.016443 1_545
Li0 O5 2.016448 1_446
Li0 O6 2.113620 1_555
Li0 O0 2.113866 1_456
Li0 O9 2.206203 1_555
Li0 O15 2.206261 1_456
Li1 O4 2.016441 1_465
Li1 O3 2.016449 1_565
Li1 O1 2.113647 1_455
Li1 O7 2.113930 1_555
Li1 O14 2.206168 1_455
Li1 O8 2.206243 1_555
Li2 O0 2.016467 1_455
Li2 O1 2.016480 1_445
Li2 O3 2.113618 1_555
Li2 O2 2.113905 1_544
Li2 O10 2.206170 1_555
Li2 O11 2.206208 1_545
Li3 O7 2.016463 1_645
Li3 O6 2.016477 1_655
Li3 O5 2.113643 1_546
Li3 O4 2.113887 1_555
Li3 O13 2.206134 1_545
Li3 O12 2.206217 1_555
Fe0 O4 1.965768 1_565
Fe0 O3 1.966225 1_565
Fe0 O13 2.035756 1_555
Fe0 O11 2.036153 1_555
Fe0 O14 2.115079 1_555
Fe0 O8 2.115187 1_555
Fe1 O7 1.965690 1_655
Fe1 O6 1.966212 1_655
Fe1 O14 2.035855 1_555
Fe1 O15 2.036032 1_556
Fe1 O13 2.115114 1_555
Fe1 O12 2.115267 1_555
Fe2 O0 1.965533 1_455
Fe2 O1 1.966032 1_455
Fe2 O9 2.035782 1_554
Fe2 O8 2.036080 1_555
Fe2 O10 2.115243 1_555
Fe2 O11 2.115365 1_555
Fe3 O2 1.965554 1_544
Fe3 O5 1.966055 1_545
Fe3 O10 2.035731 1_555
Fe3 O12 2.036050 1_554
Fe3 O9 2.115172 1_554
Fe3 O15 2.115277 1_555
O0 Si2 1.652252 1_555
O1 Si3 1.652191 1_555
O2 Si1 1.652234 1_555
O3 Si0 1.652145 1_555
O4 Si2 1.652205 1_555
O5 Si3 1.652165 1_555
O6 Si0 1.652142 1_555
O7 Si1 1.652217 1_555
O8 Si0 1.692333 1_555
O9 Si1 1.691820 1_555
O10 Si2 1.691818 1_555
O11 Si3 1.692292 1_555
O12 Si0 1.692330 1_555
O13 Si1 1.691779 1_555
O14 Si2 1.691787 1_555
O15 Si3 1.692323 1_555
