# generated using pymatgen
data_Ta2CrNO5
_symmetry_space_group_name_H-M   'P 1'
_cell_length_a   4.76012200
_cell_length_b   9.25930751
_cell_length_c   9.53085918
_cell_angle_alpha   90.40384299
_cell_angle_beta   89.99988580
_cell_angle_gamma   89.99995139
_symmetry_Int_Tables_number   1
_chemical_formula_structural   Ta2CrNO5
_chemical_formula_sum   'Ta8 Cr4 N4 O20'
_cell_volume   420.06631408
_cell_formula_units_Z   4
loop_
 _symmetry_equiv_pos_site_id
 _symmetry_equiv_pos_as_xyz
  1  'x, y, z'
loop_
 _atom_site_type_symbol
 _atom_site_label
 _atom_site_symmetry_multiplicity
 _atom_site_fract_x
 _atom_site_fract_y
 _atom_site_fract_z
 _atom_site_occupancy
  Ta  Ta0  1  0.99468700  0.33914700  0.00150400  1
  Ta  Ta1  1  0.99469000  0.33915400  0.50151300  1
  Ta  Ta2  1  0.49468500  0.16084400  0.24849200  1
  Ta  Ta3  1  0.49468600  0.16085400  0.74849300  1
  Ta  Ta4  1  0.99928800  0.68310900  0.49113800  1
  Ta  Ta5  1  0.99928600  0.68310900  0.99115300  1
  Ta  Ta6  1  0.49929000  0.81688100  0.25885800  1
  Ta  Ta7  1  0.49928600  0.81690100  0.75885300  1
  Cr  Cr0  1  0.00030300  0.00282100  0.99911900  1
  Cr  Cr1  1  0.50031700  0.49718600  0.75088800  1
  Cr  Cr2  1  0.00035000  0.00284100  0.49910400  1
  Cr  Cr3  1  0.50035800  0.49715500  0.25088800  1
  N  N0  1  0.70053600  0.66337400  0.34821200  1
  N  N1  1  0.70053900  0.66339000  0.84821900  1
  N  N2  1  0.20053200  0.83662000  0.40178400  1
  N  N3  1  0.20052800  0.83661500  0.90178500  1
  O  O0  1  0.80493500  0.49278400  0.10040400  1
  O  O1  1  0.80493200  0.49278600  0.60039800  1
  O  O2  1  0.30492900  0.00721400  0.14960300  1
  O  O3  1  0.30493300  0.00721400  0.64959500  1
  O  O4  1  0.80575600  0.83552700  0.09897000  1
  O  O5  1  0.80576400  0.83551900  0.59896000  1
  O  O6  1  0.30577000  0.66447600  0.15103300  1
  O  O7  1  0.30577500  0.66448100  0.65103000  1
  O  O8  1  0.80143300  0.17305100  0.09877500  1
  O  O9  1  0.80143700  0.17305300  0.59877100  1
  O  O10  1  0.30143600  0.32694500  0.15122800  1
  O  O11  1  0.30143400  0.32695000  0.65122600  1
  O  O12  1  0.69528100  0.00363800  0.34463400  1
  O  O13  1  0.69528500  0.00363400  0.84463300  1
  O  O14  1  0.19528400  0.49636100  0.40536600  1
  O  O15  1  0.19528600  0.49636800  0.90536900  1
  O  O16  1  0.69774300  0.32844400  0.34964500  1
  O  O17  1  0.69774300  0.32844900  0.84964600  1
  O  O18  1  0.19774300  0.17155400  0.40035500  1
  O  O19  1  0.19774200  0.17155100  0.90035500  1
loop_
_geom_bond_atom_site_label_1
_geom_bond_atom_site_label_2
_geom_bond_distance
_geom_bond_site_symmetry_2
Cr0 N3 2.029093 1_545
Cr0 O2 2.039744 1_556
Cr0 O4 2.045368 1_446
Cr0 O19 2.056922 1_555
Cr0 O8 2.064366 1_456
Cr0 O13 2.067902 1_455
Cr1 N1 2.029062 1_555
Cr1 O1 2.039744 1_555
Cr1 O7 2.045397 1_555
Cr1 O17 2.056917 1_555
Cr1 O11 2.064465 1_555
Cr1 O15 2.067907 1_555
Cr2 N2 2.029041 1_545
Cr2 O3 2.039643 1_555
Cr2 O5 2.045672 1_445
Cr2 O18 2.056635 1_555
Cr2 O9 2.064380 1_455
Cr2 O12 2.067962 1_455
Cr3 N0 2.029039 1_555
Cr3 O0 2.039571 1_555
Cr3 O6 2.045665 1_555
Cr3 O16 2.056640 1_555
Cr3 O10 2.064359 1_555
Cr3 O14 2.068029 1_555
N0 Ta6 1.918408 1_555
N0 Ta4 1.976830 1_555
N1 Ta7 1.918503 1_555
N1 Ta5 1.976852 1_555
N2 Ta4 1.918430 1_455
N2 Ta6 1.976850 1_555
N3 Ta5 1.918451 1_455
N3 Ta7 1.976869 1_555
O0 Ta0 1.925915 1_555
O0 Ta5 2.252016 1_554
O1 Ta1 1.925825 1_555
O1 Ta4 2.252051 1_555
O2 Ta2 1.925829 1_555
O2 Ta6 2.252112 1_545
O3 Ta3 1.925932 1_555
O3 Ta7 2.251964 1_545
O4 Ta5 1.968724 1_554
O4 Ta6 2.117506 1_555
O5 Ta4 1.968682 1_555
O5 Ta7 2.117557 1_555
O6 Ta6 1.968658 1_555
O6 Ta5 2.117503 1_454
O7 Ta7 1.968727 1_555
O7 Ta4 2.117592 1_455
O8 Ta0 2.022634 1_555
O8 Ta2 2.045296 1_555
O9 Ta1 2.022610 1_555
O9 Ta3 2.045335 1_555
O10 Ta2 2.022628 1_555
O10 Ta0 2.045347 1_455
O11 Ta3 2.022612 1_555
O11 Ta1 2.045258 1_455
O12 Ta2 1.972061 1_555
O12 Ta6 2.123456 1_545
O13 Ta3 1.972155 1_555
O13 Ta7 2.123307 1_545
O14 Ta1 1.972085 1_455
O14 Ta4 2.123382 1_455
O15 Ta0 1.972139 1_456
O15 Ta5 2.123381 1_455
O16 Ta1 2.025061 1_555
O16 Ta2 2.061772 1_555
O17 Ta0 2.024978 1_556
O17 Ta3 2.061735 1_555
O18 Ta2 2.025007 1_555
O18 Ta1 2.061780 1_455
O19 Ta3 2.025001 1_555
O19 Ta0 2.061717 1_456
