# generated using pymatgen
data_VOF2
_symmetry_space_group_name_H-M   'P 1'
_cell_length_a   5.19584100
_cell_length_b   5.23758361
_cell_length_c   13.38898064
_cell_angle_alpha   88.76302776
_cell_angle_beta   89.33783698
_cell_angle_gamma   60.28317585
_symmetry_Int_Tables_number   1
_chemical_formula_structural   VOF2
_chemical_formula_sum   'V6 O6 F12'
_cell_volume   316.37031255
_cell_formula_units_Z   6
loop_
 _symmetry_equiv_pos_site_id
 _symmetry_equiv_pos_as_xyz
  1  'x, y, z'
loop_
 _atom_site_type_symbol
 _atom_site_label
 _atom_site_symmetry_multiplicity
 _atom_site_fract_x
 _atom_site_fract_y
 _atom_site_fract_z
 _atom_site_occupancy
  V  V0  1  0.00000000  0.00000000  0.50000000  1
  V  V1  1  0.00000000  0.00000000  0.00000000  1
  V  V2  1  0.37935300  0.34946500  0.83317000  1
  V  V3  1  0.69862000  0.66706400  0.66302900  1
  V  V4  1  0.30138000  0.33293600  0.33697100  1
  V  V5  1  0.62064700  0.65053500  0.16683000  1
  O  O0  1  0.66399100  0.24744400  0.91381100  1
  O  O1  1  0.91229700  0.74782000  0.58764600  1
  O  O2  1  0.56730300  0.43013000  0.24729500  1
  O  O3  1  0.43269700  0.56987000  0.75270500  1
  O  O4  1  0.08770300  0.25218000  0.41235400  1
  O  O5  1  0.33600900  0.75255600  0.08618900  1
  F  F0  1  0.02186900  0.39843000  0.75232000  1
  F  F1  1  0.59917300  0.99617100  0.75531500  1
  F  F2  1  0.66643000  0.06955600  0.41118100  1
  F  F3  1  0.91411500  0.35265900  0.08593900  1
  F  F4  1  0.73619300  0.33841100  0.58334300  1
  F  F5  1  0.40082700  0.00382900  0.24468500  1
  F  F6  1  0.97813100  0.60157000  0.24768000  1
  F  F7  1  0.25556600  0.07962100  0.91326100  1
  F  F8  1  0.74443400  0.92037900  0.08673900  1
  F  F9  1  0.26380700  0.66158900  0.41665700  1
  F  F10  1  0.08588500  0.64734100  0.91406100  1
  F  F11  1  0.33357000  0.93044400  0.58881900  1
loop_
_geom_bond_atom_site_label_1
_geom_bond_atom_site_label_2
_geom_bond_distance
_geom_bond_site_symmetry_2
O0 V2 1.693232 1_555
O0 V1 1.948861 1_656
O1 V3 1.688620 1_555
O1 V0 1.961307 1_665
O2 V5 1.681287 1_555
O2 V4 2.059717 1_555
O3 V2 1.681287 1_555
O3 V3 2.059717 1_555
O4 V4 1.688620 1_555
O4 V0 1.961307 1_555
O5 V5 1.693232 1_555
O5 V1 1.948861 1_565
F0 V3 1.964868 1_455
F0 V2 2.061514 1_555
F1 V2 1.943076 1_565
F1 V3 1.989757 1_555
F2 V4 1.969294 1_555
F2 V0 1.988403 1_655
F3 V5 1.899567 1_555
F3 V1 2.048783 1_655
F4 V3 1.969966 1_555
F4 V0 1.976604 1_655
F5 V5 1.943076 1_545
F5 V4 1.989757 1_555
F6 V4 1.964868 1_655
F6 V5 2.061514 1_555
F7 V1 1.943799 1_556
F7 V2 2.093070 1_555
F8 V1 1.943799 1_665
F8 V5 2.093070 1_555
F9 V4 1.969966 1_555
F9 V0 1.976604 1_565
F10 V2 1.899567 1_555
F10 V1 2.048783 1_566
F11 V3 1.969294 1_555
F11 V0 1.988403 1_565
