# generated using pymatgen
data_Li2VBO4
_symmetry_space_group_name_H-M   'P 1'
_cell_length_a   4.90771200
_cell_length_b   6.21841900
_cell_length_c   10.24394000
_cell_angle_alpha   90.00000000
_cell_angle_beta   90.00000000
_cell_angle_gamma   90.00000000
_symmetry_Int_Tables_number   1
_chemical_formula_structural   Li2VBO4
_chemical_formula_sum   'Li8 V4 B4 O16'
_cell_volume   312.62670751
_cell_formula_units_Z   4
loop_
 _symmetry_equiv_pos_site_id
 _symmetry_equiv_pos_as_xyz
  1  'x, y, z'
loop_
 _atom_site_type_symbol
 _atom_site_label
 _atom_site_symmetry_multiplicity
 _atom_site_fract_x
 _atom_site_fract_y
 _atom_site_fract_z
 _atom_site_occupancy
  Li  Li0  1  0.69546000  0.86738900  0.07717400  1
  Li  Li1  1  0.18583000  0.11608800  0.15725100  1
  Li  Li2  1  0.68583000  0.61608800  0.34274900  1
  Li  Li3  1  0.19546000  0.36738900  0.42282600  1
  Li  Li4  1  0.80454000  0.86738900  0.57717400  1
  Li  Li5  1  0.31417000  0.11608800  0.65725100  1
  Li  Li6  1  0.81417000  0.61608800  0.84274900  1
  Li  Li7  1  0.30454000  0.36738900  0.92282600  1
  V  V0  1  0.18142000  0.62585800  0.16414200  1
  V  V1  1  0.68142000  0.12585800  0.33585800  1
  V  V2  1  0.31858000  0.62585800  0.66414200  1
  V  V3  1  0.81858000  0.12585800  0.83585800  1
  B  B0  1  0.67645100  0.36621500  0.09110700  1
  B  B1  1  0.17645100  0.86621500  0.40889300  1
  B  B2  1  0.82354900  0.36621500  0.59110700  1
  B  B3  1  0.32354900  0.86621500  0.90889300  1
  O  O0  1  0.26729600  0.86282200  0.05254700  1
  O  O1  1  0.37427000  0.37174900  0.10953900  1
  O  O2  1  0.79324800  0.56579400  0.15210900  1
  O  O3  1  0.78698800  0.16618300  0.15448200  1
  O  O4  1  0.28698800  0.66618300  0.34551800  1
  O  O5  1  0.29324800  0.06579400  0.34789100  1
  O  O6  1  0.87427000  0.87174900  0.39046100  1
  O  O7  1  0.76729600  0.36282200  0.44745300  1
  O  O8  1  0.23270400  0.86282200  0.55254700  1
  O  O9  1  0.12573000  0.37174900  0.60953900  1
  O  O10  1  0.70675200  0.56579400  0.65210900  1
  O  O11  1  0.71301200  0.16618300  0.65448200  1
  O  O12  1  0.21301200  0.66618300  0.84551800  1
  O  O13  1  0.20675200  0.06579400  0.84789100  1
  O  O14  1  0.62573000  0.87174900  0.89046100  1
  O  O15  1  0.73270400  0.36282200  0.94745300  1
loop_
_geom_bond_atom_site_label_1
_geom_bond_atom_site_label_2
_geom_bond_distance
_geom_bond_site_symmetry_2
Li0 O14 1.943239 1_554
Li0 O3 2.069107 1_565
Li0 O2 2.082514 1_555
Li0 O0 2.116586 1_555
Li1 O1 1.903062 1_555
Li1 O0 1.946955 1_545
Li1 O3 1.982237 1_455
Li1 O5 2.046842 1_555
Li2 O6 1.903062 1_555
Li2 O7 1.946955 1_555
Li2 O4 1.982237 1_555
Li2 O2 2.046842 1_555
Li3 O9 1.943239 1_555
Li3 O4 2.069107 1_555
Li3 O5 2.082514 1_555
Li3 O7 2.116586 1_455
Li4 O6 1.943239 1_555
Li4 O11 2.069107 1_565
Li4 O10 2.082514 1_555
Li4 O8 2.116586 1_655
Li5 O9 1.903062 1_555
Li5 O8 1.946955 1_545
Li5 O11 1.982237 1_555
Li5 O13 2.046842 1_555
Li6 O14 1.903062 1_555
Li6 O15 1.946955 1_555
Li6 O12 1.982237 1_655
Li6 O10 2.046842 1_555
Li7 O1 1.943239 1_556
Li7 O12 2.069107 1_555
Li7 O13 2.082514 1_555
Li7 O15 2.116586 1_555
B0 O1 1.495385 1_555
B0 O15 1.497404 1_554
B0 O2 1.503100 1_555
B0 O3 1.504329 1_555
B1 O6 1.495385 1_455
B1 O8 1.497404 1_555
B1 O5 1.503100 1_565
B1 O4 1.504329 1_555
B2 O9 1.495385 1_655
B2 O7 1.497404 1_555
B2 O10 1.503100 1_555
B2 O11 1.504329 1_555
B3 O14 1.495385 1_555
B3 O0 1.497404 1_556
B3 O13 1.503100 1_565
B3 O12 1.504329 1_555
O0 V0 1.912012 1_555
O1 V0 1.924977 1_555
O2 V0 1.945215 1_655
O3 V1 1.945119 1_555
O4 V0 1.945119 1_555
O5 V1 1.945215 1_555
O6 V1 1.924977 1_565
O7 V1 1.912012 1_555
O8 V2 1.912012 1_555
O9 V2 1.924977 1_555
O10 V2 1.945215 1_555
O11 V3 1.945119 1_555
O12 V2 1.945119 1_555
O13 V3 1.945215 1_455
O14 V3 1.924977 1_565
O15 V3 1.912012 1_555
