# generated using pymatgen
data_Li3Fe2(SiO4)2
_symmetry_space_group_name_H-M   'P 1'
_cell_length_a   5.11104400
_cell_length_b   6.62236600
_cell_length_c   10.74845171
_cell_angle_alpha   89.33925653
_cell_angle_beta   90.00000000
_cell_angle_gamma   90.00000000
_symmetry_Int_Tables_number   1
_chemical_formula_structural   Li3Fe2(SiO4)2
_chemical_formula_sum   'Li6 Fe4 Si4 O16'
_cell_volume   363.78084689
_cell_formula_units_Z   2
loop_
 _symmetry_equiv_pos_site_id
 _symmetry_equiv_pos_as_xyz
  1  'x, y, z'
loop_
 _atom_site_type_symbol
 _atom_site_label
 _atom_site_symmetry_multiplicity
 _atom_site_fract_x
 _atom_site_fract_y
 _atom_site_fract_z
 _atom_site_occupancy
  Li  Li0  1  0.06922600  0.00912700  0.08235600  1
  Li  Li1  1  0.93077400  0.00912700  0.58235600  1
  Li  Li2  1  0.56636600  0.78539500  0.17736000  1
  Li  Li3  1  0.43363400  0.78539500  0.67736000  1
  Li  Li4  1  0.56415500  0.00611200  0.41336200  1
  Li  Li5  1  0.43584500  0.00611200  0.91336200  1
  Fe  Fe0  1  0.54974800  0.49097800  0.40065200  1
  Fe  Fe1  1  0.06328400  0.50265200  0.09453000  1
  Fe  Fe2  1  0.45025200  0.49097800  0.90065200  1
  Fe  Fe3  1  0.93671600  0.50265200  0.59453000  1
  Si  Si0  1  0.57270500  0.23967200  0.16181700  1
  Si  Si1  1  0.42729500  0.23967200  0.66181700  1
  Si  Si2  1  0.06491800  0.76048300  0.34243000  1
  Si  Si3  1  0.93508200  0.76048300  0.84243000  1
  O  O0  1  0.46069800  0.03776200  0.09765100  1
  O  O1  1  0.53930200  0.03776200  0.59765100  1
  O  O2  1  0.88983200  0.26343200  0.13356300  1
  O  O3  1  0.50905700  0.24637300  0.31008100  1
  O  O4  1  0.11016800  0.26343200  0.63356300  1
  O  O5  1  0.49094300  0.24637300  0.81008100  1
  O  O6  1  0.44106700  0.45605400  0.09788900  1
  O  O7  1  0.55893300  0.45605400  0.59788900  1
  O  O8  1  0.96104600  0.55036500  0.41826400  1
  O  O9  1  0.03895400  0.55036500  0.91826400  1
  O  O10  1  0.96791800  0.73353200  0.19256500  1
  O  O11  1  0.39033400  0.74831900  0.34226700  1
  O  O12  1  0.03208200  0.73353200  0.69256500  1
  O  O13  1  0.60966600  0.74831900  0.84226700  1
  O  O14  1  0.94060700  0.95035800  0.40787500  1
  O  O15  1  0.05939300  0.95035800  0.90787500  1
loop_
_geom_bond_atom_site_label_1
_geom_bond_atom_site_label_2
_geom_bond_distance
_geom_bond_site_symmetry_2
Li0 O15 1.920405 1_544
Li0 O2 2.000299 1_455
Li0 O0 2.016688 1_555
Li0 O10 2.225403 1_445
Li1 O14 1.920405 1_545
Li1 O4 2.000299 1_655
Li1 O1 2.016688 1_555
Li1 O12 2.225403 1_645
Li2 O0 1.945715 1_565
Li2 O11 2.000365 1_555
Li2 O10 2.086988 1_555
Li2 O6 2.437122 1_555
Li3 O1 1.945715 1_565
Li3 O13 2.000365 1_555
Li3 O12 2.086988 1_555
Li3 O7 2.437122 1_555
Li4 O3 1.950000 1_555
Li4 O14 1.960185 1_545
Li4 O1 1.998323 1_555
Li4 O11 2.077938 1_545
Li5 O5 1.950000 1_555
Li5 O15 1.960185 1_545
Li5 O0 1.998323 1_556
Li5 O13 2.077938 1_545
Fe0 O3 1.910832 1_555
Fe0 O11 1.984269 1_555
Fe0 O7 2.130435 1_555
Fe0 O8 2.147396 1_555
Fe1 O2 1.859114 1_455
Fe1 O9 1.921186 1_554
Fe1 O10 1.929463 1_455
Fe1 O6 1.955637 1_555
Fe2 O5 1.910832 1_555
Fe2 O13 1.984269 1_555
Fe2 O6 2.130435 1_556
Fe2 O9 2.147396 1_555
Fe3 O4 1.859114 1_655
Fe3 O8 1.921186 1_555
Fe3 O12 1.929463 1_655
Fe3 O7 1.955637 1_555
O0 Si0 1.616340 1_555
O1 Si1 1.616340 1_555
O2 Si0 1.656212 1_555
O3 Si0 1.627579 1_555
O4 Si1 1.656212 1_555
O5 Si1 1.627579 1_555
O6 Si0 1.719151 1_555
O7 Si1 1.719151 1_555
O8 Si2 1.690055 1_655
O9 Si3 1.690055 1_455
O10 Si2 1.696763 1_655
O11 Si2 1.665167 1_555
O12 Si3 1.696763 1_455
O13 Si3 1.665167 1_555
O14 Si2 1.581141 1_655
O15 Si3 1.581141 1_455
