# generated using pymatgen
data_LiFeP(H6O5)2
_symmetry_space_group_name_H-M   'P 1'
_cell_length_a   6.09562600
_cell_length_b   6.94341100
_cell_length_c   10.79784300
_cell_angle_alpha   90.00000000
_cell_angle_beta   90.00000000
_cell_angle_gamma   90.00000000
_symmetry_Int_Tables_number   1
_chemical_formula_structural   LiFeP(H6O5)2
_chemical_formula_sum   'Li2 Fe2 P2 H24 O20'
_cell_volume   457.01262169
_cell_formula_units_Z   2
loop_
 _symmetry_equiv_pos_site_id
 _symmetry_equiv_pos_as_xyz
  1  'x, y, z'
loop_
 _atom_site_type_symbol
 _atom_site_label
 _atom_site_symmetry_multiplicity
 _atom_site_fract_x
 _atom_site_fract_y
 _atom_site_fract_z
 _atom_site_occupancy
  Li  Li0  1  0.46201000  0.50000000  0.93893700  1
  Li  Li1  1  0.53799000  0.00000000  0.43893700  1
  Fe  Fe0  1  0.38727000  0.50000000  0.64445900  1
  Fe  Fe1  1  0.61273000  0.00000000  0.14445900  1
  P  P0  1  0.01329800  0.50000000  0.26432900  1
  P  P1  1  0.98670200  0.00000000  0.76432900  1
  H  H0  1  0.73809000  0.50000000  0.47176800  1
  H  H1  1  0.83916500  0.50000000  0.61129100  1
  H  H2  1  0.98777000  0.61823700  0.76779600  1
  H  H3  1  0.22494600  0.71107700  0.45457900  1
  H  H4  1  0.82661100  0.66385100  0.07403400  1
  H  H5  1  0.63014100  0.68471100  0.29997000  1
  H  H6  1  0.37745700  0.75111600  0.28983000  1
  H  H7  1  0.62254300  0.74888400  0.78983000  1
  H  H8  1  0.36985900  0.81528900  0.79997000  1
  H  H9  1  0.17338900  0.83614900  0.57403400  1
  H  H10  1  0.77505400  0.78892300  0.95457900  1
  H  H11  1  0.01223000  0.88176300  0.26779600  1
  H  H12  1  0.16083500  0.00000000  0.11129100  1
  H  H13  1  0.26191000  0.00000000  0.97176800  1
  H  H14  1  0.01223000  0.11823700  0.26779600  1
  H  H15  1  0.77505400  0.21107700  0.95457900  1
  H  H16  1  0.17338900  0.16385100  0.57403400  1
  H  H17  1  0.36985900  0.18471100  0.79997000  1
  H  H18  1  0.62254300  0.25111600  0.78983000  1
  H  H19  1  0.37745700  0.24888400  0.28983000  1
  H  H20  1  0.63014100  0.31528900  0.29997000  1
  H  H21  1  0.82661100  0.33614900  0.07403400  1
  H  H22  1  0.22494600  0.28892300  0.45457900  1
  H  H23  1  0.98777000  0.38176300  0.76779600  1
  O  O0  1  0.00644900  0.50000000  0.12170900  1
  O  O1  1  0.77258700  0.50000000  0.31694800  1
  O  O2  1  0.04619400  0.50000000  0.72416100  1
  O  O3  1  0.70073700  0.50000000  0.56190700  1
  O  O4  1  0.13040100  0.68353800  0.31496500  1
  O  O5  1  0.46756700  0.69613600  0.79467500  1
  O  O6  1  0.29243200  0.75247200  0.53588200  1
  O  O7  1  0.70756800  0.74752800  0.03588200  1
  O  O8  1  0.53243300  0.80386400  0.29467500  1
  O  O9  1  0.86959900  0.81646200  0.81496500  1
  O  O10  1  0.99355100  0.00000000  0.62170900  1
  O  O11  1  0.22741300  0.00000000  0.81694800  1
  O  O12  1  0.29926300  0.00000000  0.06190700  1
  O  O13  1  0.95380600  0.00000000  0.22416100  1
  O  O14  1  0.86959900  0.18353800  0.81496500  1
  O  O15  1  0.53243300  0.19613600  0.29467500  1
  O  O16  1  0.70756800  0.25247200  0.03588200  1
  O  O17  1  0.29243200  0.24752800  0.53588200  1
  O  O18  1  0.46756700  0.30386400  0.79467500  1
  O  O19  1  0.13040100  0.31646200  0.31496500  1
loop_
_geom_bond_atom_site_label_1
_geom_bond_atom_site_label_2
_geom_bond_distance
_geom_bond_site_symmetry_2
Li0 O18 2.069366 1_555
Li0 O5 2.069366 1_555
Li0 O7 2.508022 1_556
Li0 O16 2.508022 1_556
Li1 O8 2.069366 1_545
Li1 O15 2.069366 1_555
Li1 O6 2.508022 1_545
Li1 O17 2.508022 1_555
Fe0 O3 2.108468 1_555
Fe0 O18 2.173736 1_555
Fe0 O5 2.173736 1_555
Fe0 O17 2.186728 1_555
Fe0 O6 2.186728 1_555
Fe0 O2 2.250153 1_555
Fe1 O12 2.108468 1_555
Fe1 O15 2.173736 1_555
Fe1 O8 2.173736 1_545
Fe1 O16 2.186728 1_555
Fe1 O7 2.186728 1_545
Fe1 O13 2.250153 1_555
H0 O3 0.999584 1_555
H0 O1 1.684895 1_555
H1 O3 0.998175 1_555
H2 O2 1.011342 1_655
H2 O9 1.634821 1_555
H3 O6 1.011207 1_555
H3 O4 1.625221 1_555
H4 O7 1.016775 1_555
H4 O0 1.661638 1_655
H5 O8 1.021014 1_555
H5 O1 1.559621 1_555
H6 O8 1.014539 1_555
H6 O4 1.600546 1_555
H7 O5 1.014539 1_555
H7 O9 1.600546 1_555
H8 O5 1.021014 1_555
H8 O11 1.559621 1_565
H9 O6 1.016775 1_555
H9 O10 1.661638 1_465
H10 O7 1.011207 1_556
H10 O9 1.625221 1_555
H11 O13 1.011342 1_465
H11 O4 1.634821 1_555
H12 O12 0.998175 1_555
H13 O12 0.999584 1_556
H13 O11 1.684895 1_555
H14 O13 1.011342 1_455
H14 O19 1.634821 1_555
H15 O16 1.011207 1_556
H15 O14 1.625221 1_555
H16 O17 1.016775 1_555
H16 O10 1.661638 1_455
H17 O18 1.021014 1_555
H17 O11 1.559621 1_555
H18 O18 1.014539 1_555
H18 O14 1.600546 1_555
H19 O15 1.014539 1_555
H19 O19 1.600546 1_555
H20 O15 1.021014 1_555
H20 O1 1.559621 1_555
H21 O16 1.016775 1_555
H21 O0 1.661638 1_655
H22 O17 1.011207 1_555
H22 O19 1.625221 1_555
H23 O2 1.011342 1_655
H23 O14 1.634821 1_555
O0 P0 1.540554 1_555
O1 P0 1.573449 1_655
O4 P0 1.559655 1_555
O9 P1 1.559655 1_565
O10 P1 1.540554 1_555
O11 P1 1.573449 1_455
O14 P1 1.559655 1_555
O19 P0 1.559655 1_555
