# generated using pymatgen
data_V3(O2F)2
_symmetry_space_group_name_H-M   'P 1'
_cell_length_a   4.73163200
_cell_length_b   5.62311929
_cell_length_c   7.71405245
_cell_angle_alpha   84.83667277
_cell_angle_beta   87.13339596
_cell_angle_gamma   86.21360246
_symmetry_Int_Tables_number   1
_chemical_formula_structural   V3(O2F)2
_chemical_formula_sum   'V6 O8 F4'
_cell_volume   203.76450638
_cell_formula_units_Z   2
loop_
 _symmetry_equiv_pos_site_id
 _symmetry_equiv_pos_as_xyz
  1  'x, y, z'
loop_
 _atom_site_type_symbol
 _atom_site_label
 _atom_site_symmetry_multiplicity
 _atom_site_fract_x
 _atom_site_fract_y
 _atom_site_fract_z
 _atom_site_occupancy
  V  V0  1  0.50000000  0.50000000  0.50000000  1
  V  V1  1  0.45299200  0.13447900  0.81854700  1
  V  V2  1  0.54700800  0.86552100  0.18145300  1
  V  V3  1  0.00000000  0.00000000  0.50000000  1
  V  V4  1  0.99364800  0.33028500  0.16318000  1
  V  V5  1  0.00635200  0.66971500  0.83682000  1
  O  O0  1  0.80232400  0.03894700  0.26804400  1
  O  O1  1  0.69060900  0.87016100  0.93611200  1
  O  O2  1  0.69269100  0.19737300  0.60482500  1
  O  O3  1  0.70167700  0.54310300  0.26513300  1
  O  O4  1  0.30730900  0.80262700  0.39517500  1
  O  O5  1  0.30939100  0.12983900  0.06388800  1
  O  O6  1  0.29832300  0.45689700  0.73486700  1
  O  O7  1  0.19767600  0.96105300  0.73195600  1
  F  F0  1  0.80252900  0.36987100  0.93192800  1
  F  F1  1  0.80458100  0.69942800  0.60351200  1
  F  F2  1  0.19747100  0.63012900  0.06807200  1
  F  F3  1  0.19541900  0.30057200  0.39648800  1
loop_
_geom_bond_atom_site_label_1
_geom_bond_atom_site_label_2
_geom_bond_distance
_geom_bond_site_symmetry_2
O0 V2 1.791690 1_545
O0 V4 2.010417 1_555
O0 V3 2.047995 1_655
O1 V5 1.976766 1_655
O1 V2 1.977125 1_556
O1 V1 1.983505 1_565
O2 V3 1.957233 1_655
O2 V1 1.972436 1_555
O2 V0 2.000528 1_555
O3 V4 1.949756 1_555
O3 V2 1.974991 1_555
O3 V0 2.007604 1_555
O4 V3 1.957233 1_565
O4 V2 1.972436 1_555
O4 V0 2.000528 1_555
O5 V4 1.976766 1_455
O5 V1 1.977125 1_554
O5 V2 1.983505 1_545
O6 V5 1.949756 1_555
O6 V1 1.974991 1_555
O6 V0 2.007604 1_555
O7 V1 1.791690 1_565
O7 V5 2.010417 1_555
O7 V3 2.047995 1_565
F0 V4 2.028022 1_556
F0 V5 2.057304 1_655
F0 V1 2.427858 1_555
F1 V3 2.058843 1_665
F1 V5 2.067643 1_655
F1 V0 2.112305 1_555
F2 V5 2.028022 1_554
F2 V4 2.057304 1_455
F2 V2 2.427858 1_555
F3 V3 2.058843 1_555
F3 V4 2.067643 1_455
F3 V0 2.112305 1_555
