# generated using pymatgen
data_TbSiPt
_symmetry_space_group_name_H-M   'P 1'
_cell_length_a   4.29144051
_cell_length_b   7.03381170
_cell_length_c   7.43569167
_cell_angle_alpha   90.00000000
_cell_angle_beta   90.00000000
_cell_angle_gamma   90.00000000
_symmetry_Int_Tables_number   1
_chemical_formula_structural   TbSiPt
_chemical_formula_sum   'Tb4 Si4 Pt4'
_cell_volume   224.44772471
_cell_formula_units_Z   4
loop_
 _symmetry_equiv_pos_site_id
 _symmetry_equiv_pos_as_xyz
  1  'x, y, z'
loop_
 _atom_site_type_symbol
 _atom_site_label
 _atom_site_symmetry_multiplicity
 _atom_site_fract_x
 _atom_site_fract_y
 _atom_site_fract_z
 _atom_site_occupancy
  Tb  Tb0  1  0.75000000  0.50378683  0.20111105  1
  Tb  Tb1  1  0.25000000  0.99621317  0.70111105  1
  Tb  Tb2  1  0.75000000  0.00378683  0.29888995  1
  Tb  Tb3  1  0.25000000  0.49621317  0.79888895  1
  Si  Si0  1  0.25000000  0.81418101  0.08661957  1
  Si  Si1  1  0.25000000  0.31418101  0.41338043  1
  Si  Si2  1  0.75000000  0.18581899  0.91338043  1
  Si  Si3  1  0.75000000  0.68581899  0.58661957  1
  Pt  Pt0  1  0.25000000  0.69982804  0.41514427  1
  Pt  Pt1  1  0.25000000  0.19982804  0.08485573  1
  Pt  Pt2  1  0.75000000  0.80017196  0.91514427  1
  Pt  Pt3  1  0.75000000  0.30017196  0.58485573  1
loop_
_geom_bond_atom_site_label_1
_geom_bond_atom_site_label_2
_geom_bond_distance
_geom_bond_site_symmetry_2
Si0 Tb2 2.978929 1_465
Si0 Tb2 2.978929 1_565
Si0 Tb3 3.095062 1_554
Si0 Tb1 3.139478 1_554
Si0 Tb0 3.177336 1_455
Si0 Tb0 3.177336 1_555
Si1 Tb0 2.978925 1_555
Si1 Tb0 2.978925 1_455
Si1 Tb1 3.095062 1_545
Si1 Tb3 3.139478 1_555
Si1 Tb2 3.177334 1_455
Si1 Tb2 3.177334 1_555
Si2 Tb1 2.978925 1_645
Si2 Tb1 2.978925 1_545
Si2 Tb0 3.095062 1_556
Si2 Tb2 3.139485 1_556
Si2 Tb3 3.177336 1_555
Si2 Tb3 3.177336 1_655
Si3 Tb3 2.978925 1_655
Si3 Tb3 2.978925 1_555
Si3 Tb2 3.095056 1_565
Si3 Tb0 3.139478 1_555
Si3 Tb1 3.177336 1_655
Si3 Tb1 3.177336 1_555
Pt0 Si3 2.497908 1_455
Pt0 Si3 2.497908 1_555
Pt0 Si0 2.571823 1_555
Pt0 Si1 2.712600 1_555
Pt0 Tb1 2.977827 1_555
Pt0 Tb0 3.006385 1_555
Pt0 Tb0 3.006385 1_455
Pt0 Tb2 3.149977 1_465
Pt0 Tb2 3.149977 1_565
Pt0 Tb3 3.192663 1_555
Pt1 Si2 2.497908 1_554
Pt1 Si2 2.497908 1_454
Pt1 Si1 2.571823 1_555
Pt1 Si0 2.712600 1_545
Pt1 Tb3 2.977827 1_554
Pt1 Tb2 3.006389 1_455
Pt1 Tb2 3.006389 1_555
Pt1 Tb0 3.149979 1_555
Pt1 Tb0 3.149979 1_455
Pt1 Tb1 3.192663 1_544
Pt2 Si0 2.497908 1_656
Pt2 Si0 2.497908 1_556
Pt2 Si3 2.571823 1_555
Pt2 Si2 2.712600 1_565
Pt2 Tb0 2.977827 1_556
Pt2 Tb1 3.006385 1_555
Pt2 Tb1 3.006385 1_655
Pt2 Tb3 3.149979 1_655
Pt2 Tb3 3.149979 1_555
Pt2 Tb2 3.192670 1_566
Pt3 Si1 2.497908 1_655
Pt3 Si1 2.497908 1_555
Pt3 Si2 2.571823 1_555
Pt3 Si3 2.712600 1_555
Pt3 Tb2 2.977822 1_555
Pt3 Tb3 3.006385 1_555
Pt3 Tb3 3.006385 1_655
Pt3 Tb1 3.149979 1_545
Pt3 Tb1 3.149979 1_645
Pt3 Tb0 3.192663 1_555
