# generated using pymatgen
data_Na5Ni2As(CO4)4
_symmetry_space_group_name_H-M   'P 1'
_cell_length_a   9.96996037
_cell_length_b   9.96996037
_cell_length_c   9.90115790
_cell_angle_alpha   60.33869885
_cell_angle_beta   60.33869885
_cell_angle_gamma   90.53760402
_symmetry_Int_Tables_number   1
_chemical_formula_structural   Na5Ni2As(CO4)4
_chemical_formula_sum   'Na10 Ni4 As2 C8 O32'
_cell_volume   699.74855268
_cell_formula_units_Z   2
loop_
 _symmetry_equiv_pos_site_id
 _symmetry_equiv_pos_as_xyz
  1  'x, y, z'
loop_
 _atom_site_type_symbol
 _atom_site_label
 _atom_site_symmetry_multiplicity
 _atom_site_fract_x
 _atom_site_fract_y
 _atom_site_fract_z
 _atom_site_occupancy
  Na  Na0  1  0.90374300  0.64837400  0.76296700  1
  Na  Na1  1  0.64979300  0.90474100  0.68287900  1
  Na  Na2  1  0.64837400  0.90374300  0.26296700  1
  Na  Na3  1  0.90474100  0.64979300  0.18287900  1
  Na  Na4  1  0.91044300  0.08955700  0.75000000  1
  Na  Na5  1  0.08955700  0.91044300  0.25000000  1
  Na  Na6  1  0.09525900  0.35020700  0.81712100  1
  Na  Na7  1  0.35162600  0.09625700  0.73703300  1
  Na  Na8  1  0.35020700  0.09525900  0.31712100  1
  Na  Na9  1  0.09625700  0.35162600  0.23703300  1
  Ni  Ni0  1  0.50000000  0.00000000  0.00000000  1
  Ni  Ni1  1  0.50000000  0.50000000  0.00000000  1
  Ni  Ni2  1  0.50000000  0.50000000  0.50000000  1
  Ni  Ni3  1  0.00000000  0.50000000  0.50000000  1
  As  As0  1  0.12714800  0.87285200  0.75000000  1
  As  As1  1  0.87285200  0.12714800  0.25000000  1
  C  C0  1  0.71390400  0.28625100  0.92579100  1
  C  C1  1  0.71751800  0.64319100  0.56839200  1
  C  C2  1  0.35680900  0.28248200  0.93160800  1
  C  C3  1  0.71374900  0.28609600  0.57420900  1
  C  C4  1  0.28625100  0.71390400  0.42579100  1
  C  C5  1  0.64319100  0.71751800  0.06839200  1
  C  C6  1  0.28609600  0.71374900  0.07420900  1
  C  C7  1  0.28248200  0.35680900  0.43160800  1
  O  O0  1  0.64711500  0.86029000  0.95243000  1
  O  O1  1  0.69184100  0.64692100  0.70770900  1
  O  O2  1  0.85724400  0.39844500  0.79018500  1
  O  O3  1  0.40422700  0.68709900  0.96541800  1
  O  O4  1  0.86029000  0.64711500  0.45243000  1
  O  O5  1  0.33730200  0.95368700  0.60606500  1
  O  O6  1  0.05599600  0.94305900  0.89265300  1
  O  O7  1  0.60540400  0.64567900  0.53870800  1
  O  O8  1  0.68992000  0.14166800  0.95896200  1
  O  O9  1  0.35432100  0.39459600  0.96129200  1
  O  O10  1  0.85833200  0.31008000  0.54103800  1
  O  O11  1  0.05694100  0.94400400  0.60734700  1
  O  O12  1  0.04631300  0.66269800  0.89393500  1
  O  O13  1  0.39844500  0.85724400  0.29018500  1
  O  O14  1  0.64692100  0.69184100  0.20770900  1
  O  O15  1  0.68709900  0.40422700  0.46541800  1
  O  O16  1  0.31290100  0.59577300  0.53458200  1
  O  O17  1  0.35307900  0.30815900  0.79229100  1
  O  O18  1  0.60155500  0.14275600  0.70981500  1
  O  O19  1  0.94305900  0.05599600  0.39265300  1
  O  O20  1  0.95368700  0.33730200  0.10606500  1
  O  O21  1  0.14166800  0.68992000  0.45896200  1
  O  O22  1  0.64567900  0.60540400  0.03870800  1
  O  O23  1  0.31008000  0.85833200  0.04103800  1
  O  O24  1  0.39459600  0.35432100  0.46129200  1
  O  O25  1  0.94400400  0.05694100  0.10734700  1
  O  O26  1  0.66269800  0.04631300  0.39393500  1
  O  O27  1  0.13971000  0.35288500  0.54757000  1
  O  O28  1  0.59577300  0.31290100  0.03458200  1
  O  O29  1  0.30815900  0.35307900  0.29229100  1
  O  O30  1  0.14275600  0.60155500  0.20981500  1
  O  O31  1  0.35288500  0.13971000  0.04757000  1
loop_
_geom_bond_atom_site_label_1
_geom_bond_atom_site_label_2
_geom_bond_distance
_geom_bond_site_symmetry_2
Na0 O2 2.384653 1_555
Na0 O12 2.392931 1_655
Na0 O1 2.431901 1_555
Na0 O22 2.475153 1_556
Na0 O11 2.546698 1_655
Na0 O21 2.557209 1_655
Na1 O3 2.375277 1_555
Na1 O26 2.414350 1_565
Na1 O0 2.465477 1_555
Na1 O1 2.517975 1_555
Na1 O19 2.528442 1_565
Na1 O18 2.540552 1_565
Na2 O13 2.384653 1_555
Na2 O26 2.392931 1_565
Na2 O14 2.431901 1_555
Na2 O7 2.475153 1_555
Na2 O25 2.546698 1_565
Na2 O8 2.557209 1_564
Na3 O15 2.375277 1_555
Na3 O12 2.414350 1_654
Na3 O4 2.465477 1_555
Na3 O14 2.517975 1_555
Na3 O6 2.528442 1_654
Na3 O30 2.540552 1_655
Na4 O8 2.442859 1_555
Na4 O10 2.442859 1_555
Na4 O6 2.502141 1_645
Na4 O11 2.502141 1_645
Na4 O0 2.505896 1_545
Na4 O27 2.505896 1_655
Na5 O21 2.442859 1_555
Na5 O23 2.442859 1_555
Na5 O19 2.502141 1_465
Na5 O25 2.502141 1_465
Na5 O4 2.505896 1_455
Na5 O31 2.505896 1_565
Na6 O16 2.375277 1_555
Na6 O20 2.414350 1_456
Na6 O27 2.465477 1_555
Na6 O17 2.517975 1_555
Na6 O25 2.528442 1_456
Na6 O2 2.540552 1_455
Na7 O18 2.384653 1_555
Na7 O5 2.392931 1_545
Na7 O17 2.431901 1_555
Na7 O24 2.475153 1_555
Na7 O6 2.546698 1_545
Na7 O23 2.557209 1_546
Na8 O28 2.375277 1_555
Na8 O5 2.414350 1_545
Na8 O31 2.465477 1_555
Na8 O29 2.517975 1_555
Na8 O11 2.528442 1_545
Na8 O13 2.540552 1_545
Na9 O30 2.384653 1_555
Na9 O20 2.392931 1_455
Na9 O29 2.431901 1_555
Na9 O9 2.475153 1_554
Na9 O19 2.546698 1_455
Na9 O10 2.557209 1_455
Ni0 O0 2.077797 1_544
Ni0 O31 2.077797 1_555
Ni0 O13 2.086218 1_545
Ni0 O18 2.086218 1_554
Ni0 O23 2.089421 1_545
Ni0 O8 2.089421 1_554
Ni1 O3 2.057534 1_554
Ni1 O28 2.057534 1_555
Ni1 O22 2.069212 1_555
Ni1 O9 2.069212 1_554
Ni1 O29 2.110091 1_555
Ni1 O1 2.110091 1_554
Ni2 O15 2.057534 1_555
Ni2 O16 2.057534 1_555
Ni2 O7 2.069212 1_555
Ni2 O24 2.069212 1_555
Ni2 O17 2.110091 1_555
Ni2 O14 2.110091 1_555
Ni3 O4 2.077797 1_455
Ni3 O27 2.077797 1_555
Ni3 O2 2.086218 1_455
Ni3 O30 2.086218 1_555
Ni3 O10 2.089421 1_455
Ni3 O21 2.089421 1_555
As0 O12 1.716591 1_555
As0 O5 1.716591 1_555
As0 O6 1.727505 1_555
As0 O11 1.727505 1_555
As1 O26 1.716591 1_555
As1 O20 1.716591 1_555
As1 O25 1.727505 1_555
As1 O19 1.727505 1_555
C0 O28 1.285107 1_556
C0 O2 1.296411 1_555
C0 O8 1.300061 1_555
C1 O7 1.286416 1_555
C1 O1 1.292714 1_555
C1 O4 1.297262 1_555
C2 O9 1.286416 1_555
C2 O17 1.292714 1_555
C2 O31 1.297262 1_556
C3 O15 1.285107 1_555
C3 O18 1.296411 1_555
C3 O10 1.300061 1_555
C4 O16 1.285107 1_555
C4 O13 1.296411 1_555
C4 O21 1.300061 1_555
C5 O22 1.286416 1_555
C5 O14 1.292714 1_555
C5 O0 1.297262 1_554
C6 O3 1.285107 1_554
C6 O30 1.296411 1_555
C6 O23 1.300061 1_555
C7 O24 1.286416 1_555
C7 O29 1.292714 1_555
C7 O27 1.297262 1_555
