# generated using pymatgen
data_Li2Co2(SiO3)3
_symmetry_space_group_name_H-M   'P 1'
_cell_length_a   7.23080800
_cell_length_b   10.56842800
_cell_length_c   12.18872943
_cell_angle_alpha   69.57047919
_cell_angle_beta   90.00000000
_cell_angle_gamma   90.00000000
_symmetry_Int_Tables_number   1
_chemical_formula_structural   Li2Co2(SiO3)3
_chemical_formula_sum   'Li8 Co8 Si12 O36'
_cell_volume   872.85609451
_cell_formula_units_Z   4
loop_
 _symmetry_equiv_pos_site_id
 _symmetry_equiv_pos_as_xyz
  1  'x, y, z'
loop_
 _atom_site_type_symbol
 _atom_site_label
 _atom_site_symmetry_multiplicity
 _atom_site_fract_x
 _atom_site_fract_y
 _atom_site_fract_z
 _atom_site_occupancy
  Li  Li0  1  0.03749000  0.94778600  0.63248600  1
  Li  Li1  1  0.46251000  0.94778600  0.13248600  1
  Li  Li2  1  0.93580600  0.54296300  0.65899800  1
  Li  Li3  1  0.43580600  0.45703700  0.84100200  1
  Li  Li4  1  0.56419400  0.54296300  0.15899800  1
  Li  Li5  1  0.06419400  0.45703700  0.34100200  1
  Li  Li6  1  0.53749000  0.05221400  0.86751400  1
  Li  Li7  1  0.96251000  0.05221400  0.36751400  1
  Co  Co0  1  0.10356300  0.94441500  0.92421400  1
  Co  Co1  1  0.39643700  0.94441500  0.42421400  1
  Co  Co2  1  0.36660700  0.56523600  0.56047300  1
  Co  Co3  1  0.86660700  0.43476400  0.93952700  1
  Co  Co4  1  0.13339300  0.56523600  0.06047300  1
  Co  Co5  1  0.63339300  0.43476400  0.43952700  1
  Co  Co6  1  0.60356300  0.05558500  0.57578600  1
  Co  Co7  1  0.89643700  0.05558500  0.07578600  1
  Si  Si0  1  0.45324400  0.77085400  0.93775300  1
  Si  Si1  1  0.84705000  0.76033100  0.85501600  1
  Si  Si2  1  0.52599700  0.74247700  0.70298500  1
  Si  Si3  1  0.04675600  0.77085400  0.43775300  1
  Si  Si4  1  0.65295000  0.76033100  0.35501600  1
  Si  Si5  1  0.97400300  0.74247700  0.20298500  1
  Si  Si6  1  0.02599700  0.25752300  0.79701500  1
  Si  Si7  1  0.34705000  0.23966900  0.64498400  1
  Si  Si8  1  0.95324400  0.22914600  0.56224700  1
  Si  Si9  1  0.47400300  0.25752300  0.29701500  1
  Si  Si10  1  0.15295000  0.23966900  0.14498400  1
  Si  Si11  1  0.54675600  0.22914600  0.06224700  1
  O  O0  1  0.36879600  0.90527100  0.95672300  1
  O  O1  1  0.98825400  0.88675500  0.80388000  1
  O  O2  1  0.50503100  0.87433500  0.58539300  1
  O  O3  1  0.68045900  0.79479800  0.93435500  1
  O  O4  1  0.13120400  0.90527100  0.45672300  1
  O  O5  1  0.40046400  0.76382300  0.80852000  1
  O  O6  1  0.74805800  0.73235400  0.74269400  1
  O  O7  1  0.51174600  0.88675500  0.30388000  1
  O  O8  1  0.39269400  0.62933000  0.03895900  1
  O  O9  1  0.99496900  0.87433500  0.08539300  1
  O  O10  1  0.94540200  0.61973600  0.93295900  1
  O  O11  1  0.81954100  0.79479800  0.43435500  1
  O  O12  1  0.09953600  0.76382300  0.30852000  1
  O  O13  1  0.46765100  0.59766400  0.69547400  1
  O  O14  1  0.75194200  0.73235400  0.24269400  1
  O  O15  1  0.10730600  0.62933000  0.53895900  1
  O  O16  1  0.55459800  0.61973600  0.43295900  1
  O  O17  1  0.03234900  0.59766400  0.19547400  1
  O  O18  1  0.96765100  0.40233600  0.80452600  1
  O  O19  1  0.44540200  0.38026400  0.56704100  1
  O  O20  1  0.89269400  0.37067000  0.46104100  1
  O  O21  1  0.24805800  0.26764600  0.75730600  1
  O  O22  1  0.53234900  0.40233600  0.30452600  1
  O  O23  1  0.90046400  0.23617700  0.69148000  1
  O  O24  1  0.18045900  0.20520200  0.56564500  1
  O  O25  1  0.05459800  0.38026400  0.06704100  1
  O  O26  1  0.00503100  0.12566500  0.91460700  1
  O  O27  1  0.60730600  0.37067000  0.96104100  1
  O  O28  1  0.48825400  0.11324500  0.69612000  1
  O  O29  1  0.25194200  0.26764600  0.25730600  1
  O  O30  1  0.59953600  0.23617700  0.19148000  1
  O  O31  1  0.86879600  0.09472900  0.54327700  1
  O  O32  1  0.31954100  0.20520200  0.06564500  1
  O  O33  1  0.49496900  0.12566500  0.41460700  1
  O  O34  1  0.01174600  0.11324500  0.19612000  1
  O  O35  1  0.63120400  0.09472900  0.04327700  1
loop_
_geom_bond_atom_site_label_1
_geom_bond_atom_site_label_2
_geom_bond_distance
_geom_bond_site_symmetry_2
Li0 O31 1.975617 1_465
Li0 O1 1.991566 1_455
Li0 O4 2.433644 1_555
Li1 O35 1.975617 1_565
Li1 O7 1.991566 1_555
Li1 O0 2.433644 1_554
Li2 O18 1.888868 1_555
Li2 O15 1.891919 1_655
Li3 O13 1.888868 1_555
Li3 O27 1.891919 1_555
Li4 O22 1.888868 1_555
Li4 O8 1.891919 1_555
Li5 O17 1.888868 1_555
Li5 O20 1.891919 1_455
Li6 O0 1.975617 1_545
Li6 O28 1.991566 1_555
Li6 O35 2.433644 1_556
Li7 O4 1.975617 1_645
Li7 O34 1.991566 1_655
Li7 O31 2.433644 1_555
Co0 O1 1.960037 1_455
Co0 O0 1.972779 1_555
Co0 O9 2.002216 1_456
Co0 O26 2.008476 1_565
Co1 O7 1.960037 1_555
Co1 O4 1.972779 1_555
Co1 O2 2.002216 1_555
Co1 O33 2.008476 1_565
Co2 O13 1.937162 1_555
Co2 O15 1.979660 1_555
Co2 O16 1.992539 1_555
Co2 O19 2.010787 1_555
Co3 O18 1.937162 1_555
Co3 O27 1.979660 1_555
Co3 O25 1.992539 1_656
Co3 O10 2.010787 1_555
Co4 O17 1.937162 1_555
Co4 O8 1.979660 1_555
Co4 O10 1.992539 1_454
Co4 O25 2.010787 1_555
Co5 O22 1.937162 1_555
Co5 O20 1.979660 1_555
Co5 O19 1.992539 1_555
Co5 O16 2.010787 1_555
Co6 O28 1.960037 1_555
Co6 O31 1.972779 1_555
Co6 O33 2.002216 1_555
Co6 O2 2.008476 1_545
Co7 O34 1.960037 1_655
Co7 O35 1.972779 1_555
Co7 O26 2.002216 1_654
Co7 O9 2.008476 1_545
O0 Si0 1.635136 1_555
O1 Si1 1.623197 1_555
O2 Si2 1.620151 1_555
O3 Si0 1.660636 1_555
O3 Si1 1.662769 1_555
O4 Si3 1.635136 1_555
O5 Si0 1.647451 1_555
O5 Si2 1.652897 1_555
O6 Si1 1.660333 1_555
O6 Si2 1.669660 1_555
O7 Si4 1.623197 1_555
O8 Si0 1.631696 1_554
O9 Si5 1.620151 1_555
O10 Si1 1.621927 1_555
O11 Si3 1.660636 1_655
O11 Si4 1.662769 1_555
O12 Si3 1.647451 1_555
O12 Si5 1.652897 1_455
O13 Si2 1.620632 1_555
O14 Si4 1.660333 1_555
O14 Si5 1.669660 1_555
O15 Si3 1.631696 1_555
O16 Si4 1.621927 1_555
O17 Si5 1.620632 1_455
O18 Si6 1.620632 1_655
O19 Si7 1.621927 1_555
O20 Si8 1.631696 1_555
O21 Si7 1.660333 1_555
O21 Si6 1.669660 1_555
O22 Si9 1.620632 1_555
O23 Si8 1.647451 1_555
O23 Si6 1.652897 1_655
O24 Si8 1.660636 1_455
O24 Si7 1.662769 1_555
O25 Si10 1.621927 1_555
O26 Si6 1.620151 1_555
O27 Si11 1.631696 1_556
O28 Si7 1.623197 1_555
O29 Si10 1.660333 1_555
O29 Si9 1.669660 1_555
O30 Si11 1.647451 1_555
O30 Si9 1.652897 1_555
O31 Si8 1.635136 1_555
O32 Si11 1.660636 1_555
O32 Si10 1.662769 1_555
O33 Si9 1.620151 1_555
O34 Si10 1.623197 1_555
O35 Si11 1.635136 1_555
