# generated using pymatgen
data_KLiSb3O8
_symmetry_space_group_name_H-M   'P 1'
_cell_length_a   6.48633000
_cell_length_b   7.64739128
_cell_length_c   7.69557261
_cell_angle_alpha   86.03959163
_cell_angle_beta   78.50687150
_cell_angle_gamma   77.37970652
_symmetry_Int_Tables_number   1
_chemical_formula_structural   KLiSb3O8
_chemical_formula_sum   'K2 Li2 Sb6 O16'
_cell_volume   364.90523357
_cell_formula_units_Z   2
loop_
 _symmetry_equiv_pos_site_id
 _symmetry_equiv_pos_as_xyz
  1  'x, y, z'
loop_
 _atom_site_type_symbol
 _atom_site_label
 _atom_site_symmetry_multiplicity
 _atom_site_fract_x
 _atom_site_fract_y
 _atom_site_fract_z
 _atom_site_occupancy
  K  K0  1  0.81004100  0.97141500  0.99980300  1
  K  K1  1  0.30877800  0.98637300  0.97554400  1
  Li  Li0  1  0.44039800  0.78052700  0.49387800  1
  Li  Li1  1  0.81302000  0.52496100  0.22199100  1
  Sb  Sb0  1  0.92021700  0.81566600  0.50819100  1
  Sb  Sb1  1  0.17109500  0.48618700  0.83362700  1
  Sb  Sb2  1  0.66748900  0.49184900  0.82785200  1
  Sb  Sb3  1  0.31590200  0.52310100  0.19539300  1
  Sb  Sb4  1  0.09312300  0.17896000  0.47498000  1
  Sb  Sb5  1  0.58313600  0.18054600  0.47754900  1
  O  O0  1  0.08066300  0.96114600  0.63059400  1
  O  O1  1  0.63335900  0.97127400  0.64530100  1
  O  O2  1  0.93092100  0.64882100  0.72319000  1
  O  O3  1  0.39395200  0.60671400  0.70539300  1
  O  O4  1  0.95817700  0.34490500  0.93570200  1
  O  O5  1  0.40699900  0.34810500  0.97420600  1
  O  O6  1  0.21869800  0.71190800  0.37420000  1
  O  O7  1  0.74942300  0.71718500  0.38517300  1
  O  O8  1  0.27551500  0.28342400  0.62784400  1
  O  O9  1  0.78304400  0.29634000  0.58834700  1
  O  O10  1  0.10081800  0.64766600  0.04431800  1
  O  O11  1  0.54567700  0.64550500  0.05806500  1
  O  O12  1  0.09245700  0.38078900  0.30144000  1
  O  O13  1  0.56507800  0.38085300  0.30035000  1
  O  O14  1  0.90354800  0.05384300  0.33949300  1
  O  O15  1  0.39807000  0.06193300  0.35757700  1
loop_
_geom_bond_atom_site_label_1
_geom_bond_atom_site_label_2
_geom_bond_distance
_geom_bond_site_symmetry_2
K0 O10 2.811440 1_656
K0 O14 2.936885 1_566
K0 O0 3.023795 1_655
K0 O1 3.162705 1_555
K0 O4 3.184392 1_565
K0 O2 3.232222 1_555
K0 O11 3.280255 1_556
K1 O11 2.823021 1_556
K1 O1 2.950706 1_555
K1 O5 2.970189 1_565
K1 O10 3.140353 1_556
K1 O4 3.196925 1_465
K1 O15 3.220587 1_566
K1 O0 3.321757 1_555
Li0 O7 1.978815 1_555
Li0 O6 2.028737 1_555
Li0 O3 2.046406 1_555
Li0 O15 2.313345 1_565
Li0 O0 2.504688 1_555
Li0 O1 2.581878 1_555
Li1 O7 1.921371 1_555
Li1 O12 2.085639 1_655
Li1 O13 2.112056 1_555
Li1 O11 2.336831 1_555
Li1 O10 2.409544 1_655
Li1 O4 2.581145 1_554
O0 Sb4 1.989958 1_565
O0 Sb0 2.061424 1_455
O1 Sb5 1.997068 1_565
O1 Sb0 2.101188 1_555
O2 Sb0 2.021330 1_555
O2 Sb1 2.056932 1_655
O2 Sb2 2.285553 1_555
O3 Sb1 1.949629 1_555
O3 Sb2 2.163008 1_555
O4 Sb1 1.947870 1_655
O4 Sb2 2.252920 1_555
O5 Sb1 2.102998 1_555
O5 Sb3 2.146102 1_556
O5 Sb2 2.283413 1_555
O6 Sb3 1.976528 1_555
O6 Sb0 2.021712 1_455
O7 Sb0 1.889896 1_555
O8 Sb5 2.111424 1_555
O8 Sb4 2.125816 1_555
O8 Sb1 2.196318 1_555
O9 Sb4 2.057214 1_655
O9 Sb5 2.058921 1_555
O9 Sb2 2.352612 1_555
O10 Sb1 2.024282 1_554
O10 Sb3 2.029300 1_555
O11 Sb3 2.014867 1_555
O11 Sb2 2.113705 1_554
O12 Sb4 1.969896 1_555
O12 Sb3 2.011529 1_555
O13 Sb5 1.979002 1_555
O13 Sb3 2.019539 1_555
O14 Sb0 2.158227 1_545
O14 Sb4 2.162752 1_655
O14 Sb5 2.183861 1_555
O15 Sb5 2.036980 1_555
O15 Sb4 2.038542 1_555
