# generated using pymatgen
data_LiMnPO4F
_symmetry_space_group_name_H-M   'P 1'
_cell_length_a   6.16141700
_cell_length_b   10.85760000
_cell_length_c   12.52220300
_cell_angle_alpha   90.00000000
_cell_angle_beta   90.00000000
_cell_angle_gamma   90.00000000
_symmetry_Int_Tables_number   1
_chemical_formula_structural   LiMnPO4F
_chemical_formula_sum   'Li8 Mn8 P8 O32 F8'
_cell_volume   837.71285600
_cell_formula_units_Z   8
loop_
 _symmetry_equiv_pos_site_id
 _symmetry_equiv_pos_as_xyz
  1  'x, y, z'
loop_
 _atom_site_type_symbol
 _atom_site_label
 _atom_site_symmetry_multiplicity
 _atom_site_fract_x
 _atom_site_fract_y
 _atom_site_fract_z
 _atom_site_occupancy
  Li  Li0  1  0.80134500  0.17244400  0.38612100  1
  Li  Li1  1  0.69865500  0.17244400  0.88612100  1
  Li  Li2  1  0.60137100  0.46538400  0.60575400  1
  Li  Li3  1  0.89862900  0.46538400  0.10575400  1
  Li  Li4  1  0.30134500  0.67244400  0.11387900  1
  Li  Li5  1  0.19865500  0.67244400  0.61387900  1
  Li  Li6  1  0.39862900  0.96538400  0.39424600  1
  Li  Li7  1  0.10137100  0.96538400  0.89424600  1
  Mn  Mn0  1  0.99080000  0.00453500  0.12209500  1
  Mn  Mn1  1  0.50920000  0.00453500  0.62209500  1
  Mn  Mn2  1  0.23581200  0.24684600  0.25813900  1
  Mn  Mn3  1  0.26418800  0.24684600  0.75813900  1
  Mn  Mn4  1  0.49080000  0.50453500  0.37790500  1
  Mn  Mn5  1  0.00920000  0.50453500  0.87790500  1
  Mn  Mn6  1  0.73581200  0.74684600  0.24186100  1
  Mn  Mn7  1  0.76418800  0.74684600  0.74186100  1
  P  P0  1  0.34942700  0.24134600  0.50465600  1
  P  P1  1  0.15057300  0.24134600  0.00465600  1
  P  P2  1  0.99127100  0.50223800  0.31530000  1
  P  P3  1  0.50872900  0.50223800  0.81530000  1
  P  P4  1  0.84942700  0.74134600  0.99534400  1
  P  P5  1  0.65057300  0.74134600  0.49534400  1
  P  P6  1  0.49127100  0.00223800  0.18470000  1
  P  P7  1  0.00872900  0.00223800  0.68470000  1
  O  O0  1  0.81625700  0.03029100  0.61086400  1
  O  O1  1  0.68374300  0.03029100  0.11086400  1
  O  O2  1  0.06047400  0.10402600  0.77023600  1
  O  O3  1  0.43952600  0.10402600  0.27023600  1
  O  O4  1  0.01044300  0.11913500  0.99773100  1
  O  O5  1  0.48955700  0.11913500  0.49773100  1
  O  O6  1  0.18102700  0.23938200  0.41172800  1
  O  O7  1  0.31897300  0.23938200  0.91172800  1
  O  O8  1  0.28539600  0.24382200  0.10771600  1
  O  O9  1  0.21460400  0.24382200  0.60771600  1
  O  O10  1  0.50473800  0.35103800  0.49611100  1
  O  O11  1  0.99526200  0.35103800  0.99611100  1
  O  O12  1  0.03331200  0.38837000  0.24231500  1
  O  O13  1  0.46668800  0.38837000  0.74231500  1
  O  O14  1  0.79789900  0.48154400  0.39040600  1
  O  O15  1  0.70210100  0.48154400  0.89040600  1
  O  O16  1  0.18374300  0.53029100  0.38913600  1
  O  O17  1  0.31625700  0.53029100  0.88913600  1
  O  O18  1  0.93952600  0.60402600  0.22976400  1
  O  O19  1  0.56047400  0.60402600  0.72976400  1
  O  O20  1  0.51044300  0.61913500  0.50226900  1
  O  O21  1  0.98955700  0.61913500  0.00226900  1
  O  O22  1  0.68102700  0.73938200  0.08827200  1
  O  O23  1  0.81897300  0.73938200  0.58827200  1
  O  O24  1  0.78539600  0.74382200  0.39228400  1
  O  O25  1  0.71460400  0.74382200  0.89228400  1
  O  O26  1  0.00473800  0.85103800  0.00388900  1
  O  O27  1  0.49526200  0.85103800  0.50388900  1
  O  O28  1  0.96668800  0.88837000  0.75768500  1
  O  O29  1  0.53331200  0.88837000  0.25768500  1
  O  O30  1  0.29789900  0.98154400  0.10959400  1
  O  O31  1  0.20210100  0.98154400  0.60959400  1
  F  F0  1  0.95859800  0.12974500  0.25921700  1
  F  F1  1  0.54140200  0.12974500  0.75921700  1
  F  F2  1  0.48616500  0.37985300  0.27028300  1
  F  F3  1  0.01383500  0.37985300  0.77028300  1
  F  F4  1  0.45859800  0.62974500  0.24078300  1
  F  F5  1  0.04140200  0.62974500  0.74078300  1
  F  F6  1  0.98616500  0.87985300  0.22971700  1
  F  F7  1  0.51383500  0.87985300  0.72971700  1
loop_
_geom_bond_atom_site_label_1
_geom_bond_atom_site_label_2
_geom_bond_distance
_geom_bond_site_symmetry_2
Li0 O5 2.445152 1_555
Li0 O6 2.470573 1_655
Li1 O4 2.445152 1_655
Li1 O7 2.470573 1_555
Li2 O10 1.944461 1_555
Li2 O13 2.076558 1_555
Li2 O19 2.177364 1_555
Li2 O20 2.186301 1_555
Li3 O11 1.944461 1_554
Li3 O12 2.076558 1_655
Li3 O18 2.177364 1_555
Li3 O21 2.186301 1_555
Li4 O21 2.445152 1_455
Li4 O22 2.470573 1_555
Li5 O20 2.445152 1_555
Li5 O23 2.470573 1_455
Li6 O27 1.944461 1_555
Li6 O29 2.076558 1_555
Li6 O3 2.177364 1_565
Li6 O5 2.186301 1_565
Li7 O26 1.944461 1_556
Li7 O28 2.076558 1_455
Li7 O2 2.177364 1_565
Li7 O4 2.186301 1_565
Mn0 O30 1.914969 1_645
Mn0 O1 1.917626 1_555
Mn0 O4 1.997023 1_654
Mn0 O26 2.230684 1_645
Mn1 O31 1.914969 1_545
Mn1 O0 1.917626 1_555
Mn1 O5 1.997023 1_555
Mn1 O27 2.230684 1_545
Mn2 O8 1.908524 1_555
Mn2 O6 1.954351 1_555
Mn2 O12 1.989261 1_555
Mn2 O3 2.000751 1_555
Mn3 O9 1.908524 1_555
Mn3 O7 1.954351 1_555
Mn3 O13 1.989261 1_555
Mn3 O2 2.000751 1_555
Mn4 O14 1.914969 1_555
Mn4 O16 1.917626 1_555
Mn4 O20 1.997023 1_555
Mn4 O10 2.230684 1_555
Mn5 O15 1.914969 1_455
Mn5 O17 1.917626 1_555
Mn5 O21 1.997023 1_456
Mn5 O11 2.230684 1_455
Mn6 O24 1.908524 1_555
Mn6 O22 1.954351 1_555
Mn6 O29 1.989261 1_555
Mn6 O18 2.000751 1_555
Mn7 O25 1.908524 1_555
Mn7 O23 1.954351 1_555
Mn7 O28 1.989261 1_555
Mn7 O19 2.000751 1_555
O0 P7 1.534275 1_655
O1 P6 1.534275 1_555
O2 P7 1.571722 1_555
O3 P6 1.571722 1_555
O4 P1 1.585462 1_556
O5 P0 1.585462 1_555
O6 P0 1.559213 1_555
O7 P1 1.559213 1_556
O8 P1 1.535016 1_555
O9 P0 1.535016 1_555
O10 P0 1.531547 1_555
O11 P1 1.531547 1_656
O12 P2 1.559131 1_455
O13 P3 1.559131 1_555
O14 P2 1.534455 1_555
O15 P3 1.534455 1_555
O16 P2 1.534275 1_455
O17 P3 1.534275 1_555
O18 P2 1.571722 1_555
O19 P3 1.571722 1_555
O20 P5 1.585462 1_555
O21 P4 1.585462 1_554
O22 P4 1.559213 1_554
O23 P5 1.559213 1_555
O24 P5 1.535016 1_555
O25 P4 1.535016 1_555
O26 P4 1.531547 1_454
O27 P5 1.531547 1_555
O28 P7 1.559131 1_665
O29 P6 1.559131 1_565
O30 P6 1.534455 1_565
O31 P7 1.534455 1_565
F0 Li0 1.918071 1_555
F0 Mn2 2.129343 1_655
F0 Mn0 2.199064 1_555
F1 Li1 1.918071 1_555
F1 Mn3 2.129343 1_555
F1 Mn1 2.199064 1_555
F2 Mn4 1.910405 1_555
F2 Mn2 2.118502 1_555
F3 Mn5 1.910405 1_555
F3 Mn3 2.118502 1_555
F4 Li4 1.918071 1_555
F4 Mn6 2.129343 1_555
F4 Mn4 2.199064 1_555
F5 Li5 1.918071 1_555
F5 Mn7 2.129343 1_455
F5 Mn5 2.199064 1_555
F6 Mn0 1.910405 1_565
F6 Mn6 2.118502 1_555
F7 Mn1 1.910405 1_565
F7 Mn7 2.118502 1_555
