# generated using pymatgen
data_Li2FePCO7
_symmetry_space_group_name_H-M   'P 1'
_cell_length_a   5.09051500
_cell_length_b   6.51072444
_cell_length_c   16.63003167
_cell_angle_alpha   90.54223525
_cell_angle_beta   94.86125423
_cell_angle_gamma   90.23214153
_symmetry_Int_Tables_number   1
_chemical_formula_structural   Li2FePCO7
_chemical_formula_sum   'Li8 Fe4 P4 C4 O28'
_cell_volume   549.15439469
_cell_formula_units_Z   4
loop_
 _symmetry_equiv_pos_site_id
 _symmetry_equiv_pos_as_xyz
  1  'x, y, z'
loop_
 _atom_site_type_symbol
 _atom_site_label
 _atom_site_symmetry_multiplicity
 _atom_site_fract_x
 _atom_site_fract_y
 _atom_site_fract_z
 _atom_site_occupancy
  Li  Li0  1  0.76086300  0.73592500  0.95133600  1
  Li  Li1  1  0.24782800  0.96845900  0.86219500  1
  Li  Li2  1  0.75033300  0.03302600  0.63689000  1
  Li  Li3  1  0.23841800  0.25036600  0.54838300  1
  Li  Li4  1  0.76200300  0.75468300  0.45173000  1
  Li  Li5  1  0.24818100  0.53385500  0.36197300  1
  Li  Li6  1  0.75314700  0.03118000  0.13824700  1
  Li  Li7  1  0.24054100  0.26841900  0.04743800  1
  Fe  Fe0  1  0.79848700  0.26172600  0.83448800  1
  Fe  Fe1  1  0.20129200  0.74261900  0.66532800  1
  Fe  Fe2  1  0.79924400  0.23934800  0.33492100  1
  Fe  Fe3  1  0.19974400  0.73418700  0.16534800  1
  P  P0  1  0.72205100  0.76048800  0.78983500  1
  P  P1  1  0.27781600  0.24303200  0.71011700  1
  P  P2  1  0.72217900  0.74806300  0.29038800  1
  P  P3  1  0.27748000  0.24593200  0.20974400  1
  C  C0  1  0.70327900  0.23247900  0.97982800  1
  C  C1  1  0.29788400  0.74835000  0.51999300  1
  C  C2  1  0.70298300  0.25243600  0.47995500  1
  C  C3  1  0.29666600  0.76955400  0.02042000  1
  O  O0  1  0.94830700  0.25059300  0.96174900  1
  O  O1  1  0.36569500  0.78228200  0.94882800  1
  O  O2  1  0.52648000  0.23604000  0.91761900  1
  O  O3  1  0.82441000  0.93616500  0.84875800  1
  O  O4  1  0.78410600  0.56386600  0.83934600  1
  O  O5  1  0.14465200  0.23300900  0.78998400  1
  O  O6  1  0.41853700  0.78277200  0.76974000  1
  O  O7  1  0.58113800  0.21866000  0.73013100  1
  O  O8  1  0.85527400  0.76951600  0.70993900  1
  O  O9  1  0.21777600  0.44002000  0.66081300  1
  O  O10  1  0.17362000  0.06761000  0.65108600  1
  O  O11  1  0.47347900  0.77428700  0.58190600  1
  O  O12  1  0.63329100  0.22382900  0.55069300  1
  O  O13  1  0.05190800  0.74396100  0.53858300  1
  O  O14  1  0.94900500  0.25079500  0.46167000  1
  O  O15  1  0.36665400  0.72410900  0.44907000  1
  O  O16  1  0.52807800  0.27950600  0.41841800  1
  O  O17  1  0.78115700  0.93560000  0.34761400  1
  O  O18  1  0.82825600  0.56368400  0.34207400  1
  O  O19  1  0.14556400  0.27269100  0.28940400  1
  O  O20  1  0.41907200  0.72135200  0.26994200  1
  O  O21  1  0.58058800  0.22252900  0.23026000  1
  O  O22  1  0.85406200  0.77060600  0.21071500  1
  O  O23  1  0.21782600  0.43075400  0.15252500  1
  O  O24  1  0.17196300  0.05859500  0.15828500  1
  O  O25  1  0.47255200  0.76918600  0.08279500  1
  O  O26  1  0.63490100  0.21530800  0.05123400  1
  O  O27  1  0.05122700  0.75251900  0.03825900  1
loop_
_geom_bond_atom_site_label_1
_geom_bond_atom_site_label_2
_geom_bond_distance
_geom_bond_site_symmetry_2
Li0 O27 1.979808 1_656
Li0 O1 2.032324 1_555
Li0 O4 2.176320 1_555
Li0 O3 2.201479 1_555
Li1 O1 1.948689 1_555
Li1 O5 2.150403 1_565
Li1 O3 2.157259 1_455
Li1 O6 2.186438 1_555
Li1 O2 2.371644 1_565
Li2 O12 1.961622 1_555
Li2 O8 2.154400 1_545
Li2 O10 2.158292 1_655
Li2 O7 2.192314 1_555
Li2 O11 2.322350 1_545
Li3 O14 1.972314 1_455
Li3 O12 2.015368 1_555
Li3 O10 2.138336 1_555
Li3 O9 2.241031 1_555
Li4 O13 1.977481 1_655
Li4 O15 2.018256 1_555
Li4 O17 2.112148 1_555
Li4 O18 2.247290 1_555
Li5 O15 1.951396 1_555
Li5 O19 2.113685 1_555
Li5 O18 2.145086 1_455
Li5 O20 2.200398 1_555
Li5 O16 2.339962 1_555
Li6 O26 1.945356 1_555
Li6 O22 2.129625 1_545
Li6 O24 2.136273 1_655
Li6 O21 2.205839 1_555
Li6 O25 2.351071 1_545
Li7 O0 1.973151 1_454
Li7 O26 2.034245 1_555
Li7 O23 2.045686 1_555
Li7 O24 2.353522 1_555
Fe0 O4 1.969956 1_555
Fe0 O5 1.977120 1_655
Fe0 O7 1.994352 1_555
Fe0 O2 2.045337 1_555
Fe0 O3 2.138475 1_545
Fe0 O0 2.189898 1_555
Fe1 O9 1.973254 1_555
Fe1 O8 1.976142 1_455
Fe1 O6 1.992472 1_555
Fe1 O11 2.053251 1_555
Fe1 O10 2.135259 1_565
Fe1 O13 2.179403 1_555
Fe2 O21 1.986799 1_555
Fe2 O19 1.988533 1_655
Fe2 O17 1.993422 1_545
Fe2 O16 2.054945 1_555
Fe2 O18 2.117739 1_555
Fe2 O14 2.180356 1_555
Fe3 O22 1.986699 1_455
Fe3 O20 1.988320 1_555
Fe3 O23 1.988377 1_555
Fe3 O25 2.047373 1_555
Fe3 O24 2.121130 1_565
Fe3 O27 2.188006 1_555
C0 O26 1.271231 1_556
C0 O0 1.312686 1_555
C0 O2 1.312867 1_555
C1 O15 1.267072 1_555
C1 O11 1.314202 1_555
C1 O13 1.315197 1_555
C2 O12 1.272303 1_555
C2 O16 1.311992 1_555
C2 O14 1.313630 1_555
C3 O1 1.272932 1_554
C3 O25 1.311602 1_555
C3 O27 1.312882 1_555
O3 P0 1.557997 1_555
O4 P0 1.547791 1_555
O5 P1 1.543289 1_555
O6 P0 1.560483 1_555
O7 P1 1.560762 1_555
O8 P0 1.543574 1_555
O9 P1 1.546349 1_555
O10 P1 1.560485 1_555
O17 P2 1.553470 1_555
O18 P2 1.554854 1_555
O19 P3 1.543893 1_555
O20 P2 1.560257 1_555
O21 P3 1.560148 1_555
O22 P2 1.543188 1_555
O23 P3 1.556059 1_555
O24 P3 1.550982 1_555
