# generated using pymatgen
data_Li4Mn5Cr(PO4)6
_symmetry_space_group_name_H-M   'P 1'
_cell_length_a   8.50744100
_cell_length_b   8.62200803
_cell_length_c   8.68347169
_cell_angle_alpha   62.38691627
_cell_angle_beta   63.20689208
_cell_angle_gamma   63.26080019
_symmetry_Int_Tables_number   1
_chemical_formula_structural   Li4Mn5Cr(PO4)6
_chemical_formula_sum   'Li4 Mn5 Cr1 P6 O24'
_cell_volume   479.84590999
_cell_formula_units_Z   1
loop_
 _symmetry_equiv_pos_site_id
 _symmetry_equiv_pos_as_xyz
  1  'x, y, z'
loop_
 _atom_site_type_symbol
 _atom_site_label
 _atom_site_symmetry_multiplicity
 _atom_site_fract_x
 _atom_site_fract_y
 _atom_site_fract_z
 _atom_site_occupancy
  Li  Li0  1  0.74202700  0.14926200  0.36199400  1
  Li  Li1  1  0.26933300  0.84888900  0.65122300  1
  Li  Li2  1  0.64786500  0.26276000  0.85710500  1
  Li  Li3  1  0.85147300  0.65166100  0.26970300  1
  Mn  Mn0  1  0.01569900  0.00144800  0.99243400  1
  Mn  Mn1  1  0.35006600  0.35241400  0.35097300  1
  Mn  Mn2  1  0.49076900  0.50192900  0.50129300  1
  Mn  Mn3  1  0.14492000  0.15081900  0.14821900  1
  Mn  Mn4  1  0.65641700  0.65056400  0.65822200  1
  Cr  Cr0  1  0.85233700  0.85000700  0.85221300  1
  P  P0  1  0.05600500  0.75235500  0.44568900  1
  P  P1  1  0.44594800  0.04896200  0.74883300  1
  P  P2  1  0.75282000  0.44403100  0.05424800  1
  P  P3  1  0.24632700  0.54864200  0.95117300  1
  P  P4  1  0.55806300  0.95356800  0.24616900  1
  P  P5  1  0.93604200  0.24501700  0.55142200  1
  O  O0  1  0.46411100  0.90066000  0.68409400  1
  O  O1  1  0.68803800  0.45681300  0.90896700  1
  O  O2  1  0.90547200  0.68926800  0.45939600  1
  O  O3  1  0.06165200  0.92260500  0.26138100  1
  O  O4  1  0.00594600  0.81037900  0.61020500  1
  O  O5  1  0.24684800  0.60619500  0.42843200  1
  O  O6  1  0.25679800  0.07395100  0.89927600  1
  O  O7  1  0.45576400  0.23263000  0.58807000  1
  O  O8  1  0.17980500  0.39047200  0.99483200  1
  O  O9  1  0.61020700  0.42349700  0.24787800  1
  O  O10  1  0.09018600  0.74469500  0.92328700  1
  O  O11  1  0.38799400  0.01624800  0.18871900  1
  O  O12  1  0.60692000  0.99562300  0.81975900  1
  O  O13  1  0.91097400  0.25129800  0.07692000  1
  O  O14  1  0.39468300  0.57020600  0.75779600  1
  O  O15  1  0.81568000  0.60682100  0.00435100  1
  O  O16  1  0.57038900  0.75893600  0.39555200  1
  O  O17  1  0.74960800  0.92097600  0.08706400  1
  O  O18  1  0.74578900  0.39956300  0.58357100  1
  O  O19  1  0.94734400  0.18627800  0.40502400  1
  O  O20  1  0.92043400  0.08793600  0.74753100  1
  O  O21  1  0.10189000  0.29846400  0.50708300  1
  O  O22  1  0.30845900  0.52427300  0.10061000  1
  O  O23  1  0.55890200  0.09688500  0.30228700  1
loop_
_geom_bond_atom_site_label_1
_geom_bond_atom_site_label_2
_geom_bond_distance
_geom_bond_site_symmetry_2
Li0 O9 2.067378 1_555
Li0 O23 2.116179 1_555
Li0 O19 2.119694 1_555
Li0 O13 2.208847 1_555
Li0 O7 2.392525 1_555
Li0 O3 2.575944 1_645
Li1 O0 2.058322 1_555
Li1 O14 2.071175 1_555
Li1 O10 2.174785 1_555
Li1 O16 2.602418 1_555
Li2 O18 2.056743 1_555
Li2 O1 2.114417 1_555
Li2 O20 2.179358 1_555
Li2 O14 2.612939 1_555
Li3 O2 2.083454 1_555
Li3 O16 2.087775 1_555
Li3 O17 2.161616 1_555
Mn0 O6 2.107483 1_555
Mn0 O13 2.263025 1_456
Mn0 O3 2.276248 1_546
Mn0 O20 2.296809 1_455
Mn0 O10 2.299884 1_545
Mn0 O17 2.342872 1_446
Mn1 O21 2.056861 1_555
Mn1 O22 2.069508 1_555
Mn1 O23 2.202993 1_555
Mn1 O7 2.230754 1_555
Mn1 O9 2.236242 1_555
Mn1 O5 2.261439 1_555
Mn2 O5 2.119522 1_555
Mn2 O7 2.201303 1_555
Mn2 O9 2.253305 1_555
Mn2 O18 2.255272 1_555
Mn2 O16 2.261865 1_555
Mn2 O14 2.262031 1_555
Mn3 O8 1.943165 1_554
Mn3 O11 1.965851 1_555
Mn3 O13 2.038917 1_455
Mn3 O3 2.042914 1_545
Mn3 O19 2.163758 1_455
Mn3 O6 2.218919 1_554
Mn4 O0 2.078459 1_555
Mn4 O1 2.087037 1_555
Mn4 O2 2.094224 1_555
Mn4 O18 2.248822 1_555
Mn4 O14 2.298473 1_555
Mn4 O16 2.350558 1_555
Cr0 O12 1.964319 1_555
Cr0 O15 1.971827 1_556
Cr0 O4 2.007150 1_655
Cr0 O20 2.058232 1_565
Cr0 O10 2.062260 1_655
Cr0 O17 2.089447 1_556
O0 P1 1.544378 1_565
O1 P2 1.533187 1_556
O2 P0 1.542563 1_655
O3 P0 1.592103 1_555
O4 P0 1.547504 1_555
O5 P0 1.536601 1_555
O6 P1 1.547970 1_555
O7 P1 1.558241 1_555
O8 P3 1.531537 1_555
O9 P2 1.551980 1_555
O10 P3 1.603283 1_555
O11 P4 1.526922 1_545
O12 P1 1.548329 1_565
O13 P2 1.591877 1_555
O14 P3 1.567888 1_555
O15 P2 1.531843 1_555
O16 P4 1.567198 1_555
O17 P4 1.600415 1_555
O18 P5 1.571607 1_555
O19 P5 1.524662 1_555
O20 P5 1.603684 1_555
O21 P5 1.510699 1_455
O22 P3 1.507677 1_554
O23 P4 1.527638 1_545
