# generated using pymatgen
data_Tb2Nb2O7
_symmetry_space_group_name_H-M   'P 1'
_cell_length_a   7.36130686
_cell_length_b   7.36130686
_cell_length_c   7.36130686
_cell_angle_alpha   60.00000000
_cell_angle_beta   60.00000000
_cell_angle_gamma   60.00000000
_symmetry_Int_Tables_number   1
_chemical_formula_structural   Tb2Nb2O7
_chemical_formula_sum   'Tb4 Nb4 O14'
_cell_volume   282.06536890
_cell_formula_units_Z   2
loop_
 _symmetry_equiv_pos_site_id
 _symmetry_equiv_pos_as_xyz
  1  'x, y, z'
loop_
 _atom_site_type_symbol
 _atom_site_label
 _atom_site_symmetry_multiplicity
 _atom_site_fract_x
 _atom_site_fract_y
 _atom_site_fract_z
 _atom_site_occupancy
  Tb  Tb0  1  0.12500000  0.62500000  0.12500000  1
  Tb  Tb1  1  0.12500000  0.12500000  0.62500000  1
  Tb  Tb2  1  0.62500000  0.12500000  0.12500000  1
  Tb  Tb3  1  0.12500000  0.12500000  0.12500000  1
  Nb  Nb0  1  0.62500000  0.62500000  0.62500000  1
  Nb  Nb1  1  0.12500000  0.62500000  0.62500000  1
  Nb  Nb2  1  0.62500000  0.12500000  0.62500000  1
  Nb  Nb3  1  0.62500000  0.62500000  0.12500000  1
  O  O0  1  0.28060300  0.71939700  0.71939700  1
  O  O1  1  0.53060300  0.96939700  0.96939700  1
  O  O2  1  0.71939700  0.28060300  0.71939700  1
  O  O3  1  0.71939700  0.71939700  0.28060300  1
  O  O4  1  0.28060300  0.28060300  0.71939700  1
  O  O5  1  0.00000000  0.00000000  0.00000000  1
  O  O6  1  0.28060300  0.71939700  0.28060300  1
  O  O7  1  0.96939700  0.53060300  0.96939700  1
  O  O8  1  0.96939700  0.96939700  0.53060300  1
  O  O9  1  0.25000000  0.25000000  0.25000000  1
  O  O10  1  0.53060300  0.96939700  0.53060300  1
  O  O11  1  0.53060300  0.53060300  0.96939700  1
  O  O12  1  0.71939700  0.28060300  0.28060300  1
  O  O13  1  0.96939700  0.53060300  0.53060300  1
loop_
_geom_bond_atom_site_label_1
_geom_bond_atom_site_label_2
_geom_bond_distance
_geom_bond_site_symmetry_2
Nb0 O13 2.086273 1_555
Nb0 O10 2.086273 1_555
Nb0 O11 2.086273 1_555
Nb0 O2 2.086273 1_555
Nb0 O3 2.086273 1_555
Nb0 O0 2.086273 1_555
Nb1 O0 2.086273 1_555
Nb1 O13 2.086273 1_455
Nb1 O7 2.086273 1_455
Nb1 O8 2.086273 1_455
Nb1 O4 2.086273 1_555
Nb1 O6 2.086273 1_555
Nb2 O2 2.086273 1_555
Nb2 O10 2.086273 1_545
Nb2 O1 2.086273 1_545
Nb2 O8 2.086273 1_545
Nb2 O4 2.086273 1_555
Nb2 O12 2.086273 1_555
Nb3 O3 2.086273 1_555
Nb3 O7 2.086273 1_554
Nb3 O11 2.086273 1_554
Nb3 O1 2.086273 1_554
Nb3 O12 2.086273 1_555
Nb3 O6 2.086273 1_555
O0 Tb0 2.451708 1_556
O0 Tb1 2.451708 1_565
O1 Tb3 2.451708 1_566
O1 Tb2 2.451708 1_566
O2 Tb1 2.451708 1_655
O2 Tb2 2.451708 1_556
O3 Tb2 2.451708 1_565
O3 Tb0 2.451708 1_655
O4 Tb1 2.451708 1_555
O4 Tb3 2.451708 1_556
O5 Tb1 2.253931 1_554
O5 Tb0 2.253931 1_545
O5 Tb3 2.253931 1_555
O5 Tb2 2.253931 1_455
O6 Tb0 2.451708 1_555
O6 Tb3 2.451708 1_565
O7 Tb3 2.451708 1_656
O7 Tb0 2.451708 1_656
O8 Tb1 2.451708 1_665
O8 Tb3 2.451708 1_665
O9 Tb3 2.253931 1_555
O9 Tb0 2.253931 1_555
O9 Tb1 2.253931 1_555
O9 Tb2 2.253931 1_555
O10 Tb2 2.451708 1_565
O10 Tb1 2.451708 1_565
O11 Tb0 2.451708 1_556
O11 Tb2 2.451708 1_556
O12 Tb2 2.451708 1_555
O12 Tb3 2.451708 1_655
O13 Tb1 2.451708 1_655
O13 Tb0 2.451708 1_655
