# generated using pymatgen
data_Ca(CdSb)2
_symmetry_space_group_name_H-M   'P 1'
_cell_length_a   4.69260320
_cell_length_b   4.69260343
_cell_length_c   7.62428218
_cell_angle_alpha   90.00000000
_cell_angle_beta   90.00000000
_cell_angle_gamma   120.00000570
_symmetry_Int_Tables_number   1
_chemical_formula_structural   Ca(CdSb)2
_chemical_formula_sum   'Ca1 Cd2 Sb2'
_cell_volume   145.39760544
_cell_formula_units_Z   1
loop_
 _symmetry_equiv_pos_site_id
 _symmetry_equiv_pos_as_xyz
  1  'x, y, z'
loop_
 _atom_site_type_symbol
 _atom_site_label
 _atom_site_symmetry_multiplicity
 _atom_site_fract_x
 _atom_site_fract_y
 _atom_site_fract_z
 _atom_site_occupancy
  Ca  Ca0  1  -0.00000000  0.00000000  0.00000000  1
  Cd  Cd0  1  0.33333300  0.66666700  0.63010544  1
  Cd  Cd1  1  0.66666700  0.33333300  0.36989456  1
  Sb  Sb0  1  0.33333300  0.66666700  0.23840750  1
  Sb  Sb1  1  0.66666700  0.33333300  0.76159250  1
loop_
_geom_bond_atom_site_label_1
_geom_bond_atom_site_label_2
_geom_bond_distance
_geom_bond_site_symmetry_2
Ca0 Sb1 3.262536 1_454
Ca0 Sb0 3.262536 1_545
Ca0 Sb1 3.262540 1_554
Ca0 Sb0 3.262540 1_445
Ca0 Sb1 3.262540 1_444
Ca0 Sb0 3.262540 1_555
Cd0 Sb1 2.888798 1_455
Cd0 Sb1 2.888798 1_565
Cd0 Sb1 2.888806 1_555
Cd0 Sb0 2.986416 1_555
Cd1 Sb0 2.888798 1_655
Cd1 Sb0 2.888798 1_545
Cd1 Sb0 2.888806 1_555
Cd1 Sb1 2.986416 1_555
