# generated using pymatgen
data_LiBi3O5
_symmetry_space_group_name_H-M   'P 1'
_cell_length_a   6.44207300
_cell_length_b   8.02631400
_cell_length_c   10.16224900
_cell_angle_alpha   90.00000000
_cell_angle_beta   90.00000000
_cell_angle_gamma   90.00000000
_symmetry_Int_Tables_number   1
_chemical_formula_structural   LiBi3O5
_chemical_formula_sum   'Li4 Bi12 O20'
_cell_volume   525.45027022
_cell_formula_units_Z   4
loop_
 _symmetry_equiv_pos_site_id
 _symmetry_equiv_pos_as_xyz
  1  'x, y, z'
loop_
 _atom_site_type_symbol
 _atom_site_label
 _atom_site_symmetry_multiplicity
 _atom_site_fract_x
 _atom_site_fract_y
 _atom_site_fract_z
 _atom_site_occupancy
  Li  Li0  1  0.69763600  0.75000000  0.60936700  1
  Li  Li1  1  0.80236400  0.75000000  0.10936700  1
  Li  Li2  1  0.19763600  0.25000000  0.89063300  1
  Li  Li3  1  0.30236400  0.25000000  0.39063300  1
  Bi  Bi0  1  0.94534100  0.95022800  0.82267300  1
  Bi  Bi1  1  0.55465900  0.95022800  0.32267300  1
  Bi  Bi2  1  0.39086100  0.75000000  0.97137000  1
  Bi  Bi3  1  0.10913900  0.75000000  0.47137000  1
  Bi  Bi4  1  0.94534100  0.54977200  0.82267300  1
  Bi  Bi5  1  0.55465900  0.54977200  0.32267300  1
  Bi  Bi6  1  0.44534100  0.45022800  0.67732700  1
  Bi  Bi7  1  0.05465900  0.45022800  0.17732700  1
  Bi  Bi8  1  0.89086100  0.25000000  0.52863000  1
  Bi  Bi9  1  0.60913900  0.25000000  0.02863000  1
  Bi  Bi10  1  0.44534100  0.04977200  0.67732700  1
  Bi  Bi11  1  0.05465900  0.04977200  0.17732700  1
  O  O0  1  0.81301300  0.98721100  0.61145000  1
  O  O1  1  0.68698700  0.98721100  0.11145000  1
  O  O2  1  0.68499100  0.75000000  0.80942400  1
  O  O3  1  0.46564700  0.75000000  0.48664300  1
  O  O4  1  0.81500900  0.75000000  0.30942400  1
  O  O5  1  0.03435300  0.75000000  0.98664300  1
  O  O6  1  0.12257500  0.75000000  0.72001000  1
  O  O7  1  0.37742500  0.75000000  0.22001000  1
  O  O8  1  0.81301300  0.51278900  0.61145000  1
  O  O9  1  0.68698700  0.51278900  0.11145000  1
  O  O10  1  0.31301300  0.48721100  0.88855000  1
  O  O11  1  0.18698700  0.48721100  0.38855000  1
  O  O12  1  0.62257500  0.25000000  0.77999000  1
  O  O13  1  0.87742500  0.25000000  0.27999000  1
  O  O14  1  0.96564700  0.25000000  0.01335700  1
  O  O15  1  0.18499100  0.25000000  0.69057600  1
  O  O16  1  0.53435300  0.25000000  0.51335700  1
  O  O17  1  0.31500900  0.25000000  0.19057600  1
  O  O18  1  0.31301300  0.01278900  0.88855000  1
  O  O19  1  0.18698700  0.01278900  0.38855000  1
loop_
_geom_bond_atom_site_label_1
_geom_bond_atom_site_label_2
_geom_bond_distance
_geom_bond_site_symmetry_2
Li0 O3 1.946507 1_555
Li0 O2 2.034660 1_555
Li0 O0 2.043977 1_555
Li0 O8 2.043977 1_555
Li1 O5 1.946507 1_654
Li1 O4 2.034660 1_555
Li1 O1 2.043977 1_555
Li1 O9 2.043977 1_555
Li2 O14 1.946507 1_456
Li2 O15 2.034660 1_555
Li2 O10 2.043977 1_555
Li2 O18 2.043977 1_555
Li3 O16 1.946507 1_555
Li3 O17 2.034660 1_555
Li3 O19 2.043977 1_555
Li3 O11 2.043977 1_555
Bi0 O6 2.230426 1_655
Bi0 O2 2.326769 1_555
Bi0 O0 2.328578 1_555
Bi0 O5 2.384980 1_655
Bi0 O18 2.512058 1_665
Bi1 O7 2.230426 1_555
Bi1 O4 2.326769 1_555
Bi1 O1 2.328578 1_555
Bi1 O3 2.384980 1_555
Bi1 O19 2.512058 1_565
Bi2 O5 2.301889 1_555
Bi2 O18 2.325661 1_565
Bi2 O10 2.325661 1_555
Bi2 O2 2.509729 1_555
Bi2 O7 2.528224 1_556
Bi3 O3 2.301889 1_555
Bi3 O19 2.325661 1_565
Bi3 O11 2.325661 1_555
Bi3 O4 2.509729 1_455
Bi3 O6 2.528224 1_555
Bi4 O6 2.230426 1_655
Bi4 O2 2.326769 1_555
Bi4 O8 2.328578 1_555
Bi4 O5 2.384980 1_655
Bi4 O10 2.512058 1_655
Bi5 O7 2.230426 1_555
Bi5 O4 2.326769 1_555
Bi5 O9 2.328578 1_555
Bi5 O3 2.384980 1_555
Bi5 O11 2.512058 1_555
Bi6 O12 2.230426 1_555
Bi6 O15 2.326769 1_555
Bi6 O10 2.328578 1_555
Bi6 O16 2.384980 1_555
Bi6 O8 2.512058 1_555
Bi7 O13 2.230426 1_455
Bi7 O17 2.326769 1_555
Bi7 O11 2.328578 1_555
Bi7 O14 2.384980 1_455
Bi7 O9 2.512058 1_455
Bi8 O16 2.301889 1_555
Bi8 O8 2.325661 1_555
Bi8 O0 2.325661 1_545
Bi8 O15 2.509729 1_655
Bi8 O13 2.528224 1_555
Bi9 O14 2.301889 1_555
Bi9 O9 2.325661 1_555
Bi9 O1 2.325661 1_545
Bi9 O17 2.509729 1_555
Bi9 O12 2.528224 1_554
Bi10 O12 2.230426 1_555
Bi10 O15 2.326769 1_555
Bi10 O18 2.328578 1_555
Bi10 O16 2.384980 1_555
Bi10 O0 2.512058 1_545
Bi11 O13 2.230426 1_455
Bi11 O17 2.326769 1_555
Bi11 O19 2.328578 1_555
Bi11 O14 2.384980 1_455
Bi11 O1 2.512058 1_445
