# generated using pymatgen
data_Na6Co2P(CO4)4
_symmetry_space_group_name_H-M   'P 1'
_cell_length_a   9.86786888
_cell_length_b   9.86786888
_cell_length_c   9.86786888
_cell_angle_alpha   60.00000000
_cell_angle_beta   60.00000000
_cell_angle_gamma   60.00000000
_symmetry_Int_Tables_number   1
_chemical_formula_structural   Na6Co2P(CO4)4
_chemical_formula_sum   'Na12 Co4 P2 C8 O32'
_cell_volume   679.44625999
_cell_formula_units_Z   2
loop_
 _symmetry_equiv_pos_site_id
 _symmetry_equiv_pos_as_xyz
  1  'x, y, z'
loop_
 _atom_site_type_symbol
 _atom_site_label
 _atom_site_symmetry_multiplicity
 _atom_site_fract_x
 _atom_site_fract_y
 _atom_site_fract_z
 _atom_site_occupancy
  Na  Na0  1  0.20862600  0.20862600  0.79137400  1
  Na  Na1  1  0.79137400  0.20862600  0.20862600  1
  Na  Na2  1  0.79137400  0.20862600  0.79137400  1
  Na  Na3  1  0.20862600  0.79137400  0.20862600  1
  Na  Na4  1  0.45862600  0.45862600  0.04137400  1
  Na  Na5  1  0.04137400  0.45862600  0.45862600  1
  Na  Na6  1  0.20862600  0.79137400  0.79137400  1
  Na  Na7  1  0.79137400  0.79137400  0.20862600  1
  Na  Na8  1  0.45862600  0.04137400  0.45862600  1
  Na  Na9  1  0.04137400  0.45862600  0.04137400  1
  Na  Na10  1  0.04137400  0.04137400  0.45862600  1
  Na  Na11  1  0.45862600  0.04137400  0.04137400  1
  Co  Co0  1  0.62500000  0.12500000  0.62500000  1
  Co  Co1  1  0.62500000  0.62500000  0.12500000  1
  Co  Co2  1  0.12500000  0.62500000  0.62500000  1
  Co  Co3  1  0.62500000  0.62500000  0.62500000  1
  P  P0  1  0.25000000  0.25000000  0.25000000  1
  P  P1  1  0.00000000  0.00000000  0.00000000  1
  C  C0  1  0.40930600  0.40930600  0.40930600  1
  C  C1  1  0.77208300  0.40930600  0.40930600  1
  C  C2  1  0.40930600  0.40930600  0.77208300  1
  C  C3  1  0.40930600  0.77208300  0.40930600  1
  C  C4  1  0.84069400  0.47791700  0.84069400  1
  C  C5  1  0.84069400  0.84069400  0.47791700  1
  C  C6  1  0.47791700  0.84069400  0.84069400  1
  C  C7  1  0.84069400  0.84069400  0.84069400  1
  O  O0  1  0.18545100  0.18545100  0.18545100  1
  O  O1  1  0.44364800  0.18545100  0.18545100  1
  O  O2  1  0.18545100  0.18545100  0.44364800  1
  O  O3  1  0.18545100  0.44364800  0.18545100  1
  O  O4  1  0.43386000  0.26599900  0.52542800  1
  O  O5  1  0.52542800  0.43386000  0.26599900  1
  O  O6  1  0.77471300  0.26599900  0.43386000  1
  O  O7  1  0.26599900  0.52542800  0.43386000  1
  O  O8  1  0.52542800  0.26599900  0.77471300  1
  O  O9  1  0.26599900  0.43386000  0.77471300  1
  O  O10  1  0.77471300  0.52542800  0.26599900  1
  O  O11  1  0.77471300  0.43386000  0.52542800  1
  O  O12  1  0.43386000  0.77471300  0.26599900  1
  O  O13  1  0.43386000  0.52542800  0.77471300  1
  O  O14  1  0.26599900  0.77471300  0.52542800  1
  O  O15  1  0.72457200  0.47528700  0.81614000  1
  O  O16  1  0.52542800  0.77471300  0.43386000  1
  O  O17  1  0.98400100  0.47528700  0.72457200  1
  O  O18  1  0.81614000  0.72457200  0.47528700  1
  O  O19  1  0.81614000  0.47528700  0.98400100  1
  O  O20  1  0.47528700  0.81614000  0.72457200  1
  O  O21  1  0.47528700  0.72457200  0.98400100  1
  O  O22  1  0.98400100  0.81614000  0.47528700  1
  O  O23  1  0.72457200  0.98400100  0.47528700  1
  O  O24  1  0.98400100  0.72457200  0.81614000  1
  O  O25  1  0.47528700  0.98400100  0.81614000  1
  O  O26  1  0.72457200  0.81614000  0.98400100  1
  O  O27  1  0.81614000  0.98400100  0.72457200  1
  O  O28  1  0.06454900  0.80635200  0.06454900  1
  O  O29  1  0.06454900  0.06454900  0.80635200  1
  O  O30  1  0.80635200  0.06454900  0.06454900  1
  O  O31  1  0.06454900  0.06454900  0.06454900  1
loop_
_geom_bond_atom_site_label_1
_geom_bond_atom_site_label_2
_geom_bond_distance
_geom_bond_site_symmetry_2
Na0 O31 2.380237 1_556
Na0 O29 2.380242 1_555
Na0 O9 2.467232 1_555
Na0 O4 2.467232 1_555
Na0 O25 2.483101 1_545
Na0 O17 2.483101 1_455
Na1 O31 2.380237 1_655
Na1 O30 2.380242 1_555
Na1 O6 2.467232 1_555
Na1 O5 2.467232 1_555
Na1 O19 2.483101 1_554
Na1 O23 2.483101 1_545
Na2 O30 2.380233 1_556
Na2 O29 2.380233 1_655
Na2 O8 2.467232 1_555
Na2 O11 2.467232 1_555
Na2 O15 2.483101 1_555
Na2 O27 2.483101 1_545
Na3 O31 2.380237 1_565
Na3 O28 2.380242 1_555
Na3 O12 2.467232 1_555
Na3 O7 2.467232 1_555
Na3 O22 2.483101 1_455
Na3 O21 2.483101 1_554
Na4 O3 2.380233 1_555
Na4 O1 2.380233 1_555
Na4 O15 2.467232 1_554
Na4 O21 2.467232 1_554
Na4 O13 2.483101 1_554
Na4 O5 2.483101 1_555
Na5 O3 2.380233 1_555
Na5 O2 2.380233 1_555
Na5 O18 2.467232 1_455
Na5 O17 2.467232 1_455
Na5 O11 2.483101 1_455
Na5 O7 2.483101 1_555
Na6 O29 2.380233 1_565
Na6 O28 2.380233 1_556
Na6 O13 2.467232 1_555
Na6 O14 2.467232 1_555
Na6 O20 2.483101 1_555
Na6 O24 2.483101 1_455
Na7 O30 2.380233 1_565
Na7 O28 2.380233 1_655
Na7 O10 2.467232 1_555
Na7 O16 2.467232 1_555
Na7 O18 2.483101 1_555
Na7 O26 2.483101 1_554
Na8 O2 2.380233 1_555
Na8 O1 2.380233 1_555
Na8 O23 2.467232 1_545
Na8 O20 2.467232 1_545
Na8 O16 2.483101 1_545
Na8 O4 2.483101 1_555
Na9 O0 2.380237 1_555
Na9 O3 2.380242 1_555
Na9 O19 2.467232 1_454
Na9 O24 2.467232 1_454
Na9 O9 2.483101 1_554
Na9 O10 2.483101 1_455
Na10 O0 2.380237 1_555
Na10 O2 2.380242 1_555
Na10 O27 2.467232 1_445
Na10 O22 2.467232 1_445
Na10 O6 2.483101 1_455
Na10 O14 2.483101 1_545
Na11 O0 2.380237 1_555
Na11 O1 2.380242 1_555
Na11 O25 2.467232 1_544
Na11 O26 2.467232 1_544
Na11 O12 2.483101 1_545
Na11 O8 2.483101 1_554
Co0 O8 2.078631 1_555
Co0 O25 2.078631 1_545
Co0 O6 2.078631 1_555
Co0 O23 2.078631 1_545
Co0 O4 2.078631 1_555
Co0 O27 2.078631 1_545
Co1 O19 2.078631 1_554
Co1 O26 2.078631 1_554
Co1 O10 2.078631 1_555
Co1 O21 2.078631 1_554
Co1 O5 2.078631 1_555
Co1 O12 2.078631 1_555
Co2 O24 2.078631 1_455
Co2 O7 2.078631 1_555
Co2 O17 2.078631 1_455
Co2 O14 2.078631 1_555
Co2 O22 2.078631 1_455
Co2 O9 2.078631 1_555
Co3 O16 2.078631 1_555
Co3 O15 2.078631 1_555
Co3 O18 2.078631 1_555
Co3 O13 2.078631 1_555
Co3 O20 2.078631 1_555
Co3 O11 2.078631 1_555
C0 O4 1.298497 1_555
C0 O5 1.298497 1_555
C0 O7 1.298497 1_555
C1 O11 1.298492 1_555
C1 O10 1.298498 1_555
C1 O6 1.298502 1_555
C2 O13 1.298492 1_555
C2 O8 1.298498 1_555
C2 O9 1.298502 1_555
C3 O16 1.298492 1_555
C3 O14 1.298498 1_555
C3 O12 1.298502 1_555
C4 O15 1.298492 1_555
C4 O17 1.298498 1_555
C4 O19 1.298502 1_555
C5 O18 1.298492 1_555
C5 O23 1.298498 1_555
C5 O22 1.298502 1_555
C6 O20 1.298492 1_555
C6 O21 1.298498 1_555
C6 O25 1.298502 1_555
C7 O27 1.298497 1_555
C7 O26 1.298497 1_555
C7 O24 1.298497 1_555
O0 P0 1.560230 1_555
O1 P0 1.560238 1_555
O2 P0 1.560238 1_555
O3 P0 1.560238 1_555
O28 P1 1.560238 1_565
O29 P1 1.560238 1_556
O30 P1 1.560238 1_655
O31 P1 1.560230 1_555
