# generated using pymatgen
data_Li3VF5
_symmetry_space_group_name_H-M   'P 1'
_cell_length_a   5.66175600
_cell_length_b   12.01635000
_cell_length_c   12.04326900
_cell_angle_alpha   90.00000000
_cell_angle_beta   90.00000000
_cell_angle_gamma   90.00000000
_symmetry_Int_Tables_number   1
_chemical_formula_structural   Li3VF5
_chemical_formula_sum   'Li24 V8 F40'
_cell_volume   819.34744817
_cell_formula_units_Z   8
loop_
 _symmetry_equiv_pos_site_id
 _symmetry_equiv_pos_as_xyz
  1  'x, y, z'
loop_
 _atom_site_type_symbol
 _atom_site_label
 _atom_site_symmetry_multiplicity
 _atom_site_fract_x
 _atom_site_fract_y
 _atom_site_fract_z
 _atom_site_occupancy
  Li  Li0  1  0.04293600  0.30098700  0.33002300  1
  Li  Li1  1  0.04293600  0.19901300  0.83002300  1
  Li  Li2  1  0.16271400  0.08266200  0.57986500  1
  Li  Li3  1  0.16271400  0.41733800  0.07986500  1
  Li  Li4  1  0.23056400  0.53749200  0.31609300  1
  Li  Li5  1  0.23056400  0.96250800  0.81609300  1
  Li  Li6  1  0.26943600  0.03749200  0.31609300  1
  Li  Li7  1  0.26943600  0.46250800  0.81609300  1
  Li  Li8  1  0.33728600  0.91733800  0.07986500  1
  Li  Li9  1  0.33728600  0.58266200  0.57986500  1
  Li  Li10  1  0.45706400  0.69901300  0.83002300  1
  Li  Li11  1  0.45706400  0.80098700  0.33002300  1
  Li  Li12  1  0.54293600  0.30098700  0.16997700  1
  Li  Li13  1  0.54293600  0.19901300  0.66997700  1
  Li  Li14  1  0.66271400  0.41733800  0.42013500  1
  Li  Li15  1  0.66271400  0.08266200  0.92013500  1
  Li  Li16  1  0.73056400  0.53749200  0.18390700  1
  Li  Li17  1  0.73056400  0.96250800  0.68390700  1
  Li  Li18  1  0.76943600  0.46250800  0.68390700  1
  Li  Li19  1  0.76943600  0.03749200  0.18390700  1
  Li  Li20  1  0.83728600  0.58266200  0.92013500  1
  Li  Li21  1  0.83728600  0.91733800  0.42013500  1
  Li  Li22  1  0.95706400  0.80098700  0.16997700  1
  Li  Li23  1  0.95706400  0.69901300  0.66997700  1
  V  V0  1  0.21916200  0.16648400  0.07242000  1
  V  V1  1  0.21916200  0.33351600  0.57242000  1
  V  V2  1  0.28083800  0.66648400  0.07242000  1
  V  V3  1  0.28083800  0.83351600  0.57242000  1
  V  V4  1  0.71916200  0.16648400  0.42758000  1
  V  V5  1  0.71916200  0.33351600  0.92758000  1
  V  V6  1  0.78083800  0.66648400  0.42758000  1
  V  V7  1  0.78083800  0.83351600  0.92758000  1
  F  F0  1  0.95894400  0.64247900  0.14681200  1
  F  F1  1  0.95894400  0.85752100  0.64681200  1
  F  F2  1  0.10921800  0.68717300  0.50727600  1
  F  F3  1  0.10921800  0.81282700  0.00727600  1
  F  F4  1  0.11698000  0.48158100  0.66128100  1
  F  F5  1  0.11698000  0.01841900  0.16128100  1
  F  F6  1  0.18514800  0.29913400  0.19238100  1
  F  F7  1  0.18514800  0.20086600  0.69238100  1
  F  F8  1  0.31771700  0.07212600  0.93023800  1
  F  F9  1  0.31771700  0.42787400  0.43023800  1
  F  F10  1  0.18228300  0.57212600  0.93023800  1
  F  F11  1  0.18228300  0.92787400  0.43023800  1
  F  F12  1  0.31485200  0.79913400  0.19238100  1
  F  F13  1  0.31485200  0.70086600  0.69238100  1
  F  F14  1  0.38302000  0.98158100  0.66128100  1
  F  F15  1  0.38302000  0.51841900  0.16128100  1
  F  F16  1  0.39078200  0.18717300  0.50727600  1
  F  F17  1  0.39078200  0.31282700  0.00727600  1
  F  F18  1  0.54105600  0.14247900  0.14681200  1
  F  F19  1  0.54105600  0.35752100  0.64681200  1
  F  F20  1  0.45894400  0.85752100  0.85318800  1
  F  F21  1  0.45894400  0.64247900  0.35318800  1
  F  F22  1  0.60921800  0.68717300  0.99272400  1
  F  F23  1  0.60921800  0.81282700  0.49272400  1
  F  F24  1  0.61698000  0.48158100  0.83871900  1
  F  F25  1  0.61698000  0.01841900  0.33871900  1
  F  F26  1  0.68514800  0.20086600  0.80761900  1
  F  F27  1  0.68514800  0.29913400  0.30761900  1
  F  F28  1  0.81771700  0.42787400  0.06976200  1
  F  F29  1  0.81771700  0.07212600  0.56976200  1
  F  F30  1  0.68228300  0.57212600  0.56976200  1
  F  F31  1  0.68228300  0.92787400  0.06976200  1
  F  F32  1  0.81485200  0.79913400  0.30761900  1
  F  F33  1  0.81485200  0.70086600  0.80761900  1
  F  F34  1  0.88302000  0.51841900  0.33871900  1
  F  F35  1  0.88302000  0.98158100  0.83871900  1
  F  F36  1  0.89078200  0.31282700  0.49272400  1
  F  F37  1  0.89078200  0.18717300  0.99272400  1
  F  F38  1  0.04105600  0.14247900  0.35318800  1
  F  F39  1  0.04105600  0.35752100  0.85318800  1
loop_
_geom_bond_atom_site_label_1
_geom_bond_atom_site_label_2
_geom_bond_distance
_geom_bond_site_symmetry_2
F0 Li16 1.860927 1_555
F0 Li22 1.925040 1_555
F0 V2 2.051179 1_655
F1 Li17 1.860927 1_555
F1 Li23 1.925040 1_555
F1 V3 2.051179 1_655
F2 Li9 2.002185 1_555
F2 V6 2.107053 1_455
F2 Li23 2.145182 1_455
F2 V3 2.156852 1_555
F3 Li8 2.002185 1_555
F3 V7 2.107053 1_454
F3 Li22 2.145182 1_455
F3 V2 2.156852 1_555
F4 Li9 1.998131 1_555
F4 Li18 1.999665 1_455
F4 Li7 2.067301 1_555
F4 V1 2.155349 1_555
F5 Li8 1.998131 1_545
F5 Li19 1.999665 1_455
F5 Li6 2.067301 1_555
F5 V0 2.155349 1_555
F6 Li0 1.842995 1_555
F6 Li3 1.967181 1_555
F6 Li12 2.043720 1_555
F6 V0 2.159872 1_555
F7 Li1 1.842995 1_555
F7 Li2 1.967181 1_555
F7 Li13 2.043720 1_555
F7 V1 2.159872 1_555
F8 Li15 1.961166 1_555
F8 Li5 1.966790 1_545
F8 V0 2.128155 1_556
F8 Li1 2.490331 1_555
F9 Li14 1.961166 1_555
F9 Li4 1.966790 1_555
F9 V1 2.128155 1_555
F9 Li0 2.490331 1_555
F10 Li20 1.961166 1_455
F10 Li7 1.966790 1_555
F10 V2 2.128155 1_556
F10 Li10 2.490331 1_555
F11 Li21 1.961166 1_455
F11 Li6 1.966790 1_565
F11 V3 2.128155 1_555
F11 Li11 2.490331 1_555
F12 Li11 1.842995 1_555
F12 Li8 1.967181 1_555
F12 Li22 2.043720 1_455
F12 V2 2.159872 1_555
F13 Li10 1.842995 1_555
F13 Li9 1.967181 1_555
F13 Li23 2.043720 1_455
F13 V3 2.159872 1_555
F14 Li2 1.998131 1_565
F14 Li17 1.999665 1_555
F14 Li5 2.067301 1_555
F14 V3 2.155349 1_555
F15 Li3 1.998131 1_555
F15 Li16 1.999665 1_555
F15 Li4 2.067301 1_555
F15 V2 2.155349 1_555
F16 Li2 2.002185 1_555
F16 V4 2.107053 1_555
F16 Li13 2.145182 1_555
F16 V1 2.156852 1_555
F17 Li3 2.002185 1_555
F17 V5 2.107053 1_554
F17 Li12 2.145182 1_555
F17 V0 2.156852 1_555
F18 Li19 1.860927 1_555
F18 Li12 1.925040 1_555
F18 V0 2.051179 1_555
F19 Li18 1.860927 1_555
F19 Li13 1.925040 1_555
F19 V1 2.051179 1_555
F20 Li5 1.860927 1_555
F20 Li10 1.925040 1_555
F20 V7 2.051179 1_555
F21 Li4 1.860927 1_555
F21 Li11 1.925040 1_555
F21 V6 2.051179 1_555
F22 Li20 2.002185 1_555
F22 V2 2.107053 1_556
F22 Li10 2.145182 1_555
F22 V7 2.156852 1_555
F23 Li21 2.002185 1_555
F23 V3 2.107053 1_555
F23 Li11 2.145182 1_555
F23 V6 2.156852 1_555
F24 Li20 1.998131 1_555
F24 Li7 1.999665 1_555
F24 Li18 2.067301 1_555
F24 V5 2.155349 1_555
F25 Li21 1.998131 1_545
F25 Li6 1.999665 1_555
F25 Li19 2.067301 1_555
F25 V4 2.155349 1_555
F26 Li13 1.842995 1_555
F26 Li15 1.967181 1_555
F26 Li1 2.043720 1_655
F26 V5 2.159872 1_555
F27 Li12 1.842995 1_555
F27 Li14 1.967181 1_555
F27 Li0 2.043720 1_655
F27 V4 2.159872 1_555
F28 Li3 1.961166 1_655
F28 Li16 1.966790 1_555
F28 V5 2.128155 1_554
F28 Li12 2.490331 1_555
F29 Li2 1.961166 1_655
F29 Li17 1.966790 1_545
F29 V4 2.128155 1_555
F29 Li13 2.490331 1_555
F30 Li9 1.961166 1_555
F30 Li18 1.966790 1_555
F30 V6 2.128155 1_555
F30 Li23 2.490331 1_555
F31 Li8 1.961166 1_555
F31 Li19 1.966790 1_565
F31 V7 2.128155 1_554
F31 Li22 2.490331 1_555
F32 Li22 1.842995 1_555
F32 Li21 1.967181 1_555
F32 Li11 2.043720 1_555
F32 V6 2.159872 1_555
F33 Li23 1.842995 1_555
F33 Li20 1.967181 1_555
F33 Li10 2.043720 1_555
F33 V7 2.159872 1_555
F34 Li14 1.998131 1_555
F34 Li4 1.999665 1_655
F34 Li16 2.067301 1_555
F34 V6 2.155349 1_555
F35 Li15 1.998131 1_565
F35 Li5 1.999665 1_655
F35 Li17 2.067301 1_555
F35 V7 2.155349 1_555
F36 Li14 2.002185 1_555
F36 V1 2.107053 1_655
F36 Li0 2.145182 1_655
F36 V4 2.156852 1_555
F37 Li15 2.002185 1_555
F37 V0 2.107053 1_656
F37 Li1 2.145182 1_655
F37 V5 2.156852 1_555
F38 Li6 1.860927 1_555
F38 Li0 1.925040 1_555
F38 V4 2.051179 1_455
F39 Li7 1.860927 1_555
F39 Li1 1.925040 1_555
F39 V5 2.051179 1_455
