# generated using pymatgen
data_Na3CoPCO7
_symmetry_space_group_name_H-M   'P 1'
_cell_length_a   8.53573030
_cell_length_b   8.53510604
_cell_length_c   10.21430925
_cell_angle_alpha   72.59144999
_cell_angle_beta   107.40967381
_cell_angle_gamma   75.83533607
_symmetry_Int_Tables_number   1
_chemical_formula_structural   Na3CoPCO7
_chemical_formula_sum   'Na12 Co4 P4 C4 O28'
_cell_volume   630.23302563
_cell_formula_units_Z   4
loop_
 _symmetry_equiv_pos_site_id
 _symmetry_equiv_pos_as_xyz
  1  'x, y, z'
loop_
 _atom_site_type_symbol
 _atom_site_label
 _atom_site_symmetry_multiplicity
 _atom_site_fract_x
 _atom_site_fract_y
 _atom_site_fract_z
 _atom_site_occupancy
  Na  Na0  1  0.55350500  0.69660300  0.08284700  1
  Na  Na1  1  0.05338800  0.19653500  0.08286700  1
  Na  Na2  1  0.94654600  0.80326100  0.91715700  1
  Na  Na3  1  0.44656600  0.30358400  0.91713000  1
  Na  Na4  1  0.26875200  0.73961800  0.27279600  1
  Na  Na5  1  0.76860900  0.23951200  0.27278300  1
  Na  Na6  1  0.51047000  0.98137400  0.27278000  1
  Na  Na7  1  0.01024100  0.48162000  0.27270900  1
  Na  Na8  1  0.23123400  0.76043000  0.72716200  1
  Na  Na9  1  0.73139000  0.26046400  0.72724600  1
  Na  Na10  1  0.98954000  0.51858000  0.72722100  1
  Na  Na11  1  0.48974100  0.01842500  0.72728700  1
  Co  Co0  1  0.43693400  0.31317100  0.34676000  1
  Co  Co1  1  0.06311100  0.18677900  0.65329300  1
  Co  Co2  1  0.93665300  0.81321500  0.34624700  1
  Co  Co3  1  0.56330700  0.68681100  0.65368100  1
  P  P0  1  0.69083300  0.55911600  0.41575000  1
  P  P1  1  0.19085700  0.05917500  0.41565200  1
  P  P2  1  0.80915800  0.94082500  0.58425200  1
  P  P3  1  0.30913800  0.44088500  0.58434800  1
  C  C0  1  0.76169400  0.98823600  0.06102700  1
  C  C1  1  0.26177500  0.48824700  0.06097500  1
  C  C2  1  0.73827500  0.51174400  0.93899300  1
  C  C3  1  0.23829100  0.01175100  0.93903800  1
  O  O0  1  0.90312900  0.84620400  0.11910200  1
  O  O1  1  0.40367100  0.34670900  0.11918300  1
  O  O2  1  0.59668900  0.65364400  0.88086100  1
  O  O3  1  0.09654900  0.15344400  0.88085500  1
  O  O4  1  0.32287600  0.92718300  0.08252400  1
  O  O5  1  0.82288300  0.42711400  0.08235300  1
  O  O6  1  0.17719300  0.57275700  0.91746800  1
  O  O7  1  0.67704300  0.07294900  0.91768600  1
  O  O8  1  0.70902800  0.04141700  0.15331200  1
  O  O9  1  0.20854100  0.54120800  0.15308400  1
  O  O10  1  0.79111400  0.45864100  0.84675100  1
  O  O11  1  0.29135300  0.95868700  0.84689100  1
  O  O12  1  0.66406600  0.08595800  0.43429200  1
  O  O13  1  0.16415700  0.58594700  0.43437600  1
  O  O14  1  0.83593200  0.41400600  0.56572300  1
  O  O15  1  0.33585700  0.91407900  0.56560700  1
  O  O16  1  0.55991200  0.69030000  0.44845400  1
  O  O17  1  0.05979900  0.19021000  0.44839400  1
  O  O18  1  0.94000000  0.80961100  0.55150400  1
  O  O19  1  0.44026900  0.30991100  0.55161900  1
  O  O20  1  0.58468100  0.48036400  0.31736600  1
  O  O21  1  0.08470000  0.98022100  0.31745300  1
  O  O22  1  0.76978400  0.66499000  0.31737600  1
  O  O23  1  0.26980300  0.16523700  0.31742500  1
  O  O24  1  0.91527200  0.01964000  0.68261100  1
  O  O25  1  0.41532700  0.51981800  0.68254400  1
  O  O26  1  0.73017000  0.83505300  0.68265400  1
  O  O27  1  0.23019500  0.33473800  0.68253400  1
loop_
_geom_bond_atom_site_label_1
_geom_bond_atom_site_label_2
_geom_bond_distance
_geom_bond_site_symmetry_2
Na0 O2 2.316996 1_554
Na0 O4 2.417556 1_555
Na0 O22 2.437746 1_555
Na0 O20 2.438863 1_555
Na0 O11 2.629961 1_554
Na0 O5 2.828956 1_555
Na1 O3 2.317616 1_554
Na1 O5 2.415953 1_455
Na1 O21 2.439208 1_545
Na1 O23 2.439459 1_555
Na1 O10 2.631080 1_454
Na1 O4 2.828062 1_545
Na2 O0 2.317301 1_556
Na2 O6 2.417311 1_655
Na2 O26 2.437352 1_555
Na2 O24 2.439275 1_565
Na2 O9 2.629250 1_656
Na2 O7 2.830831 1_565
Na3 O1 2.317265 1_556
Na3 O7 2.415892 1_555
Na3 O25 2.439141 1_555
Na3 O27 2.440030 1_555
Na3 O8 2.632138 1_556
Na3 O6 2.826495 1_555
Na4 O13 2.323973 1_555
Na4 O4 2.364530 1_555
Na4 O9 2.432290 1_555
Na4 O16 2.437354 1_555
Na4 O21 2.510712 1_555
Na4 O0 2.802855 1_455
Na4 O20 2.849182 1_555
Na5 O12 2.322726 1_555
Na5 O5 2.366553 1_555
Na5 O8 2.427041 1_555
Na5 O17 2.437406 1_655
Na5 O20 2.511270 1_555
Na5 O1 2.797070 1_555
Na5 O21 2.849955 1_645
Na6 O12 2.323128 1_565
Na6 O4 2.364889 1_555
Na6 O8 2.431603 1_565
Na6 O16 2.436428 1_555
Na6 O23 2.510311 1_565
Na6 O1 2.800206 1_565
Na6 O22 2.852037 1_555
Na7 O13 2.323775 1_555
Na7 O5 2.366251 1_455
Na7 O9 2.429770 1_555
Na7 O17 2.438348 1_555
Na7 O22 2.507144 1_455
Na7 O0 2.794364 1_455
Na7 O23 2.852647 1_555
Na8 O15 2.323897 1_555
Na8 O6 2.364777 1_555
Na8 O11 2.431048 1_555
Na8 O18 2.438180 1_455
Na8 O25 2.510691 1_555
Na8 O2 2.801423 1_555
Na8 O24 2.849264 1_465
Na9 O14 2.322768 1_555
Na9 O7 2.366645 1_555
Na9 O10 2.428175 1_555
Na9 O19 2.436655 1_555
Na9 O24 2.511236 1_555
Na9 O3 2.798887 1_655
Na9 O25 2.849937 1_555
Na10 O14 2.323017 1_555
Na10 O6 2.364996 1_655
Na10 O10 2.430796 1_555
Na10 O18 2.436069 1_555
Na10 O27 2.510415 1_655
Na10 O3 2.798579 1_655
Na10 O26 2.852918 1_555
Na11 O15 2.323859 1_545
Na11 O7 2.366414 1_555
Na11 O11 2.430599 1_545
Na11 O19 2.438991 1_555
Na11 O26 2.506767 1_545
Na11 O2 2.795935 1_545
Na11 O27 2.852021 1_555
Co0 O19 2.075871 1_555
Co0 O12 2.098584 1_555
Co0 O20 2.137274 1_555
Co0 O23 2.138065 1_555
Co0 O1 2.175586 1_555
Co0 O9 2.243544 1_555
Co1 O17 2.075912 1_555
Co1 O14 2.098832 1_455
Co1 O24 2.137453 1_455
Co1 O27 2.137814 1_555
Co1 O3 2.175486 1_555
Co1 O11 2.242933 1_545
Co2 O18 2.079052 1_555
Co2 O13 2.099897 1_655
Co2 O21 2.137370 1_655
Co2 O22 2.137769 1_555
Co2 O0 2.171762 1_555
Co2 O8 2.238791 1_565
Co3 O16 2.078912 1_555
Co3 O15 2.099704 1_555
Co3 O25 2.136910 1_555
Co3 O26 2.137966 1_555
Co3 O2 2.172046 1_555
Co3 O10 2.239789 1_555
C0 O7 1.290872 1_564
C0 O0 1.305302 1_555
C0 O8 1.306290 1_565
C1 O6 1.292036 1_554
C1 O1 1.305005 1_555
C1 O9 1.306036 1_555
C2 O5 1.290938 1_556
C2 O2 1.305331 1_555
C2 O10 1.306266 1_555
C3 O4 1.291907 1_546
C3 O3 1.305032 1_555
C3 O11 1.306114 1_545
O12 P2 1.546970 1_545
O13 P3 1.546554 1_555
O14 P0 1.546996 1_555
O15 P1 1.546604 1_565
O16 P0 1.564889 1_555
O17 P1 1.565075 1_555
O18 P2 1.564926 1_555
O19 P3 1.565052 1_555
O20 P0 1.562060 1_555
O21 P1 1.562270 1_565
O22 P0 1.562154 1_555
O23 P1 1.562013 1_555
O24 P2 1.562158 1_545
O25 P3 1.562249 1_555
O26 P2 1.562140 1_555
O27 P3 1.562100 1_555
