# generated using pymatgen
data_Li5Fe5(PO4)6
_symmetry_space_group_name_H-M   'P 1'
_cell_length_a   8.46160100
_cell_length_b   8.58256555
_cell_length_c   8.58730763
_cell_angle_alpha   61.74094754
_cell_angle_beta   62.29440563
_cell_angle_gamma   62.20968912
_symmetry_Int_Tables_number   1
_chemical_formula_structural   Li5Fe5(PO4)6
_chemical_formula_sum   'Li5 Fe5 P6 O24'
_cell_volume   461.46971083
_cell_formula_units_Z   1
loop_
 _symmetry_equiv_pos_site_id
 _symmetry_equiv_pos_as_xyz
  1  'x, y, z'
loop_
 _atom_site_type_symbol
 _atom_site_label
 _atom_site_symmetry_multiplicity
 _atom_site_fract_x
 _atom_site_fract_y
 _atom_site_fract_z
 _atom_site_occupancy
  Li  Li0  1  0.84511600  0.84001300  0.84317000  1
  Li  Li1  1  0.75325400  0.13976400  0.35689400  1
  Li  Li2  1  0.19379200  0.85323500  0.67015000  1
  Li  Li3  1  0.66787700  0.19015500  0.85889100  1
  Li  Li4  1  0.85718600  0.66502600  0.19123900  1
  Fe  Fe0  1  0.00557200  0.99923500  0.99475000  1
  Fe  Fe1  1  0.35446900  0.35771200  0.35415800  1
  Fe  Fe2  1  0.49127600  0.50381400  0.50011000  1
  Fe  Fe3  1  0.14579600  0.14644500  0.14124500  1
  Fe  Fe4  1  0.64707900  0.65088300  0.65498200  1
  P  P0  1  0.05400300  0.75060600  0.45271100  1
  P  P1  1  0.44962300  0.05209900  0.75629700  1
  P  P2  1  0.75282500  0.45219600  0.05275000  1
  P  P3  1  0.25493300  0.54075300  0.95822700  1
  P  P4  1  0.54931300  0.96152500  0.25673700  1
  P  P5  1  0.94966400  0.25294600  0.53756200  1
  O  O0  1  0.48888500  0.89001500  0.69592900  1
  O  O1  1  0.69124000  0.49132800  0.89134400  1
  O  O2  1  0.88990600  0.68629800  0.49707600  1
  O  O3  1  0.05011100  0.91453700  0.26169800  1
  O  O4  1  0.03223100  0.81082200  0.60320500  1
  O  O5  1  0.24949600  0.59397600  0.42333800  1
  O  O6  1  0.25143100  0.06672600  0.90921300  1
  O  O7  1  0.43733700  0.24208900  0.58917700  1
  O  O8  1  0.18673400  0.38621100  0.99549900  1
  O  O9  1  0.59851600  0.42062500  0.25171800  1
  O  O10  1  0.09547400  0.73201400  0.95551200  1
  O  O11  1  0.37880300  0.01512900  0.20147300  1
  O  O12  1  0.60287400  0.02532600  0.81978800  1
  O  O13  1  0.90195800  0.25037900  0.07323300  1
  O  O14  1  0.40117900  0.57556400  0.75439100  1
  O  O15  1  0.81575500  0.60288600  0.02727700  1
  O  O16  1  0.57149100  0.75933000  0.40554100  1
  O  O17  1  0.73937300  0.94934800  0.09294900  1
  O  O18  1  0.74782000  0.40292700  0.57773500  1
  O  O19  1  0.96170000  0.19254900  0.38809300  1
  O  O20  1  0.95680200  0.09353200  0.72798500  1
  O  O21  1  0.10959700  0.32923000  0.46694900  1
  O  O22  1  0.34298200  0.48448600  0.10379700  1
  O  O23  1  0.52652500  0.10526600  0.33020600  1
loop_
_geom_bond_atom_site_label_1
_geom_bond_atom_site_label_2
_geom_bond_distance
_geom_bond_site_symmetry_2
Li0 O15 1.939739 1_556
Li0 O12 1.952374 1_565
Li0 O4 1.975116 1_655
Li0 O10 2.345245 1_655
Li0 O20 2.369819 1_565
Li0 O17 2.370711 1_556
Li1 O9 2.106100 1_555
Li1 O13 2.119473 1_555
Li1 O19 2.165037 1_555
Li1 O23 2.196259 1_555
Li1 O3 2.402854 1_645
Li1 O7 2.531286 1_555
Li2 O4 1.929975 1_555
Li2 O10 2.068027 1_555
Li2 O20 2.169952 1_465
Li2 O14 2.220450 1_555
Li3 O12 1.940012 1_555
Li3 O20 2.089266 1_555
Li3 O17 2.169906 1_546
Li3 O18 2.253849 1_555
Li4 O15 1.932394 1_555
Li4 O17 2.055374 1_555
Li4 O10 2.162714 1_654
Li4 O16 2.309744 1_555
Fe0 O6 2.121989 1_565
Fe0 O17 2.181569 1_456
Fe0 O10 2.195145 1_555
Fe0 O20 2.210221 1_465
Fe0 O3 2.212540 1_556
Fe0 O13 2.221006 1_466
Fe1 O21 1.916530 1_555
Fe1 O22 1.922531 1_555
Fe1 O23 2.014539 1_555
Fe1 O5 2.055280 1_555
Fe1 O9 2.056827 1_555
Fe1 O7 2.078483 1_555
Fe2 O5 2.124564 1_555
Fe2 O7 2.200813 1_555
Fe2 O9 2.218358 1_555
Fe2 O18 2.225448 1_555
Fe2 O14 2.239656 1_555
Fe2 O16 2.262393 1_555
Fe3 O8 1.934883 1_554
Fe3 O11 1.936274 1_555
Fe3 O19 2.055621 1_455
Fe3 O6 2.074082 1_554
Fe3 O13 2.074810 1_455
Fe3 O3 2.112218 1_545
Fe4 O1 1.931519 1_555
Fe4 O2 1.937591 1_555
Fe4 O0 1.952329 1_555
Fe4 O14 2.134478 1_555
Fe4 O16 2.166707 1_555
Fe4 O18 2.194275 1_555
O0 P1 1.551140 1_565
O1 P2 1.540483 1_556
O2 P0 1.549639 1_655
O3 P0 1.578879 1_555
O4 P0 1.514411 1_555
O5 P0 1.570546 1_555
O6 P1 1.569898 1_555
O7 P1 1.579239 1_555
O8 P3 1.527970 1_555
O9 P2 1.585770 1_555
O10 P3 1.563128 1_555
O11 P4 1.526268 1_545
O12 P1 1.514119 1_555
O13 P2 1.582174 1_555
O14 P3 1.587426 1_555
O15 P2 1.506655 1_555
O16 P4 1.580836 1_555
O17 P4 1.566743 1_555
O18 P5 1.586050 1_555
O19 P5 1.544596 1_555
O20 P5 1.563898 1_555
O21 P5 1.521495 1_455
O22 P3 1.519806 1_554
O23 P4 1.535975 1_545
