# generated using pymatgen
data_Li2VAsCO7
_symmetry_space_group_name_H-M   'P 1'
_cell_length_a   6.59780900
_cell_length_b   10.22212699
_cell_length_c   8.78486397
_cell_angle_alpha   86.12579008
_cell_angle_beta   89.99967811
_cell_angle_gamma   89.99974236
_symmetry_Int_Tables_number   1
_chemical_formula_structural   Li2VAsCO7
_chemical_formula_sum   'Li8 V4 As4 C4 O28'
_cell_volume   591.12926901
_cell_formula_units_Z   4
loop_
 _symmetry_equiv_pos_site_id
 _symmetry_equiv_pos_as_xyz
  1  'x, y, z'
loop_
 _atom_site_type_symbol
 _atom_site_label
 _atom_site_symmetry_multiplicity
 _atom_site_fract_x
 _atom_site_fract_y
 _atom_site_fract_z
 _atom_site_occupancy
  Li  Li0  1  0.50678800  0.10808000  0.20564100  1
  Li  Li1  1  0.50677700  0.60794700  0.20550800  1
  Li  Li2  1  0.99322800  0.10808700  0.20563900  1
  Li  Li3  1  0.99323300  0.60794700  0.20549800  1
  Li  Li4  1  0.49323600  0.39188400  0.79429500  1
  Li  Li5  1  0.49324000  0.89201800  0.79449200  1
  Li  Li6  1  0.00677400  0.39186600  0.79430900  1
  Li  Li7  1  0.00675800  0.89201200  0.79449500  1
  V  V0  1  0.74998100  0.89833600  0.33510200  1
  V  V1  1  0.25000700  0.60164100  0.66482000  1
  V  V2  1  0.75002200  0.39829900  0.33510100  1
  V  V3  1  0.25000700  0.10168900  0.66486400  1
  As  As0  1  0.24999000  0.35896200  0.41784200  1
  As  As1  1  0.24997800  0.85874700  0.41807500  1
  As  As2  1  0.75001400  0.14099100  0.58210500  1
  As  As3  1  0.75000400  0.64125400  0.58194200  1
  C  C0  1  0.75000100  0.36555900  0.05587300  1
  C  C1  1  0.75000900  0.86574400  0.05591900  1
  C  C2  1  0.25001500  0.13451400  0.94412600  1
  C  C3  1  0.25000200  0.63422400  0.94403900  1
  O  O0  1  0.25001000  0.15238900  0.08520700  1
  O  O1  1  0.25000900  0.65229800  0.08508000  1
  O  O2  1  0.75000300  0.34765400  0.91482500  1
  O  O3  1  0.75000000  0.84769200  0.91488500  1
  O  O4  1  0.74998200  0.48262500  0.10980300  1
  O  O5  1  0.75000600  0.98279800  0.10969600  1
  O  O6  1  0.25001400  0.01750800  0.89021700  1
  O  O7  1  0.25000000  0.51717000  0.89027200  1
  O  O8  1  0.75002400  0.26714100  0.16302100  1
  O  O9  1  0.75000200  0.76719400  0.16303700  1
  O  O10  1  0.24999200  0.23289300  0.83697400  1
  O  O11  1  0.25000300  0.73276800  0.83691000  1
  O  O12  1  0.75001700  0.08218200  0.40197600  1
  O  O13  1  0.75000500  0.58214000  0.40203500  1
  O  O14  1  0.24999100  0.41781000  0.59794600  1
  O  O15  1  0.25000600  0.91783500  0.59799100  1
  O  O16  1  0.24999900  0.19113800  0.44359400  1
  O  O17  1  0.24995600  0.69088000  0.44323400  1
  O  O18  1  0.75000600  0.30883800  0.55650600  1
  O  O19  1  0.75005300  0.80910200  0.55666700  1
  O  O20  1  0.04722600  0.41553800  0.31038900  1
  O  O21  1  0.04719000  0.91591700  0.31121200  1
  O  O22  1  0.45277400  0.41552400  0.31046000  1
  O  O23  1  0.45284200  0.91590700  0.31121700  1
  O  O24  1  0.54722000  0.08448900  0.68962100  1
  O  O25  1  0.54716400  0.58414600  0.68888900  1
  O  O26  1  0.95270400  0.08445900  0.68972200  1
  O  O27  1  0.95273900  0.58416400  0.68892800  1
loop_
_geom_bond_atom_site_label_1
_geom_bond_atom_site_label_2
_geom_bond_distance
_geom_bond_site_symmetry_2
Li0 O0 2.032235 1_555
Li0 O23 2.144672 1_545
Li0 O5 2.251975 1_545
Li0 O8 2.297191 1_555
Li0 O12 2.357663 1_555
Li1 O1 2.032234 1_555
Li1 O22 2.144978 1_555
Li1 O4 2.251287 1_555
Li1 O9 2.298315 1_555
Li1 O13 2.358822 1_555
Li2 O0 2.032229 1_655
Li2 O21 2.144651 1_645
Li2 O5 2.252044 1_545
Li2 O8 2.296984 1_555
Li2 O12 2.357588 1_555
Li3 O1 2.032228 1_655
Li3 O20 2.144642 1_655
Li3 O4 2.251483 1_555
Li3 O9 2.298325 1_555
Li3 O13 2.358874 1_555
Li4 O2 2.032450 1_555
Li4 O25 2.144906 1_555
Li4 O7 2.252200 1_555
Li4 O10 2.296789 1_555
Li4 O14 2.357842 1_555
Li5 O3 2.031987 1_555
Li5 O24 2.145127 1_565
Li5 O6 2.252479 1_565
Li5 O11 2.298338 1_555
Li5 O15 2.358690 1_555
Li6 O2 2.032369 1_455
Li6 O27 2.145268 1_455
Li6 O7 2.252226 1_555
Li6 O10 2.296519 1_555
Li6 O14 2.357805 1_555
Li7 O3 2.031945 1_455
Li7 O26 2.144673 1_465
Li7 O6 2.252661 1_565
Li7 O11 2.298322 1_555
Li7 O15 2.358764 1_555
As0 O22 1.714796 1_555
As0 O20 1.715069 1_555
As0 O16 1.715149 1_555
As0 O14 1.730261 1_555
As1 O21 1.714299 1_555
As1 O23 1.714633 1_555
As1 O17 1.715258 1_555
As1 O15 1.729718 1_555
As2 O24 1.715285 1_555
As2 O18 1.715297 1_555
As2 O26 1.715314 1_555
As2 O12 1.730303 1_555
As3 O27 1.714345 1_555
As3 O25 1.714758 1_555
As3 O19 1.715128 1_555
As3 O13 1.729754 1_555
C0 O2 1.264707 1_554
C0 O4 1.316462 1_555
C0 O8 1.330474 1_555
C1 O3 1.264903 1_554
C1 O5 1.315782 1_555
C1 O9 1.331258 1_555
C2 O0 1.264929 1_556
C2 O6 1.315812 1_555
C2 O10 1.330215 1_555
C3 O1 1.265011 1_556
C3 O7 1.315745 1_555
C3 O11 1.331278 1_555
O4 V2 2.104701 1_555
O5 V0 2.106048 1_555
O6 V3 2.104630 1_555
O7 V1 2.106449 1_555
O8 V2 2.087254 1_555
O9 V0 2.087040 1_555
O10 V3 2.087781 1_555
O11 V1 2.087102 1_555
O12 V0 2.006510 1_545
O13 V2 2.006649 1_555
O14 V1 2.006363 1_555
O15 V3 2.006585 1_565
O16 V3 2.091492 1_555
O17 V1 2.093188 1_555
O18 V2 2.092605 1_555
O19 V0 2.093003 1_555
O20 V2 1.979424 1_455
O21 V0 1.979011 1_455
O22 V2 1.979637 1_555
O23 V0 1.978541 1_555
O24 V3 1.979493 1_555
O25 V1 1.978756 1_555
O26 V3 1.980197 1_655
O27 V1 1.979500 1_655
