# generated using pymatgen
data_Mn3Ni(PO4)4
_symmetry_space_group_name_H-M   'P 1'
_cell_length_a   5.91789200
_cell_length_b   4.83325600
_cell_length_c   9.83056922
_cell_angle_alpha   89.87022634
_cell_angle_beta   90.00000000
_cell_angle_gamma   90.00000000
_symmetry_Int_Tables_number   1
_chemical_formula_structural   Mn3Ni(PO4)4
_chemical_formula_sum   'Mn3 Ni1 P4 O16'
_cell_volume   281.17997323
_cell_formula_units_Z   1
loop_
 _symmetry_equiv_pos_site_id
 _symmetry_equiv_pos_as_xyz
  1  'x, y, z'
loop_
 _atom_site_type_symbol
 _atom_site_label
 _atom_site_symmetry_multiplicity
 _atom_site_fract_x
 _atom_site_fract_y
 _atom_site_fract_z
 _atom_site_occupancy
  Mn  Mn0  1  0.50000000  0.93990900  0.27924100  1
  Mn  Mn1  1  0.50000000  0.54568900  0.77500600  1
  Mn  Mn2  1  0.00000000  0.44693100  0.21864700  1
  Ni  Ni0  1  0.00000000  0.04290700  0.72916000  1
  P  P0  1  0.00000000  0.91426200  0.40520700  1
  P  P1  1  0.00000000  0.58050500  0.90532400  1
  P  P2  1  0.50000000  0.41540800  0.09422300  1
  P  P3  1  0.50000000  0.09061700  0.59699900  1
  O  O0  1  0.00000000  0.84269500  0.55481000  1
  O  O1  1  0.20168200  0.76797700  0.32781500  1
  O  O2  1  0.79831800  0.76797700  0.32781500  1
  O  O3  1  0.50000000  0.77389900  0.61533900  1
  O  O4  1  0.50000000  0.73066200  0.11324500  1
  O  O5  1  0.20431600  0.72843900  0.83016700  1
  O  O6  1  0.79568400  0.72843900  0.83016700  1
  O  O7  1  0.00000000  0.66672600  0.05695000  1
  O  O8  1  0.50000000  0.34350800  0.94207600  1
  O  O9  1  0.70216700  0.26927300  0.16872700  1
  O  O10  1  0.29783300  0.26927300  0.16872700  1
  O  O11  1  0.00000000  0.26909000  0.89452300  1
  O  O12  1  0.00000000  0.22964300  0.38259600  1
  O  O13  1  0.70100700  0.24170400  0.66996500  1
  O  O14  1  0.29899300  0.24170400  0.66996500  1
  O  O15  1  0.50000000  0.15276400  0.44330200  1
loop_
_geom_bond_atom_site_label_1
_geom_bond_atom_site_label_2
_geom_bond_distance
_geom_bond_site_symmetry_2
Mn0 O15 1.914961 1_565
Mn0 O4 1.921765 1_555
Mn0 O1 2.008345 1_555
Mn0 O2 2.008345 1_555
Mn0 O9 2.266714 1_565
Mn0 O10 2.266714 1_565
Mn1 O8 1.909212 1_555
Mn1 O3 1.916366 1_555
Mn1 O6 2.034279 1_555
Mn1 O5 2.034279 1_555
Mn1 O13 2.155648 1_555
Mn1 O14 2.155648 1_555
Mn2 O7 1.909877 1_555
Mn2 O12 1.921688 1_555
Mn2 O9 2.021535 1_455
Mn2 O10 2.021535 1_555
Mn2 O2 2.234178 1_455
Mn2 O1 2.234178 1_555
Ni0 O11 1.961059 1_555
Ni0 O0 1.970169 1_545
Ni0 O13 2.095259 1_455
Ni0 O14 2.095259 1_555
Ni0 O5 2.179726 1_545
Ni0 O6 2.179726 1_445
O0 P0 1.510050 1_555
O1 P0 1.582934 1_555
O2 P0 1.582934 1_655
O3 P3 1.540954 1_565
O4 P2 1.535555 1_555
O5 P1 1.586407 1_555
O6 P1 1.586407 1_655
O7 P1 1.548636 1_554
O8 P2 1.536298 1_556
O9 P2 1.569822 1_555
O10 P2 1.569822 1_555
O11 P1 1.509129 1_555
O12 P0 1.539940 1_545
O13 P3 1.570077 1_555
O14 P3 1.570077 1_555
O15 P3 1.539829 1_555
