# generated using pymatgen
data_VOF
_symmetry_space_group_name_H-M   'P 1'
_cell_length_a   4.87225110
_cell_length_b   5.04174996
_cell_length_c   5.05475058
_cell_angle_alpha   101.94763574
_cell_angle_beta   89.99992219
_cell_angle_gamma   90.00002859
_symmetry_Int_Tables_number   1
_chemical_formula_structural   VOF
_chemical_formula_sum   'V4 O4 F4'
_cell_volume   121.47845738
_cell_formula_units_Z   4
loop_
 _symmetry_equiv_pos_site_id
 _symmetry_equiv_pos_as_xyz
  1  'x, y, z'
loop_
 _atom_site_type_symbol
 _atom_site_label
 _atom_site_symmetry_multiplicity
 _atom_site_fract_x
 _atom_site_fract_y
 _atom_site_fract_z
 _atom_site_occupancy
  V  V0  1  0.96608599  0.79466949  0.69501531  1
  V  V1  1  0.53391480  0.29466931  0.69501555  1
  V  V2  1  0.46608564  0.70533058  0.30498151  1
  V  V3  1  0.03391364  0.20533055  0.30498139  1
  O  O0  1  0.74675706  0.99022998  0.45497922  1
  O  O1  1  0.75324289  0.49022967  0.45497880  1
  O  O2  1  0.24675447  0.50976808  0.54501802  1
  O  O3  1  0.25324563  0.00976999  0.54501743  1
  F  F0  1  0.19727292  0.86127721  0.04893983  1
  F  F1  1  0.30272507  0.36127600  0.04893897  1
  F  F2  1  0.69727556  0.63872516  0.95106549  1
  F  F3  1  0.80272634  0.13872598  0.95106648  1
loop_
_geom_bond_atom_site_label_1
_geom_bond_atom_site_label_2
_geom_bond_distance
_geom_bond_site_symmetry_2
O0 V3 2.012186 1_665
O0 V2 2.014258 1_555
O0 V0 2.020286 1_555
O0 V1 2.032838 1_565
O1 V2 2.012190 1_555
O1 V3 2.014254 1_655
O1 V1 2.020284 1_555
O1 V0 2.032843 1_555
O2 V1 2.012194 1_555
O2 V0 2.014254 1_455
O2 V2 2.020298 1_555
O2 V3 2.032830 1_555
O3 V0 2.012196 1_445
O3 V1 2.014251 1_555
O3 V3 2.020294 1_555
O3 V2 2.032832 1_545
F0 V0 2.081667 1_454
F0 V3 2.094744 1_565
F0 V2 2.104732 1_555
F1 V1 2.081667 1_554
F1 V2 2.094754 1_555
F1 V3 2.104725 1_555
F2 V2 2.081637 1_556
F2 V1 2.094776 1_555
F2 V0 2.104746 1_555
F3 V3 2.081628 1_656
F3 V0 2.094778 1_545
F3 V1 2.104752 1_555
