# generated using pymatgen
data_C7I3N4
_symmetry_space_group_name_H-M   'P 1'
_cell_length_a   16.79494300
_cell_length_b   7.28967100
_cell_length_c   12.81241145
_cell_angle_alpha   86.22946916
_cell_angle_beta   90.00000000
_cell_angle_gamma   90.00000000
_symmetry_Int_Tables_number   1
_chemical_formula_structural   C7I3N4
_chemical_formula_sum   'C28 I12 N16'
_cell_volume   1565.22312788
_cell_formula_units_Z   4
loop_
 _symmetry_equiv_pos_site_id
 _symmetry_equiv_pos_as_xyz
  1  'x, y, z'
loop_
 _atom_site_type_symbol
 _atom_site_label
 _atom_site_symmetry_multiplicity
 _atom_site_fract_x
 _atom_site_fract_y
 _atom_site_fract_z
 _atom_site_occupancy
  C  C0  1  0.27181300  0.27709800  0.83163300  1
  C  C1  1  0.77181300  0.22290200  0.16836700  1
  C  C2  1  0.72818700  0.72290200  0.16836700  1
  C  C3  1  0.22818700  0.77709800  0.83163300  1
  C  C4  1  0.34571800  0.99834800  0.85517200  1
  C  C5  1  0.84571800  0.50165200  0.14482800  1
  C  C6  1  0.65428200  0.00165200  0.14482800  1
  C  C7  1  0.15428200  0.49834800  0.85517200  1
  C  C8  1  0.42022100  0.93862700  0.87160500  1
  C  C9  1  0.92022100  0.56137300  0.12839500  1
  C  C10  1  0.57977900  0.06137300  0.12839500  1
  C  C11  1  0.07977900  0.43862700  0.87160500  1
  C  C12  1  0.28993300  0.87888700  0.79862100  1
  C  C13  1  0.78993300  0.62111300  0.20137900  1
  C  C14  1  0.71006700  0.12111300  0.20137900  1
  C  C15  1  0.21006700  0.37888700  0.79862100  1
  C  C16  1  0.34182700  0.85593300  0.61152400  1
  C  C17  1  0.84182700  0.64406700  0.38847600  1
  C  C18  1  0.65817300  0.14406700  0.38847600  1
  C  C19  1  0.15817300  0.35593300  0.61152400  1
  C  C20  1  0.55674400  0.92936300  0.81087900  1
  C  C21  1  0.05674400  0.57063700  0.18912100  1
  C  C22  1  0.44325600  0.07063700  0.18912100  1
  C  C23  1  0.94325600  0.42936300  0.81087900  1
  C  C24  1  0.64237600  0.12316300  0.68863800  1
  C  C25  1  0.14237600  0.37683700  0.31136200  1
  C  C26  1  0.35762400  0.87683700  0.31136200  1
  C  C27  1  0.85762400  0.62316300  0.68863800  1
  I  I0  1  0.50000000  0.50000000  0.00000000  1
  I  I1  1  0.00000000  0.00000000  0.00000000  1
  I  I2  1  0.36711600  0.43027500  0.14287900  1
  I  I3  1  0.86711600  0.06972500  0.85712100  1
  I  I4  1  0.63288400  0.56972500  0.85712100  1
  I  I5  1  0.13288400  0.93027500  0.14287900  1
  I  I6  1  0.50000000  0.50000000  0.50000000  1
  I  I7  1  0.00000000  0.00000000  0.50000000  1
  I  I8  1  0.35384200  0.31440200  0.45963200  1
  I  I9  1  0.85384200  0.18559800  0.54036800  1
  I  I10  1  0.64615800  0.68559800  0.54036800  1
  I  I11  1  0.14615800  0.81440200  0.45963200  1
  N  N0  1  0.60400100  0.04657700  0.75794400  1
  N  N1  1  0.10400100  0.45342300  0.24205600  1
  N  N2  1  0.39599900  0.95342300  0.24205600  1
  N  N3  1  0.89599900  0.54657700  0.75794400  1
  N  N4  1  0.33308000  0.18924900  0.84884400  1
  N  N5  1  0.83308000  0.31075100  0.15115600  1
  N  N6  1  0.66692000  0.81075100  0.15115600  1
  N  N7  1  0.16692000  0.68924900  0.84884400  1
  N  N8  1  0.49272800  0.95938800  0.85673900  1
  N  N9  1  0.99272800  0.54061200  0.14326100  1
  N  N10  1  0.50727200  0.04061200  0.14326100  1
  N  N11  1  0.00727200  0.45938800  0.85673900  1
  N  N12  1  0.31100900  0.87226000  0.69400700  1
  N  N13  1  0.81100900  0.62774000  0.30599300  1
  N  N14  1  0.68899100  0.12774000  0.30599300  1
  N  N15  1  0.18899100  0.37226000  0.69400700  1
loop_
_geom_bond_atom_site_label_1
_geom_bond_atom_site_label_2
_geom_bond_distance
_geom_bond_site_symmetry_2
C0 N4 1.224314 1_555
C0 C15 1.328009 1_555
C1 N5 1.224314 1_555
C1 C14 1.328009 1_555
C2 N6 1.224314 1_555
C3 N7 1.224314 1_555
C4 C8 1.336969 1_555
C4 N4 1.404761 1_565
C5 C9 1.336969 1_555
C5 N5 1.404761 1_555
C6 N6 1.404761 1_545
C7 N7 1.404761 1_555
C8 N8 1.240286 1_555
C9 N9 1.240286 1_555
C10 N10 1.240286 1_555
C10 C6 1.336969 1_555
C11 N11 1.240286 1_555
C11 C7 1.336969 1_555
C12 C3 1.328009 1_555
C12 N12 1.390217 1_555
C12 C4 1.498034 1_555
C13 C2 1.328009 1_555
C13 N13 1.390217 1_555
C13 C5 1.498034 1_555
C14 N14 1.390217 1_555
C14 C6 1.498034 1_555
C15 N15 1.390217 1_555
C15 C7 1.498034 1_555
C16 N12 1.189724 1_555
C17 N13 1.189724 1_555
C18 N14 1.189724 1_555
C19 N15 1.189724 1_555
C20 N8 1.251401 1_555
C20 N0 1.320524 1_565
C21 N9 1.251401 1_455
C21 N1 1.320524 1_555
C22 N10 1.251401 1_555
C22 N2 1.320524 1_545
C23 N11 1.251401 1_655
C23 N3 1.320524 1_555
C24 N0 1.204315 1_555
C25 N1 1.204315 1_555
C26 N2 1.204315 1_555
C27 N3 1.204315 1_555
I0 I4 2.909981 1_554
I0 I2 2.909981 1_555
I1 I5 2.909981 1_545
I1 I3 2.909981 1_454
I6 I8 2.866293 1_555
I7 I9 2.866293 1_455
I10 I6 2.866293 1_555
I11 I7 2.866293 1_565
