# generated using pymatgen
data_Li4Ti3V5O16
_symmetry_space_group_name_H-M   'P 1'
_cell_length_a   5.90904800
_cell_length_b   5.93854839
_cell_length_c   9.67146612
_cell_angle_alpha   90.55512616
_cell_angle_beta   90.55917712
_cell_angle_gamma   119.59731833
_symmetry_Int_Tables_number   1
_chemical_formula_structural   Li4Ti3V5O16
_chemical_formula_sum   'Li4 Ti3 V5 O16'
_cell_volume   295.04453645
_cell_formula_units_Z   1
loop_
 _symmetry_equiv_pos_site_id
 _symmetry_equiv_pos_as_xyz
  1  'x, y, z'
loop_
 _atom_site_type_symbol
 _atom_site_label
 _atom_site_symmetry_multiplicity
 _atom_site_fract_x
 _atom_site_fract_y
 _atom_site_fract_z
 _atom_site_occupancy
  Li  Li0  1  0.33213600  0.66222600  0.10498600  1
  Li  Li1  1  0.00410000  0.00729500  0.00504100  1
  Li  Li2  1  0.99748500  0.99741000  0.50261500  1
  Li  Li3  1  0.66653800  0.33212800  0.60557700  1
  Ti  Ti0  1  0.16155300  0.82326000  0.78398100  1
  Ti  Ti1  1  0.66056600  0.82824900  0.78360200  1
  Ti  Ti2  1  0.82993300  0.65795500  0.27832300  1
  V  V0  1  0.32854100  0.66360400  0.51227800  1
  V  V1  1  0.17062900  0.34191900  0.78994500  1
  V  V2  1  0.66461200  0.32656900  0.01269800  1
  V  V3  1  0.81703300  0.15907500  0.28951100  1
  V  V4  1  0.34102400  0.16634100  0.29091700  1
  O  O0  1  0.16538100  0.83552000  0.39827600  1
  O  O1  1  0.47893400  0.95960200  0.66217000  1
  O  O2  1  0.34827300  0.69300700  0.89781100  1
  O  O3  1  0.99405800  0.99117700  0.68772500  1
  O  O4  1  0.98894800  0.99026800  0.18964600  1
  O  O5  1  0.67195900  0.83707900  0.39449600  1
  O  O6  1  0.03571300  0.52563000  0.66433000  1
  O  O7  1  0.48458500  0.52545100  0.66098300  1
  O  O8  1  0.84041900  0.67990900  0.89500600  1
  O  O9  1  0.15452500  0.32387400  0.39683500  1
  O  O10  1  0.51980000  0.47683500  0.16112800  1
  O  O11  1  0.95991100  0.47930800  0.16177100  1
  O  O12  1  0.68673000  0.35190000  0.40018800  1
  O  O13  1  0.32907100  0.16592700  0.89857400  1
  O  O14  1  0.52914300  0.03192200  0.16624400  1
  O  O15  1  0.83810000  0.16655700  0.89750300  1
loop_
_geom_bond_atom_site_label_1
_geom_bond_atom_site_label_2
_geom_bond_distance
_geom_bond_site_symmetry_2
Li0 O10 1.985552 1_555
Li0 O14 1.990715 1_565
Li0 O11 1.998602 1_455
Li0 O2 2.012678 1_554
Li1 O4 1.789853 1_445
Li1 O15 1.963145 1_454
Li1 O13 1.976265 1_554
Li1 O8 1.982480 1_444
Li2 O3 1.791132 1_555
Li2 O5 1.957635 1_555
Li2 O0 1.967171 1_655
Li2 O9 1.986512 1_665
Li3 O6 1.972090 1_655
Li3 O12 1.992276 1_555
Li3 O7 1.994942 1_555
Li3 O1 2.008827 1_545
O0 V4 2.015281 1_565
O0 V0 2.039814 1_555
O0 Ti2 2.062421 1_455
O1 Ti1 1.989924 1_555
O1 Ti0 2.030350 1_555
O1 V0 2.088918 1_555
O2 Ti1 1.965557 1_555
O2 Ti0 1.965577 1_555
O2 V1 2.076490 1_555
O3 Ti0 1.953333 1_655
O3 Ti1 1.961878 1_555
O3 V1 2.048827 1_665
O4 Ti2 1.931269 1_555
O4 V3 1.994011 1_565
O4 V4 2.042646 1_665
O5 V3 1.964098 1_565
O5 Ti2 2.059971 1_555
O5 V0 2.116523 1_555
O6 Ti0 1.913472 1_555
O6 V1 2.041484 1_555
O6 V0 2.121441 1_555
O7 Ti1 1.951589 1_555
O7 V1 2.063838 1_555
O7 V0 2.082299 1_555
O8 Ti0 1.985029 1_655
O8 Ti1 1.996797 1_555
O8 V2 2.166544 1_556
O9 V3 2.006055 1_455
O9 V4 2.039825 1_555
O9 V0 2.063722 1_555
O10 Ti2 1.946470 1_555
O10 V4 2.058677 1_555
O10 V2 2.083922 1_555
O11 Ti2 1.945422 1_555
O11 V2 2.075648 1_555
O11 V3 2.082193 1_555
O12 V3 1.978168 1_555
O12 Ti2 1.987541 1_555
O12 V4 2.053252 1_555
O13 V1 2.010290 1_555
O13 V2 2.031752 1_556
O13 Ti0 2.072259 1_545
O14 V3 1.886658 1_555
O14 V4 2.052020 1_555
O14 V2 2.144231 1_555
O15 V1 2.016715 1_655
O15 V2 2.039399 1_556
O15 Ti1 2.050119 1_545
