# generated using pymatgen
data_Ca2P6O17
_symmetry_space_group_name_H-M   'P 1'
_cell_length_a   18.26166010
_cell_length_b   5.75805623
_cell_length_c   7.65487285
_cell_angle_alpha   68.77375180
_cell_angle_beta   90.00000000
_cell_angle_gamma   90.00000000
_symmetry_Int_Tables_number   1
_chemical_formula_structural   Ca2P6O17
_chemical_formula_sum   'Ca4 P12 O34'
_cell_volume   750.31509985
_cell_formula_units_Z   2
loop_
 _symmetry_equiv_pos_site_id
 _symmetry_equiv_pos_as_xyz
  1  'x, y, z'
loop_
 _atom_site_type_symbol
 _atom_site_label
 _atom_site_symmetry_multiplicity
 _atom_site_fract_x
 _atom_site_fract_y
 _atom_site_fract_z
 _atom_site_occupancy
  Ca  Ca0  1  0.57190810  0.90658000  0.60505236  1
  Ca  Ca1  1  0.92676906  0.90839377  0.10740469  1
  Ca  Ca2  1  0.07190810  0.09342000  0.39494764  1
  Ca  Ca3  1  0.42676906  0.09160623  0.89259531  1
  P  P0  1  0.32064574  0.68728397  0.72632192  1
  P  P1  1  0.33191110  0.72288602  0.33083006  1
  P  P2  1  0.17824862  0.68499248  0.22506955  1
  P  P3  1  0.96935071  0.52139918  0.55892721  1
  P  P4  1  0.46935071  0.47860082  0.44107279  1
  P  P5  1  0.16757866  0.72009227  0.82943864  1
  P  P6  1  0.83191110  0.27711398  0.66916994  1
  P  P7  1  0.52995095  0.51046185  0.05055222  1
  P  P8  1  0.02995095  0.48953815  0.94944778  1
  P  P9  1  0.82064574  0.31271603  0.27367808  1
  P  P10  1  0.66757866  0.27990773  0.17056136  1
  P  P11  1  0.67824862  0.31500752  0.77493045  1
  O  O0  1  0.13808182  0.92777146  0.67178993  1
  O  O1  1  0.31213126  0.80002955  0.50039985  1
  O  O2  1  0.15922756  0.89319853  0.28426680  1
  O  O3  1  0.36309026  0.92906324  0.17476408  1
  O  O4  1  0.98538927  0.77048982  0.41380349  1
  O  O5  1  0.49272155  0.70831999  0.46779579  1
  O  O6  1  0.63569335  0.54692672  0.71764736  1
  O  O7  1  0.18672658  0.79717882  -0.00075587  1
  O  O8  1  0.88179076  0.51405884  0.59239532  1
  O  O9  1  0.33707651  0.89781394  0.78525720  1
  O  O10  1  0.76207310  0.39853190  0.71624410  1
  O  O11  1  0.26207310  0.60146810  0.28375590  1
  O  O12  1  0.51223798  0.76420732  0.91461142  1
  O  O13  1  0.38179076  0.48594116  0.40760468  1
  O  O14  1  0.01428899  0.71185134  0.99541000  1
  O  O15  1  0.86616448  0.53828365  0.21672037  1
  O  O16  1  0.13569335  0.45307328  0.28235264  1
  O  O17  1  0.49524185  0.47350854  0.24657705  1
  O  O18  1  0.99272155  0.29168001  0.53220421  1
  O  O19  1  0.61626515  0.51426025  0.09808962  1
  O  O20  1  0.48538927  0.22951018  0.58619651  1
  O  O21  1  0.73756160  0.40545007  0.21409978  1
  O  O22  1  0.23756160  0.59454993  0.78590022  1
  O  O23  1  0.65922756  0.10680147  0.71573320  1
  O  O24  1  0.11626515  0.48573975  0.90191038  1
  O  O25  1  0.81213126  0.19997045  0.49960015  1
  O  O26  1  0.99524185  0.52649146  0.75342295  1
  O  O27  1  0.36616448  0.46171635  0.78327963  1
  O  O28  1  0.51428899  0.28814866  0.00459000  1
  O  O29  1  0.01223798  0.23579268  0.08538858  1
  O  O30  1  0.63808182  0.07222854  0.32821007  1
  O  O31  1  0.83707651  0.10218606  0.21474280  1
  O  O32  1  0.68672658  0.20282118  0.00075587  1
  O  O33  1  0.86309026  0.07093676  0.82523592  1
loop_
_geom_bond_atom_site_label_1
_geom_bond_atom_site_label_2
_geom_bond_distance
_geom_bond_site_symmetry_2
Ca0 O6 2.257403 1_555
Ca0 O23 2.301523 1_565
Ca0 O5 2.316642 1_555
Ca0 O30 2.323237 1_565
Ca0 O20 2.404241 1_565
Ca0 O12 2.463326 1_555
Ca1 O15 2.274962 1_555
Ca1 O31 2.294998 1_565
Ca1 O14 2.296234 1_654
Ca1 O33 2.330210 1_564
Ca1 O29 2.405902 1_665
Ca1 O4 2.434959 1_555
Ca2 O16 2.257403 1_555
Ca2 O2 2.301523 1_545
Ca2 O18 2.316642 1_455
Ca2 O0 2.323237 1_545
Ca2 O4 2.404241 1_445
Ca2 O29 2.463326 1_555
Ca3 O27 2.274962 1_555
Ca3 O9 2.294998 1_545
Ca3 O28 2.296234 1_556
Ca3 O3 2.330210 1_546
Ca3 O12 2.405902 1_545
Ca3 O20 2.434959 1_555
O0 P5 1.459975 1_555
O1 P1 1.558906 1_555
O1 P0 1.619724 1_555
O2 P2 1.468553 1_555
O3 P1 1.460765 1_555
O4 P3 1.491073 1_555
O5 P4 1.472940 1_555
O6 P11 1.468162 1_555
O7 P5 1.557771 1_554
O7 P2 1.618934 1_555
O8 P6 1.567140 1_555
O8 P3 1.617514 1_555
O9 P0 1.469389 1_555
O10 P6 1.558074 1_555
O10 P11 1.618622 1_555
O11 P1 1.558074 1_555
O11 P2 1.618622 1_555
O12 P7 1.490409 1_556
O13 P1 1.567140 1_555
O13 P4 1.617514 1_555
O14 P8 1.473210 1_555
O15 P9 1.469006 1_555
O16 P2 1.468162 1_555
O17 P7 1.570820 1_555
O17 P4 1.572473 1_555
O18 P3 1.472940 1_555
O19 P10 1.569941 1_555
O19 P7 1.619628 1_555
O20 P4 1.491073 1_555
O21 P10 1.562492 1_555
O21 P9 1.618283 1_555
O22 P5 1.562492 1_555
O22 P0 1.618283 1_555
O23 P11 1.468553 1_555
O24 P5 1.569941 1_555
O24 P8 1.619628 1_555
O25 P6 1.558906 1_555
O25 P9 1.619724 1_555
O26 P8 1.570820 1_655
O26 P3 1.572473 1_555
O27 P0 1.469006 1_555
O28 P7 1.473210 1_555
O29 P8 1.490409 1_554
O30 P10 1.459975 1_555
O31 P9 1.469389 1_555
O32 P10 1.557771 1_555
O32 P11 1.618934 1_554
O33 P6 1.460765 1_555
