# generated using pymatgen
data_NaMnO4
_symmetry_space_group_name_H-M   'P 1'
_cell_length_a   5.40504428
_cell_length_b   5.40504428
_cell_length_c   7.04613100
_cell_angle_alpha   90.00000000
_cell_angle_beta   90.00000000
_cell_angle_gamma   114.01403197
_symmetry_Int_Tables_number   1
_chemical_formula_structural   NaMnO4
_chemical_formula_sum   'Na2 Mn2 O8'
_cell_volume   188.03210959
_cell_formula_units_Z   2
loop_
 _symmetry_equiv_pos_site_id
 _symmetry_equiv_pos_as_xyz
  1  'x, y, z'
loop_
 _atom_site_type_symbol
 _atom_site_label
 _atom_site_symmetry_multiplicity
 _atom_site_fract_x
 _atom_site_fract_y
 _atom_site_fract_z
 _atom_site_occupancy
  Na  Na0  1  0.00000000  0.00000000  0.00000000  1
  Na  Na1  1  0.00000000  0.00000000  0.50000000  1
  Mn  Mn0  1  0.36112500  0.63887500  0.75000000  1
  Mn  Mn1  1  0.63887500  0.36112500  0.25000000  1
  O  O0  1  0.30944400  0.23881000  0.25000000  1
  O  O1  1  0.23881000  0.30944400  0.75000000  1
  O  O2  1  0.25978000  0.74022000  0.56295300  1
  O  O3  1  0.74022000  0.25978000  0.06295300  1
  O  O4  1  0.74022000  0.25978000  0.43704700  1
  O  O5  1  0.25978000  0.74022000  0.93704700  1
  O  O6  1  0.76119000  0.69055600  0.25000000  1
  O  O7  1  0.69055600  0.76119000  0.75000000  1
loop_
_geom_bond_atom_site_label_1
_geom_bond_atom_site_label_2
_geom_bond_distance
_geom_bond_site_symmetry_2
Na0 O3 2.396784 1_455
Na0 O5 2.396784 1_544
Na0 O6 2.410266 1_445
Na0 O0 2.410266 1_555
Na0 O7 2.410266 1_444
Na0 O1 2.410266 1_554
Na1 O2 2.396784 1_545
Na1 O4 2.396784 1_455
Na1 O6 2.410266 1_445
Na1 O7 2.410266 1_445
Na1 O0 2.410266 1_555
Na1 O1 2.410266 1_555
Mn0 O5 1.606657 1_555
Mn0 O2 1.606657 1_555
Mn0 O1 1.627711 1_555
Mn0 O7 1.627711 1_555
Mn1 O4 1.606657 1_555
Mn1 O3 1.606657 1_555
Mn1 O6 1.627711 1_555
Mn1 O0 1.627711 1_555
