# generated using pymatgen
data_UP2H6O7
_symmetry_space_group_name_H-M   'P 1'
_cell_length_a   9.39336400
_cell_length_b   7.77425500
_cell_length_c   13.34881406
_cell_angle_alpha   56.60298726
_cell_angle_beta   90.00000000
_cell_angle_gamma   90.00000000
_symmetry_Int_Tables_number   1
_chemical_formula_structural   UP2H6O7
_chemical_formula_sum   'U4 P8 H24 O28'
_cell_volume   813.85097226
_cell_formula_units_Z   4
loop_
 _symmetry_equiv_pos_site_id
 _symmetry_equiv_pos_as_xyz
  1  'x, y, z'
loop_
 _atom_site_type_symbol
 _atom_site_label
 _atom_site_symmetry_multiplicity
 _atom_site_fract_x
 _atom_site_fract_y
 _atom_site_fract_z
 _atom_site_occupancy
  U  U0  1  0.73420600  0.72465800  0.05624100  1
  U  U1  1  0.76579400  0.72465800  0.55624100  1
  U  U2  1  0.26579400  0.27534200  0.94375900  1
  U  U3  1  0.23420600  0.27534200  0.44375900  1
  P  P0  1  0.64330800  0.39571400  0.95218000  1
  P  P1  1  0.85669200  0.39571400  0.45218000  1
  P  P2  1  0.35669200  0.60428600  0.04782000  1
  P  P3  1  0.14330800  0.60428600  0.54782000  1
  P  P4  1  0.01428700  0.02635600  0.84087800  1
  P  P5  1  0.48571300  0.02635600  0.34087800  1
  P  P6  1  0.98571300  0.97364400  0.15912200  1
  P  P7  1  0.51428700  0.97364400  0.65912200  1
  H  H0  1  0.64369100  0.23763200  0.07603300  1
  H  H1  1  0.85630900  0.23763200  0.57603300  1
  H  H2  1  0.35630900  0.76236800  0.92396700  1
  H  H3  1  0.14369100  0.76236800  0.42396700  1
  H  H4  1  0.72481100  0.32118100  0.89520600  1
  H  H5  1  0.77518900  0.32118100  0.39520600  1
  H  H6  1  0.27518900  0.67881900  0.10479400  1
  H  H7  1  0.22481100  0.67881900  0.60479400  1
  H  H8  1  0.06053500  0.00265500  0.74818700  1
  H  H9  1  0.43946500  0.00265500  0.24818700  1
  H  H10  1  0.93946500  0.99734500  0.25181300  1
  H  H11  1  0.56053500  0.99734500  0.75181300  1
  H  H12  1  0.91612600  0.19219600  0.78766300  1
  H  H13  1  0.58387400  0.19219600  0.28766300  1
  H  H14  1  0.08387400  0.80780400  0.21233700  1
  H  H15  1  0.41612600  0.80780400  0.71233700  1
  H  H16  1  0.51155200  0.65467400  0.25708800  1
  H  H17  1  0.98844800  0.65467400  0.75708800  1
  H  H18  1  0.48844800  0.34532600  0.74291200  1
  H  H19  1  0.01155200  0.34532600  0.24291200  1
  H  H20  1  0.66557300  0.68220100  0.29774500  1
  H  H21  1  0.83442700  0.68220100  0.79774500  1
  H  H22  1  0.33442700  0.31779900  0.70225500  1
  H  H23  1  0.16557300  0.31779900  0.20225500  1
  O  O0  1  0.82231400  0.48621800  0.17044100  1
  O  O1  1  0.67768600  0.48621800  0.67044100  1
  O  O2  1  0.17768600  0.51378200  0.82955900  1
  O  O3  1  0.32231400  0.51378200  0.32955900  1
  O  O4  1  0.64848400  0.96166800  0.94264500  1
  O  O5  1  0.85151600  0.96166800  0.44264500  1
  O  O6  1  0.35151600  0.03833200  0.05735500  1
  O  O7  1  0.14848400  0.03833200  0.55735500  1
  O  O8  1  0.49031900  0.43539500  0.90462900  1
  O  O9  1  0.00968100  0.43539500  0.40462900  1
  O  O10  1  0.50968100  0.56460500  0.09537100  1
  O  O11  1  0.99031900  0.56460500  0.59537100  1
  O  O12  1  0.72083700  0.58618300  0.93160100  1
  O  O13  1  0.77916300  0.58618300  0.43160100  1
  O  O14  1  0.27916300  0.41381700  0.06839900  1
  O  O15  1  0.22083700  0.41381700  0.56839900  1
  O  O16  1  0.93854400  0.82905600  0.93631500  1
  O  O17  1  0.56145600  0.82905600  0.43631500  1
  O  O18  1  0.06145600  0.17094400  0.06368500  1
  O  O19  1  0.43854400  0.17094400  0.56368500  1
  O  O20  1  0.14315300  0.08732300  0.88442900  1
  O  O21  1  0.35684700  0.08732300  0.38442900  1
  O  O22  1  0.85684700  0.91267700  0.11557100  1
  O  O23  1  0.64315300  0.91267700  0.61557100  1
  O  O24  1  0.60553200  0.71938800  0.22743700  1
  O  O25  1  0.89446800  0.71938800  0.72743700  1
  O  O26  1  0.39446800  0.28061200  0.77256300  1
  O  O27  1  0.10553200  0.28061200  0.27256300  1
loop_
_geom_bond_atom_site_label_1
_geom_bond_atom_site_label_2
_geom_bond_distance
_geom_bond_site_symmetry_2
H0 P0 1.416667 1_554
H1 P1 1.416667 1_555
H2 P2 1.416667 1_556
H3 P3 1.416667 1_555
H4 P0 1.409051 1_555
H5 P1 1.409051 1_555
H6 P2 1.409051 1_555
H7 P3 1.409051 1_555
H8 P4 1.415841 1_555
H9 P5 1.415841 1_555
H10 P6 1.415841 1_555
H11 P7 1.415841 1_555
H12 P4 1.417328 1_655
H13 P5 1.417328 1_555
H14 P6 1.417328 1_455
H15 P7 1.417328 1_555
H16 O24 0.984821 1_555
H17 O25 0.984821 1_555
H18 O26 0.984821 1_555
H19 O27 0.984821 1_555
H20 O24 0.991865 1_555
H21 O25 0.991865 1_555
H22 O26 0.991865 1_555
H23 O27 0.991865 1_555
O0 U0 1.825969 1_555
O1 U1 1.825969 1_555
O2 U2 1.825969 1_555
O3 U3 1.825969 1_555
O4 U0 1.807476 1_556
O5 U1 1.807476 1_555
O6 U2 1.807476 1_554
O7 U3 1.807476 1_555
O8 P0 1.532224 1_555
O8 U2 2.356622 1_555
O9 P1 1.532224 1_455
O9 U3 2.356622 1_555
O10 P2 1.532224 1_555
O10 U0 2.356622 1_555
O11 P3 1.532224 1_655
O11 U1 2.356622 1_555
O12 P0 1.533184 1_555
O12 U0 2.432026 1_556
O13 P1 1.533184 1_555
O13 U1 2.432026 1_555
O14 P2 1.533184 1_555
O14 U2 2.432026 1_554
O15 P3 1.533184 1_555
O15 U3 2.432026 1_555
O16 P4 1.526671 1_665
O16 U0 2.339941 1_556
O17 P5 1.526671 1_565
O17 U1 2.339941 1_555
O18 P6 1.526671 1_445
O18 U2 2.339941 1_554
O19 P7 1.526671 1_545
O19 U3 2.339941 1_555
O20 P4 1.526840 1_555
O20 U2 2.316331 1_555
O21 P5 1.526840 1_555
O21 U3 2.316331 1_555
O22 P6 1.526840 1_555
O22 U0 2.316331 1_555
O23 P7 1.526840 1_555
O23 U1 2.316331 1_555
O24 U0 2.565531 1_555
O25 U1 2.565531 1_555
O26 U2 2.565531 1_555
O27 U3 2.565531 1_555
