# generated using pymatgen
data_NaCo3O4
_symmetry_space_group_name_H-M   'P 1'
_cell_length_a   6.06528600
_cell_length_b   6.06528600
_cell_length_c   8.64866400
_cell_angle_alpha   90.00000000
_cell_angle_beta   90.00000000
_cell_angle_gamma   90.00000000
_symmetry_Int_Tables_number   1
_chemical_formula_structural   NaCo3O4
_chemical_formula_sum   'Na4 Co12 O16'
_cell_volume   318.16440701
_cell_formula_units_Z   4
loop_
 _symmetry_equiv_pos_site_id
 _symmetry_equiv_pos_as_xyz
  1  'x, y, z'
loop_
 _atom_site_type_symbol
 _atom_site_label
 _atom_site_symmetry_multiplicity
 _atom_site_fract_x
 _atom_site_fract_y
 _atom_site_fract_z
 _atom_site_occupancy
  Na  Na0  1  0.75572600  0.00000000  0.75000000  1
  Na  Na1  1  0.00000000  0.75572600  0.00000000  1
  Na  Na2  1  0.00000000  0.24427400  0.50000000  1
  Na  Na3  1  0.24427400  0.00000000  0.25000000  1
  Co  Co0  1  0.50000000  0.75147200  0.00000000  1
  Co  Co1  1  0.50000000  0.25093900  0.00000000  1
  Co  Co2  1  0.50000000  0.74906100  0.50000000  1
  Co  Co3  1  0.50000000  0.24852800  0.50000000  1
  Co  Co4  1  0.73909700  0.00000000  0.25000000  1
  Co  Co5  1  0.75147200  0.50000000  0.75000000  1
  Co  Co6  1  0.74906100  0.50000000  0.25000000  1
  Co  Co7  1  0.00000000  0.73909700  0.50000000  1
  Co  Co8  1  0.00000000  0.26090300  0.00000000  1
  Co  Co9  1  0.25093900  0.50000000  0.75000000  1
  Co  Co10  1  0.24852800  0.50000000  0.25000000  1
  Co  Co11  1  0.26090300  0.00000000  0.75000000  1
  O  O0  1  0.47729500  0.72904900  0.75695800  1
  O  O1  1  0.47729500  0.27095100  0.74304200  1
  O  O2  1  0.72465800  0.02199100  0.02012000  1
  O  O3  1  0.72465800  0.97800900  0.47988000  1
  O  O4  1  0.72904900  0.47729500  0.99304200  1
  O  O5  1  0.72904900  0.52270500  0.50695800  1
  O  O6  1  0.02199100  0.72465800  0.72988000  1
  O  O7  1  0.02199100  0.27534200  0.77012000  1
  O  O8  1  0.97800900  0.72465800  0.27012000  1
  O  O9  1  0.97800900  0.27534200  0.22988000  1
  O  O10  1  0.27095100  0.52270500  0.49304200  1
  O  O11  1  0.27095100  0.47729500  0.00695800  1
  O  O12  1  0.27534200  0.02199100  0.97988000  1
  O  O13  1  0.27534200  0.97800900  0.52012000  1
  O  O14  1  0.52270500  0.72904900  0.24304200  1
  O  O15  1  0.52270500  0.27095100  0.25695800  1
loop_
_geom_bond_atom_site_label_1
_geom_bond_atom_site_label_2
_geom_bond_distance
_geom_bond_site_symmetry_2
Na0 O7 2.329681 1_655
Na0 O6 2.329681 1_645
Na0 O2 2.347557 1_556
Na0 O3 2.347557 1_545
Na0 O1 2.357179 1_555
Na0 O0 2.357179 1_545
Na1 O12 2.329681 1_564
Na1 O2 2.329681 1_465
Na1 O6 2.347557 1_554
Na1 O8 2.347557 1_455
Na1 O11 2.357179 1_555
Na1 O4 2.357179 1_454
Na2 O13 2.329681 1_545
Na2 O3 2.329681 1_445
Na2 O9 2.347557 1_455
Na2 O7 2.347557 1_555
Na2 O10 2.357179 1_555
Na2 O5 2.357179 1_455
Na3 O9 2.329681 1_455
Na3 O8 2.329681 1_445
Na3 O12 2.347557 1_554
Na3 O13 2.347557 1_545
Na3 O15 2.357179 1_555
Na3 O14 2.357179 1_545
Co0 O14 2.110881 1_555
Co0 O0 2.110881 1_554
Co0 O2 2.139893 1_565
Co0 O12 2.139893 1_564
Co0 O4 2.167734 1_554
Co0 O11 2.167734 1_555
Co1 O2 1.953281 1_555
Co1 O12 1.953281 1_554
Co1 O4 1.954104 1_554
Co1 O11 1.954104 1_555
Co1 O15 2.229912 1_555
Co1 O1 2.229912 1_554
Co2 O3 1.953281 1_555
Co2 O13 1.953281 1_555
Co2 O5 1.954104 1_555
Co2 O10 1.954104 1_555
Co2 O0 2.229912 1_555
Co2 O14 2.229912 1_555
Co3 O1 2.110881 1_555
Co3 O15 2.110881 1_555
Co3 O3 2.139893 1_545
Co3 O13 2.139893 1_545
Co3 O10 2.167734 1_555
Co3 O5 2.167734 1_555
Co4 O2 1.994548 1_555
Co4 O3 1.994548 1_545
Co4 O15 2.104037 1_555
Co4 O14 2.104037 1_545
Co4 O9 2.217899 1_555
Co4 O8 2.217899 1_545
Co5 O5 2.110881 1_555
Co5 O4 2.110881 1_555
Co5 O6 2.139893 1_655
Co5 O7 2.139893 1_655
Co5 O0 2.167734 1_555
Co5 O1 2.167734 1_555
Co6 O8 1.953281 1_555
Co6 O9 1.953281 1_555
Co6 O15 1.954104 1_555
Co6 O14 1.954104 1_555
Co6 O5 2.229912 1_555
Co6 O4 2.229912 1_554
Co7 O8 1.994548 1_455
Co7 O6 1.994548 1_555
Co7 O10 2.104037 1_555
Co7 O5 2.104037 1_455
Co7 O13 2.217899 1_555
Co7 O3 2.217899 1_455
Co8 O7 1.994548 1_554
Co8 O9 1.994548 1_455
Co8 O4 2.104037 1_454
Co8 O11 2.104037 1_555
Co8 O12 2.217899 1_554
Co8 O2 2.217899 1_455
Co9 O6 1.953281 1_555
Co9 O7 1.953281 1_555
Co9 O0 1.954104 1_555
Co9 O1 1.954104 1_555
Co9 O10 2.229912 1_555
Co9 O11 2.229912 1_556
Co10 O10 2.110881 1_555
Co10 O11 2.110881 1_555
Co10 O8 2.139893 1_455
Co10 O9 2.139893 1_455
Co10 O14 2.167734 1_555
Co10 O15 2.167734 1_555
Co11 O13 1.994548 1_545
Co11 O12 1.994548 1_555
Co11 O1 2.104037 1_555
Co11 O0 2.104037 1_545
Co11 O7 2.217899 1_555
Co11 O6 2.217899 1_545
