# generated using pymatgen
data_Na3LiCuPCO7
_symmetry_space_group_name_H-M   'P 1'
_cell_length_a   6.43569300
_cell_length_b   5.15926400
_cell_length_c   9.87895231
_cell_angle_alpha   89.55773316
_cell_angle_beta   90.00000000
_cell_angle_gamma   90.00000000
_symmetry_Int_Tables_number   1
_chemical_formula_structural   Na3LiCuPCO7
_chemical_formula_sum   'Na6 Li2 Cu2 P2 C2 O14'
_cell_volume   328.00542038
_cell_formula_units_Z   2
loop_
 _symmetry_equiv_pos_site_id
 _symmetry_equiv_pos_as_xyz
  1  'x, y, z'
loop_
 _atom_site_type_symbol
 _atom_site_label
 _atom_site_symmetry_multiplicity
 _atom_site_fract_x
 _atom_site_fract_y
 _atom_site_fract_z
 _atom_site_occupancy
  Na  Na0  1  0.75000000  0.22877800  0.91123400  1
  Na  Na1  1  0.01666600  0.75652900  0.75996600  1
  Na  Na2  1  0.48333400  0.75652900  0.75996600  1
  Na  Na3  1  0.51666600  0.24347100  0.24003400  1
  Na  Na4  1  0.98333400  0.24347100  0.24003400  1
  Na  Na5  1  0.25000000  0.77122200  0.08876600  1
  Li  Li0  1  0.00000000  0.00000000  0.50000000  1
  Li  Li1  1  0.50000000  0.00000000  0.50000000  1
  Cu  Cu0  1  0.25000000  0.28001300  0.66532600  1
  Cu  Cu1  1  0.75000000  0.71998700  0.33467400  1
  P  P0  1  0.75000000  0.34364100  0.59216500  1
  P  P1  1  0.25000000  0.65635900  0.40783500  1
  C  C0  1  0.25000000  0.26790200  0.95363900  1
  C  C1  1  0.75000000  0.73209800  0.04636100  1
  O  O0  1  0.75000000  0.73358000  0.91379600  1
  O  O1  1  0.25000000  0.48954900  0.88916200  1
  O  O2  1  0.25000000  0.04947400  0.88914200  1
  O  O3  1  0.94401300  0.22924400  0.66947400  1
  O  O4  1  0.55598700  0.22924400  0.66947400  1
  O  O5  1  0.25000000  0.77829400  0.55317400  1
  O  O6  1  0.75000000  0.64217700  0.59244400  1
  O  O7  1  0.25000000  0.35782300  0.40755600  1
  O  O8  1  0.75000000  0.22170600  0.44682600  1
  O  O9  1  0.05598700  0.77075600  0.33052600  1
  O  O10  1  0.44401300  0.77075600  0.33052600  1
  O  O11  1  0.75000000  0.95052600  0.11085800  1
  O  O12  1  0.75000000  0.51045100  0.11083800  1
  O  O13  1  0.25000000  0.26642000  0.08620400  1
loop_
_geom_bond_atom_site_label_1
_geom_bond_atom_site_label_2
_geom_bond_distance
_geom_bond_site_symmetry_2
Na0 O11 2.430279 1_546
Na0 O12 2.458538 1_556
Na0 O0 2.554787 1_545
Na0 O0 2.604725 1_555
Na0 O3 2.695011 1_555
Na0 O4 2.695011 1_555
Na1 O0 2.294764 1_455
Na1 O1 2.398779 1_555
Na1 O6 2.459115 1_455
Na1 O2 2.489486 1_565
Na1 O5 2.537215 1_555
Na1 O3 2.632905 1_465
Na2 O0 2.294764 1_555
Na2 O1 2.398779 1_555
Na2 O6 2.459115 1_555
Na2 O2 2.489486 1_565
Na2 O5 2.537215 1_555
Na2 O4 2.632905 1_565
Na3 O13 2.294764 1_555
Na3 O12 2.398779 1_555
Na3 O7 2.459115 1_555
Na3 O11 2.489486 1_545
Na3 O8 2.537215 1_555
Na3 O10 2.632905 1_545
Na4 O13 2.294764 1_655
Na4 O12 2.398779 1_555
Na4 O7 2.459115 1_655
Na4 O11 2.489486 1_545
Na4 O8 2.537215 1_555
Na4 O9 2.632905 1_645
Na5 O2 2.430279 1_564
Na5 O1 2.458538 1_554
Na5 O13 2.554787 1_565
Na5 O13 2.604725 1_555
Na5 O10 2.695011 1_555
Na5 O9 2.695011 1_555
Li0 O8 2.040508 1_455
Li0 O5 2.040508 1_545
Li0 O9 2.088607 1_545
Li0 O3 2.088607 1_455
Li0 O6 2.608588 1_445
Li0 O7 2.608588 1_555
Li1 O8 2.040508 1_555
Li1 O5 2.040508 1_545
Li1 O4 2.088607 1_555
Li1 O10 2.088607 1_545
Li1 O7 2.608588 1_555
Li1 O6 2.608588 1_545
Cu0 O3 1.986963 1_455
Cu0 O4 1.986963 1_555
Cu0 O1 2.468860 1_555
Cu0 O7 2.574883 1_555
Cu1 O9 1.986963 1_655
Cu1 O10 1.986963 1_555
Cu1 O12 2.468860 1_555
Cu1 O6 2.574883 1_555
C0 O2 1.298856 1_555
C0 O1 1.304666 1_555
C0 O13 1.309567 1_556
C1 O11 1.298856 1_555
C1 O12 1.304666 1_555
C1 O0 1.309567 1_554
O3 P0 1.575973 1_555
O4 P0 1.575973 1_555
O5 P1 1.572011 1_555
O6 P0 1.540250 1_555
O7 P1 1.540250 1_555
O8 P0 1.572011 1_555
O9 P1 1.575973 1_555
O10 P1 1.575973 1_555
