# generated using pymatgen
data_Li2Mn3CuO8
_symmetry_space_group_name_H-M   'P 1'
_cell_length_a   8.19860541
_cell_length_b   8.31091522
_cell_length_c   8.33200174
_cell_angle_alpha   89.95407234
_cell_angle_beta   89.93741178
_cell_angle_gamma   90.04935087
_symmetry_Int_Tables_number   1
_chemical_formula_structural   Li2Mn3CuO8
_chemical_formula_sum   'Li8 Mn12 Cu4 O32'
_cell_volume   567.72449031
_cell_formula_units_Z   4
loop_
 _symmetry_equiv_pos_site_id
 _symmetry_equiv_pos_as_xyz
  1  'x, y, z'
loop_
 _atom_site_type_symbol
 _atom_site_label
 _atom_site_symmetry_multiplicity
 _atom_site_fract_x
 _atom_site_fract_y
 _atom_site_fract_z
 _atom_site_occupancy
  Li  Li0  1  0.12125400  0.87476800  0.37607600  1
  Li  Li1  1  0.25211300  0.75152900  0.74734300  1
  Li  Li2  1  0.24815500  0.24902400  0.24707200  1
  Li  Li3  1  0.37736700  0.12352900  0.87610800  1
  Li  Li4  1  0.62119900  0.62694400  0.62436100  1
  Li  Li5  1  0.75316500  0.74929800  0.25170500  1
  Li  Li6  1  0.74716600  0.25179300  0.75144600  1
  Li  Li7  1  0.87842700  0.37297700  0.12373600  1
  Mn  Mn0  1  0.12451000  0.62065900  0.12148000  1
  Mn  Mn1  1  0.12416100  0.37926900  0.87313700  1
  Mn  Mn2  1  0.12284200  0.12582400  0.62228800  1
  Mn  Mn3  1  0.37705600  0.87435200  0.12314000  1
  Mn  Mn4  1  0.37560200  0.62094900  0.37339500  1
  Mn  Mn5  1  0.37563800  0.37918000  0.62057300  1
  Mn  Mn6  1  0.62439500  0.87754700  0.87961700  1
  Mn  Mn7  1  0.62412500  0.12019900  0.12660000  1
  Mn  Mn8  1  0.62289000  0.37608400  0.37674400  1
  Mn  Mn9  1  0.87782200  0.62469000  0.87774900  1
  Mn  Mn10  1  0.87595000  0.87994400  0.62714000  1
  Mn  Mn11  1  0.87556800  0.12191100  0.37905400  1
  Cu  Cu0  1  0.98583400  0.50530800  0.49596500  1
  Cu  Cu1  1  0.51150000  0.49245000  0.99455200  1
  Cu  Cu2  1  0.48734100  0.99620900  0.50328400  1
  Cu  Cu3  1  0.01223100  0.00443700  0.00391400  1
  O  O0  1  0.10377400  0.12741000  0.39444800  1
  O  O1  1  0.10822100  0.90070700  0.62860300  1
  O  O2  1  0.11502200  0.61454400  0.88647400  1
  O  O3  1  0.13044100  0.39262300  0.09851500  1
  O  O4  1  0.11763300  0.15002200  0.85702800  1
  O  O5  1  0.13432300  0.36440100  0.63482400  1
  O  O6  1  0.13773500  0.62007700  0.35006200  1
  O  O7  1  0.14384200  0.85655500  0.12641000  1
  O  O8  1  0.35650800  0.14328100  0.62654300  1
  O  O9  1  0.36145500  0.38067100  0.84912400  1
  O  O10  1  0.36541400  0.63554000  0.13561200  1
  O  O11  1  0.38254900  0.85013400  0.35738200  1
  O  O12  1  0.36969000  0.60721100  0.59865200  1
  O  O13  1  0.38563300  0.38592000  0.38580800  1
  O  O14  1  0.39187300  0.09976600  0.12865600  1
  O  O15  1  0.39623000  0.87192000  0.89538900  1
  O  O16  1  0.60390400  0.37474500  0.60480500  1
  O  O17  1  0.60798500  0.60116400  0.37069100  1
  O  O18  1  0.61434700  0.88519300  0.11463800  1
  O  O19  1  0.63064000  0.10567300  0.90141500  1
  O  O20  1  0.61836600  0.34965100  0.14277100  1
  O  O21  1  0.63412700  0.13701700  0.36511300  1
  O  O22  1  0.63798900  0.88004400  0.65097500  1
  O  O23  1  0.64489000  0.64155000  0.87522400  1
  O  O24  1  0.85615700  0.35756700  0.37326500  1
  O  O25  1  0.86190200  0.11933700  0.15029700  1
  O  O26  1  0.86598800  0.86346700  0.86551200  1
  O  O27  1  0.88365900  0.65093600  0.64335500  1
  O  O28  1  0.86917300  0.89399400  0.40176200  1
  O  O29  1  0.88550300  0.11515400  0.61400100  1
  O  O30  1  0.89227900  0.39944200  0.87072000  1
  O  O31  1  0.89643500  0.62549000  0.10552800  1
loop_
_geom_bond_atom_site_label_1
_geom_bond_atom_site_label_2
_geom_bond_distance
_geom_bond_site_symmetry_2
Li0 O28 2.083817 1_455
Li0 O7 2.093854 1_555
Li0 O0 2.110365 1_565
Li0 O1 2.117833 1_555
Li0 O6 2.132343 1_555
Li0 O11 2.157663 1_555
Li1 O2 1.973844 1_555
Li1 O12 1.975968 1_555
Li1 O1 1.977560 1_555
Li1 O15 1.980378 1_555
Li2 O3 1.972312 1_555
Li2 O14 1.975483 1_555
Li2 O13 1.975807 1_555
Li2 O0 1.980749 1_555
Li3 O19 2.092776 1_555
Li3 O8 2.092911 1_555
Li3 O15 2.102974 1_545
Li3 O14 2.116803 1_556
Li3 O4 2.147051 1_555
Li3 O9 2.152783 1_555
Li4 O12 2.079702 1_555
Li4 O23 2.103001 1_555
Li4 O16 2.107125 1_555
Li4 O22 2.119698 1_555
Li4 O17 2.127450 1_555
Li4 O27 2.166825 1_555
Li5 O18 1.969295 1_555
Li5 O17 1.976924 1_555
Li5 O28 1.979133 1_555
Li5 O31 1.980614 1_555
Li6 O29 1.972017 1_555
Li6 O30 1.977589 1_555
Li6 O16 1.979838 1_555
Li6 O19 1.985386 1_555
Li7 O3 2.082850 1_655
Li7 O24 2.090694 1_555
Li7 O31 2.109005 1_555
Li7 O30 2.122304 1_554
Li7 O25 2.123584 1_555
Li7 O20 2.146450 1_555
Mn0 O31 1.875222 1_455
Mn0 O3 1.905632 1_555
Mn0 O6 1.907750 1_555
Mn0 O2 1.960398 1_554
Mn0 O7 1.967237 1_555
Mn0 O10 1.982473 1_555
Mn1 O3 1.881973 1_556
Mn1 O30 1.908758 1_455
Mn1 O4 1.910789 1_555
Mn1 O9 1.955547 1_555
Mn1 O2 1.960087 1_555
Mn1 O5 1.991222 1_555
Mn2 O1 1.875354 1_545
Mn2 O0 1.904996 1_555
Mn2 O8 1.921465 1_555
Mn2 O29 1.949093 1_455
Mn2 O4 1.966748 1_555
Mn2 O5 1.987780 1_555
Mn3 O14 1.877829 1_565
Mn3 O15 1.904076 1_554
Mn3 O7 1.917777 1_555
Mn3 O18 1.948671 1_555
Mn3 O11 1.962465 1_555
Mn3 O10 1.989585 1_555
Mn4 O12 1.880789 1_555
Mn4 O11 1.910094 1_555
Mn4 O17 1.912550 1_555
Mn4 O13 1.957763 1_555
Mn4 O6 1.960063 1_555
Mn4 O10 1.986671 1_555
Mn5 O16 1.876321 1_555
Mn5 O12 1.904453 1_555
Mn5 O9 1.907758 1_555
Mn5 O13 1.958443 1_555
Mn5 O8 1.967250 1_555
Mn5 O5 1.985568 1_555
Mn6 O15 1.875642 1_555
Mn6 O19 1.905410 1_565
Mn6 O22 1.908277 1_555
Mn6 O18 1.960921 1_556
Mn6 O23 1.969046 1_555
Mn6 O26 1.987635 1_555
Mn7 O19 1.880922 1_554
Mn7 O14 1.911611 1_555
Mn7 O20 1.912438 1_555
Mn7 O18 1.957314 1_545
Mn7 O25 1.959646 1_555
Mn7 O21 1.994083 1_555
Mn8 O17 1.875355 1_555
Mn8 O16 1.906423 1_555
Mn8 O24 1.918967 1_555
Mn8 O13 1.948348 1_555
Mn8 O20 1.962364 1_555
Mn8 O21 1.991512 1_555
Mn9 O30 1.876824 1_555
Mn9 O31 1.904163 1_556
Mn9 O23 1.915109 1_555
Mn9 O2 1.948043 1_655
Mn9 O27 1.965467 1_555
Mn9 O26 1.989447 1_555
Mn10 O28 1.882267 1_555
Mn10 O27 1.909053 1_555
Mn10 O1 1.912006 1_655
Mn10 O29 1.959280 1_565
Mn10 O22 1.960815 1_555
Mn10 O26 1.992303 1_555
Mn11 O0 1.876022 1_655
Mn11 O28 1.904145 1_545
Mn11 O25 1.909552 1_555
Mn11 O29 1.960123 1_555
Mn11 O24 1.965666 1_555
Mn11 O21 1.987083 1_555
Cu0 O27 1.917435 1_555
Cu0 O24 1.919711 1_555
Cu0 O6 1.982773 1_655
Cu0 O5 2.048271 1_655
Cu1 O20 1.924331 1_556
Cu1 O23 1.927000 1_555
Cu1 O9 1.961538 1_555
Cu1 O10 2.057106 1_556
Cu2 O11 1.921625 1_555
Cu2 O8 1.923845 1_565
Cu2 O22 1.993816 1_555
Cu2 O21 2.033588 1_565
Cu3 O4 1.924072 1_554
Cu3 O7 1.928524 1_545
Cu3 O25 1.979671 1_455
Cu3 O26 2.035376 1_444
