# generated using pymatgen
data_Mn2Cu5P4(HO9)2
_symmetry_space_group_name_H-M   'P 1'
_cell_length_a   5.42871000
_cell_length_b   7.63339925
_cell_length_c   8.98285340
_cell_angle_alpha   108.49260436
_cell_angle_beta   95.60999878
_cell_angle_gamma   101.85769221
_symmetry_Int_Tables_number   1
_chemical_formula_structural   Mn2Cu5P4(HO9)2
_chemical_formula_sum   'Mn2 Cu5 P4 H2 O18'
_cell_volume   340.12562152
_cell_formula_units_Z   1
loop_
 _symmetry_equiv_pos_site_id
 _symmetry_equiv_pos_as_xyz
  1  'x, y, z'
loop_
 _atom_site_type_symbol
 _atom_site_label
 _atom_site_symmetry_multiplicity
 _atom_site_fract_x
 _atom_site_fract_y
 _atom_site_fract_z
 _atom_site_occupancy
  Mn  Mn0  1  0.45197200  0.71068800  0.01979500  1
  Mn  Mn1  1  0.54802800  0.28931200  0.98020500  1
  Cu  Cu0  1  0.00000000  0.00000000  0.00000000  1
  Cu  Cu1  1  0.27214300  0.10543200  0.50348800  1
  Cu  Cu2  1  0.72785700  0.89456800  0.49651200  1
  Cu  Cu3  1  0.23963800  0.46998800  0.38218500  1
  Cu  Cu4  1  0.76036200  0.53001200  0.61781500  1
  P  P0  1  0.99831000  0.28795700  0.80293800  1
  P  P1  1  0.00169000  0.71204300  0.19706200  1
  P  P2  1  0.34025100  0.84404400  0.73602000  1
  P  P3  1  0.65974900  0.15595600  0.26398000  1
  H  H0  1  0.33381800  0.44288100  0.65363200  1
  H  H1  1  0.66618200  0.55711900  0.34636800  1
  O  O0  1  0.39322100  0.38076700  0.55462600  1
  O  O1  1  0.60677900  0.61923300  0.44537400  1
  O  O2  1  0.17877000  0.58523100  0.22039200  1
  O  O3  1  0.82123000  0.41476900  0.77960800  1
  O  O4  1  0.46804400  0.94850200  0.62913600  1
  O  O5  1  0.53195600  0.05149800  0.37086400  1
  O  O6  1  0.11774300  0.80545000  0.07877200  1
  O  O7  1  0.88225700  0.19455000  0.92122800  1
  O  O8  1  0.27684500  0.40689700  0.87785900  1
  O  O9  1  0.72315500  0.59310300  0.12214100  1
  O  O10  1  0.46904800  0.24890900  0.19597000  1
  O  O11  1  0.53095200  0.75109100  0.80403000  1
  O  O12  1  0.99293000  0.86809100  0.35684200  1
  O  O13  1  0.00707000  0.13190900  0.64315800  1
  O  O14  1  0.27927300  0.00531700  0.87522900  1
  O  O15  1  0.72072700  0.99468300  0.12477100  1
  O  O16  1  0.09664800  0.69169300  0.63758200  1
  O  O17  1  0.90335200  0.30830700  0.36241800  1
loop_
_geom_bond_atom_site_label_1
_geom_bond_atom_site_label_2
_geom_bond_distance
_geom_bond_site_symmetry_2
Mn0 O11 2.126698 1_554
Mn0 O6 2.140162 1_555
Mn0 O9 2.149430 1_555
Mn0 O15 2.202687 1_555
Mn0 O8 2.210973 1_554
Mn1 O10 2.126698 1_556
Mn1 O7 2.140162 1_555
Mn1 O8 2.149430 1_555
Mn1 O14 2.202687 1_555
Mn1 O9 2.210973 1_556
Cu0 O14 1.972857 1_554
Cu0 O15 1.972857 1_445
Cu0 O6 2.020646 1_545
Cu0 O7 2.020646 1_454
Cu1 O0 1.954777 1_555
Cu1 O5 1.958107 1_555
Cu1 O13 1.999335 1_555
Cu1 O12 2.069358 1_445
Cu1 O4 2.233042 1_545
Cu2 O1 1.954777 1_555
Cu2 O4 1.958107 1_555
Cu2 O12 1.999335 1_555
Cu2 O13 2.069358 1_665
Cu2 O5 2.233042 1_565
Cu3 O17 1.938863 1_455
Cu3 O2 1.957531 1_555
Cu3 O1 2.006982 1_555
Cu3 O0 2.051469 1_555
Cu4 O16 1.938863 1_655
Cu4 O3 1.957531 1_555
Cu4 O0 2.006982 1_555
Cu4 O1 2.051469 1_555
H0 O0 0.985480 1_555
H1 O1 0.985480 1_555
O2 P1 1.541691 1_555
O3 P0 1.541691 1_555
O4 P2 1.558035 1_555
O5 P3 1.558035 1_555
O6 P1 1.568848 1_555
O7 P0 1.568848 1_555
O8 P0 1.553345 1_455
O9 P1 1.553345 1_655
O10 P3 1.549728 1_555
O11 P2 1.549728 1_555
O12 P1 1.559892 1_655
O13 P0 1.559892 1_455
O14 P2 1.568654 1_545
O15 P3 1.568654 1_565
O16 P2 1.539554 1_555
O17 P3 1.539554 1_555
