# generated using pymatgen
data_Li3Cu2F7
_symmetry_space_group_name_H-M   'P 1'
_cell_length_a   8.63907700
_cell_length_b   7.08861400
_cell_length_c   8.93681542
_cell_angle_alpha   77.39488817
_cell_angle_beta   90.00000000
_cell_angle_gamma   90.00000000
_symmetry_Int_Tables_number   1
_chemical_formula_structural   Li3Cu2F7
_chemical_formula_sum   'Li12 Cu8 F28'
_cell_volume   534.09138858
_cell_formula_units_Z   4
loop_
 _symmetry_equiv_pos_site_id
 _symmetry_equiv_pos_as_xyz
  1  'x, y, z'
loop_
 _atom_site_type_symbol
 _atom_site_label
 _atom_site_symmetry_multiplicity
 _atom_site_fract_x
 _atom_site_fract_y
 _atom_site_fract_z
 _atom_site_occupancy
  Li  Li0  1  0.69091300  0.93597100  0.95371500  1
  Li  Li1  1  0.80908700  0.93597100  0.45371500  1
  Li  Li2  1  0.16693200  0.77243300  0.85997300  1
  Li  Li3  1  0.84594800  0.71104100  0.80455400  1
  Li  Li4  1  0.33306800  0.77243300  0.35997300  1
  Li  Li5  1  0.65405200  0.71104100  0.30455400  1
  Li  Li6  1  0.34594800  0.28895900  0.69544600  1
  Li  Li7  1  0.66693200  0.22756700  0.64002700  1
  Li  Li8  1  0.15405200  0.28895900  0.19544600  1
  Li  Li9  1  0.83306800  0.22756700  0.14002700  1
  Li  Li10  1  0.19091300  0.06402900  0.54628500  1
  Li  Li11  1  0.30908700  0.06402900  0.04628500  1
  Cu  Cu0  1  0.49509000  0.81349000  0.65864100  1
  Cu  Cu1  1  0.00491000  0.81349000  0.15864100  1
  Cu  Cu2  1  0.07258600  0.62947200  0.57887500  1
  Cu  Cu3  1  0.42741400  0.62947200  0.07887500  1
  Cu  Cu4  1  0.57258600  0.37052800  0.92112500  1
  Cu  Cu5  1  0.92741400  0.37052800  0.42112500  1
  Cu  Cu6  1  0.99509000  0.18651000  0.84135900  1
  Cu  Cu7  1  0.50491000  0.18651000  0.34135900  1
  F  F0  1  0.67340500  0.92895300  0.73487000  1
  F  F1  1  0.92127300  0.84559800  0.95397900  1
  F  F2  1  0.95227900  0.84034700  0.61176200  1
  F  F3  1  0.82659500  0.92895300  0.23487000  1
  F  F4  1  0.39272100  0.74083600  0.85423500  1
  F  F5  1  0.57872700  0.84559800  0.45397900  1
  F  F6  1  0.29169000  0.79973500  0.57050900  1
  F  F7  1  0.54772100  0.84034700  0.11176200  1
  F  F8  1  0.68902400  0.58552700  0.94460400  1
  F  F9  1  0.10727900  0.74083600  0.35423500  1
  F  F10  1  0.20831000  0.79973500  0.07050900  1
  F  F11  1  0.05512900  0.54749200  0.79966100  1
  F  F12  1  0.81097600  0.58552700  0.44460400  1
  F  F13  1  0.55512900  0.45250800  0.70033900  1
  F  F14  1  0.44487100  0.54749200  0.29966100  1
  F  F15  1  0.18902400  0.41447300  0.55539600  1
  F  F16  1  0.94487100  0.45250800  0.20033900  1
  F  F17  1  0.79169000  0.20026500  0.92949100  1
  F  F18  1  0.89272100  0.25916400  0.64576500  1
  F  F19  1  0.31097600  0.41447300  0.05539600  1
  F  F20  1  0.45227900  0.15965300  0.88823800  1
  F  F21  1  0.70831000  0.20026500  0.42949100  1
  F  F22  1  0.42127300  0.15440200  0.54602100  1
  F  F23  1  0.60727900  0.25916400  0.14576500  1
  F  F24  1  0.17340500  0.07104700  0.76513000  1
  F  F25  1  0.04772100  0.15965300  0.38823800  1
  F  F26  1  0.07872700  0.15440200  0.04602100  1
  F  F27  1  0.32659500  0.07104700  0.26513000  1
loop_
_geom_bond_atom_site_label_1
_geom_bond_atom_site_label_2
_geom_bond_distance
_geom_bond_site_symmetry_2
Cu0 F4 1.926110 1_555
Cu0 F5 1.933267 1_555
Cu0 F0 1.936601 1_555
Cu0 F6 1.936771 1_555
Cu0 F22 2.489579 1_565
Cu0 F13 2.557241 1_555
Cu1 F9 1.926110 1_555
Cu1 F1 1.933267 1_454
Cu1 F3 1.936601 1_455
Cu1 F10 1.936771 1_555
Cu1 F26 2.489579 1_565
Cu1 F16 2.557241 1_455
Cu2 F15 1.875682 1_555
Cu2 F2 1.895474 1_455
Cu2 F11 1.937320 1_555
Cu2 F9 2.012865 1_555
Cu2 F6 2.237362 1_555
Cu3 F19 1.875682 1_555
Cu3 F7 1.895474 1_555
Cu3 F14 1.937320 1_555
Cu3 F4 2.012865 1_554
Cu3 F10 2.237362 1_555
Cu4 F8 1.875682 1_555
Cu4 F20 1.895474 1_555
Cu4 F13 1.937320 1_555
Cu4 F23 2.012865 1_556
Cu4 F17 2.237362 1_555
Cu5 F12 1.875682 1_555
Cu5 F25 1.895474 1_655
Cu5 F16 1.937320 1_555
Cu5 F18 2.012865 1_555
Cu5 F21 2.237362 1_555
Cu6 F18 1.926110 1_555
Cu6 F26 1.933267 1_656
Cu6 F24 1.936601 1_655
Cu6 F17 1.936771 1_555
Cu6 F1 2.489579 1_545
Cu6 F11 2.557241 1_655
Cu7 F23 1.926110 1_555
Cu7 F22 1.933267 1_555
Cu7 F27 1.936601 1_555
Cu7 F21 1.936771 1_555
Cu7 F5 2.489579 1_545
Cu7 F14 2.557241 1_555
F0 Li0 1.973039 1_555
F0 Li7 2.102174 1_565
F0 Li3 2.139151 1_555
F1 Li3 1.916355 1_555
F1 Li0 2.090509 1_555
F1 Li2 2.380959 1_655
F2 Li1 1.888613 1_555
F2 Li3 1.990791 1_555
F3 Li1 1.973039 1_555
F3 Li9 2.102174 1_565
F3 Li5 2.139151 1_555
F4 Li2 1.965371 1_555
F5 Li5 1.916355 1_555
F5 Li1 2.090509 1_555
F5 Li4 2.380959 1_555
F6 Li4 1.965780 1_555
F6 Li10 2.034145 1_565
F7 Li0 1.888613 1_554
F7 Li5 1.990791 1_555
F8 Li3 1.926120 1_555
F9 Li4 1.965371 1_555
F10 Li2 1.965780 1_554
F10 Li11 2.034145 1_565
F11 Li2 2.034954 1_555
F11 Li3 2.152631 1_455
F12 Li5 1.926120 1_555
F13 Li7 2.034954 1_555
F13 Li6 2.152631 1_555
F14 Li4 2.034954 1_555
F14 Li5 2.152631 1_555
F15 Li6 1.926120 1_555
F16 Li9 2.034954 1_555
F16 Li8 2.152631 1_655
F17 Li9 1.965780 1_556
F17 Li0 2.034145 1_545
F18 Li7 1.965371 1_555
F19 Li8 1.926120 1_555
F20 Li11 1.888613 1_556
F20 Li6 1.990791 1_555
F21 Li7 1.965780 1_555
F21 Li1 2.034145 1_545
F22 Li6 1.916355 1_555
F22 Li10 2.090509 1_555
F22 Li7 2.380959 1_555
F23 Li9 1.965371 1_555
F24 Li10 1.973039 1_555
F24 Li2 2.102174 1_545
F24 Li6 2.139151 1_555
F25 Li10 1.888613 1_555
F25 Li8 1.990791 1_555
F26 Li8 1.916355 1_555
F26 Li11 2.090509 1_555
F26 Li9 2.380959 1_455
F27 Li11 1.973039 1_555
F27 Li4 2.102174 1_545
F27 Li8 2.139151 1_555
