# generated using pymatgen
data_Li8TiNi7O16
_symmetry_space_group_name_H-M   'P 1'
_cell_length_a   6.47883300
_cell_length_b   6.51635240
_cell_length_c   7.70438116
_cell_angle_alpha   75.63791997
_cell_angle_beta   65.20247997
_cell_angle_gamma   72.08717489
_symmetry_Int_Tables_number   1
_chemical_formula_structural   Li8TiNi7O16
_chemical_formula_sum   'Li8 Ti1 Ni7 O16'
_cell_volume   278.28079924
_cell_formula_units_Z   1
loop_
 _symmetry_equiv_pos_site_id
 _symmetry_equiv_pos_as_xyz
  1  'x, y, z'
loop_
 _atom_site_type_symbol
 _atom_site_label
 _atom_site_symmetry_multiplicity
 _atom_site_fract_x
 _atom_site_fract_y
 _atom_site_fract_z
 _atom_site_occupancy
  Li  Li0  1  0.32321400  0.18015900  0.06871300  1
  Li  Li1  1  0.18769800  0.31199200  0.44430100  1
  Li  Li2  1  0.94286700  0.55084400  0.19006200  1
  Li  Li3  1  0.55966000  0.92951600  0.31409800  1
  Li  Li4  1  0.44258300  0.06983800  0.68409500  1
  Li  Li5  1  0.06512000  0.44749700  0.80713900  1
  Li  Li6  1  0.81095800  0.69013900  0.55746700  1
  Li  Li7  1  0.67723500  0.81353700  0.92946100  1
  Ti  Ti0  1  0.99990100  0.00391800  0.98943800  1
  Ni  Ni0  1  0.62345500  0.37376600  0.12673600  1
  Ni  Ni1  1  0.12710700  0.87203100  0.62205700  1
  Ni  Ni2  1  0.25022600  0.74808100  0.25159000  1
  Ni  Ni3  1  0.87728000  0.12461000  0.37419300  1
  Ni  Ni4  1  0.49753900  0.49902000  0.50070800  1
  Ni  Ni5  1  0.75079900  0.25148700  0.74774900  1
  Ni  Ni6  1  0.37615800  0.62467500  0.87505300  1
  O  O0  1  0.67332200  0.08136900  0.03069400  1
  O  O1  1  0.28734900  0.48897800  0.15442300  1
  O  O2  1  0.96536300  0.25946600  0.10746900  1
  O  O3  1  0.56722100  0.64575500  0.24383200  1
  O  O4  1  0.54003200  0.23757400  0.40690800  1
  O  O5  1  0.21219200  0.01244500  0.34311600  1
  O  O6  1  0.17980600  0.58765500  0.52921800  1
  O  O7  1  0.92730900  0.85129600  0.27110400  1
  O  O8  1  0.09008100  0.15146400  0.73249500  1
  O  O9  1  0.81996100  0.40435300  0.46728200  1
  O  O10  1  0.79727400  0.98275300  0.63241000  1
  O  O11  1  0.46220500  0.75645200  0.59287700  1
  O  O12  1  0.41621900  0.36600700  0.76368600  1
  O  O13  1  0.04689400  0.72234000  0.90914500  1
  O  O14  1  0.69420500  0.52992700  0.85278800  1
  O  O15  1  0.33505900  0.90186900  0.96267700  1
loop_
_geom_bond_atom_site_label_1
_geom_bond_atom_site_label_2
_geom_bond_distance
_geom_bond_site_symmetry_2
Li0 O5 2.059853 1_555
Li0 O0 2.069624 1_555
Li0 O2 2.119032 1_455
Li0 O15 2.135086 1_544
Li0 O1 2.186912 1_555
Li0 O12 2.280701 1_554
Li1 O6 2.038590 1_555
Li1 O4 2.089419 1_555
Li1 O8 2.121555 1_555
Li1 O1 2.169202 1_555
Li1 O9 2.210627 1_455
Li1 O5 2.214411 1_555
Li2 O9 2.033842 1_555
Li2 O1 2.050959 1_655
Li2 O2 2.093481 1_555
Li2 O13 2.104072 1_654
Li2 O7 2.159966 1_555
Li2 O3 2.198347 1_555
Li3 O3 2.033033 1_555
Li3 O5 2.073471 1_565
Li3 O0 2.077632 1_565
Li3 O11 2.093422 1_555
Li3 O7 2.172150 1_555
Li3 O4 2.244095 1_565
Li4 O8 2.067490 1_555
Li4 O4 2.071093 1_555
Li4 O10 2.074531 1_545
Li4 O15 2.083107 1_545
Li4 O12 2.103884 1_555
Li4 O11 2.271059 1_545
Li5 O6 2.020827 1_555
Li5 O12 2.067545 1_555
Li5 O13 2.080742 1_555
Li5 O8 2.087720 1_555
Li5 O14 2.185826 1_455
Li5 O2 2.258131 1_456
Li6 O11 2.075417 1_555
Li6 O10 2.091957 1_555
Li6 O7 2.116860 1_555
Li6 O9 2.120232 1_555
Li6 O14 2.168555 1_555
Li6 O6 2.204127 1_655
Li7 O15 2.030689 1_555
Li7 O14 2.034365 1_555
Li7 O0 2.070378 1_566
Li7 O10 2.200220 1_555
Li7 O13 2.229279 1_655
Li7 O3 2.299394 1_556
Ni0 O1 2.008765 1_555
Ni0 O4 2.026120 1_555
Ni0 O14 2.027354 1_554
Ni0 O3 2.051402 1_555
Ni0 O2 2.061033 1_555
Ni0 O0 2.098221 1_555
Ni1 O11 1.999991 1_555
Ni1 O10 2.007626 1_455
Ni1 O5 2.024992 1_565
Ni1 O6 2.031168 1_555
Ni1 O13 2.095487 1_555
Ni1 O8 2.103764 1_565
Ni2 O1 1.922290 1_555
Ni2 O5 1.929086 1_565
Ni2 O3 1.934042 1_555
Ni2 O7 1.942345 1_455
Ni2 O6 2.059520 1_555
Ni2 O15 2.113516 1_554
Ni3 O10 1.896928 1_545
Ni3 O2 1.936395 1_555
Ni3 O5 1.993790 1_655
Ni3 O9 1.995998 1_555
Ni3 O4 2.005045 1_555
Ni3 O7 2.009620 1_545
Ni4 O6 1.889894 1_555
Ni4 O11 1.894490 1_555
Ni4 O3 1.900552 1_555
Ni4 O9 1.909274 1_555
Ni4 O12 1.910013 1_555
Ni4 O4 1.912051 1_555
Ni5 O12 2.024342 1_555
Ni5 O14 2.037581 1_555
Ni5 O10 2.042076 1_545
Ni5 O8 2.051947 1_655
Ni5 O9 2.063195 1_555
Ni5 O0 2.111507 1_556
Ni6 O14 1.905265 1_555
Ni6 O13 1.950011 1_555
Ni6 O12 1.976427 1_555
Ni6 O15 1.986867 1_555
Ni6 O1 2.018817 1_556
Ni6 O11 2.031287 1_555
O0 Ti0 1.921234 1_554
O2 Ti0 2.000341 1_554
O7 Ti0 2.068914 1_564
O8 Ti0 1.901495 1_455
O13 Ti0 1.975743 1_465
O15 Ti0 2.001017 1_465
