# generated using pymatgen
data_Y2W2O9
_symmetry_space_group_name_H-M   'P 1'
_cell_length_a   6.73511300
_cell_length_b   7.12889885
_cell_length_c   7.46522680
_cell_angle_alpha   70.76020076
_cell_angle_beta   84.34965870
_cell_angle_gamma   82.61471596
_symmetry_Int_Tables_number   1
_chemical_formula_structural   Y2W2O9
_chemical_formula_sum   'Y4 W4 O18'
_cell_volume   335.00516313
_cell_formula_units_Z   2
loop_
 _symmetry_equiv_pos_site_id
 _symmetry_equiv_pos_as_xyz
  1  'x, y, z'
loop_
 _atom_site_type_symbol
 _atom_site_label
 _atom_site_symmetry_multiplicity
 _atom_site_fract_x
 _atom_site_fract_y
 _atom_site_fract_z
 _atom_site_occupancy
  Y  Y0  1  0.15324700  0.26038500  0.15353900  1
  Y  Y1  1  0.61546000  0.28691000  0.37498800  1
  Y  Y2  1  0.38454000  0.71309000  0.62501200  1
  Y  Y3  1  0.84675300  0.73961500  0.84646100  1
  W  W0  1  0.26748100  0.73619900  0.05429900  1
  W  W1  1  0.84076200  0.79292600  0.36824600  1
  W  W2  1  0.15923800  0.20707400  0.63175400  1
  W  W3  1  0.73251900  0.26380100  0.94570100  1
  O  O0  1  0.49606100  0.23551600  0.09335100  1
  O  O1  1  0.85214300  0.06982700  0.21722900  1
  O  O2  1  0.81789700  0.42955300  0.09115500  1
  O  O3  1  0.32880900  0.50296800  0.24735700  1
  O  O4  1  0.96123600  0.73885000  0.14034700  1
  O  O5  1  0.26063900  0.93713900  0.15710700  1
  O  O6  1  0.31460700  0.08821100  0.45694000  1
  O  O7  1  0.63313300  0.64177300  0.38146400  1
  O  O8  1  0.95693100  0.30466900  0.46744200  1
  O  O9  1  0.04306900  0.69533100  0.53255800  1
  O  O10  1  0.36686700  0.35822700  0.61853600  1
  O  O11  1  0.68539300  0.91178900  0.54306000  1
  O  O12  1  0.73936100  0.06286100  0.84289300  1
  O  O13  1  0.03876400  0.26115000  0.85965300  1
  O  O14  1  0.67119100  0.49703200  0.75264300  1
  O  O15  1  0.18210300  0.57044700  0.90884500  1
  O  O16  1  0.14785700  0.93017300  0.78277100  1
  O  O17  1  0.50393900  0.76448400  0.90664900  1
loop_
_geom_bond_atom_site_label_1
_geom_bond_atom_site_label_2
_geom_bond_distance
_geom_bond_site_symmetry_2
O0 W3 1.839101 1_554
O0 Y0 2.303753 1_555
O0 Y1 2.473400 1_555
O1 W1 1.930995 1_545
O1 W3 2.204083 1_554
O1 Y0 2.505366 1_655
O1 Y1 2.553493 1_555
O2 W3 2.012263 1_554
O2 Y3 2.374857 1_554
O2 Y1 2.397957 1_555
O2 Y0 2.430920 1_655
O3 W0 1.836747 1_555
O3 Y1 2.374467 1_555
O3 Y0 2.523154 1_555
O4 W1 1.944600 1_555
O4 W0 2.098659 1_655
O4 Y3 2.394161 1_554
O5 W0 1.828601 1_555
O5 Y0 2.317093 1_565
O6 W2 1.935989 1_555
O6 Y0 2.475332 1_555
O6 Y1 2.531645 1_555
O6 Y2 2.555135 1_545
O7 W1 1.848387 1_555
O7 Y2 2.481599 1_555
O7 Y1 2.564264 1_555
O8 W2 1.835267 1_655
O8 Y1 2.495334 1_555
O8 Y0 2.666336 1_655
O9 W1 1.835267 1_455
O9 Y2 2.495334 1_555
O9 Y3 2.666336 1_455
O10 W2 1.848387 1_555
O10 Y1 2.481599 1_555
O10 Y2 2.564264 1_555
O11 W1 1.935989 1_555
O11 Y3 2.475332 1_555
O11 Y2 2.531645 1_555
O11 Y1 2.555135 1_565
O12 W3 1.828601 1_555
O12 Y3 2.317093 1_545
O13 W2 1.944600 1_555
O13 W3 2.098659 1_455
O13 Y0 2.394161 1_556
O14 W3 1.836747 1_555
O14 Y2 2.374467 1_555
O14 Y3 2.523154 1_555
O15 W0 2.012263 1_556
O15 Y0 2.374857 1_556
O15 Y2 2.397957 1_555
O15 Y3 2.430920 1_455
O16 W2 1.930995 1_565
O16 W0 2.204083 1_556
O16 Y3 2.505366 1_455
O16 Y2 2.553493 1_555
O17 W0 1.839101 1_556
O17 Y3 2.303753 1_555
O17 Y2 2.473400 1_555
