# generated using pymatgen
data_Na2VBAsO7
_symmetry_space_group_name_H-M   'P 1'
_cell_length_a   5.60184868
_cell_length_b   18.74155952
_cell_length_c   6.58272918
_cell_angle_alpha   90.01502490
_cell_angle_beta   90.02151166
_cell_angle_gamma   86.32954237
_symmetry_Int_Tables_number   1
_chemical_formula_structural   Na2VBAsO7
_chemical_formula_sum   'Na8 V4 B4 As4 O28'
_cell_volume   689.68580474
_cell_formula_units_Z   4
loop_
 _symmetry_equiv_pos_site_id
 _symmetry_equiv_pos_as_xyz
  1  'x, y, z'
loop_
 _atom_site_type_symbol
 _atom_site_label
 _atom_site_symmetry_multiplicity
 _atom_site_fract_x
 _atom_site_fract_y
 _atom_site_fract_z
 _atom_site_occupancy
  Na  Na0  1  0.23630100  0.10124100  0.99121100  1
  Na  Na1  1  0.23614100  0.60138600  0.99167400  1
  Na  Na2  1  0.23602700  0.10123800  0.50879500  1
  Na  Na3  1  0.23638800  0.60112400  0.50903500  1
  Na  Na4  1  0.76408400  0.39877500  0.49124000  1
  Na  Na5  1  0.76365200  0.89886400  0.49103700  1
  Na  Na6  1  0.76376500  0.39876200  0.00879100  1
  Na  Na7  1  0.76372600  0.89862400  0.00836800  1
  V  V0  1  0.78185400  0.66533600  0.74990800  1
  V  V1  1  0.21807700  0.83464700  0.24996800  1
  V  V2  1  0.78196000  0.16543000  0.74984000  1
  V  V3  1  0.21809700  0.33456800  0.25010500  1
  B  B0  1  0.72357300  0.03938500  0.74999900  1
  B  B1  1  0.72327200  0.53931700  0.75005400  1
  B  B2  1  0.27649000  0.46061600  0.25001000  1
  B  B3  1  0.27654800  0.96069200  0.24996400  1
  As  As0  1  0.72214100  0.22111100  0.24987500  1
  As  As1  1  0.72169500  0.72116000  0.24964600  1
  As  As2  1  0.27789100  0.27888000  0.75007100  1
  As  As3  1  0.27832500  0.77884400  0.75028300  1
  O  O0  1  0.31094000  0.02898400  0.24998400  1
  O  O1  1  0.31082900  0.52892000  0.25002500  1
  O  O2  1  0.68891800  0.47102700  0.75004800  1
  O  O3  1  0.68921000  0.97108600  0.75001200  1
  O  O4  1  0.94623500  0.07317900  0.75000400  1
  O  O5  1  0.94611300  0.57310100  0.74983300  1
  O  O6  1  0.05383100  0.42682000  0.24998300  1
  O  O7  1  0.05382400  0.92689300  0.25025300  1
  O  O8  1  0.54272200  0.09804600  0.74992300  1
  O  O9  1  0.54264800  0.59800300  0.75031400  1
  O  O10  1  0.45734800  0.40195400  0.25007300  1
  O  O11  1  0.45732900  0.90201100  0.24963800  1
  O  O12  1  0.12764500  0.20262900  0.75000600  1
  O  O13  1  0.12801800  0.70260300  0.74996100  1
  O  O14  1  0.87238700  0.29736300  0.24994600  1
  O  O15  1  0.87207500  0.79738600  0.25002000  1
  O  O16  1  0.41615800  0.23839500  0.24987100  1
  O  O17  1  0.41569700  0.73837300  0.24908800  1
  O  O18  1  0.58386600  0.26159800  0.75010300  1
  O  O19  1  0.58435000  0.76165000  0.75110000  1
  O  O20  1  0.80596000  0.16778100  0.04483000  1
  O  O21  1  0.80596800  0.66769600  0.04502400  1
  O  O22  1  0.80585800  0.16784300  0.45508900  1
  O  O23  1  0.80482300  0.66796500  0.45528300  1
  O  O24  1  0.19416000  0.33215000  0.54487400  1
  O  O25  1  0.19517200  0.83206500  0.54474400  1
  O  O26  1  0.19407700  0.33220800  0.95513400  1
  O  O27  1  0.19383200  0.83227300  0.95496400  1
loop_
_geom_bond_atom_site_label_1
_geom_bond_atom_site_label_2
_geom_bond_distance
_geom_bond_site_symmetry_2
Na0 O0 2.199674 1_556
Na0 O8 2.337024 1_555
Na0 O4 2.354797 1_455
Na0 O12 2.520906 1_555
Na0 O20 2.665847 1_456
Na1 O1 2.199933 1_556
Na1 O9 2.337626 1_555
Na1 O5 2.358581 1_455
Na1 O13 2.520076 1_555
Na1 O21 2.663025 1_456
Na2 O0 2.199759 1_555
Na2 O8 2.336580 1_555
Na2 O4 2.354718 1_455
Na2 O12 2.520336 1_555
Na2 O22 2.665427 1_455
Na3 O1 2.199809 1_555
Na3 O9 2.335498 1_555
Na3 O5 2.354620 1_455
Na3 O13 2.520361 1_555
Na3 O23 2.674118 1_455
Na4 O2 2.199936 1_555
Na4 O10 2.336928 1_555
Na4 O6 2.354684 1_655
Na4 O14 2.520886 1_555
Na4 O24 2.665063 1_655
Na5 O3 2.199835 1_555
Na5 O11 2.336283 1_555
Na5 O7 2.354182 1_655
Na5 O15 2.520781 1_555
Na5 O25 2.673536 1_655
Na6 O2 2.199787 1_554
Na6 O10 2.336982 1_555
Na6 O6 2.354710 1_655
Na6 O14 2.520814 1_555
Na6 O26 2.665846 1_654
Na7 O3 2.199769 1_554
Na7 O11 2.336770 1_555
Na7 O7 2.358972 1_655
Na7 O15 2.520356 1_555
Na7 O27 2.663058 1_654
B0 O3 1.306552 1_545
B0 O4 1.434603 1_555
B0 O8 1.446528 1_555
B1 O2 1.306375 1_555
B1 O5 1.435412 1_555
B1 O9 1.446036 1_555
B2 O1 1.306617 1_555
B2 O6 1.434607 1_555
B2 O10 1.446567 1_555
B3 O0 1.306457 1_565
B3 O7 1.434964 1_555
B3 O11 1.446542 1_555
As0 O14 1.704306 1_555
As0 O16 1.723913 1_555
As0 O20 1.726547 1_555
As0 O22 1.726765 1_555
As1 O15 1.704294 1_555
As1 O17 1.723834 1_555
As1 O21 1.726384 1_555
As1 O23 1.727409 1_555
As2 O12 1.704289 1_555
As2 O18 1.723865 1_555
As2 O26 1.726612 1_555
As2 O24 1.726717 1_555
As3 O13 1.704314 1_555
As3 O19 1.723942 1_555
As3 O27 1.726610 1_555
As3 O25 1.727209 1_555
O4 V2 1.905868 1_555
O5 V0 1.905567 1_555
O6 V3 1.905863 1_555
O7 V1 1.905734 1_555
O8 V2 1.899378 1_555
O9 V0 1.898568 1_555
O10 V3 1.899459 1_555
O11 V1 1.899173 1_555
O12 V2 2.099722 1_455
O13 V0 2.102752 1_455
O14 V3 2.099898 1_655
O15 V1 2.101852 1_655
O16 V3 2.055170 1_555
O17 V1 2.055580 1_555
O18 V2 2.055181 1_555
O19 V0 2.055905 1_555
O20 V2 1.947119 1_554
O21 V0 1.947996 1_554
O22 V2 1.945666 1_555
O23 V0 1.944594 1_555
O24 V3 1.945802 1_555
O25 V1 1.945535 1_555
O26 V3 1.947007 1_556
O27 V1 1.947320 1_556
