# generated using pymatgen
data_Cs2SnF6
_symmetry_space_group_name_H-M   'P 1'
_cell_length_a   6.30441264
_cell_length_b   6.30441188
_cell_length_c   5.00400148
_cell_angle_alpha   90.00000000
_cell_angle_beta   90.00000000
_cell_angle_gamma   119.99999876
_symmetry_Int_Tables_number   1
_chemical_formula_structural   Cs2SnF6
_chemical_formula_sum   'Cs2 Sn1 F6'
_cell_volume   172.24129269
_cell_formula_units_Z   1
loop_
 _symmetry_equiv_pos_site_id
 _symmetry_equiv_pos_as_xyz
  1  'x, y, z'
loop_
 _atom_site_type_symbol
 _atom_site_label
 _atom_site_symmetry_multiplicity
 _atom_site_fract_x
 _atom_site_fract_y
 _atom_site_fract_z
 _atom_site_occupancy
  Cs  Cs0  1  0.66666700  0.33333300  0.69693414  1
  Cs  Cs1  1  0.33333300  0.66666700  0.30306586  1
  Sn  Sn0  1  0.00000000  0.00000000  -0.00000000  1
  F  F0  1  0.84832566  0.15167434  0.21902920  1
  F  F1  1  0.84832566  0.69665032  0.21902920  1
  F  F2  1  0.30334968  0.15167434  0.21902920  1
  F  F3  1  0.15167434  0.84832566  0.78097080  1
  F  F4  1  0.15167434  0.30334968  0.78097080  1
  F  F5  1  0.69665032  0.84832566  0.78097080  1
loop_
_geom_bond_atom_site_label_1
_geom_bond_atom_site_label_2
_geom_bond_distance
_geom_bond_site_symmetry_2
Cs0 F1 3.107052 1_555
Cs0 F0 3.107052 1_555
Cs0 F2 3.107052 1_555
Cs0 F5 3.184336 1_545
Cs0 F4 3.184337 1_655
Cs0 F3 3.184343 1_655
Cs0 F3 3.184343 1_545
Cs0 F5 3.184349 1_555
Cs0 F4 3.184349 1_555
Cs0 F1 3.280289 1_556
Cs0 F0 3.280289 1_556
Cs0 F2 3.280289 1_556
Cs1 F4 3.107052 1_555
Cs1 F3 3.107052 1_555
Cs1 F5 3.107052 1_555
Cs1 F2 3.184336 1_565
Cs1 F1 3.184337 1_455
Cs1 F0 3.184343 1_455
Cs1 F0 3.184343 1_565
Cs1 F2 3.184349 1_555
Cs1 F1 3.184349 1_555
Cs1 F4 3.280289 1_554
Cs1 F3 3.280289 1_554
Cs1 F5 3.280289 1_554
F0 Sn0 1.986032 1_655
F1 Sn0 1.986036 1_665
F2 Sn0 1.986036 1_555
F3 Sn0 1.986032 1_566
F4 Sn0 1.986036 1_556
F5 Sn0 1.986036 1_666
