# generated using pymatgen
data_Ba3(ClO)2
_symmetry_space_group_name_H-M   'P 1'
_cell_length_a   10.60025700
_cell_length_b   12.36027300
_cell_length_c   14.37400555
_cell_angle_alpha   67.88534458
_cell_angle_beta   90.00000000
_cell_angle_gamma   90.00000000
_symmetry_Int_Tables_number   1
_chemical_formula_structural   Ba3(ClO)2
_chemical_formula_sum   'Ba24 Cl16 O16'
_cell_volume   1744.76116532
_cell_formula_units_Z   8
loop_
 _symmetry_equiv_pos_site_id
 _symmetry_equiv_pos_as_xyz
  1  'x, y, z'
loop_
 _atom_site_type_symbol
 _atom_site_label
 _atom_site_symmetry_multiplicity
 _atom_site_fract_x
 _atom_site_fract_y
 _atom_site_fract_z
 _atom_site_occupancy
  Ba  Ba0  1  0.82381500  0.02185400  0.36542900  1
  Ba  Ba1  1  0.41369500  0.09633000  0.37749600  1
  Ba  Ba2  1  0.11135700  0.20332400  0.14698400  1
  Ba  Ba3  1  0.67618500  0.02185400  0.86542900  1
  Ba  Ba4  1  0.47821700  0.33449700  0.07789100  1
  Ba  Ba5  1  0.08630500  0.09633000  0.87749600  1
  Ba  Ba6  1  0.38864300  0.20332400  0.64698400  1
  Ba  Ba7  1  0.93423600  0.43352600  0.26872000  1
  Ba  Ba8  1  0.02178300  0.33449700  0.57789100  1
  Ba  Ba9  1  0.15759100  0.57039500  0.01569100  1
  Ba  Ba10  1  0.65759100  0.42960500  0.48430900  1
  Ba  Ba11  1  0.43423600  0.56647400  0.23128000  1
  Ba  Ba12  1  0.56576400  0.43352600  0.76872000  1
  Ba  Ba13  1  0.34240900  0.57039500  0.51569100  1
  Ba  Ba14  1  0.84240900  0.42960500  0.98430900  1
  Ba  Ba15  1  0.97821700  0.66550300  0.42210900  1
  Ba  Ba16  1  0.06576400  0.56647400  0.73128000  1
  Ba  Ba17  1  0.61135700  0.79667600  0.35301600  1
  Ba  Ba18  1  0.91369500  0.90367000  0.12250400  1
  Ba  Ba19  1  0.52178300  0.66550300  0.92210900  1
  Ba  Ba20  1  0.32381500  0.97814600  0.13457100  1
  Ba  Ba21  1  0.88864300  0.79667600  0.85301600  1
  Ba  Ba22  1  0.58630500  0.90367000  0.62250400  1
  Ba  Ba23  1  0.17618500  0.97814600  0.63457100  1
  Cl  Cl0  1  0.78525500  0.15155100  0.12720300  1
  Cl  Cl1  1  0.06601300  0.15964900  0.38677100  1
  Cl  Cl2  1  0.71474500  0.15155100  0.62720300  1
  Cl  Cl3  1  0.61917300  0.32536000  0.29765500  1
  Cl  Cl4  1  0.43398700  0.15964900  0.88677100  1
  Cl  Cl5  1  0.26795500  0.38341200  0.41363200  1
  Cl  Cl6  1  0.88082700  0.32536000  0.79765500  1
  Cl  Cl7  1  0.76795500  0.61658800  0.08636800  1
  Cl  Cl8  1  0.23204500  0.38341200  0.91363200  1
  Cl  Cl9  1  0.11917300  0.67464000  0.20234500  1
  Cl  Cl10  1  0.73204500  0.61658800  0.58636800  1
  Cl  Cl11  1  0.56601300  0.84035100  0.11322900  1
  Cl  Cl12  1  0.38082700  0.67464000  0.70234500  1
  Cl  Cl13  1  0.28525500  0.84844900  0.37279700  1
  Cl  Cl14  1  0.93398700  0.84035100  0.61322900  1
  Cl  Cl15  1  0.21474500  0.84844900  0.87279700  1
  O  O0  1  0.10659600  0.03647500  0.07329800  1
  O  O1  1  0.34409600  0.14938900  0.18503800  1
  O  O2  1  0.39340400  0.03647500  0.57329800  1
  O  O3  1  0.15590400  0.14938900  0.68503800  1
  O  O4  1  0.02257700  0.40241400  0.11864500  1
  O  O5  1  0.39120000  0.52616300  0.07374600  1
  O  O6  1  0.89120000  0.47383700  0.42625400  1
  O  O7  1  0.47742300  0.40241400  0.61864500  1
  O  O8  1  0.52257700  0.59758600  0.38135500  1
  O  O9  1  0.10880000  0.52616300  0.57374600  1
  O  O10  1  0.60880000  0.47383700  0.92625400  1
  O  O11  1  0.97742300  0.59758600  0.88135500  1
  O  O12  1  0.84409600  0.85061100  0.31496200  1
  O  O13  1  0.60659600  0.96352500  0.42670200  1
  O  O14  1  0.65590400  0.85061100  0.81496200  1
  O  O15  1  0.89340400  0.96352500  0.92670200  1
loop_
_geom_bond_atom_site_label_1
_geom_bond_atom_site_label_2
_geom_bond_distance
_geom_bond_site_symmetry_2
Ba0 O13 2.473714 1_545
Ba0 O12 2.491692 1_545
Ba0 Cl1 3.159063 1_655
Ba0 Cl0 3.213946 1_555
Ba0 Cl14 3.614880 1_545
Ba1 O13 2.549873 1_545
Ba1 O2 2.635725 1_555
Ba1 O1 2.694686 1_555
Ba1 Cl13 3.376595 1_545
Ba1 Cl3 3.410134 1_555
Ba1 Cl1 3.780464 1_555
Ba2 O4 2.520402 1_555
Ba2 O1 2.560394 1_555
Ba2 O0 2.649918 1_555
Ba2 Cl1 3.316816 1_555
Ba2 Cl8 3.495803 1_554
Ba2 Cl0 3.546346 1_455
Ba3 O15 2.473714 1_545
Ba3 O14 2.491692 1_545
Ba3 Cl4 3.159063 1_555
Ba3 Cl2 3.213946 1_555
Ba3 Cl11 3.614880 1_546
Ba4 O5 2.521998 1_555
Ba4 O10 2.608959 1_554
Ba4 O1 2.641025 1_555
Ba4 Cl8 3.416836 1_554
Ba4 Cl3 3.457640 1_555
Ba4 Cl0 3.873227 1_555
Ba5 O15 2.549873 1_445
Ba5 O0 2.635725 1_556
Ba5 O3 2.694686 1_555
Ba5 Cl15 3.376595 1_545
Ba5 Cl6 3.410134 1_455
Ba5 Cl4 3.780464 1_555
Ba6 O7 2.520402 1_555
Ba6 O3 2.560394 1_555
Ba6 O2 2.649918 1_555
Ba6 Cl4 3.316816 1_555
Ba6 Cl5 3.495803 1_555
Ba6 Cl2 3.546346 1_555
Ba7 O4 2.510538 1_655
Ba7 O6 2.536402 1_555
Ba7 Cl7 3.260598 1_555
Ba7 Cl9 3.390326 1_655
Ba7 Cl1 3.459073 1_655
Ba7 Cl3 3.563103 1_555
Ba8 O9 2.521998 1_555
Ba8 O6 2.608959 1_455
Ba8 O3 2.641025 1_555
Ba8 Cl5 3.416836 1_555
Ba8 Cl6 3.457640 1_455
Ba8 Cl2 3.873227 1_455
Ba9 O4 2.497161 1_555
Ba9 O5 2.604592 1_555
Ba9 O11 2.645813 1_454
Ba9 Cl8 3.266372 1_554
Ba9 Cl15 3.329054 1_554
Ba9 Cl9 3.409871 1_555
Ba10 O8 2.497161 1_555
Ba10 O6 2.604592 1_555
Ba10 O7 2.645813 1_555
Ba10 Cl10 3.266372 1_555
Ba10 Cl2 3.329054 1_555
Ba10 Cl3 3.409871 1_555
Ba11 O8 2.510538 1_555
Ba11 O5 2.536402 1_555
Ba11 Cl5 3.260598 1_555
Ba11 Cl3 3.390326 1_555
Ba11 Cl11 3.459073 1_555
Ba11 Cl9 3.563103 1_555
Ba12 O7 2.510538 1_555
Ba12 O10 2.536402 1_555
Ba12 Cl10 3.260598 1_555
Ba12 Cl12 3.390326 1_555
Ba12 Cl4 3.459073 1_555
Ba12 Cl6 3.563103 1_555
Ba13 O7 2.497161 1_555
Ba13 O9 2.604592 1_555
Ba13 O8 2.645813 1_555
Ba13 Cl5 3.266372 1_555
Ba13 Cl13 3.329054 1_555
Ba13 Cl12 3.409871 1_555
Ba14 O11 2.497161 1_555
Ba14 O10 2.604592 1_555
Ba14 O4 2.645813 1_656
Ba14 Cl7 3.266372 1_556
Ba14 Cl0 3.329054 1_556
Ba14 Cl6 3.409871 1_555
Ba15 O6 2.521998 1_555
Ba15 O9 2.608959 1_655
Ba15 O12 2.641025 1_555
Ba15 Cl10 3.416836 1_555
Ba15 Cl9 3.457640 1_655
Ba15 Cl13 3.873227 1_655
Ba16 O11 2.510538 1_455
Ba16 O9 2.536402 1_555
Ba16 Cl8 3.260598 1_555
Ba16 Cl6 3.390326 1_455
Ba16 Cl14 3.459073 1_455
Ba16 Cl12 3.563103 1_555
Ba17 O8 2.520402 1_555
Ba17 O12 2.560394 1_555
Ba17 O13 2.649918 1_555
Ba17 Cl11 3.316816 1_555
Ba17 Cl10 3.495803 1_555
Ba17 Cl13 3.546346 1_555
Ba18 O0 2.549873 1_665
Ba18 O15 2.635725 1_554
Ba18 O12 2.694686 1_555
Ba18 Cl0 3.376595 1_565
Ba18 Cl9 3.410134 1_655
Ba18 Cl11 3.780464 1_555
Ba19 O10 2.521998 1_555
Ba19 O5 2.608959 1_556
Ba19 O14 2.641025 1_555
Ba19 Cl7 3.416836 1_556
Ba19 Cl12 3.457640 1_555
Ba19 Cl15 3.873227 1_555
Ba20 O0 2.473714 1_565
Ba20 O1 2.491692 1_565
Ba20 Cl11 3.159063 1_555
Ba20 Cl13 3.213946 1_555
Ba20 Cl4 3.614880 1_564
Ba21 O11 2.520402 1_555
Ba21 O14 2.560394 1_555
Ba21 O15 2.649918 1_555
Ba21 Cl14 3.316816 1_555
Ba21 Cl7 3.495803 1_556
Ba21 Cl15 3.546346 1_655
Ba22 O2 2.549873 1_565
Ba22 O13 2.635725 1_555
Ba22 O14 2.694686 1_555
Ba22 Cl2 3.376595 1_565
Ba22 Cl12 3.410134 1_555
Ba22 Cl14 3.780464 1_555
Ba23 O2 2.473714 1_565
Ba23 O3 2.491692 1_565
Ba23 Cl14 3.159063 1_455
Ba23 Cl15 3.213946 1_555
Ba23 Cl1 3.614880 1_565
