# generated using pymatgen
data_Li4MnFe3O8
_symmetry_space_group_name_H-M   'P 1'
_cell_length_a   6.01728604
_cell_length_b   6.01728604
_cell_length_c   5.96341475
_cell_angle_alpha   60.35559264
_cell_angle_beta   60.35559264
_cell_angle_gamma   58.81783095
_symmetry_Int_Tables_number   1
_chemical_formula_structural   Li4MnFe3O8
_chemical_formula_sum   'Li4 Mn1 Fe3 O8'
_cell_volume   152.06306220
_cell_formula_units_Z   1
loop_
 _symmetry_equiv_pos_site_id
 _symmetry_equiv_pos_as_xyz
  1  'x, y, z'
loop_
 _atom_site_type_symbol
 _atom_site_label
 _atom_site_symmetry_multiplicity
 _atom_site_fract_x
 _atom_site_fract_y
 _atom_site_fract_z
 _atom_site_occupancy
  Li  Li0  1  0.00000000  0.50000000  0.50000000  1
  Li  Li1  1  0.00000000  0.00000000  0.00000000  1
  Li  Li2  1  0.50000000  0.00000000  0.50000000  1
  Li  Li3  1  0.50000000  0.50000000  0.00000000  1
  Mn  Mn0  1  0.00000000  0.00000000  0.50000000  1
  Fe  Fe0  1  0.00000000  0.50000000  0.00000000  1
  Fe  Fe1  1  0.50000000  0.50000000  0.50000000  1
  Fe  Fe2  1  0.50000000  0.00000000  0.00000000  1
  O  O0  1  0.25967600  0.25967600  0.75047800  1
  O  O1  1  0.23438700  0.74902200  0.73908300  1
  O  O2  1  0.25097800  0.76561300  0.26091700  1
  O  O3  1  0.25838200  0.25838200  0.22408300  1
  O  O4  1  0.74161800  0.74161800  0.77591700  1
  O  O5  1  0.74902200  0.23438700  0.73908300  1
  O  O6  1  0.76561300  0.25097800  0.26091700  1
  O  O7  1  0.74032400  0.74032400  0.24952200  1
loop_
_geom_bond_atom_site_label_1
_geom_bond_atom_site_label_2
_geom_bond_distance
_geom_bond_site_symmetry_2
Li0 O0 2.143853 1_555
Li0 O7 2.143853 1_455
Li0 O4 2.175660 1_455
Li0 O3 2.175660 1_555
Li0 O2 2.232314 1_555
Li0 O5 2.232314 1_455
Li1 O6 2.153816 1_455
Li1 O2 2.153816 1_545
Li1 O5 2.153816 1_454
Li1 O1 2.153816 1_544
Li1 O0 2.241752 1_554
Li1 O7 2.241752 1_445
Li2 O0 2.143853 1_555
Li2 O7 2.143853 1_545
Li2 O4 2.175660 1_545
Li2 O3 2.175660 1_555
Li2 O6 2.232314 1_555
Li2 O1 2.232314 1_545
Li3 O4 2.087658 1_554
Li3 O3 2.087658 1_555
Li3 O6 2.212344 1_555
Li3 O2 2.212344 1_555
Li3 O1 2.212344 1_554
Li3 O5 2.212344 1_554
Mn0 O1 1.989026 1_545
Mn0 O5 1.989026 1_455
Mn0 O6 1.989026 1_455
Mn0 O2 1.989026 1_545
Mn0 O4 2.232426 1_445
Mn0 O3 2.232426 1_555
Fe0 O3 2.027157 1_555
Fe0 O4 2.027157 1_454
Fe0 O7 2.058066 1_455
Fe0 O0 2.058066 1_554
Fe0 O1 2.089653 1_554
Fe0 O6 2.089653 1_455
Fe1 O1 2.052258 1_555
Fe1 O5 2.052258 1_555
Fe1 O6 2.052258 1_555
Fe1 O2 2.052258 1_555
Fe1 O7 2.074963 1_555
Fe1 O0 2.074963 1_555
Fe2 O3 2.027157 1_555
Fe2 O4 2.027157 1_544
Fe2 O7 2.058066 1_545
Fe2 O0 2.058066 1_554
Fe2 O5 2.089653 1_554
Fe2 O2 2.089653 1_545
