# generated using pymatgen
data_KSb(PSe3)2
_symmetry_space_group_name_H-M   'P 1'
_cell_length_a   8.20808100
_cell_length_b   7.04295000
_cell_length_c   10.35529926
_cell_angle_alpha   88.33248624
_cell_angle_beta   90.00000000
_cell_angle_gamma   90.00000000
_symmetry_Int_Tables_number   1
_chemical_formula_structural   KSb(PSe3)2
_chemical_formula_sum   'K2 Sb2 P4 Se12'
_cell_volume   598.37706474
_cell_formula_units_Z   2
loop_
 _symmetry_equiv_pos_site_id
 _symmetry_equiv_pos_as_xyz
  1  'x, y, z'
loop_
 _atom_site_type_symbol
 _atom_site_label
 _atom_site_symmetry_multiplicity
 _atom_site_fract_x
 _atom_site_fract_y
 _atom_site_fract_z
 _atom_site_occupancy
  K  K0  1  0.66296300  0.19277100  0.99171300  1
  K  K1  1  0.16296300  0.80722900  0.00828700  1
  Sb  Sb0  1  0.94714800  0.31355400  0.51437300  1
  Sb  Sb1  1  0.44714800  0.68644600  0.48562700  1
  P  P0  1  0.15238000  0.29169200  0.79827400  1
  P  P1  1  0.65238000  0.70830800  0.20172600  1
  P  P2  1  0.86087500  0.80729600  0.32953600  1
  P  P3  1  0.36087500  0.19270400  0.67046400  1
  Se  Se0  1  0.05537000  0.58491100  0.32847600  1
  Se  Se1  1  0.95941900  0.08140600  0.76629400  1
  Se  Se2  1  0.55537000  0.41508900  0.67152400  1
  Se  Se3  1  0.24057600  0.32360200  0.99154000  1
  Se  Se4  1  0.57746700  0.44367300  0.31216300  1
  Se  Se5  1  0.07746700  0.55632700  0.68783700  1
  Se  Se6  1  0.74240500  0.84055900  0.52620200  1
  Se  Se7  1  0.24240500  0.15944100  0.47379800  1
  Se  Se8  1  0.45319800  0.92212500  0.74960600  1
  Se  Se9  1  0.95319800  0.07787500  0.25039400  1
  Se  Se10  1  0.74057600  0.67639800  0.00846000  1
  Se  Se11  1  0.45941900  0.91859400  0.23370600  1
loop_
_geom_bond_atom_site_label_1
_geom_bond_atom_site_label_2
_geom_bond_distance
_geom_bond_site_symmetry_2
K0 Se10 3.474510 1_556
K0 Se1 3.477316 1_555
K0 Se11 3.538084 1_546
K0 Se3 3.587332 1_555
K0 Se8 3.627879 1_545
K0 Se9 3.657789 1_556
K0 Se10 3.691266 1_546
K0 Se2 3.731351 1_555
K0 Se4 3.868827 1_556
K1 Se3 3.474510 1_554
K1 Se11 3.477316 1_555
K1 Se1 3.538084 1_464
K1 Se10 3.587332 1_455
K1 Se9 3.627879 1_465
K1 Se8 3.657789 1_554
K1 Se3 3.691266 1_564
K1 Se0 3.731351 1_555
K1 Se5 3.868827 1_554
Sb0 Se7 2.693421 1_655
Sb0 Se5 2.733693 1_655
Sb0 Se0 2.816587 1_655
Sb0 Se1 3.039830 1_555
Sb0 Se9 3.239474 1_555
Sb1 Se6 2.693421 1_555
Sb1 Se4 2.733693 1_555
Sb1 Se2 2.816587 1_555
Sb1 Se11 3.039830 1_555
Sb1 Se8 3.239474 1_555
P0 Se3 2.146172 1_555
P0 Se1 2.200050 1_455
P0 Se5 2.244031 1_555
P0 P3 2.284759 1_555
P1 Se10 2.146172 1_555
P1 Se11 2.200050 1_555
P1 Se4 2.244031 1_555
P1 P2 2.284759 1_555
P2 Se9 2.187830 1_565
P2 Se0 2.236703 1_655
P2 Se6 2.275018 1_555
P3 Se8 2.187830 1_545
P3 Se2 2.236703 1_555
P3 Se7 2.275018 1_555
