# generated using pymatgen
data_NaMg3Al6Si6B3O31
_symmetry_space_group_name_H-M   'P 1'
_cell_length_a   9.62996822
_cell_length_b   9.62996822
_cell_length_c   9.62996812
_cell_angle_alpha   113.86089646
_cell_angle_beta   113.86089646
_cell_angle_gamma   113.86089217
_symmetry_Int_Tables_number   1
_chemical_formula_structural   NaMg3Al6Si6B3O31
_chemical_formula_sum   'Na1 Mg3 Al6 Si6 B3 O31'
_cell_volume   548.12371345
_cell_formula_units_Z   1
loop_
 _symmetry_equiv_pos_site_id
 _symmetry_equiv_pos_as_xyz
  1  'x, y, z'
loop_
 _atom_site_type_symbol
 _atom_site_label
 _atom_site_symmetry_multiplicity
 _atom_site_fract_x
 _atom_site_fract_y
 _atom_site_fract_z
 _atom_site_occupancy
  Na  Na0  1  0.76842800  0.76842800  0.76842800  1
  Mg  Mg0  1  0.28102500  0.09029300  0.09029300  1
  Mg  Mg1  1  0.09029300  0.28102500  0.09029300  1
  Mg  Mg2  1  0.09029300  0.09029300  0.28102500  1
  Al  Al0  1  0.88193900  0.10687900  0.44405300  1
  Al  Al1  1  0.44405300  0.88193900  0.10687900  1
  Al  Al2  1  0.10687900  0.44405300  0.88193900  1
  Al  Al3  1  0.44405300  0.10687900  0.88193900  1
  Al  Al4  1  0.88193900  0.44405300  0.10687900  1
  Al  Al5  1  0.10687900  0.88193900  0.44405300  1
  Si  Si0  1  0.72176000  0.52800800  0.33904500  1
  Si  Si1  1  0.33904500  0.72176000  0.52800800  1
  Si  Si2  1  0.52800800  0.33904500  0.72176000  1
  Si  Si3  1  0.33904500  0.52800800  0.72176000  1
  Si  Si4  1  0.72176000  0.33904500  0.52800800  1
  Si  Si5  1  0.52800800  0.72176000  0.33904500  1
  B  B0  1  0.09575500  0.09575500  0.76611700  1
  B  B1  1  0.76611700  0.09575500  0.09575500  1
  B  B2  1  0.09575500  0.76611700  0.09575500  1
  O  O0  1  0.29375800  0.29375800  0.29375800  1
  O  O1  1  0.06681800  0.06681800  0.88292900  1
  O  O2  1  0.88292900  0.06681800  0.06681800  1
  O  O3  1  0.06681800  0.88292900  0.06681800  1
  O  O4  1  0.34198000  0.93562700  0.93562700  1
  O  O5  1  0.93562700  0.34198000  0.93562700  1
  O  O6  1  0.93562700  0.93562700  0.34198000  1
  O  O7  1  0.69168000  0.69168000  0.41034700  1
  O  O8  1  0.41034700  0.69168000  0.69168000  1
  O  O9  1  0.69168000  0.41034700  0.69168000  1
  O  O10  1  0.79607500  0.52181600  0.52181600  1
  O  O11  1  0.52181600  0.79607500  0.52181600  1
  O  O12  1  0.52181600  0.52181600  0.79607500  1
  O  O13  1  0.50574300  0.29937900  0.11642400  1
  O  O14  1  0.11642400  0.50574300  0.29937900  1
  O  O15  1  0.29937900  0.11642400  0.50574300  1
  O  O16  1  0.11642400  0.29937900  0.50574300  1
  O  O17  1  0.50574300  0.11642400  0.29937900  1
  O  O18  1  0.29937900  0.50574300  0.11642400  1
  O  O19  1  0.89845000  0.61398300  0.32807000  1
  O  O20  1  0.32807000  0.89845000  0.61398300  1
  O  O21  1  0.61398300  0.32807000  0.89845000  1
  O  O22  1  0.32807000  0.61398300  0.89845000  1
  O  O23  1  0.89845000  0.32807000  0.61398300  1
  O  O24  1  0.61398300  0.89845000  0.32807000  1
  O  O25  1  0.03663100  0.18684800  0.70651200  1
  O  O26  1  0.70651200  0.03663100  0.18684800  1
  O  O27  1  0.18684800  0.70651200  0.03663100  1
  O  O28  1  0.70651200  0.18684800  0.03663100  1
  O  O29  1  0.03663100  0.70651200  0.18684800  1
  O  O30  1  0.18684800  0.03663100  0.70651200  1
loop_
_geom_bond_atom_site_label_1
_geom_bond_atom_site_label_2
_geom_bond_distance
_geom_bond_site_symmetry_2
Na0 O3 2.433679 1_656
Na0 O2 2.433679 1_566
Na0 O1 2.433679 1_665
Na0 O11 2.794815 1_555
Na0 O10 2.794815 1_555
Na0 O12 2.794815 1_555
Na0 O7 2.901311 1_555
Na0 O8 2.901311 1_555
Na0 O9 2.901311 1_555
Mg0 O0 2.049029 1_555
Mg0 O1 2.053976 1_554
Mg0 O3 2.053976 1_545
Mg0 O4 2.097917 1_544
Mg0 O17 2.103528 1_555
Mg0 O13 2.103529 1_555
Mg1 O0 2.049029 1_555
Mg1 O1 2.053976 1_554
Mg1 O2 2.053976 1_455
Mg1 O5 2.097917 1_454
Mg1 O14 2.103528 1_555
Mg1 O18 2.103529 1_555
Mg2 O0 2.049029 1_555
Mg2 O3 2.053976 1_545
Mg2 O2 2.053976 1_455
Mg2 O6 2.097917 1_445
Mg2 O15 2.103528 1_555
Mg2 O16 2.103528 1_555
Al0 O16 1.877623 1_655
Al0 O24 1.897114 1_545
Al0 O25 1.910853 1_655
Al0 O6 1.934604 1_545
Al0 O26 1.944485 1_555
Al0 O23 1.983879 1_555
Al1 O17 1.877623 1_565
Al1 O22 1.897114 1_554
Al1 O26 1.910854 1_565
Al1 O4 1.934604 1_554
Al1 O27 1.944486 1_555
Al1 O24 1.983879 1_555
Al2 O18 1.877623 1_556
Al2 O23 1.897114 1_455
Al2 O27 1.910853 1_556
Al2 O5 1.934604 1_455
Al2 O25 1.944486 1_555
Al2 O22 1.983879 1_555
Al3 O13 1.877623 1_556
Al3 O20 1.897114 1_545
Al3 O28 1.910853 1_556
Al3 O4 1.934604 1_545
Al3 O30 1.944486 1_555
Al3 O21 1.983879 1_555
Al4 O14 1.877623 1_655
Al4 O21 1.897114 1_554
Al4 O29 1.910854 1_655
Al4 O5 1.934604 1_554
Al4 O28 1.944486 1_555
Al4 O19 1.983879 1_555
Al5 O15 1.877623 1_565
Al5 O19 1.897114 1_455
Al5 O30 1.910853 1_565
Al5 O6 1.934604 1_455
Al5 O29 1.944485 1_555
Al5 O20 1.983879 1_555
B0 O1 1.365680 1_555
B0 O30 1.403640 1_555
B0 O25 1.403640 1_555
B1 O2 1.365680 1_555
B1 O28 1.403640 1_555
B1 O26 1.403640 1_555
B2 O3 1.365680 1_555
B2 O27 1.403640 1_555
B2 O29 1.403640 1_555
O7 Si0 1.641451 1_555
O7 Si5 1.641451 1_555
O8 Si1 1.641451 1_555
O8 Si3 1.641451 1_555
O9 Si4 1.641451 1_555
O9 Si2 1.641451 1_555
O10 Si0 1.647410 1_555
O10 Si4 1.647410 1_555
O11 Si5 1.647410 1_555
O11 Si1 1.647410 1_555
O12 Si3 1.647410 1_555
O12 Si2 1.647410 1_555
O13 Si0 1.624410 1_555
O14 Si1 1.624410 1_555
O15 Si2 1.624410 1_555
O16 Si3 1.624410 1_555
O17 Si4 1.624410 1_555
O18 Si5 1.624410 1_555
O19 Si0 1.633515 1_555
O20 Si1 1.633515 1_555
O21 Si2 1.633515 1_555
O22 Si3 1.633515 1_555
O23 Si4 1.633515 1_555
O24 Si5 1.633515 1_555
