# generated using pymatgen
data_Na6Ca3MnC6(O9F)2
_symmetry_space_group_name_H-M   'P 1'
_cell_length_a   7.09652600
_cell_length_b   8.06451440
_cell_length_c   8.94891545
_cell_angle_alpha   63.32928373
_cell_angle_beta   85.04218784
_cell_angle_gamma   79.01402545
_symmetry_Int_Tables_number   1
_chemical_formula_structural   Na6Ca3MnC6(O9F)2
_chemical_formula_sum   'Na6 Ca3 Mn1 C6 O18 F2'
_cell_volume   449.26753674
_cell_formula_units_Z   1
loop_
 _symmetry_equiv_pos_site_id
 _symmetry_equiv_pos_as_xyz
  1  'x, y, z'
loop_
 _atom_site_type_symbol
 _atom_site_label
 _atom_site_symmetry_multiplicity
 _atom_site_fract_x
 _atom_site_fract_y
 _atom_site_fract_z
 _atom_site_occupancy
  Na  Na0  1  0.51683100  0.40707600  0.34447900  1
  Na  Na1  1  0.68014000  0.05513300  0.77094900  1
  Na  Na2  1  0.18322300  0.04684000  0.78387600  1
  Na  Na3  1  0.01834200  0.75223700  0.65260700  1
  Na  Na4  1  0.68110300  0.83161200  0.21830700  1
  Na  Na5  1  0.18114400  0.82844000  0.22892200  1
  Ca  Ca0  1  0.03017200  0.36865700  0.38105500  1
  Ca  Ca1  1  0.84503800  0.29775700  0.02017700  1
  Ca  Ca2  1  0.34673300  0.32058000  0.97639900  1
  Mn  Mn0  1  0.53493400  0.74906000  0.62229200  1
  C  C0  1  0.99476500  0.67477700  0.00643900  1
  C  C1  1  0.80450900  0.05317900  0.39038100  1
  C  C2  1  0.30798600  0.05977500  0.38808500  1
  C  C3  1  0.49659900  0.67884500  0.98728700  1
  C  C4  1  0.79906500  0.44910200  0.61714700  1
  C  C5  1  0.31327900  0.45136500  0.60994300  1
  O  O0  1  0.97406000  0.66790000  0.15514500  1
  O  O1  1  0.46671500  0.71665100  0.11327900  1
  O  O2  1  0.22864300  0.52408300  0.46609100  1
  O  O3  1  0.90080800  0.28451100  0.65428500  1
  O  O4  1  0.38878000  0.27612800  0.68311200  1
  O  O5  1  0.54562400  0.50402200  0.01079700  1
  O  O6  1  0.80308700  0.23653800  0.31286900  1
  O  O7  1  0.96819100  0.83218400  0.87462000  1
  O  O8  1  0.30498300  0.23247100  0.27297300  1
  O  O9  1  0.71971700  0.98106100  0.53470500  1
  O  O10  1  0.20451800  0.03082800  0.52152700  1
  O  O11  1  0.47772800  0.81387700  0.83417000  1
  O  O12  1  0.89069600  0.95141900  0.32003700  1
  O  O13  1  0.41276700  0.91942700  0.36923900  1
  O  O14  1  0.04359600  0.51512300  0.99406400  1
  O  O15  1  0.78590000  0.52280600  0.72274400  1
  O  O16  1  0.31991700  0.55785900  0.68629700  1
  O  O17  1  0.71022600  0.54485800  0.47507900  1
  F  F0  1  0.13616500  0.13136700  0.00203500  1
  F  F1  1  0.63524000  0.13201000  0.99858500  1
loop_
_geom_bond_atom_site_label_1
_geom_bond_atom_site_label_2
_geom_bond_distance
_geom_bond_site_symmetry_2
Na0 O6 2.298534 1_555
Na0 O1 2.406607 1_555
Na0 O2 2.461508 1_555
Na0 O8 2.536614 1_555
Na0 O17 2.551160 1_555
Na0 O5 2.725683 1_555
Na0 O4 2.853273 1_555
Na1 O4 2.384978 1_555
Na1 O7 2.387789 1_545
Na1 O9 2.423303 1_545
Na1 O3 2.460052 1_555
Na1 O11 2.470898 1_545
Na2 O7 2.348490 1_445
Na2 O4 2.379926 1_555
Na2 O10 2.398913 1_555
Na2 O3 2.444892 1_455
Na2 O11 2.450941 1_545
Na3 O7 2.330211 1_455
Na3 O16 2.353072 1_555
Na3 O9 2.481460 1_455
Na3 O15 2.545600 1_455
Na3 O10 2.582016 1_565
Na3 O14 2.782866 1_555
Na3 O12 2.806764 1_455
Na4 O12 2.354995 1_555
Na4 O1 2.371626 1_555
Na4 O17 2.408346 1_555
Na4 O0 2.409438 1_555
Na4 O13 2.419130 1_555
Na5 O12 2.356528 1_455
Na5 O1 2.401956 1_555
Na5 O2 2.403007 1_555
Na5 O0 2.435562 1_455
Na5 O13 2.541762 1_555
Ca0 O0 2.337204 1_455
Ca0 O6 2.347890 1_455
Ca0 O3 2.375240 1_455
Ca0 O8 2.399220 1_555
Ca0 O2 2.418334 1_555
Ca0 O10 2.538323 1_555
Ca0 O17 2.719522 1_455
Ca1 F1 2.254049 1_554
Ca1 F0 2.275133 1_655
Ca1 O14 2.372699 1_654
Ca1 O5 2.418094 1_555
Ca1 O6 2.439945 1_555
Ca1 O15 2.474020 1_554
Ca2 F0 2.260423 1_556
Ca2 F1 2.270769 1_555
Ca2 O5 2.356943 1_556
Ca2 O8 2.426488 1_556
Ca2 O16 2.434033 1_555
Ca2 O14 2.447792 1_555
Ca2 O4 2.788295 1_555
Mn0 O11 2.170018 1_555
Mn0 O13 2.204478 1_555
Mn0 O15 2.207932 1_555
Mn0 O16 2.233108 1_555
Mn0 O9 2.296824 1_555
C0 O7 1.281183 1_554
C0 O0 1.303317 1_555
C0 O14 1.319622 1_654
C1 O12 1.284418 1_545
C1 O9 1.301207 1_545
C1 O6 1.320051 1_555
C2 O10 1.297373 1_555
C2 O13 1.300512 1_545
C2 O8 1.306063 1_555
C3 O1 1.285222 1_556
C3 O5 1.308601 1_556
C3 O11 1.310696 1_555
C4 O3 1.293755 1_555
C4 O17 1.296827 1_555
C4 O15 1.312563 1_555
C5 O4 1.286196 1_555
C5 O2 1.297505 1_555
C5 O16 1.324560 1_555
F0 Na2 2.320101 1_554
F0 Na5 2.356773 1_545
F1 Na4 2.318369 1_546
F1 Na1 2.362616 1_555
