# generated using pymatgen
data_Na11(WO3)13
_symmetry_space_group_name_H-M   'P 1'
_cell_length_a   6.85860300
_cell_length_b   8.92620072
_cell_length_c   14.30685143
_cell_angle_alpha   75.36292751
_cell_angle_beta   80.77266877
_cell_angle_gamma   74.92010729
_symmetry_Int_Tables_number   1
_chemical_formula_structural   Na11(WO3)13
_chemical_formula_sum   'Na11 W13 O39'
_cell_volume   814.06769703
_cell_formula_units_Z   1
loop_
 _symmetry_equiv_pos_site_id
 _symmetry_equiv_pos_as_xyz
  1  'x, y, z'
loop_
 _atom_site_type_symbol
 _atom_site_label
 _atom_site_symmetry_multiplicity
 _atom_site_fract_x
 _atom_site_fract_y
 _atom_site_fract_z
 _atom_site_occupancy
  Na  Na0  1  0.61594900  0.19256900  0.46112100  1
  Na  Na1  1  0.46131000  0.27057100  0.84616400  1
  Na  Na2  1  0.00000000  0.50000000  0.00000000  1
  Na  Na3  1  0.84710400  0.57654500  0.38401200  1
  Na  Na4  1  0.15289600  0.42345500  0.61598800  1
  Na  Na5  1  0.23181300  0.88430400  0.92269800  1
  Na  Na6  1  0.76818700  0.11569600  0.07730200  1
  Na  Na7  1  0.53869000  0.72942900  0.15383600  1
  Na  Na8  1  0.07670400  0.96254600  0.30812000  1
  Na  Na9  1  0.38405100  0.80743100  0.53887900  1
  Na  Na10  1  0.92329600  0.03745400  0.69188000  1
  W  W0  1  0.65258800  0.42442900  0.61684400  1
  W  W1  1  0.34741200  0.57557100  0.38315600  1
  W  W2  1  0.50000000  0.50000000  0.00000000  1
  W  W3  1  0.42387900  0.03498500  0.69180000  1
  W  W4  1  0.57612100  0.96501500  0.30820000  1
  W  W5  1  0.80721000  0.34641200  0.23019900  1
  W  W6  1  0.96046000  0.27312600  0.84618900  1
  W  W7  1  0.11300900  0.19442600  0.46073600  1
  W  W8  1  0.26813900  0.11697400  0.07827300  1
  W  W9  1  0.88699100  0.80557400  0.53926400  1
  W  W10  1  0.73186100  0.88302600  0.92172700  1
  W  W11  1  0.03954000  0.72687400  0.15381100  1
  W  W12  1  0.19279000  0.65358800  0.76980100  1
  O  O0  1  0.50000000  0.50000000  0.50000000  1
  O  O1  1  0.57185500  0.46852900  0.31217600  1
  O  O2  1  0.65411900  0.42581300  0.10895400  1
  O  O3  1  0.34588100  0.57418700  0.89104600  1
  O  O4  1  0.26358200  0.62482400  0.07758900  1
  O  O5  1  0.42814500  0.53147100  0.68782400  1
  O  O6  1  0.70268800  0.14872800  0.26947000  1
  O  O7  1  0.76655700  0.60901200  0.57468400  1
  O  O8  1  0.53627500  0.23615400  0.65299900  1
  O  O9  1  0.23344300  0.39098800  0.42531600  1
  O  O10  1  0.91326600  0.54377500  0.19157800  1
  O  O11  1  0.08673400  0.45622500  0.80842200  1
  O  O12  1  0.38607600  0.30113000  0.03580400  1
  O  O13  1  0.35379100  0.06798300  0.38460100  1
  O  O14  1  0.19128200  0.15379400  0.76870000  1
  O  O15  1  0.04522000  0.22367000  0.14858800  1
  O  O16  1  0.12264000  0.18936600  0.96217300  1
  O  O17  1  0.73641800  0.37517600  0.92241100  1
  O  O18  1  0.80753600  0.34291500  0.72749800  1
  O  O19  1  0.64620900  0.93201700  0.61539900  1
  O  O20  1  0.57555800  0.96465300  0.81135600  1
  O  O21  1  0.42444200  0.03534700  0.18864400  1
  O  O22  1  0.87743300  0.31010100  0.54043600  1
  O  O23  1  0.50000000  0.00000000  0.00000000  1
  O  O24  1  0.26402500  0.11920900  0.57389800  1
  O  O25  1  0.96297400  0.26894400  0.35072800  1
  O  O26  1  0.29731200  0.85127200  0.73053000  1
  O  O27  1  0.84366500  0.07282000  0.88559800  1
  O  O28  1  0.00000000  0.00000000  0.50000000  1
  O  O29  1  0.61392400  0.69887000  0.96419600  1
  O  O30  1  0.46372500  0.76384600  0.34700100  1
  O  O31  1  0.15633500  0.92718000  0.11440200  1
  O  O32  1  0.12256700  0.68989900  0.45956400  1
  O  O33  1  0.73597500  0.88079100  0.42610200  1
  O  O34  1  0.80871800  0.84620600  0.23130000  1
  O  O35  1  0.95478000  0.77633000  0.85141200  1
  O  O36  1  0.03702600  0.73105600  0.64927200  1
  O  O37  1  0.19246400  0.65708500  0.27250200  1
  O  O38  1  0.87736000  0.81063400  0.03782700  1
loop_
_geom_bond_atom_site_label_1
_geom_bond_atom_site_label_2
_geom_bond_distance
_geom_bond_site_symmetry_2
Na0 O19 2.761407 1_545
Na0 O25 2.778251 1_555
Na0 O28 2.798758 1_655
Na0 O9 2.799389 1_555
Na0 O22 2.799633 1_555
Na0 O1 2.804689 1_555
Na0 O24 2.810263 1_555
Na0 O6 2.814821 1_555
Na0 O8 2.816732 1_555
Na0 O13 2.820491 1_555
Na0 O0 2.822490 1_555
Na0 O33 2.837969 1_545
Na1 O11 2.723108 1_555
Na1 O12 2.748393 1_556
Na1 O16 2.776182 1_555
Na1 O17 2.777342 1_555
Na1 O20 2.787005 1_545
Na1 O5 2.798288 1_555
Na1 O27 2.806022 1_555
Na1 O8 2.808438 1_555
Na1 O18 2.808749 1_555
Na1 O23 2.813335 1_556
Na1 O3 2.825594 1_555
Na1 O14 2.826898 1_555
Na2 O3 2.757855 1_554
Na2 O2 2.757855 1_455
Na2 O15 2.804050 1_555
Na2 O35 2.804050 1_454
Na2 O10 2.813607 1_455
Na2 O11 2.813607 1_554
Na2 O12 2.820422 1_555
Na2 O29 2.820422 1_454
Na2 O4 2.838762 1_555
Na2 O17 2.838762 1_454
Na2 O38 2.843861 1_455
Na2 O16 2.843861 1_554
Na3 O1 2.760418 1_555
Na3 O7 2.768328 1_555
Na3 O30 2.775108 1_555
Na3 O37 2.786968 1_655
Na3 O25 2.793076 1_555
Na3 O10 2.794360 1_555
Na3 O34 2.798849 1_555
Na3 O9 2.799572 1_655
Na3 O0 2.809701 1_555
Na3 O22 2.812471 1_555
Na3 O33 2.814456 1_555
Na3 O32 2.822041 1_655
Na4 O5 2.760418 1_555
Na4 O9 2.768328 1_555
Na4 O8 2.775108 1_555
Na4 O18 2.786968 1_455
Na4 O36 2.793076 1_555
Na4 O11 2.794360 1_555
Na4 O14 2.798849 1_555
Na4 O7 2.799572 1_455
Na4 O0 2.809701 1_555
Na4 O32 2.812471 1_555
Na4 O24 2.814456 1_555
Na4 O22 2.822041 1_455
Na5 O4 2.760626 1_556
Na5 O35 2.765935 1_455
Na5 O29 2.775924 1_555
Na5 O20 2.776369 1_555
Na5 O26 2.791446 1_555
Na5 O27 2.805569 1_465
Na5 O3 2.805873 1_555
Na5 O16 2.806292 1_565
Na5 O14 2.808552 1_565
Na5 O23 2.809098 1_566
Na5 O31 2.812263 1_556
Na5 O38 2.838260 1_456
Na6 O17 2.760626 1_554
Na6 O15 2.765935 1_655
Na6 O12 2.775924 1_555
Na6 O21 2.776369 1_555
Na6 O6 2.791446 1_555
Na6 O31 2.805569 1_645
Na6 O2 2.805873 1_555
Na6 O38 2.806292 1_545
Na6 O34 2.808552 1_545
Na6 O23 2.809098 1_555
Na6 O27 2.812263 1_554
Na6 O16 2.838260 1_654
Na7 O10 2.723108 1_555
Na7 O29 2.748393 1_554
Na7 O38 2.776182 1_555
Na7 O4 2.777342 1_555
Na7 O21 2.787005 1_565
Na7 O1 2.798288 1_555
Na7 O31 2.806022 1_555
Na7 O30 2.808438 1_555
Na7 O37 2.808749 1_555
Na7 O23 2.813335 1_565
Na7 O2 2.825594 1_555
Na7 O34 2.826898 1_555
Na8 O6 2.724020 1_465
Na8 O37 2.787554 1_555
Na8 O13 2.795118 1_565
Na8 O28 2.798894 1_565
Na8 O33 2.800487 1_455
Na8 O32 2.805648 1_555
Na8 O34 2.807572 1_455
Na8 O15 2.810044 1_565
Na8 O31 2.818891 1_555
Na8 O21 2.823106 1_565
Na8 O30 2.833087 1_555
Na8 O25 2.835515 1_465
Na9 O13 2.761407 1_565
Na9 O36 2.778251 1_555
Na9 O28 2.798758 1_565
Na9 O7 2.799389 1_555
Na9 O32 2.799633 1_555
Na9 O5 2.804689 1_555
Na9 O33 2.810263 1_555
Na9 O26 2.814821 1_555
Na9 O30 2.816732 1_555
Na9 O19 2.820491 1_555
Na9 O0 2.822490 1_555
Na9 O24 2.837969 1_565
Na10 O26 2.724020 1_645
Na10 O18 2.787554 1_555
Na10 O19 2.795118 1_545
Na10 O28 2.798894 1_655
Na10 O24 2.800487 1_655
Na10 O22 2.805648 1_555
Na10 O14 2.807572 1_655
Na10 O35 2.810044 1_545
Na10 O27 2.818891 1_555
Na10 O20 2.823106 1_545
Na10 O8 2.833087 1_555
Na10 O36 2.835515 1_645
O0 W0 1.992132 1_555
O0 W1 1.992132 1_555
O1 W1 1.880837 1_555
O1 W5 2.071906 1_555
O2 W2 1.904782 1_555
O2 W5 2.046782 1_555
O3 W2 1.904782 1_556
O3 W12 2.046782 1_555
O4 W11 1.901698 1_555
O4 W2 2.051995 1_555
O5 W0 1.880837 1_555
O5 W12 2.071906 1_555
O6 W4 1.968994 1_545
O6 W5 1.992802 1_555
O7 W0 1.925139 1_555
O7 W9 2.046472 1_555
O8 W0 1.963219 1_555
O8 W3 2.050880 1_555
O9 W1 1.925139 1_555
O9 W7 2.046472 1_555
O10 W11 1.962993 1_655
O10 W5 1.995979 1_555
O11 W6 1.962993 1_455
O11 W12 1.995979 1_555
O12 W8 1.937797 1_555
O12 W2 2.039089 1_555
O13 W4 1.899663 1_545
O13 W7 2.064495 1_555
O14 W6 2.006595 1_455
O14 W3 2.006629 1_555
O15 W8 1.868130 1_555
O15 W5 2.081606 1_455
O16 W8 1.956019 1_556
O16 W6 2.020388 1_455
O17 W6 1.901698 1_555
O17 W2 2.051995 1_556
O18 W0 1.928756 1_555
O18 W6 2.016994 1_555
O19 W3 1.899663 1_565
O19 W9 2.064495 1_555
O20 W10 1.930941 1_555
O20 W3 2.022426 1_565
O21 W8 1.930941 1_555
O21 W4 2.022426 1_545
O22 W0 1.954195 1_555
O22 W7 2.028051 1_655
O23 W10 2.007231 1_544
O23 W8 2.007231 1_555
O24 W7 1.941982 1_555
O24 W3 2.033683 1_555
O25 W7 1.900676 1_655
O25 W5 2.048606 1_555
O26 W3 1.968994 1_565
O26 W12 1.992802 1_555
O27 W10 1.957442 1_545
O27 W6 2.060907 1_555
O28 W7 1.998951 1_555
O28 W9 1.998951 1_445
O29 W10 1.937797 1_555
O29 W2 2.039089 1_556
O30 W1 1.963219 1_555
O30 W4 2.050880 1_555
O31 W8 1.957442 1_565
O31 W11 2.060907 1_555
O32 W1 1.954195 1_555
O32 W9 2.028051 1_455
O33 W9 1.941982 1_555
O33 W4 2.033683 1_555
O34 W11 2.006595 1_655
O34 W4 2.006629 1_555
O35 W10 1.868130 1_555
O35 W12 2.081606 1_655
O36 W9 1.900676 1_455
O36 W12 2.048606 1_555
O37 W1 1.928756 1_555
O37 W11 2.016994 1_555
O38 W10 1.956019 1_554
O38 W11 2.020388 1_655
