# generated using pymatgen
data_Li4Cr5Fe3O16
_symmetry_space_group_name_H-M   'P 1'
_cell_length_a   5.89231964
_cell_length_b   5.89231964
_cell_length_c   9.51771911
_cell_angle_alpha   89.05252652
_cell_angle_beta   89.05252652
_cell_angle_gamma   59.82694238
_symmetry_Int_Tables_number   1
_chemical_formula_structural   Li4Cr5Fe3O16
_chemical_formula_sum   'Li4 Cr5 Fe3 O16'
_cell_volume   285.62556811
_cell_formula_units_Z   1
loop_
 _symmetry_equiv_pos_site_id
 _symmetry_equiv_pos_as_xyz
  1  'x, y, z'
loop_
 _atom_site_type_symbol
 _atom_site_label
 _atom_site_symmetry_multiplicity
 _atom_site_fract_x
 _atom_site_fract_y
 _atom_site_fract_z
 _atom_site_occupancy
  Li  Li0  1  0.66752900  0.66752900  0.10629500  1
  Li  Li1  1  0.99854100  0.99854100  0.00348700  1
  Li  Li2  1  0.99884400  0.99884400  0.50450700  1
  Li  Li3  1  0.33270700  0.33270700  0.60489800  1
  Cr  Cr0  1  0.33575300  0.82998400  0.78968200  1
  Cr  Cr1  1  0.66870900  0.66870900  0.51458100  1
  Cr  Cr2  1  0.82998400  0.33575300  0.78968200  1
  Cr  Cr3  1  0.16782300  0.16782300  0.29209300  1
  Cr  Cr4  1  0.33560600  0.33560600  0.01716500  1
  Fe  Fe0  1  0.82830600  0.82830600  0.78283300  1
  Fe  Fe1  1  0.16807100  0.66040000  0.28505100  1
  Fe  Fe2  1  0.66040000  0.16807100  0.28505100  1
  O  O0  1  0.33156400  0.84594300  0.39718300  1
  O  O1  1  0.52148100  0.52148100  0.66581200  1
  O  O2  1  0.66437300  0.66437300  0.89768100  1
  O  O3  1  0.00141100  0.00141100  0.69029900  1
  O  O4  1  0.00272200  0.00272200  0.18948800  1
  O  O5  1  0.84594300  0.33156400  0.39718300  1
  O  O6  1  0.50907300  0.95960300  0.65939900  1
  O  O7  1  0.95960300  0.50907300  0.65939900  1
  O  O8  1  0.16449100  0.16449100  0.89127500  1
  O  O9  1  0.83605400  0.83605400  0.40143700  1
  O  O10  1  0.04052400  0.47033400  0.16003200  1
  O  O11  1  0.47033400  0.04052400  0.16003200  1
  O  O12  1  0.33208000  0.33208000  0.39773900  1
  O  O13  1  0.17638900  0.67039500  0.89659500  1
  O  O14  1  0.48090600  0.48090600  0.15677500  1
  O  O15  1  0.67039500  0.17638900  0.89659500  1
loop_
_geom_bond_atom_site_label_1
_geom_bond_atom_site_label_2
_geom_bond_distance
_geom_bond_site_symmetry_2
Li0 O14 1.957001 1_555
Li0 O11 1.972940 1_565
Li0 O10 1.972940 1_655
Li0 O2 1.986406 1_554
Li1 O4 1.771635 1_665
Li1 O15 1.965901 1_564
Li1 O13 1.965901 1_654
Li1 O8 1.986205 1_664
Li2 O3 1.769011 1_665
Li2 O9 1.946702 1_555
Li2 O5 1.971632 1_565
Li2 O0 1.971632 1_655
Li3 O7 1.966146 1_455
Li3 O6 1.966146 1_545
Li3 O12 1.971814 1_555
Li3 O1 2.024103 1_555
Cr0 O13 1.904166 1_555
Cr0 O3 1.955967 1_565
Cr0 O8 1.967124 1_565
Cr0 O6 1.968438 1_555
Cr0 O2 1.972679 1_555
Cr0 O1 1.980012 1_555
Cr1 O9 2.002845 1_555
Cr1 O6 2.033982 1_555
Cr1 O7 2.033982 1_555
Cr1 O5 2.057890 1_555
Cr1 O0 2.057890 1_555
Cr1 O1 2.061767 1_555
Cr2 O15 1.904166 1_555
Cr2 O3 1.955967 1_655
Cr2 O8 1.967124 1_655
Cr2 O7 1.968438 1_555
Cr2 O2 1.972679 1_555
Cr2 O1 1.980012 1_555
Cr3 O5 1.912641 1_455
Cr3 O0 1.912641 1_545
Cr3 O4 1.964853 1_555
Cr3 O12 1.972446 1_555
Cr3 O10 1.983135 1_555
Cr3 O11 1.983135 1_555
Cr4 O14 2.010896 1_555
Cr4 O11 2.017999 1_555
Cr4 O10 2.017999 1_555
Cr4 O15 2.046673 1_554
Cr4 O13 2.046673 1_554
Cr4 O8 2.137910 1_554
Fe0 O3 1.960310 1_665
Fe0 O2 1.982181 1_555
Fe0 O7 2.024136 1_555
Fe0 O6 2.024136 1_555
Fe0 O13 2.089627 1_655
Fe0 O15 2.089627 1_565
Fe1 O4 1.959140 1_565
Fe1 O12 1.978162 1_555
Fe1 O14 2.003882 1_555
Fe1 O9 2.014060 1_455
Fe1 O10 2.038294 1_555
Fe1 O0 2.096096 1_555
Fe2 O4 1.959140 1_655
Fe2 O12 1.978162 1_555
Fe2 O14 2.003882 1_555
Fe2 O9 2.014060 1_545
Fe2 O11 2.038294 1_555
Fe2 O5 2.096096 1_555
