# generated using pymatgen
data_Mn3NbCr2(PO4)6
_symmetry_space_group_name_H-M   'P 1'
_cell_length_a   8.56174463
_cell_length_b   8.56174463
_cell_length_c   8.56174436
_cell_angle_alpha   61.57287084
_cell_angle_beta   61.57287084
_cell_angle_gamma   61.57287012
_symmetry_Int_Tables_number   1
_chemical_formula_structural   Mn3NbCr2(PO4)6
_chemical_formula_sum   'Mn3 Nb1 Cr2 P6 O24'
_cell_volume   459.44479062
_cell_formula_units_Z   1
loop_
 _symmetry_equiv_pos_site_id
 _symmetry_equiv_pos_as_xyz
  1  'x, y, z'
loop_
 _atom_site_type_symbol
 _atom_site_label
 _atom_site_symmetry_multiplicity
 _atom_site_fract_x
 _atom_site_fract_y
 _atom_site_fract_z
 _atom_site_occupancy
  Mn  Mn0  1  0.14917800  0.14917800  0.14917800  1
  Mn  Mn1  1  0.35281700  0.35281700  0.35281700  1
  Mn  Mn2  1  0.64654500  0.64654500  0.64654500  1
  Nb  Nb0  1  0.85344500  0.85344500  0.85344500  1
  Cr  Cr0  1  0.00275600  0.00275600  0.00275600  1
  Cr  Cr1  1  0.50150000  0.50150000  0.50150000  1
  P  P0  1  0.44272200  0.74803600  0.05405400  1
  P  P1  1  0.54799500  0.25443700  0.94654000  1
  P  P2  1  0.94654000  0.54799500  0.25443700  1
  P  P3  1  0.25443700  0.94654000  0.54799500  1
  P  P4  1  0.74803600  0.05405400  0.44272200  1
  P  P5  1  0.05405400  0.44272200  0.74803600  1
  O  O0  1  0.32122500  0.09464200  0.51840900  1
  O  O1  1  0.51840900  0.32122500  0.09464200  1
  O  O2  1  0.90415300  0.07000600  0.24677700  1
  O  O3  1  0.09464200  0.51840900  0.32122500  1
  O  O4  1  0.82837700  0.98718500  0.60721600  1
  O  O5  1  0.60364400  0.25034700  0.44655100  1
  O  O6  1  0.07000600  0.24677700  0.90415300  1
  O  O7  1  0.25034700  0.44655100  0.60364400  1
  O  O8  1  0.40257600  0.17492100  0.98868400  1
  O  O9  1  0.44655100  0.60364400  0.25034700  1
  O  O10  1  0.75495200  0.09400400  0.92729900  1
  O  O11  1  0.98868400  0.40257600  0.17492100  1
  O  O12  1  0.98718500  0.60721600  0.82837700  1
  O  O13  1  0.24677700  0.90415300  0.07000600  1
  O  O14  1  0.56718800  0.40146200  0.74419900  1
  O  O15  1  0.60721600  0.82837700  0.98718500  1
  O  O16  1  0.74419900  0.56718800  0.40146200  1
  O  O17  1  0.92729900  0.75495200  0.09400400  1
  O  O18  1  0.40146200  0.74419900  0.56718800  1
  O  O19  1  0.17492100  0.98868400  0.40257600  1
  O  O20  1  0.90281000  0.48569400  0.67765200  1
  O  O21  1  0.09400400  0.92729900  0.75495200  1
  O  O22  1  0.48569400  0.67765200  0.90281000  1
  O  O23  1  0.67765200  0.90281000  0.48569400  1
loop_
_geom_bond_atom_site_label_1
_geom_bond_atom_site_label_2
_geom_bond_distance
_geom_bond_site_symmetry_2
Mn0 O19 1.993040 1_545
Mn0 O11 1.993040 1_455
Mn0 O8 1.993040 1_554
Mn0 O6 2.168936 1_554
Mn0 O13 2.168936 1_545
Mn0 O2 2.168936 1_455
Mn1 O1 2.046861 1_555
Mn1 O3 2.046861 1_555
Mn1 O0 2.046861 1_555
Mn1 O7 2.280857 1_555
Mn1 O5 2.280857 1_555
Mn1 O9 2.280857 1_555
Mn2 O22 2.027760 1_555
Mn2 O20 2.027760 1_555
Mn2 O23 2.027760 1_555
Mn2 O16 2.170228 1_555
Mn2 O18 2.170228 1_555
Mn2 O14 2.170228 1_555
Nb0 O4 1.923548 1_555
Nb0 O12 1.923548 1_555
Nb0 O15 1.923548 1_555
Nb0 O17 2.105132 1_556
Nb0 O10 2.105132 1_565
Nb0 O21 2.105132 1_655
Cr0 O2 2.100576 1_455
Cr0 O13 2.100576 1_545
Cr0 O6 2.100576 1_554
Cr0 O21 2.185273 1_544
Cr0 O10 2.185273 1_454
Cr0 O17 2.185273 1_445
Cr1 O14 2.080199 1_555
Cr1 O18 2.080199 1_555
Cr1 O16 2.080199 1_555
Cr1 O9 2.095472 1_555
Cr1 O5 2.095472 1_555
Cr1 O7 2.095472 1_555
O0 P3 1.498539 1_545
O1 P1 1.498539 1_554
O2 P4 1.562185 1_555
O3 P2 1.498539 1_455
O4 P4 1.601284 1_565
O5 P4 1.545837 1_555
O6 P5 1.562185 1_555
O7 P5 1.545837 1_555
O8 P1 1.513014 1_555
O9 P0 1.545837 1_555
O10 P1 1.635185 1_555
O11 P2 1.513014 1_555
O12 P5 1.601284 1_655
O13 P0 1.562185 1_555
O14 P1 1.569210 1_555
O15 P0 1.601284 1_556
O16 P2 1.569210 1_555
O17 P2 1.635185 1_555
O18 P3 1.569210 1_555
O19 P3 1.513014 1_555
O20 P5 1.501186 1_655
O21 P3 1.635185 1_555
O22 P0 1.501186 1_556
O23 P4 1.501186 1_565
