# generated using pymatgen
data_BaZn3P4(H7O9)2
_symmetry_space_group_name_H-M   'P 1'
_cell_length_a   11.76363855
_cell_length_b   11.76363855
_cell_length_c   15.37476025
_cell_angle_alpha   75.15382289
_cell_angle_beta   75.15382289
_cell_angle_gamma   26.23694615
_symmetry_Int_Tables_number   1
_chemical_formula_structural   BaZn3P4(H7O9)2
_chemical_formula_sum   'Ba2 Zn6 P8 H28 O36'
_cell_volume   907.44665463
_cell_formula_units_Z   2
loop_
 _symmetry_equiv_pos_site_id
 _symmetry_equiv_pos_as_xyz
  1  'x, y, z'
loop_
 _atom_site_type_symbol
 _atom_site_label
 _atom_site_symmetry_multiplicity
 _atom_site_fract_x
 _atom_site_fract_y
 _atom_site_fract_z
 _atom_site_occupancy
  Ba  Ba0  1  0.50965000  0.49035000  0.75000000  1
  Ba  Ba1  1  0.49035000  0.50965000  0.25000000  1
  Zn  Zn0  1  0.50000000  0.50000000  0.50000000  1
  Zn  Zn1  1  0.50000000  0.50000000  0.00000000  1
  Zn  Zn2  1  0.75169100  0.86607500  0.54216500  1
  Zn  Zn3  1  0.13392500  0.24830900  0.95783500  1
  Zn  Zn4  1  0.24830900  0.13392500  0.45783500  1
  Zn  Zn5  1  0.86607500  0.75169100  0.04216500  1
  P  P0  1  0.93251200  0.92365500  0.60167900  1
  P  P1  1  0.07634500  0.06748800  0.89832100  1
  P  P2  1  0.06748800  0.07634500  0.39832100  1
  P  P3  1  0.92365500  0.93251200  0.10167900  1
  P  P4  1  0.79771100  0.71518500  0.37279700  1
  P  P5  1  0.28481500  0.20228900  0.12720300  1
  P  P6  1  0.20228900  0.28481500  0.62720300  1
  P  P7  1  0.71518500  0.79771100  0.87279700  1
  H  H0  1  0.90090300  0.86505000  0.68431500  1
  H  H1  1  0.13495000  0.09909700  0.81568500  1
  H  H2  1  0.09909700  0.13495000  0.31568500  1
  H  H3  1  0.86505000  0.90090300  0.18431500  1
  H  H4  1  0.75842100  0.79536500  0.28009700  1
  H  H5  1  0.20463500  0.24157900  0.21990300  1
  H  H6  1  0.24157900  0.20463500  0.71990300  1
  H  H7  1  0.79536500  0.75842100  0.78009700  1
  H  H8  1  0.74257800  0.46604100  0.52649600  1
  H  H9  1  0.53395900  0.25742200  0.97350400  1
  H  H10  1  0.25742200  0.53395900  0.47350400  1
  H  H11  1  0.46604100  0.74257800  0.02649600  1
  H  H12  1  0.93722400  0.85775300  0.84259300  1
  H  H13  1  0.14224700  0.06277600  0.65740700  1
  H  H14  1  0.06277600  0.14224700  0.15740700  1
  H  H15  1  0.85775300  0.93722400  0.34259300  1
  H  H16  1  0.97996000  0.93786300  0.86801300  1
  H  H17  1  0.06213700  0.02004000  0.63198700  1
  H  H18  1  0.02004000  0.06213700  0.13198700  1
  H  H19  1  0.93786300  0.97996000  0.36801300  1
  H  H20  1  0.34557200  0.33017100  0.81377500  1
  H  H21  1  0.66982900  0.65442800  0.68622500  1
  H  H22  1  0.65442800  0.66982900  0.18622500  1
  H  H23  1  0.33017100  0.34557200  0.31377500  1
  H  H24  1  0.43932500  0.28820600  0.71164200  1
  H  H25  1  0.71179400  0.56067500  0.78835800  1
  H  H26  1  0.56067500  0.71179400  0.28835800  1
  H  H27  1  0.28820600  0.43932500  0.21164200  1
  O  O0  1  0.58954500  0.55703900  0.55718300  1
  O  O1  1  0.44296100  0.41045500  0.94281700  1
  O  O2  1  0.41045500  0.44296100  0.44281700  1
  O  O3  1  0.55703900  0.58954500  0.05718300  1
  O  O4  1  0.19882300  0.74258700  0.59819200  1
  O  O5  1  0.25741300  0.80117700  0.90180800  1
  O  O6  1  0.80117700  0.25741300  0.40180800  1
  O  O7  1  0.74258700  0.19882300  0.09819200  1
  O  O8  1  0.71681900  0.20606500  0.60437200  1
  O  O9  1  0.79393500  0.28318100  0.89562800  1
  O  O10  1  0.28318100  0.79393500  0.39562800  1
  O  O11  1  0.20606500  0.71681900  0.10437200  1
  O  O12  1  0.95761700  0.92449600  0.81646600  1
  O  O13  1  0.07550400  0.04238300  0.68353400  1
  O  O14  1  0.04238300  0.07550400  0.18353400  1
  O  O15  1  0.92449600  0.95761700  0.31646600  1
  O  O16  1  0.36204900  0.38425600  0.76240900  1
  O  O17  1  0.61574400  0.63795100  0.73759100  1
  O  O18  1  0.63795100  0.61574400  0.23759100  1
  O  O19  1  0.38425600  0.36204900  0.26240900  1
  O  O20  1  0.91462500  0.87660100  0.52533300  1
  O  O21  1  0.12339900  0.08537500  0.97466700  1
  O  O22  1  0.08537500  0.12339900  0.47466700  1
  O  O23  1  0.87660100  0.91462500  0.02533300  1
  O  O24  1  0.75721100  0.85691100  0.41457100  1
  O  O25  1  0.14308900  0.24278900  0.08542900  1
  O  O26  1  0.24278900  0.14308900  0.58542900  1
  O  O27  1  0.85691100  0.75721100  0.91457100  1
  O  O28  1  0.92341100  0.57997600  0.62211800  1
  O  O29  1  0.42002400  0.07658900  0.87788200  1
  O  O30  1  0.07658900  0.42002400  0.37788200  1
  O  O31  1  0.57997600  0.92341100  0.12211800  1
  O  O32  1  0.40312300  0.20448600  0.59025800  1
  O  O33  1  0.79551400  0.59687700  0.90974200  1
  O  O34  1  0.59687700  0.79551400  0.40974200  1
  O  O35  1  0.20448600  0.40312300  0.09025800  1
loop_
_geom_bond_atom_site_label_1
_geom_bond_atom_site_label_2
_geom_bond_distance
_geom_bond_site_symmetry_2
Ba0 O17 2.864368 1_555
Ba0 O16 2.864368 1_555
Ba0 O9 2.925108 1_555
Ba0 O8 2.925108 1_555
Ba0 O5 2.997098 1_555
Ba0 O4 2.997098 1_555
Ba0 O1 2.998375 1_555
Ba0 O0 2.998375 1_555
Ba0 O13 3.012480 1_565
Ba0 O12 3.012480 1_455
Ba0 O12 3.077195 1_545
Ba0 O13 3.077195 1_655
Ba1 O18 2.864368 1_555
Ba1 O19 2.864368 1_555
Ba1 O10 2.925108 1_555
Ba1 O11 2.925108 1_555
Ba1 O6 2.997098 1_555
Ba1 O7 2.997098 1_555
Ba1 O2 2.998375 1_555
Ba1 O3 2.998375 1_555
Ba1 O14 3.012480 1_655
Ba1 O15 3.012480 1_545
Ba1 O15 3.077195 1_455
Ba1 O14 3.077195 1_565
H0 P0 1.413034 1_555
H1 P1 1.413034 1_555
H2 P2 1.413034 1_555
H3 P3 1.413034 1_555
H4 P4 1.414637 1_555
H5 P5 1.414637 1_555
H6 P6 1.414637 1_555
H7 P7 1.414637 1_555
H8 O0 0.987820 1_555
H9 O1 0.987820 1_555
H10 O2 0.987820 1_555
H11 O3 0.987820 1_555
H12 O12 0.980941 1_555
H13 O13 0.980941 1_555
H14 O14 0.980941 1_555
H15 O15 0.980941 1_555
H16 O12 0.983183 1_555
H17 O13 0.983183 1_555
H18 O14 0.983183 1_555
H19 O15 0.983183 1_555
H20 O16 0.975376 1_555
H21 O17 0.975376 1_555
H22 O18 0.975376 1_555
H23 O19 0.975376 1_555
H24 O16 0.978766 1_555
H25 O17 0.978766 1_555
H26 O18 0.978766 1_555
H27 O19 0.978766 1_555
O0 Zn0 2.092275 1_555
O1 Zn1 2.092275 1_556
O2 Zn0 2.092275 1_555
O3 Zn1 2.092275 1_555
O4 P0 1.534874 1_455
O4 Zn0 2.074670 1_555
O5 P1 1.534874 1_565
O5 Zn1 2.074670 1_556
O6 P2 1.534874 1_655
O6 Zn0 2.074670 1_555
O7 P3 1.534874 1_545
O7 Zn1 2.074670 1_555
O8 P0 1.539885 1_545
O8 Zn0 2.114058 1_555
O9 P1 1.539885 1_655
O9 Zn1 2.114058 1_556
O10 P2 1.539885 1_565
O10 Zn0 2.114058 1_555
O11 P3 1.539885 1_455
O11 Zn1 2.114058 1_555
O20 P0 1.548206 1_555
O20 Zn2 1.977672 1_555
O21 P1 1.548206 1_555
O21 Zn3 1.977672 1_555
O22 P2 1.548206 1_555
O22 Zn4 1.977672 1_555
O23 P3 1.548206 1_555
O23 Zn5 1.977672 1_555
O24 P4 1.544690 1_555
O24 Zn2 1.973511 1_555
O25 P5 1.544690 1_555
O25 Zn3 1.973511 1_554
O26 P6 1.544690 1_555
O26 Zn4 1.973511 1_555
O27 P7 1.544690 1_555
O27 Zn5 1.973511 1_556
O28 P6 1.543454 1_655
O28 Zn2 1.968445 1_555
O29 P7 1.543454 1_545
O29 Zn3 1.968445 1_555
O30 P4 1.543454 1_455
O30 Zn4 1.968445 1_555
O31 P5 1.543454 1_565
O31 Zn5 1.968445 1_555
O32 P6 1.542581 1_555
O32 Zn2 1.969585 1_545
O33 P7 1.542581 1_555
O33 Zn3 1.969585 1_655
O34 P4 1.542581 1_555
O34 Zn4 1.969585 1_565
O35 P5 1.542581 1_555
O35 Zn5 1.969585 1_455
