# generated using pymatgen
data_SrLaCl5
_symmetry_space_group_name_H-M   'P 1'
_cell_length_a   9.26424100
_cell_length_b   12.66715600
_cell_length_c   18.26317520
_cell_angle_alpha   49.39066351
_cell_angle_beta   90.00000000
_cell_angle_gamma   90.00000000
_symmetry_Int_Tables_number   1
_chemical_formula_structural   SrLaCl5
_chemical_formula_sum   'Sr8 La8 Cl40'
_cell_volume   1627.05251389
_cell_formula_units_Z   8
loop_
 _symmetry_equiv_pos_site_id
 _symmetry_equiv_pos_as_xyz
  1  'x, y, z'
loop_
 _atom_site_type_symbol
 _atom_site_label
 _atom_site_symmetry_multiplicity
 _atom_site_fract_x
 _atom_site_fract_y
 _atom_site_fract_z
 _atom_site_occupancy
  Sr  Sr0  1  0.75536800  0.92558100  0.23120000  1
  Sr  Sr1  1  0.75385700  0.23548000  0.28277700  1
  Sr  Sr2  1  0.25536800  0.07441900  0.26880000  1
  Sr  Sr3  1  0.25385700  0.76452000  0.21722300  1
  Sr  Sr4  1  0.74614300  0.23548000  0.78277700  1
  Sr  Sr5  1  0.74463200  0.92558100  0.73120000  1
  Sr  Sr6  1  0.24614300  0.76452000  0.71722300  1
  Sr  Sr7  1  0.24463200  0.07441900  0.76880000  1
  La  La0  1  0.25283500  0.21779700  0.97542900  1
  La  La1  1  0.25490800  0.54029500  0.09671600  1
  La  La2  1  0.75490800  0.45970500  0.40328400  1
  La  La3  1  0.75283500  0.78220300  0.52457100  1
  La  La4  1  0.24716500  0.21779700  0.47542900  1
  La  La5  1  0.24509200  0.54029500  0.59671600  1
  La  La6  1  0.74509200  0.45970500  0.90328400  1
  La  La7  1  0.74716500  0.78220300  0.02457100  1
  Cl  Cl0  1  0.27275700  0.36268600  0.04066700  1
  Cl  Cl1  1  0.74421000  0.25129700  0.10767200  1
  Cl  Cl2  1  0.76346100  0.96869200  0.05127400  1
  Cl  Cl3  1  0.42960100  0.01475100  0.15026000  1
  Cl  Cl4  1  0.04584100  0.71807800  0.07753400  1
  Cl  Cl5  1  0.44236200  0.72932600  0.08409900  1
  Cl  Cl6  1  0.07862200  0.01925500  0.15400700  1
  Cl  Cl7  1  0.45286400  0.32223400  0.21330600  1
  Cl  Cl8  1  0.05074800  0.32537800  0.20064900  1
  Cl  Cl9  1  0.74381300  0.52011400  0.21408600  1
  Cl  Cl10  1  0.57862200  0.98074500  0.34599300  1
  Cl  Cl11  1  0.24381300  0.47988600  0.28591400  1
  Cl  Cl12  1  0.55074800  0.67462200  0.29935100  1
  Cl  Cl13  1  0.95286400  0.67776600  0.28669400  1
  Cl  Cl14  1  0.92960100  0.98524900  0.34974000  1
  Cl  Cl15  1  0.24421000  0.74870300  0.39232800  1
  Cl  Cl16  1  0.94236200  0.27067400  0.41590100  1
  Cl  Cl17  1  0.54584100  0.28192200  0.42246600  1
  Cl  Cl18  1  0.77275700  0.63731400  0.45933300  1
  Cl  Cl19  1  0.26346100  0.03130800  0.44872600  1
  Cl  Cl20  1  0.73653900  0.96869200  0.55127400  1
  Cl  Cl21  1  0.22724300  0.36268600  0.54066700  1
  Cl  Cl22  1  0.45415900  0.71807800  0.57753400  1
  Cl  Cl23  1  0.05763800  0.72932600  0.58409900  1
  Cl  Cl24  1  0.75579000  0.25129700  0.60767200  1
  Cl  Cl25  1  0.07039900  0.01475100  0.65026000  1
  Cl  Cl26  1  0.04713600  0.32223400  0.71330600  1
  Cl  Cl27  1  0.44925200  0.32537800  0.70064900  1
  Cl  Cl28  1  0.75618700  0.52011400  0.71408600  1
  Cl  Cl29  1  0.42137800  0.01925500  0.65400700  1
  Cl  Cl30  1  0.25618700  0.47988600  0.78591400  1
  Cl  Cl31  1  0.94925200  0.67462200  0.79935100  1
  Cl  Cl32  1  0.54713600  0.67776600  0.78669400  1
  Cl  Cl33  1  0.92137800  0.98074500  0.84599300  1
  Cl  Cl34  1  0.55763800  0.27067400  0.91590100  1
  Cl  Cl35  1  0.95415900  0.28192200  0.92246600  1
  Cl  Cl36  1  0.57039900  0.98524900  0.84974000  1
  Cl  Cl37  1  0.23653900  0.03130800  0.94872600  1
  Cl  Cl38  1  0.25579000  0.74870300  0.89232800  1
  Cl  Cl39  1  0.72724300  0.63731400  0.95933300  1
loop_
_geom_bond_atom_site_label_1
_geom_bond_atom_site_label_2
_geom_bond_distance
_geom_bond_site_symmetry_2
Cl0 La0 2.769245 1_554
Cl0 La1 3.022378 1_555
Cl0 Sr2 3.303550 1_555
Cl1 La6 2.841595 1_554
Cl1 Sr1 3.072630 1_555
Cl1 Sr0 3.163239 1_545
Cl2 La7 2.709380 1_555
Cl2 Sr0 2.960697 1_555
Cl3 La0 2.966687 1_554
Cl3 Sr3 3.024438 1_545
Cl3 Sr2 3.161280 1_555
Cl3 Sr0 3.224221 1_545
Cl4 La1 2.814001 1_555
Cl4 La7 2.868610 1_455
Cl4 Sr3 3.538649 1_555
Cl5 La1 2.843278 1_555
Cl5 La7 2.942157 1_555
Cl5 Sr3 3.251238 1_555
Cl6 La0 2.981424 1_554
Cl6 Sr2 3.077620 1_555
Cl6 Sr3 3.087193 1_545
Cl6 Sr0 3.191558 1_445
Cl7 La1 2.805416 1_555
Cl7 Sr1 2.962753 1_555
Cl7 Sr2 3.176032 1_555
Cl8 La1 2.804404 1_555
Cl8 Sr1 2.981289 1_455
Cl8 Sr2 3.177657 1_555
Cl9 La7 2.836157 1_555
Cl9 Sr1 2.948540 1_555
Cl9 La2 3.015552 1_555
Cl10 La3 2.981424 1_555
Cl10 Sr0 3.077620 1_555
Cl10 Sr1 3.087193 1_565
Cl10 Sr2 3.191558 1_565
Cl11 La4 2.836157 1_555
Cl11 Sr3 2.948540 1_555
Cl11 La1 3.015552 1_555
Cl12 La2 2.804404 1_555
Cl12 Sr3 2.981289 1_555
Cl12 Sr0 3.177657 1_555
Cl13 La2 2.805416 1_555
Cl13 Sr3 2.962753 1_655
Cl13 Sr0 3.176032 1_555
Cl14 La3 2.966687 1_555
Cl14 Sr1 3.024438 1_565
Cl14 Sr0 3.161280 1_555
Cl14 Sr2 3.224221 1_665
Cl15 La5 2.841595 1_555
Cl15 Sr3 3.072630 1_555
Cl15 Sr2 3.163239 1_565
Cl16 La2 2.843278 1_555
Cl16 La4 2.942157 1_655
Cl16 Sr1 3.251238 1_555
Cl17 La2 2.814001 1_555
Cl17 La4 2.868610 1_555
Cl17 Sr1 3.538649 1_555
Cl18 La3 2.769245 1_555
Cl18 La2 3.022378 1_555
Cl18 Sr0 3.303550 1_555
Cl19 La4 2.709380 1_555
Cl19 Sr2 2.960697 1_555
Cl20 La3 2.709380 1_555
Cl20 Sr5 2.960697 1_555
Cl21 La4 2.769245 1_555
Cl21 La5 3.022378 1_555
Cl21 Sr7 3.303550 1_555
Cl22 La5 2.814001 1_555
Cl22 La3 2.868610 1_555
Cl22 Sr6 3.538649 1_555
Cl23 La5 2.843278 1_555
Cl23 La3 2.942157 1_455
Cl23 Sr6 3.251238 1_555
Cl24 La2 2.841595 1_555
Cl24 Sr4 3.072630 1_555
Cl24 Sr5 3.163239 1_545
Cl25 La4 2.966687 1_555
Cl25 Sr6 3.024438 1_545
Cl25 Sr7 3.161280 1_555
Cl25 Sr5 3.224221 1_445
Cl26 La5 2.805416 1_555
Cl26 Sr4 2.962753 1_455
Cl26 Sr7 3.176032 1_555
Cl27 La5 2.804404 1_555
Cl27 Sr4 2.981289 1_555
Cl27 Sr7 3.177657 1_555
Cl28 La3 2.836157 1_555
Cl28 Sr4 2.948540 1_555
Cl28 La6 3.015552 1_555
Cl29 La4 2.981424 1_555
Cl29 Sr7 3.077620 1_555
Cl29 Sr6 3.087193 1_545
Cl29 Sr5 3.191558 1_545
Cl30 La0 2.836157 1_555
Cl30 Sr6 2.948540 1_555
Cl30 La5 3.015552 1_555
Cl31 La6 2.804404 1_555
Cl31 Sr6 2.981289 1_655
Cl31 Sr5 3.177657 1_555
Cl32 La6 2.805416 1_555
Cl32 Sr6 2.962753 1_555
Cl32 Sr5 3.176032 1_555
Cl33 La7 2.981424 1_556
Cl33 Sr5 3.077620 1_555
Cl33 Sr4 3.087193 1_565
Cl33 Sr7 3.191558 1_665
Cl34 La6 2.843278 1_555
Cl34 La0 2.942157 1_555
Cl34 Sr4 3.251238 1_555
Cl35 La6 2.814001 1_555
Cl35 La0 2.868610 1_655
Cl35 Sr4 3.538649 1_555
Cl36 La7 2.966687 1_556
Cl36 Sr4 3.024438 1_565
Cl36 Sr5 3.161280 1_555
Cl36 Sr7 3.224221 1_565
Cl37 La0 2.709380 1_555
Cl37 Sr7 2.960697 1_555
Cl38 La1 2.841595 1_556
Cl38 Sr6 3.072630 1_555
Cl38 Sr7 3.163239 1_565
Cl39 La7 2.769245 1_556
Cl39 La6 3.022378 1_555
Cl39 Sr5 3.303550 1_555
