# generated using pymatgen
data_Na3Li3Mn2P2(CO7)2
_symmetry_space_group_name_H-M   'P 1'
_cell_length_a   8.48700299
_cell_length_b   8.81192174
_cell_length_c   8.54127931
_cell_angle_alpha   86.63159801
_cell_angle_beta   106.10865594
_cell_angle_gamma   89.52781593
_symmetry_Int_Tables_number   1
_chemical_formula_structural   Na3Li3Mn2P2(CO7)2
_chemical_formula_sum   'Na6 Li6 Mn4 P4 C4 O28'
_cell_volume   612.43407081
_cell_formula_units_Z   2
loop_
 _symmetry_equiv_pos_site_id
 _symmetry_equiv_pos_as_xyz
  1  'x, y, z'
loop_
 _atom_site_type_symbol
 _atom_site_label
 _atom_site_symmetry_multiplicity
 _atom_site_fract_x
 _atom_site_fract_y
 _atom_site_fract_z
 _atom_site_occupancy
  Na  Na0  1  0.12694800  0.25365500  0.13638500  1
  Na  Na1  1  0.62691000  0.25356000  0.63627900  1
  Na  Na2  1  0.88046300  0.25040800  0.38068600  1
  Na  Na3  1  0.38055200  0.25034200  0.88067300  1
  Na  Na4  1  0.12017200  0.75482200  0.61529400  1
  Na  Na5  1  0.62019100  0.75490900  0.11529300  1
  Li  Li0  1  0.27225600  0.10383400  0.50769600  1
  Li  Li1  1  0.77225200  0.10385600  0.00776200  1
  Li  Li2  1  0.88859200  0.72384500  0.85492700  1
  Li  Li3  1  0.38864100  0.72397400  0.35496000  1
  Li  Li4  1  0.72583500  0.89731500  0.50797200  1
  Li  Li5  1  0.22582500  0.89738500  0.00795500  1
  Mn  Mn0  1  0.50985100  0.36080300  0.26388300  1
  Mn  Mn1  1  0.98725300  0.64548800  0.22473700  1
  Mn  Mn2  1  0.00962800  0.36063700  0.76382300  1
  Mn  Mn3  1  0.48734800  0.64540400  0.72468700  1
  P  P0  1  0.23341600  0.41242200  0.48098700  1
  P  P1  1  0.73351500  0.41240000  0.98100800  1
  P  P2  1  0.76116000  0.59427000  0.50854000  1
  P  P3  1  0.26109000  0.59431900  0.00846700  1
  C  C0  1  0.97593500  0.04194100  0.74241300  1
  C  C1  1  0.47597100  0.04199800  0.24240400  1
  C  C2  1  0.02826500  0.95223000  0.27315500  1
  C  C3  1  0.52827500  0.95221700  0.77315600  1
  O  O0  1  0.06967900  0.08430400  0.32922400  1
  O  O1  1  0.56969100  0.08426900  0.82922600  1
  O  O2  1  0.10054600  0.06466700  0.86584900  1
  O  O3  1  0.60057600  0.06466300  0.36586800  1
  O  O4  1  0.89472800  0.15889200  0.65418800  1
  O  O5  1  0.39478500  0.15895500  0.15422800  1
  O  O6  1  0.36713300  0.30962100  0.44220400  1
  O  O7  1  0.86734700  0.30963800  0.94233900  1
  O  O8  1  0.18359600  0.32344600  0.62185100  1
  O  O9  1  0.68363000  0.32351000  0.12186600  1
  O  O10  1  0.08234400  0.42985400  0.32713600  1
  O  O11  1  0.58254000  0.42974200  0.82709400  1
  O  O12  1  0.70817100  0.43184900  0.45863100  1
  O  O13  1  0.20817600  0.43185100  0.95862900  1
  O  O14  1  0.29573300  0.57398700  0.52505800  1
  O  O15  1  0.79572400  0.57399800  0.02505700  1
  O  O16  1  0.90154000  0.57842300  0.67327200  1
  O  O17  1  0.40154900  0.57853000  0.17321800  1
  O  O18  1  0.82208200  0.68638500  0.37740000  1
  O  O19  1  0.32203200  0.68642500  0.87730500  1
  O  O20  1  0.61642800  0.69178100  0.53353300  1
  O  O21  1  0.11619700  0.69175600  0.03335000  1
  O  O22  1  0.11962900  0.83301300  0.34173100  1
  O  O23  1  0.61960000  0.83298200  0.84170800  1
  O  O24  1  0.89972800  0.93664100  0.15134400  1
  O  O25  1  0.39971500  0.93665300  0.65131100  1
  O  O26  1  0.92836500  0.90603100  0.70210100  1
  O  O27  1  0.42839600  0.90610200  0.20213400  1
loop_
_geom_bond_atom_site_label_1
_geom_bond_atom_site_label_2
_geom_bond_distance
_geom_bond_site_symmetry_2
Na0 O0 2.311599 1_555
Na0 O13 2.358931 1_554
Na0 O5 2.376612 1_555
Na0 O7 2.388351 1_454
Na0 O10 2.416266 1_555
Na1 O1 2.311780 1_555
Na1 O12 2.358949 1_555
Na1 O4 2.376240 1_555
Na1 O6 2.389653 1_555
Na1 O11 2.415906 1_555
Na2 O0 2.311495 1_655
Na2 O4 2.396294 1_555
Na2 O12 2.400924 1_555
Na2 O9 2.420377 1_555
Na2 O10 2.457591 1_655
Na2 O3 2.873876 1_555
Na2 O8 2.918618 1_655
Na3 O1 2.310782 1_555
Na3 O5 2.396464 1_556
Na3 O13 2.401860 1_555
Na3 O8 2.420846 1_555
Na3 O11 2.458102 1_555
Na3 O2 2.874339 1_555
Na3 O9 2.918719 1_556
Na4 O26 2.392740 1_455
Na4 O22 2.395651 1_555
Na4 O19 2.450193 1_555
Na4 O14 2.468965 1_555
Na4 O16 2.563476 1_455
Na4 O25 2.829520 1_555
Na4 O18 2.865185 1_455
Na5 O27 2.392736 1_555
Na5 O23 2.395481 1_554
Na5 O18 2.451097 1_555
Na5 O15 2.469244 1_555
Na5 O17 2.563274 1_555
Na5 O24 2.828947 1_555
Na5 O19 2.866078 1_554
Li0 O25 1.967276 1_545
Li0 O0 1.972461 1_555
Li0 O6 2.098679 1_555
Li0 O8 2.422137 1_555
Li1 O24 1.967421 1_545
Li1 O1 1.972735 1_554
Li1 O7 2.099312 1_554
Li1 O9 2.422073 1_555
Li2 O16 2.094630 1_555
Li2 O26 2.098177 1_555
Li2 O21 2.107272 1_656
Li2 O15 2.214405 1_556
Li2 O23 2.440787 1_555
Li3 O17 2.095259 1_555
Li3 O27 2.097753 1_555
Li3 O20 2.109045 1_555
Li3 O14 2.215084 1_555
Li3 O22 2.440592 1_555
Li4 O3 1.955951 1_565
Li4 O26 2.036008 1_555
Li4 O20 2.069748 1_555
Li4 O18 2.467769 1_555
Li5 O2 1.955606 1_564
Li5 O27 2.036472 1_555
Li5 O21 2.071136 1_555
Li5 O19 2.468213 1_554
Mn0 O17 2.127650 1_555
Mn0 O12 2.139606 1_555
Mn0 O5 2.170573 1_555
Mn0 O9 2.187742 1_555
Mn0 O6 2.223141 1_555
Mn1 O10 2.101090 1_655
Mn1 O15 2.133693 1_555
Mn1 O22 2.143133 1_655
Mn1 O18 2.203725 1_555
Mn1 O21 2.226607 1_655
Mn2 O16 2.127333 1_455
Mn2 O13 2.141512 1_555
Mn2 O4 2.169268 1_455
Mn2 O8 2.188621 1_555
Mn2 O7 2.221515 1_455
Mn3 O11 2.101548 1_555
Mn3 O14 2.133601 1_555
Mn3 O23 2.143170 1_555
Mn3 O19 2.204620 1_555
Mn3 O20 2.225839 1_555
C0 O2 1.296026 1_655
C0 O26 1.301979 1_545
C0 O4 1.309100 1_555
C1 O3 1.296026 1_555
C1 O27 1.301791 1_545
C1 O5 1.308915 1_555
C2 O24 1.296470 1_455
C2 O0 1.298540 1_565
C2 O22 1.307739 1_555
C3 O25 1.296723 1_555
C3 O1 1.298368 1_565
C3 O23 1.307660 1_555
O6 P0 1.563703 1_555
O7 P1 1.563828 1_555
O8 P0 1.554997 1_555
O9 P1 1.554876 1_554
O10 P0 1.559614 1_555
O11 P1 1.559425 1_555
O12 P2 1.551883 1_555
O13 P3 1.551981 1_556
O14 P0 1.553461 1_555
O15 P1 1.553437 1_554
O16 P2 1.569266 1_555
O17 P3 1.569703 1_555
O18 P2 1.549934 1_555
O19 P3 1.550134 1_556
O20 P2 1.562814 1_555
O21 P3 1.563211 1_555
