# generated using pymatgen
data_NaMn8O16
_symmetry_space_group_name_H-M   'P 1'
_cell_length_a   5.92428900
_cell_length_b   8.37996200
_cell_length_c   11.85828700
_cell_angle_alpha   90.00000000
_cell_angle_beta   90.00000000
_cell_angle_gamma   90.00000000
_symmetry_Int_Tables_number   1
_chemical_formula_structural   NaMn8O16
_chemical_formula_sum   'Na2 Mn16 O32'
_cell_volume   588.70841360
_cell_formula_units_Z   2
loop_
 _symmetry_equiv_pos_site_id
 _symmetry_equiv_pos_as_xyz
  1  'x, y, z'
loop_
 _atom_site_type_symbol
 _atom_site_label
 _atom_site_symmetry_multiplicity
 _atom_site_fract_x
 _atom_site_fract_y
 _atom_site_fract_z
 _atom_site_occupancy
  Na  Na0  1  0.50000000  0.37425500  0.00000000  1
  Na  Na1  1  0.00000000  0.62574500  0.50000000  1
  Mn  Mn0  1  0.24729100  0.99508700  0.00000000  1
  Mn  Mn1  1  0.25270900  0.00491300  0.50000000  1
  Mn  Mn2  1  0.75270900  0.99508700  0.00000000  1
  Mn  Mn3  1  0.74729100  0.00491300  0.50000000  1
  Mn  Mn4  1  0.00000000  0.24517400  0.37378800  1
  Mn  Mn5  1  0.00000000  0.24529300  0.87261700  1
  Mn  Mn6  1  0.00000000  0.24529300  0.12738300  1
  Mn  Mn7  1  0.00000000  0.24517400  0.62621200  1
  Mn  Mn8  1  0.75000000  0.50000000  0.75000000  1
  Mn  Mn9  1  0.25000000  0.50000000  0.25000000  1
  Mn  Mn10  1  0.75000000  0.50000000  0.25000000  1
  Mn  Mn11  1  0.25000000  0.50000000  0.75000000  1
  Mn  Mn12  1  0.50000000  0.75482600  0.87378800  1
  Mn  Mn13  1  0.50000000  0.75482600  0.12621200  1
  Mn  Mn14  1  0.50000000  0.75470700  0.62738300  1
  Mn  Mn15  1  0.50000000  0.75470700  0.37261700  1
  O  O0  1  0.00000000  0.01534400  0.39211600  1
  O  O1  1  0.00000000  0.01067200  0.89104200  1
  O  O2  1  0.00000000  0.01067200  0.10895800  1
  O  O3  1  0.00000000  0.01534400  0.60788400  1
  O  O4  1  0.78432800  0.23510100  0.50000000  1
  O  O5  1  0.78848800  0.22612500  0.00000000  1
  O  O6  1  0.21567200  0.23510100  0.50000000  1
  O  O7  1  0.21151200  0.22612500  0.00000000  1
  O  O8  1  0.78144300  0.26398900  0.24870300  1
  O  O9  1  0.21855700  0.26398900  0.75129700  1
  O  O10  1  0.78144300  0.26398900  0.75129700  1
  O  O11  1  0.21855700  0.26398900  0.24870300  1
  O  O12  1  0.00000000  0.47808700  0.64429900  1
  O  O13  1  0.00000000  0.47808700  0.35570100  1
  O  O14  1  0.00000000  0.48007600  0.14029800  1
  O  O15  1  0.00000000  0.48007600  0.85970200  1
  O  O16  1  0.50000000  0.52191300  0.85570100  1
  O  O17  1  0.50000000  0.51992400  0.35970200  1
  O  O18  1  0.50000000  0.52191300  0.14429900  1
  O  O19  1  0.50000000  0.51992400  0.64029800  1
  O  O20  1  0.28144300  0.73601100  0.25129700  1
  O  O21  1  0.71855700  0.73601100  0.74870300  1
  O  O22  1  0.28144300  0.73601100  0.74870300  1
  O  O23  1  0.71855700  0.73601100  0.25129700  1
  O  O24  1  0.28848800  0.77387500  0.50000000  1
  O  O25  1  0.28432800  0.76489900  0.00000000  1
  O  O26  1  0.71567200  0.76489900  0.00000000  1
  O  O27  1  0.71151200  0.77387500  0.50000000  1
  O  O28  1  0.50000000  0.98465600  0.89211600  1
  O  O29  1  0.50000000  0.98465600  0.10788400  1
  O  O30  1  0.50000000  0.98932800  0.60895800  1
  O  O31  1  0.50000000  0.98932800  0.39104200  1
loop_
_geom_bond_atom_site_label_1
_geom_bond_atom_site_label_2
_geom_bond_distance
_geom_bond_site_symmetry_2
Na0 O16 2.111653 1_554
Na0 O18 2.111653 1_555
Na0 O7 2.112312 1_555
Na0 O5 2.112312 1_555
Na1 O12 2.111653 1_555
Na1 O13 2.111653 1_555
Na1 O24 2.112312 1_555
Na1 O27 2.112312 1_455
Mn0 O25 1.941406 1_555
Mn0 O7 1.947658 1_565
Mn0 O1 1.957743 1_564
Mn0 O2 1.957743 1_565
Mn0 O28 1.971210 1_554
Mn0 O29 1.971210 1_555
Mn1 O6 1.941406 1_555
Mn1 O24 1.947658 1_545
Mn1 O31 1.957743 1_545
Mn1 O30 1.957743 1_545
Mn1 O3 1.971210 1_555
Mn1 O0 1.971210 1_555
Mn2 O26 1.941406 1_555
Mn2 O5 1.947658 1_565
Mn2 O1 1.957743 1_664
Mn2 O2 1.957743 1_665
Mn2 O28 1.971210 1_554
Mn2 O29 1.971210 1_555
Mn3 O4 1.941406 1_555
Mn3 O27 1.947658 1_545
Mn3 O30 1.957743 1_545
Mn3 O31 1.957743 1_545
Mn3 O0 1.971210 1_655
Mn3 O3 1.971210 1_655
Mn4 O0 1.938191 1_555
Mn4 O13 1.963551 1_555
Mn4 O4 1.969679 1_455
Mn4 O6 1.969679 1_555
Mn4 O8 1.975225 1_455
Mn4 O11 1.975225 1_555
Mn5 O9 1.941841 1_555
Mn5 O10 1.941841 1_455
Mn5 O7 1.969188 1_556
Mn5 O5 1.969188 1_456
Mn5 O15 1.973424 1_555
Mn5 O1 1.978218 1_555
Mn6 O8 1.941841 1_455
Mn6 O11 1.941841 1_555
Mn6 O7 1.969188 1_555
Mn6 O5 1.969188 1_455
Mn6 O14 1.973424 1_555
Mn6 O2 1.978218 1_555
Mn7 O3 1.938191 1_555
Mn7 O12 1.963551 1_555
Mn7 O4 1.969679 1_455
Mn7 O6 1.969679 1_555
Mn7 O9 1.975225 1_555
Mn7 O10 1.975225 1_455
Mn8 O16 1.948946 1_555
Mn8 O12 1.948946 1_655
Mn8 O15 1.978316 1_655
Mn8 O19 1.978316 1_555
Mn8 O21 1.986576 1_555
Mn8 O10 1.986576 1_555
Mn9 O18 1.948946 1_555
Mn9 O13 1.948946 1_555
Mn9 O14 1.978316 1_555
Mn9 O17 1.978316 1_555
Mn9 O20 1.986576 1_555
Mn9 O11 1.986576 1_555
Mn10 O18 1.948946 1_555
Mn10 O13 1.948946 1_655
Mn10 O14 1.978316 1_655
Mn10 O17 1.978316 1_555
Mn10 O23 1.986576 1_555
Mn10 O8 1.986576 1_555
Mn11 O12 1.948946 1_555
Mn11 O16 1.948946 1_555
Mn11 O15 1.978316 1_555
Mn11 O19 1.978316 1_555
Mn11 O22 1.986576 1_555
Mn11 O9 1.986576 1_555
Mn12 O28 1.938191 1_555
Mn12 O16 1.963551 1_555
Mn12 O25 1.969679 1_556
Mn12 O26 1.969679 1_556
Mn12 O21 1.975225 1_555
Mn12 O22 1.975225 1_555
Mn13 O29 1.938191 1_555
Mn13 O18 1.963551 1_555
Mn13 O26 1.969679 1_555
Mn13 O25 1.969679 1_555
Mn13 O23 1.975225 1_555
Mn13 O20 1.975225 1_555
Mn14 O21 1.941841 1_555
Mn14 O22 1.941841 1_555
Mn14 O24 1.969188 1_555
Mn14 O27 1.969188 1_555
Mn14 O19 1.973424 1_555
Mn14 O30 1.978218 1_555
Mn15 O23 1.941841 1_555
Mn15 O20 1.941841 1_555
Mn15 O24 1.969188 1_555
Mn15 O27 1.969188 1_555
Mn15 O17 1.973424 1_555
Mn15 O31 1.978218 1_555
