# generated using pymatgen
data_Li4Cr3Co2Sb3O16
_symmetry_space_group_name_H-M   'P 1'
_cell_length_a   6.09590917
_cell_length_b   6.09590917
_cell_length_c   9.85675949
_cell_angle_alpha   89.66128674
_cell_angle_beta   89.66128674
_cell_angle_gamma   60.36174730
_symmetry_Int_Tables_number   1
_chemical_formula_structural   Li4Cr3Co2Sb3O16
_chemical_formula_sum   'Li4 Cr3 Co2 Sb3 O16'
_cell_volume   318.34877936
_cell_formula_units_Z   1
loop_
 _symmetry_equiv_pos_site_id
 _symmetry_equiv_pos_as_xyz
  1  'x, y, z'
loop_
 _atom_site_type_symbol
 _atom_site_label
 _atom_site_symmetry_multiplicity
 _atom_site_fract_x
 _atom_site_fract_y
 _atom_site_fract_z
 _atom_site_occupancy
  Li  Li0  1  0.67091000  0.67091000  0.90012800  1
  Li  Li1  1  0.00985200  0.00985200  0.00567200  1
  Li  Li2  1  0.01135900  0.01135900  0.49059300  1
  Li  Li3  1  0.33601800  0.33601800  0.37288900  1
  Cr  Cr0  1  0.83065500  0.33731500  0.21516700  1
  Cr  Cr1  1  0.33731500  0.83065500  0.21516700  1
  Cr  Cr2  1  0.16798400  0.16798400  0.71584000  1
  Co  Co0  1  0.65377100  0.65377100  0.47594300  1
  Co  Co1  1  0.32708400  0.32708400  0.01791600  1
  Sb  Sb0  1  0.82974600  0.82974600  0.21524400  1
  Sb  Sb1  1  0.66224600  0.16781000  0.71571000  1
  Sb  Sb2  1  0.16781000  0.66224600  0.71571000  1
  O  O0  1  0.83805200  0.31085400  0.60627600  1
  O  O1  1  0.51731500  0.51731500  0.33118400  1
  O  O2  1  0.66724000  0.66724000  0.10531000  1
  O  O3  1  0.99847600  0.99847600  0.31150300  1
  O  O4  1  0.99980000  0.99980000  0.81971500  1
  O  O5  1  0.31085400  0.83805200  0.60627600  1
  O  O6  1  0.96628500  0.51932600  0.33436600  1
  O  O7  1  0.51932600  0.96628500  0.33436600  1
  O  O8  1  0.15918600  0.15918600  0.10614500  1
  O  O9  1  0.84436700  0.84436700  0.60266800  1
  O  O10  1  0.48740800  0.03205600  0.82820100  1
  O  O11  1  0.03205600  0.48740800  0.82820100  1
  O  O12  1  0.33313800  0.33313800  0.60304600  1
  O  O13  1  0.68537400  0.15204300  0.10175400  1
  O  O14  1  0.48687900  0.48687900  0.83085400  1
  O  O15  1  0.15204300  0.68537400  0.10175400  1
loop_
_geom_bond_atom_site_label_1
_geom_bond_atom_site_label_2
_geom_bond_distance
_geom_bond_site_symmetry_2
Li0 O2 2.022535 1_556
Li0 O10 2.038590 1_565
Li0 O11 2.038590 1_655
Li0 O14 2.060610 1_555
Li1 O4 1.836716 1_444
Li1 O8 1.865232 1_555
Li1 O13 1.962784 1_455
Li1 O15 1.962784 1_545
Li2 O3 1.771387 1_445
Li2 O5 1.962699 1_545
Li2 O0 1.962699 1_455
Li2 O9 2.071518 1_445
Li3 O1 1.951682 1_555
Li3 O6 1.996716 1_455
Li3 O7 1.996716 1_545
Li3 O12 2.268598 1_555
Cr0 O1 2.018972 1_555
Cr0 O3 2.028059 1_545
Cr0 O8 2.045038 1_655
Cr0 O2 2.053106 1_555
Cr0 O6 2.056510 1_555
Cr0 O13 2.079767 1_555
Cr1 O1 2.018972 1_555
Cr1 O3 2.028059 1_455
Cr1 O8 2.045038 1_565
Cr1 O2 2.053106 1_555
Cr1 O7 2.056510 1_555
Cr1 O15 2.079767 1_555
Cr2 O11 2.030656 1_555
Cr2 O10 2.030656 1_555
Cr2 O4 2.040904 1_445
Cr2 O12 2.058934 1_555
Cr2 O0 2.062032 1_455
Cr2 O5 2.062032 1_545
Co0 O1 2.032779 1_555
Co0 O7 2.164763 1_555
Co0 O6 2.164763 1_555
Co0 O5 2.223691 1_555
Co0 O0 2.223691 1_555
Co0 O9 2.372657 1_555
Co1 O8 1.966309 1_555
Co1 O13 2.073087 1_555
Co1 O15 2.073087 1_555
Co1 O10 2.442574 1_554
Co1 O11 2.442574 1_554
Co1 O14 2.488657 1_554
O0 Sb1 1.992958 1_555
O2 Sb0 2.032929 1_555
O3 Sb0 2.021271 1_555
O4 Sb2 2.064501 1_655
O4 Sb1 2.064501 1_565
O5 Sb2 1.992958 1_555
O6 Sb0 2.019831 1_555
O7 Sb0 2.019831 1_555
O9 Sb1 2.051326 1_565
O9 Sb2 2.051326 1_655
O10 Sb1 1.974257 1_555
O11 Sb2 1.974257 1_555
O12 Sb2 2.070546 1_555
O12 Sb1 2.070546 1_555
O13 Sb0 2.039960 1_545
O14 Sb1 2.041878 1_555
O14 Sb2 2.041878 1_555
O15 Sb0 2.039960 1_455
