# generated using pymatgen
data_NaCa9ScZn9(SiO3)20
_symmetry_space_group_name_H-M   'P 1'
_cell_length_a   6.72141413
_cell_length_b   6.72141413
_cell_length_c   25.68340667
_cell_angle_alpha   85.28903240
_cell_angle_beta   85.28903240
_cell_angle_gamma   83.93355835
_symmetry_Int_Tables_number   1
_chemical_formula_structural   NaCa9ScZn9(SiO3)20
_chemical_formula_sum   'Na1 Ca9 Sc1 Zn9 Si20 O60'
_cell_volume   1146.75157843
_cell_formula_units_Z   1
loop_
 _symmetry_equiv_pos_site_id
 _symmetry_equiv_pos_as_xyz
  1  'x, y, z'
loop_
 _atom_site_type_symbol
 _atom_site_label
 _atom_site_symmetry_multiplicity
 _atom_site_fract_x
 _atom_site_fract_y
 _atom_site_fract_z
 _atom_site_occupancy
  Na  Na0  1  0.25280500  0.74719500  0.00000000  1
  Ca  Ca0  1  0.74772600  0.45916500  0.89884800  1
  Ca  Ca1  1  0.45160300  0.94729400  0.79965300  1
  Ca  Ca2  1  0.94893200  0.65084100  0.70016500  1
  Ca  Ca3  1  0.65127200  0.14895900  0.60020700  1
  Ca  Ca4  1  0.14883800  0.85116200  0.50000000  1
  Ca  Ca5  1  0.85104100  0.34872800  0.39979300  1
  Ca  Ca6  1  0.34915900  0.05106800  0.29983500  1
  Ca  Ca7  1  0.05270600  0.54839700  0.20034700  1
  Ca  Ca8  1  0.54083500  0.25227400  0.10115200  1
  Sc  Sc0  1  0.86363800  0.13636200  0.00000000  1
  Zn  Zn0  1  0.15201300  0.04850200  0.89958200  1
  Zn  Zn1  1  0.05751000  0.34464600  0.80073500  1
  Zn  Zn2  1  0.34379100  0.25688000  0.70043400  1
  Zn  Zn3  1  0.25661500  0.54359500  0.60012400  1
  Zn  Zn4  1  0.54366400  0.45633600  0.50000000  1
  Zn  Zn5  1  0.45640500  0.74338500  0.39987600  1
  Zn  Zn6  1  0.74312000  0.65620900  0.29956600  1
  Zn  Zn7  1  0.65535400  0.94249000  0.19926500  1
  Zn  Zn8  1  0.95149800  0.84798700  0.10041800  1
  Si  Si0  1  0.24244600  0.53628800  0.89725400  1
  Si  Si1  1  0.66754900  0.94974700  0.90297400  1
  Si  Si2  1  0.53187600  0.44775600  0.79722400  1
  Si  Si3  1  0.95624100  0.86668500  0.80319400  1
  Si  Si4  1  0.44599900  0.73329500  0.69677400  1
  Si  Si5  1  0.86717200  0.15422000  0.70358000  1
  Si  Si6  1  0.73338800  0.64611900  0.59679800  1
  Si  Si7  1  0.15430900  0.06703700  0.60348000  1
  Si  Si8  1  0.64601700  0.93321800  0.49669400  1
  Si  Si9  1  0.06678200  0.35398300  0.50330600  1
  Si  Si10  1  0.93296300  0.84569100  0.39652000  1
  Si  Si11  1  0.35388100  0.26661200  0.40320200  1
  Si  Si12  1  0.84578000  0.13282800  0.29642000  1
  Si  Si13  1  0.26670500  0.55400100  0.30322600  1
  Si  Si14  1  0.13331500  0.04375900  0.19680600  1
  Si  Si15  1  0.55224400  0.46812400  0.20277600  1
  Si  Si16  1  0.05025300  0.33245100  0.09702600  1
  Si  Si17  1  0.46371200  0.75755400  0.10274600  1
  Si  Si18  1  0.33562100  0.25136100  0.99595300  1
  Si  Si19  1  0.74863900  0.66437900  0.00404700  1
  O  O0  1  0.37358600  0.43022900  0.94805700  1
  O  O1  1  0.13094600  0.74549100  0.91462900  1
  O  O2  1  0.09775600  0.37683500  0.87989300  1
  O  O3  1  0.81546800  0.10310800  0.92157300  1
  O  O4  1  0.45678500  0.05027700  0.88363900  1
  O  O5  1  0.42672400  0.57408900  0.84912800  1
  O  O6  1  0.77207200  0.82817500  0.85051800  1
  O  O7  1  0.74341600  0.34837400  0.81668200  1
  O  O8  1  0.38069300  0.29698000  0.77945200  1
  O  O9  1  0.10241200  0.02249900  0.82081500  1
  O  O10  1  0.05870400  0.65640900  0.78390300  1
  O  O11  1  0.57069400  0.62977100  0.74920100  1
  O  O12  1  0.82977600  0.97005000  0.75105400  1
  O  O13  1  0.34472700  0.94433500  0.71601600  1
  O  O14  1  0.29760000  0.57957000  0.67912900  1
  O  O15  1  0.02005600  0.30280800  0.72157000  1
  O  O16  1  0.65612000  0.25519300  0.68428000  1
  O  O17  1  0.62962200  0.77091900  0.64920900  1
  O  O18  1  0.97095400  0.02962300  0.65114900  1
  O  O19  1  0.94423700  0.54497700  0.61618800  1
  O  O20  1  0.57995600  0.49747500  0.57907600  1
  O  O21  1  0.30278800  0.22047700  0.62128000  1
  O  O22  1  0.25530100  0.85602700  0.58413100  1
  O  O23  1  0.77085400  0.82948600  0.54912300  1
  O  O24  1  0.02947500  0.17072400  0.55103600  1
  O  O25  1  0.54497300  0.14415100  0.51607700  1
  O  O26  1  0.49736400  0.77981600  0.47894300  1
  O  O27  1  0.22018400  0.50263600  0.52105700  1
  O  O28  1  0.85584900  0.45502700  0.48392300  1
  O  O29  1  0.82927600  0.97052500  0.44896400  1
  O  O30  1  0.17051400  0.22914600  0.45087700  1
  O  O31  1  0.14397300  0.74469900  0.41586900  1
  O  O32  1  0.77952300  0.69721200  0.37872000  1
  O  O33  1  0.50252500  0.42004400  0.42092400  1
  O  O34  1  0.45502300  0.05576300  0.38381200  1
  O  O35  1  0.97037700  0.02904600  0.34885100  1
  O  O36  1  0.22908100  0.37037800  0.35079100  1
  O  O37  1  0.74480700  0.34388000  0.31572000  1
  O  O38  1  0.69719200  0.97994400  0.27843000  1
  O  O39  1  0.42043000  0.70240000  0.32087100  1
  O  O40  1  0.05566500  0.65527300  0.28398400  1
  O  O41  1  0.02995000  0.17022400  0.24894600  1
  O  O42  1  0.37022900  0.42930600  0.25079900  1
  O  O43  1  0.34359100  0.94129600  0.21609700  1
  O  O44  1  0.97750100  0.89758800  0.17918500  1
  O  O45  1  0.70302000  0.61930700  0.22054800  1
  O  O46  1  0.65162600  0.25658400  0.18331800  1
  O  O47  1  0.17182500  0.22792800  0.14948200  1
  O  O48  1  0.42591100  0.57327600  0.15087200  1
  O  O49  1  0.94972300  0.54321500  0.11636100  1
  O  O50  1  0.89689200  0.18453200  0.07842700  1
  O  O51  1  0.62316500  0.90224400  0.12010700  1
  O  O52  1  0.25450900  0.86905400  0.08537100  1
  O  O53  1  0.23376900  0.36361500  0.04987800  1
  O  O54  1  0.56977100  0.62641400  0.05194300  1
  O  O55  1  0.55088300  0.15189000  0.01421200  1
  O  O56  1  0.17754100  0.10530000  0.97869800  1
  O  O57  1  0.89470000  0.82245900  0.02130200  1
  O  O58  1  0.84811000  0.44911700  0.98578800  1
  O  O59  1  0.63638500  0.76623100  0.95012200  1
loop_
_geom_bond_atom_site_label_1
_geom_bond_atom_site_label_2
_geom_bond_distance
_geom_bond_site_symmetry_2
Na0 O52 2.404095 1_555
Na0 O1 2.404095 1_554
Na0 O57 2.433217 1_455
Na0 O56 2.433217 1_564
Na0 O54 2.626986 1_555
Na0 O0 2.626986 1_554
Na0 O53 2.793713 1_555
Na0 O59 2.793713 1_554
Ca0 O7 2.298148 1_555
Ca0 O58 2.378822 1_555
Ca0 O2 2.378938 1_655
Ca0 O3 2.420600 1_555
Ca0 O59 2.551885 1_555
Ca0 O5 2.611669 1_555
Ca0 O6 2.695553 1_555
Ca0 O0 2.738624 1_555
Ca1 O13 2.322541 1_555
Ca1 O4 2.322904 1_565
Ca1 O8 2.371538 1_565
Ca1 O9 2.375800 1_565
Ca1 O11 2.607183 1_555
Ca1 O6 2.629318 1_555
Ca1 O5 2.732251 1_555
Ca1 O12 2.751741 1_555
Ca2 O19 2.329629 1_555
Ca2 O10 2.334717 1_655
Ca2 O15 2.366121 1_655
Ca2 O14 2.368716 1_655
Ca2 O12 2.622689 1_555
Ca2 O17 2.625289 1_555
Ca2 O11 2.755052 1_555
Ca2 O18 2.758836 1_565
Ca3 O16 2.333055 1_555
Ca3 O25 2.334583 1_555
Ca3 O21 2.367892 1_555
Ca3 O20 2.368182 1_555
Ca3 O18 2.626268 1_555
Ca3 O23 2.627374 1_545
Ca3 O17 2.753975 1_545
Ca3 O24 2.756676 1_655
Ca4 O22 2.335077 1_555
Ca4 O31 2.335077 1_555
Ca4 O27 2.367957 1_555
Ca4 O26 2.367957 1_555
Ca4 O29 2.626939 1_455
Ca4 O24 2.626939 1_565
Ca4 O30 2.754832 1_565
Ca4 O23 2.754832 1_455
Ca5 O37 2.333055 1_555
Ca5 O28 2.334583 1_555
Ca5 O32 2.367892 1_555
Ca5 O33 2.368182 1_555
Ca5 O35 2.626268 1_555
Ca5 O30 2.627374 1_655
Ca5 O36 2.753975 1_655
Ca5 O29 2.756676 1_545
Ca6 O34 2.329629 1_555
Ca6 O43 2.334717 1_545
Ca6 O38 2.366121 1_545
Ca6 O39 2.368716 1_545
Ca6 O41 2.622689 1_555
Ca6 O36 2.625289 1_555
Ca6 O42 2.755052 1_555
Ca6 O35 2.758836 1_455
Ca7 O40 2.322541 1_555
Ca7 O49 2.322904 1_455
Ca7 O45 2.371538 1_455
Ca7 O44 2.375800 1_455
Ca7 O42 2.607183 1_555
Ca7 O47 2.629318 1_555
Ca7 O48 2.732251 1_555
Ca7 O41 2.751741 1_555
Ca8 O46 2.298148 1_555
Ca8 O55 2.378822 1_555
Ca8 O51 2.378938 1_545
Ca8 O50 2.420600 1_555
Ca8 O53 2.551885 1_555
Ca8 O48 2.611669 1_555
Ca8 O47 2.695553 1_555
Ca8 O54 2.738624 1_555
O0 Si18 1.671554 1_555
O0 Si0 1.700275 1_555
O1 Si0 1.601070 1_555
O1 Zn0 2.059144 1_565
O2 Si0 1.631959 1_555
O2 Zn1 2.104334 1_555
O2 Zn0 2.221672 1_555
O3 Si1 1.629334 1_545
O3 Sc0 2.099631 1_556
O3 Zn0 2.284585 1_655
O4 Si1 1.602541 1_545
O4 Zn0 2.056876 1_555
O5 Si0 1.699987 1_555
O5 Si2 1.703514 1_555
O6 Si3 1.686874 1_555
O6 Si1 1.697167 1_555
O7 Si2 1.605846 1_555
O7 Zn1 2.115143 1_655
O8 Si2 1.624130 1_555
O8 Zn2 2.107012 1_555
O8 Zn1 2.192424 1_555
O9 Si3 1.623349 1_445
O9 Zn0 2.101290 1_555
O9 Zn1 2.179341 1_555
O10 Si3 1.603305 1_455
O10 Zn1 2.105281 1_555
O11 Si2 1.689021 1_555
O11 Si4 1.705260 1_555
O12 Si5 1.688109 1_565
O12 Si3 1.705238 1_555
O13 Si4 1.604833 1_555
O13 Zn2 2.105434 1_565
O14 Si4 1.623849 1_555
O14 Zn3 2.106695 1_555
O14 Zn2 2.188768 1_555
O15 Si5 1.624066 1_455
O15 Zn1 2.114101 1_555
O15 Zn2 2.194605 1_555
O16 Si5 1.604806 1_555
O16 Zn2 2.105224 1_555
O17 Si4 1.687354 1_555
O17 Si6 1.705770 1_555
O18 Si7 1.687623 1_655
O18 Si5 1.705510 1_555
O19 Si6 1.604776 1_555
O19 Zn3 2.105454 1_655
O20 Si6 1.624341 1_555
O20 Zn4 2.109161 1_555
O20 Zn3 2.191745 1_555
O21 Si7 1.624367 1_555
O21 Zn2 2.111084 1_555
O21 Zn3 2.190824 1_555
O22 Si7 1.605038 1_565
O22 Zn3 2.105641 1_555
O23 Si6 1.687837 1_555
O23 Si8 1.706199 1_555
O24 Si9 1.688085 1_555
O24 Si7 1.706407 1_555
O25 Si8 1.605000 1_545
O25 Zn4 2.104262 1_555
O26 Si8 1.624523 1_555
O26 Zn5 2.108860 1_555
O26 Zn4 2.192748 1_555
O27 Si9 1.624523 1_555
O27 Zn3 2.108860 1_555
O27 Zn4 2.192748 1_555
O28 Si9 1.605000 1_655
O28 Zn4 2.104262 1_555
O29 Si8 1.688085 1_555
O29 Si10 1.706407 1_555
O30 Si11 1.687837 1_555
O30 Si9 1.706199 1_555
O31 Si10 1.605038 1_455
O31 Zn5 2.105641 1_555
O32 Si10 1.624367 1_555
O32 Zn6 2.111084 1_555
O32 Zn5 2.190824 1_555
O33 Si11 1.624341 1_555
O33 Zn4 2.109161 1_555
O33 Zn5 2.191745 1_555
O34 Si11 1.604776 1_555
O34 Zn5 2.105454 1_545
O35 Si10 1.687623 1_545
O35 Si12 1.705510 1_555
O36 Si13 1.687354 1_555
O36 Si11 1.705770 1_555
O37 Si12 1.604806 1_555
O37 Zn6 2.105224 1_555
O38 Si12 1.624066 1_565
O38 Zn7 2.114101 1_555
O38 Zn6 2.194605 1_555
O39 Si13 1.623849 1_555
O39 Zn5 2.106695 1_555
O39 Zn6 2.188768 1_555
O40 Si13 1.604833 1_555
O40 Zn6 2.105434 1_455
O41 Si12 1.688109 1_455
O41 Si14 1.705238 1_555
O42 Si15 1.689021 1_555
O42 Si13 1.705260 1_555
O43 Si14 1.603305 1_565
O43 Zn7 2.105281 1_555
O44 Si14 1.623349 1_665
O44 Zn8 2.101290 1_555
O44 Zn7 2.179341 1_555
O45 Si15 1.624130 1_555
O45 Zn6 2.107012 1_555
O45 Zn7 2.192424 1_555
O46 Si15 1.605846 1_555
O46 Zn7 2.115143 1_545
O47 Si14 1.686874 1_555
O47 Si16 1.697167 1_555
O48 Si17 1.699987 1_555
O48 Si15 1.703514 1_555
O49 Si16 1.602541 1_655
O49 Zn8 2.056876 1_555
O50 Si16 1.629334 1_655
O50 Sc0 2.099631 1_555
O50 Zn8 2.284585 1_545
O51 Si17 1.631959 1_555
O51 Zn7 2.104334 1_555
O51 Zn8 2.221672 1_555
O52 Si17 1.601070 1_555
O52 Zn8 2.059144 1_455
O53 Si16 1.673110 1_555
O53 Si18 1.691992 1_554
O54 Si19 1.671554 1_555
O54 Si17 1.700275 1_555
O55 Si18 1.617353 1_554
O55 Sc0 2.096910 1_555
O56 Si18 1.630473 1_555
O56 Zn0 2.121937 1_555
O56 Sc0 2.128503 1_456
O57 Si19 1.630473 1_555
O57 Zn8 2.121937 1_555
O57 Sc0 2.128503 1_565
O58 Si19 1.617353 1_556
O58 Sc0 2.096910 1_556
O59 Si1 1.673110 1_555
O59 Si19 1.691992 1_556
