# generated using pymatgen
data_HS3N
_symmetry_space_group_name_H-M   'P 1'
_cell_length_a   8.53720200
_cell_length_b   13.13900700
_cell_length_c   14.62223900
_cell_angle_alpha   90.00000000
_cell_angle_beta   90.00000000
_cell_angle_gamma   90.00000000
_symmetry_Int_Tables_number   1
_chemical_formula_structural   HS3N
_chemical_formula_sum   'H16 S48 N16'
_cell_volume   1640.18176641
_cell_formula_units_Z   16
loop_
 _symmetry_equiv_pos_site_id
 _symmetry_equiv_pos_as_xyz
  1  'x, y, z'
loop_
 _atom_site_type_symbol
 _atom_site_label
 _atom_site_symmetry_multiplicity
 _atom_site_fract_x
 _atom_site_fract_y
 _atom_site_fract_z
 _atom_site_occupancy
  H  H0  1  0.62994700  0.06257000  0.16968100  1
  H  H1  1  0.12994700  0.43743000  0.83031900  1
  H  H2  1  0.37005300  0.56257000  0.33031900  1
  H  H3  1  0.87005300  0.93743000  0.66968100  1
  H  H4  1  0.37005300  0.93743000  0.83031900  1
  H  H5  1  0.87005300  0.56257000  0.16968100  1
  H  H6  1  0.62994700  0.43743000  0.66968100  1
  H  H7  1  0.12994700  0.06257000  0.33031900  1
  H  H8  1  0.79279700  0.23049300  0.00710400  1
  H  H9  1  0.29279700  0.26950700  0.99289600  1
  H  H10  1  0.20720300  0.73049300  0.49289600  1
  H  H11  1  0.70720300  0.76950700  0.50710400  1
  H  H12  1  0.20720300  0.76950700  0.99289600  1
  H  H13  1  0.70720300  0.73049300  0.00710400  1
  H  H14  1  0.79279700  0.26950700  0.50710400  1
  H  H15  1  0.29279700  0.23049300  0.49289600  1
  S  S0  1  0.59125600  0.34998400  0.99074400  1
  S  S1  1  0.09125600  0.15001600  0.00925600  1
  S  S2  1  0.40874400  0.84998400  0.50925600  1
  S  S3  1  0.90874400  0.65001600  0.49074400  1
  S  S4  1  0.40874400  0.65001600  0.00925600  1
  S  S5  1  0.90874400  0.84998400  0.99074400  1
  S  S6  1  0.59125600  0.15001600  0.49074400  1
  S  S7  1  0.09125600  0.34998400  0.50925600  1
  S  S8  1  0.39581500  0.14536800  0.20259500  1
  S  S9  1  0.89581500  0.35463200  0.79740500  1
  S  S10  1  0.60418500  0.64536800  0.29740500  1
  S  S11  1  0.10418500  0.85463200  0.70259500  1
  S  S12  1  0.60418500  0.85463200  0.79740500  1
  S  S13  1  0.10418500  0.64536800  0.20259500  1
  S  S14  1  0.39581500  0.35463200  0.70259500  1
  S  S15  1  0.89581500  0.14536800  0.29740500  1
  S  S16  1  0.59558400  0.43384100  0.11055100  1
  S  S17  1  0.09558400  0.06615900  0.88944900  1
  S  S18  1  0.40441600  0.93384100  0.38944900  1
  S  S19  1  0.90441600  0.56615900  0.61055100  1
  S  S20  1  0.40441600  0.56615900  0.88944900  1
  S  S21  1  0.90441600  0.93384100  0.11055100  1
  S  S22  1  0.59558400  0.06615900  0.61055100  1
  S  S23  1  0.09558400  0.43384100  0.38944900  1
  S  S24  1  0.40086400  0.39940900  0.18935600  1
  S  S25  1  0.90086400  0.10059100  0.81064400  1
  S  S26  1  0.59913600  0.89940900  0.31064400  1
  S  S27  1  0.09913600  0.60059100  0.68935600  1
  S  S28  1  0.59913600  0.60059100  0.81064400  1
  S  S29  1  0.09913600  0.89940900  0.18935600  1
  S  S30  1  0.40086400  0.10059100  0.68935600  1
  S  S31  1  0.90086400  0.39940900  0.31064400  1
  S  S32  1  0.46036100  0.27583600  0.27080700  1
  S  S33  1  0.96036100  0.22416400  0.72919300  1
  S  S34  1  0.53963900  0.77583600  0.22919300  1
  S  S35  1  0.03963900  0.72416400  0.77080700  1
  S  S36  1  0.53963900  0.72416400  0.72919300  1
  S  S37  1  0.03963900  0.77583600  0.27080700  1
  S  S38  1  0.46036100  0.22416400  0.77080700  1
  S  S39  1  0.96036100  0.27583600  0.22919300  1
  S  S40  1  0.56822300  0.12800600  0.02470000  1
  S  S41  1  0.06822300  0.37199400  0.97530000  1
  S  S42  1  0.43177700  0.62800600  0.47530000  1
  S  S43  1  0.93177700  0.87199400  0.52470000  1
  S  S44  1  0.43177700  0.87199400  0.97530000  1
  S  S45  1  0.93177700  0.62800600  0.02470000  1
  S  S46  1  0.56822300  0.37199400  0.52470000  1
  S  S47  1  0.06822300  0.12800600  0.47530000  1
  N  N0  1  0.54471100  0.10365300  0.13704800  1
  N  N1  1  0.04471100  0.39634700  0.86295200  1
  N  N2  1  0.45528900  0.60365300  0.36295200  1
  N  N3  1  0.95528900  0.89634700  0.63704800  1
  N  N4  1  0.45528900  0.89634700  0.86295200  1
  N  N5  1  0.95528900  0.60365300  0.13704800  1
  N  N6  1  0.54471100  0.39634700  0.63704800  1
  N  N7  1  0.04471100  0.10365300  0.36295200  1
  N  N8  1  0.67268600  0.23482200  0.00808400  1
  N  N9  1  0.17268600  0.26517800  0.99191600  1
  N  N10  1  0.32731400  0.73482200  0.49191600  1
  N  N11  1  0.82731400  0.76517800  0.50808400  1
  N  N12  1  0.32731400  0.76517800  0.99191600  1
  N  N13  1  0.82731400  0.73482200  0.00808400  1
  N  N14  1  0.67268600  0.26517800  0.50808400  1
  N  N15  1  0.17268600  0.23482200  0.49191600  1
loop_
_geom_bond_atom_site_label_1
_geom_bond_atom_site_label_2
_geom_bond_distance
_geom_bond_site_symmetry_2
H0 N0 1.024000 1_555
H1 N1 1.024000 1_555
H2 N2 1.024000 1_555
H3 N3 1.024000 1_555
H4 N4 1.024000 1_555
H5 N5 1.024000 1_555
H6 N6 1.024000 1_555
H7 N7 1.024000 1_555
H8 N8 1.027088 1_555
H9 N9 1.027088 1_555
H10 N10 1.027088 1_555
H11 N11 1.027088 1_555
H12 N12 1.027088 1_555
H13 N13 1.027088 1_555
H14 N14 1.027088 1_555
H15 N15 1.027088 1_555
S0 S16 2.069853 1_556
S1 S17 2.069853 1_554
S10 S34 2.058404 1_555
S11 S35 2.058404 1_555
S12 S36 2.058404 1_555
S13 S37 2.058404 1_555
S14 S38 2.058404 1_555
S15 S39 2.058404 1_555
S16 S24 2.072663 1_555
S17 S25 2.072663 1_455
S18 S2 2.069853 1_555
S18 S26 2.072663 1_555
S19 S3 2.069853 1_555
S19 S27 2.072663 1_655
S20 S4 2.069853 1_556
S20 S28 2.072663 1_555
S21 S5 2.069853 1_554
S21 S29 2.072663 1_655
S22 S6 2.069853 1_555
S22 S30 2.072663 1_555
S23 S7 2.069853 1_555
S23 S31 2.072663 1_455
S24 S32 2.076689 1_555
S25 S33 2.076689 1_555
S26 S34 2.076689 1_555
S27 S35 2.076689 1_555
S28 S36 2.076689 1_555
S29 S37 2.076689 1_555
S30 S38 2.076689 1_555
S31 S39 2.076689 1_555
S32 S8 2.058404 1_555
S33 S9 2.058404 1_555
N0 S8 1.683703 1_555
N0 S40 1.685645 1_555
N1 S9 1.683703 1_455
N1 S41 1.685645 1_555
N2 S10 1.683703 1_555
N2 S42 1.685645 1_555
N3 S11 1.683703 1_655
N3 S43 1.685645 1_555
N4 S12 1.683703 1_555
N4 S44 1.685645 1_555
N5 S13 1.683703 1_655
N5 S45 1.685645 1_555
N6 S14 1.683703 1_555
N6 S46 1.685645 1_555
N7 S15 1.683703 1_455
N7 S47 1.685645 1_555
N8 S40 1.680496 1_555
N8 S0 1.684364 1_554
N9 S41 1.680496 1_555
N9 S1 1.684364 1_556
N10 S42 1.680496 1_555
N10 S2 1.684364 1_555
N11 S43 1.680496 1_555
N11 S3 1.684364 1_555
N12 S44 1.680496 1_555
N12 S4 1.684364 1_556
N13 S45 1.680496 1_555
N13 S5 1.684364 1_554
N14 S46 1.680496 1_555
N14 S6 1.684364 1_555
N15 S47 1.680496 1_555
N15 S7 1.684364 1_555
