# generated using pymatgen
data_Li5Mn4O8
_symmetry_space_group_name_H-M   'P 1'
_cell_length_a   6.32822732
_cell_length_b   6.32822732
_cell_length_c   10.08675300
_cell_angle_alpha   90.00000000
_cell_angle_beta   90.00000000
_cell_angle_gamma   125.34586279
_symmetry_Int_Tables_number   1
_chemical_formula_structural   Li5Mn4O8
_chemical_formula_sum   'Li10 Mn8 O16'
_cell_volume   329.48265884
_cell_formula_units_Z   2
loop_
 _symmetry_equiv_pos_site_id
 _symmetry_equiv_pos_as_xyz
  1  'x, y, z'
loop_
 _atom_site_type_symbol
 _atom_site_label
 _atom_site_symmetry_multiplicity
 _atom_site_fract_x
 _atom_site_fract_y
 _atom_site_fract_z
 _atom_site_occupancy
  Li  Li0  1  0.87522300  0.68707400  0.06097100  1
  Li  Li1  1  0.15839400  0.84160600  0.27350000  1
  Li  Li2  1  0.29277500  0.70722500  0.05919700  1
  Li  Li3  1  0.31292600  0.12477700  0.06097100  1
  Li  Li4  1  0.68707400  0.87522300  0.56097100  1
  Li  Li5  1  0.84160600  0.15839400  0.77350000  1
  Li  Li6  1  0.12477700  0.31292600  0.56097100  1
  Li  Li7  1  0.70722500  0.29277500  0.55919700  1
  Li  Li8  1  0.47275200  0.52724800  0.98147600  1
  Li  Li9  1  0.52724800  0.47275200  0.48147600  1
  Mn  Mn0  1  0.18044200  0.81955800  0.52705800  1
  Mn  Mn1  1  0.81955800  0.18044200  0.02705800  1
  Mn  Mn2  1  0.32251900  0.67748100  0.78702200  1
  Mn  Mn3  1  0.83135900  0.67091700  0.78459800  1
  Mn  Mn4  1  0.32908300  0.16864100  0.78459800  1
  Mn  Mn5  1  0.67091700  0.83135900  0.28459800  1
  Mn  Mn6  1  0.16864100  0.32908300  0.28459800  1
  Mn  Mn7  1  0.67748100  0.32251900  0.28702200  1
  O  O0  1  0.37041300  0.62958700  0.40737600  1
  O  O1  1  0.01978800  0.50028300  0.66649600  1
  O  O2  1  0.84981200  0.62371800  0.40521700  1
  O  O3  1  0.13673400  0.86326600  0.90357100  1
  O  O4  1  0.49971700  0.98021200  0.66649600  1
  O  O5  1  0.01416300  0.98583700  0.67188300  1
  O  O6  1  0.62371800  0.84981200  0.90521700  1
  O  O7  1  0.37628200  0.15018800  0.40521700  1
  O  O8  1  0.98583700  0.01416300  0.17188300  1
  O  O9  1  0.50028300  0.01978800  0.16649600  1
  O  O10  1  0.86326600  0.13673400  0.40357100  1
  O  O11  1  0.15018800  0.37628200  0.90521700  1
  O  O12  1  0.98021200  0.49971700  0.16649600  1
  O  O13  1  0.62958700  0.37041300  0.90737600  1
  O  O14  1  0.48206900  0.51793100  0.17109500  1
  O  O15  1  0.51793100  0.48206900  0.67109500  1
loop_
_geom_bond_atom_site_label_1
_geom_bond_atom_site_label_2
_geom_bond_distance
_geom_bond_site_symmetry_2
Li0 O12 1.972697 1_555
Li0 O8 2.085573 1_565
Li0 O3 2.089883 1_654
Li0 O13 2.286505 1_554
Li0 O14 2.342719 1_555
Li1 O12 2.072363 1_455
Li1 O9 2.072363 1_565
Li1 O2 2.089103 1_455
Li1 O7 2.089103 1_565
Li1 O8 2.194332 1_465
Li2 O9 1.950099 1_565
Li2 O12 1.950099 1_455
Li2 O11 2.329391 1_554
Li2 O6 2.329391 1_554
Li2 O3 2.354253 1_554
Li2 O14 2.409173 1_555
Li3 O9 1.972697 1_555
Li3 O8 2.085573 1_455
Li3 O3 2.089883 1_544
Li3 O13 2.286505 1_554
Li3 O14 2.342719 1_555
Li4 O4 1.972697 1_555
Li4 O5 2.085573 1_655
Li4 O10 2.089883 1_565
Li4 O0 2.286505 1_555
Li4 O15 2.342719 1_555
Li5 O4 2.072363 1_545
Li5 O1 2.072363 1_655
Li5 O6 2.089103 1_545
Li5 O11 2.089103 1_655
Li5 O5 2.194332 1_645
Li6 O1 1.972697 1_555
Li6 O5 2.085573 1_545
Li6 O10 2.089883 1_455
Li6 O0 2.286505 1_555
Li6 O15 2.342719 1_555
Li7 O1 1.950099 1_655
Li7 O4 1.950099 1_545
Li7 O7 2.329391 1_555
Li7 O2 2.329391 1_555
Li7 O10 2.354253 1_555
Li7 O15 2.409173 1_555
Li8 O6 1.847913 1_555
Li8 O11 1.847913 1_555
Li8 O13 1.915311 1_555
Li8 O14 1.915507 1_556
Li9 O2 1.847913 1_555
Li9 O7 1.847913 1_555
Li9 O0 1.915311 1_555
Li9 O15 1.915507 1_555
Mn0 O7 2.103293 1_565
Mn0 O2 2.103293 1_455
Mn0 O1 2.171941 1_555
Mn0 O4 2.171941 1_555
Mn0 O5 2.372664 1_555
Mn0 O0 2.453565 1_555
Mn1 O11 2.103293 1_654
Mn1 O6 2.103293 1_544
Mn1 O9 2.171941 1_555
Mn1 O12 2.171941 1_555
Mn1 O8 2.372664 1_555
Mn1 O13 2.453565 1_554
Mn2 O6 1.959249 1_555
Mn2 O11 1.959249 1_555
Mn2 O4 1.979886 1_555
Mn2 O1 1.979886 1_555
Mn2 O3 2.397044 1_555
Mn2 O15 2.488989 1_555
Mn3 O15 1.982532 1_555
Mn3 O3 1.983589 1_655
Mn3 O5 1.983689 1_655
Mn3 O13 1.992727 1_555
Mn3 O1 2.344513 1_655
Mn3 O6 2.491909 1_555
Mn4 O15 1.982532 1_555
Mn4 O3 1.983589 1_545
Mn4 O5 1.983689 1_545
Mn4 O13 1.992727 1_555
Mn4 O4 2.344513 1_545
Mn4 O11 2.491909 1_555
Mn5 O14 1.982532 1_555
Mn5 O10 1.983589 1_565
Mn5 O8 1.983689 1_565
Mn5 O0 1.992727 1_555
Mn5 O9 2.344513 1_565
Mn5 O2 2.491909 1_555
Mn6 O14 1.982532 1_555
Mn6 O10 1.983589 1_455
Mn6 O8 1.983689 1_455
Mn6 O0 1.992727 1_555
Mn6 O12 2.344513 1_455
Mn6 O7 2.491909 1_555
Mn7 O7 1.959249 1_555
Mn7 O2 1.959249 1_555
Mn7 O9 1.979886 1_555
Mn7 O12 1.979886 1_555
Mn7 O10 2.397044 1_555
Mn7 O14 2.488989 1_555
