# generated using pymatgen
data_Ti6Co3O16
_symmetry_space_group_name_H-M   'P 1'
_cell_length_a   8.47557100
_cell_length_b   8.39405600
_cell_length_c   8.42659638
_cell_angle_alpha   89.83872487
_cell_angle_beta   90.00000000
_cell_angle_gamma   90.00000000
_symmetry_Int_Tables_number   1
_chemical_formula_structural   Ti6Co3O16
_chemical_formula_sum   'Ti12 Co6 O32'
_cell_volume   599.50291706
_cell_formula_units_Z   2
loop_
 _symmetry_equiv_pos_site_id
 _symmetry_equiv_pos_as_xyz
  1  'x, y, z'
loop_
 _atom_site_type_symbol
 _atom_site_label
 _atom_site_symmetry_multiplicity
 _atom_site_fract_x
 _atom_site_fract_y
 _atom_site_fract_z
 _atom_site_occupancy
  Ti  Ti0  1  0.88492400  0.61006600  0.86735900  1
  Ti  Ti1  1  0.36743100  0.10924700  0.89354600  1
  Ti  Ti2  1  0.64592500  0.36376100  0.88303200  1
  Ti  Ti3  1  0.61999500  0.61089000  0.61953300  1
  Ti  Ti4  1  0.36475000  0.86447700  0.63612500  1
  Ti  Ti5  1  0.11107400  0.13162500  0.64474500  1
  Ti  Ti6  1  0.86475000  0.13552300  0.36387500  1
  Ti  Ti7  1  0.61107400  0.86837500  0.35525500  1
  Ti  Ti8  1  0.11999500  0.38911000  0.38046700  1
  Ti  Ti9  1  0.86743100  0.89075300  0.10645400  1
  Ti  Ti10  1  0.38492400  0.38993400  0.13264100  1
  Ti  Ti11  1  0.14592500  0.63623900  0.11696800  1
  Co  Co0  1  0.74256900  0.99589700  0.74501800  1
  Co  Co1  1  0.25852600  0.49219900  0.75891800  1
  Co  Co2  1  0.99430700  0.75866100  0.49942200  1
  Co  Co3  1  0.49430700  0.24133900  0.50057800  1
  Co  Co4  1  0.75852600  0.50780100  0.24108200  1
  Co  Co5  1  0.24256900  0.00410300  0.25498200  1
  O  O0  1  0.61010900  0.13518600  0.85170600  1
  O  O1  1  0.85729900  0.86470400  0.88684700  1
  O  O2  1  0.64912300  0.59729300  0.84712200  1
  O  O3  1  0.14800700  0.12715600  0.85320000  1
  O  O4  1  0.85951200  0.38921300  0.87958500  1
  O  O5  1  0.37750100  0.89461200  0.85021100  1
  O  O6  1  0.11204600  0.61446400  0.89113400  1
  O  O7  1  0.39155500  0.35641700  0.89778300  1
  O  O8  1  0.88972300  0.09985000  0.61700300  1
  O  O9  1  0.86531200  0.64663600  0.63624900  1
  O  O10  1  0.60886600  0.86244700  0.61417300  1
  O  O11  1  0.60376100  0.38608100  0.63187400  1
  O  O12  1  0.36172100  0.11440400  0.63278300  1
  O  O13  1  0.14265100  0.88662700  0.60335300  1
  O  O14  1  0.39244900  0.64075300  0.63333700  1
  O  O15  1  0.14086400  0.35824600  0.60698200  1
  O  O16  1  0.86172100  0.88559600  0.36721700  1
  O  O17  1  0.64265100  0.11337300  0.39664700  1
  O  O18  1  0.64086400  0.64175400  0.39301800  1
  O  O19  1  0.38972300  0.90015000  0.38299700  1
  O  O20  1  0.89244900  0.35924700  0.36666300  1
  O  O21  1  0.36531200  0.35336400  0.36375100  1
  O  O22  1  0.10886600  0.13755300  0.38582700  1
  O  O23  1  0.10376100  0.61391900  0.36812600  1
  O  O24  1  0.87750100  0.10538800  0.14978900  1
  O  O25  1  0.89155500  0.64358300  0.10221700  1
  O  O26  1  0.64800700  0.87284400  0.14680000  1
  O  O27  1  0.35729900  0.13529600  0.11315300  1
  O  O28  1  0.35951200  0.61078700  0.12041500  1
  O  O29  1  0.61204600  0.38553600  0.10886600  1
  O  O30  1  0.11010900  0.86481400  0.14829400  1
  O  O31  1  0.14912300  0.40270700  0.15287800  1
loop_
_geom_bond_atom_site_label_1
_geom_bond_atom_site_label_2
_geom_bond_distance
_geom_bond_site_symmetry_2
Co0 O0 1.855148 1_565
Co0 O8 1.864219 1_565
Co0 O1 1.891888 1_555
Co0 O10 1.939488 1_555
Co1 O6 1.960189 1_555
Co1 O15 1.976383 1_555
Co1 O7 1.982945 1_555
Co1 O14 1.988902 1_555
Co2 O9 1.844678 1_555
Co2 O13 1.872673 1_655
Co2 O23 1.889020 1_655
Co2 O16 1.905908 1_555
Co3 O21 1.844678 1_555
Co3 O17 1.872673 1_555
Co3 O11 1.889020 1_555
Co3 O12 1.905908 1_555
Co4 O29 1.960189 1_555
Co4 O18 1.976383 1_555
Co4 O25 1.982945 1_555
Co4 O20 1.988902 1_555
Co5 O30 1.855148 1_545
Co5 O19 1.864219 1_545
Co5 O27 1.891888 1_555
Co5 O22 1.939488 1_555
O0 Ti2 1.961117 1_555
O0 Ti1 2.098058 1_555
O1 Ti9 1.866001 1_556
O1 Ti0 2.156951 1_555
O2 Ti3 1.936673 1_555
O2 Ti2 1.982842 1_555
O2 Ti0 2.008699 1_555
O3 Ti5 1.784530 1_555
O3 Ti1 1.896456 1_555
O4 Ti2 1.823057 1_555
O4 Ti0 1.868876 1_555
O5 Ti4 1.825571 1_555
O5 Ti1 1.841279 1_565
O6 Ti11 1.933720 1_556
O6 Ti0 1.935749 1_455
O7 Ti10 2.000525 1_556
O7 Ti1 2.085215 1_555
O7 Ti2 2.160381 1_555
O8 Ti5 1.909398 1_655
O8 Ti6 2.163467 1_555
O9 Ti0 1.977660 1_555
O9 Ti3 2.105514 1_555
O10 Ti4 2.077349 1_555
O10 Ti3 2.114045 1_555
O10 Ti7 2.182305 1_555
O11 Ti3 1.894633 1_555
O11 Ti2 2.154010 1_555
O12 Ti4 2.098168 1_545
O12 Ti5 2.131693 1_555
O12 Ti1 2.198182 1_555
O13 Ti4 1.911552 1_555
O13 Ti5 2.103955 1_565
O14 Ti4 1.892780 1_555
O14 Ti3 1.948323 1_555
O15 Ti8 1.933636 1_555
O15 Ti5 1.944282 1_555
O16 Ti6 2.098168 1_565
O16 Ti7 2.131693 1_555
O16 Ti9 2.198182 1_555
O17 Ti6 1.911552 1_555
O17 Ti7 2.103955 1_545
O18 Ti3 1.933636 1_555
O18 Ti7 1.944282 1_555
O19 Ti7 1.909398 1_555
O19 Ti4 2.163467 1_555
O20 Ti6 1.892780 1_555
O20 Ti8 1.948323 1_655
O21 Ti10 1.977660 1_555
O21 Ti8 2.105514 1_555
O22 Ti6 2.077349 1_455
O22 Ti8 2.114045 1_555
O22 Ti5 2.182305 1_555
O23 Ti8 1.894633 1_555
O23 Ti11 2.154010 1_555
O24 Ti6 1.825571 1_555
O24 Ti9 1.841279 1_545
O25 Ti0 2.000525 1_554
O25 Ti9 2.085215 1_555
O25 Ti11 2.160381 1_655
O26 Ti7 1.784530 1_555
O26 Ti9 1.896456 1_555
O27 Ti1 1.866001 1_554
O27 Ti10 2.156951 1_555
O28 Ti11 1.823057 1_555
O28 Ti10 1.868876 1_555
O29 Ti2 1.933720 1_554
O29 Ti10 1.935749 1_555
O30 Ti11 1.961117 1_555
O30 Ti9 2.098058 1_455
O31 Ti8 1.936673 1_555
O31 Ti11 1.982842 1_555
O31 Ti10 2.008699 1_555
