# generated using pymatgen
data_LaAlO3
_symmetry_space_group_name_H-M   'P 1'
_cell_length_a   6.05392100
_cell_length_b   7.66406700
_cell_length_c   13.57440073
_cell_angle_alpha   64.73654041
_cell_angle_beta   90.00000000
_cell_angle_gamma   90.00000000
_symmetry_Int_Tables_number   1
_chemical_formula_structural   LaAlO3
_chemical_formula_sum   'La8 Al8 O24'
_cell_volume   569.58115320
_cell_formula_units_Z   8
loop_
 _symmetry_equiv_pos_site_id
 _symmetry_equiv_pos_as_xyz
  1  'x, y, z'
loop_
 _atom_site_type_symbol
 _atom_site_label
 _atom_site_symmetry_multiplicity
 _atom_site_fract_x
 _atom_site_fract_y
 _atom_site_fract_z
 _atom_site_occupancy
  La  La0  1  0.89488500  0.77469100  0.63095900  1
  La  La1  1  0.59151600  0.26075000  0.14895600  1
  La  La2  1  0.39488500  0.22530900  0.86904100  1
  La  La3  1  0.09151600  0.73925000  0.35104400  1
  La  La4  1  0.90848400  0.26075000  0.64895600  1
  La  La5  1  0.60511500  0.77469100  0.13095900  1
  La  La6  1  0.40848400  0.73925000  0.85104400  1
  La  La7  1  0.10511500  0.22530900  0.36904100  1
  Al  Al0  1  0.86459100  0.44843100  0.87798700  1
  Al  Al1  1  0.09489500  0.14565000  0.09594400  1
  Al  Al2  1  0.36459100  0.55156900  0.62201300  1
  Al  Al3  1  0.59489500  0.85435000  0.40405600  1
  Al  Al4  1  0.40510500  0.14565000  0.59594400  1
  Al  Al5  1  0.63540900  0.44843100  0.37798700  1
  Al  Al6  1  0.90510500  0.85435000  0.90405600  1
  Al  Al7  1  0.13540900  0.55156900  0.12201300  1
  O  O0  1  0.09884000  0.29754400  0.16717700  1
  O  O1  1  0.61419900  0.39527300  0.95247500  1
  O  O2  1  0.32066300  0.57485700  0.74492700  1
  O  O3  1  0.58072800  0.69360700  0.54395200  1
  O  O4  1  0.36428800  0.00134500  0.34438300  1
  O  O5  1  0.08072800  0.30639300  0.95604800  1
  O  O6  1  0.85891900  0.95886200  0.39857200  1
  O  O7  1  0.82066300  0.42514300  0.75507300  1
  O  O8  1  0.11419900  0.60472700  0.54752500  1
  O  O9  1  0.35891900  0.04113800  0.10142800  1
  O  O10  1  0.86428800  0.99865500  0.15561700  1
  O  O11  1  0.40116000  0.29754400  0.66717700  1
  O  O12  1  0.59884000  0.70245600  0.33282300  1
  O  O13  1  0.13571200  0.00134500  0.84438300  1
  O  O14  1  0.64108100  0.95886200  0.89857200  1
  O  O15  1  0.88580100  0.39527300  0.45247500  1
  O  O16  1  0.17933700  0.57485700  0.24492700  1
  O  O17  1  0.14108100  0.04113800  0.60142800  1
  O  O18  1  0.91927200  0.69360700  0.04395200  1
  O  O19  1  0.63571200  0.99865500  0.65561700  1
  O  O20  1  0.41927200  0.30639300  0.45604800  1
  O  O21  1  0.67933700  0.42514300  0.25507300  1
  O  O22  1  0.38580100  0.60472700  0.04752500  1
  O  O23  1  0.90116000  0.70245600  0.83282300  1
loop_
_geom_bond_atom_site_label_1
_geom_bond_atom_site_label_2
_geom_bond_distance
_geom_bond_site_symmetry_2
La0 O17 2.419392 1_665
La0 O8 2.449814 1_655
La0 O19 2.451637 1_555
La0 O3 2.454533 1_555
La0 O7 2.522832 1_555
La0 O23 2.553757 1_555
La0 O6 2.861841 1_555
La0 O2 3.059531 1_655
La1 O21 2.343958 1_555
La1 O1 2.418302 1_554
La1 O9 2.481697 1_555
La1 O10 2.571964 1_545
La1 O22 2.701550 1_555
La1 O4 2.894912 1_555
La1 O0 3.016001 1_555
La1 O0 3.103725 1_655
La2 O14 2.419392 1_545
La2 O1 2.449814 1_555
La2 O13 2.451637 1_555
La2 O5 2.454533 1_555
La2 O2 2.522832 1_555
La2 O11 2.553757 1_555
La2 O9 2.861841 1_556
La2 O7 3.059531 1_555
La3 O16 2.343958 1_555
La3 O8 2.418302 1_555
La3 O6 2.481697 1_455
La3 O4 2.571964 1_565
La3 O15 2.701550 1_455
La3 O10 2.894912 1_455
La3 O12 3.016001 1_455
La3 O12 3.103725 1_555
La4 O7 2.343958 1_555
La4 O15 2.418302 1_555
La4 O17 2.481697 1_655
La4 O19 2.571964 1_545
La4 O8 2.701550 1_655
La4 O13 2.894912 1_655
La4 O11 3.016001 1_655
La4 O11 3.103725 1_555
La5 O9 2.419392 1_565
La5 O22 2.449814 1_555
La5 O10 2.451637 1_555
La5 O18 2.454533 1_555
La5 O21 2.522832 1_555
La5 O12 2.553757 1_555
La5 O14 2.861841 1_554
La5 O16 3.059531 1_555
La6 O2 2.343958 1_555
La6 O22 2.418302 1_556
La6 O14 2.481697 1_555
La6 O13 2.571964 1_565
La6 O1 2.701550 1_555
La6 O19 2.894912 1_555
La6 O23 3.016001 1_555
La6 O23 3.103725 1_455
La7 O6 2.419392 1_445
La7 O15 2.449814 1_455
La7 O4 2.451637 1_555
La7 O20 2.454533 1_555
La7 O16 2.522832 1_555
La7 O0 2.553757 1_555
La7 O17 2.861841 1_555
La7 O21 3.059531 1_455
Al0 O5 1.742231 1_655
Al0 O1 1.770468 1_555
Al0 O7 1.772174 1_555
Al0 O23 1.787838 1_555
Al1 O10 1.759383 1_445
Al1 O5 1.770418 1_554
Al1 O9 1.775119 1_555
Al1 O0 1.803206 1_555
Al2 O3 1.742231 1_555
Al2 O8 1.770468 1_555
Al2 O2 1.772174 1_555
Al2 O11 1.787838 1_555
Al3 O4 1.759383 1_565
Al3 O3 1.770418 1_555
Al3 O6 1.775119 1_555
Al3 O12 1.803206 1_555
Al4 O19 1.759383 1_545
Al4 O20 1.770418 1_555
Al4 O17 1.775119 1_555
Al4 O11 1.803206 1_555
Al5 O20 1.742231 1_555
Al5 O15 1.770468 1_555
Al5 O21 1.772174 1_555
Al5 O12 1.787838 1_555
Al6 O13 1.759383 1_665
Al6 O18 1.770418 1_556
Al6 O14 1.775119 1_555
Al6 O23 1.803206 1_555
Al7 O18 1.742231 1_455
Al7 O22 1.770468 1_555
Al7 O16 1.772174 1_555
Al7 O0 1.787838 1_555
