# generated using pymatgen
data_Li2CuCO4
_symmetry_space_group_name_H-M   'P 1'
_cell_length_a   5.05213800
_cell_length_b   6.90131300
_cell_length_c   10.71298387
_cell_angle_alpha   81.20749440
_cell_angle_beta   90.00000000
_cell_angle_gamma   90.00000000
_symmetry_Int_Tables_number   1
_chemical_formula_structural   Li2CuCO4
_chemical_formula_sum   'Li8 Cu4 C4 O16'
_cell_volume   369.13352806
_cell_formula_units_Z   4
loop_
 _symmetry_equiv_pos_site_id
 _symmetry_equiv_pos_as_xyz
  1  'x, y, z'
loop_
 _atom_site_type_symbol
 _atom_site_label
 _atom_site_symmetry_multiplicity
 _atom_site_fract_x
 _atom_site_fract_y
 _atom_site_fract_z
 _atom_site_occupancy
  Li  Li0  1  0.66098200  0.88351200  0.79123300  1
  Li  Li1  1  0.83901800  0.88351200  0.29123300  1
  Li  Li2  1  0.82408300  0.77619600  0.56767700  1
  Li  Li3  1  0.67591700  0.77619600  0.06767700  1
  Li  Li4  1  0.32408300  0.22380400  0.93232300  1
  Li  Li5  1  0.17591700  0.22380400  0.43232300  1
  Li  Li6  1  0.16098200  0.11648800  0.70876700  1
  Li  Li7  1  0.33901800  0.11648800  0.20876700  1
  Cu  Cu0  1  0.83774200  0.46254200  0.82173500  1
  Cu  Cu1  1  0.33774200  0.53745800  0.67826500  1
  Cu  Cu2  1  0.66225800  0.46254200  0.32173500  1
  Cu  Cu3  1  0.16225800  0.53745800  0.17826500  1
  C  C0  1  0.17394700  0.81594400  0.93910100  1
  C  C1  1  0.32605300  0.81594400  0.43910100  1
  C  C2  1  0.67394700  0.18405600  0.56089900  1
  C  C3  1  0.82605300  0.18405600  0.06089900  1
  O  O0  1  0.30785400  0.94037300  0.85952400  1
  O  O1  1  0.19214600  0.94037300  0.35952400  1
  O  O2  1  0.92365400  0.79496300  0.92740200  1
  O  O3  1  0.57634600  0.79496300  0.42740200  1
  O  O4  1  0.19442400  0.71412000  0.53183100  1
  O  O5  1  0.65497100  0.64649200  0.71581600  1
  O  O6  1  0.30557600  0.71412000  0.03183100  1
  O  O7  1  0.84502900  0.64649200  0.21581600  1
  O  O8  1  0.15497100  0.35350800  0.78418400  1
  O  O9  1  0.69442400  0.28588000  0.96816900  1
  O  O10  1  0.34502900  0.35350800  0.28418400  1
  O  O11  1  0.80557600  0.28588000  0.46816900  1
  O  O12  1  0.42365400  0.20503700  0.57259800  1
  O  O13  1  0.07634600  0.20503700  0.07259800  1
  O  O14  1  0.80785400  0.05962700  0.64047600  1
  O  O15  1  0.69214600  0.05962700  0.14047600  1
loop_
_geom_bond_atom_site_label_1
_geom_bond_atom_site_label_2
_geom_bond_distance
_geom_bond_site_symmetry_2
Li0 O5 1.932199 1_555
Li0 O0 1.989934 1_555
Li0 O2 1.997503 1_555
Li0 O14 2.009017 1_565
Li1 O7 1.932199 1_555
Li1 O1 1.989934 1_655
Li1 O3 1.997503 1_555
Li1 O15 2.009017 1_565
Li2 O5 1.901454 1_555
Li2 O3 1.944757 1_555
Li2 O4 1.970276 1_655
Li2 O14 2.215275 1_565
Li3 O7 1.901454 1_555
Li3 O2 1.944757 1_554
Li3 O6 1.970276 1_555
Li3 O15 2.215275 1_565
Li4 O8 1.901454 1_555
Li4 O13 1.944757 1_556
Li4 O9 1.970276 1_555
Li4 O0 2.215275 1_545
Li5 O10 1.901454 1_555
Li5 O12 1.944757 1_555
Li5 O11 1.970276 1_455
Li5 O1 2.215275 1_545
Li6 O8 1.932199 1_555
Li6 O14 1.989934 1_455
Li6 O12 1.997503 1_555
Li6 O0 2.009017 1_545
Li7 O10 1.932199 1_555
Li7 O15 1.989934 1_555
Li7 O13 1.997503 1_555
Li7 O1 2.009017 1_545
Cu0 O5 1.819737 1_555
Cu0 O8 1.840977 1_655
Cu0 O9 1.971539 1_555
Cu1 O8 1.819737 1_555
Cu1 O5 1.840977 1_555
Cu1 O4 1.971539 1_555
Cu2 O7 1.819737 1_555
Cu2 O10 1.840977 1_555
Cu2 O11 1.971539 1_555
Cu3 O10 1.819737 1_555
Cu3 O7 1.840977 1_455
Cu3 O6 1.971539 1_555
C0 O2 1.281101 1_455
C0 O0 1.303091 1_555
C0 O6 1.307481 1_556
C1 O3 1.281101 1_555
C1 O1 1.303091 1_555
C1 O4 1.307481 1_555
C2 O12 1.281101 1_555
C2 O14 1.303091 1_555
C2 O11 1.307481 1_555
C3 O13 1.281101 1_655
C3 O15 1.303091 1_555
C3 O9 1.307481 1_554
