# generated using pymatgen
data_YAlO3
_symmetry_space_group_name_H-M   'P 1'
_cell_length_a   6.73805642
_cell_length_b   6.73805642
_cell_length_c   10.11813900
_cell_angle_alpha   90.00000000
_cell_angle_beta   90.00000000
_cell_angle_gamma   120.16636274
_symmetry_Int_Tables_number   1
_chemical_formula_structural   YAlO3
_chemical_formula_sum   'Y6 Al6 O18'
_cell_volume   397.16417997
_cell_formula_units_Z   6
loop_
 _symmetry_equiv_pos_site_id
 _symmetry_equiv_pos_as_xyz
  1  'x, y, z'
loop_
 _atom_site_type_symbol
 _atom_site_label
 _atom_site_symmetry_multiplicity
 _atom_site_fract_x
 _atom_site_fract_y
 _atom_site_fract_z
 _atom_site_occupancy
  Y  Y0  1  0.83014600  0.16985400  0.50000000  1
  Y  Y1  1  0.83014600  0.16985400  0.00000000  1
  Y  Y2  1  0.16985400  0.83014600  0.50000000  1
  Y  Y3  1  0.16985400  0.83014600  0.00000000  1
  Y  Y4  1  0.50000000  0.50000000  0.00000000  1
  Y  Y5  1  0.50000000  0.50000000  0.50000000  1
  Al  Al0  1  0.56552600  0.83439600  0.25000000  1
  Al  Al1  1  0.16560400  0.43447400  0.75000000  1
  Al  Al2  1  0.83439600  0.56552600  0.25000000  1
  Al  Al3  1  0.43447400  0.16560400  0.75000000  1
  Al  Al4  1  0.89325100  0.89325100  0.75000000  1
  Al  Al5  1  0.10674900  0.10674900  0.25000000  1
  O  O0  1  0.83614500  0.09292900  0.25000000  1
  O  O1  1  0.90707100  0.16385500  0.75000000  1
  O  O2  1  0.47774200  0.83366200  0.08814500  1
  O  O3  1  0.47774200  0.83366200  0.41185500  1
  O  O4  1  0.16633800  0.52225800  0.58814500  1
  O  O5  1  0.16633800  0.52225800  0.91185500  1
  O  O6  1  0.83366200  0.47774200  0.41185500  1
  O  O7  1  0.52225800  0.16633800  0.58814500  1
  O  O8  1  0.83366200  0.47774200  0.08814500  1
  O  O9  1  0.52225800  0.16633800  0.91185500  1
  O  O10  1  0.09292900  0.83614500  0.25000000  1
  O  O11  1  0.16385500  0.90707100  0.75000000  1
  O  O12  1  0.42558500  0.42558500  0.75000000  1
  O  O13  1  0.81220800  0.81220800  0.58368000  1
  O  O14  1  0.81220800  0.81220800  0.91632000  1
  O  O15  1  0.18779200  0.18779200  0.08368000  1
  O  O16  1  0.18779200  0.18779200  0.41632000  1
  O  O17  1  0.57441500  0.57441500  0.25000000  1
loop_
_geom_bond_atom_site_label_1
_geom_bond_atom_site_label_2
_geom_bond_distance
_geom_bond_site_symmetry_2
Al0 O3 1.740378 1_555
Al0 O2 1.740378 1_555
Al0 O0 1.779644 1_565
Al0 O17 1.782617 1_555
Al1 O5 1.740378 1_555
Al1 O4 1.740378 1_555
Al1 O1 1.779644 1_455
Al1 O12 1.782617 1_555
Al2 O6 1.740378 1_555
Al2 O8 1.740378 1_555
Al2 O10 1.779644 1_655
Al2 O17 1.782617 1_555
Al3 O7 1.740378 1_555
Al3 O9 1.740378 1_555
Al3 O11 1.779644 1_545
Al3 O12 1.782617 1_555
Al4 O13 1.768807 1_555
Al4 O14 1.768807 1_555
Al4 O11 1.778374 1_655
Al4 O1 1.778374 1_565
Al5 O15 1.768807 1_555
Al5 O16 1.768807 1_555
Al5 O10 1.778374 1_545
Al5 O0 1.778374 1_455
O0 Y1 2.586484 1_555
O0 Y0 2.586484 1_555
O1 Y1 2.586484 1_556
O1 Y0 2.586484 1_555
O2 Y3 2.247312 1_555
O2 Y1 2.481788 1_565
O2 Y4 2.492256 1_555
O3 Y2 2.247312 1_555
O3 Y0 2.481788 1_565
O3 Y5 2.492256 1_555
O4 Y2 2.247312 1_555
O4 Y0 2.481788 1_455
O4 Y5 2.492256 1_555
O5 Y3 2.247312 1_556
O5 Y1 2.481788 1_456
O5 Y4 2.492256 1_556
O6 Y0 2.247312 1_555
O6 Y2 2.481788 1_655
O6 Y5 2.492256 1_555
O7 Y0 2.247312 1_555
O7 Y2 2.481788 1_545
O7 Y5 2.492256 1_555
O8 Y1 2.247312 1_555
O8 Y3 2.481788 1_655
O8 Y4 2.492256 1_555
O9 Y1 2.247312 1_556
O9 Y3 2.481788 1_546
O9 Y4 2.492256 1_556
O10 Y3 2.586484 1_555
O10 Y2 2.586484 1_555
O11 Y3 2.586484 1_556
O11 Y2 2.586484 1_555
O12 Y4 2.578507 1_556
O12 Y5 2.578507 1_555
O13 Y5 2.262761 1_555
O13 Y2 2.499215 1_655
O13 Y0 2.499215 1_565
O14 Y4 2.262761 1_556
O14 Y1 2.499215 1_566
O14 Y3 2.499215 1_656
O15 Y4 2.262761 1_555
O15 Y3 2.499215 1_545
O15 Y1 2.499215 1_455
O16 Y5 2.262761 1_555
O16 Y2 2.499215 1_545
O16 Y0 2.499215 1_455
O17 Y5 2.578507 1_555
O17 Y4 2.578507 1_555
