# generated using pymatgen
data_ScTiO3
_symmetry_space_group_name_H-M   'P 1'
_cell_length_a   5.15558600
_cell_length_b   5.51972200
_cell_length_c   7.53918900
_cell_angle_alpha   90.00000000
_cell_angle_beta   90.00000000
_cell_angle_gamma   90.00000000
_symmetry_Int_Tables_number   1
_chemical_formula_structural   ScTiO3
_chemical_formula_sum   'Sc4 Ti4 O12'
_cell_volume   214.54572811
_cell_formula_units_Z   4
loop_
 _symmetry_equiv_pos_site_id
 _symmetry_equiv_pos_as_xyz
  1  'x, y, z'
loop_
 _atom_site_type_symbol
 _atom_site_label
 _atom_site_symmetry_multiplicity
 _atom_site_fract_x
 _atom_site_fract_y
 _atom_site_fract_z
 _atom_site_occupancy
  Sc  Sc0  1  0.98027100  0.93105500  0.74970100  1
  Sc  Sc1  1  0.51972900  0.43105500  0.74970100  1
  Sc  Sc2  1  0.48027100  0.56894500  0.24970100  1
  Sc  Sc3  1  0.01972900  0.06894500  0.24970100  1
  Ti  Ti0  1  0.00112500  0.50364500  0.50670800  1
  Ti  Ti1  1  0.49887500  0.00364500  0.50670800  1
  Ti  Ti2  1  0.50112500  0.99635500  0.00670800  1
  Ti  Ti3  1  0.99887500  0.49635500  0.00670800  1
  O  O0  1  0.85563800  0.43023700  0.25865300  1
  O  O1  1  0.81606900  0.19830700  0.58098400  1
  O  O2  1  0.82815600  0.17684500  0.94420400  1
  O  O3  1  0.68393100  0.69830700  0.58098400  1
  O  O4  1  0.67184400  0.67684500  0.94420400  1
  O  O5  1  0.64436200  0.93023700  0.25865300  1
  O  O6  1  0.35563800  0.06976300  0.75865300  1
  O  O7  1  0.31606900  0.30169300  0.08098400  1
  O  O8  1  0.32815600  0.32315500  0.44420400  1
  O  O9  1  0.18393100  0.80169300  0.08098400  1
  O  O10  1  0.17184400  0.82315500  0.44420400  1
  O  O11  1  0.14436200  0.56976300  0.75865300  1
loop_
_geom_bond_atom_site_label_1
_geom_bond_atom_site_label_2
_geom_bond_distance
_geom_bond_site_symmetry_2
O0 Ti0 2.055282 1_655
O0 Ti3 2.070382 1_555
O0 Sc2 2.082279 1_555
O0 Sc3 2.167304 1_655
O1 Ti0 2.016021 1_655
O1 Ti1 2.035279 1_555
O1 Sc0 2.123842 1_545
O1 Sc1 2.366984 1_555
O1 Sc3 2.801849 1_655
O2 Ti2 2.014274 1_546
O2 Ti3 2.026583 1_556
O2 Sc0 2.146151 1_545
O2 Sc3 2.575837 1_656
O2 Sc1 2.578310 1_555
O3 Ti1 2.016021 1_565
O3 Ti0 2.035279 1_655
O3 Sc1 2.123842 1_555
O3 Sc0 2.366984 1_555
O3 Sc2 2.801849 1_555
O4 Ti3 2.014274 1_556
O4 Ti2 2.026583 1_556
O4 Sc1 2.146151 1_555
O4 Sc2 2.575837 1_556
O4 Sc0 2.578310 1_555
O5 Ti1 2.055282 1_565
O5 Ti2 2.070382 1_555
O5 Sc3 2.082279 1_665
O5 Sc2 2.167304 1_555
O6 Ti2 2.055282 1_546
O6 Ti1 2.070382 1_555
O6 Sc0 2.082279 1_445
O6 Sc1 2.167304 1_555
O7 Ti2 2.016021 1_545
O7 Ti3 2.035279 1_455
O7 Sc2 2.123842 1_555
O7 Sc3 2.366984 1_555
O7 Sc1 2.801849 1_554
O8 Ti0 2.014274 1_555
O8 Ti1 2.026583 1_555
O8 Sc2 2.146151 1_555
O8 Sc1 2.575837 1_555
O8 Sc3 2.578310 1_555
O9 Ti3 2.016021 1_455
O9 Ti2 2.035279 1_555
O9 Sc3 2.123842 1_565
O9 Sc2 2.366984 1_555
O9 Sc0 2.801849 1_454
O10 Ti1 2.014274 1_565
O10 Ti0 2.026583 1_555
O10 Sc3 2.146151 1_565
O10 Sc0 2.575837 1_455
O10 Sc2 2.578310 1_555
O11 Ti3 2.055282 1_456
O11 Ti0 2.070382 1_555
O11 Sc1 2.082279 1_555
O11 Sc0 2.167304 1_455
