# generated using pymatgen
data_Na3(CoO2)2
_symmetry_space_group_name_H-M   'P 1'
_cell_length_a   5.63940200
_cell_length_b   8.60423700
_cell_length_c   10.09227200
_cell_angle_alpha   90.00000000
_cell_angle_beta   90.00000000
_cell_angle_gamma   90.00000000
_symmetry_Int_Tables_number   1
_chemical_formula_structural   Na3(CoO2)2
_chemical_formula_sum   'Na12 Co8 O16'
_cell_volume   489.70480477
_cell_formula_units_Z   4
loop_
 _symmetry_equiv_pos_site_id
 _symmetry_equiv_pos_as_xyz
  1  'x, y, z'
loop_
 _atom_site_type_symbol
 _atom_site_label
 _atom_site_symmetry_multiplicity
 _atom_site_fract_x
 _atom_site_fract_y
 _atom_site_fract_z
 _atom_site_occupancy
  Na  Na0  1  0.03905900  0.14614800  0.10094000  1
  Na  Na1  1  0.03905900  0.14614800  0.39906000  1
  Na  Na2  1  0.13736600  0.82207000  0.25000000  1
  Na  Na3  1  0.36263400  0.32207000  0.75000000  1
  Na  Na4  1  0.46094100  0.64614800  0.89906000  1
  Na  Na5  1  0.46094100  0.64614800  0.60094000  1
  Na  Na6  1  0.53905900  0.35385200  0.10094000  1
  Na  Na7  1  0.53905900  0.35385200  0.39906000  1
  Na  Na8  1  0.63736600  0.67793000  0.25000000  1
  Na  Na9  1  0.86263400  0.17793000  0.75000000  1
  Na  Na10  1  0.96094100  0.85385200  0.60094000  1
  Na  Na11  1  0.96094100  0.85385200  0.89906000  1
  Co  Co0  1  0.04429400  0.48689600  0.11947200  1
  Co  Co1  1  0.04429400  0.48689600  0.38052800  1
  Co  Co2  1  0.45570600  0.98689600  0.88052800  1
  Co  Co3  1  0.45570600  0.98689600  0.61947200  1
  Co  Co4  1  0.54429400  0.01310400  0.11947200  1
  Co  Co5  1  0.54429400  0.01310400  0.38052800  1
  Co  Co6  1  0.95570600  0.51310400  0.61947200  1
  Co  Co7  1  0.95570600  0.51310400  0.88052800  1
  O  O0  1  0.12552400  0.63631800  0.75000000  1
  O  O1  1  0.20361600  0.39917200  0.53221200  1
  O  O2  1  0.20361600  0.39917200  0.96778800  1
  O  O3  1  0.22829200  0.05693800  0.75000000  1
  O  O4  1  0.27170800  0.55693800  0.25000000  1
  O  O5  1  0.29638400  0.89917200  0.03221200  1
  O  O6  1  0.29638400  0.89917200  0.46778800  1
  O  O7  1  0.37447600  0.13631800  0.25000000  1
  O  O8  1  0.62552400  0.86368200  0.75000000  1
  O  O9  1  0.70361600  0.10082800  0.53221200  1
  O  O10  1  0.70361600  0.10082800  0.96778800  1
  O  O11  1  0.72829200  0.44306200  0.75000000  1
  O  O12  1  0.77170800  0.94306200  0.25000000  1
  O  O13  1  0.79638400  0.60082800  0.03221200  1
  O  O14  1  0.79638400  0.60082800  0.46778800  1
  O  O15  1  0.87447600  0.36368200  0.25000000  1
loop_
_geom_bond_atom_site_label_1
_geom_bond_atom_site_label_2
_geom_bond_distance
_geom_bond_site_symmetry_2
Na0 O10 2.352954 1_454
Na0 O7 2.418305 1_555
Na0 O15 2.574462 1_455
Na0 O5 2.665102 1_545
Na0 O2 2.721521 1_554
Na0 O12 2.754931 1_445
Na1 O9 2.352954 1_455
Na1 O7 2.418305 1_555
Na1 O15 2.574462 1_455
Na1 O6 2.665102 1_545
Na1 O1 2.721521 1_555
Na1 O12 2.754931 1_445
Na2 O12 2.309978 1_455
Na2 O4 2.403770 1_555
Na2 O6 2.464831 1_555
Na2 O5 2.464831 1_555
Na3 O11 2.309978 1_555
Na3 O3 2.403770 1_555
Na3 O2 2.464831 1_555
Na3 O1 2.464831 1_555
Na4 O13 2.352954 1_556
Na4 O0 2.418305 1_555
Na4 O8 2.574462 1_555
Na4 O2 2.665102 1_555
Na4 O5 2.721521 1_556
Na4 O11 2.754931 1_555
Na5 O14 2.352954 1_555
Na5 O0 2.418305 1_555
Na5 O8 2.574462 1_555
Na5 O1 2.665102 1_555
Na5 O6 2.721521 1_555
Na5 O11 2.754931 1_555
Na6 O2 2.352954 1_554
Na6 O15 2.418305 1_555
Na6 O7 2.574462 1_555
Na6 O13 2.665102 1_555
Na6 O10 2.721521 1_554
Na6 O4 2.754931 1_555
Na7 O1 2.352954 1_555
Na7 O15 2.418305 1_555
Na7 O7 2.574462 1_555
Na7 O14 2.665102 1_555
Na7 O9 2.721521 1_555
Na7 O4 2.754931 1_555
Na8 O4 2.309978 1_555
Na8 O12 2.403770 1_555
Na8 O14 2.464831 1_555
Na8 O13 2.464831 1_555
Na9 O3 2.309978 1_655
Na9 O11 2.403770 1_555
Na9 O9 2.464831 1_555
Na9 O10 2.464831 1_555
Na10 O6 2.352954 1_655
Na10 O8 2.418305 1_555
Na10 O0 2.574462 1_655
Na10 O9 2.665102 1_565
Na10 O14 2.721521 1_555
Na10 O3 2.754931 1_665
Na11 O5 2.352954 1_656
Na11 O8 2.418305 1_555
Na11 O0 2.574462 1_655
Na11 O10 2.665102 1_565
Na11 O13 2.721521 1_556
Na11 O3 2.754931 1_665
Co0 O13 1.921227 1_455
Co0 O2 1.928846 1_554
Co0 O4 1.934759 1_555
Co0 O15 1.943302 1_455
Co1 O14 1.921227 1_455
Co1 O1 1.928846 1_555
Co1 O4 1.934759 1_555
Co1 O15 1.943302 1_455
Co2 O10 1.921227 1_565
Co2 O5 1.928846 1_556
Co2 O3 1.934759 1_565
Co2 O8 1.943302 1_555
Co3 O9 1.921227 1_565
Co3 O6 1.928846 1_555
Co3 O3 1.934759 1_565
Co3 O8 1.943302 1_555
Co4 O5 1.921227 1_545
Co4 O10 1.928846 1_554
Co4 O12 1.934759 1_545
Co4 O7 1.943302 1_555
Co5 O6 1.921227 1_545
Co5 O9 1.928846 1_555
Co5 O12 1.934759 1_545
Co5 O7 1.943302 1_555
Co6 O1 1.921227 1_655
Co6 O14 1.928846 1_555
Co6 O11 1.934759 1_555
Co6 O0 1.943302 1_655
Co7 O2 1.921227 1_655
Co7 O13 1.928846 1_556
Co7 O11 1.934759 1_555
Co7 O0 1.943302 1_655
