# generated using pymatgen
data_SrCoBiRuO6
_symmetry_space_group_name_H-M   'P 1'
_cell_length_a   5.65158400
_cell_length_b   5.69495400
_cell_length_c   9.67983762
_cell_angle_alpha   54.47949668
_cell_angle_beta   90.00000000
_cell_angle_gamma   90.00000000
_symmetry_Int_Tables_number   1
_chemical_formula_structural   SrCoBiRuO6
_chemical_formula_sum   'Sr2 Co2 Bi2 Ru2 O12'
_cell_volume   253.57335457
_cell_formula_units_Z   2
loop_
 _symmetry_equiv_pos_site_id
 _symmetry_equiv_pos_as_xyz
  1  'x, y, z'
loop_
 _atom_site_type_symbol
 _atom_site_label
 _atom_site_symmetry_multiplicity
 _atom_site_fract_x
 _atom_site_fract_y
 _atom_site_fract_z
 _atom_site_occupancy
  Sr  Sr0  1  0.27397400  0.75062500  0.25040400  1
  Sr  Sr1  1  0.72602600  0.75062500  0.75040400  1
  Co  Co0  1  0.25267600  0.49674200  0.00049000  1
  Co  Co1  1  0.74732400  0.49674200  0.50049000  1
  Bi  Bi0  1  0.78886600  0.21619200  0.24905700  1
  Bi  Bi1  1  0.21113400  0.21619200  0.74905700  1
  Ru  Ru0  1  0.25254600  0.00098200  0.49958900  1
  Ru  Ru1  1  0.74745400  0.00098200  0.99958900  1
  O  O0  1  0.76923900  0.31515000  0.75692800  1
  O  O1  1  0.00578100  0.18300900  0.05130200  1
  O  O2  1  0.01541800  0.79751000  0.45080100  1
  O  O3  1  0.53786100  0.22762100  0.04925600  1
  O  O4  1  0.52886800  0.84101200  0.45092300  1
  O  O5  1  0.26165500  0.67115600  0.74125100  1
  O  O6  1  0.23076100  0.31515000  0.25692800  1
  O  O7  1  0.99421900  0.18300900  0.55130200  1
  O  O8  1  0.98458200  0.79751000  0.95080100  1
  O  O9  1  0.47113200  0.84101200  0.95092300  1
  O  O10  1  0.46213900  0.22762100  0.54925600  1
  O  O11  1  0.73834500  0.67115600  0.24125100  1
loop_
_geom_bond_atom_site_label_1
_geom_bond_atom_site_label_2
_geom_bond_distance
_geom_bond_site_symmetry_2
Co0 O6 2.064855 1_555
Co0 O3 2.080588 1_555
Co0 O1 2.088073 1_555
Co0 O5 2.095218 1_554
Co0 O8 2.122174 1_454
Co0 O9 2.122588 1_554
Co1 O0 2.064855 1_555
Co1 O10 2.080588 1_555
Co1 O7 2.088073 1_555
Co1 O11 2.095218 1_555
Co1 O2 2.122174 1_655
Co1 O4 2.122588 1_555
Bi0 O3 2.368720 1_555
Bi0 O1 2.371333 1_655
Bi0 O4 2.385627 1_545
Bi0 O2 2.393248 1_645
Bi0 O11 2.563790 1_555
Bi0 O6 2.571058 1_655
Bi1 O10 2.368720 1_555
Bi1 O7 2.371333 1_455
Bi1 O9 2.385627 1_545
Bi1 O8 2.393248 1_445
Bi1 O5 2.563790 1_555
Bi1 O0 2.571058 1_455
O0 Ru1 1.962223 1_555
O0 Sr1 2.456033 1_555
O1 Ru1 2.014852 1_454
O1 Sr0 2.561394 1_545
O2 Ru0 1.999411 1_565
O2 Sr0 2.563446 1_555
O3 Ru1 2.005294 1_554
O3 Sr0 2.692317 1_545
O3 Sr1 2.891151 1_554
O4 Ru0 1.997331 1_565
O4 Sr0 2.696031 1_555
O4 Sr1 2.859435 1_555
O5 Ru0 1.974141 1_565
O5 Sr1 2.673370 1_555
O5 Sr1 3.069677 1_455
O6 Ru0 1.962223 1_555
O6 Sr0 2.456033 1_555
O7 Ru0 2.014852 1_655
O7 Sr1 2.561394 1_545
O8 Ru1 1.999411 1_565
O8 Sr1 2.563446 1_555
O9 Ru1 1.997331 1_565
O9 Sr1 2.696031 1_555
O9 Sr0 2.859435 1_556
O10 Ru0 2.005294 1_555
O10 Sr1 2.692317 1_545
O10 Sr0 2.891151 1_555
O11 Ru1 1.974141 1_564
O11 Sr0 2.673370 1_555
O11 Sr0 3.069677 1_655
