# generated using pymatgen
data_Sn8P2O13
_symmetry_space_group_name_H-M   'P 1'
_cell_length_a   7.31873683
_cell_length_b   7.31873683
_cell_length_c   14.34080613
_cell_angle_alpha   84.25657275
_cell_angle_beta   84.25657275
_cell_angle_gamma   88.02714987
_symmetry_Int_Tables_number   1
_chemical_formula_structural   Sn8P2O13
_chemical_formula_sum   'Sn16 P4 O26'
_cell_volume   760.22555253
_cell_formula_units_Z   2
loop_
 _symmetry_equiv_pos_site_id
 _symmetry_equiv_pos_as_xyz
  1  'x, y, z'
loop_
 _atom_site_type_symbol
 _atom_site_label
 _atom_site_symmetry_multiplicity
 _atom_site_fract_x
 _atom_site_fract_y
 _atom_site_fract_z
 _atom_site_occupancy
  Sn  Sn0  1  0.92574100  0.92574100  0.69443400  1
  Sn  Sn1  1  0.73700700  0.73700700  0.51243800  1
  Sn  Sn2  1  0.67247000  0.67247000  0.89087700  1
  Sn  Sn3  1  0.45190400  0.92422000  0.70587700  1
  Sn  Sn4  1  0.92422000  0.45190400  0.70587700  1
  Sn  Sn5  1  0.57433900  0.57433900  0.28449600  1
  Sn  Sn6  1  0.32922300  0.83796700  0.09640300  1
  Sn  Sn7  1  0.83796700  0.32922300  0.09640300  1
  Sn  Sn8  1  0.67077700  0.16203300  0.90359700  1
  Sn  Sn9  1  0.16203300  0.67077700  0.90359700  1
  Sn  Sn10  1  0.42566100  0.42566100  0.71550400  1
  Sn  Sn11  1  0.54809600  0.07578000  0.29412300  1
  Sn  Sn12  1  0.07578000  0.54809600  0.29412300  1
  Sn  Sn13  1  0.32753000  0.32753000  0.10912300  1
  Sn  Sn14  1  0.26299300  0.26299300  0.48756200  1
  Sn  Sn15  1  0.07425900  0.07425900  0.30556600  1
  P  P0  1  0.84431100  0.84431100  0.09869200  1
  P  P1  1  0.74660400  0.25339600  0.50000000  1
  P  P2  1  0.25339600  0.74660400  0.50000000  1
  P  P3  1  0.15568900  0.15568900  0.90130800  1
  O  O0  1  0.85198400  0.85198400  0.98995300  1
  O  O1  1  0.66529300  0.94832400  0.80937500  1
  O  O2  1  0.94832400  0.66529300  0.80937500  1
  O  O3  1  0.73057200  0.73057200  0.66197300  1
  O  O4  1  0.21706200  0.96579700  0.86539400  1
  O  O5  1  0.96579700  0.21706200  0.86539400  1
  O  O6  1  0.70082000  0.70082000  0.14357900  1
  O  O7  1  0.42210900  0.73580900  0.56042700  1
  O  O8  1  0.73580900  0.42210900  0.56042700  1
  O  O9  1  0.67051600  0.38128500  0.78747900  1
  O  O10  1  0.38128500  0.67051600  0.78747900  1
  O  O11  1  0.26099600  0.92690600  0.43252600  1
  O  O12  1  0.92690600  0.26099600  0.43252600  1
  O  O13  1  0.73900400  0.07309400  0.56747400  1
  O  O14  1  0.07309400  0.73900400  0.56747400  1
  O  O15  1  0.61871500  0.32948400  0.21252100  1
  O  O16  1  0.32948400  0.61871500  0.21252100  1
  O  O17  1  0.57789100  0.26419100  0.43957300  1
  O  O18  1  0.26419100  0.57789100  0.43957300  1
  O  O19  1  0.29918000  0.29918000  0.85642100  1
  O  O20  1  0.78293800  0.03420300  0.13460600  1
  O  O21  1  0.03420300  0.78293800  0.13460600  1
  O  O22  1  0.26942800  0.26942800  0.33802700  1
  O  O23  1  0.33470700  0.05167600  0.19062500  1
  O  O24  1  0.05167600  0.33470700  0.19062500  1
  O  O25  1  0.14801600  0.14801600  0.01004700  1
loop_
_geom_bond_atom_site_label_1
_geom_bond_atom_site_label_2
_geom_bond_distance
_geom_bond_site_symmetry_2
O0 P0 1.550230 1_556
O0 Sn2 2.517352 1_555
O1 Sn8 2.170696 1_565
O1 Sn2 2.231037 1_555
O1 Sn3 2.282202 1_555
O1 Sn0 2.404526 1_555
O2 Sn9 2.170696 1_655
O2 Sn2 2.231037 1_555
O2 Sn4 2.282202 1_555
O2 Sn0 2.404526 1_555
O3 Sn1 2.136080 1_555
O3 Sn0 2.168861 1_555
O3 Sn4 2.507422 1_555
O3 Sn3 2.507422 1_555
O4 P3 1.566032 1_565
O4 Sn9 2.214348 1_555
O5 P3 1.566032 1_655
O5 Sn8 2.214348 1_555
O6 P0 1.557378 1_555
O6 Sn5 2.260052 1_555
O7 P2 1.573397 1_555
O7 Sn1 2.338348 1_555
O7 Sn3 2.643345 1_555
O8 P1 1.573397 1_555
O8 Sn1 2.338348 1_555
O8 Sn4 2.643345 1_555
O9 Sn4 2.143451 1_555
O9 Sn10 2.155293 1_555
O9 Sn8 2.193966 1_555
O9 Sn2 2.716498 1_555
O10 Sn3 2.143451 1_555
O10 Sn10 2.155293 1_555
O10 Sn9 2.193966 1_555
O10 Sn2 2.716498 1_555
O11 P2 1.555449 1_555
O11 Sn15 2.519797 1_565
O11 Sn14 2.658340 1_565
O12 P1 1.555449 1_555
O12 Sn15 2.519797 1_655
O12 Sn14 2.658340 1_655
O13 P1 1.555449 1_555
O13 Sn0 2.519797 1_545
O13 Sn1 2.658340 1_545
O14 P2 1.555449 1_555
O14 Sn0 2.519797 1_455
O14 Sn1 2.658340 1_455
O15 Sn11 2.143451 1_555
O15 Sn5 2.155293 1_555
O15 Sn7 2.193966 1_555
O15 Sn13 2.716498 1_555
O16 Sn12 2.143451 1_555
O16 Sn5 2.155293 1_555
O16 Sn6 2.193966 1_555
O16 Sn13 2.716498 1_555
O17 P1 1.573397 1_555
O17 Sn14 2.338348 1_555
O17 Sn11 2.643345 1_555
O18 P2 1.573397 1_555
O18 Sn14 2.338348 1_555
O18 Sn12 2.643345 1_555
O19 P3 1.557378 1_555
O19 Sn10 2.260052 1_555
O20 P0 1.566032 1_545
O20 Sn7 2.214348 1_555
O21 P0 1.566032 1_455
O21 Sn6 2.214348 1_555
O22 Sn14 2.136080 1_555
O22 Sn15 2.168861 1_555
O22 Sn11 2.507422 1_555
O22 Sn12 2.507422 1_555
O23 Sn6 2.170696 1_545
O23 Sn13 2.231037 1_555
O23 Sn11 2.282202 1_555
O23 Sn15 2.404526 1_555
O24 Sn7 2.170696 1_455
O24 Sn13 2.231037 1_555
O24 Sn12 2.282202 1_555
O24 Sn15 2.404526 1_555
O25 P3 1.550230 1_554
O25 Sn13 2.517352 1_555
