# generated using pymatgen
data_BaCaI4
_symmetry_space_group_name_H-M   'P 1'
_cell_length_a   9.22187180
_cell_length_b   9.22187180
_cell_length_c   7.76870923
_cell_angle_alpha   71.34484592
_cell_angle_beta   71.34484592
_cell_angle_gamma   110.41339715
_symmetry_Int_Tables_number   1
_chemical_formula_structural   BaCaI4
_chemical_formula_sum   'Ba2 Ca2 I8'
_cell_volume   512.75008452
_cell_formula_units_Z   2
loop_
 _symmetry_equiv_pos_site_id
 _symmetry_equiv_pos_as_xyz
  1  'x, y, z'
loop_
 _atom_site_type_symbol
 _atom_site_label
 _atom_site_symmetry_multiplicity
 _atom_site_fract_x
 _atom_site_fract_y
 _atom_site_fract_z
 _atom_site_occupancy
  Ba  Ba0  1  0.63457800  0.36542200  0.75000000  1
  Ba  Ba1  1  0.36542200  0.63457800  0.25000000  1
  Ca  Ca0  1  0.00239900  0.99760100  0.25000000  1
  Ca  Ca1  1  0.99760100  0.00239900  0.75000000  1
  I  I0  1  0.64786500  0.77083400  0.71882400  1
  I  I1  1  0.94170900  0.28426100  0.42054900  1
  I  I2  1  0.22916600  0.35213500  0.78117600  1
  I  I3  1  0.71573900  0.05829100  0.07945100  1
  I  I4  1  0.28426100  0.94170900  0.92054900  1
  I  I5  1  0.77083400  0.64786500  0.21882400  1
  I  I6  1  0.05829100  0.71573900  0.57945100  1
  I  I7  1  0.35213500  0.22916600  0.28117600  1
loop_
_geom_bond_atom_site_label_1
_geom_bond_atom_site_label_2
_geom_bond_distance
_geom_bond_site_symmetry_2
Ba0 I4 3.550211 1_545
Ba0 I6 3.550211 1_655
Ba0 I7 3.593769 1_556
Ba0 I5 3.593769 1_555
Ba0 I2 3.624004 1_555
Ba0 I0 3.624004 1_555
Ba0 I1 3.633118 1_555
Ba0 I3 3.633118 1_556
Ba1 I1 3.550211 1_455
Ba1 I3 3.550211 1_565
Ba1 I0 3.593769 1_554
Ba1 I2 3.593769 1_555
Ba1 I5 3.624004 1_555
Ba1 I7 3.624004 1_555
Ba1 I4 3.633118 1_554
Ba1 I6 3.633118 1_555
Ca0 I5 3.323707 1_455
Ca0 I7 3.323707 1_565
Ca0 I0 3.326830 1_455
Ca0 I2 3.326830 1_564
Ca0 I4 3.330933 1_554
Ca0 I6 3.330933 1_555
Ca0 I1 3.443176 1_465
Ca0 I3 3.443176 1_465
Ca1 I0 3.323707 1_545
Ca1 I2 3.323707 1_655
Ca1 I5 3.326830 1_546
Ca1 I7 3.326830 1_655
Ca1 I3 3.330933 1_556
Ca1 I1 3.330933 1_555
Ca1 I4 3.443176 1_645
Ca1 I6 3.443176 1_645
