# generated using pymatgen
data_Ni3OF5
_symmetry_space_group_name_H-M   'P 1'
_cell_length_a   5.62720700
_cell_length_b   5.63391084
_cell_length_c   7.33416919
_cell_angle_alpha   72.33621753
_cell_angle_beta   72.33036264
_cell_angle_gamma   72.39750343
_symmetry_Int_Tables_number   1
_chemical_formula_structural   Ni3OF5
_chemical_formula_sum   'Ni6 O2 F10'
_cell_volume   205.35983312
_cell_formula_units_Z   2
loop_
 _symmetry_equiv_pos_site_id
 _symmetry_equiv_pos_as_xyz
  1  'x, y, z'
loop_
 _atom_site_type_symbol
 _atom_site_label
 _atom_site_symmetry_multiplicity
 _atom_site_fract_x
 _atom_site_fract_y
 _atom_site_fract_z
 _atom_site_occupancy
  Ni  Ni0  1  0.33375000  0.34148900  0.16237600  1
  Ni  Ni1  1  0.33811100  0.33967100  0.66756500  1
  Ni  Ni2  1  0.66396700  0.66808800  0.34011500  1
  Ni  Ni3  1  0.65479700  0.66318200  0.83229400  1
  Ni  Ni4  1  0.99967100  0.00259000  0.50001800  1
  Ni  Ni5  1  0.00867900  0.98813300  0.99956000  1
  O  O0  1  0.56225800  0.56766100  0.63079100  1
  O  O1  1  0.30448400  0.69297300  0.99771100  1
  F  F0  1  0.36188300  0.97520800  0.32961500  1
  F  F1  1  0.02578400  0.63932900  0.67035000  1
  F  F2  1  0.10533000  0.10493600  0.69994400  1
  F  F3  1  0.43393300  0.43553400  0.36827300  1
  F  F4  1  0.76345300  0.76220300  0.03810700  1
  F  F5  1  0.90015300  0.89888600  0.29840200  1
  F  F6  1  0.23283600  0.23036400  0.96489000  1
  F  F7  1  0.63779400  0.03088900  0.66697500  1
  F  F8  1  0.96919600  0.36458700  0.33368600  1
  F  F9  1  0.70392400  0.29427800  0.99932700  1
loop_
_geom_bond_atom_site_label_1
_geom_bond_atom_site_label_2
_geom_bond_distance
_geom_bond_site_symmetry_2
Ni0 O1 1.969547 1_554
Ni1 O0 1.968933 1_555
Ni2 O0 1.978816 1_555
Ni3 O1 1.964084 1_555
Ni3 O0 1.965746 1_555
Ni5 O1 1.965202 1_555
F0 Ni2 2.027088 1_555
F0 Ni4 2.029925 1_465
F0 Ni0 2.042591 1_565
F1 Ni1 2.035691 1_555
F1 Ni4 2.036833 1_465
F1 Ni3 2.051557 1_455
F2 Ni4 2.021304 1_455
F2 Ni5 2.042295 1_545
F2 Ni1 2.046831 1_555
F3 Ni0 2.015416 1_555
F3 Ni2 2.033254 1_555
F3 Ni1 2.034429 1_555
F4 Ni5 2.052194 1_654
F4 Ni2 2.052981 1_555
F4 Ni3 2.059412 1_554
F5 Ni4 2.016519 1_565
F5 Ni2 2.026767 1_555
F5 Ni5 2.033215 1_654
F6 Ni0 2.019135 1_556
F6 Ni1 2.026533 1_555
F6 Ni5 2.038140 1_545
F7 Ni4 2.019891 1_555
F7 Ni1 2.023867 1_555
F7 Ni3 2.048689 1_545
F8 Ni4 2.020543 1_555
F8 Ni2 2.024732 1_555
F8 Ni0 2.043760 1_655
F9 Ni5 2.031468 1_645
F9 Ni0 2.045873 1_556
F9 Ni3 2.051766 1_555
