# generated using pymatgen
data_Li3FeF6
_symmetry_space_group_name_H-M   'P 1'
_cell_length_a   9.15096853
_cell_length_b   9.15096853
_cell_length_c   9.22334803
_cell_angle_alpha   87.51469692
_cell_angle_beta   87.51469692
_cell_angle_gamma   34.21634107
_symmetry_Int_Tables_number   1
_chemical_formula_structural   Li3FeF6
_chemical_formula_sum   'Li12 Fe4 F24'
_cell_volume   433.86858635
_cell_formula_units_Z   4
loop_
 _symmetry_equiv_pos_site_id
 _symmetry_equiv_pos_as_xyz
  1  'x, y, z'
loop_
 _atom_site_type_symbol
 _atom_site_label
 _atom_site_symmetry_multiplicity
 _atom_site_fract_x
 _atom_site_fract_y
 _atom_site_fract_z
 _atom_site_occupancy
  Li  Li0  1  0.16852300  0.66830600  0.44795300  1
  Li  Li1  1  0.66830600  0.16852300  0.94795300  1
  Li  Li2  1  0.61003600  0.04005000  0.32271400  1
  Li  Li3  1  0.16793400  0.60752600  0.10862400  1
  Li  Li4  1  0.04005000  0.61003600  0.82271400  1
  Li  Li5  1  0.60752600  0.16793400  0.60862400  1
  Li  Li6  1  0.39247400  0.83206600  0.39137600  1
  Li  Li7  1  0.95995000  0.38996400  0.17728600  1
  Li  Li8  1  0.83206600  0.39247400  0.89137600  1
  Li  Li9  1  0.38996400  0.95995000  0.67728600  1
  Li  Li10  1  0.33169400  0.83147700  0.05204700  1
  Li  Li11  1  0.83147700  0.33169400  0.55204700  1
  Fe  Fe0  1  0.50000000  0.00000000  0.00000000  1
  Fe  Fe1  1  0.00000000  0.50000000  0.50000000  1
  Fe  Fe2  1  0.80049400  0.19950600  0.25000000  1
  Fe  Fe3  1  0.19950600  0.80049400  0.75000000  1
  F  F0  1  0.74151400  0.22367400  0.46342200  1
  F  F1  1  0.99525300  0.85269700  0.26381800  1
  F  F2  1  0.50031200  0.32562300  0.21984400  1
  F  F3  1  0.22367400  0.74151400  0.96342200  1
  F  F4  1  0.85269700  0.99525300  0.76381800  1
  F  F5  1  0.32562300  0.50031200  0.71984400  1
  F  F6  1  0.33403600  0.33008700  0.47139700  1
  F  F7  1  0.33008700  0.33403600  0.97139700  1
  F  F8  1  0.82730100  0.84153600  0.01392900  1
  F  F9  1  0.84153600  0.82730100  0.51392900  1
  F  F10  1  0.93283200  0.57846600  0.29538400  1
  F  F11  1  0.42153400  0.06716800  0.20461600  1
  F  F12  1  0.57846600  0.93283200  0.79538400  1
  F  F13  1  0.06716800  0.42153400  0.70461600  1
  F  F14  1  0.15846400  0.17269900  0.48607100  1
  F  F15  1  0.17269900  0.15846400  0.98607100  1
  F  F16  1  0.66991300  0.66596400  0.02860300  1
  F  F17  1  0.66596400  0.66991300  0.52860300  1
  F  F18  1  0.67437700  0.49968800  0.28015600  1
  F  F19  1  0.14730300  0.00474700  0.23618200  1
  F  F20  1  0.77632600  0.25848600  0.03657800  1
  F  F21  1  0.49968800  0.67437700  0.78015600  1
  F  F22  1  0.00474700  0.14730300  0.73618200  1
  F  F23  1  0.25848600  0.77632600  0.53657800  1
loop_
_geom_bond_atom_site_label_1
_geom_bond_atom_site_label_2
_geom_bond_distance
_geom_bond_site_symmetry_2
F0 Li11 1.948667 1_555
F0 Fe2 1.990797 1_555
F0 Li5 2.095188 1_555
F1 Li3 1.948985 1_655
F1 Li0 1.950862 1_655
F1 Fe2 1.973526 1_565
F1 Li2 2.362266 1_565
F2 Fe2 1.936597 1_555
F2 Li3 2.005699 1_555
F2 Li2 2.065334 1_555
F3 Li10 1.948667 1_556
F3 Fe3 1.990797 1_555
F3 Li3 2.095188 1_556
F4 Li5 1.948985 1_565
F4 Li1 1.950862 1_565
F4 Fe3 1.973526 1_655
F4 Li4 2.362266 1_655
F5 Fe3 1.936597 1_555
F5 Li5 2.005699 1_555
F5 Li4 2.065334 1_555
F6 Fe1 1.983970 1_555
F6 Li5 2.009320 1_555
F6 Li0 2.034104 1_555
F6 Li2 2.057388 1_555
F7 Fe0 1.983970 1_556
F7 Li3 2.009320 1_556
F7 Li1 2.034104 1_555
F7 Li4 2.057388 1_555
F8 Fe0 1.980975 1_565
F8 Li3 2.024692 1_655
F8 Li1 2.039476 1_564
F8 Li4 2.143314 1_654
F9 Fe1 1.980975 1_655
F9 Li5 2.024692 1_565
F9 Li0 2.039476 1_655
F9 Li2 2.143314 1_565
F10 Li7 1.911850 1_555
F10 Fe1 1.925678 1_655
F10 Li2 2.454258 1_565
F11 Li2 1.911850 1_555
F11 Fe0 1.925678 1_555
F11 Li7 2.454258 1_455
F12 Li9 1.911850 1_555
F12 Fe0 1.925678 1_566
F12 Li4 2.454258 1_655
F13 Li4 1.911850 1_555
F13 Fe1 1.925678 1_555
F13 Li9 2.454258 1_545
F14 Fe1 1.980975 1_555
F14 Li6 2.024692 1_545
F14 Li11 2.039476 1_455
F14 Li9 2.143314 1_545
F15 Fe0 1.980975 1_556
F15 Li8 2.024692 1_455
F15 Li10 2.039476 1_546
F15 Li7 2.143314 1_456
F16 Fe0 1.983970 1_565
F16 Li8 2.009320 1_554
F16 Li10 2.034104 1_555
F16 Li7 2.057388 1_555
F17 Fe1 1.983970 1_655
F17 Li6 2.009320 1_555
F17 Li11 2.034104 1_555
F17 Li9 2.057388 1_555
F18 Fe2 1.936597 1_555
F18 Li6 2.005699 1_555
F18 Li7 2.065334 1_555
F19 Li6 1.948985 1_545
F19 Li10 1.950862 1_545
F19 Fe2 1.973526 1_455
F19 Li7 2.362266 1_455
F20 Li1 1.948667 1_554
F20 Fe2 1.990797 1_555
F20 Li8 2.095188 1_554
F21 Fe3 1.936597 1_555
F21 Li8 2.005699 1_555
F21 Li9 2.065334 1_555
F22 Li8 1.948985 1_455
F22 Li11 1.950862 1_455
F22 Fe3 1.973526 1_545
F22 Li9 2.362266 1_545
F23 Li0 1.948667 1_555
F23 Fe3 1.990797 1_555
F23 Li6 2.095188 1_555
