# generated using pymatgen
data_LiAg2F4
_symmetry_space_group_name_H-M   'P 1'
_cell_length_a   7.00047800
_cell_length_b   6.06444200
_cell_length_c   11.20471233
_cell_angle_alpha   59.80361377
_cell_angle_beta   90.00000000
_cell_angle_gamma   90.00000000
_symmetry_Int_Tables_number   1
_chemical_formula_structural   LiAg2F4
_chemical_formula_sum   'Li4 Ag8 F16'
_cell_volume   411.13745723
_cell_formula_units_Z   4
loop_
 _symmetry_equiv_pos_site_id
 _symmetry_equiv_pos_as_xyz
  1  'x, y, z'
loop_
 _atom_site_type_symbol
 _atom_site_label
 _atom_site_symmetry_multiplicity
 _atom_site_fract_x
 _atom_site_fract_y
 _atom_site_fract_z
 _atom_site_occupancy
  Li  Li0  1  0.28032600  0.89699200  0.93177000  1
  Li  Li1  1  0.78032600  0.10300800  0.56823000  1
  Li  Li2  1  0.21967400  0.89699200  0.43177000  1
  Li  Li3  1  0.71967400  0.10300800  0.06823000  1
  Ag  Ag0  1  0.00796000  0.50471600  0.27653400  1
  Ag  Ag1  1  0.32940600  0.24612300  0.55436200  1
  Ag  Ag2  1  0.50796000  0.49528400  0.22346600  1
  Ag  Ag3  1  0.82940600  0.75387700  0.94563800  1
  Ag  Ag4  1  0.17059400  0.24612300  0.05436200  1
  Ag  Ag5  1  0.49204000  0.50471600  0.77653400  1
  Ag  Ag6  1  0.67059400  0.75387700  0.44563800  1
  Ag  Ag7  1  0.99204000  0.49528400  0.72346600  1
  F  F0  1  0.74461300  0.75960300  0.22016900  1
  F  F1  1  0.15703700  0.84313200  0.10070300  1
  F  F2  1  0.62449400  0.32462100  0.59986600  1
  F  F3  1  0.02618600  0.24219400  0.51084300  1
  F  F4  1  0.52618600  0.75780600  0.98915700  1
  F  F5  1  0.65703700  0.15686800  0.39929700  1
  F  F6  1  0.12449400  0.67537900  0.90013400  1
  F  F7  1  0.24461300  0.24039700  0.27983100  1
  F  F8  1  0.75538700  0.75960300  0.72016900  1
  F  F9  1  0.87550600  0.32462100  0.09986600  1
  F  F10  1  0.34296300  0.84313200  0.60070300  1
  F  F11  1  0.47381400  0.24219400  0.01084300  1
  F  F12  1  0.97381400  0.75780600  0.48915700  1
  F  F13  1  0.37550600  0.67537900  0.40013400  1
  F  F14  1  0.84296300  0.15686800  0.89929700  1
  F  F15  1  0.25538700  0.24039700  0.77983100  1
loop_
_geom_bond_atom_site_label_1
_geom_bond_atom_site_label_2
_geom_bond_distance
_geom_bond_site_symmetry_2
Ag0 F1 2.261683 1_555
Ag0 F0 2.281420 1_455
Ag0 F3 2.288873 1_555
Ag0 F7 2.292562 1_555
Ag1 F3 2.180784 1_555
Ag1 F10 2.230435 1_545
Ag1 F2 2.235640 1_555
Ag1 F13 2.311241 1_555
Ag1 F15 2.561977 1_555
Ag2 F5 2.261683 1_555
Ag2 F7 2.281420 1_555
Ag2 F4 2.288873 1_554
Ag2 F0 2.292562 1_555
Ag3 F4 2.180784 1_555
Ag3 F14 2.230435 1_565
Ag3 F6 2.235640 1_655
Ag3 F9 2.311241 1_556
Ag3 F8 2.561977 1_555
Ag4 F11 2.180784 1_555
Ag4 F1 2.230435 1_545
Ag4 F9 2.235640 1_455
Ag4 F6 2.311241 1_554
Ag4 F7 2.561977 1_555
Ag5 F10 2.261683 1_555
Ag5 F8 2.281420 1_555
Ag5 F11 2.288873 1_556
Ag5 F15 2.292562 1_555
Ag6 F12 2.180784 1_555
Ag6 F5 2.230435 1_565
Ag6 F13 2.235640 1_555
Ag6 F2 2.311241 1_555
Ag6 F0 2.561977 1_555
Ag7 F14 2.261683 1_555
Ag7 F15 2.281420 1_655
Ag7 F12 2.288873 1_555
Ag7 F8 2.292562 1_555
F0 Li3 1.923374 1_565
F1 Li0 1.952571 1_554
F2 Li1 1.897672 1_555
F3 Li1 1.882095 1_455
F4 Li0 1.882095 1_555
F5 Li1 1.952571 1_555
F6 Li0 1.897672 1_555
F7 Li2 1.923374 1_545
F8 Li1 1.923374 1_565
F9 Li3 1.897672 1_555
F10 Li2 1.952571 1_555
F11 Li3 1.882095 1_555
F12 Li2 1.882095 1_655
F13 Li2 1.897672 1_555
F14 Li3 1.952571 1_556
F15 Li0 1.923374 1_545
