# generated using pymatgen
data_NaMn2O4
_symmetry_space_group_name_H-M   'P 1'
_cell_length_a   6.22925640
_cell_length_b   6.22925640
_cell_length_c   6.22925640
_cell_angle_alpha   122.09074569
_cell_angle_beta   122.09074569
_cell_angle_gamma   86.41532955
_symmetry_Int_Tables_number   1
_chemical_formula_structural   NaMn2O4
_chemical_formula_sum   'Na2 Mn4 O8'
_cell_volume   165.16700255
_cell_formula_units_Z   2
loop_
 _symmetry_equiv_pos_site_id
 _symmetry_equiv_pos_as_xyz
  1  'x, y, z'
loop_
 _atom_site_type_symbol
 _atom_site_label
 _atom_site_symmetry_multiplicity
 _atom_site_fract_x
 _atom_site_fract_y
 _atom_site_fract_z
 _atom_site_occupancy
  Na  Na0  1  0.00000000  0.00000000  0.00000000  1
  Na  Na1  1  0.75000000  0.25000000  0.50000000  1
  Mn  Mn0  1  0.37500000  0.62500000  0.75000000  1
  Mn  Mn1  1  0.87500000  0.62500000  0.25000000  1
  Mn  Mn2  1  0.37500000  0.12500000  0.75000000  1
  Mn  Mn3  1  0.37500000  0.62500000  0.25000000  1
  O  O0  1  0.14409700  0.43327400  0.28917700  1
  O  O1  1  0.60590300  0.39508100  0.78917700  1
  O  O2  1  0.56672600  0.85590300  0.71082300  1
  O  O3  1  0.14508100  0.85590300  0.28917700  1
  O  O4  1  0.60590300  0.81672600  0.21082300  1
  O  O5  1  0.14409700  0.85491900  0.71082300  1
  O  O6  1  0.60491900  0.39409700  0.21082300  1
  O  O7  1  0.18327400  0.39409700  0.78917700  1
loop_
_geom_bond_atom_site_label_1
_geom_bond_atom_site_label_2
_geom_bond_distance
_geom_bond_site_symmetry_2
Na0 O3 2.180411 1_545
Na0 O5 2.180411 1_544
Na0 O2 2.180411 1_444
Na0 O0 2.180411 1_555
Na1 O1 2.180411 1_555
Na1 O6 2.180411 1_555
Na1 O7 2.180411 1_655
Na1 O4 2.180411 1_545
Mn0 O5 1.980024 1_555
Mn0 O1 1.980024 1_555
Mn0 O4 1.980028 1_556
Mn0 O0 1.980028 1_555
Mn0 O2 2.110039 1_555
Mn0 O7 2.110039 1_555
Mn1 O5 1.980028 1_655
Mn1 O1 1.980028 1_554
Mn1 O0 1.980028 1_655
Mn1 O4 1.980028 1_555
Mn1 O6 2.110043 1_555
Mn1 O3 2.110043 1_655
Mn2 O6 1.980028 1_556
Mn2 O3 1.980028 1_545
Mn2 O2 1.980028 1_545
Mn2 O7 1.980028 1_555
Mn2 O1 2.110043 1_555
Mn2 O5 2.110043 1_545
Mn3 O3 1.980024 1_555
Mn3 O6 1.980024 1_555
Mn3 O2 1.980028 1_555
Mn3 O7 1.980028 1_554
Mn3 O0 2.110039 1_555
Mn3 O4 2.110039 1_555
