# generated using pymatgen
data_La9Ni5O19
_symmetry_space_group_name_H-M   'P 1'
_cell_length_a   15.34586771
_cell_length_b   14.28215594
_cell_length_c   6.80831900
_cell_angle_alpha   85.62434754
_cell_angle_beta   68.12077831
_cell_angle_gamma   26.25487415
_symmetry_Int_Tables_number   1
_chemical_formula_structural   La9Ni5O19
_chemical_formula_sum   'La9 Ni5 O19'
_cell_volume   476.55353646
_cell_formula_units_Z   1
loop_
 _symmetry_equiv_pos_site_id
 _symmetry_equiv_pos_as_xyz
  1  'x, y, z'
loop_
 _atom_site_type_symbol
 _atom_site_label
 _atom_site_symmetry_multiplicity
 _atom_site_fract_x
 _atom_site_fract_y
 _atom_site_fract_z
 _atom_site_occupancy
  La  La0  1  0.59668100  0.40331900  0.59668100  1
  La  La1  1  0.23361700  0.94437200  0.05562800  1
  La  La2  1  0.56108000  0.83866200  0.16133800  1
  La  La3  1  0.97003700  0.23840500  0.76159500  1
  La  La4  1  0.84108400  0.56217100  0.43782900  1
  La  La5  1  0.16133800  0.43892000  0.56108000  1
  La  La6  1  0.43782900  0.15891600  0.84108400  1
  La  La7  1  0.05562800  0.76638300  0.23361700  1
  La  La8  1  0.76159500  0.02996300  0.97003700  1
  Ni  Ni0  1  0.59088600  0.60977200  0.39022800  1
  Ni  Ni1  1  0.99312600  0.00687400  0.99312600  1
  Ni  Ni2  1  0.20699000  0.19278900  0.80721100  1
  Ni  Ni3  1  0.80721100  0.79301000  0.20699000  1
  Ni  Ni4  1  0.39022800  0.40911400  0.59088600  1
  O  O0  1  0.15581500  0.84418500  0.15581500  1
  O  O1  1  0.27902500  0.82696000  0.69520500  1
  O  O2  1  0.41800500  0.88167800  0.62032800  1
  O  O3  1  0.80119000  0.30479500  0.17304000  1
  O  O4  1  0.44020100  0.79367000  0.20633000  1
  O  O5  1  0.92001100  0.37967200  0.11832200  1
  O  O6  1  0.76951300  0.39722600  0.60277400  1
  O  O7  1  0.99198200  0.50801800  0.99198200  1
  O  O8  1  0.63303000  0.98142800  0.01857200  1
  O  O9  1  0.01857200  0.36697000  0.63303000  1
  O  O10  1  0.49198200  0.00801800  0.49198200  1
  O  O11  1  0.39150100  0.03361000  0.96639000  1
  O  O12  1  0.11832200  0.58199500  0.92001100  1
  O  O13  1  0.96639000  0.60849900  0.39150100  1
  O  O14  1  0.17304000  0.72097500  0.80119000  1
  O  O15  1  0.62032800  0.07998900  0.41800500  1
  O  O16  1  0.20633000  0.55979900  0.44020100  1
  O  O17  1  0.69520500  0.19881000  0.27902500  1
  O  O18  1  0.60277400  0.23048700  0.76951300  1
loop_
_geom_bond_atom_site_label_1
_geom_bond_atom_site_label_2
_geom_bond_distance
_geom_bond_site_symmetry_2
La0 O14 2.469878 1_555
La0 O3 2.469878 1_555
La0 O1 2.469878 1_555
La0 O17 2.469878 1_555
La0 O18 2.590604 1_555
La0 O6 2.590604 1_555
La0 O0 2.821941 1_645
La0 O0 2.821941 1_556
La1 O4 2.363034 1_555
La1 O0 2.499317 1_555
La1 O1 2.564493 1_554
La1 O3 2.564493 1_465
La1 O2 2.683652 1_554
La1 O5 2.683652 1_465
La1 O6 2.777073 1_554
La1 O6 2.777073 1_465
La2 O11 2.302197 1_564
La2 O4 2.373235 1_555
La2 O10 2.548298 1_565
La2 O7 2.548298 1_554
La2 O9 2.766523 1_565
La2 O9 2.766523 1_654
La2 O2 2.779079 1_555
La2 O5 2.779079 1_555
La2 O8 3.042582 1_555
La3 O6 2.317198 1_555
La3 O1 2.459416 1_645
La3 O3 2.459416 1_556
La3 O9 2.532665 1_655
La3 O2 2.671813 1_645
La3 O5 2.671813 1_556
La3 O4 2.797827 1_556
La3 O4 2.797827 1_645
La4 O9 2.338707 1_655
La4 O13 2.456257 1_555
La4 O5 2.496322 1_555
La4 O2 2.496322 1_555
La4 O7 2.661113 1_554
La4 O10 2.661113 1_565
La4 O11 2.784872 1_565
La4 O11 2.784872 1_654
La5 O13 2.302197 1_455
La5 O16 2.373235 1_555
La5 O10 2.548298 1_555
La5 O7 2.548298 1_455
La5 O8 2.766523 1_545
La5 O8 2.766523 1_456
La5 O15 2.779079 1_555
La5 O12 2.779079 1_555
La5 O9 3.042582 1_555
La6 O8 2.338707 1_546
La6 O11 2.456257 1_555
La6 O15 2.496322 1_555
La6 O12 2.496322 1_555
La6 O7 2.661113 1_455
La6 O10 2.661113 1_555
La6 O13 2.784872 1_456
La6 O13 2.784872 1_545
La7 O16 2.363034 1_555
La7 O0 2.499317 1_555
La7 O17 2.564493 1_465
La7 O14 2.564493 1_554
La7 O12 2.683652 1_554
La7 O15 2.683652 1_465
La7 O18 2.777073 1_554
La7 O18 2.777073 1_465
La8 O18 2.317198 1_555
La8 O17 2.459416 1_556
La8 O14 2.459416 1_645
La8 O8 2.532665 1_546
La8 O15 2.671813 1_556
La8 O12 2.671813 1_645
La8 O16 2.797827 1_645
La8 O16 2.797827 1_556
Ni0 O1 1.945865 1_555
Ni0 O3 1.945865 1_555
Ni0 O2 1.981046 1_555
Ni0 O5 1.981046 1_555
Ni0 O4 2.139012 1_555
Ni0 O6 2.486714 1_555
Ni1 O14 1.976730 1_645
Ni1 O17 1.976730 1_556
Ni1 O3 1.976730 1_556
Ni1 O1 1.976730 1_645
Ni1 O0 2.030276 1_646
Ni2 O5 1.957524 1_456
Ni2 O2 1.957524 1_545
Ni2 O10 1.965858 1_555
Ni2 O7 1.965858 1_455
Ni2 O11 2.173748 1_555
Ni2 O9 2.271314 1_555
Ni3 O12 1.957524 1_654
Ni3 O15 1.957524 1_565
Ni3 O10 1.965858 1_565
Ni3 O7 1.965858 1_554
Ni3 O13 2.173748 1_555
Ni3 O8 2.271314 1_555
Ni4 O17 1.945865 1_555
Ni4 O14 1.945865 1_555
Ni4 O12 1.981046 1_555
Ni4 O15 1.981046 1_555
Ni4 O16 2.139012 1_555
Ni4 O18 2.486714 1_555
