# generated using pymatgen
data_Li4CrFe3O8
_symmetry_space_group_name_H-M   'P 1'
_cell_length_a   5.19603168
_cell_length_b   5.96928917
_cell_length_c   10.75608963
_cell_angle_alpha   106.06307957
_cell_angle_beta   85.41294707
_cell_angle_gamma   73.19355571
_symmetry_Int_Tables_number   1
_chemical_formula_structural   Li4CrFe3O8
_chemical_formula_sum   'Li8 Cr2 Fe6 O16'
_cell_volume   302.22243635
_cell_formula_units_Z   2
loop_
 _symmetry_equiv_pos_site_id
 _symmetry_equiv_pos_as_xyz
  1  'x, y, z'
loop_
 _atom_site_type_symbol
 _atom_site_label
 _atom_site_symmetry_multiplicity
 _atom_site_fract_x
 _atom_site_fract_y
 _atom_site_fract_z
 _atom_site_occupancy
  Li  Li0  1  0.99913900  0.12546700  0.75015300  1
  Li  Li1  1  0.00022100  0.99956800  0.00040100  1
  Li  Li2  1  0.00293300  0.24897600  0.50018700  1
  Li  Li3  1  0.99979700  0.37517600  0.24999900  1
  Li  Li4  1  0.00081600  0.62439900  0.74968500  1
  Li  Li5  1  0.99730000  0.50074100  0.99986400  1
  Li  Li6  1  0.99987800  0.75056600  0.49960700  1
  Li  Li7  1  0.00000500  0.87487000  0.25009000  1
  Cr  Cr0  1  0.50117800  0.81222700  0.37378400  1
  Cr  Cr1  1  0.49880600  0.93784100  0.12619700  1
  Fe  Fe0  1  0.49898100  0.06283800  0.87590200  1
  Fe  Fe1  1  0.49999200  0.18698700  0.62423700  1
  Fe  Fe2  1  0.50109800  0.31269600  0.37436900  1
  Fe  Fe3  1  0.50000700  0.56297800  0.87577600  1
  Fe  Fe4  1  0.49882900  0.43739600  0.12560900  1
  Fe  Fe5  1  0.50108400  0.68709500  0.62409600  1
  O  O0  1  0.27344600  0.08584200  0.31033700  1
  O  O1  1  0.72723000  0.03603500  0.43821400  1
  O  O2  1  0.27065000  0.33836600  0.81159300  1
  O  O3  1  0.72884500  0.28720500  0.93984100  1
  O  O4  1  0.72630700  0.16092200  0.18914700  1
  O  O5  1  0.27040200  0.21235300  0.06259900  1
  O  O6  1  0.27112200  0.46278500  0.56017000  1
  O  O7  1  0.72938300  0.41155300  0.68838900  1
  O  O8  1  0.27362300  0.58919500  0.31085300  1
  O  O9  1  0.72950800  0.53779200  0.43739700  1
  O  O10  1  0.27135500  0.83748600  0.81045600  1
  O  O11  1  0.72597300  0.78889000  0.94141800  1
  O  O12  1  0.27273300  0.71405100  0.06182200  1
  O  O13  1  0.27400200  0.96108000  0.55860100  1
  O  O14  1  0.72658600  0.66420200  0.18965800  1
  O  O15  1  0.72877100  0.91242300  0.68954800  1
loop_
_geom_bond_atom_site_label_1
_geom_bond_atom_site_label_2
_geom_bond_distance
_geom_bond_site_symmetry_2
Li0 O7 2.171384 1_555
Li0 O10 2.175815 1_645
Li0 O3 2.175984 1_555
Li0 O15 2.176382 1_545
Li0 O2 2.182488 1_655
Li0 O13 2.201766 1_645
Li1 O12 2.173333 1_555
Li1 O3 2.174041 1_464
Li1 O4 2.176689 1_465
Li1 O5 2.177821 1_565
Li1 O10 2.180020 1_554
Li1 O11 2.180384 1_454
Li2 O13 2.161318 1_545
Li2 O6 2.168795 1_555
Li2 O7 2.171387 1_455
Li2 O0 2.177810 1_555
Li2 O9 2.197330 1_455
Li2 O1 2.202076 1_455
Li3 O9 2.157241 1_555
Li3 O5 2.157995 1_655
Li3 O14 2.182621 1_555
Li3 O0 2.184876 1_655
Li3 O4 2.195461 1_555
Li3 O8 2.195968 1_655
Li4 O2 2.172238 1_555
Li4 O15 2.174580 1_455
Li4 O6 2.174593 1_555
Li4 O10 2.177642 1_555
Li4 O7 2.181632 1_455
Li4 O11 2.203200 1_455
Li5 O11 2.163146 1_555
Li5 O3 2.168905 1_555
Li5 O2 2.171481 1_655
Li5 O14 2.177815 1_556
Li5 O5 2.194500 1_656
Li5 O12 2.202367 1_656
Li6 O1 2.173283 1_565
Li6 O6 2.174344 1_655
Li6 O8 2.176357 1_655
Li6 O9 2.178624 1_555
Li6 O13 2.179192 1_655
Li6 O15 2.179929 1_555
Li7 O1 2.168953 1_465
Li7 O12 2.170026 1_555
Li7 O8 2.172515 1_555
Li7 O4 2.175336 1_465
Li7 O14 2.179629 1_455
Li7 O0 2.180587 1_565
Cr0 O14 2.033944 1_555
Cr0 O0 2.040078 1_565
Cr0 O8 2.041641 1_555
Cr0 O1 2.042057 1_565
Cr0 O13 2.043364 1_555
Cr0 O9 2.045871 1_555
Cr1 O0 2.033973 1_565
Cr1 O14 2.040367 1_555
Cr1 O4 2.041671 1_565
Cr1 O12 2.041944 1_555
Cr1 O11 2.043016 1_554
Cr1 O5 2.046252 1_565
Fe0 O11 2.053569 1_545
Fe0 O2 2.055126 1_555
Fe0 O10 2.057469 1_545
Fe0 O3 2.059121 1_555
Fe0 O15 2.061766 1_545
Fe0 O5 2.062399 1_556
Fe1 O13 2.053581 1_545
Fe1 O1 2.053956 1_555
Fe1 O6 2.055771 1_555
Fe1 O15 2.058355 1_545
Fe1 O7 2.058491 1_555
Fe1 O2 2.069584 1_555
Fe2 O4 2.043149 1_555
Fe2 O8 2.052553 1_555
Fe2 O1 2.052821 1_555
Fe2 O9 2.054351 1_555
Fe2 O6 2.057344 1_555
Fe2 O0 2.061019 1_555
Fe3 O11 2.053518 1_555
Fe3 O12 2.054227 1_556
Fe3 O3 2.055588 1_555
Fe3 O10 2.057925 1_555
Fe3 O2 2.058617 1_555
Fe3 O7 2.069919 1_555
Fe4 O8 2.043336 1_555
Fe4 O12 2.052350 1_555
Fe4 O4 2.052592 1_555
Fe4 O5 2.054152 1_555
Fe4 O3 2.057136 1_554
Fe4 O14 2.061277 1_555
Fe5 O13 2.053765 1_555
Fe5 O7 2.055021 1_555
Fe5 O15 2.057629 1_555
Fe5 O6 2.059251 1_555
Fe5 O10 2.061699 1_555
Fe5 O9 2.062120 1_555
