# generated using pymatgen
data_RbTiPS5
_symmetry_space_group_name_H-M   'P 1'
_cell_length_a   9.96464037
_cell_length_b   9.96464037
_cell_length_c   16.08908688
_cell_angle_alpha   59.35092483
_cell_angle_beta   59.35092483
_cell_angle_gamma   42.15303172
_symmetry_Int_Tables_number   1
_chemical_formula_structural   RbTiPS5
_chemical_formula_sum   'Rb4 Ti4 P4 S20'
_cell_volume   897.99191954
_cell_formula_units_Z   4
loop_
 _symmetry_equiv_pos_site_id
 _symmetry_equiv_pos_as_xyz
  1  'x, y, z'
loop_
 _atom_site_type_symbol
 _atom_site_label
 _atom_site_symmetry_multiplicity
 _atom_site_fract_x
 _atom_site_fract_y
 _atom_site_fract_z
 _atom_site_occupancy
  Rb  Rb0  1  0.66364400  0.66364400  0.13718700  1
  Rb  Rb1  1  0.70183000  0.70183000  0.64246900  1
  Rb  Rb2  1  0.29817000  0.29817000  0.35753100  1
  Rb  Rb3  1  0.33635600  0.33635600  0.86281300  1
  Ti  Ti0  1  0.72463300  0.27536700  0.00000000  1
  Ti  Ti1  1  0.27536700  0.72463300  0.00000000  1
  Ti  Ti2  1  0.78019100  0.21980900  0.50000000  1
  Ti  Ti3  1  0.21980900  0.78019100  0.50000000  1
  P  P0  1  0.33293600  0.33293600  0.59485600  1
  P  P1  1  0.07535400  0.07535400  0.09821500  1
  P  P2  1  0.92464600  0.92464600  0.90178500  1
  P  P3  1  0.66706400  0.66706400  0.40514400  1
  S  S0  1  0.17163100  0.17163100  0.11677300  1
  S  S1  1  0.59141000  0.12273500  0.65300500  1
  S  S2  1  0.12273500  0.59141000  0.65300500  1
  S  S3  1  0.97652400  0.97652400  0.41468900  1
  S  S4  1  0.44006100  0.44006100  0.44803500  1
  S  S5  1  0.10927200  0.10927200  0.95036000  1
  S  S6  1  0.76466600  0.23033800  0.15252400  1
  S  S7  1  0.23033800  0.76466600  0.15252400  1
  S  S8  1  0.60604100  0.60604100  0.91294700  1
  S  S9  1  0.22007700  0.22007700  0.61015500  1
  S  S10  1  0.77992300  0.77992300  0.38984500  1
  S  S11  1  0.39395900  0.39395900  0.08705300  1
  S  S12  1  0.23533400  0.76966200  0.84747600  1
  S  S13  1  0.76966200  0.23533400  0.84747600  1
  S  S14  1  0.89072800  0.89072800  0.04964000  1
  S  S15  1  0.55993900  0.55993900  0.55196500  1
  S  S16  1  0.02347600  0.02347600  0.58531100  1
  S  S17  1  0.87726500  0.40859000  0.34699500  1
  S  S18  1  0.40859000  0.87726500  0.34699500  1
  S  S19  1  0.82836900  0.82836900  0.88322700  1
loop_
_geom_bond_atom_site_label_1
_geom_bond_atom_site_label_2
_geom_bond_distance
_geom_bond_site_symmetry_2
Rb0 S19 3.521739 1_554
Rb0 S6 3.526977 1_555
Rb0 S7 3.526977 1_555
Rb0 S0 3.594105 1_565
Rb0 S0 3.594105 1_655
Rb0 S17 3.597622 1_555
Rb0 S18 3.597622 1_555
Rb0 S14 3.649293 1_555
Rb1 S10 3.489927 1_555
Rb1 S1 3.538741 1_565
Rb1 S2 3.538741 1_655
Rb1 S9 3.610213 1_565
Rb1 S9 3.610213 1_655
Rb1 S15 3.644271 1_555
Rb1 S8 3.693334 1_555
Rb1 S13 3.863484 1_555
Rb1 S12 3.863484 1_555
Rb2 S9 3.489927 1_555
Rb2 S18 3.538741 1_545
Rb2 S17 3.538741 1_455
Rb2 S10 3.610213 1_455
Rb2 S10 3.610213 1_545
Rb2 S4 3.644271 1_555
Rb2 S11 3.693334 1_555
Rb2 S7 3.863484 1_555
Rb2 S6 3.863484 1_555
Rb3 S0 3.521739 1_556
Rb3 S13 3.526977 1_555
Rb3 S12 3.526977 1_555
Rb3 S19 3.594105 1_545
Rb3 S19 3.594105 1_455
Rb3 S2 3.597622 1_555
Rb3 S1 3.597622 1_555
Rb3 S5 3.649293 1_555
P0 S9 1.975043 1_555
P0 S2 2.087143 1_555
P0 S1 2.087143 1_555
P0 S4 2.099225 1_555
P1 S0 1.969436 1_555
P1 S7 2.064411 1_545
P1 S6 2.064411 1_455
P1 S5 2.101740 1_554
P2 S19 1.969436 1_555
P2 S12 2.064411 1_655
P2 S13 2.064411 1_565
P2 S14 2.101740 1_556
P3 S10 1.975043 1_555
P3 S18 2.087143 1_555
P3 S17 2.087143 1_555
P3 S15 2.099225 1_555
S1 Ti2 2.466412 1_555
S2 Ti3 2.466412 1_555
S3 Ti3 2.282756 1_655
S3 Ti2 2.282756 1_565
S4 Ti2 2.644254 1_555
S4 Ti3 2.644254 1_555
S5 Ti0 2.624592 1_456
S5 Ti1 2.624592 1_546
S6 Ti0 2.447957 1_555
S7 Ti1 2.447957 1_555
S8 Ti0 2.329002 1_556
S8 Ti1 2.329002 1_556
S11 Ti0 2.329002 1_555
S11 Ti1 2.329002 1_555
S12 Ti1 2.447957 1_556
S13 Ti0 2.447957 1_556
S14 Ti1 2.624592 1_655
S14 Ti0 2.624592 1_565
S15 Ti2 2.644254 1_555
S15 Ti3 2.644254 1_555
S16 Ti2 2.282756 1_455
S16 Ti3 2.282756 1_545
S17 Ti2 2.466412 1_555
S18 Ti3 2.466412 1_555
