# generated using pymatgen
data_Li3Fe4(BO3)4
_symmetry_space_group_name_H-M   'P 1'
_cell_length_a   9.00577200
_cell_length_b   5.26669300
_cell_length_c   10.27240733
_cell_angle_alpha   88.18258972
_cell_angle_beta   90.00000000
_cell_angle_gamma   90.00000000
_symmetry_Int_Tables_number   1
_chemical_formula_structural   Li3Fe4(BO3)4
_chemical_formula_sum   'Li6 Fe8 B8 O24'
_cell_volume   486.98172678
_cell_formula_units_Z   2
loop_
 _symmetry_equiv_pos_site_id
 _symmetry_equiv_pos_as_xyz
  1  'x, y, z'
loop_
 _atom_site_type_symbol
 _atom_site_label
 _atom_site_symmetry_multiplicity
 _atom_site_fract_x
 _atom_site_fract_y
 _atom_site_fract_z
 _atom_site_occupancy
  Li  Li0  1  0.98846100  0.65671700  0.83695300  1
  Li  Li1  1  0.99465100  0.33667500  0.08322700  1
  Li  Li2  1  0.50449800  0.85066100  0.57933700  1
  Li  Li3  1  0.49550200  0.85066100  0.07933700  1
  Li  Li4  1  0.01153900  0.65671700  0.33695300  1
  Li  Li5  1  0.00534900  0.33667500  0.58322700  1
  Fe  Fe0  1  0.83675000  0.83771600  0.11338900  1
  Fe  Fe1  1  0.82099000  0.15222800  0.36154700  1
  Fe  Fe2  1  0.65180700  0.66460500  0.86815800  1
  Fe  Fe3  1  0.66807700  0.33647000  0.62744100  1
  Fe  Fe4  1  0.34819300  0.66460500  0.36815800  1
  Fe  Fe5  1  0.16325000  0.83771600  0.61338900  1
  Fe  Fe6  1  0.33192300  0.33647000  0.12744100  1
  Fe  Fe7  1  0.17901000  0.15222800  0.86154700  1
  B  B0  1  0.82852000  0.83076800  0.62765100  1
  B  B1  1  0.67812400  0.66763100  0.38165100  1
  B  B2  1  0.83990300  0.16819000  0.86888600  1
  B  B3  1  0.66201300  0.34319900  0.11834300  1
  B  B4  1  0.32187600  0.66763100  0.88165100  1
  B  B5  1  0.33798700  0.34319900  0.61834300  1
  B  B6  1  0.17148000  0.83076800  0.12765100  1
  B  B7  1  0.16009700  0.16819000  0.36888600  1
  O  O0  1  0.95792600  0.69052100  0.63541600  1
  O  O1  1  0.83448900  0.90788300  0.90024100  1
  O  O2  1  0.96841200  0.30457400  0.88948400  1
  O  O3  1  0.80770100  0.77826200  0.32929600  1
  O  O4  1  0.69168800  0.71228200  0.65342900  1
  O  O5  1  0.79677200  0.22388400  0.15033400  1
  O  O6  1  0.83093200  0.08822600  0.59435500  1
  O  O7  1  0.66068700  0.59915100  0.08118600  1
  O  O8  1  0.54935900  0.80136800  0.38577600  1
  O  O9  1  0.68915300  0.42102200  0.43507800  1
  O  O10  1  0.71490500  0.29635400  0.81892300  1
  O  O11  1  0.45064100  0.80136800  0.88577600  1
  O  O12  1  0.53086000  0.20692600  0.12357400  1
  O  O13  1  0.30831200  0.71228200  0.15342900  1
  O  O14  1  0.33931300  0.59915100  0.58118600  1
  O  O15  1  0.46914000  0.20692600  0.62357400  1
  O  O16  1  0.31084700  0.42102200  0.93507800  1
  O  O17  1  0.16551100  0.90788300  0.40024100  1
  O  O18  1  0.19229900  0.77826200  0.82929600  1
  O  O19  1  0.28509500  0.29635400  0.31892300  1
  O  O20  1  0.20322800  0.22388400  0.65033400  1
  O  O21  1  0.04207400  0.69052100  0.13541600  1
  O  O22  1  0.16906800  0.08822600  0.09435500  1
  O  O23  1  0.03158800  0.30457400  0.38948400  1
loop_
_geom_bond_atom_site_label_1
_geom_bond_atom_site_label_2
_geom_bond_distance
_geom_bond_site_symmetry_2
Li0 O2 1.923528 1_555
Li0 O18 1.944900 1_655
Li0 O1 2.037107 1_555
Li0 O0 2.090444 1_555
Li1 O5 1.994448 1_555
Li1 O21 2.001544 1_655
Li1 O2 2.016603 1_554
Li1 O22 2.045251 1_655
Li2 O15 1.970437 1_565
Li2 O4 1.979175 1_555
Li2 O14 1.991584 1_555
Li2 O8 2.053496 1_555
Li3 O12 1.970437 1_565
Li3 O13 1.979175 1_555
Li3 O7 1.991584 1_555
Li3 O11 2.053496 1_554
Li4 O23 1.923528 1_555
Li4 O3 1.944900 1_455
Li4 O17 2.037107 1_555
Li4 O21 2.090444 1_555
Li5 O20 1.994448 1_555
Li5 O0 2.001544 1_455
Li5 O23 2.016603 1_555
Li5 O6 2.045251 1_455
Fe0 O21 2.015001 1_655
Fe0 O7 2.056339 1_555
Fe0 O5 2.111651 1_565
Fe0 O1 2.209017 1_554
Fe0 O3 2.245317 1_555
Fe1 O3 2.011132 1_545
Fe1 O9 2.012986 1_555
Fe1 O23 2.082745 1_655
Fe1 O5 2.201251 1_555
Fe1 O6 2.406195 1_555
Fe2 O11 1.960085 1_555
Fe2 O10 2.098200 1_555
Fe2 O1 2.117478 1_555
Fe2 O7 2.205920 1_556
Fe2 O4 2.241071 1_555
Fe3 O15 1.917955 1_555
Fe3 O6 2.001019 1_555
Fe3 O10 2.016220 1_555
Fe3 O4 2.016822 1_555
Fe3 O9 2.020696 1_555
Fe4 O8 1.960085 1_555
Fe4 O19 2.098200 1_555
Fe4 O17 2.117478 1_555
Fe4 O14 2.205920 1_555
Fe4 O13 2.241071 1_555
Fe5 O0 2.015001 1_455
Fe5 O14 2.056339 1_555
Fe5 O20 2.111651 1_565
Fe5 O17 2.209017 1_555
Fe5 O18 2.245317 1_555
Fe6 O12 1.917955 1_555
Fe6 O22 2.001019 1_555
Fe6 O19 2.016220 1_555
Fe6 O13 2.016822 1_555
Fe6 O16 2.020696 1_554
Fe7 O18 2.011132 1_545
Fe7 O16 2.012986 1_555
Fe7 O2 2.082745 1_455
Fe7 O20 2.201251 1_555
Fe7 O22 2.406195 1_556
B0 O0 1.380714 1_555
B0 O6 1.388037 1_565
B0 O4 1.402697 1_555
B1 O8 1.358138 1_555
B1 O9 1.397418 1_555
B1 O3 1.403784 1_555
B2 O2 1.381938 1_555
B2 O1 1.399155 1_545
B2 O10 1.401526 1_555
B3 O12 1.382253 1_555
B3 O7 1.389372 1_555
B3 O5 1.400936 1_555
B4 O11 1.358138 1_555
B4 O16 1.397418 1_555
B4 O18 1.403784 1_555
B5 O15 1.382253 1_555
B5 O14 1.389372 1_555
B5 O20 1.400936 1_555
B6 O21 1.380714 1_555
B6 O22 1.388037 1_565
B6 O13 1.402697 1_555
B7 O23 1.381938 1_555
B7 O17 1.399155 1_545
B7 O19 1.401526 1_555
