# generated using pymatgen
data_Na2Cr4O13
_symmetry_space_group_name_H-M   'P 1'
_cell_length_a   7.24524700
_cell_length_b   9.17067600
_cell_length_c   17.45733783
_cell_angle_alpha   87.73476561
_cell_angle_beta   90.00000000
_cell_angle_gamma   90.00000000
_symmetry_Int_Tables_number   1
_chemical_formula_structural   Na2Cr4O13
_chemical_formula_sum   'Na8 Cr16 O52'
_cell_volume   1159.02567116
_cell_formula_units_Z   4
loop_
 _symmetry_equiv_pos_site_id
 _symmetry_equiv_pos_as_xyz
  1  'x, y, z'
loop_
 _atom_site_type_symbol
 _atom_site_label
 _atom_site_symmetry_multiplicity
 _atom_site_fract_x
 _atom_site_fract_y
 _atom_site_fract_z
 _atom_site_occupancy
  Na  Na0  1  0.32601500  0.17809500  0.05489700  1
  Na  Na1  1  0.17398500  0.67809500  0.05489700  1
  Na  Na2  1  0.85486700  0.31771300  0.43310800  1
  Na  Na3  1  0.64513300  0.81771300  0.43310800  1
  Na  Na4  1  0.35486700  0.18228700  0.56689200  1
  Na  Na5  1  0.14513300  0.68228700  0.56689200  1
  Na  Na6  1  0.82601500  0.32190500  0.94510300  1
  Na  Na7  1  0.67398500  0.82190500  0.94510300  1
  Cr  Cr0  1  0.82710600  0.05522900  0.08414900  1
  Cr  Cr1  1  0.67289400  0.55522900  0.08414900  1
  Cr  Cr2  1  0.64642100  0.17637800  0.25126000  1
  Cr  Cr3  1  0.30655000  0.41343000  0.24375600  1
  Cr  Cr4  1  0.85357900  0.67637800  0.25126000  1
  Cr  Cr5  1  0.19345000  0.91343000  0.24375600  1
  Cr  Cr6  1  0.32372600  0.46047800  0.41865300  1
  Cr  Cr7  1  0.17627400  0.96047800  0.41865300  1
  Cr  Cr8  1  0.82372600  0.03952200  0.58134700  1
  Cr  Cr9  1  0.67627400  0.53952200  0.58134700  1
  Cr  Cr10  1  0.80655000  0.08657000  0.75624400  1
  Cr  Cr11  1  0.14642100  0.32362200  0.74874000  1
  Cr  Cr12  1  0.69345000  0.58657000  0.75624400  1
  Cr  Cr13  1  0.35357900  0.82362200  0.74874000  1
  Cr  Cr14  1  0.32710600  0.44477100  0.91585100  1
  Cr  Cr15  1  0.17289400  0.94477100  0.91585100  1
  O  O0  1  0.68677800  0.07023200  0.01047500  1
  O  O1  1  0.81322200  0.57023200  0.01047500  1
  O  O2  1  0.98774500  0.17880000  0.07416300  1
  O  O3  1  0.51225500  0.67880000  0.07416300  1
  O  O4  1  0.58333900  0.39249600  0.08799200  1
  O  O5  1  0.91666100  0.89249600  0.08799200  1
  O  O6  1  0.69239200  0.08056900  0.17008600  1
  O  O7  1  0.80760800  0.58056900  0.17008600  1
  O  O8  1  0.16633900  0.43514100  0.17308100  1
  O  O9  1  0.33366100  0.93514100  0.17308100  1
  O  O10  1  0.04495000  0.04154900  0.24161600  1
  O  O11  1  0.41769800  0.24271200  0.23716200  1
  O  O12  1  0.45505000  0.54154900  0.24161600  1
  O  O13  1  0.08230200  0.74271200  0.23716200  1
  O  O14  1  0.78596600  0.30850600  0.26169500  1
  O  O15  1  0.71403400  0.80850600  0.26169500  1
  O  O16  1  0.65091500  0.07547500  0.32845000  1
  O  O17  1  0.84908500  0.57547500  0.32845000  1
  O  O18  1  0.19399800  0.41530900  0.33176300  1
  O  O19  1  0.30600200  0.91530900  0.33176300  1
  O  O20  1  0.12711600  0.13306400  0.41466200  1
  O  O21  1  0.37288400  0.63306400  0.41466200  1
  O  O22  1  0.51232200  0.36419200  0.42424900  1
  O  O23  1  0.98767800  0.86419200  0.42424900  1
  O  O24  1  0.18945200  0.42226500  0.49231100  1
  O  O25  1  0.31054800  0.92226500  0.49231100  1
  O  O26  1  0.68945200  0.07773500  0.50768900  1
  O  O27  1  0.81054800  0.57773500  0.50768900  1
  O  O28  1  0.01232200  0.13580800  0.57575100  1
  O  O29  1  0.48767800  0.63580800  0.57575100  1
  O  O30  1  0.62711600  0.36693600  0.58533800  1
  O  O31  1  0.87288400  0.86693600  0.58533800  1
  O  O32  1  0.69399800  0.08469100  0.66823700  1
  O  O33  1  0.80600200  0.58469100  0.66823700  1
  O  O34  1  0.15091500  0.42452500  0.67155000  1
  O  O35  1  0.34908500  0.92452500  0.67155000  1
  O  O36  1  0.28596600  0.19149400  0.73830500  1
  O  O37  1  0.21403400  0.69149400  0.73830500  1
  O  O38  1  0.91769800  0.25728800  0.76283800  1
  O  O39  1  0.54495000  0.45845100  0.75838400  1
  O  O40  1  0.58230200  0.75728800  0.76283800  1
  O  O41  1  0.95505000  0.95845100  0.75838400  1
  O  O42  1  0.66633900  0.06485900  0.82691900  1
  O  O43  1  0.83366100  0.56485900  0.82691900  1
  O  O44  1  0.19239200  0.41943100  0.82991400  1
  O  O45  1  0.30760800  0.91943100  0.82991400  1
  O  O46  1  0.08333900  0.10750400  0.91200800  1
  O  O47  1  0.41666100  0.60750400  0.91200800  1
  O  O48  1  0.48774500  0.32120000  0.92583700  1
  O  O49  1  0.01225500  0.82120000  0.92583700  1
  O  O50  1  0.18677800  0.42976800  0.98952500  1
  O  O51  1  0.31322200  0.92976800  0.98952500  1
loop_
_geom_bond_atom_site_label_1
_geom_bond_atom_site_label_2
_geom_bond_distance
_geom_bond_site_symmetry_2
Na0 O2 2.473863 1_455
Na0 O51 2.588946 1_544
Na0 O50 2.727412 1_554
Na0 O4 2.786655 1_555
Na0 O48 2.817416 1_554
Na0 O0 2.910762 1_555
Na0 O9 2.976676 1_545
Na1 O3 2.473863 1_555
Na1 O50 2.588946 1_554
Na1 O51 2.727412 1_554
Na1 O5 2.786655 1_455
Na1 O49 2.817416 1_554
Na1 O1 2.910762 1_455
Na1 O8 2.976676 1_555
Na2 O22 2.521872 1_555
Na2 O20 2.627748 1_655
Na2 O27 2.780272 1_555
Na2 O26 2.783584 1_555
Na2 O24 2.818216 1_655
Na2 O17 2.930230 1_555
Na3 O23 2.521872 1_555
Na3 O21 2.627748 1_555
Na3 O26 2.780272 1_565
Na3 O27 2.783584 1_555
Na3 O25 2.818216 1_555
Na3 O16 2.930230 1_565
Na4 O28 2.521872 1_555
Na4 O30 2.627748 1_555
Na4 O25 2.780272 1_545
Na4 O24 2.783584 1_555
Na4 O26 2.818216 1_555
Na4 O35 2.930230 1_545
Na5 O29 2.521872 1_555
Na5 O31 2.627748 1_455
Na5 O24 2.780272 1_555
Na5 O25 2.783584 1_555
Na5 O27 2.818216 1_455
Na5 O34 2.930230 1_555
Na6 O48 2.473863 1_555
Na6 O1 2.588946 1_556
Na6 O0 2.727412 1_556
Na6 O46 2.786655 1_655
Na6 O2 2.817416 1_556
Na6 O50 2.910762 1_655
Na6 O43 2.976676 1_555
Na7 O49 2.473863 1_655
Na7 O0 2.588946 1_566
Na7 O1 2.727412 1_556
Na7 O47 2.786655 1_555
Na7 O3 2.817416 1_556
Na7 O51 2.910762 1_555
Na7 O42 2.976676 1_565
Cr0 O5 1.626273 1_545
Cr0 O2 1.628980 1_555
Cr0 O0 1.640984 1_555
Cr0 O6 1.812430 1_555
Cr1 O4 1.626273 1_555
Cr1 O3 1.628980 1_555
Cr1 O1 1.640984 1_555
Cr1 O7 1.812430 1_555
Cr2 O14 1.594069 1_555
Cr2 O16 1.604556 1_555
Cr2 O6 1.729011 1_555
Cr2 O11 1.779034 1_555
Cr3 O12 1.592484 1_555
Cr3 O8 1.604512 1_555
Cr3 O18 1.740058 1_555
Cr3 O11 1.768361 1_555
Cr4 O15 1.594069 1_555
Cr4 O17 1.604556 1_555
Cr4 O7 1.729011 1_555
Cr4 O13 1.779034 1_655
Cr5 O10 1.592484 1_565
Cr5 O9 1.604512 1_555
Cr5 O19 1.740058 1_555
Cr5 O13 1.768361 1_555
Cr6 O21 1.621118 1_555
Cr6 O22 1.627742 1_555
Cr6 O24 1.639234 1_555
Cr6 O18 1.845421 1_555
Cr7 O20 1.621118 1_565
Cr7 O23 1.627742 1_455
Cr7 O25 1.639234 1_555
Cr7 O19 1.845421 1_555
Cr8 O31 1.621118 1_545
Cr8 O28 1.627742 1_655
Cr8 O26 1.639234 1_555
Cr8 O32 1.845421 1_555
Cr9 O30 1.621118 1_555
Cr9 O29 1.627742 1_555
Cr9 O27 1.639234 1_555
Cr9 O33 1.845421 1_555
Cr10 O41 1.592484 1_545
Cr10 O42 1.604512 1_555
Cr10 O32 1.740058 1_555
Cr10 O38 1.768361 1_555
Cr11 O36 1.594069 1_555
Cr11 O34 1.604556 1_555
Cr11 O44 1.729011 1_555
Cr11 O38 1.779034 1_455
Cr12 O39 1.592484 1_555
Cr12 O43 1.604512 1_555
Cr12 O33 1.740058 1_555
Cr12 O40 1.768361 1_555
Cr13 O37 1.594069 1_555
Cr13 O35 1.604556 1_555
Cr13 O45 1.729011 1_555
Cr13 O40 1.779034 1_555
Cr14 O47 1.626273 1_555
Cr14 O48 1.628980 1_555
Cr14 O50 1.640984 1_555
Cr14 O44 1.812430 1_555
Cr15 O46 1.626273 1_565
Cr15 O49 1.628980 1_555
Cr15 O51 1.640984 1_555
Cr15 O45 1.812430 1_555
