# generated using pymatgen
data_Ni7(PO4)6
_symmetry_space_group_name_H-M   'P 1'
_cell_length_a   6.36562900
_cell_length_b   7.94785066
_cell_length_c   9.37397943
_cell_angle_alpha   104.90559194
_cell_angle_beta   108.10608031
_cell_angle_gamma   101.15954982
_symmetry_Int_Tables_number   1
_chemical_formula_structural   Ni7(PO4)6
_chemical_formula_sum   'Ni7 P6 O24'
_cell_volume   415.84907303
_cell_formula_units_Z   1
loop_
 _symmetry_equiv_pos_site_id
 _symmetry_equiv_pos_as_xyz
  1  'x, y, z'
loop_
 _atom_site_type_symbol
 _atom_site_label
 _atom_site_symmetry_multiplicity
 _atom_site_fract_x
 _atom_site_fract_y
 _atom_site_fract_z
 _atom_site_occupancy
  Ni  Ni0  1  0.95513100  0.28630000  0.48136200  1
  Ni  Ni1  1  0.72982600  0.20095000  0.71791300  1
  Ni  Ni2  1  0.38497200  0.45661200  0.11015100  1
  Ni  Ni3  1  0.61502800  0.54338800  0.88984900  1
  Ni  Ni4  1  0.27017400  0.79905000  0.28208700  1
  Ni  Ni5  1  0.04486900  0.71370000  0.51863800  1
  Ni  Ni6  1  0.00000000  0.00000000  0.00000000  1
  P  P0  1  0.90592500  0.40404300  0.16629400  1
  P  P1  1  0.77201600  0.85753200  0.22903100  1
  P  P2  1  0.40310200  0.23267700  0.37357000  1
  P  P3  1  0.59689800  0.76732300  0.62643000  1
  P  P4  1  0.22798400  0.14246800  0.77096900  1
  P  P5  1  0.09407500  0.59595700  0.83370600  1
  O  O0  1  0.88452400  0.20816500  0.07978900  1
  O  O1  1  0.92994600  0.44566000  0.34284100  1
  O  O2  1  0.79095200  0.05932000  0.29318400  1
  O  O3  1  0.98339500  0.81281400  0.33367400  1
  O  O4  1  0.77548400  0.81343600  0.05757000  1
  O  O5  1  0.68983700  0.45821400  0.08239800  1
  O  O6  1  0.87698400  0.46794200  0.83709700  1
  O  O7  1  0.63191500  0.23302400  0.49890100  1
  O  O8  1  0.74040200  0.71478500  0.52711000  1
  O  O9  1  0.54426100  0.74327600  0.22942700  1
  O  O10  1  0.45813700  0.36712600  0.29179300  1
  O  O11  1  0.27615400  0.03925400  0.24307900  1
  O  O12  1  0.72384600  0.96074600  0.75692100  1
  O  O13  1  0.54186300  0.63287400  0.70820700  1
  O  O14  1  0.45573900  0.25672400  0.77057300  1
  O  O15  1  0.25959800  0.28521500  0.47289000  1
  O  O16  1  0.36808500  0.76697600  0.50109900  1
  O  O17  1  0.12301600  0.53205800  0.16290300  1
  O  O18  1  0.31016300  0.54178600  0.91760200  1
  O  O19  1  0.22451600  0.18656400  0.94243000  1
  O  O20  1  0.01660500  0.18718600  0.66632600  1
  O  O21  1  0.20904800  0.94068000  0.70681600  1
  O  O22  1  0.07005400  0.55434000  0.65715900  1
  O  O23  1  0.11547600  0.79183500  0.92021100  1
loop_
_geom_bond_atom_site_label_1
_geom_bond_atom_site_label_2
_geom_bond_distance
_geom_bond_site_symmetry_2
Ni0 O15 1.965831 1_655
Ni0 O2 1.986333 1_555
Ni0 O1 2.027629 1_555
Ni0 O20 2.044544 1_655
Ni0 O7 2.085272 1_555
Ni0 O22 2.151868 1_655
Ni1 O6 1.997259 1_555
Ni1 O12 2.029654 1_545
Ni1 O20 2.043808 1_655
Ni1 O7 2.050299 1_555
Ni1 O14 2.050951 1_555
Ni2 O10 1.969844 1_555
Ni2 O17 2.032662 1_555
Ni2 O5 2.034684 1_555
Ni2 O18 2.040101 1_554
Ni2 O19 2.130498 1_554
Ni2 O9 2.135362 1_555
Ni3 O13 1.969844 1_555
Ni3 O6 2.032662 1_555
Ni3 O18 2.034684 1_555
Ni3 O5 2.040101 1_556
Ni3 O4 2.130498 1_556
Ni3 O14 2.135362 1_555
Ni4 O17 1.997259 1_555
Ni4 O11 2.029654 1_565
Ni4 O3 2.043808 1_455
Ni4 O16 2.050299 1_555
Ni4 O9 2.050951 1_555
Ni5 O8 1.965831 1_455
Ni5 O21 1.986333 1_555
Ni5 O22 2.027629 1_555
Ni5 O3 2.044544 1_455
Ni5 O16 2.085272 1_555
Ni5 O1 2.151868 1_455
Ni6 O0 2.003218 1_455
Ni6 O23 2.003218 1_544
Ni6 O19 2.145509 1_554
Ni6 O4 2.145509 1_445
Ni6 O11 2.304763 1_555
Ni6 O12 2.304763 1_444
O0 P0 1.516429 1_555
O1 P0 1.553435 1_555
O2 P1 1.527164 1_545
O3 P1 1.563056 1_555
O4 P1 1.562657 1_555
O5 P0 1.557885 1_555
O6 P5 1.563841 1_655
O7 P2 1.560433 1_555
O8 P3 1.533593 1_555
O9 P1 1.556289 1_555
O10 P2 1.515145 1_555
O11 P2 1.565216 1_555
O12 P3 1.565216 1_555
O13 P3 1.515145 1_555
O14 P4 1.556289 1_555
O15 P2 1.533593 1_555
O16 P3 1.560433 1_555
O17 P0 1.563841 1_455
O18 P5 1.557885 1_555
O19 P4 1.562657 1_555
O20 P4 1.563056 1_555
O21 P4 1.527164 1_565
O22 P5 1.553435 1_555
O23 P5 1.516429 1_555
