# generated using pymatgen
data_K3BePCO7
_symmetry_space_group_name_H-M   'P 1'
_cell_length_a   8.36307700
_cell_length_b   5.25007200
_cell_length_c   9.26091221
_cell_angle_alpha   86.12449833
_cell_angle_beta   90.00000000
_cell_angle_gamma   90.00000000
_symmetry_Int_Tables_number   1
_chemical_formula_structural   K3BePCO7
_chemical_formula_sum   'K6 Be2 P2 C2 O14'
_cell_volume   405.68679377
_cell_formula_units_Z   2
loop_
 _symmetry_equiv_pos_site_id
 _symmetry_equiv_pos_as_xyz
  1  'x, y, z'
loop_
 _atom_site_type_symbol
 _atom_site_label
 _atom_site_symmetry_multiplicity
 _atom_site_fract_x
 _atom_site_fract_y
 _atom_site_fract_z
 _atom_site_occupancy
  K  K0  1  0.75000000  0.24985900  0.91244400  1
  K  K1  1  0.99557800  0.75080500  0.70838100  1
  K  K2  1  0.50442200  0.75080500  0.70838100  1
  K  K3  1  0.49557800  0.24919500  0.29161900  1
  K  K4  1  0.00442200  0.24919500  0.29161900  1
  K  K5  1  0.25000000  0.75014100  0.08755600  1
  Be  Be0  1  0.25000000  0.21114900  0.62149000  1
  Be  Be1  1  0.75000000  0.78885100  0.37851000  1
  P  P0  1  0.75000000  0.26929800  0.56310100  1
  P  P1  1  0.25000000  0.73070200  0.43689900  1
  C  C0  1  0.25000000  0.30727800  0.89112400  1
  C  C1  1  0.75000000  0.69272200  0.10887600  1
  O  O0  1  0.75000000  0.76943600  0.97325000  1
  O  O1  1  0.25000000  0.13398900  0.79138600  1
  O  O2  1  0.25000000  0.54293600  0.84812200  1
  O  O3  1  0.90316000  0.25551900  0.65454100  1
  O  O4  1  0.59684000  0.25551900  0.65454100  1
  O  O5  1  0.75000000  0.52524800  0.46410500  1
  O  O6  1  0.25000000  0.96005600  0.53903300  1
  O  O7  1  0.75000000  0.03994400  0.46096700  1
  O  O8  1  0.25000000  0.47475200  0.53589500  1
  O  O9  1  0.40316000  0.74448100  0.34545900  1
  O  O10  1  0.09684000  0.74448100  0.34545900  1
  O  O11  1  0.75000000  0.45706400  0.15187800  1
  O  O12  1  0.75000000  0.86601100  0.20861400  1
  O  O13  1  0.25000000  0.23056400  0.02675000  1
loop_
_geom_bond_atom_site_label_1
_geom_bond_atom_site_label_2
_geom_bond_distance
_geom_bond_site_symmetry_2
K0 O11 2.535001 1_556
K0 O0 2.546935 1_545
K0 O4 2.708598 1_555
K0 O3 2.708598 1_555
K0 O0 2.822363 1_555
K1 O2 2.683687 1_655
K1 O3 2.772859 1_565
K1 O3 2.789756 1_555
K1 O6 2.821511 1_655
K1 O1 3.061761 1_665
K1 O8 3.080966 1_655
K1 O0 3.205761 1_555
K2 O2 2.683687 1_555
K2 O4 2.772859 1_565
K2 O4 2.789756 1_555
K2 O6 2.821511 1_555
K2 O1 3.061761 1_565
K2 O8 3.080966 1_555
K2 O0 3.205761 1_555
K3 O11 2.683687 1_555
K3 O9 2.772859 1_545
K3 O9 2.789756 1_555
K3 O7 2.821511 1_555
K3 O12 3.061761 1_545
K3 O5 3.080966 1_555
K3 O13 3.205761 1_555
K4 O11 2.683687 1_455
K4 O10 2.772859 1_545
K4 O10 2.789756 1_555
K4 O7 2.821511 1_455
K4 O12 3.061761 1_445
K4 O5 3.080966 1_455
K4 O13 3.205761 1_555
K5 O2 2.535001 1_554
K5 O13 2.546935 1_565
K5 O9 2.708598 1_555
K5 O10 2.708598 1_555
K5 O13 2.822363 1_555
Be0 O8 1.547687 1_555
Be0 O6 1.567483 1_545
Be0 O1 1.597969 1_555
Be1 O5 1.547687 1_555
Be1 O7 1.567483 1_565
Be1 O12 1.597969 1_555
C0 O2 1.273855 1_555
C0 O13 1.292833 1_556
C0 O1 1.339571 1_555
C1 O11 1.273855 1_555
C1 O0 1.292833 1_554
C1 O12 1.339571 1_555
O3 P0 1.534513 1_555
O4 P0 1.534513 1_555
O5 P0 1.574693 1_555
O6 P1 1.580669 1_555
O7 P0 1.580669 1_555
O8 P1 1.574693 1_555
O9 P1 1.534513 1_555
O10 P1 1.534513 1_555
