# generated using pymatgen
data_VCrO3
_symmetry_space_group_name_H-M   'P 1'
_cell_length_a   5.04921890
_cell_length_b   5.38821107
_cell_length_c   7.35860011
_cell_angle_alpha   96.05204108
_cell_angle_beta   90.21383634
_cell_angle_gamma   89.86897558
_symmetry_Int_Tables_number   1
_chemical_formula_structural   VCrO3
_chemical_formula_sum   'V4 Cr4 O12'
_cell_volume   199.08241372
_cell_formula_units_Z   4
loop_
 _symmetry_equiv_pos_site_id
 _symmetry_equiv_pos_as_xyz
  1  'x, y, z'
loop_
 _atom_site_type_symbol
 _atom_site_label
 _atom_site_symmetry_multiplicity
 _atom_site_fract_x
 _atom_site_fract_y
 _atom_site_fract_z
 _atom_site_occupancy
  V  V0  1  0.50357351  0.80032237  0.85032694  1
  V  V1  1  -0.00023318  0.30403455  0.85444628  1
  V  V2  1  0.00322260  0.69301569  0.14654720  1
  V  V3  1  0.00073085  0.29783711  0.35249640  1
  Cr  Cr0  1  0.00085301  0.70131244  0.64797987  1
  Cr  Cr1  1  0.50050795  0.79958724  0.34897110  1
  Cr  Cr2  1  0.50024238  0.20054489  0.65035787  1
  Cr  Cr3  1  0.49888657  0.19726152  0.15228668  1
  O  O0  1  0.69666636  0.50405344  0.74630419  1
  O  O1  1  0.14945034  0.65907579  0.90089384  1
  O  O2  1  0.34757919  0.85079224  0.59848090  1
  O  O3  1  0.80741169  0.00429490  0.74794625  1
  O  O4  1  0.84787305  0.65317132  0.40040444  1
  O  O5  1  0.34805979  0.15826080  0.90266689  1
  O  O6  1  0.15382418  0.35020614  0.59953746  1
  O  O7  1  0.64755605  0.84353805  0.09787811  1
  O  O8  1  0.64886650  0.14889514  0.40282327  1
  O  O9  1  0.84126080  0.34250483  0.09879473  1
  O  O10  1  0.30783457  0.49572919  0.25146002  1
  O  O11  1  0.19583379  0.99556536  0.24939858  1
loop_
_geom_bond_atom_site_label_1
_geom_bond_atom_site_label_2
_geom_bond_distance
_geom_bond_site_symmetry_2
Cr0 O4 1.968168 1_455
Cr0 O3 1.976140 1_465
Cr0 O2 1.979747 1_555
Cr0 O6 2.038592 1_555
Cr0 O1 2.038754 1_555
Cr0 O0 2.046978 1_455
Cr1 O4 1.973211 1_555
Cr1 O10 1.973892 1_555
Cr1 O2 1.986508 1_555
Cr1 O8 2.026723 1_565
Cr1 O7 2.030920 1_555
Cr1 O11 2.041035 1_555
Cr2 O8 1.964905 1_555
Cr2 O6 1.975321 1_555
Cr2 O0 1.978705 1_555
Cr2 O2 2.035719 1_545
Cr2 O3 2.045399 1_555
Cr2 O5 2.046977 1_555
Cr3 O10 1.949400 1_555
Cr3 O9 1.957578 1_555
Cr3 O5 1.976627 1_554
Cr3 O8 2.032298 1_555
Cr3 O7 2.047238 1_545
Cr3 O11 2.052495 1_545
O0 V0 1.955926 1_555
O0 V1 2.073930 1_655
O1 V2 1.945732 1_556
O1 V0 1.996420 1_555
O1 V1 2.052937 1_555
O2 V0 2.055046 1_555
O3 V1 1.974970 1_655
O3 V0 2.078466 1_545
O4 V3 2.058804 1_655
O4 V2 2.060871 1_655
O5 V1 1.970622 1_555
O5 V0 2.079253 1_545
O6 V3 1.965750 1_555
O6 V1 2.072600 1_555
O7 V0 1.950008 1_554
O7 V2 2.015162 1_655
O8 V3 2.002937 1_655
O9 V1 1.961611 1_654
O9 V2 2.055269 1_655
O9 V3 2.067410 1_655
O10 V2 2.061147 1_555
O10 V3 2.068220 1_555
O11 V2 1.979340 1_555
O11 V3 1.984032 1_565
