# generated using pymatgen
data_Li11V6O5F19
_symmetry_space_group_name_H-M   'P 1'
_cell_length_a   5.14692500
_cell_length_b   5.45253030
_cell_length_c   16.30678945
_cell_angle_alpha   80.38908325
_cell_angle_beta   89.70692107
_cell_angle_gamma   88.42678053
_symmetry_Int_Tables_number   1
_chemical_formula_structural   Li11V6O5F19
_chemical_formula_sum   'Li11 V6 O5 F19'
_cell_volume   451.03657230
_cell_formula_units_Z   1
loop_
 _symmetry_equiv_pos_site_id
 _symmetry_equiv_pos_as_xyz
  1  'x, y, z'
loop_
 _atom_site_type_symbol
 _atom_site_label
 _atom_site_symmetry_multiplicity
 _atom_site_fract_x
 _atom_site_fract_y
 _atom_site_fract_z
 _atom_site_occupancy
  Li  Li0  1  0.52902000  0.52746200  0.20358600  1
  Li  Li1  1  0.51294100  0.32958500  0.43452000  1
  Li  Li2  1  0.00619100  0.17601200  0.77795300  1
  Li  Li3  1  0.00598800  0.49980000  0.09467000  1
  Li  Li4  1  0.50844600  0.97444300  0.88284400  1
  Li  Li5  1  0.99957900  0.18194600  0.55541300  1
  Li  Li6  1  0.97615100  0.02652400  0.20528700  1
  Li  Li7  1  0.99067800  0.82646700  0.43691300  1
  Li  Li8  1  0.51040100  0.03214200  0.10974900  1
  Li  Li9  1  0.00004300  0.53057900  0.89687200  1
  Li  Li10  1  0.51768700  0.66378000  0.55452200  1
  V  V0  1  0.98184400  0.32983300  0.33771500  1
  V  V1  1  0.48574200  0.17685200  0.66473200  1
  V  V2  1  0.00055000  0.99266600  0.00199400  1
  V  V3  1  0.50167100  0.49301800  0.00194700  1
  V  V4  1  0.53083600  0.83333600  0.33905600  1
  V  V5  1  0.01406200  0.65307700  0.66686800  1
  O  O0  1  0.80096500  0.59327000  0.37563900  1
  O  O1  1  0.71259300  0.09558800  0.37290100  1
  O  O2  1  0.79947200  0.26777400  0.03513000  1
  O  O3  1  0.18726100  0.69736800  0.97825800  1
  O  O4  1  0.18695400  0.37821600  0.63198400  1
  F  F0  1  0.69348700  0.76654300  0.05242200  1
  F  F1  1  0.31735300  0.53471600  0.30127600  1
  F  F2  1  0.64163500  0.29690700  0.55148900  1
  F  F3  1  0.86202500  0.09283200  0.88527500  1
  F  F4  1  0.35619100  0.05710000  0.77759000  1
  F  F5  1  0.36258700  0.37202800  0.12030600  1
  F  F6  1  0.15721900  0.21304300  0.45076000  1
  F  F7  1  0.87163800  0.38213500  0.21199600  1
  F  F8  1  0.83079700  0.97624000  0.69698500  1
  F  F9  1  0.32580300  0.87748000  0.62565600  1
  F  F10  1  0.19629800  0.03543900  0.29886700  1
  F  F11  1  0.64458000  0.63204600  0.89309400  1
  F  F12  1  0.15361800  0.90250900  0.11877000  1
  F  F13  1  0.86735700  0.79845500  0.55578900  1
  F  F14  1  0.09464800  0.53945700  0.78312700  1
  F  F15  1  0.64419000  0.87932300  0.21512700  1
  F  F16  1  0.35287300  0.71613300  0.45137800  1
  F  F17  1  0.68465500  0.45767900  0.69735200  1
  F  F18  1  0.31723900  0.20258700  0.95742600  1
loop_
_geom_bond_atom_site_label_1
_geom_bond_atom_site_label_2
_geom_bond_distance
_geom_bond_site_symmetry_2
Li1 O1 2.009720 1_555
Li1 O0 2.197309 1_555
Li3 O2 2.041461 1_455
Li3 O3 2.233550 1_554
Li5 O4 2.037053 1_655
Li7 O0 2.017654 1_555
Li7 O1 2.163306 1_565
Li8 O2 2.215701 1_555
Li9 O3 1.995267 1_555
O0 V0 1.878746 1_555
O0 V4 1.910526 1_555
O1 V4 1.888574 1_545
O1 V0 1.930118 1_555
O2 V2 1.947523 1_645
O2 V3 1.957988 1_555
O3 V3 1.942447 1_556
O3 V2 1.945542 1_556
O4 V5 1.888854 1_555
O4 V1 1.890902 1_555
F0 Li8 2.056021 1_565
F0 V3 2.091769 1_555
F0 V2 2.109329 1_655
F0 Li3 2.173774 1_655
F1 Li0 1.930552 1_555
F1 V0 2.111116 1_455
F1 V4 2.162897 1_555
F1 Li1 2.476783 1_555
F2 Li5 1.927569 1_555
F2 Li1 2.000397 1_555
F2 V1 2.022965 1_555
F2 Li10 2.091319 1_555
F3 Li2 1.886586 1_655
F3 Li4 1.950356 1_545
F3 V2 2.018568 1_646
F4 Li4 1.870606 1_545
F4 Li2 1.898048 1_555
F4 V1 1.966710 1_555
F5 Li0 1.931939 1_555
F5 Li3 1.967019 1_555
F5 Li8 2.017598 1_555
F5 V3 2.063833 1_555
F6 Li5 1.869800 1_455
F6 Li1 1.956721 1_555
F6 V0 2.052290 1_455
F6 Li7 2.342806 1_445
F7 Li0 1.909411 1_555
F7 Li6 2.018398 1_555
F7 Li3 2.037426 1_655
F7 V0 2.100872 1_555
F8 Li2 2.071501 1_665
F8 V1 2.082780 1_565
F8 V5 2.104450 1_655
F8 Li5 2.551590 1_565
F9 Li10 2.013707 1_555
F9 V1 2.043198 1_565
F9 V5 2.084558 1_555
F9 Li5 2.473635 1_465
F10 Li6 1.913206 1_455
F10 V4 2.067555 1_545
F10 V0 2.105084 1_455
F11 Li9 1.895072 1_655
F11 Li4 1.956906 1_555
F11 V3 1.958162 1_556
F12 Li6 1.885048 1_465
F12 Li8 1.981706 1_565
F12 V2 2.042052 1_555
F12 Li3 2.436406 1_555
F13 Li10 1.963842 1_555
F13 V5 1.995278 1_655
F13 Li7 2.019357 1_555
F13 Li5 2.215682 1_565
F14 Li9 1.908364 1_555
F14 V5 1.936929 1_555
F14 Li2 2.060892 1_555
F15 Li6 1.902281 1_565
F15 Li8 1.903625 1_565
F15 Li0 2.061968 1_555
F15 V4 2.077017 1_555
F16 Li10 1.863062 1_555
F16 Li7 1.946356 1_455
F16 V4 2.055799 1_555
F16 Li1 2.300515 1_555
F17 V1 2.009811 1_555
F17 V5 2.042161 1_655
F17 Li2 2.456340 1_655
F17 Li10 2.553342 1_555
F18 V2 2.075492 1_546
F18 V3 2.099852 1_556
F18 Li4 2.102567 1_545
F18 Li9 2.470871 1_555
