# generated using pymatgen
data_Ba4LiNb3O12
_symmetry_space_group_name_H-M   'P 1'
_cell_length_a   5.88214600
_cell_length_b   10.21268500
_cell_length_c   19.35707900
_cell_angle_alpha   90.00000000
_cell_angle_beta   90.00000000
_cell_angle_gamma   90.00000000
_symmetry_Int_Tables_number   1
_chemical_formula_structural   Ba4LiNb3O12
_chemical_formula_sum   'Ba16 Li4 Nb12 O48'
_cell_volume   1162.82820995
_cell_formula_units_Z   4
loop_
 _symmetry_equiv_pos_site_id
 _symmetry_equiv_pos_as_xyz
  1  'x, y, z'
loop_
 _atom_site_type_symbol
 _atom_site_label
 _atom_site_symmetry_multiplicity
 _atom_site_fract_x
 _atom_site_fract_y
 _atom_site_fract_z
 _atom_site_occupancy
  Ba  Ba0  1  0.75000000  0.07203300  0.63318400  1
  Ba  Ba1  1  0.75000000  0.08442000  0.25144300  1
  Ba  Ba2  1  0.75000000  0.75231200  0.50165900  1
  Ba  Ba3  1  0.75000000  0.09347100  0.86107000  1
  Ba  Ba4  1  0.75000000  0.74768800  0.00165900  1
  Ba  Ba5  1  0.75000000  0.41558000  0.75144300  1
  Ba  Ba6  1  0.75000000  0.40652900  0.36107000  1
  Ba  Ba7  1  0.75000000  0.42796700  0.13318400  1
  Ba  Ba8  1  0.25000000  0.59347100  0.63893000  1
  Ba  Ba9  1  0.25000000  0.58442000  0.24855700  1
  Ba  Ba10  1  0.25000000  0.91558000  0.74855700  1
  Ba  Ba11  1  0.25000000  0.92796700  0.36681600  1
  Ba  Ba12  1  0.25000000  0.90652900  0.13893000  1
  Ba  Ba13  1  0.25000000  0.25231200  0.99834100  1
  Ba  Ba14  1  0.25000000  0.24768800  0.49834100  1
  Ba  Ba15  1  0.25000000  0.57203300  0.86681600  1
  Li  Li0  1  0.75000000  0.75072100  0.66676200  1
  Li  Li1  1  0.75000000  0.74927900  0.16676200  1
  Li  Li2  1  0.25000000  0.24927900  0.33323800  1
  Li  Li3  1  0.25000000  0.25072100  0.83323800  1
  Nb  Nb0  1  0.75000000  0.08065800  0.06421600  1
  Nb  Nb1  1  0.75000000  0.74853700  0.80977800  1
  Nb  Nb2  1  0.75000000  0.75146300  0.30977800  1
  Nb  Nb3  1  0.75000000  0.08663800  0.43699500  1
  Nb  Nb4  1  0.75000000  0.41336200  0.93699500  1
  Nb  Nb5  1  0.75000000  0.41934200  0.56421600  1
  Nb  Nb6  1  0.25000000  0.58663800  0.06300500  1
  Nb  Nb7  1  0.25000000  0.24853700  0.69022200  1
  Nb  Nb8  1  0.25000000  0.91336200  0.56300500  1
  Nb  Nb9  1  0.25000000  0.91934200  0.93578400  1
  Nb  Nb10  1  0.25000000  0.25146300  0.19022200  1
  Nb  Nb11  1  0.25000000  0.58065800  0.43578400  1
  O  O0  1  0.75000000  0.58452900  0.88049200  1
  O  O1  1  0.75000000  0.24746100  0.49950400  1
  O  O2  1  0.75000000  0.25253900  0.99950400  1
  O  O3  1  0.75000000  0.92693000  0.12074400  1
  O  O4  1  0.75000000  0.91547100  0.38049200  1
  O  O5  1  0.75000000  0.57307000  0.62074400  1
  O  O6  1  0.75000000  0.90945500  0.75910300  1
  O  O7  1  0.75000000  0.59054500  0.25910300  1
  O  O8  1  0.98966700  0.82923600  0.25802800  1
  O  O9  1  0.98966700  0.67076400  0.75802800  1
  O  O10  1  0.99585800  0.16614500  0.11909100  1
  O  O11  1  0.98827500  0.16064200  0.37929100  1
  O  O12  1  0.99585800  0.33385500  0.61909100  1
  O  O13  1  0.98827500  0.33935800  0.87929100  1
  O  O14  1  0.00000000  0.00000000  0.50000000  1
  O  O15  1  0.00000000  0.00000000  0.00000000  1
  O  O16  1  0.00000000  0.50000000  0.50000000  1
  O  O17  1  0.00000000  0.50000000  0.00000000  1
  O  O18  1  0.00414200  0.66614500  0.38090900  1
  O  O19  1  0.01172500  0.66064200  0.12070900  1
  O  O20  1  0.01172500  0.83935800  0.62070900  1
  O  O21  1  0.00414200  0.83385500  0.88090900  1
  O  O22  1  0.01033300  0.32923600  0.24197200  1
  O  O23  1  0.01033300  0.17076400  0.74197200  1
  O  O24  1  0.25000000  0.07307000  0.87925600  1
  O  O25  1  0.25000000  0.75253900  0.50049600  1
  O  O26  1  0.25000000  0.74746100  0.00049600  1
  O  O27  1  0.25000000  0.08452900  0.61950800  1
  O  O28  1  0.25000000  0.42693000  0.37925600  1
  O  O29  1  0.25000000  0.41547100  0.11950800  1
  O  O30  1  0.25000000  0.09054500  0.24089700  1
  O  O31  1  0.25000000  0.40945500  0.74089700  1
  O  O32  1  0.48966700  0.32923600  0.24197200  1
  O  O33  1  0.48966700  0.17076400  0.74197200  1
  O  O34  1  0.49585800  0.66614500  0.38090900  1
  O  O35  1  0.48827500  0.66064200  0.12070900  1
  O  O36  1  0.49585800  0.83385500  0.88090900  1
  O  O37  1  0.48827500  0.83935800  0.62070900  1
  O  O38  1  0.50000000  0.50000000  0.50000000  1
  O  O39  1  0.50000000  0.50000000  0.00000000  1
  O  O40  1  0.50000000  0.00000000  0.50000000  1
  O  O41  1  0.50000000  0.00000000  0.00000000  1
  O  O42  1  0.50414200  0.16614500  0.11909100  1
  O  O43  1  0.51172500  0.16064200  0.37929100  1
  O  O44  1  0.50414200  0.33385500  0.61909100  1
  O  O45  1  0.51172500  0.33935800  0.87929100  1
  O  O46  1  0.51033300  0.82923600  0.25802800  1
  O  O47  1  0.51033300  0.67076400  0.75802800  1
loop_
_geom_bond_atom_site_label_1
_geom_bond_atom_site_label_2
_geom_bond_distance
_geom_bond_site_symmetry_2
Ba0 O23 2.792147 1_655
Ba0 O33 2.792147 1_555
Ba0 O20 2.841635 1_645
Ba0 O37 2.841635 1_545
Ba0 O6 2.949207 1_545
Ba0 O27 2.955719 1_555
Ba0 O27 2.955719 1_655
Ba0 O44 3.052148 1_555
Ba0 O12 3.052148 1_555
Ba0 O14 3.057780 1_655
Ba0 O40 3.057780 1_555
Ba0 O1 3.147341 1_555
Ba1 O22 2.937632 1_655
Ba1 O32 2.937632 1_555
Ba1 O43 2.948695 1_555
Ba1 O11 2.948695 1_555
Ba1 O30 2.948813 1_655
Ba1 O30 2.948813 1_555
Ba1 O8 2.965719 1_545
Ba1 O46 2.965719 1_545
Ba1 O3 2.997931 1_545
Ba1 O4 3.035975 1_545
Ba1 O10 3.058039 1_555
Ba1 O42 3.058039 1_555
Ba2 O4 2.877084 1_555
Ba2 O37 2.910479 1_555
Ba2 O20 2.910479 1_655
Ba2 O34 2.910740 1_555
Ba2 O18 2.910740 1_655
Ba2 O14 2.926120 1_665
Ba2 O40 2.926120 1_565
Ba2 O25 2.941160 1_555
Ba2 O25 2.941160 1_655
Ba2 O5 2.943560 1_555
Ba2 O38 2.967039 1_555
Ba2 O16 2.967039 1_655
Ba3 O6 2.725359 1_545
Ba3 O23 2.877995 1_655
Ba3 O33 2.877995 1_555
Ba3 O45 2.897370 1_555
Ba3 O13 2.897370 1_555
Ba3 O24 2.969384 1_655
Ba3 O24 2.969384 1_555
Ba3 O36 3.067898 1_545
Ba3 O21 3.067898 1_645
Ba3 O2 3.133642 1_555
Ba3 O41 3.210287 1_556
Ba3 O15 3.210287 1_656
Ba4 O0 2.877084 1_554
Ba4 O35 2.910479 1_555
Ba4 O19 2.910479 1_655
Ba4 O36 2.910740 1_554
Ba4 O21 2.910740 1_654
Ba4 O39 2.926120 1_555
Ba4 O17 2.926120 1_655
Ba4 O26 2.941160 1_555
Ba4 O26 2.941160 1_655
Ba4 O3 2.943560 1_555
Ba4 O41 2.967039 1_565
Ba4 O15 2.967039 1_665
Ba5 O33 2.937632 1_555
Ba5 O23 2.937632 1_655
Ba5 O45 2.948695 1_555
Ba5 O13 2.948695 1_555
Ba5 O31 2.948813 1_655
Ba5 O31 2.948813 1_555
Ba5 O47 2.965719 1_555
Ba5 O9 2.965719 1_555
Ba5 O5 2.997931 1_555
Ba5 O0 3.035975 1_555
Ba5 O44 3.058039 1_555
Ba5 O12 3.058039 1_555
Ba6 O7 2.725359 1_555
Ba6 O32 2.877995 1_555
Ba6 O22 2.877995 1_655
Ba6 O43 2.897370 1_555
Ba6 O11 2.897370 1_555
Ba6 O28 2.969384 1_655
Ba6 O28 2.969384 1_555
Ba6 O34 3.067898 1_555
Ba6 O18 3.067898 1_655
Ba6 O1 3.133642 1_555
Ba6 O16 3.210287 1_655
Ba6 O38 3.210287 1_555
Ba7 O22 2.792147 1_655
Ba7 O32 2.792147 1_555
Ba7 O35 2.841635 1_555
Ba7 O19 2.841635 1_655
Ba7 O7 2.949207 1_555
Ba7 O29 2.955719 1_655
Ba7 O29 2.955719 1_555
Ba7 O42 3.052148 1_555
Ba7 O10 3.052148 1_555
Ba7 O39 3.057780 1_555
Ba7 O17 3.057780 1_655
Ba7 O2 3.147341 1_554
Ba8 O31 2.725359 1_555
Ba8 O47 2.877995 1_555
Ba8 O9 2.877995 1_455
Ba8 O20 2.897370 1_555
Ba8 O37 2.897370 1_555
Ba8 O5 2.969384 1_455
Ba8 O5 2.969384 1_555
Ba8 O44 3.067898 1_555
Ba8 O12 3.067898 1_455
Ba8 O25 3.133642 1_555
Ba8 O16 3.210287 1_555
Ba8 O38 3.210287 1_555
Ba9 O8 2.937632 1_455
Ba9 O46 2.937632 1_555
Ba9 O19 2.948695 1_555
Ba9 O35 2.948695 1_555
Ba9 O7 2.948813 1_455
Ba9 O7 2.948813 1_555
Ba9 O22 2.965719 1_555
Ba9 O32 2.965719 1_555
Ba9 O28 2.997931 1_555
Ba9 O29 3.035975 1_555
Ba9 O34 3.058039 1_555
Ba9 O18 3.058039 1_555
Ba10 O47 2.937632 1_555
Ba10 O9 2.937632 1_455
Ba10 O20 2.948695 1_555
Ba10 O37 2.948695 1_555
Ba10 O6 2.948813 1_555
Ba10 O6 2.948813 1_455
Ba10 O23 2.965719 1_565
Ba10 O33 2.965719 1_565
Ba10 O24 2.997931 1_565
Ba10 O27 3.035975 1_565
Ba10 O21 3.058039 1_555
Ba10 O36 3.058039 1_555
Ba11 O8 2.792147 1_455
Ba11 O46 2.792147 1_555
Ba11 O11 2.841635 1_465
Ba11 O43 2.841635 1_565
Ba11 O30 2.949207 1_565
Ba11 O4 2.955719 1_555
Ba11 O4 2.955719 1_455
Ba11 O18 3.052148 1_555
Ba11 O34 3.052148 1_555
Ba11 O40 3.057780 1_565
Ba11 O14 3.057780 1_565
Ba11 O25 3.147341 1_555
Ba12 O30 2.725359 1_565
Ba12 O8 2.877995 1_455
Ba12 O46 2.877995 1_555
Ba12 O35 2.897370 1_555
Ba12 O19 2.897370 1_555
Ba12 O3 2.969384 1_455
Ba12 O3 2.969384 1_555
Ba12 O42 3.067898 1_565
Ba12 O10 3.067898 1_465
Ba12 O26 3.133642 1_555
Ba12 O41 3.210287 1_565
Ba12 O15 3.210287 1_565
Ba13 O29 2.877084 1_556
Ba13 O45 2.910479 1_555
Ba13 O13 2.910479 1_455
Ba13 O10 2.910740 1_456
Ba13 O42 2.910740 1_556
Ba13 O39 2.926120 1_556
Ba13 O17 2.926120 1_556
Ba13 O2 2.941160 1_455
Ba13 O2 2.941160 1_555
Ba13 O24 2.943560 1_555
Ba13 O15 2.967039 1_556
Ba13 O41 2.967039 1_556
Ba14 O27 2.877084 1_555
Ba14 O11 2.910479 1_455
Ba14 O43 2.910479 1_555
Ba14 O44 2.910740 1_555
Ba14 O12 2.910740 1_455
Ba14 O14 2.926120 1_555
Ba14 O40 2.926120 1_555
Ba14 O1 2.941160 1_455
Ba14 O1 2.941160 1_555
Ba14 O28 2.943560 1_555
Ba14 O38 2.967039 1_555
Ba14 O16 2.967039 1_555
Ba15 O47 2.792147 1_555
Ba15 O9 2.792147 1_455
Ba15 O45 2.841635 1_555
Ba15 O13 2.841635 1_455
Ba15 O31 2.949207 1_555
Ba15 O0 2.955719 1_455
Ba15 O0 2.955719 1_555
Ba15 O21 3.052148 1_555
Ba15 O36 3.052148 1_555
Ba15 O39 3.057780 1_556
Ba15 O17 3.057780 1_556
Ba15 O26 3.147341 1_556
Li0 O37 1.996043 1_555
Li0 O20 1.996043 1_655
Li0 O5 2.021173 1_555
Li0 O47 2.403172 1_555
Li0 O9 2.403172 1_555
Li0 O6 2.413079 1_555
Li1 O35 1.996043 1_555
Li1 O19 1.996043 1_655
Li1 O3 2.021173 1_555
Li1 O46 2.403172 1_555
Li1 O8 2.403172 1_555
Li1 O7 2.413079 1_555
Li2 O11 1.996043 1_455
Li2 O43 1.996043 1_555
Li2 O28 2.021173 1_555
Li2 O32 2.403172 1_555
Li2 O22 2.403172 1_555
Li2 O30 2.413079 1_555
Li3 O13 1.996043 1_455
Li3 O45 1.996043 1_555
Li3 O24 2.021173 1_555
Li3 O33 2.403172 1_555
Li3 O23 2.403172 1_555
Li3 O31 2.413079 1_555
Nb0 O3 1.913670 1_545
Nb0 O10 1.995481 1_555
Nb0 O42 1.995481 1_555
Nb0 O15 2.094314 1_655
Nb0 O41 2.094314 1_555
Nb0 O2 2.156480 1_554
Nb1 O9 1.903087 1_555
Nb1 O47 1.903087 1_555
Nb1 O6 1.913892 1_555
Nb1 O0 2.163136 1_555
Nb1 O36 2.211280 1_555
Nb1 O21 2.211280 1_655
Nb2 O8 1.903087 1_555
Nb2 O46 1.903087 1_555
Nb2 O7 1.913892 1_555
Nb2 O4 2.163136 1_555
Nb2 O34 2.211280 1_555
Nb2 O18 2.211280 1_655
Nb3 O11 1.945056 1_555
Nb3 O43 1.945056 1_555
Nb3 O1 2.040017 1_555
Nb3 O4 2.062042 1_545
Nb3 O14 2.105414 1_655
Nb3 O40 2.105414 1_555
Nb4 O13 1.945056 1_555
Nb4 O45 1.945056 1_555
Nb4 O2 2.040017 1_555
Nb4 O0 2.062042 1_555
Nb4 O17 2.105414 1_656
Nb4 O39 2.105414 1_556
Nb5 O5 1.913670 1_555
Nb5 O44 1.995481 1_555
Nb5 O12 1.995481 1_555
Nb5 O38 2.094314 1_555
Nb5 O16 2.094314 1_655
Nb5 O1 2.156480 1_555
Nb6 O35 1.945056 1_555
Nb6 O19 1.945056 1_555
Nb6 O26 2.040017 1_555
Nb6 O29 2.062042 1_555
Nb6 O39 2.105414 1_555
Nb6 O17 2.105414 1_555
Nb7 O23 1.903087 1_555
Nb7 O33 1.903087 1_555
Nb7 O31 1.913892 1_555
Nb7 O27 2.163136 1_555
Nb7 O12 2.211280 1_455
Nb7 O44 2.211280 1_555
Nb8 O20 1.945056 1_555
Nb8 O37 1.945056 1_555
Nb8 O25 2.040017 1_555
Nb8 O27 2.062042 1_565
Nb8 O14 2.105414 1_565
Nb8 O40 2.105414 1_565
Nb9 O24 1.913670 1_565
Nb9 O21 1.995481 1_555
Nb9 O36 1.995481 1_555
Nb9 O15 2.094314 1_566
Nb9 O41 2.094314 1_566
Nb9 O26 2.156480 1_556
Nb10 O22 1.903087 1_555
Nb10 O32 1.903087 1_555
Nb10 O30 1.913892 1_555
Nb10 O29 2.163136 1_555
Nb10 O10 2.211280 1_455
Nb10 O42 2.211280 1_555
Nb11 O28 1.913670 1_555
Nb11 O18 1.995481 1_555
Nb11 O34 1.995481 1_555
Nb11 O16 2.094314 1_555
Nb11 O38 2.094314 1_555
Nb11 O25 2.156480 1_555
