# generated using pymatgen
data_Li5Mn6(BO3)6
_symmetry_space_group_name_H-M   'P 1'
_cell_length_a   6.34747500
_cell_length_b   8.34151705
_cell_length_c   8.78478754
_cell_angle_alpha   118.18746171
_cell_angle_beta   111.01617179
_cell_angle_gamma   90.00602389
_symmetry_Int_Tables_number   1
_chemical_formula_structural   Li5Mn6(BO3)6
_chemical_formula_sum   'Li5 Mn6 B6 O18'
_cell_volume   374.49022486
_cell_formula_units_Z   1
loop_
 _symmetry_equiv_pos_site_id
 _symmetry_equiv_pos_as_xyz
  1  'x, y, z'
loop_
 _atom_site_type_symbol
 _atom_site_label
 _atom_site_symmetry_multiplicity
 _atom_site_fract_x
 _atom_site_fract_y
 _atom_site_fract_z
 _atom_site_occupancy
  Li  Li0  1  0.61111700  0.01117900  0.71482200  1
  Li  Li1  1  0.10029700  0.01791100  0.71408800  1
  Li  Li2  1  0.90799400  0.28405400  0.30473900  1
  Li  Li3  1  0.39640600  0.28647600  0.30257800  1
  Li  Li4  1  0.74804000  0.70687200  0.98191700  1
  Mn  Mn0  1  0.31675300  0.64081400  0.64567700  1
  Mn  Mn1  1  0.81965100  0.63737200  0.63775600  1
  Mn  Mn2  1  0.01078100  0.39401700  0.01627000  1
  Mn  Mn3  1  0.50285700  0.36887800  0.00932100  1
  Mn  Mn4  1  0.17977800  0.98111200  0.34661700  1
  Mn  Mn5  1  0.66457000  0.97591500  0.33504200  1
  B  B0  1  0.99624700  0.01465300  0.00266300  1
  B  B1  1  0.50466500  0.00857200  0.00062300  1
  B  B2  1  0.06929800  0.31795300  0.65895100  1
  B  B3  1  0.58980300  0.32727300  0.66547700  1
  B  B4  1  0.41360900  0.66745500  0.33859600  1
  B  B5  1  0.92416100  0.66403800  0.33200200  1
  O  O0  1  0.94560500  0.10244900  0.89529500  1
  O  O1  1  0.43723300  0.08169700  0.88016400  1
  O  O2  1  0.53258600  0.13714200  0.55923800  1
  O  O3  1  0.01674200  0.12774300  0.54178600  1
  O  O4  1  0.16006900  0.38973800  0.85487600  1
  O  O5  1  0.69871100  0.41735700  0.86532700  1
  O  O6  1  0.10173800  0.12336500  0.19991300  1
  O  O7  1  0.59872000  0.13072600  0.19689100  1
  O  O8  1  0.04124600  0.43675000  0.58783900  1
  O  O9  1  0.54119100  0.43870700  0.58628200  1
  O  O10  1  0.94034100  0.82515200  0.91801200  1
  O  O11  1  0.48382900  0.82087700  0.93030900  1
  O  O12  1  0.88030600  0.46762300  0.21347400  1
  O  O13  1  0.34012800  0.47093900  0.21511900  1
  O  O14  1  0.51326700  0.73700000  0.53135300  1
  O  O15  1  0.00921100  0.73931200  0.52517600  1
  O  O16  1  0.38171900  0.77834000  0.26095300  1
  O  O17  1  0.87949300  0.77048500  0.24718200  1
loop_
_geom_bond_atom_site_label_1
_geom_bond_atom_site_label_2
_geom_bond_distance
_geom_bond_site_symmetry_2
Li0 O14 2.003363 1_545
Li0 O1 2.004199 1_555
Li0 O0 2.011455 1_555
Li0 O2 2.022054 1_555
Li1 O1 2.003499 1_555
Li1 O0 2.014007 1_455
Li1 O3 2.036201 1_555
Li1 O15 2.038897 1_545
Li2 O6 1.950273 1_655
Li2 O7 1.976842 1_555
Li2 O8 2.005297 1_655
Li2 O12 2.019201 1_555
Li3 O6 1.947629 1_555
Li3 O7 1.978641 1_555
Li3 O13 2.001401 1_555
Li3 O9 2.008883 1_555
Li4 O11 1.945444 1_555
Li4 O10 1.947576 1_555
Li4 O17 1.960911 1_556
Li4 O5 2.100557 1_555
Mn0 O11 2.045116 1_555
Mn0 O8 2.181480 1_555
Mn0 O9 2.201502 1_555
Mn0 O14 2.206332 1_555
Mn0 O15 2.224007 1_555
Mn1 O10 2.026211 1_555
Mn1 O8 2.172770 1_655
Mn1 O14 2.185591 1_555
Mn1 O9 2.189289 1_555
Mn1 O15 2.190142 1_655
Mn2 O4 1.955830 1_554
Mn2 O5 2.019894 1_454
Mn2 O12 2.021979 1_455
Mn2 O13 2.038375 1_555
Mn2 O0 2.111491 1_454
Mn3 O1 2.071826 1_554
Mn3 O4 2.170493 1_554
Mn3 O5 2.218159 1_554
Mn3 O13 2.223901 1_555
Mn3 O12 2.270915 1_555
Mn4 O6 2.073948 1_565
Mn4 O16 2.135447 1_555
Mn4 O3 2.190508 1_565
Mn4 O17 2.199576 1_455
Mn4 O2 2.213679 1_565
Mn5 O7 2.105245 1_565
Mn5 O16 2.123925 1_555
Mn5 O3 2.194065 1_665
Mn5 O17 2.213476 1_555
Mn5 O2 2.251871 1_565
B0 O10 1.370299 1_544
B0 O6 1.398735 1_655
B0 O0 1.401590 1_554
B1 O11 1.370423 1_544
B1 O1 1.400016 1_554
B1 O7 1.403314 1_555
B2 O3 1.378013 1_555
B2 O8 1.381671 1_555
B2 O4 1.402820 1_555
B3 O2 1.369919 1_555
B3 O9 1.378501 1_555
B3 O5 1.416994 1_555
B4 O16 1.363361 1_555
B4 O14 1.381178 1_555
B4 O13 1.427730 1_555
B5 O17 1.377528 1_555
B5 O15 1.379012 1_655
B5 O12 1.423508 1_555
