# generated using pymatgen
data_Li5Fe6(BO3)6
_symmetry_space_group_name_H-M   'P 1'
_cell_length_a   8.76974472
_cell_length_b   8.76974472
_cell_length_c   8.24783452
_cell_angle_alpha   62.36434809
_cell_angle_beta   62.36434809
_cell_angle_gamma   41.65040199
_symmetry_Int_Tables_number   1
_chemical_formula_structural   Li5Fe6(BO3)6
_chemical_formula_sum   'Li5 Fe6 B6 O18'
_cell_volume   365.98878553
_cell_formula_units_Z   1
loop_
 _symmetry_equiv_pos_site_id
 _symmetry_equiv_pos_as_xyz
  1  'x, y, z'
loop_
 _atom_site_type_symbol
 _atom_site_label
 _atom_site_symmetry_multiplicity
 _atom_site_fract_x
 _atom_site_fract_y
 _atom_site_fract_z
 _atom_site_occupancy
  Li  Li0  1  0.24157600  0.24157600  0.30117700  1
  Li  Li1  1  0.40011900  0.40011900  0.71623800  1
  Li  Li2  1  0.90067700  0.90067700  0.71424200  1
  Li  Li3  1  0.60778200  0.60778200  0.98105100  1
  Li  Li4  1  0.10877000  0.10877000  0.98514400  1
  Fe  Fe0  1  0.68202500  0.16928900  0.01454400  1
  Fe  Fe1  1  0.16928900  0.68202500  0.01454400  1
  Fe  Fe2  1  0.51131700  0.99799400  0.62349500  1
  Fe  Fe3  1  0.99799400  0.51131700  0.62349500  1
  Fe  Fe4  1  0.32581800  0.81465600  0.36035800  1
  Fe  Fe5  1  0.81465600  0.32581800  0.36035800  1
  B  B0  1  0.08343100  0.08343100  0.66780100  1
  B  B1  1  0.58014900  0.58014900  0.67441100  1
  B  B2  1  0.41638300  0.41638300  0.33637900  1
  B  B3  1  0.92136800  0.92136700  0.33111600  1
  B  B4  1  0.49477800  0.00275300  0.99694300  1
  B  B5  1  0.00275300  0.49477800  0.99694300  1
  O  O0  1  0.97248400  0.43730500  0.18669300  1
  O  O1  1  0.43730500  0.97248400  0.18669300  1
  O  O2  1  0.04170700  0.04170700  0.55751600  1
  O  O3  1  0.54033300  0.54033300  0.55977100  1
  O  O4  1  0.09755900  0.59660800  0.88961600  1
  O  O5  1  0.59660800  0.09755900  0.88961600  1
  O  O6  1  0.67644600  0.67644600  0.59996200  1
  O  O7  1  0.18102100  0.18102100  0.58259700  1
  O  O8  1  0.52224900  0.52224900  0.86751500  1
  O  O9  1  0.02899100  0.02899100  0.86126500  1
  O  O10  1  0.88510300  0.88510300  0.21223900  1
  O  O11  1  0.37670300  0.37670300  0.22128900  1
  O  O12  1  0.94646300  0.44682000  0.90413300  1
  O  O13  1  0.44682000  0.94646300  0.90413300  1
  O  O14  1  0.51364000  0.51364000  0.26043500  1
  O  O15  1  0.01789100  0.01789100  0.26004600  1
  O  O16  1  0.35810600  0.35810600  0.53035200  1
  O  O17  1  0.86025400  0.86025400  0.52506200  1
loop_
_geom_bond_atom_site_label_1
_geom_bond_atom_site_label_2
_geom_bond_distance
_geom_bond_site_symmetry_2
Li0 O11 1.972976 1_555
Li0 O1 1.979149 1_545
Li0 O0 1.979149 1_455
Li0 O7 2.021389 1_555
Li1 O16 1.967998 1_555
Li1 O4 1.996930 1_555
Li1 O5 1.996930 1_555
Li1 O3 2.001200 1_555
Li2 O17 1.974852 1_555
Li2 O4 2.010528 1_655
Li2 O5 2.010528 1_565
Li2 O2 2.012451 1_665
Li3 O12 2.008476 1_555
Li3 O13 2.008476 1_555
Li3 O8 2.036247 1_555
Li3 O14 2.040085 1_556
Li4 O13 1.999973 1_545
Li4 O12 1.999973 1_455
Li4 O15 2.001925 1_556
Li4 O9 2.020093 1_555
Fe0 O5 2.009992 1_554
Fe0 O10 2.081515 1_545
Fe0 O8 2.151197 1_554
Fe0 O9 2.156448 1_654
Fe0 O11 2.179231 1_555
Fe1 O4 2.009992 1_554
Fe1 O10 2.081515 1_455
Fe1 O8 2.151197 1_554
Fe1 O9 2.156448 1_564
Fe1 O11 2.179231 1_555
Fe2 O13 2.019612 1_555
Fe2 O6 2.056925 1_555
Fe2 O7 2.129912 1_565
Fe2 O17 2.136212 1_555
Fe2 O16 2.175918 1_565
Fe3 O12 2.019612 1_555
Fe3 O6 2.056925 1_555
Fe3 O7 2.129912 1_655
Fe3 O17 2.136212 1_555
Fe3 O16 2.175918 1_655
Fe4 O1 1.951235 1_555
Fe4 O3 2.113776 1_555
Fe4 O14 2.149869 1_555
Fe4 O2 2.155933 1_565
Fe4 O15 2.159977 1_565
Fe5 O0 1.951235 1_555
Fe5 O3 2.113776 1_555
Fe5 O14 2.149869 1_555
Fe5 O2 2.155933 1_655
Fe5 O15 2.159977 1_655
B0 O2 1.383040 1_555
B0 O9 1.388949 1_555
B0 O7 1.391935 1_555
B1 O6 1.380969 1_555
B1 O3 1.390200 1_555
B1 O8 1.391811 1_555
B2 O11 1.391792 1_555
B2 O14 1.393988 1_555
B2 O16 1.398294 1_555
B3 O10 1.375982 1_555
B3 O15 1.388118 1_665
B3 O17 1.404246 1_555
B4 O1 1.362565 1_546
B4 O5 1.402075 1_555
B4 O13 1.402153 1_545
B5 O0 1.362565 1_456
B5 O4 1.402075 1_555
B5 O12 1.402153 1_455
