# generated using pymatgen
data_Li2VF4
_symmetry_space_group_name_H-M   'P 1'
_cell_length_a   5.93148613
_cell_length_b   5.93148613
_cell_length_c   8.36462280
_cell_angle_alpha   90.00000000
_cell_angle_beta   90.00000000
_cell_angle_gamma   90.00000000
_symmetry_Int_Tables_number   1
_chemical_formula_structural   Li2VF4
_chemical_formula_sum   'Li8 V4 F16'
_cell_volume   294.28857345
_cell_formula_units_Z   4
loop_
 _symmetry_equiv_pos_site_id
 _symmetry_equiv_pos_as_xyz
  1  'x, y, z'
loop_
 _atom_site_type_symbol
 _atom_site_label
 _atom_site_symmetry_multiplicity
 _atom_site_fract_x
 _atom_site_fract_y
 _atom_site_fract_z
 _atom_site_occupancy
  Li  Li0  1  0.25262945  0.25262945  0.37500000  1
  Li  Li1  1  0.25262945  0.74737055  0.12500000  1
  Li  Li2  1  0.28314272  0.50000000  0.75000000  1
  Li  Li3  1  0.50000000  0.28314272  -0.00000000  1
  Li  Li4  1  0.50000000  0.71685728  0.50000000  1
  Li  Li5  1  0.71685728  0.50000000  0.25000000  1
  Li  Li6  1  0.74737055  0.25262945  0.62500000  1
  Li  Li7  1  0.74737055  0.74737055  0.87500000  1
  V  V0  1  0.00000000  0.26815732  -0.00000000  1
  V  V1  1  0.00000000  0.73184268  0.50000000  1
  V  V2  1  0.26815732  0.00000000  0.75000000  1
  V  V3  1  0.73184268  0.00000000  0.25000000  1
  F  F0  1  0.02113766  0.25375189  0.75185260  1
  F  F1  1  0.02113766  0.74624811  0.74814740  1
  F  F2  1  0.25375189  0.02113766  0.99814740  1
  F  F3  1  0.25375189  0.97886234  0.50185260  1
  F  F4  1  0.25666473  0.49909188  0.98799319  1
  F  F5  1  0.25666473  0.50090812  0.51200681  1
  F  F6  1  0.49909188  0.25666473  0.76200681  1
  F  F7  1  0.49909188  0.74333527  0.73799319  1
  F  F8  1  0.50090812  0.25666473  0.23799319  1
  F  F9  1  0.50090812  0.74333527  0.26200681  1
  F  F10  1  0.74333527  0.50090812  0.48799319  1
  F  F11  1  0.74333527  0.49909188  0.01200681  1
  F  F12  1  0.74624811  0.97886234  0.49814740  1
  F  F13  1  0.74624811  0.02113766  0.00185260  1
  F  F14  1  0.97886234  0.25375189  0.24814740  1
  F  F15  1  0.97886234  0.74624811  0.25185260  1
loop_
_geom_bond_atom_site_label_1
_geom_bond_atom_site_label_2
_geom_bond_distance
_geom_bond_site_symmetry_2
F0 Li6 1.939793 1_455
F0 V0 2.081197 1_556
F0 V2 2.100580 1_555
F0 Li2 2.132793 1_555
F1 Li7 1.939793 1_455
F1 V1 2.081197 1_555
F1 V2 2.100580 1_565
F1 Li2 2.132793 1_555
F2 Li1 1.939793 1_546
F2 V2 2.081197 1_555
F2 V0 2.100580 1_556
F2 Li3 2.132793 1_556
F3 Li0 1.939793 1_565
F3 V2 2.081197 1_565
F3 V1 2.100580 1_555
F3 Li4 2.132793 1_555
F4 Li1 1.866184 1_556
F4 Li3 1.932361 1_556
F4 Li2 1.996916 1_555
F4 V0 2.050393 1_556
F5 Li0 1.866184 1_555
F5 Li4 1.932361 1_555
F5 Li2 1.996916 1_555
F5 V1 2.050393 1_555
F6 Li6 1.866184 1_555
F6 Li2 1.932361 1_555
F6 Li3 1.996916 1_556
F6 V2 2.050393 1_555
F7 Li7 1.866184 1_555
F7 Li2 1.932361 1_555
F7 Li4 1.996916 1_555
F7 V2 2.050393 1_565
F8 Li0 1.866184 1_555
F8 Li5 1.932361 1_555
F8 Li3 1.996916 1_555
F8 V3 2.050393 1_555
F9 Li1 1.866184 1_555
F9 Li5 1.932361 1_555
F9 Li4 1.996916 1_555
F9 V3 2.050393 1_565
F10 Li6 1.866184 1_555
F10 Li4 1.932361 1_555
F10 Li5 1.996916 1_555
F10 V1 2.050393 1_655
F11 Li7 1.866184 1_554
F11 Li3 1.932361 1_555
F11 Li5 1.996916 1_555
F11 V0 2.050393 1_655
F12 Li6 1.939793 1_565
F12 V3 2.081197 1_565
F12 V1 2.100580 1_655
F12 Li4 2.132793 1_555
F13 Li7 1.939793 1_544
F13 V3 2.081197 1_555
F13 V0 2.100580 1_655
F13 Li3 2.132793 1_555
F14 Li0 1.939793 1_655
F14 V0 2.081197 1_655
F14 V3 2.100580 1_555
F14 Li5 2.132793 1_555
F15 Li1 1.939793 1_655
F15 V1 2.081197 1_655
F15 V3 2.100580 1_565
F15 Li5 2.132793 1_555
