# generated using pymatgen
data_Li4V2Co3Cu3O16
_symmetry_space_group_name_H-M   'P 1'
_cell_length_a   5.79108210
_cell_length_b   5.79108210
_cell_length_c   9.30106179
_cell_angle_alpha   88.64906245
_cell_angle_beta   88.64906245
_cell_angle_gamma   59.64079833
_symmetry_Int_Tables_number   1
_chemical_formula_structural   Li4V2Co3Cu3O16
_chemical_formula_sum   'Li4 V2 Co3 Cu3 O16'
_cell_volume   269.05361758
_cell_formula_units_Z   1
loop_
 _symmetry_equiv_pos_site_id
 _symmetry_equiv_pos_as_xyz
  1  'x, y, z'
loop_
 _atom_site_type_symbol
 _atom_site_label
 _atom_site_symmetry_multiplicity
 _atom_site_fract_x
 _atom_site_fract_y
 _atom_site_fract_z
 _atom_site_occupancy
  Li  Li0  1  0.66703800  0.66703800  0.89652000  1
  Li  Li1  1  0.99650900  0.99650900  0.99425100  1
  Li  Li2  1  0.99690900  0.99690900  0.49559400  1
  Li  Li3  1  0.33713800  0.33713800  0.39960200  1
  V  V0  1  0.66749600  0.66749600  0.50258300  1
  V  V1  1  0.33406600  0.33406600  0.99751500  1
  Co  Co0  1  0.82708400  0.82708400  0.21629700  1
  Co  Co1  1  0.65651100  0.17015300  0.71524000  1
  Co  Co2  1  0.17015300  0.65651100  0.71524000  1
  Cu  Cu0  1  0.83043300  0.34159100  0.21620500  1
  Cu  Cu1  1  0.34159100  0.83043300  0.21620500  1
  Cu  Cu2  1  0.16997800  0.16997800  0.71716100  1
  O  O0  1  0.82011100  0.34397800  0.58947400  1
  O  O1  1  0.52579800  0.52579800  0.35253800  1
  O  O2  1  0.67176400  0.67176400  0.11088900  1
  O  O3  1  0.99329000  0.99329000  0.30342200  1
  O  O4  1  0.99394300  0.99394300  0.80315600  1
  O  O5  1  0.34397800  0.82011100  0.58947400  1
  O  O6  1  0.95930600  0.53469000  0.34369600  1
  O  O7  1  0.53469000  0.95930600  0.34369600  1
  O  O8  1  0.17166800  0.17166800  0.07841700  1
  O  O9  1  0.82689700  0.82689700  0.59970000  1
  O  O10  1  0.49202300  0.04403500  0.84187300  1
  O  O11  1  0.04403500  0.49202300  0.84187300  1
  O  O12  1  0.33747700  0.33747700  0.61143100  1
  O  O13  1  0.65087500  0.16415200  0.09138300  1
  O  O14  1  0.47851000  0.47851000  0.83405400  1
  O  O15  1  0.16415200  0.65087500  0.09138300  1
loop_
_geom_bond_atom_site_label_1
_geom_bond_atom_site_label_2
_geom_bond_distance
_geom_bond_site_symmetry_2
Li0 O10 1.946089 1_565
Li0 O11 1.946089 1_655
Li0 O2 1.995714 1_556
Li0 O14 1.996562 1_555
Li1 O4 1.778274 1_555
Li1 O13 1.938272 1_566
Li1 O15 1.938272 1_656
Li1 O8 1.945673 1_666
Li2 O3 1.788761 1_555
Li2 O9 1.940679 1_555
Li2 O0 1.952150 1_565
Li2 O5 1.952150 1_655
Li3 O1 1.934018 1_555
Li3 O6 1.965208 1_455
Li3 O7 1.965208 1_545
Li3 O12 1.970330 1_555
Co0 O2 1.865549 1_555
Co0 O6 1.869535 1_555
Co0 O7 1.869535 1_555
Co0 O3 1.876050 1_555
Co0 O15 2.033938 1_655
Co0 O13 2.033938 1_565
Co1 O10 1.854146 1_555
Co1 O12 1.874828 1_555
Co1 O4 1.883824 1_545
Co1 O14 1.910825 1_555
Co1 O0 2.033597 1_555
Co1 O9 2.036655 1_545
Co2 O11 1.854146 1_555
Co2 O12 1.874828 1_555
Co2 O4 1.883824 1_455
Co2 O14 1.910825 1_555
Co2 O5 2.033597 1_555
Co2 O9 2.036655 1_455
Cu0 O2 1.907344 1_555
Cu0 O3 1.911015 1_545
Cu0 O1 1.978421 1_555
Cu0 O6 2.039967 1_555
Cu0 O8 2.119011 1_655
Cu0 O13 2.162930 1_555
Cu1 O2 1.907344 1_555
Cu1 O3 1.911015 1_455
Cu1 O1 1.978421 1_555
Cu1 O7 2.039967 1_555
Cu1 O8 2.119011 1_565
Cu1 O15 2.162930 1_555
Cu2 O4 1.921420 1_445
Cu2 O12 1.926142 1_555
Cu2 O11 2.010664 1_555
Cu2 O10 2.010664 1_555
Cu2 O5 2.127022 1_545
Cu2 O0 2.127022 1_455
O0 V0 1.798013 1_555
O1 V0 2.020646 1_555
O5 V0 1.798013 1_555
O6 V0 2.062343 1_555
O7 V0 2.062343 1_555
O8 V1 1.778332 1_554
O9 V0 1.860153 1_555
O10 V1 2.062183 1_555
O11 V1 2.062183 1_555
O13 V1 1.818420 1_554
O14 V1 2.073229 1_555
O15 V1 1.818420 1_554
