# generated using pymatgen
data_MgTi14O25
_symmetry_space_group_name_H-M   'P 1'
_cell_length_a   10.73504583
_cell_length_b   10.73504583
_cell_length_c   12.62151998
_cell_angle_alpha   57.58180182
_cell_angle_beta   57.58180182
_cell_angle_gamma   54.85081920
_symmetry_Int_Tables_number   1
_chemical_formula_structural   MgTi14O25
_chemical_formula_sum   'Mg2 Ti28 O50'
_cell_volume   947.87295101
_cell_formula_units_Z   2
loop_
 _symmetry_equiv_pos_site_id
 _symmetry_equiv_pos_as_xyz
  1  'x, y, z'
loop_
 _atom_site_type_symbol
 _atom_site_label
 _atom_site_symmetry_multiplicity
 _atom_site_fract_x
 _atom_site_fract_y
 _atom_site_fract_z
 _atom_site_occupancy
  Mg  Mg0  1  0.69609500  0.30390500  0.75000000  1
  Mg  Mg1  1  0.30390500  0.69609500  0.25000000  1
  Ti  Ti0  1  0.90459900  0.29438200  0.25253400  1
  Ti  Ti1  1  0.09104500  0.35742000  0.94001000  1
  Ti  Ti2  1  0.51253000  0.23901300  0.06036800  1
  Ti  Ti3  1  0.31033900  0.03822200  0.06293100  1
  Ti  Ti4  1  0.35742000  0.09104500  0.44001000  1
  Ti  Ti5  1  0.15540000  0.88985500  0.44181000  1
  Ti  Ti6  1  0.55430400  0.29173700  0.44267800  1
  Ti  Ti7  1  0.49697300  0.10458900  0.75017400  1
  Ti  Ti8  1  0.70561800  0.09540100  0.24746600  1
  Ti  Ti9  1  0.50302700  0.89541100  0.24982600  1
  Ti  Ti10  1  0.03822200  0.31033900  0.56293100  1
  Ti  Ti11  1  0.84460000  0.11014500  0.55819000  1
  Ti  Ti12  1  0.88985500  0.15540000  0.94181000  1
  Ti  Ti13  1  0.68966100  0.96177800  0.93706900  1
  Ti  Ti14  1  0.11014500  0.84460000  0.05819000  1
  Ti  Ti15  1  0.90895500  0.64258000  0.05999000  1
  Ti  Ti16  1  0.96177800  0.68966100  0.43706900  1
  Ti  Ti17  1  0.76098700  0.48747000  0.43963200  1
  Ti  Ti18  1  0.29438200  0.90459900  0.75253400  1
  Ti  Ti19  1  0.09540100  0.70561800  0.74746600  1
  Ti  Ti20  1  0.10458900  0.49697300  0.25017400  1
  Ti  Ti21  1  0.23901300  0.51253000  0.56036800  1
  Ti  Ti22  1  0.44569600  0.70826300  0.55732200  1
  Ti  Ti23  1  0.64258000  0.90895500  0.55999000  1
  Ti  Ti24  1  0.29173700  0.55430400  0.94267800  1
  Ti  Ti25  1  0.48747000  0.76098700  0.93963200  1
  Ti  Ti26  1  0.70826300  0.44569600  0.05732200  1
  Ti  Ti27  1  0.89541100  0.50302700  0.74982600  1
  O  O0  1  0.71051800  0.34334900  0.43192200  1
  O  O1  1  0.10278100  0.20250500  0.11897400  1
  O  O2  1  0.20041000  0.29872700  0.37708200  1
  O  O3  1  0.00054600  0.09778800  0.37731800  1
  O  O4  1  0.39918900  0.30262300  0.62348200  1
  O  O5  1  0.49023100  0.39922200  0.88891700  1
  O  O6  1  0.29872700  0.20041000  0.87708200  1
  O  O7  1  0.51114400  0.14347700  0.43271200  1
  O  O8  1  0.31003800  0.94357200  0.43312100  1
  O  O9  1  0.65665100  0.28948200  0.06807800  1
  O  O10  1  0.45809500  0.08613600  0.07015400  1
  O  O11  1  0.53089200  0.06724500  0.25169500  1
  O  O12  1  0.73250400  0.26749600  0.25000000  1
  O  O13  1  0.33175000  0.87385000  0.25051500  1
  O  O14  1  0.87385000  0.33175000  0.75051500  1
  O  O15  1  0.66825000  0.12615000  0.74948500  1
  O  O16  1  0.73898300  0.11546800  0.93235400  1
  O  O17  1  0.54190500  0.91386400  0.92984600  1
  O  O18  1  0.94357200  0.31003800  0.93312100  1
  O  O19  1  0.88453200  0.26101700  0.56764600  1
  O  O20  1  0.68996200  0.05642800  0.56687900  1
  O  O21  1  0.90221200  0.99945400  0.12268200  1
  O  O22  1  0.70127300  0.79959000  0.12291800  1
  O  O23  1  0.79749500  0.89721900  0.38102600  1
  O  O24  1  0.60081100  0.69737700  0.37651800  1
  O  O25  1  0.20250500  0.10278100  0.61897400  1
  O  O26  1  0.99945400  0.90221200  0.62268200  1
  O  O27  1  0.09778800  0.00054600  0.87731800  1
  O  O28  1  0.89721900  0.79749500  0.88102600  1
  O  O29  1  0.11546800  0.73898300  0.43235400  1
  O  O30  1  0.91386400  0.54190500  0.42984600  1
  O  O31  1  0.85652300  0.48885600  0.06728800  1
  O  O32  1  0.05642800  0.68996200  0.06687900  1
  O  O33  1  0.26101700  0.88453200  0.06764600  1
  O  O34  1  0.12615000  0.66825000  0.24948500  1
  O  O35  1  0.93275500  0.46910800  0.24830500  1
  O  O36  1  0.06724500  0.53089200  0.75169500  1
  O  O37  1  0.46910800  0.93275500  0.74830500  1
  O  O38  1  0.26749600  0.73250400  0.75000000  1
  O  O39  1  0.34334900  0.71051800  0.93192200  1
  O  O40  1  0.14347700  0.51114400  0.93271200  1
  O  O41  1  0.48885600  0.85652300  0.56728800  1
  O  O42  1  0.28948200  0.65665100  0.56807800  1
  O  O43  1  0.50976900  0.60077800  0.11108300  1
  O  O44  1  0.30262300  0.39918900  0.12348200  1
  O  O45  1  0.39922200  0.49023100  0.38891700  1
  O  O46  1  0.79959000  0.70127300  0.62291800  1
  O  O47  1  0.60077800  0.50976900  0.61108300  1
  O  O48  1  0.69737700  0.60081100  0.87651800  1
  O  O49  1  0.08613600  0.45809500  0.57015400  1
loop_
_geom_bond_atom_site_label_1
_geom_bond_atom_site_label_2
_geom_bond_distance
_geom_bond_site_symmetry_2
Mg0 O5 2.042179 1_555
Mg0 O47 2.042179 1_555
Mg0 O14 2.098284 1_555
Mg0 O15 2.098284 1_555
Mg0 O16 2.161751 1_555
Mg0 O19 2.161751 1_555
Mg1 O45 2.042179 1_555
Mg1 O43 2.042179 1_555
Mg1 O13 2.098284 1_555
Mg1 O34 2.098284 1_555
Mg1 O29 2.161751 1_555
Mg1 O33 2.161751 1_555
O0 Ti17 1.969710 1_555
O0 Ti6 1.970456 1_555
O0 Ti0 2.168128 1_555
O0 Ti11 2.216234 1_555
O1 Ti3 1.923114 1_555
O1 Ti0 1.965202 1_455
O1 Ti1 1.979887 1_554
O2 Ti4 1.911102 1_555
O2 Ti20 1.934936 1_555
O2 Ti10 2.057656 1_555
O3 Ti5 1.907560 1_545
O3 Ti0 1.915198 1_455
O3 Ti11 2.000767 1_455
O4 Ti21 1.936897 1_555
O4 Ti7 1.940032 1_555
O4 Ti6 1.995412 1_555
O5 Ti24 1.829993 1_555
O5 Ti2 1.946525 1_556
O6 Ti1 1.911102 1_555
O6 Ti7 1.934936 1_555
O6 Ti3 2.057656 1_556
O7 Ti6 1.972263 1_555
O7 Ti4 1.974713 1_555
O7 Ti8 2.216095 1_555
O7 Ti23 2.216668 1_545
O8 Ti4 1.973518 1_565
O8 Ti5 1.984824 1_555
O8 Ti9 2.195851 1_555
O8 Ti22 2.219329 1_555
O9 Ti2 1.969710 1_555
O9 Ti26 1.970456 1_555
O9 Ti8 2.168128 1_555
O9 Ti12 2.216234 1_554
O10 Ti2 1.964583 1_555
O10 Ti3 1.983309 1_555
O10 Ti9 2.150522 1_545
O10 Ti13 2.211206 1_544
O11 Ti8 2.034838 1_555
O11 Ti9 2.045072 1_545
O11 Ti4 2.130731 1_555
O11 Ti2 2.141963 1_555
O12 Ti8 2.045627 1_555
O12 Ti0 2.045627 1_555
O12 Ti6 2.181433 1_555
O12 Ti26 2.181433 1_555
O13 Ti9 1.976121 1_555
O13 Ti3 2.099790 1_565
O13 Ti5 2.147651 1_555
O14 Ti27 1.976121 1_555
O14 Ti10 2.099790 1_655
O14 Ti12 2.147651 1_555
O15 Ti7 1.976121 1_555
O15 Ti13 2.099790 1_545
O15 Ti11 2.147651 1_555
O16 Ti13 1.967925 1_545
O16 Ti12 1.970453 1_555
O16 Ti2 2.157116 1_556
O17 Ti25 1.964583 1_555
O17 Ti13 1.983309 1_555
O17 Ti7 2.150522 1_565
O17 Ti3 2.211206 1_566
O18 Ti1 1.973518 1_655
O18 Ti12 1.984824 1_555
O18 Ti27 2.195851 1_555
O18 Ti26 2.219329 1_556
O19 Ti10 1.967925 1_655
O19 Ti11 1.970453 1_555
O19 Ti17 2.157116 1_555
O20 Ti23 1.973518 1_545
O20 Ti11 1.984824 1_555
O20 Ti7 2.195851 1_555
O20 Ti6 2.219329 1_555
O21 Ti14 1.907560 1_655
O21 Ti8 1.915198 1_565
O21 Ti12 2.000767 1_564
O22 Ti15 1.911102 1_555
O22 Ti9 1.934936 1_555
O22 Ti13 2.057656 1_554
O23 Ti16 1.923114 1_555
O23 Ti8 1.965202 1_565
O23 Ti23 1.979887 1_555
O24 Ti17 1.936897 1_555
O24 Ti9 1.940032 1_555
O24 Ti22 1.995412 1_555
O25 Ti10 1.923114 1_555
O25 Ti18 1.965202 1_545
O25 Ti4 1.979887 1_555
O26 Ti11 1.907560 1_565
O26 Ti19 1.915198 1_655
O26 Ti5 2.000767 1_655
O27 Ti12 1.907560 1_455
O27 Ti18 1.915198 1_545
O27 Ti14 2.000767 1_546
O28 Ti13 1.923114 1_555
O28 Ti19 1.965202 1_655
O28 Ti15 1.979887 1_556
O29 Ti16 1.967925 1_455
O29 Ti5 1.970453 1_555
O29 Ti21 2.157116 1_555
O30 Ti17 1.964583 1_555
O30 Ti16 1.983309 1_555
O30 Ti20 2.150522 1_655
O30 Ti10 2.211206 1_655
O31 Ti26 1.972263 1_555
O31 Ti15 1.974713 1_555
O31 Ti0 2.216095 1_555
O31 Ti1 2.216668 1_654
O32 Ti15 1.973518 1_455
O32 Ti14 1.984824 1_555
O32 Ti20 2.195851 1_555
O32 Ti24 2.219329 1_554
O33 Ti3 1.967925 1_565
O33 Ti14 1.970453 1_555
O33 Ti25 2.157116 1_554
O34 Ti20 1.976121 1_555
O34 Ti16 2.099790 1_455
O34 Ti14 2.147651 1_555
O35 Ti0 2.034838 1_555
O35 Ti20 2.045072 1_655
O35 Ti15 2.130731 1_555
O35 Ti17 2.141963 1_555
O36 Ti19 2.034838 1_555
O36 Ti27 2.045072 1_455
O36 Ti1 2.130731 1_555
O36 Ti21 2.141963 1_555
O37 Ti18 2.034838 1_555
O37 Ti7 2.045072 1_565
O37 Ti23 2.130731 1_555
O37 Ti25 2.141963 1_555
O38 Ti18 2.045627 1_555
O38 Ti19 2.045627 1_555
O38 Ti24 2.181433 1_555
O38 Ti22 2.181433 1_555
O39 Ti25 1.969710 1_555
O39 Ti24 1.970456 1_555
O39 Ti18 2.168128 1_555
O39 Ti14 2.216234 1_556
O40 Ti24 1.972263 1_555
O40 Ti1 1.974713 1_555
O40 Ti19 2.216095 1_555
O40 Ti15 2.216668 1_456
O41 Ti22 1.972263 1_555
O41 Ti23 1.974713 1_555
O41 Ti18 2.216095 1_555
O41 Ti4 2.216668 1_565
O42 Ti21 1.969710 1_555
O42 Ti22 1.970456 1_555
O42 Ti19 2.168128 1_555
O42 Ti5 2.216234 1_555
O43 Ti26 1.829993 1_555
O43 Ti25 1.946525 1_554
O44 Ti2 1.936897 1_555
O44 Ti20 1.940032 1_555
O44 Ti24 1.995412 1_554
O45 Ti6 1.829993 1_555
O45 Ti21 1.946525 1_555
O46 Ti23 1.911102 1_555
O46 Ti27 1.934936 1_555
O46 Ti16 2.057656 1_555
O47 Ti22 1.829993 1_555
O47 Ti17 1.946525 1_555
O48 Ti25 1.936897 1_555
O48 Ti27 1.940032 1_555
O48 Ti26 1.995412 1_556
O49 Ti21 1.964583 1_555
O49 Ti10 1.983309 1_555
O49 Ti27 2.150522 1_455
O49 Ti16 2.211206 1_455
