# generated using pymatgen
data_Li2(NiO2)3
_symmetry_space_group_name_H-M   'P 1'
_cell_length_a   4.89197861
_cell_length_b   4.89197861
_cell_length_c   10.20103152
_cell_angle_alpha   76.17603666
_cell_angle_beta   76.17603666
_cell_angle_gamma   61.45168476
_symmetry_Int_Tables_number   1
_chemical_formula_structural   Li2(NiO2)3
_chemical_formula_sum   'Li4 Ni6 O12'
_cell_volume   205.99280257
_cell_formula_units_Z   2
loop_
 _symmetry_equiv_pos_site_id
 _symmetry_equiv_pos_as_xyz
  1  'x, y, z'
loop_
 _atom_site_type_symbol
 _atom_site_label
 _atom_site_symmetry_multiplicity
 _atom_site_fract_x
 _atom_site_fract_y
 _atom_site_fract_z
 _atom_site_occupancy
  Li  Li0  1  0.59094800  0.41425500  0.24302300  1
  Li  Li1  1  0.75650500  0.91548200  0.74336700  1
  Li  Li2  1  0.41425500  0.59094800  0.74302300  1
  Li  Li3  1  0.91548200  0.75650500  0.24336700  1
  Ni  Ni0  1  0.49692200  0.33299000  0.50291000  1
  Ni  Ni1  1  0.66698300  0.83073300  0.00192400  1
  Ni  Ni2  1  0.16855700  0.00308100  0.49301200  1
  Ni  Ni3  1  0.33299000  0.49692200  0.00291000  1
  Ni  Ni4  1  0.83073300  0.66698300  0.50192400  1
  Ni  Ni5  1  0.00308100  0.16855700  0.99301200  1
  O  O0  1  0.01816100  0.86280000  0.89266900  1
  O  O1  1  0.48419100  0.93930900  0.60606200  1
  O  O2  1  0.19944400  0.37658000  0.40008900  1
  O  O3  1  0.31189600  0.77585600  0.10453300  1
  O  O4  1  0.11545100  0.66132400  0.60155100  1
  O  O5  1  0.37658000  0.19944400  0.90008900  1
  O  O6  1  0.93930900  0.48419100  0.10606200  1
  O  O7  1  0.77585600  0.31189600  0.60453300  1
  O  O8  1  0.56455100  0.68938300  0.39273400  1
  O  O9  1  0.66132400  0.11545100  0.10155100  1
  O  O10  1  0.68938300  0.56455100  0.89273400  1
  O  O11  1  0.86280000  0.01816100  0.39266900  1
loop_
_geom_bond_atom_site_label_1
_geom_bond_atom_site_label_2
_geom_bond_distance
_geom_bond_site_symmetry_2
Li0 O6 2.040661 1_555
Li0 O3 2.099484 1_555
Li0 O9 2.151185 1_555
Li0 O8 2.209627 1_555
Li0 O11 2.224224 1_555
Li0 O2 2.235856 1_555
Li1 O4 2.069054 1_655
Li1 O1 2.101258 1_555
Li1 O10 2.103891 1_555
Li1 O0 2.110271 1_655
Li1 O7 2.138768 1_565
Li1 O5 2.261326 1_565
Li2 O1 2.040661 1_555
Li2 O7 2.099484 1_555
Li2 O4 2.151185 1_555
Li2 O10 2.209627 1_555
Li2 O0 2.224224 1_555
Li2 O5 2.235856 1_555
Li3 O9 2.069054 1_565
Li3 O6 2.101258 1_555
Li3 O8 2.103891 1_555
Li3 O11 2.110271 1_565
Li3 O3 2.138768 1_655
Li3 O2 2.261326 1_655
Ni0 O7 1.854067 1_555
Ni0 O2 1.894553 1_555
Ni0 O8 1.962020 1_555
Ni0 O1 1.983690 1_545
Ni0 O11 2.017748 1_555
Ni0 O4 2.021136 1_555
Ni1 O6 1.853189 1_555
Ni1 O10 1.856527 1_554
Ni1 O0 1.864716 1_654
Ni1 O9 1.897306 1_565
Ni1 O3 1.904644 1_555
Ni1 O5 1.926511 1_564
Ni2 O4 1.865911 1_545
Ni2 O2 1.904625 1_555
Ni2 O11 1.969924 1_455
Ni2 O1 2.007492 1_545
Ni2 O8 2.028770 1_545
Ni2 O7 2.066398 1_455
Ni3 O3 1.854067 1_555
Ni3 O5 1.894553 1_554
Ni3 O10 1.962020 1_554
Ni3 O6 1.983690 1_455
Ni3 O0 2.017748 1_554
Ni3 O9 2.021136 1_555
Ni4 O1 1.853189 1_555
Ni4 O8 1.856527 1_555
Ni4 O11 1.864716 1_565
Ni4 O4 1.897306 1_655
Ni4 O7 1.904644 1_555
Ni4 O2 1.926511 1_655
Ni5 O9 1.865911 1_456
Ni5 O5 1.904625 1_555
Ni5 O0 1.969924 1_545
Ni5 O6 2.007492 1_456
Ni5 O10 2.028770 1_455
Ni5 O3 2.066398 1_546
