# generated using pymatgen
data_Li2Mn3F8
_symmetry_space_group_name_H-M   'P 1'
_cell_length_a   9.55270000
_cell_length_b   6.86431400
_cell_length_c   11.38853265
_cell_angle_alpha   88.07296757
_cell_angle_beta   90.00000000
_cell_angle_gamma   90.00000000
_symmetry_Int_Tables_number   1
_chemical_formula_structural   Li2Mn3F8
_chemical_formula_sum   'Li8 Mn12 F32'
_cell_volume   746.35487227
_cell_formula_units_Z   4
loop_
 _symmetry_equiv_pos_site_id
 _symmetry_equiv_pos_as_xyz
  1  'x, y, z'
loop_
 _atom_site_type_symbol
 _atom_site_label
 _atom_site_symmetry_multiplicity
 _atom_site_fract_x
 _atom_site_fract_y
 _atom_site_fract_z
 _atom_site_occupancy
  Li  Li0  1  0.05527900  0.90142600  0.85694200  1
  Li  Li1  1  0.44472100  0.90142600  0.35694200  1
  Li  Li2  1  0.60672800  0.58848800  0.85976200  1
  Li  Li3  1  0.89327200  0.58848800  0.35976200  1
  Li  Li4  1  0.10672800  0.41151200  0.64023800  1
  Li  Li5  1  0.39327200  0.41151200  0.14023800  1
  Li  Li6  1  0.55527900  0.09857400  0.64305800  1
  Li  Li7  1  0.94472100  0.09857400  0.14305800  1
  Mn  Mn0  1  0.19664200  0.90740300  0.56635000  1
  Mn  Mn1  1  0.30335800  0.90740300  0.06635000  1
  Mn  Mn2  1  0.84370300  0.76039800  0.64375600  1
  Mn  Mn3  1  0.65629700  0.76039800  0.14375600  1
  Mn  Mn4  1  0.45402600  0.61026400  0.62346000  1
  Mn  Mn5  1  0.04597400  0.61026400  0.12346000  1
  Mn  Mn6  1  0.95402600  0.38973600  0.87654000  1
  Mn  Mn7  1  0.54597400  0.38973600  0.37654000  1
  Mn  Mn8  1  0.34370300  0.23960200  0.85624400  1
  Mn  Mn9  1  0.15629700  0.23960200  0.35624400  1
  Mn  Mn10  1  0.69664200  0.09259700  0.93365000  1
  Mn  Mn11  1  0.80335800  0.09259700  0.43365000  1
  F  F0  1  0.24743700  0.96091400  0.89098600  1
  F  F1  1  0.25256300  0.96091400  0.39098600  1
  F  F2  1  0.40244800  0.91887200  0.62556500  1
  F  F3  1  0.09755200  0.91887200  0.12556500  1
  F  F4  1  0.03954900  0.87223100  0.69090600  1
  F  F5  1  0.46045100  0.87223100  0.19090600  1
  F  F6  1  0.61629900  0.79909200  0.96336400  1
  F  F7  1  0.88370100  0.79909200  0.46336400  1
  F  F8  1  0.99189700  0.67213200  0.93880800  1
  F  F9  1  0.65050700  0.67615400  0.70413900  1
  F  F10  1  0.50810300  0.67213200  0.43880800  1
  F  F11  1  0.84949300  0.67615400  0.20413900  1
  F  F12  1  0.23312200  0.60437700  0.58260900  1
  F  F13  1  0.26687800  0.60437700  0.08260900  1
  F  F14  1  0.42542900  0.51103300  0.80653300  1
  F  F15  1  0.07457100  0.51103300  0.30653300  1
  F  F16  1  0.92542900  0.48896700  0.69346700  1
  F  F17  1  0.57457100  0.48896700  0.19346700  1
  F  F18  1  0.73312200  0.39562300  0.91739100  1
  F  F19  1  0.76687800  0.39562300  0.41739100  1
  F  F20  1  0.15050700  0.32384600  0.79586100  1
  F  F21  1  0.49189700  0.32786800  0.56119200  1
  F  F22  1  0.34949300  0.32384600  0.29586100  1
  F  F23  1  0.00810300  0.32786800  0.06119200  1
  F  F24  1  0.11629900  0.20090800  0.53663600  1
  F  F25  1  0.38370100  0.20090800  0.03663600  1
  F  F26  1  0.53954900  0.12776900  0.80909400  1
  F  F27  1  0.96045100  0.12776900  0.30909400  1
  F  F28  1  0.90244800  0.08112800  0.87443500  1
  F  F29  1  0.59755200  0.08112800  0.37443500  1
  F  F30  1  0.74743700  0.03908600  0.60901400  1
  F  F31  1  0.75256300  0.03908600  0.10901400  1
loop_
_geom_bond_atom_site_label_1
_geom_bond_atom_site_label_2
_geom_bond_distance
_geom_bond_site_symmetry_2
F0 Li0 1.922821 1_555
F0 Mn1 2.087945 1_556
F0 Mn8 2.147297 1_565
F1 Li1 1.922821 1_555
F1 Mn0 2.087945 1_555
F1 Mn9 2.147297 1_565
F2 Li6 1.925945 1_565
F2 Mn0 2.080796 1_555
F2 Mn4 2.175844 1_555
F3 Li7 1.925945 1_465
F3 Mn1 2.080796 1_555
F3 Mn5 2.175844 1_555
F4 Li0 1.914093 1_555
F4 Mn0 2.073503 1_555
F4 Mn2 2.098920 1_455
F5 Li1 1.914093 1_555
F5 Mn1 2.073503 1_555
F5 Mn3 2.098920 1_555
F6 Li2 1.898707 1_555
F6 Mn3 2.097713 1_556
F6 Mn10 2.171812 1_565
F7 Li3 1.898707 1_555
F7 Mn2 2.097713 1_555
F7 Mn11 2.171812 1_565
F8 Li0 1.901172 1_655
F8 Mn6 2.117502 1_555
F8 Mn5 2.193035 1_656
F9 Li2 1.899053 1_555
F9 Mn2 2.046115 1_555
F9 Mn4 2.144663 1_555
F10 Li1 1.901172 1_555
F10 Mn7 2.117502 1_555
F10 Mn4 2.193035 1_555
F11 Li3 1.899053 1_555
F11 Mn3 2.046115 1_555
F11 Mn5 2.144663 1_655
F12 Li4 1.892830 1_555
F12 Mn0 2.111042 1_555
F12 Mn4 2.161575 1_555
F13 Li5 1.892830 1_555
F13 Mn1 2.111042 1_555
F13 Mn5 2.161575 1_555
F14 Li2 1.916062 1_555
F14 Mn8 2.080994 1_555
F14 Mn4 2.188614 1_555
F15 Li3 1.916062 1_455
F15 Mn9 2.080994 1_555
F15 Mn5 2.188614 1_555
F16 Li4 1.916062 1_655
F16 Mn2 2.080994 1_555
F16 Mn6 2.188614 1_555
F17 Li5 1.916062 1_555
F17 Mn3 2.080994 1_555
F17 Mn7 2.188614 1_555
F18 Li2 1.892830 1_555
F18 Mn10 2.111042 1_555
F18 Mn6 2.161575 1_555
F19 Li3 1.892830 1_555
F19 Mn11 2.111042 1_555
F19 Mn7 2.161575 1_555
F20 Li4 1.899053 1_555
F20 Mn8 2.046115 1_555
F20 Mn6 2.144663 1_455
F21 Li6 1.901172 1_555
F21 Mn4 2.117502 1_555
F21 Mn7 2.193035 1_555
F22 Li5 1.899053 1_555
F22 Mn9 2.046115 1_555
F22 Mn7 2.144663 1_555
F23 Li7 1.901172 1_455
F23 Mn5 2.117502 1_555
F23 Mn6 2.193035 1_454
F24 Li4 1.898707 1_555
F24 Mn9 2.097713 1_555
F24 Mn0 2.171812 1_545
F25 Li5 1.898707 1_555
F25 Mn8 2.097713 1_554
F25 Mn1 2.171812 1_545
F26 Li6 1.914093 1_555
F26 Mn10 2.073503 1_555
F26 Mn8 2.098920 1_555
F27 Li7 1.914093 1_555
F27 Mn11 2.073503 1_555
F27 Mn9 2.098920 1_655
F28 Li0 1.925945 1_645
F28 Mn10 2.080796 1_555
F28 Mn6 2.175844 1_555
F29 Li1 1.925945 1_545
F29 Mn11 2.080796 1_555
F29 Mn7 2.175844 1_555
F30 Li6 1.922821 1_555
F30 Mn11 2.087945 1_555
F30 Mn2 2.147297 1_545
F31 Li7 1.922821 1_555
F31 Mn10 2.087945 1_554
F31 Mn3 2.147297 1_545
