# generated using pymatgen
data_Cr2(PS4)3
_symmetry_space_group_name_H-M   'P 1'
_cell_length_a   11.62519300
_cell_length_b   9.82345800
_cell_length_c   19.26276614
_cell_angle_alpha   64.48268962
_cell_angle_beta   90.00000000
_cell_angle_gamma   90.00000000
_symmetry_Int_Tables_number   1
_chemical_formula_structural   Cr2(PS4)3
_chemical_formula_sum   'Cr8 P12 S48'
_cell_volume   1985.22098125
_cell_formula_units_Z   4
loop_
 _symmetry_equiv_pos_site_id
 _symmetry_equiv_pos_as_xyz
  1  'x, y, z'
loop_
 _atom_site_type_symbol
 _atom_site_label
 _atom_site_symmetry_multiplicity
 _atom_site_fract_x
 _atom_site_fract_y
 _atom_site_fract_z
 _atom_site_occupancy
  Cr  Cr0  1  0.77785600  0.79101400  0.10111400  1
  Cr  Cr1  1  0.26826300  0.21831600  0.21045100  1
  Cr  Cr2  1  0.76826300  0.78168400  0.28954900  1
  Cr  Cr3  1  0.27785600  0.20898600  0.39888600  1
  Cr  Cr4  1  0.72214400  0.79101400  0.60111400  1
  Cr  Cr5  1  0.23173700  0.21831600  0.71045100  1
  Cr  Cr6  1  0.73173700  0.78168400  0.78954900  1
  Cr  Cr7  1  0.22214400  0.20898600  0.89888600  1
  P  P0  1  0.23781600  0.22146400  0.05339800  1
  P  P1  1  0.69099200  0.06397500  0.13588400  1
  P  P2  1  0.86410200  0.51956900  0.25257900  1
  P  P3  1  0.36410200  0.48043100  0.24742100  1
  P  P4  1  0.19099200  0.93602500  0.36411600  1
  P  P5  1  0.73781600  0.77853600  0.44660200  1
  P  P6  1  0.26218400  0.22146400  0.55339800  1
  P  P7  1  0.80900800  0.06397500  0.63588400  1
  P  P8  1  0.63589800  0.51956900  0.75257900  1
  P  P9  1  0.13589800  0.48043100  0.74742100  1
  P  P10  1  0.30900800  0.93602500  0.86411600  1
  P  P11  1  0.76218400  0.77853600  0.94660200  1
  S  S0  1  0.67100000  0.66158700  0.04644000  1
  S  S1  1  0.12643800  0.09944400  0.01957700  1
  S  S2  1  0.62279500  0.95610800  0.07308600  1
  S  S3  1  0.15557400  0.34906900  0.09894900  1
  S  S4  1  0.68629500  0.28143100  0.08968400  1
  S  S5  1  0.94121400  0.64019800  0.14583000  1
  S  S6  1  0.35048700  0.09855300  0.14034100  1
  S  S7  1  0.43007400  0.37215100  0.18403400  1
  S  S8  1  0.85155500  0.94911900  0.16303800  1
  S  S9  1  0.37026900  0.69803300  0.20224400  1
  S  S10  1  0.69986700  0.62572400  0.22717900  1
  S  S11  1  0.61042000  0.94348300  0.24119000  1
  S  S12  1  0.11042000  0.05651700  0.25881000  1
  S  S13  1  0.19986700  0.37427600  0.27282100  1
  S  S14  1  0.87026900  0.30196700  0.29775600  1
  S  S15  1  0.93007400  0.62784900  0.31596600  1
  S  S16  1  0.35155500  0.05088100  0.33696200  1
  S  S17  1  0.44121400  0.35980200  0.35417000  1
  S  S18  1  0.85048700  0.90144700  0.35965900  1
  S  S19  1  0.18629500  0.71856900  0.41031600  1
  S  S20  1  0.65557400  0.65093100  0.40105100  1
  S  S21  1  0.12279500  0.04389200  0.42691400  1
  S  S22  1  0.17100000  0.33841300  0.45356000  1
  S  S23  1  0.62643800  0.90055600  0.48042300  1
  S  S24  1  0.37356200  0.09944400  0.51957700  1
  S  S25  1  0.82900000  0.66158700  0.54644000  1
  S  S26  1  0.87720500  0.95610800  0.57308600  1
  S  S27  1  0.34442600  0.34906900  0.59894900  1
  S  S28  1  0.81370500  0.28143100  0.58968400  1
  S  S29  1  0.14951300  0.09855300  0.64034100  1
  S  S30  1  0.55878600  0.64019800  0.64583000  1
  S  S31  1  0.64844500  0.94911900  0.66303800  1
  S  S32  1  0.06992600  0.37215100  0.68403400  1
  S  S33  1  0.12973100  0.69803300  0.70224400  1
  S  S34  1  0.80013300  0.62572400  0.72717900  1
  S  S35  1  0.88958000  0.94348300  0.74119000  1
  S  S36  1  0.38958000  0.05651700  0.75881000  1
  S  S37  1  0.30013300  0.37427600  0.77282100  1
  S  S38  1  0.62973100  0.30196700  0.79775600  1
  S  S39  1  0.14844500  0.05088100  0.83696200  1
  S  S40  1  0.56992600  0.62784900  0.81596600  1
  S  S41  1  0.64951300  0.90144700  0.85965900  1
  S  S42  1  0.05878600  0.35980200  0.85417000  1
  S  S43  1  0.31370500  0.71856900  0.91031600  1
  S  S44  1  0.84442600  0.65093100  0.90105100  1
  S  S45  1  0.37720500  0.04389200  0.92691400  1
  S  S46  1  0.87356200  0.90055600  0.98042300  1
  S  S47  1  0.32900000  0.33841300  0.95356000  1
loop_
_geom_bond_atom_site_label_1
_geom_bond_atom_site_label_2
_geom_bond_distance
_geom_bond_site_symmetry_2
Cr0 S2 2.327387 1_555
Cr0 S0 2.328617 1_555
Cr0 S5 2.333210 1_555
Cr0 S46 2.375989 1_554
Cr0 S10 2.440953 1_555
Cr0 S8 2.482999 1_555
Cr1 S7 2.327785 1_555
Cr1 S12 2.342103 1_555
Cr1 S6 2.343204 1_555
Cr1 S3 2.366920 1_555
Cr1 S13 2.451263 1_555
Cr1 S16 2.475530 1_555
Cr2 S15 2.327785 1_555
Cr2 S11 2.342103 1_555
Cr2 S18 2.343204 1_555
Cr2 S20 2.366920 1_555
Cr2 S10 2.451263 1_555
Cr2 S8 2.475530 1_555
Cr3 S21 2.327387 1_555
Cr3 S22 2.328617 1_555
Cr3 S17 2.333210 1_555
Cr3 S24 2.375989 1_555
Cr3 S13 2.440953 1_555
Cr3 S16 2.482999 1_555
Cr4 S26 2.327387 1_555
Cr4 S25 2.328617 1_555
Cr4 S30 2.333210 1_555
Cr4 S23 2.375989 1_555
Cr4 S34 2.440953 1_555
Cr4 S31 2.482999 1_555
Cr5 S32 2.327785 1_555
Cr5 S36 2.342103 1_555
Cr5 S29 2.343204 1_555
Cr5 S27 2.366920 1_555
Cr5 S37 2.451263 1_555
Cr5 S39 2.475530 1_555
Cr6 S40 2.327785 1_555
Cr6 S35 2.342103 1_555
Cr6 S41 2.343204 1_555
Cr6 S44 2.366920 1_555
Cr6 S34 2.451263 1_555
Cr6 S31 2.475530 1_555
Cr7 S45 2.327387 1_555
Cr7 S47 2.328617 1_555
Cr7 S42 2.333210 1_555
Cr7 S1 2.375989 1_556
Cr7 S37 2.440953 1_555
Cr7 S39 2.482999 1_555
P0 S3 2.050105 1_555
P0 S1 2.051951 1_555
P0 S6 2.058180 1_555
P0 S47 2.058758 1_554
P1 S4 1.928809 1_555
P1 S2 2.078216 1_545
P1 S11 2.079539 1_545
P1 S8 2.126560 1_545
P2 S14 1.931087 1_555
P2 S15 2.080734 1_555
P2 S5 2.082485 1_555
P2 S10 2.128976 1_555
P3 S9 1.931087 1_555
P3 S7 2.080734 1_555
P3 S17 2.082485 1_555
P3 S13 2.128976 1_555
P4 S19 1.928809 1_555
P4 S21 2.078216 1_565
P4 S12 2.079539 1_565
P4 S16 2.126560 1_565
P5 S20 2.050105 1_555
P5 S23 2.051951 1_555
P5 S18 2.058180 1_555
P5 S25 2.058758 1_555
P6 S27 2.050105 1_555
P6 S24 2.051951 1_555
P6 S29 2.058180 1_555
P6 S22 2.058758 1_555
P7 S28 1.928809 1_555
P7 S26 2.078216 1_545
P7 S35 2.079539 1_545
P7 S31 2.126560 1_545
P8 S38 1.931087 1_555
P8 S40 2.080734 1_555
P8 S30 2.082485 1_555
P8 S34 2.128976 1_555
P9 S33 1.931087 1_555
P9 S32 2.080734 1_555
P9 S42 2.082485 1_555
P9 S37 2.128976 1_555
P10 S43 1.928809 1_555
P10 S45 2.078216 1_565
P10 S36 2.079539 1_565
P10 S39 2.126560 1_565
P11 S44 2.050105 1_555
P11 S46 2.051951 1_555
P11 S41 2.058180 1_555
P11 S0 2.058758 1_556
