# generated using pymatgen
data_Li4Mn3Cr3(NiO8)2
_symmetry_space_group_name_H-M   'P 1'
_cell_length_a   5.81344678
_cell_length_b   5.81344678
_cell_length_c   9.61678665
_cell_angle_alpha   89.74629978
_cell_angle_beta   89.74629978
_cell_angle_gamma   59.95743294
_symmetry_Int_Tables_number   1
_chemical_formula_structural   Li4Mn3Cr3(NiO8)2
_chemical_formula_sum   'Li4 Mn3 Cr3 Ni2 O16'
_cell_volume   281.34285924
_cell_formula_units_Z   1
loop_
 _symmetry_equiv_pos_site_id
 _symmetry_equiv_pos_as_xyz
  1  'x, y, z'
loop_
 _atom_site_type_symbol
 _atom_site_label
 _atom_site_symmetry_multiplicity
 _atom_site_fract_x
 _atom_site_fract_y
 _atom_site_fract_z
 _atom_site_occupancy
  Li  Li0  1  0.66839200  0.66839200  0.10893400  1
  Li  Li1  1  0.99894100  0.99894100  0.00144000  1
  Li  Li2  1  0.99921100  0.99921100  0.50234900  1
  Li  Li3  1  0.33524300  0.33524300  0.60828800  1
  Mn  Mn0  1  0.82875000  0.82875000  0.78310800  1
  Mn  Mn1  1  0.16778600  0.66053400  0.28465600  1
  Mn  Mn2  1  0.66053400  0.16778600  0.28465600  1
  Cr  Cr0  1  0.33492400  0.83009300  0.78657500  1
  Cr  Cr1  1  0.83009300  0.33492400  0.78657500  1
  Cr  Cr2  1  0.16656800  0.16656800  0.28880100  1
  Ni  Ni0  1  0.66722700  0.66722700  0.50928300  1
  Ni  Ni1  1  0.33273300  0.33273300  0.01279900  1
  O  O0  1  0.31834000  0.84422600  0.39085700  1
  O  O1  1  0.52044000  0.52044000  0.67053000  1
  O  O2  1  0.67007200  0.67007200  0.89543100  1
  O  O3  1  0.99590200  0.99590200  0.68598900  1
  O  O4  1  0.99612600  0.99612600  0.18671200  1
  O  O5  1  0.84422600  0.31834000  0.39085700  1
  O  O6  1  0.51681100  0.96445400  0.67046400  1
  O  O7  1  0.96445400  0.51681100  0.67046400  1
  O  O8  1  0.16024000  0.16024000  0.88885800  1
  O  O9  1  0.84262200  0.84262200  0.39459400  1
  O  O10  1  0.03669600  0.48076700  0.17186500  1
  O  O11  1  0.48076700  0.03669600  0.17186500  1
  O  O12  1  0.33697000  0.33697000  0.39385800  1
  O  O13  1  0.16290600  0.68136700  0.89109700  1
  O  O14  1  0.48278100  0.48278100  0.17018900  1
  O  O15  1  0.68136700  0.16290600  0.89109700  1
loop_
_geom_bond_atom_site_label_1
_geom_bond_atom_site_label_2
_geom_bond_distance
_geom_bond_site_symmetry_2
Li0 O10 1.951301 1_655
Li0 O11 1.951301 1_565
Li0 O14 1.957097 1_555
Li0 O2 2.053196 1_554
Li1 O4 1.781802 1_555
Li1 O15 1.920782 1_564
Li1 O13 1.920782 1_654
Li1 O8 1.947614 1_664
Li2 O3 1.766171 1_555
Li2 O9 1.891470 1_555
Li2 O5 1.928869 1_565
Li2 O0 1.928869 1_655
Li3 O6 1.958087 1_545
Li3 O7 1.958087 1_455
Li3 O1 1.961786 1_555
Li3 O12 2.062112 1_555
Mn0 O7 1.913576 1_555
Mn0 O6 1.913576 1_555
Mn0 O3 1.920994 1_555
Mn0 O2 1.924339 1_555
Mn0 O13 1.982351 1_655
Mn0 O15 1.982351 1_565
Mn1 O10 1.914235 1_555
Mn1 O14 1.931428 1_555
Mn1 O4 1.931808 1_455
Mn1 O12 1.935890 1_555
Mn1 O9 1.949428 1_455
Mn1 O0 1.975582 1_555
Mn2 O11 1.914235 1_555
Mn2 O14 1.931428 1_555
Mn2 O4 1.931808 1_545
Mn2 O12 1.935890 1_555
Mn2 O9 1.949428 1_545
Mn2 O5 1.975582 1_555
Cr0 O13 1.899233 1_555
Cr0 O1 1.926729 1_555
Cr0 O8 1.933593 1_565
Cr0 O6 1.945207 1_555
Cr0 O3 1.963577 1_455
Cr0 O2 1.987967 1_555
Cr1 O15 1.899233 1_555
Cr1 O1 1.926729 1_555
Cr1 O8 1.933593 1_655
Cr1 O7 1.945207 1_555
Cr1 O3 1.963577 1_545
Cr1 O2 1.987967 1_555
Cr2 O5 1.894508 1_455
Cr2 O0 1.894508 1_545
Cr2 O11 1.944097 1_555
Cr2 O10 1.944097 1_555
Cr2 O4 1.981854 1_445
Cr2 O12 1.995925 1_555
Ni0 O9 2.077727 1_555
Ni0 O0 2.095224 1_555
Ni0 O5 2.095224 1_555
Ni0 O1 2.136975 1_555
Ni0 O7 2.156798 1_555
Ni0 O6 2.156798 1_555
Ni1 O15 2.106647 1_554
Ni1 O13 2.106647 1_554
Ni1 O8 2.111828 1_554
Ni1 O10 2.132557 1_555
Ni1 O11 2.132557 1_555
Ni1 O14 2.144296 1_555
