# generated using pymatgen
data_Co4TeO8
_symmetry_space_group_name_H-M   'P 1'
_cell_length_a   6.04393028
_cell_length_b   10.26403551
_cell_length_c   6.04443285
_cell_angle_alpha   77.01852469
_cell_angle_beta   60.70420626
_cell_angle_gamma   76.99942715
_symmetry_Int_Tables_number   1
_chemical_formula_structural   Co4TeO8
_chemical_formula_sum   'Co8 Te2 O16'
_cell_volume   315.71994988
_cell_formula_units_Z   2
loop_
 _symmetry_equiv_pos_site_id
 _symmetry_equiv_pos_as_xyz
  1  'x, y, z'
loop_
 _atom_site_type_symbol
 _atom_site_label
 _atom_site_symmetry_multiplicity
 _atom_site_fract_x
 _atom_site_fract_y
 _atom_site_fract_z
 _atom_site_occupancy
  Co  Co0  1  0.49999900  0.50000000  0.49999900  1
  Co  Co1  1  0.99999800  0.00000200  0.00000000  1
  Co  Co2  1  0.25132400  0.25187800  0.25131300  1
  Co  Co3  1  0.74868100  0.74811900  0.74868900  1
  Co  Co4  1  0.00000400  0.00000200  0.50000000  1
  Co  Co5  1  0.50002300  0.49999600  0.99999400  1
  Co  Co6  1  0.50000200  0.00000100  0.00000500  1
  Co  Co7  1  0.99999700  0.49999700  0.50002100  1
  Te  Te0  1  0.99996100  0.49997600  0.99995200  1
  Te  Te1  1  0.49998900  0.00000800  0.49999800  1
  O  O0  1  0.36907000  0.89436200  0.36891900  1
  O  O1  1  0.87856900  0.38844400  0.87837100  1
  O  O2  1  0.12144600  0.61158000  0.12164200  1
  O  O3  1  0.63093600  0.10564000  0.63108700  1
  O  O4  1  0.84723600  0.89962700  0.84713900  1
  O  O5  1  0.34428900  0.40798700  0.34421700  1
  O  O6  1  0.65570500  0.59201700  0.65577600  1
  O  O7  1  0.15276600  0.10037200  0.15286100  1
  O  O8  1  0.89009500  0.39349300  0.34843700  1
  O  O9  1  0.38539100  0.88949600  0.83842600  1
  O  O10  1  0.34860200  0.39345600  0.88997200  1
  O  O11  1  0.83854100  0.88947600  0.38527400  1
  O  O12  1  0.61460800  0.11050300  0.16158500  1
  O  O13  1  0.10990700  0.60650500  0.65156400  1
  O  O14  1  0.16146200  0.11052200  0.61472800  1
  O  O15  1  0.65140200  0.60654200  0.11003100  1
loop_
_geom_bond_atom_site_label_1
_geom_bond_atom_site_label_2
_geom_bond_distance
_geom_bond_site_symmetry_2
Co0 O6 2.081063 1_555
Co0 O5 2.081078 1_555
Co0 O13 2.183927 1_555
Co0 O8 2.183953 1_555
Co0 O15 2.184168 1_555
Co0 O10 2.184198 1_555
Co1 O7 2.111404 1_655
Co1 O4 2.111412 1_544
Co1 O12 2.179104 1_555
Co1 O9 2.179134 1_644
Co1 O14 2.179322 1_654
Co1 O11 2.179353 1_545
Co2 O7 2.075238 1_555
Co2 O5 2.077625 1_555
Co2 O8 2.219287 1_455
Co2 O10 2.220234 1_554
Co2 O12 2.230564 1_555
Co2 O14 2.231678 1_555
Co3 O4 2.075238 1_555
Co3 O6 2.077630 1_555
Co3 O13 2.219268 1_655
Co3 O15 2.220233 1_556
Co3 O9 2.230595 1_555
Co3 O11 2.231684 1_555
Co4 O7 1.969098 1_555
Co4 O4 1.969120 1_445
Co4 O14 2.057598 1_555
Co4 O11 2.057658 1_445
Co4 O0 2.085008 1_545
Co4 O3 2.085009 1_455
Co5 O6 1.925471 1_555
Co5 O5 1.925471 1_556
Co5 O15 1.961602 1_556
Co5 O10 1.961686 1_555
Co5 O1 2.153940 1_555
Co5 O2 2.154197 1_556
Co6 O7 1.968926 1_555
Co6 O4 1.968933 1_544
Co6 O12 2.057486 1_555
Co6 O9 2.057525 1_544
Co6 O0 2.084978 1_545
Co6 O3 2.084996 1_554
Co7 O5 1.925207 1_655
Co7 O6 1.925223 1_555
Co7 O13 1.961507 1_655
Co7 O8 1.961631 1_555
Co7 O1 2.153767 1_555
Co7 O2 2.154010 1_655
O0 Te1 1.953256 1_565
O1 Te0 1.916340 1_555
O2 Te0 1.917769 1_454
O3 Te1 1.953317 1_555
O8 Te0 1.998941 1_554
O9 Te1 1.968582 1_565
O10 Te0 1.999139 1_455
O11 Te1 1.968561 1_565
O12 Te1 1.968438 1_555
O13 Te0 1.998643 1_455
O14 Te1 1.968371 1_555
O15 Te0 1.998904 1_554
