# generated using pymatgen
data_LiFeF3
_symmetry_space_group_name_H-M   'P 1'
_cell_length_a   10.57564346
_cell_length_b   10.57564346
_cell_length_c   10.57564346
_cell_angle_alpha   108.72611642
_cell_angle_beta   108.72611642
_cell_angle_gamma   110.97193262
_symmetry_Int_Tables_number   1
_chemical_formula_structural   LiFeF3
_chemical_formula_sum   'Li16 Fe16 F48'
_cell_volume   910.06902748
_cell_formula_units_Z   16
loop_
 _symmetry_equiv_pos_site_id
 _symmetry_equiv_pos_as_xyz
  1  'x, y, z'
loop_
 _atom_site_type_symbol
 _atom_site_label
 _atom_site_symmetry_multiplicity
 _atom_site_fract_x
 _atom_site_fract_y
 _atom_site_fract_z
 _atom_site_occupancy
  Li  Li0  1  0.87767500  0.25509700  0.62391600  1
  Li  Li1  1  0.50000000  0.00000000  0.50000000  1
  Li  Li2  1  0.75509700  0.13118100  0.87742200  1
  Li  Li3  1  0.87500000  0.62500000  0.75000000  1
  Li  Li4  1  0.00000000  0.00000000  0.50000000  1
  Li  Li5  1  0.50000000  0.00000000  0.00000000  1
  Li  Li6  1  0.37500000  0.12500000  0.75000000  1
  Li  Li7  1  0.25375900  0.37767500  0.62257800  1
  Li  Li8  1  0.36881900  0.24624100  0.12391600  1
  Li  Li9  1  0.50000000  0.50000000  0.00000000  1
  Li  Li10  1  0.63118100  0.75375900  0.87608400  1
  Li  Li11  1  0.74624100  0.62232500  0.37742200  1
  Li  Li12  1  0.12500000  0.37500000  0.25000000  1
  Li  Li13  1  0.62500000  0.87500000  0.25000000  1
  Li  Li14  1  0.24490300  0.86881900  0.12257800  1
  Li  Li15  1  0.12232500  0.74490300  0.37608400  1
  Fe  Fe0  1  0.86946000  0.11946000  0.25000000  1
  Fe  Fe1  1  0.50000000  0.50000000  0.50000000  1
  Fe  Fe2  1  0.61946000  0.36946000  0.75000000  1
  Fe  Fe3  1  0.76105400  0.89814500  0.62547200  1
  Fe  Fe4  1  0.72732600  0.36441800  0.12547200  1
  Fe  Fe5  1  0.86441800  0.73894600  0.13709200  1
  Fe  Fe6  1  0.39814500  0.77267400  0.63709200  1
  Fe  Fe7  1  0.00000000  0.50000000  0.50000000  1
  Fe  Fe8  1  0.00000000  0.00000000  0.00000000  1
  Fe  Fe9  1  0.60185500  0.22732600  0.36290800  1
  Fe  Fe10  1  0.13558200  0.26105400  0.86290800  1
  Fe  Fe11  1  0.23894600  0.10185500  0.37452800  1
  Fe  Fe12  1  0.27267400  0.63558200  0.87452800  1
  Fe  Fe13  1  0.13054000  0.88054000  0.75000000  1
  Fe  Fe14  1  0.38054000  0.63054000  0.25000000  1
  Fe  Fe15  1  0.00000000  0.50000000  0.00000000  1
  F  F0  1  0.92658900  0.11187900  0.64634600  1
  F  F1  1  0.92827400  0.10472400  0.88435400  1
  F  F2  1  0.41531100  0.13912900  0.59148700  1
  F  F3  1  0.67793600  0.45203800  0.59232000  1
  F  F4  1  0.69719200  0.14845300  0.02397600  1
  F  F5  1  0.77675400  0.30828700  0.86610100  1
  F  F6  1  0.44218500  0.41065200  0.63389900  1
  F  F7  1  0.17617600  0.08468900  0.72381800  1
  F  F8  1  0.63912900  0.04764100  0.22381800  1
  F  F9  1  0.12447700  0.17321600  0.47602400  1
  F  F10  1  0.85971800  0.58561600  0.90768000  1
  F  F11  1  0.95203800  0.35971800  0.27410200  1
  F  F12  1  0.91438400  0.82206400  0.77410200  1
  F  F13  1  0.54764100  0.32382400  0.90851300  1
  F  F14  1  0.53446800  0.21975700  0.14634600  1
  F  F15  1  0.60472400  0.72037000  0.67645000  1
  F  F16  1  0.95608000  0.57172600  0.17645000  1
  F  F17  1  0.91065200  0.27675400  0.46846700  1
  F  F18  1  0.19171300  0.05781500  0.96846700  1
  F  F19  1  0.67321600  0.19719200  0.54873900  1
  F  F20  1  0.35154700  0.37552200  0.04873900  1
  F  F21  1  0.22037000  0.54392000  0.61564600  1
  F  F22  1  0.38812100  0.03446800  0.31471100  1
  F  F23  1  0.28024300  0.42658900  0.81471100  1
  F  F24  1  0.71975700  0.57341100  0.18528900  1
  F  F25  1  0.61187900  0.96553200  0.68528900  1
  F  F26  1  0.77963000  0.45608000  0.38435400  1
  F  F27  1  0.32678400  0.80280800  0.45126100  1
  F  F28  1  0.64845300  0.62447700  0.95126100  1
  F  F29  1  0.08934800  0.72324600  0.53153300  1
  F  F30  1  0.80828700  0.94218500  0.03153300  1
  F  F31  1  0.04392000  0.42827400  0.82355000  1
  F  F32  1  0.39527600  0.27963000  0.32355000  1
  F  F33  1  0.46553200  0.78024300  0.85365400  1
  F  F34  1  0.45235900  0.67617600  0.09148700  1
  F  F35  1  0.04796200  0.64028200  0.72589800  1
  F  F36  1  0.08561600  0.17793600  0.22589800  1
  F  F37  1  0.14028200  0.41438400  0.09232000  1
  F  F38  1  0.87552300  0.82678400  0.52397600  1
  F  F39  1  0.36087100  0.95235900  0.77618200  1
  F  F40  1  0.82382400  0.91531100  0.27618200  1
  F  F41  1  0.55781500  0.58934800  0.36610100  1
  F  F42  1  0.22324600  0.69171300  0.13389900  1
  F  F43  1  0.30280800  0.85154700  0.97602400  1
  F  F44  1  0.32206400  0.54796200  0.40768000  1
  F  F45  1  0.58468900  0.86087100  0.40851300  1
  F  F46  1  0.07172600  0.89527600  0.11564600  1
  F  F47  1  0.07341100  0.88812100  0.35365400  1
loop_
_geom_bond_atom_site_label_1
_geom_bond_atom_site_label_2
_geom_bond_distance
_geom_bond_site_symmetry_2
F0 Li0 1.825022 1_555
F0 Fe10 2.133805 1_655
F0 Li4 2.156696 1_655
F0 Fe3 2.195825 1_545
F1 Li2 1.931755 1_555
F1 Fe8 2.042848 1_656
F1 Fe10 2.357309 1_655
F1 Fe3 2.383511 1_545
F2 Li6 1.894315 1_555
F2 Li1 2.118703 1_555
F2 Fe2 2.166721 1_555
F2 Fe11 2.245876 1_555
F3 Li3 1.884467 1_555
F3 Fe1 2.138502 1_555
F3 Fe2 2.266396 1_555
F3 Fe9 2.420137 1_555
F4 Li2 1.821619 1_554
F4 Li5 1.984785 1_555
F4 Fe4 2.038488 1_555
F5 Li2 1.851884 1_555
F5 Fe15 2.067231 1_656
F5 Fe2 2.159223 1_555
F6 Li7 1.851876 1_555
F6 Fe1 2.067241 1_555
F6 Fe2 2.159224 1_555
F7 Li6 1.894315 1_555
F7 Li4 2.118703 1_555
F7 Fe13 2.166721 1_545
F7 Fe10 2.245871 1_555
F8 Li13 1.894304 1_545
F8 Li5 2.118707 1_555
F8 Fe0 2.166720 1_555
F8 Fe9 2.245871 1_555
F9 Li7 1.821619 1_555
F9 Li4 1.984785 1_555
F9 Fe11 2.038483 1_555
F10 Li3 1.884467 1_555
F10 Fe15 2.138502 1_656
F10 Fe2 2.266396 1_555
F10 Fe5 2.420134 1_556
F11 Li12 1.884467 1_655
F11 Fe7 2.138502 1_655
F11 Fe0 2.266396 1_555
F11 Fe4 2.420134 1_555
F12 Li3 1.884467 1_555
F12 Fe8 2.138502 1_666
F12 Fe13 2.266396 1_655
F12 Fe3 2.420125 1_555
F13 Li6 1.894312 1_555
F13 Li9 2.118696 1_556
F13 Fe2 2.166726 1_555
F13 Fe4 2.245876 1_556
F14 Li8 1.825032 1_555
F14 Fe9 2.133805 1_555
F14 Li5 2.156692 1_555
F14 Fe4 2.195810 1_555
F15 Li10 1.931755 1_555
F15 Fe1 2.042848 1_555
F15 Fe3 2.357303 1_555
F15 Fe6 2.383518 1_555
F16 Li15 1.931755 1_655
F16 Fe15 2.042848 1_655
F16 Fe4 2.357309 1_555
F16 Fe5 2.383508 1_555
F17 Li0 1.851880 1_555
F17 Fe7 2.067231 1_655
F17 Fe0 2.159228 1_555
F18 Li8 1.851880 1_556
F18 Fe8 2.067231 1_556
F18 Fe13 2.159228 1_545
F19 Li0 1.821619 1_555
F19 Li1 1.984785 1_555
F19 Fe9 2.038486 1_555
F20 Li8 1.821609 1_555
F20 Li9 1.984790 1_555
F20 Fe10 2.038489 1_554
F21 Li7 1.931755 1_555
F21 Fe7 2.042848 1_555
F21 Fe6 2.357305 1_555
F21 Fe12 2.383508 1_555
F22 Li14 1.825030 1_545
F22 Fe11 2.133800 1_555
F22 Li1 2.156695 1_555
F22 Fe9 2.195823 1_555
F23 Li7 1.825032 1_555
F23 Fe12 2.133805 1_555
F23 Li9 2.156692 1_556
F23 Fe10 2.195810 1_555
F24 Li11 1.825032 1_555
F24 Fe4 2.133805 1_555
F24 Li9 2.156692 1_555
F24 Fe5 2.195810 1_555
F25 Li2 1.825030 1_565
F25 Fe3 2.133800 1_555
F25 Li1 2.156695 1_565
F25 Fe6 2.195823 1_555
F26 Li11 1.931755 1_555
F26 Fe7 2.042848 1_655
F26 Fe9 2.357305 1_555
F26 Fe4 2.383508 1_555
F27 Li15 1.821619 1_555
F27 Li1 1.984785 1_565
F27 Fe6 2.038486 1_555
F28 Li10 1.821619 1_555
F28 Li9 1.984785 1_556
F28 Fe5 2.038488 1_556
F29 Li15 1.851880 1_555
F29 Fe7 2.067231 1_555
F29 Fe13 2.159228 1_555
F30 Li10 1.851880 1_554
F30 Fe8 2.067231 1_665
F30 Fe0 2.159228 1_565
F31 Li0 1.931755 1_455
F31 Fe15 2.042848 1_556
F31 Fe12 2.357309 1_555
F31 Fe10 2.383508 1_555
F32 Li8 1.931755 1_555
F32 Fe1 2.042848 1_555
F32 Fe11 2.357303 1_555
F32 Fe9 2.383518 1_555
F33 Li10 1.825032 1_555
F33 Fe6 2.133805 1_555
F33 Li5 2.156692 1_566
F33 Fe12 2.195810 1_555
F34 Li13 1.894312 1_555
F34 Li9 2.118696 1_555
F34 Fe14 2.166726 1_555
F34 Fe12 2.245876 1_554
F35 Li3 1.884467 1_455
F35 Fe7 2.138502 1_555
F35 Fe13 2.266396 1_555
F35 Fe12 2.420134 1_555
F36 Li12 1.884467 1_555
F36 Fe8 2.138502 1_555
F36 Fe0 2.266396 1_455
F36 Fe11 2.420125 1_555
F37 Li12 1.884467 1_555
F37 Fe15 2.138502 1_555
F37 Fe14 2.266396 1_555
F37 Fe10 2.420134 1_554
F38 Li11 1.821619 1_555
F38 Li4 1.984785 1_665
F38 Fe3 2.038483 1_555
F39 Li6 1.894304 1_565
F39 Li5 2.118707 1_566
F39 Fe13 2.166720 1_555
F39 Fe6 2.245871 1_555
F40 Li13 1.894315 1_555
F40 Li4 2.118703 1_665
F40 Fe0 2.166721 1_565
F40 Fe5 2.245871 1_555
F41 Li11 1.851876 1_555
F41 Fe1 2.067241 1_555
F41 Fe14 2.159224 1_555
F42 Li14 1.851884 1_555
F42 Fe15 2.067231 1_555
F42 Fe14 2.159223 1_555
F43 Li14 1.821619 1_556
F43 Li5 1.984785 1_566
F43 Fe12 2.038488 1_555
F44 Li12 1.884467 1_555
F44 Fe1 2.138502 1_555
F44 Fe14 2.266396 1_555
F44 Fe6 2.420137 1_555
F45 Li13 1.894315 1_555
F45 Li1 2.118703 1_565
F45 Fe14 2.166721 1_555
F45 Fe3 2.245876 1_555
F46 Li14 1.931755 1_555
F46 Fe8 2.042848 1_565
F46 Fe5 2.357309 1_455
F46 Fe11 2.383511 1_565
F47 Li15 1.825022 1_555
F47 Fe5 2.133805 1_455
F47 Li4 2.156696 1_565
F47 Fe11 2.195825 1_565
