# generated using pymatgen
data_Li5Fe2P2(CO7)2
_symmetry_space_group_name_H-M   'P 1'
_cell_length_a   6.49010900
_cell_length_b   9.41754623
_cell_length_c   10.09764020
_cell_angle_alpha   117.03311286
_cell_angle_beta   89.83454082
_cell_angle_gamma   91.05525809
_symmetry_Int_Tables_number   1
_chemical_formula_structural   Li5Fe2P2(CO7)2
_chemical_formula_sum   'Li10 Fe4 P4 C4 O28'
_cell_volume   549.64294367
_cell_formula_units_Z   2
loop_
 _symmetry_equiv_pos_site_id
 _symmetry_equiv_pos_as_xyz
  1  'x, y, z'
loop_
 _atom_site_type_symbol
 _atom_site_label
 _atom_site_symmetry_multiplicity
 _atom_site_fract_x
 _atom_site_fract_y
 _atom_site_fract_z
 _atom_site_occupancy
  Li  Li0  1  0.25370000  0.10702400  0.44013400  1
  Li  Li1  1  0.25926000  0.08857600  0.92455100  1
  Li  Li2  1  0.03882500  0.27758700  0.27015900  1
  Li  Li3  1  0.48440200  0.27085200  0.75882200  1
  Li  Li4  1  0.01129200  0.27038600  0.75908800  1
  Li  Li5  1  0.51559800  0.72914800  0.24117800  1
  Li  Li6  1  0.98870800  0.72961400  0.24091200  1
  Li  Li7  1  0.96117500  0.72241300  0.72984100  1
  Li  Li8  1  0.74074000  0.91142400  0.07544900  1
  Li  Li9  1  0.74630000  0.89297600  0.55986600  1
  Fe  Fe0  1  0.74451700  0.33051200  0.07029900  1
  Fe  Fe1  1  0.74500700  0.33139400  0.55288100  1
  Fe  Fe2  1  0.25499300  0.66860600  0.44711900  1
  Fe  Fe3  1  0.25548300  0.66948800  0.92970100  1
  P  P0  1  0.24786300  0.41668000  0.06404600  1
  P  P1  1  0.23833600  0.41477300  0.57401300  1
  P  P2  1  0.76166400  0.58522700  0.42598700  1
  P  P3  1  0.75213700  0.58332000  0.93595400  1
  C  C0  1  0.75512200  0.03038800  0.36695300  1
  C  C1  1  0.76346800  0.04520100  0.86740900  1
  C  C2  1  0.23653200  0.95479900  0.13259100  1
  C  C3  1  0.24487800  0.96961200  0.63304700  1
  O  O0  1  0.75259400  0.07983900  0.00856100  1
  O  O1  1  0.73899500  0.06642600  0.50711100  1
  O  O2  1  0.21849800  0.09419900  0.23683500  1
  O  O3  1  0.77244500  0.14390400  0.32872100  1
  O  O4  1  0.24860500  0.11766500  0.73614600  1
  O  O5  1  0.75446200  0.17046800  0.84147700  1
  O  O6  1  0.06451100  0.30623300  0.06142300  1
  O  O7  1  0.43905200  0.31148500  0.04291900  1
  O  O8  1  0.05914100  0.30280600  0.57497500  1
  O  O9  1  0.43207100  0.32049800  0.57464800  1
  O  O10  1  0.77091000  0.42017800  0.28569100  1
  O  O11  1  0.22269100  0.44037900  0.43438000  1
  O  O12  1  0.74416700  0.42324300  0.79576100  1
  O  O13  1  0.23155600  0.45117000  0.92539300  1
  O  O14  1  0.76844400  0.54883000  0.07460700  1
  O  O15  1  0.25583300  0.57675700  0.20423900  1
  O  O16  1  0.77730900  0.55962100  0.56562000  1
  O  O17  1  0.22909000  0.57982200  0.71430900  1
  O  O18  1  0.56792900  0.67950200  0.42535200  1
  O  O19  1  0.94085900  0.69719400  0.42502500  1
  O  O20  1  0.93548900  0.69376700  0.93857700  1
  O  O21  1  0.56094800  0.68851500  0.95708100  1
  O  O22  1  0.24553800  0.82953200  0.15852300  1
  O  O23  1  0.75139500  0.88233500  0.26385400  1
  O  O24  1  0.22755500  0.85609600  0.67127900  1
  O  O25  1  0.78150200  0.90580100  0.76316500  1
  O  O26  1  0.26100500  0.93357400  0.49288900  1
  O  O27  1  0.24740600  0.92016100  0.99143900  1
loop_
_geom_bond_atom_site_label_1
_geom_bond_atom_site_label_2
_geom_bond_distance
_geom_bond_site_symmetry_2
Li0 O26 1.936035 1_545
Li0 O2 2.014261 1_555
Li0 O8 2.154452 1_555
Li0 O9 2.160535 1_555
Li1 O27 1.986617 1_545
Li1 O4 2.043119 1_555
Li1 O7 2.198653 1_556
Li1 O6 2.284620 1_556
Li1 O24 2.504592 1_545
Li2 O2 1.999852 1_555
Li2 O11 2.038938 1_555
Li2 O10 2.178133 1_455
Li2 O6 2.248629 1_555
Li2 O3 2.348235 1_455
Li3 O4 2.023871 1_555
Li3 O12 2.113992 1_555
Li3 O9 2.142989 1_555
Li3 O5 2.334321 1_555
Li3 O13 2.428163 1_555
Li4 O8 2.038401 1_555
Li4 O4 2.066661 1_555
Li4 O12 2.195144 1_455
Li4 O5 2.236469 1_455
Li4 O13 2.255557 1_555
Li5 O23 2.023871 1_555
Li5 O15 2.113992 1_555
Li5 O18 2.142989 1_555
Li5 O22 2.334321 1_555
Li5 O14 2.428163 1_555
Li6 O19 2.038401 1_555
Li6 O23 2.066661 1_555
Li6 O15 2.195144 1_655
Li6 O22 2.236469 1_655
Li6 O14 2.255557 1_555
Li7 O25 1.999852 1_555
Li7 O16 2.038938 1_555
Li7 O17 2.178133 1_655
Li7 O20 2.248629 1_555
Li7 O24 2.348235 1_655
Li8 O0 1.986617 1_565
Li8 O23 2.043119 1_555
Li8 O21 2.198653 1_554
Li8 O20 2.284620 1_554
Li8 O3 2.504592 1_565
Li9 O1 1.936035 1_565
Li9 O25 2.014261 1_555
Li9 O19 2.154452 1_555
Li9 O18 2.160535 1_555
Fe0 O10 1.949398 1_555
Fe0 O7 1.995972 1_555
Fe0 O14 2.039658 1_555
Fe0 O6 2.090737 1_655
Fe0 O5 2.109892 1_554
Fe0 O0 2.151973 1_555
Fe1 O9 2.047926 1_555
Fe1 O8 2.087165 1_655
Fe1 O16 2.100569 1_555
Fe1 O3 2.156163 1_555
Fe1 O12 2.198815 1_555
Fe1 O1 2.321652 1_555
Fe2 O18 2.047926 1_555
Fe2 O19 2.087165 1_455
Fe2 O11 2.100569 1_555
Fe2 O24 2.156163 1_555
Fe2 O15 2.198815 1_555
Fe2 O26 2.321652 1_555
Fe3 O17 1.949398 1_555
Fe3 O21 1.995972 1_555
Fe3 O13 2.039658 1_555
Fe3 O20 2.090737 1_455
Fe3 O22 2.109892 1_556
Fe3 O27 2.151973 1_555
C0 O3 1.294220 1_555
C0 O1 1.301133 1_555
C0 O23 1.306860 1_545
C1 O25 1.262523 1_545
C1 O0 1.311681 1_556
C1 O5 1.321788 1_555
C2 O2 1.262523 1_565
C2 O27 1.311681 1_554
C2 O22 1.321788 1_555
C3 O24 1.294220 1_555
C3 O26 1.301133 1_555
C3 O4 1.306860 1_565
O6 P0 1.558262 1_555
O7 P0 1.555078 1_555
O8 P1 1.558397 1_555
O9 P1 1.554219 1_555
O10 P2 1.558158 1_555
O11 P1 1.538589 1_555
O12 P3 1.528707 1_555
O13 P0 1.578732 1_556
O14 P3 1.578732 1_554
O15 P0 1.528707 1_555
O16 P2 1.538589 1_555
O17 P1 1.558158 1_555
O18 P2 1.554219 1_555
O19 P2 1.558397 1_555
O20 P3 1.558262 1_555
O21 P3 1.555078 1_555
