# generated using pymatgen
data_Li4CrS4
_symmetry_space_group_name_H-M   'P 1'
_cell_length_a   6.11183400
_cell_length_b   7.75691500
_cell_length_c   14.20032900
_cell_angle_alpha   90.00000000
_cell_angle_beta   90.00000000
_cell_angle_gamma   90.00000000
_symmetry_Int_Tables_number   1
_chemical_formula_structural   Li4CrS4
_chemical_formula_sum   'Li16 Cr4 S16'
_cell_volume   673.22306857
_cell_formula_units_Z   4
loop_
 _symmetry_equiv_pos_site_id
 _symmetry_equiv_pos_as_xyz
  1  'x, y, z'
loop_
 _atom_site_type_symbol
 _atom_site_label
 _atom_site_symmetry_multiplicity
 _atom_site_fract_x
 _atom_site_fract_y
 _atom_site_fract_z
 _atom_site_occupancy
  Li  Li0  1  0.50000000  0.00000000  0.00000000  1
  Li  Li1  1  0.50000000  0.50000000  0.00000000  1
  Li  Li2  1  0.86961900  0.25000000  0.08637700  1
  Li  Li3  1  0.30314000  0.49854000  0.17767600  1
  Li  Li4  1  0.30314000  0.00146000  0.17767600  1
  Li  Li5  1  0.80314000  0.99854000  0.32232400  1
  Li  Li6  1  0.80314000  0.50146000  0.32232400  1
  Li  Li7  1  0.36961900  0.75000000  0.41362300  1
  Li  Li8  1  0.00000000  0.00000000  0.50000000  1
  Li  Li9  1  0.00000000  0.50000000  0.50000000  1
  Li  Li10  1  0.63038100  0.25000000  0.58637700  1
  Li  Li11  1  0.19686000  0.49854000  0.67767600  1
  Li  Li12  1  0.19686000  0.00146000  0.67767600  1
  Li  Li13  1  0.69686000  0.99854000  0.82232400  1
  Li  Li14  1  0.69686000  0.50146000  0.82232400  1
  Li  Li15  1  0.13038100  0.75000000  0.91362300  1
  Cr  Cr0  1  0.84779500  0.75000000  0.08739800  1
  Cr  Cr1  1  0.34779500  0.25000000  0.41260200  1
  Cr  Cr2  1  0.65220500  0.75000000  0.58739800  1
  Cr  Cr3  1  0.15220500  0.25000000  0.91260200  1
  S  S0  1  0.26710700  0.25000000  0.06046800  1
  S  S1  1  0.20562300  0.75000000  0.08373800  1
  S  S2  1  0.71874100  0.51645200  0.15549200  1
  S  S3  1  0.71874100  0.98354800  0.15549200  1
  S  S4  1  0.21874100  0.01645200  0.34450800  1
  S  S5  1  0.21874100  0.48354800  0.34450800  1
  S  S6  1  0.70562300  0.25000000  0.41626200  1
  S  S7  1  0.76710700  0.75000000  0.43953200  1
  S  S8  1  0.23289300  0.25000000  0.56046800  1
  S  S9  1  0.29437700  0.75000000  0.58373800  1
  S  S10  1  0.78125900  0.51645200  0.65549200  1
  S  S11  1  0.78125900  0.98354800  0.65549200  1
  S  S12  1  0.28125900  0.01645200  0.84450800  1
  S  S13  1  0.28125900  0.48354800  0.84450800  1
  S  S14  1  0.79437700  0.25000000  0.91626200  1
  S  S15  1  0.73289300  0.75000000  0.93953200  1
loop_
_geom_bond_atom_site_label_1
_geom_bond_atom_site_label_2
_geom_bond_distance
_geom_bond_site_symmetry_2
Li0 S0 2.554211 1_555
Li0 S15 2.554211 1_544
Li0 S12 2.584384 1_554
Li0 S3 2.584384 1_545
Li0 S14 2.900284 1_554
Li0 S1 2.900284 1_545
Li1 S0 2.554211 1_555
Li1 S15 2.554211 1_554
Li1 S13 2.584384 1_554
Li1 S2 2.584384 1_555
Li1 S14 2.900284 1_554
Li1 S1 2.900284 1_555
Li2 S0 2.457082 1_655
Li2 S14 2.459071 1_554
Li2 S2 2.466871 1_555
Li2 S3 2.466871 1_545
Li3 S5 2.427364 1_555
Li3 S1 2.437070 1_555
Li3 S0 2.556465 1_555
Li3 S2 2.563312 1_555
Li4 S4 2.427364 1_555
Li4 S1 2.437070 1_545
Li4 S0 2.556465 1_555
Li4 S3 2.563312 1_545
Li5 S3 2.427364 1_555
Li5 S6 2.437070 1_565
Li5 S7 2.556465 1_555
Li5 S4 2.563312 1_665
Li6 S2 2.427364 1_555
Li6 S6 2.437070 1_555
Li6 S7 2.556465 1_555
Li6 S5 2.563312 1_655
Li7 S7 2.457082 1_555
Li7 S9 2.459071 1_555
Li7 S4 2.466871 1_565
Li7 S5 2.466871 1_555
Li8 S8 2.554211 1_555
Li8 S7 2.554211 1_445
Li8 S11 2.584384 1_445
Li8 S4 2.584384 1_555
Li8 S6 2.900284 1_455
Li8 S9 2.900284 1_545
Li9 S8 2.554211 1_555
Li9 S7 2.554211 1_455
Li9 S10 2.584384 1_455
Li9 S5 2.584384 1_555
Li9 S9 2.900284 1_555
Li9 S6 2.900284 1_455
Li10 S8 2.457082 1_555
Li10 S6 2.459071 1_555
Li10 S10 2.466871 1_555
Li10 S11 2.466871 1_545
Li11 S13 2.427364 1_555
Li11 S9 2.437070 1_555
Li11 S8 2.556465 1_555
Li11 S10 2.563312 1_455
Li12 S12 2.427364 1_555
Li12 S9 2.437070 1_545
Li12 S8 2.556465 1_555
Li12 S11 2.563312 1_445
Li13 S11 2.427364 1_555
Li13 S14 2.437070 1_565
Li13 S15 2.556465 1_555
Li13 S12 2.563312 1_565
Li14 S10 2.427364 1_555
Li14 S14 2.437070 1_555
Li14 S15 2.556465 1_555
Li14 S13 2.563312 1_555
Li15 S15 2.457082 1_455
Li15 S1 2.459071 1_556
Li15 S12 2.466871 1_565
Li15 S13 2.466871 1_555
Cr0 S1 2.187603 1_655
Cr0 S3 2.199791 1_555
Cr0 S2 2.199791 1_555
Cr0 S15 2.214070 1_554
Cr1 S6 2.187603 1_555
Cr1 S5 2.199791 1_555
Cr1 S4 2.199791 1_555
Cr1 S8 2.214070 1_555
Cr2 S9 2.187603 1_555
Cr2 S10 2.199791 1_555
Cr2 S11 2.199791 1_555
Cr2 S7 2.214070 1_555
Cr3 S14 2.187603 1_455
Cr3 S13 2.199791 1_555
Cr3 S12 2.199791 1_555
Cr3 S0 2.214070 1_556
