# generated using pymatgen
data_Li4Mn5NbO12
_symmetry_space_group_name_H-M   'P 1'
_cell_length_a   5.25573416
_cell_length_b   21.28070733
_cell_length_c   5.25544947
_cell_angle_alpha   84.89527585
_cell_angle_beta   116.54291668
_cell_angle_gamma   84.88607852
_symmetry_Int_Tables_number   1
_chemical_formula_structural   Li4Mn5NbO12
_chemical_formula_sum   'Li8 Mn10 Nb2 O24'
_cell_volume   518.25085551
_cell_formula_units_Z   2
loop_
 _symmetry_equiv_pos_site_id
 _symmetry_equiv_pos_as_xyz
  1  'x, y, z'
loop_
 _atom_site_type_symbol
 _atom_site_label
 _atom_site_symmetry_multiplicity
 _atom_site_fract_x
 _atom_site_fract_y
 _atom_site_fract_z
 _atom_site_occupancy
  Li  Li0  1  0.43275900  0.35450400  0.07693700  1
  Li  Li1  1  0.43242200  0.85443700  0.07675600  1
  Li  Li2  1  0.92274700  0.14550200  0.56724900  1
  Li  Li3  1  0.92331600  0.64556900  0.56767700  1
  Li  Li4  1  0.07669400  0.35449800  0.43301200  1
  Li  Li5  1  0.07597100  0.85461900  0.43132300  1
  Li  Li6  1  0.56698500  0.14551200  0.92297500  1
  Li  Li7  1  0.56866400  0.64539500  0.92407800  1
  Mn  Mn0  1  0.16479200  0.75001500  0.83511700  1
  Mn  Mn1  1  0.66548800  0.50018000  0.33443400  1
  Mn  Mn2  1  0.66567700  0.99979700  0.33453900  1
  Mn  Mn3  1  0.33434600  0.99973400  0.66610700  1
  Mn  Mn4  1  0.33398200  0.50022100  0.66567200  1
  Mn  Mn5  1  0.49984300  0.25007300  0.50011300  1
  Mn  Mn6  1  0.49939100  0.75001100  0.50067000  1
  Mn  Mn7  1  0.83594800  0.24998400  0.16419100  1
  Mn  Mn8  1  0.83702000  0.75000000  0.16303800  1
  Mn  Mn9  1  0.16388900  0.24998300  0.83620700  1
  Nb  Nb0  1  0.99981200  0.99998200  0.00008000  1
  Nb  Nb1  1  0.99993800  0.49998900  0.00019900  1
  O  O0  1  0.15641600  0.29515700  0.15670400  1
  O  O1  1  0.15743000  0.79528900  0.15688600  1
  O  O2  1  0.84316100  0.20488100  0.84344300  1
  O  O3  1  0.84317000  0.70473600  0.84263600  1
  O  O4  1  0.30489100  0.04363400  0.30530500  1
  O  O5  1  0.30429700  0.54401900  0.30457600  1
  O  O6  1  0.69479100  0.45631900  0.69516800  1
  O  O7  1  0.69551900  0.95594000  0.69578500  1
  O  O8  1  0.66280000  0.05188100  0.00222500  1
  O  O9  1  0.66285000  0.55207000  0.00229000  1
  O  O10  1  0.99780200  0.44810000  0.33721800  1
  O  O11  1  0.99778100  0.94791200  0.33722300  1
  O  O12  1  0.00204200  0.05186300  0.66319100  1
  O  O13  1  0.00163600  0.55211100  0.66301000  1
  O  O14  1  0.33685700  0.44811300  0.99794700  1
  O  O15  1  0.33706300  0.94786700  0.99843800  1
  O  O16  1  0.59219700  0.19504700  0.22611000  1
  O  O17  1  0.59291200  0.69537300  0.22635400  1
  O  O18  1  0.77371200  0.30498800  0.40758700  1
  O  O19  1  0.77380100  0.80466700  0.40714600  1
  O  O20  1  0.22577600  0.19504000  0.59247700  1
  O  O21  1  0.22815400  0.69477600  0.59213200  1
  O  O22  1  0.40731000  0.30497300  0.77396500  1
  O  O23  1  0.40794700  0.80523800  0.77181000  1
loop_
_geom_bond_atom_site_label_1
_geom_bond_atom_site_label_2
_geom_bond_distance
_geom_bond_site_symmetry_2
Li0 O22 1.948756 1_554
Li0 O14 1.970164 1_554
Li0 O18 1.973737 1_555
Li0 O0 2.158040 1_555
Li1 O23 1.954356 1_554
Li1 O15 1.966245 1_554
Li1 O19 1.976232 1_555
Li1 O1 2.150463 1_555
Li2 O20 1.949588 1_655
Li2 O12 1.970821 1_655
Li2 O16 1.974200 1_555
Li2 O2 2.157182 1_555
Li3 O21 1.954212 1_655
Li3 O13 1.966826 1_655
Li3 O17 1.976398 1_555
Li3 O3 2.150385 1_555
Li4 O18 1.948755 1_455
Li4 O10 1.969988 1_455
Li4 O22 1.973732 1_555
Li4 O0 2.157477 1_555
Li5 O19 1.952674 1_455
Li5 O11 1.962963 1_455
Li5 O23 1.974514 1_555
Li5 O1 2.153409 1_555
Li6 O16 1.949834 1_556
Li6 O8 1.970594 1_556
Li6 O20 1.974120 1_555
Li6 O2 2.157075 1_555
Li7 O17 1.953188 1_556
Li7 O9 1.963644 1_556
Li7 O21 1.974503 1_555
Li7 O3 2.154038 1_555
Mn0 O21 1.923769 1_555
Mn0 O23 1.924342 1_555
Mn0 O3 2.032396 1_455
Mn0 O1 2.032520 1_556
Mn0 O19 2.368943 1_455
Mn0 O17 2.369799 1_556
Mn1 O6 1.971701 1_555
Mn1 O5 1.972463 1_555
Mn1 O9 1.974640 1_555
Mn1 O10 1.976913 1_555
Mn1 O13 2.299026 1_655
Mn1 O14 2.301781 1_554
Mn2 O4 1.971853 1_565
Mn2 O7 1.972934 1_555
Mn2 O11 1.974232 1_555
Mn2 O8 1.976817 1_565
Mn2 O15 2.298979 1_554
Mn2 O12 2.301519 1_665
Mn3 O4 1.972018 1_565
Mn3 O7 1.972387 1_555
Mn3 O15 1.975040 1_555
Mn3 O12 1.977068 1_565
Mn3 O11 2.299370 1_455
Mn3 O8 2.301490 1_566
Mn4 O6 1.971945 1_555
Mn4 O5 1.972084 1_555
Mn4 O13 1.975391 1_555
Mn4 O14 1.976897 1_555
Mn4 O9 2.299812 1_556
Mn4 O10 2.301310 1_455
Mn5 O0 1.976698 1_555
Mn5 O2 1.976985 1_555
Mn5 O22 2.120445 1_555
Mn5 O18 2.120912 1_555
Mn5 O16 2.122235 1_555
Mn5 O20 2.122850 1_555
Mn6 O3 1.975385 1_555
Mn6 O1 1.975406 1_555
Mn6 O23 2.110013 1_555
Mn6 O21 2.110802 1_555
Mn6 O17 2.121704 1_555
Mn6 O19 2.122569 1_555
Mn7 O18 1.919763 1_555
Mn7 O16 1.919834 1_555
Mn7 O2 2.025523 1_554
Mn7 O0 2.025751 1_655
Mn7 O20 2.369424 1_655
Mn7 O22 2.371536 1_554
Mn8 O17 1.920087 1_555
Mn8 O19 1.920222 1_555
Mn8 O3 2.023857 1_554
Mn8 O1 2.024400 1_655
Mn8 O21 2.376331 1_655
Mn8 O23 2.376573 1_554
Mn9 O20 1.919555 1_555
Mn9 O22 1.919891 1_555
Mn9 O0 2.025661 1_556
Mn9 O2 2.025671 1_455
Mn9 O16 2.369588 1_556
Mn9 O18 2.371494 1_455
Nb0 O12 2.006683 1_664
Nb0 O8 2.007127 1_565
Nb0 O15 2.009165 1_654
Nb0 O11 2.009231 1_555
Nb0 O4 2.058880 1_665
Nb0 O7 2.059547 1_554
Nb1 O14 2.006739 1_654
Nb1 O10 2.007113 1_555
Nb1 O9 2.009164 1_555
Nb1 O13 2.009172 1_654
Nb1 O6 2.058794 1_554
Nb1 O5 2.059761 1_655
