# generated using pymatgen
data_Li3VCrP2(HO5)2
_symmetry_space_group_name_H-M   'P 1'
_cell_length_a   5.22824342
_cell_length_b   5.57622176
_cell_length_c   7.56144685
_cell_angle_alpha   108.83346223
_cell_angle_beta   109.69480763
_cell_angle_gamma   94.91723830
_symmetry_Int_Tables_number   1
_chemical_formula_structural   Li3VCrP2(HO5)2
_chemical_formula_sum   'Li3 V1 Cr1 P2 H2 O10'
_cell_volume   191.70048538
_cell_formula_units_Z   1
loop_
 _symmetry_equiv_pos_site_id
 _symmetry_equiv_pos_as_xyz
  1  'x, y, z'
loop_
 _atom_site_type_symbol
 _atom_site_label
 _atom_site_symmetry_multiplicity
 _atom_site_fract_x
 _atom_site_fract_y
 _atom_site_fract_z
 _atom_site_occupancy
  Li  Li0  1  0.76511148  0.39631654  0.82843417  1
  Li  Li1  1  0.22540614  0.59224907  0.26054336  1
  Li  Li2  1  0.51985627  0.85065696  0.15632572  1
  V  V0  1  0.01056078  0.00390174  0.50717851  1
  Cr  Cr0  1  0.99717019  0.99980060  0.99153002  1
  P  P0  1  0.65671522  0.36187711  0.22244306  1
  P  P1  1  0.33769916  0.63323625  0.75526766  1
  H  H0  1  0.33511613  0.08908007  0.34803000  1
  H  H1  1  0.64666630  0.93815677  0.66315941  1
  O  O0  1  0.83654192  0.04896465  0.73001100  1
  O  O1  1  0.71984980  0.21202070  0.36602608  1
  O  O2  1  0.33798436  0.34522479  0.66620471  1
  O  O3  1  0.35096275  0.24787484  0.06694161  1
  O  O4  1  0.86515633  0.33405963  0.11196690  1
  O  O5  1  0.13594414  0.67587795  0.87182582  1
  O  O6  1  0.63958289  0.76018470  0.92839810  1
  O  O7  1  0.66906156  0.65402686  0.32444933  1
  O  O8  1  0.28363061  0.76067613  0.59775279  1
  O  O9  1  0.17106997  0.94488764  0.26164175  1
loop_
_geom_bond_atom_site_label_1
_geom_bond_atom_site_label_2
_geom_bond_distance
_geom_bond_site_symmetry_2
Li0 O0 1.955919 1_555
Li0 O2 2.095637 1_555
Li0 O6 2.165964 1_555
Li0 O4 2.178604 1_556
Li0 O5 2.240454 1_655
Li1 O4 1.986714 1_455
Li1 O9 2.008551 1_555
Li1 O7 2.175431 1_555
Li1 O3 2.304420 1_555
Li1 O8 2.314707 1_555
Li2 O7 1.950637 1_555
Li2 O6 1.958719 1_554
Li2 O1 2.031345 1_565
Li2 O5 2.237650 1_554
Cr0 O0 1.990210 1_565
Cr0 O3 2.000327 1_666
Cr0 O6 2.016636 1_555
Cr0 O5 2.054270 1_655
Cr0 O9 2.071670 1_656
Cr0 O4 2.080415 1_566
H0 O9 0.986839 1_545
H1 O0 0.988813 1_565
O0 V0 2.128145 1_655
O1 P0 1.541901 1_555
O1 V0 2.191979 1_655
O2 P1 1.528269 1_555
O2 V0 2.138986 1_555
O3 P0 1.555097 1_555
O4 P0 1.571123 1_555
O5 P1 1.574890 1_555
O6 P1 1.588544 1_555
O7 P0 1.546020 1_555
O7 V0 2.214240 1_665
O8 P1 1.535400 1_555
O8 V0 2.149287 1_565
O9 V0 2.227679 1_565
