# generated using pymatgen
data_Na3V2(PO4)3
_symmetry_space_group_name_H-M   'P 1'
_cell_length_a   9.01309100
_cell_length_b   8.87166400
_cell_length_c   15.44046625
_cell_angle_alpha   55.32587763
_cell_angle_beta   90.00000000
_cell_angle_gamma   90.00000000
_symmetry_Int_Tables_number   1
_chemical_formula_structural   Na3V2(PO4)3
_chemical_formula_sum   'Na12 V8 P12 O48'
_cell_volume   1015.36670772
_cell_formula_units_Z   4
loop_
 _symmetry_equiv_pos_site_id
 _symmetry_equiv_pos_as_xyz
  1  'x, y, z'
loop_
 _atom_site_type_symbol
 _atom_site_label
 _atom_site_symmetry_multiplicity
 _atom_site_fract_x
 _atom_site_fract_y
 _atom_site_fract_z
 _atom_site_occupancy
  Na  Na0  1  0.93492600  0.38708300  0.69015100  1
  Na  Na1  1  0.30070400  0.32757200  0.76475300  1
  Na  Na2  1  0.20485200  0.04571600  0.16334900  1
  Na  Na3  1  0.70485200  0.95428400  0.33665100  1
  Na  Na4  1  0.80070400  0.67242800  0.73524700  1
  Na  Na5  1  0.43492600  0.61291700  0.80984900  1
  Na  Na6  1  0.56507400  0.38708300  0.19015100  1
  Na  Na7  1  0.19929600  0.32757200  0.26475300  1
  Na  Na8  1  0.29514800  0.04571600  0.66334900  1
  Na  Na9  1  0.79514800  0.95428400  0.83665100  1
  Na  Na10  1  0.69929600  0.67242800  0.23524700  1
  Na  Na11  1  0.06507400  0.61291700  0.30984900  1
  V  V0  1  0.47851600  0.64558400  0.60153700  1
  V  V1  1  0.97851600  0.35441600  0.89846300  1
  V  V2  1  0.53727900  0.13675000  0.10548000  1
  V  V3  1  0.03727900  0.86325000  0.39452000  1
  V  V4  1  0.96272100  0.13675000  0.60548000  1
  V  V5  1  0.46272100  0.86325000  0.89452000  1
  V  V6  1  0.02148400  0.64558400  0.10153700  1
  V  V7  1  0.52148400  0.35441600  0.39846300  1
  P  P0  1  0.74967900  0.53087500  0.49658100  1
  P  P1  1  0.61984800  0.25338600  0.85451800  1
  P  P2  1  0.89646300  0.96810000  0.14707500  1
  P  P3  1  0.39646300  0.03190000  0.35292500  1
  P  P4  1  0.11984800  0.74661400  0.64548200  1
  P  P5  1  0.24967900  0.46912500  0.00341900  1
  P  P6  1  0.75032100  0.53087500  0.99658100  1
  P  P7  1  0.88015200  0.25338600  0.35451800  1
  P  P8  1  0.60353700  0.96810000  0.64707500  1
  P  P9  1  0.10353700  0.03190000  0.85292500  1
  P  P10  1  0.38015200  0.74661400  0.14548200  1
  P  P11  1  0.25032100  0.46912500  0.50341900  1
  O  O0  1  0.15146700  0.63917500  0.43419500  1
  O  O1  1  0.09484300  0.19664200  0.86387200  1
  O  O2  1  0.33802800  0.47971700  0.58645200  1
  O  O3  1  0.41162900  0.90585000  0.15782200  1
  O  O4  1  0.64893000  0.54289400  0.57405200  1
  O  O5  1  0.78898900  0.30322300  0.83559300  1
  O  O6  1  0.57152800  0.19401500  0.96440400  1
  O  O7  1  0.99190200  0.91202100  0.24544200  1
  O  O8  1  0.73133700  0.98249700  0.17104100  1
  O  O9  1  0.84549700  0.70588100  0.43767900  1
  O  O10  1  0.96274400  0.14258100  0.05194200  1
  O  O11  1  0.52720900  0.42498700  0.77111000  1
  O  O12  1  0.02720900  0.57501300  0.72889000  1
  O  O13  1  0.46274400  0.85741900  0.44805800  1
  O  O14  1  0.34549700  0.29411900  0.06232100  1
  O  O15  1  0.23133700  0.01750300  0.32895900  1
  O  O16  1  0.07152800  0.80598500  0.53559600  1
  O  O17  1  0.28898900  0.69677700  0.66440700  1
  O  O18  1  0.49190200  0.08797900  0.25455800  1
  O  O19  1  0.14893000  0.45710600  0.92594800  1
  O  O20  1  0.83802800  0.52028300  0.91354800  1
  O  O21  1  0.59484300  0.80335800  0.63612800  1
  O  O22  1  0.91162900  0.09415000  0.34217800  1
  O  O23  1  0.65146700  0.36082500  0.06580500  1
  O  O24  1  0.34853300  0.63917500  0.93419500  1
  O  O25  1  0.08837100  0.90585000  0.65782200  1
  O  O26  1  0.40515700  0.19664200  0.36387200  1
  O  O27  1  0.16197200  0.47971700  0.08645200  1
  O  O28  1  0.85107000  0.54289400  0.07405200  1
  O  O29  1  0.50809800  0.91202100  0.74544200  1
  O  O30  1  0.71101100  0.30322300  0.33559300  1
  O  O31  1  0.92847200  0.19401500  0.46440400  1
  O  O32  1  0.76866300  0.98249700  0.67104100  1
  O  O33  1  0.65450300  0.70588100  0.93767900  1
  O  O34  1  0.53725600  0.14258100  0.55194200  1
  O  O35  1  0.97279100  0.42498700  0.27111000  1
  O  O36  1  0.47279100  0.57501300  0.22889000  1
  O  O37  1  0.03725600  0.85741900  0.94805800  1
  O  O38  1  0.15450300  0.29411900  0.56232100  1
  O  O39  1  0.26866300  0.01750300  0.82895900  1
  O  O40  1  0.00809800  0.08797900  0.75455800  1
  O  O41  1  0.42847200  0.80598500  0.03559600  1
  O  O42  1  0.21101100  0.69677700  0.16440700  1
  O  O43  1  0.35107000  0.45710600  0.42594800  1
  O  O44  1  0.58837100  0.09415000  0.84217800  1
  O  O45  1  0.66197200  0.52028300  0.41354800  1
  O  O46  1  0.90515700  0.80335800  0.13612800  1
  O  O47  1  0.84853300  0.36082500  0.56580500  1
loop_
_geom_bond_atom_site_label_1
_geom_bond_atom_site_label_2
_geom_bond_distance
_geom_bond_site_symmetry_2
Na0 O47 2.203574 1_555
Na0 O12 2.228010 1_655
Na0 O5 2.329327 1_555
Na0 O40 2.337239 1_655
Na0 O1 2.640161 1_655
Na1 O11 2.240718 1_555
Na1 O1 2.260853 1_555
Na1 O2 2.299179 1_555
Na1 O39 2.351668 1_555
Na1 O17 2.714044 1_555
Na2 O14 2.232788 1_555
Na2 O7 2.233100 1_445
Na2 O3 2.267342 1_545
Na2 O15 2.435186 1_555
Na2 O10 2.603319 1_455
Na3 O9 2.232788 1_555
Na3 O18 2.233100 1_565
Na3 O22 2.267342 1_565
Na3 O8 2.435186 1_555
Na3 O13 2.603319 1_555
Na4 O12 2.240718 1_655
Na4 O21 2.260853 1_555
Na4 O20 2.299179 1_555
Na4 O32 2.351668 1_555
Na4 O5 2.714044 1_555
Na5 O24 2.203574 1_555
Na5 O11 2.228010 1_555
Na5 O17 2.329327 1_555
Na5 O29 2.337239 1_555
Na5 O21 2.640161 1_555
Na6 O23 2.203574 1_555
Na6 O36 2.228010 1_555
Na6 O30 2.329327 1_555
Na6 O18 2.337239 1_555
Na6 O26 2.640161 1_555
Na7 O35 2.240718 1_455
Na7 O26 2.260853 1_555
Na7 O27 2.299179 1_555
Na7 O15 2.351668 1_555
Na7 O42 2.714044 1_555
Na8 O38 2.232788 1_555
Na8 O29 2.233100 1_545
Na8 O25 2.267342 1_545
Na8 O39 2.435186 1_555
Na8 O34 2.603319 1_555
Na9 O33 2.232788 1_555
Na9 O40 2.233100 1_665
Na9 O44 2.267342 1_565
Na9 O32 2.435186 1_555
Na9 O37 2.603319 1_655
Na10 O36 2.240718 1_555
Na10 O46 2.260853 1_555
Na10 O45 2.299179 1_555
Na10 O8 2.351668 1_555
Na10 O30 2.714044 1_555
Na11 O0 2.203574 1_555
Na11 O35 2.228010 1_455
Na11 O42 2.329327 1_555
Na11 O7 2.337239 1_455
Na11 O46 2.640161 1_455
O0 P11 1.541920 1_555
O0 V3 2.000173 1_555
O1 P9 1.565848 1_555
O1 V1 2.048018 1_455
O2 P11 1.553871 1_555
O2 V0 2.052543 1_555
O3 P10 1.555231 1_555
O3 V2 2.061122 1_565
O4 P0 1.553041 1_555
O4 V0 1.951704 1_555
O5 P1 1.567775 1_555
O5 V1 2.137353 1_555
O6 P1 1.526113 1_555
O6 V2 1.959370 1_556
O7 P2 1.560300 1_555
O7 V3 2.125960 1_655
O8 P2 1.556294 1_555
O8 V2 2.092958 1_565
O9 P0 1.541713 1_555
O9 V3 2.079071 1_655
O10 P2 1.524313 1_545
O10 V1 2.024991 1_554
O11 P1 1.562876 1_555
O11 V0 2.246728 1_555
O12 P4 1.562876 1_555
O12 V1 2.246728 1_455
O13 P3 1.524313 1_565
O13 V0 2.024991 1_555
O14 P5 1.541713 1_555
O14 V2 2.079071 1_555
O15 P3 1.556294 1_555
O15 V3 2.092958 1_545
O16 P4 1.526113 1_555
O16 V3 1.959370 1_555
O17 P4 1.567775 1_555
O17 V0 2.137353 1_555
O18 P3 1.560300 1_555
O18 V2 2.125960 1_555
O19 P5 1.553041 1_556
O19 V1 1.951704 1_455
O20 P6 1.553871 1_555
O20 V1 2.052543 1_555
O21 P8 1.565848 1_555
O21 V0 2.048018 1_555
O22 P7 1.555231 1_555
O22 V3 2.061122 1_645
O23 P6 1.541920 1_554
O23 V2 2.000173 1_555
O24 P5 1.541920 1_556
O24 V5 2.000173 1_555
O25 P4 1.555231 1_555
O25 V4 2.061122 1_465
O26 P3 1.565848 1_555
O26 V7 2.048018 1_555
O27 P5 1.553871 1_555
O27 V6 2.052543 1_555
O28 P6 1.553041 1_554
O28 V6 1.951704 1_655
O29 P8 1.560300 1_555
O29 V5 2.125960 1_555
O30 P7 1.567775 1_555
O30 V7 2.137353 1_555
O31 P7 1.526113 1_555
O31 V4 1.959370 1_555
O32 P8 1.556294 1_555
O32 V4 2.092958 1_565
O33 P6 1.541713 1_555
O33 V5 2.079071 1_555
O34 P8 1.524313 1_545
O34 V7 2.024991 1_555
O35 P7 1.562876 1_555
O35 V6 2.246728 1_655
O36 P10 1.562876 1_555
O36 V7 2.246728 1_555
O37 P9 1.524313 1_565
O37 V6 2.024991 1_556
O38 P11 1.541713 1_555
O38 V4 2.079071 1_455
O39 P9 1.556294 1_555
O39 V5 2.092958 1_545
O40 P9 1.560300 1_555
O40 V4 2.125960 1_455
O41 P10 1.526113 1_555
O41 V5 1.959370 1_554
O42 P10 1.567775 1_555
O42 V6 2.137353 1_555
O43 P11 1.553041 1_555
O43 V7 1.951704 1_555
O44 P1 1.555231 1_555
O44 V5 2.061122 1_545
O45 P0 1.553871 1_555
O45 V7 2.052543 1_555
O46 P2 1.565848 1_555
O46 V6 2.048018 1_655
O47 P0 1.541920 1_555
O47 V4 2.000173 1_555
