# generated using pymatgen
data_ScFeO3
_symmetry_space_group_name_H-M   'P 1'
_cell_length_a   5.10201200
_cell_length_b   5.42055000
_cell_length_c   7.67374500
_cell_angle_alpha   90.00000000
_cell_angle_beta   90.00000000
_cell_angle_gamma   90.00000000
_symmetry_Int_Tables_number   1
_chemical_formula_structural   ScFeO3
_chemical_formula_sum   'Sc4 Fe4 O12'
_cell_volume   212.22287513
_cell_formula_units_Z   4
loop_
 _symmetry_equiv_pos_site_id
 _symmetry_equiv_pos_as_xyz
  1  'x, y, z'
loop_
 _atom_site_type_symbol
 _atom_site_label
 _atom_site_symmetry_multiplicity
 _atom_site_fract_x
 _atom_site_fract_y
 _atom_site_fract_z
 _atom_site_occupancy
  Sc  Sc0  1  0.52527700  0.42995800  0.25000000  1
  Sc  Sc1  1  0.97472300  0.92995800  0.25000000  1
  Sc  Sc2  1  0.02527700  0.07004200  0.75000000  1
  Sc  Sc3  1  0.47472300  0.57004200  0.75000000  1
  Fe  Fe0  1  0.50000000  0.00000000  0.50000000  1
  Fe  Fe1  1  0.50000000  0.00000000  0.00000000  1
  Fe  Fe2  1  0.00000000  0.50000000  0.50000000  1
  Fe  Fe3  1  0.00000000  0.50000000  0.00000000  1
  O  O0  1  0.64621500  0.93619100  0.75000000  1
  O  O1  1  0.68483000  0.68752100  0.07503900  1
  O  O2  1  0.68483000  0.68752100  0.42496100  1
  O  O3  1  0.81517000  0.18752100  0.07503900  1
  O  O4  1  0.81517000  0.18752100  0.42496100  1
  O  O5  1  0.85378500  0.43619100  0.75000000  1
  O  O6  1  0.14621500  0.56380900  0.25000000  1
  O  O7  1  0.18483000  0.81247900  0.57503900  1
  O  O8  1  0.18483000  0.81247900  0.92496100  1
  O  O9  1  0.31517000  0.31247900  0.57503900  1
  O  O10  1  0.31517000  0.31247900  0.92496100  1
  O  O11  1  0.35378500  0.06380900  0.25000000  1
loop_
_geom_bond_atom_site_label_1
_geom_bond_atom_site_label_2
_geom_bond_distance
_geom_bond_site_symmetry_2
Fe0 O7 1.987575 1_545
Fe0 O4 1.987575 1_555
Fe0 O9 2.022331 1_555
Fe0 O2 2.022331 1_545
Fe0 O0 2.087231 1_545
Fe0 O11 2.087231 1_555
Fe1 O3 1.987575 1_555
Fe1 O8 1.987575 1_544
Fe1 O10 2.022331 1_554
Fe1 O1 2.022331 1_545
Fe1 O0 2.087231 1_544
Fe1 O11 2.087231 1_555
Fe2 O2 1.987575 1_455
Fe2 O9 1.987575 1_555
Fe2 O7 2.022331 1_555
Fe2 O4 2.022331 1_455
Fe2 O6 2.087231 1_555
Fe2 O5 2.087231 1_455
Fe3 O1 1.987575 1_455
Fe3 O10 1.987575 1_554
Fe3 O3 2.022331 1_455
Fe3 O8 2.022331 1_554
Fe3 O6 2.087231 1_555
Fe3 O5 2.087231 1_454
O0 Sc2 2.065597 1_665
O0 Sc3 2.169031 1_555
O1 Sc0 2.101057 1_555
O1 Sc1 2.391048 1_555
O1 Sc3 2.788547 1_554
O2 Sc0 2.101057 1_555
O2 Sc1 2.391048 1_555
O2 Sc3 2.788547 1_555
O3 Sc1 2.101057 1_545
O3 Sc0 2.391048 1_555
O3 Sc2 2.788547 1_654
O4 Sc1 2.101057 1_545
O4 Sc0 2.391048 1_555
O4 Sc2 2.788547 1_655
O5 Sc3 2.065597 1_555
O5 Sc2 2.169031 1_655
O6 Sc0 2.065597 1_555
O6 Sc1 2.169031 1_455
O7 Sc2 2.101057 1_565
O7 Sc3 2.391048 1_555
O7 Sc1 2.788547 1_455
O8 Sc2 2.101057 1_565
O8 Sc3 2.391048 1_555
O8 Sc1 2.788547 1_456
O9 Sc3 2.101057 1_555
O9 Sc2 2.391048 1_555
O9 Sc0 2.788547 1_555
O10 Sc3 2.101057 1_555
O10 Sc2 2.391048 1_555
O10 Sc0 2.788547 1_556
O11 Sc1 2.065597 1_445
O11 Sc0 2.169031 1_555
