# generated using pymatgen
data_TiCo3O8
_symmetry_space_group_name_H-M   'P 1'
_cell_length_a   5.75426525
_cell_length_b   5.75264486
_cell_length_c   10.74816575
_cell_angle_alpha   105.55666935
_cell_angle_beta   89.99506694
_cell_angle_gamma   59.99030074
_symmetry_Int_Tables_number   1
_chemical_formula_structural   TiCo3O8
_chemical_formula_sum   'Ti2 Co6 O16'
_cell_volume   292.93805435
_cell_formula_units_Z   2
loop_
 _symmetry_equiv_pos_site_id
 _symmetry_equiv_pos_as_xyz
  1  'x, y, z'
loop_
 _atom_site_type_symbol
 _atom_site_label
 _atom_site_symmetry_multiplicity
 _atom_site_fract_x
 _atom_site_fract_y
 _atom_site_fract_z
 _atom_site_occupancy
  Ti  Ti0  1  0.00000900  0.99999200  0.99999600  1
  Ti  Ti1  1  0.49999100  0.99998300  0.49998900  1
  Co  Co0  1  0.00002100  0.99996800  0.50001200  1
  Co  Co1  1  0.50000400  0.50000900  0.99999800  1
  Co  Co2  1  0.00001000  0.50001300  0.50000600  1
  Co  Co3  1  0.99998900  0.50000700  0.99999900  1
  Co  Co4  1  0.49997500  0.50001900  0.50000600  1
  Co  Co5  1  0.50000700  0.99998500  0.00000200  1
  O  O0  1  0.63573600  0.72860900  0.09283400  1
  O  O1  1  0.13561000  0.72861500  0.59286500  1
  O  O2  1  0.86438600  0.27139000  0.40712700  1
  O  O3  1  0.36426600  0.27139000  0.90715300  1
  O  O4  1  0.14168700  0.23523400  0.09343400  1
  O  O5  1  0.64225200  0.23506500  0.59290000  1
  O  O6  1  0.14248700  0.71491800  0.09289400  1
  O  O7  1  0.64252600  0.71494400  0.59292800  1
  O  O8  1  0.62263300  0.23505300  0.09287100  1
  O  O9  1  0.12301600  0.23525000  0.59346600  1
  O  O10  1  0.87697500  0.76475900  0.40654100  1
  O  O11  1  0.37736500  0.76495100  0.90712600  1
  O  O12  1  0.35747600  0.28505300  0.40708100  1
  O  O13  1  0.85751700  0.28507800  0.90710100  1
  O  O14  1  0.35774500  0.76494600  0.40711000  1
  O  O15  1  0.85831500  0.76476900  0.90656200  1
loop_
_geom_bond_atom_site_label_1
_geom_bond_atom_site_label_2
_geom_bond_distance
_geom_bond_site_symmetry_2
Co0 O14 1.885160 1_555
Co0 O5 1.885312 1_465
Co0 O10 1.889638 1_455
Co0 O9 1.889681 1_565
Co0 O1 1.912833 1_555
Co0 O2 1.913387 1_465
Co1 O13 1.884404 1_555
Co1 O6 1.884422 1_556
Co1 O11 1.886169 1_555
Co1 O8 1.886240 1_556
Co1 O0 1.912783 1_556
Co1 O3 1.912923 1_555
Co2 O12 1.884299 1_555
Co2 O7 1.884372 1_455
Co2 O10 1.890004 1_455
Co2 O9 1.890043 1_555
Co2 O1 1.912303 1_555
Co2 O2 1.912571 1_455
Co3 O13 1.884059 1_555
Co3 O6 1.884086 1_656
Co3 O15 1.889845 1_555
Co3 O4 1.889879 1_656
Co3 O0 1.912296 1_556
Co3 O3 1.912440 1_655
Co4 O12 1.884436 1_555
Co4 O7 1.884480 1_555
Co4 O14 1.886291 1_555
Co4 O5 1.886396 1_555
Co4 O1 1.912868 1_555
Co4 O2 1.913140 1_555
Co5 O11 1.885003 1_554
Co5 O8 1.885059 1_565
Co5 O15 1.889611 1_554
Co5 O4 1.889638 1_565
Co5 O0 1.912766 1_555
Co5 O3 1.913026 1_564
O4 Ti0 1.969591 1_544
O5 Ti1 1.969601 1_545
O6 Ti0 1.972825 1_554
O7 Ti1 1.972993 1_555
O8 Ti0 1.969478 1_644
O9 Ti1 1.969825 1_545
O10 Ti1 1.969762 1_555
O11 Ti0 1.969373 1_555
O12 Ti1 1.972886 1_545
O13 Ti0 1.972854 1_645
O14 Ti1 1.969228 1_555
O15 Ti0 1.969564 1_655
