# generated using pymatgen
data_FeOF
_symmetry_space_group_name_H-M   'P 1'
_cell_length_a   3.08760500
_cell_length_b   9.55447000
_cell_length_c   14.26229533
_cell_angle_alpha   89.68224277
_cell_angle_beta   90.00000000
_cell_angle_gamma   90.00000000
_symmetry_Int_Tables_number   1
_chemical_formula_structural   FeOF
_chemical_formula_sum   'Fe12 O12 F12'
_cell_volume   420.73736534
_cell_formula_units_Z   12
loop_
 _symmetry_equiv_pos_site_id
 _symmetry_equiv_pos_as_xyz
  1  'x, y, z'
loop_
 _atom_site_type_symbol
 _atom_site_label
 _atom_site_symmetry_multiplicity
 _atom_site_fract_x
 _atom_site_fract_y
 _atom_site_fract_z
 _atom_site_occupancy
  Fe  Fe0  1  0.00000000  0.99898100  0.98573300  1
  Fe  Fe1  1  0.00000000  0.50024900  0.99702800  1
  Fe  Fe2  1  0.50000000  0.21903000  0.82782900  1
  Fe  Fe3  1  0.50000000  0.74327200  0.84870500  1
  Fe  Fe4  1  0.00000000  0.00547300  0.65898700  1
  Fe  Fe5  1  0.00000000  0.49712000  0.65632700  1
  Fe  Fe6  1  0.50000000  0.74957500  0.52000200  1
  Fe  Fe7  1  0.50000000  0.25024000  0.51586800  1
  Fe  Fe8  1  0.00000000  0.99412900  0.32682400  1
  Fe  Fe9  1  0.00000000  0.49671600  0.32267500  1
  Fe  Fe10  1  0.50000000  0.27785200  0.15991300  1
  Fe  Fe11  1  0.50000000  0.75087500  0.18275300  1
  O  O0  1  0.50000000  0.89984400  0.93803200  1
  O  O1  1  0.00000000  0.15813000  0.90156300  1
  O  O2  1  0.00000000  0.64389700  0.90239000  1
  O  O3  1  0.50000000  0.09175000  0.72937500  1
  O  O4  1  0.50000000  0.40515400  0.60432800  1
  O  O5  1  0.50000000  0.90222300  0.60254800  1
  O  O6  1  0.00000000  0.15235000  0.55648000  1
  O  O7  1  0.00000000  0.65100700  0.56575100  1
  O  O8  1  0.50000000  0.40054800  0.26847500  1
  O  O9  1  0.50000000  0.91182600  0.26788600  1
  O  O10  1  0.00000000  0.65593000  0.23233300  1
  O  O11  1  0.00000000  0.35446400  0.09509300  1
  F  F0  1  0.50000000  0.40558300  0.93284000  1
  F  F1  1  0.00000000  0.35097400  0.77004900  1
  F  F2  1  0.00000000  0.83373200  0.77300900  1
  F  F3  1  0.50000000  0.59526200  0.73594500  1
  F  F4  1  0.00000000  0.35156800  0.43287900  1
  F  F5  1  0.00000000  0.85166000  0.43306500  1
  F  F6  1  0.50000000  0.10193100  0.39150700  1
  F  F7  1  0.50000000  0.59648600  0.39789300  1
  F  F8  1  0.00000000  0.15761800  0.22857900  1
  F  F9  1  0.00000000  0.84793500  0.10368800  1
  F  F10  1  0.50000000  0.09650600  0.06923100  1
  F  F11  1  0.50000000  0.60010500  0.06441600  1
loop_
_geom_bond_atom_site_label_1
_geom_bond_atom_site_label_2
_geom_bond_distance
_geom_bond_site_symmetry_2
Fe0 O1 1.932105 1_565
Fe0 O0 1.936623 1_455
Fe0 O0 1.936623 1_555
Fe1 O2 1.919634 1_555
Fe1 O11 1.968433 1_556
Fe2 O3 1.862671 1_555
Fe2 O1 1.954739 1_655
Fe2 O1 1.954739 1_555
Fe3 O2 1.965456 1_555
Fe3 O2 1.965456 1_655
Fe3 O0 1.970315 1_555
Fe4 O5 2.003312 1_445
Fe4 O5 2.003312 1_545
Fe4 O3 2.019859 1_455
Fe4 O3 2.019859 1_555
Fe4 O6 2.020887 1_555
Fe5 O4 1.926824 1_455
Fe5 O4 1.926824 1_555
Fe5 O7 1.951805 1_555
Fe6 O5 1.879417 1_555
Fe6 O7 1.920721 1_655
Fe6 O7 1.920721 1_555
Fe7 O6 1.894090 1_655
Fe7 O6 1.894090 1_555
Fe7 O4 1.950183 1_555
Fe8 O9 1.927593 1_555
Fe8 O9 1.927593 1_455
Fe9 O8 1.957809 1_555
Fe9 O8 1.957809 1_455
Fe9 O10 1.988094 1_555
Fe10 O11 1.940694 1_655
Fe10 O11 1.940694 1_555
Fe10 O8 1.947248 1_555
Fe11 O10 1.923319 1_655
Fe11 O10 1.923319 1_555
Fe11 O9 1.964639 1_555
F0 Fe1 2.012134 1_655
F0 Fe1 2.012134 1_555
F0 Fe2 2.334462 1_555
F1 Fe5 2.134325 1_555
F1 Fe2 2.154102 1_555
F1 Fe2 2.154102 1_455
F2 Fe3 2.070150 1_555
F2 Fe3 2.070150 1_455
F2 Fe4 2.303804 1_565
F3 Fe5 2.136317 1_555
F3 Fe5 2.136317 1_655
F3 Fe3 2.147423 1_555
F4 Fe9 2.090337 1_555
F4 Fe7 2.169987 1_455
F4 Fe7 2.169987 1_555
F5 Fe8 2.031252 1_555
F5 Fe6 2.204237 1_555
F5 Fe6 2.204237 1_455
F6 Fe8 2.075043 1_545
F6 Fe8 2.075043 1_645
F6 Fe7 2.276340 1_555
F7 Fe9 2.110501 1_655
F7 Fe9 2.110501 1_555
F7 Fe6 2.280507 1_555
F8 Fe8 2.092626 1_545
F8 Fe10 2.156298 1_555
F8 Fe10 2.156298 1_455
F9 Fe11 2.122100 1_455
F9 Fe11 2.122100 1_555
F9 Fe0 2.210420 1_554
F10 Fe0 2.163808 1_544
F10 Fe0 2.163808 1_644
F10 Fe10 2.167878 1_555
F11 Fe1 2.056083 1_654
F11 Fe1 2.056083 1_554
F11 Fe11 2.224997 1_555
