# generated using pymatgen
data_Li6Co3P8O29
_symmetry_space_group_name_H-M   'P 1'
_cell_length_a   9.87909900
_cell_length_b   9.89398777
_cell_length_c   13.93398876
_cell_angle_alpha   89.66145159
_cell_angle_beta   89.50295433
_cell_angle_gamma   60.44359319
_symmetry_Int_Tables_number   1
_chemical_formula_structural   Li6Co3P8O29
_chemical_formula_sum   'Li12 Co6 P16 O58'
_cell_volume   1184.68163738
_cell_formula_units_Z   2
loop_
 _symmetry_equiv_pos_site_id
 _symmetry_equiv_pos_as_xyz
  1  'x, y, z'
loop_
 _atom_site_type_symbol
 _atom_site_label
 _atom_site_symmetry_multiplicity
 _atom_site_fract_x
 _atom_site_fract_y
 _atom_site_fract_z
 _atom_site_occupancy
  Li  Li0  1  0.22681600  0.09330500  0.56207700  1
  Li  Li1  1  0.09173900  0.68311700  0.56522400  1
  Li  Li2  1  0.76676800  0.32608800  0.93650400  1
  Li  Li3  1  0.67381200  0.09330800  0.06509500  1
  Li  Li4  1  0.90971000  0.31836400  0.43394700  1
  Li  Li5  1  0.68253700  0.22638700  0.56059200  1
  Li  Li6  1  0.32443300  0.90908900  0.93506200  1
  Li  Li7  1  0.99989700  0.99687500  0.00087300  1
  Li  Li8  1  0.67010600  0.66923600  0.61975700  1
  Li  Li9  1  0.67509600  0.67097900  0.12142600  1
  Li  Li10  1  0.23086000  0.66940000  0.06011900  1
  Li  Li11  1  0.31487600  0.77330700  0.43699400  1
  Co  Co0  1  0.00215500  0.42966700  0.24592400  1
  Co  Co1  1  0.56858400  0.43191200  0.75019400  1
  Co  Co2  1  0.99602000  0.56716700  0.75912800  1
  Co  Co3  1  0.43515300  0.56392600  0.25159200  1
  Co  Co4  1  0.57239200  0.99622700  0.25654600  1
  Co  Co5  1  0.43434400  0.00119400  0.75450300  1
  P  P0  1  0.66635600  0.65949000  0.37191900  1
  P  P1  1  0.32984500  0.33368500  0.63112800  1
  P  P2  1  0.66266500  0.66631700  0.87462800  1
  P  P3  1  0.32251000  0.90298400  0.15922800  1
  P  P4  1  0.68578100  0.08726800  0.84524500  1
  P  P5  1  0.08955900  0.67533200  0.33928700  1
  P  P6  1  0.77121900  0.32385100  0.15800000  1
  P  P7  1  0.34154800  0.33347200  0.13084400  1
  P  P8  1  0.22925200  0.68224700  0.84002100  1
  P  P9  1  0.67545100  0.23523900  0.34118200  1
  P  P10  1  0.77375700  0.90847400  0.66105900  1
  P  P11  1  0.91057900  0.77873600  0.15795200  1
  P  P12  1  0.08381900  0.22296200  0.84070500  1
  P  P13  1  0.32762300  0.76805200  0.65678200  1
  P  P14  1  0.23248100  0.08746000  0.34062500  1
  P  P15  1  0.90948100  0.32418800  0.65448000  1
  O  O0  1  0.63000000  0.88500800  0.67423600  1
  O  O1  1  0.78586500  0.21844400  0.25047500  1
  O  O2  1  0.00036500  0.25179400  0.56327000  1
  O  O3  1  0.21544200  0.78819600  0.74756300  1
  O  O4  1  0.18323100  0.48532000  0.66463500  1
  O  O5  1  0.65138000  0.67134400  0.48172400  1
  O  O6  1  0.50852200  0.80879200  0.84078400  1
  O  O7  1  0.67125100  0.80243200  0.32978100  1
  O  O8  1  0.65860900  0.09038700  0.34229100  1
  O  O9  1  0.74775400  0.33376200  0.65483200  1
  O  O10  1  0.50809900  0.66908300  0.33825200  1
  O  O11  1  0.51357700  0.38344000  0.32276700  1
  O  O12  1  0.74736200  0.25615400  0.43127400  1
  O  O13  1  0.21485300  0.99447000  0.24955900  1
  O  O14  1  0.25020300  0.08145500  0.84068800  1
  O  O15  1  0.79639400  0.98936000  0.75610200  1
  O  O16  1  0.33751900  0.73716400  0.16195100  1
  O  O17  1  0.48426600  0.88792600  0.16736300  1
  O  O18  1  0.66716300  0.25201600  0.83695500  1
  O  O19  1  0.23321400  0.97426900  0.06691700  1
  O  O20  1  0.00582100  0.20921300  0.74123800  1
  O  O21  1  0.49479800  0.18996700  0.15869900  1
  O  O22  1  0.76594800  0.23695400  0.06960600  1
  O  O23  1  0.48223300  0.32873100  0.66197300  1
  O  O24  1  0.38112300  0.52706700  0.82776300  1
  O  O25  1  0.62615900  0.48729200  0.17108200  1
  O  O26  1  0.74458900  0.92344800  0.16086400  1
  O  O27  1  0.67201000  0.66223800  0.98450000  1
  O  O28  1  0.67871500  0.50935200  0.84038500  1
  O  O29  1  0.99101200  0.20874100  0.92290600  1
  O  O30  1  0.91987700  0.74607500  0.65709600  1
  O  O31  1  0.02074600  0.74734800  0.43632900  1
  O  O32  1  0.49226000  0.62839800  0.67449000  1
  O  O33  1  0.80300800  0.68099300  0.83388100  1
  O  O34  1  0.08511100  0.37793200  0.83322100  1
  O  O35  1  0.22584700  0.77135300  0.92974700  1
  O  O36  1  0.91572200  0.34490900  0.15898200  1
  O  O37  1  0.88506500  0.48890100  0.67463000  1
  O  O38  1  0.00729800  0.78923900  0.07691000  1
  O  O39  1  0.08366200  0.24625000  0.33963400  1
  O  O40  1  0.33098000  0.49077100  0.16176600  1
  O  O41  1  0.24596100  0.99611400  0.43108500  1
  O  O42  1  0.52815900  0.09102000  0.83015300  1
  O  O43  1  0.25296200  0.66437100  0.33821300  1
  O  O44  1  0.32051700  0.34767800  0.51939000  1
  O  O45  1  0.32531100  0.18638600  0.66297800  1
  O  O46  1  0.81085200  0.50739500  0.33951000  1
  O  O47  1  0.38064500  0.09999700  0.32107100  1
  O  O48  1  0.76698800  0.01411500  0.93794500  1
  O  O49  1  0.33789100  0.91929800  0.65618800  1
  O  O50  1  0.09799000  0.51881000  0.32059300  1
  O  O51  1  0.20073300  0.31898700  0.16782500  1
  O  O52  1  0.25119700  0.74970700  0.56802800  1
  O  O53  1  0.31714700  0.35404700  0.02037200  1
  O  O54  1  0.75643100  0.01000000  0.57556600  1
  O  O55  1  0.99084800  0.79400400  0.25628000  1
  O  O56  1  0.08500500  0.66179300  0.83656400  1
  O  O57  1  0.89506800  0.63151200  0.16499400  1
loop_
_geom_bond_atom_site_label_1
_geom_bond_atom_site_label_2
_geom_bond_distance
_geom_bond_site_symmetry_2
Li0 O2 2.000681 1_555
Li0 O49 2.005547 1_545
Li0 O41 2.031573 1_545
Li0 O45 2.166739 1_555
Li1 O31 1.920961 1_555
Li1 O30 1.959025 1_455
Li1 O52 1.985565 1_555
Li1 O4 2.193212 1_555
Li2 O29 1.936335 1_555
Li2 O18 2.043674 1_555
Li2 O22 2.050598 1_556
Li2 O28 2.067280 1_555
Li3 O48 1.968945 1_554
Li3 O26 1.981015 1_545
Li3 O21 2.012330 1_555
Li3 O22 2.032400 1_555
Li4 O2 1.978654 1_655
Li4 O12 1.981866 1_555
Li4 O39 1.987846 1_655
Li4 O46 2.091523 1_555
Li5 O54 1.901447 1_555
Li5 O12 1.975740 1_555
Li5 O9 1.993613 1_555
Li5 O23 2.219962 1_555
Li6 O14 1.982873 1_565
Li6 O19 2.003861 1_556
Li6 O35 2.030519 1_555
Li6 O6 2.052169 1_555
Li7 O38 2.275009 1_655
Li7 O29 2.318453 1_564
Li7 O19 2.394892 1_655
Li7 O48 2.395467 1_564
Li7 O35 2.453080 1_654
Li7 O22 2.544309 1_565
Li8 O5 1.932829 1_555
Li8 O0 2.114296 1_555
Li8 O32 2.122560 1_555
Li8 O37 2.133484 1_555
Li9 O27 1.911583 1_554
Li9 O57 2.103904 1_555
Li9 O17 2.138745 1_555
Li9 O25 2.204892 1_555
Li10 O38 1.936305 1_555
Li10 O35 2.061707 1_554
Li10 O16 2.075399 1_555
Li10 O40 2.092373 1_555
Li11 O41 1.961647 1_555
Li11 O52 1.975821 1_555
Li11 O43 2.028014 1_555
Li11 O10 2.151604 1_555
Co0 O50 1.899604 1_555
Co0 O36 1.906921 1_455
Co0 O51 2.022278 1_555
Co0 O39 2.048225 1_555
Co0 O57 2.070948 1_455
Co0 O46 2.097344 1_455
Co1 O24 1.934289 1_555
Co1 O18 1.965412 1_555
Co1 O32 2.000989 1_555
Co1 O9 2.029869 1_555
Co1 O23 2.042843 1_555
Co1 O28 2.051252 1_555
Co2 O56 1.911522 1_655
Co2 O34 1.926961 1_655
Co2 O33 1.962127 1_555
Co2 O37 2.014441 1_555
Co2 O4 2.074299 1_655
Co2 O30 2.096568 1_555
Co3 O11 1.843944 1_555
Co3 O16 1.947540 1_555
Co3 O10 1.956922 1_555
Co3 O43 1.973780 1_555
Co3 O40 1.979271 1_555
Co3 O25 1.988933 1_555
Co4 O47 1.874416 1_565
Co4 O7 1.954052 1_555
Co4 O8 1.958189 1_565
Co4 O26 1.988324 1_555
Co4 O17 2.098861 1_555
Co4 O21 2.158341 1_565
Co5 O42 1.897526 1_555
Co5 O14 1.982486 1_555
Co5 O0 2.023380 1_545
Co5 O45 2.047690 1_555
Co5 O6 2.053816 1_545
Co5 O49 2.058803 1_545
O0 P10 1.557185 1_555
O1 P6 1.614745 1_555
O1 P9 1.616987 1_555
O2 P15 1.513576 1_455
O3 P8 1.619628 1_555
O3 P13 1.621344 1_555
O4 P1 1.555455 1_555
O5 P0 1.535475 1_555
O6 P2 1.554106 1_555
O7 P0 1.550613 1_555
O8 P9 1.522112 1_555
O9 P15 1.553144 1_555
O10 P0 1.593491 1_555
O11 P9 1.569249 1_555
O12 P9 1.512272 1_555
O13 P3 1.604745 1_555
O13 P14 1.631761 1_565
O14 P12 1.546486 1_555
O15 P4 1.619165 1_565
O15 P10 1.624359 1_555
O16 P3 1.573032 1_555
O17 P3 1.535163 1_555
O18 P4 1.551286 1_555
O19 P3 1.524881 1_555
O20 P15 1.611480 1_455
O20 P12 1.630135 1_555
O21 P7 1.530253 1_555
O22 P6 1.522080 1_555
O23 P1 1.546513 1_555
O24 P8 1.537390 1_555
O25 P6 1.553888 1_555
O26 P11 1.556886 1_555
O27 P2 1.533630 1_555
O28 P2 1.558574 1_555
O29 P12 1.509791 1_655
O30 P10 1.542714 1_555
O31 P5 1.521774 1_555
O32 P13 1.549599 1_555
O33 P2 1.565153 1_555
O34 P12 1.542515 1_555
O35 P8 1.524636 1_555
O36 P6 1.541209 1_555
O37 P15 1.552179 1_555
O38 P11 1.508908 1_455
O39 P14 1.533389 1_555
O40 P7 1.570193 1_555
O41 P14 1.514608 1_565
O42 P4 1.555287 1_555
O43 P5 1.563571 1_555
O44 P1 1.561770 1_555
O45 P1 1.542503 1_555
O46 P0 1.543941 1_555
O47 P14 1.550459 1_555
O48 P4 1.506646 1_555
O49 P13 1.548949 1_555
O50 P5 1.533027 1_555
O51 P7 1.550701 1_555
O52 P13 1.512108 1_555
O53 P7 1.556716 1_555
O54 P10 1.509033 1_545
O55 P5 1.594131 1_655
O55 P11 1.633493 1_555
O56 P8 1.536165 1_555
O57 P11 1.540501 1_555
