# generated using pymatgen
data_Li2VBO4
_symmetry_space_group_name_H-M   'P 1'
_cell_length_a   5.17383200
_cell_length_b   6.71568100
_cell_length_c   10.68890767
_cell_angle_alpha   82.79049274
_cell_angle_beta   90.00000000
_cell_angle_gamma   90.00000000
_symmetry_Int_Tables_number   1
_chemical_formula_structural   Li2VBO4
_chemical_formula_sum   'Li8 V4 B4 O16'
_cell_volume   368.45841729
_cell_formula_units_Z   4
loop_
 _symmetry_equiv_pos_site_id
 _symmetry_equiv_pos_as_xyz
  1  'x, y, z'
loop_
 _atom_site_type_symbol
 _atom_site_label
 _atom_site_symmetry_multiplicity
 _atom_site_fract_x
 _atom_site_fract_y
 _atom_site_fract_z
 _atom_site_occupancy
  Li  Li0  1  0.64768800  0.89196200  0.79497400  1
  Li  Li1  1  0.85231200  0.89196200  0.29497400  1
  Li  Li2  1  0.82250900  0.79041500  0.57553600  1
  Li  Li3  1  0.67749100  0.79041500  0.07553600  1
  Li  Li4  1  0.32250900  0.20958500  0.92446400  1
  Li  Li5  1  0.17749100  0.20958500  0.42446400  1
  Li  Li6  1  0.14768800  0.10803800  0.70502600  1
  Li  Li7  1  0.35231200  0.10803800  0.20502600  1
  V  V0  1  0.86806100  0.49036100  0.85334600  1
  V  V1  1  0.36806100  0.50963900  0.64665400  1
  V  V2  1  0.63193900  0.49036100  0.35334600  1
  V  V3  1  0.13193900  0.50963900  0.14665400  1
  B  B0  1  0.18655000  0.80757300  0.93899600  1
  B  B1  1  0.31345000  0.80757300  0.43899600  1
  B  B2  1  0.68655000  0.19242700  0.56100400  1
  B  B3  1  0.81345000  0.19242700  0.06100400  1
  O  O0  1  0.29616500  0.94953800  0.85416000  1
  O  O1  1  0.20383500  0.94953800  0.35416000  1
  O  O2  1  0.92457900  0.74443200  0.93080300  1
  O  O3  1  0.57542100  0.74443200  0.43080300  1
  O  O4  1  0.17378800  0.71475400  0.54221300  1
  O  O5  1  0.65556900  0.62107900  0.72062600  1
  O  O6  1  0.32621200  0.71475400  0.04221300  1
  O  O7  1  0.84443100  0.62107900  0.22062600  1
  O  O8  1  0.15556900  0.37892100  0.77937400  1
  O  O9  1  0.67378800  0.28524600  0.95778700  1
  O  O10  1  0.34443100  0.37892100  0.27937400  1
  O  O11  1  0.82621200  0.28524600  0.45778700  1
  O  O12  1  0.42457900  0.25556800  0.56919700  1
  O  O13  1  0.07542100  0.25556800  0.06919700  1
  O  O14  1  0.79616500  0.05046200  0.64584000  1
  O  O15  1  0.70383500  0.05046200  0.14584000  1
loop_
_geom_bond_atom_site_label_1
_geom_bond_atom_site_label_2
_geom_bond_distance
_geom_bond_site_symmetry_2
Li0 O14 1.959170 1_565
Li0 O0 1.979615 1_555
Li0 O5 2.074952 1_555
Li0 O2 2.186500 1_555
Li1 O15 1.959170 1_565
Li1 O1 1.979615 1_655
Li1 O7 2.074952 1_555
Li1 O3 2.186500 1_555
Li2 O4 1.932261 1_655
Li2 O14 1.990622 1_565
Li2 O5 2.000433 1_555
Li2 O3 2.059826 1_555
Li3 O6 1.932261 1_555
Li3 O15 1.990622 1_565
Li3 O7 2.000433 1_555
Li3 O2 2.059826 1_554
Li4 O9 1.932261 1_555
Li4 O0 1.990622 1_545
Li4 O8 2.000433 1_555
Li4 O13 2.059826 1_556
Li5 O11 1.932261 1_455
Li5 O1 1.990622 1_545
Li5 O10 2.000433 1_555
Li5 O12 2.059826 1_555
Li6 O0 1.959170 1_545
Li6 O14 1.979615 1_455
Li6 O8 2.074952 1_555
Li6 O12 2.186500 1_555
Li7 O1 1.959170 1_545
Li7 O15 1.979615 1_555
Li7 O10 2.074952 1_555
Li7 O13 2.186500 1_555
B0 O0 1.354950 1_555
B0 O6 1.398319 1_556
B0 O2 1.426144 1_455
B1 O1 1.354950 1_555
B1 O4 1.398319 1_555
B1 O3 1.426144 1_555
B2 O14 1.354950 1_555
B2 O11 1.398319 1_555
B2 O12 1.426144 1_555
B3 O15 1.354950 1_555
B3 O9 1.398319 1_554
B3 O13 1.426144 1_655
O2 V0 2.009197 1_555
O3 V2 2.009197 1_555
O4 V1 1.941148 1_555
O5 V1 1.883217 1_555
O5 V0 1.918137 1_555
O6 V3 1.941148 1_555
O7 V3 1.883217 1_655
O7 V2 1.918137 1_555
O8 V0 1.883217 1_455
O8 V1 1.918137 1_555
O9 V0 1.941148 1_555
O10 V2 1.883217 1_555
O10 V3 1.918137 1_555
O11 V2 1.941148 1_555
O12 V1 2.009197 1_555
O13 V3 2.009197 1_555
