# generated using pymatgen
data_Li3VF8
_symmetry_space_group_name_H-M   'P 1'
_cell_length_a   5.29135255
_cell_length_b   5.29135255
_cell_length_c   6.31789400
_cell_angle_alpha   90.00000000
_cell_angle_beta   90.00000000
_cell_angle_gamma   112.58405479
_symmetry_Int_Tables_number   1
_chemical_formula_structural   Li3VF8
_chemical_formula_sum   'Li3 V1 F8'
_cell_volume   163.32648839
_cell_formula_units_Z   1
loop_
 _symmetry_equiv_pos_site_id
 _symmetry_equiv_pos_as_xyz
  1  'x, y, z'
loop_
 _atom_site_type_symbol
 _atom_site_label
 _atom_site_symmetry_multiplicity
 _atom_site_fract_x
 _atom_site_fract_y
 _atom_site_fract_z
 _atom_site_occupancy
  Li  Li0  1  0.00000000  0.50000000  0.15993700  1
  Li  Li1  1  0.50000000  0.50000000  0.00000000  1
  Li  Li2  1  0.50000000  0.00000000  0.84006300  1
  V  V0  1  0.50000000  0.50000000  0.50000000  1
  F  F0  1  0.29515400  0.70484600  0.50000000  1
  F  F1  1  0.29369700  0.70630300  0.00000000  1
  F  F2  1  0.29828900  0.26826100  0.70695900  1
  F  F3  1  0.26826100  0.29828900  0.29304100  1
  F  F4  1  0.73173900  0.70171100  0.29304100  1
  F  F5  1  0.70171100  0.73173900  0.70695900  1
  F  F6  1  0.70630300  0.29369700  0.00000000  1
  F  F7  1  0.70484600  0.29515400  0.50000000  1
loop_
_geom_bond_atom_site_label_1
_geom_bond_atom_site_label_2
_geom_bond_distance
_geom_bond_site_symmetry_2
F0 V0 1.803363 1_555
F1 Li1 1.816190 1_555
F1 Li0 1.823394 1_555
F1 Li2 1.823394 1_564
F2 V0 1.829541 1_555
F2 Li2 2.241627 1_555
F2 Li1 2.250608 1_556
F3 V0 1.829541 1_555
F3 Li0 2.241627 1_555
F3 Li1 2.250608 1_555
F4 V0 1.829541 1_555
F4 Li0 2.241627 1_655
F4 Li1 2.250608 1_555
F5 V0 1.829541 1_555
F5 Li2 2.241627 1_565
F5 Li1 2.250608 1_556
F6 Li1 1.816190 1_555
F6 Li2 1.823394 1_554
F6 Li0 1.823394 1_655
F7 V0 1.803363 1_555
