# generated using pymatgen
data_LiSn(PO3)4
_symmetry_space_group_name_H-M   'P 1'
_cell_length_a   8.94282440
_cell_length_b   8.94282440
_cell_length_c   9.61845721
_cell_angle_alpha   57.59745884
_cell_angle_beta   57.59745884
_cell_angle_gamma   47.21241616
_symmetry_Int_Tables_number   1
_chemical_formula_structural   LiSn(PO3)4
_chemical_formula_sum   'Li2 Sn2 P8 O24'
_cell_volume   457.92437707
_cell_formula_units_Z   2
loop_
 _symmetry_equiv_pos_site_id
 _symmetry_equiv_pos_as_xyz
  1  'x, y, z'
loop_
 _atom_site_type_symbol
 _atom_site_label
 _atom_site_symmetry_multiplicity
 _atom_site_fract_x
 _atom_site_fract_y
 _atom_site_fract_z
 _atom_site_occupancy
  Li  Li0  1  0.70423400  0.29576600  0.75000000  1
  Li  Li1  1  0.29576600  0.70423400  0.25000000  1
  Sn  Sn0  1  0.19411200  0.80588800  0.75000000  1
  Sn  Sn1  1  0.80588800  0.19411200  0.25000000  1
  P  P0  1  0.00553700  0.70531800  0.19090000  1
  P  P1  1  0.41608700  0.30930900  0.11776300  1
  P  P2  1  0.69069100  0.58391300  0.38223700  1
  P  P3  1  0.29468200  0.99446300  0.30910000  1
  P  P4  1  0.70531800  0.00553700  0.69090000  1
  P  P5  1  0.30930900  0.41608700  0.61776300  1
  P  P6  1  0.58391300  0.69069100  0.88223700  1
  P  P7  1  0.99446300  0.29468200  0.80910000  1
  O  O0  1  0.60064400  0.16917300  0.19007500  1
  O  O1  1  0.21689100  0.47348400  0.23044500  1
  O  O2  1  0.98612000  0.76084800  0.02032800  1
  O  O3  1  0.82382400  0.67022500  0.34450300  1
  O  O4  1  0.98250800  0.15557200  0.77800500  1
  O  O5  1  0.32977500  0.17617600  0.15549700  1
  O  O6  1  0.23915200  0.01388000  0.47967200  1
  O  O7  1  0.57911900  0.55310700  0.57112100  1
  O  O8  1  0.44689300  0.42088100  0.92887900  1
  O  O9  1  0.52651600  0.78310900  0.26955500  1
  O  O10  1  0.83082700  0.39935600  0.30992500  1
  O  O11  1  0.84442800  0.01749200  0.72199500  1
  O  O12  1  0.15557200  0.98250800  0.27800500  1
  O  O13  1  0.16917300  0.60064400  0.69007500  1
  O  O14  1  0.47348400  0.21689100  0.73044500  1
  O  O15  1  0.55310700  0.57911900  0.07112100  1
  O  O16  1  0.42088100  0.44689300  0.42887900  1
  O  O17  1  0.76084800  0.98612000  0.52032800  1
  O  O18  1  0.67022500  0.82382400  0.84450300  1
  O  O19  1  0.01749200  0.84442800  0.22199500  1
  O  O20  1  0.17617600  0.32977500  0.65549700  1
  O  O21  1  0.01388000  0.23915200  0.97967200  1
  O  O22  1  0.78310900  0.52651600  0.76955500  1
  O  O23  1  0.39935600  0.83082700  0.80992500  1
loop_
_geom_bond_atom_site_label_1
_geom_bond_atom_site_label_2
_geom_bond_distance
_geom_bond_site_symmetry_2
Li0 O8 1.956972 1_555
Li0 O7 1.956972 1_555
Li0 O4 1.988741 1_555
Li0 O11 1.988741 1_555
Li1 O16 1.956972 1_555
Li1 O15 1.956972 1_555
Li1 O19 1.988741 1_555
Li1 O12 1.988741 1_555
O0 P1 1.504798 1_555
O0 Sn1 2.361906 1_555
O1 P1 1.608286 1_555
O1 P0 1.617752 1_555
O2 P0 1.511110 1_655
O2 Sn0 2.257176 1_654
O3 P0 1.595258 1_655
O3 P2 1.621775 1_555
O4 P7 1.504072 1_555
O4 Sn0 2.397836 1_645
O5 P3 1.595258 1_545
O5 P1 1.621775 1_555
O6 P3 1.511110 1_545
O6 Sn0 2.257176 1_545
O7 P2 1.505454 1_555
O7 Sn0 2.677788 1_555
O8 P1 1.505454 1_556
O8 Sn0 2.677788 1_555
O9 P2 1.608286 1_555
O9 P3 1.617752 1_555
O10 P2 1.504798 1_555
O10 Sn1 2.361906 1_555
O11 P4 1.504072 1_555
O11 Sn0 2.397836 1_645
O12 P3 1.504072 1_555
O12 Sn1 2.397836 1_465
O13 P5 1.504798 1_555
O13 Sn0 2.361906 1_555
O14 P5 1.608286 1_555
O14 P4 1.617752 1_555
O15 P6 1.505454 1_554
O15 Sn1 2.677788 1_555
O16 P5 1.505454 1_555
O16 Sn1 2.677788 1_555
O17 P4 1.511110 1_565
O17 Sn1 2.257176 1_565
O18 P4 1.595258 1_565
O18 P6 1.621775 1_555
O19 P0 1.504072 1_555
O19 Sn1 2.397836 1_465
O20 P7 1.595258 1_455
O20 P5 1.621775 1_555
O21 P7 1.511110 1_455
O21 Sn1 2.257176 1_456
O22 P6 1.608286 1_555
O22 P7 1.617752 1_555
O23 P6 1.504798 1_555
O23 Sn0 2.361906 1_555
