# generated using pymatgen
data_Li4FeO3F
_symmetry_space_group_name_H-M   'P 1'
_cell_length_a   7.82918192
_cell_length_b   5.28221811
_cell_length_c   5.35723775
_cell_angle_alpha   66.74736077
_cell_angle_beta   70.40742858
_cell_angle_gamma   83.30447453
_symmetry_Int_Tables_number   1
_chemical_formula_structural   Li4FeO3F
_chemical_formula_sum   'Li8 Fe2 O6 F2'
_cell_volume   191.73748716
_cell_formula_units_Z   2
loop_
 _symmetry_equiv_pos_site_id
 _symmetry_equiv_pos_as_xyz
  1  'x, y, z'
loop_
 _atom_site_type_symbol
 _atom_site_label
 _atom_site_symmetry_multiplicity
 _atom_site_fract_x
 _atom_site_fract_y
 _atom_site_fract_z
 _atom_site_occupancy
  Li  Li0  1  0.07843100  0.23938200  0.97102600  1
  Li  Li1  1  0.08309700  0.74333800  0.41073500  1
  Li  Li2  1  0.28512200  0.78359500  0.89086500  1
  Li  Li3  1  0.49575000  0.25330100  0.76241400  1
  Li  Li4  1  0.49964800  0.76229100  0.26343100  1
  Li  Li5  1  0.72084700  0.21511600  0.09246700  1
  Li  Li6  1  0.91825400  0.25626200  0.59848200  1
  Li  Li7  1  0.94813800  0.73966900  0.98141800  1
  Fe  Fe0  1  0.26200700  0.21915500  0.33289000  1
  Fe  Fe1  1  0.71100300  0.76498500  0.69517200  1
  O  O0  1  0.12119400  0.02903100  0.70455300  1
  O  O1  1  0.10338900  0.49316500  0.20090000  1
  O  O2  1  0.30238300  0.99794000  0.12255000  1
  O  O3  1  0.50807500  0.65718300  0.66068500  1
  O  O4  1  0.69342800  0.00193700  0.88481600  1
  O  O5  1  0.88969000  0.51123900  0.79780800  1
  F  F0  1  0.50091200  0.34253200  0.33007900  1
  F  F1  1  0.87863400  0.98987900  0.29971100  1
loop_
_geom_bond_atom_site_label_1
_geom_bond_atom_site_label_2
_geom_bond_distance
_geom_bond_site_symmetry_2
Li0 O0 2.056631 1_555
Li0 O5 2.116476 1_455
Li0 O1 2.208557 1_556
Li0 O2 2.230564 1_546
Li1 O1 2.009823 1_555
Li1 O2 2.064243 1_555
Li1 O5 2.101349 1_455
Li2 O0 1.942574 1_565
Li2 O3 1.986996 1_555
Li2 O1 2.012170 1_556
Li2 O2 2.024473 1_556
Li3 O3 1.988067 1_555
Li3 O4 2.025382 1_555
Li3 O2 2.072727 1_546
Li4 O3 1.998614 1_555
Li4 O2 2.023847 1_555
Li4 O4 2.091647 1_564
Li5 O4 1.938349 1_554
Li5 O5 1.954243 1_554
Li6 O5 1.977234 1_555
Li6 O0 1.977452 1_655
Li6 O4 2.090348 1_555
Li6 O1 2.109853 1_655
Li7 O0 1.927964 1_665
Li7 O1 1.983932 1_656
Li7 O5 2.000157 1_555
Li7 O4 2.376047 1_565
Fe0 O0 1.842714 1_555
Fe0 O2 1.857343 1_545
Fe0 O1 1.870505 1_555
Fe1 O3 1.836692 1_555
Fe1 O4 1.867573 1_565
Fe1 O5 1.884863 1_555
F0 Li5 1.993627 1_555
F0 Fe0 2.044765 1_555
F0 Li4 2.101426 1_555
F0 Li3 2.160537 1_555
F1 Li5 1.925719 1_565
F1 Li0 2.021265 1_664
F1 Fe1 2.033144 1_555
F1 Li1 2.037902 1_655
F1 Li7 2.437200 1_554
