# generated using pymatgen
data_LiFe5O5F
_symmetry_space_group_name_H-M   'P 1'
_cell_length_a   3.47833231
_cell_length_b   3.49963405
_cell_length_c   13.12349109
_cell_angle_alpha   90.00000380
_cell_angle_beta   89.98636001
_cell_angle_gamma   120.20280008
_symmetry_Int_Tables_number   1
_chemical_formula_structural   LiFe5O5F
_chemical_formula_sum   'Li1 Fe5 O5 F1'
_cell_volume   138.06467196
_cell_formula_units_Z   1
loop_
 _symmetry_equiv_pos_site_id
 _symmetry_equiv_pos_as_xyz
  1  'x, y, z'
loop_
 _atom_site_type_symbol
 _atom_site_label
 _atom_site_symmetry_multiplicity
 _atom_site_fract_x
 _atom_site_fract_y
 _atom_site_fract_z
 _atom_site_occupancy
  Li  Li0  1  0.33766900  0.66888400  0.98161200  1
  Fe  Fe0  1  0.32485600  0.66247800  0.30727400  1
  Fe  Fe1  1  0.32787600  0.66398900  0.65394800  1
  Fe  Fe2  1  0.66849700  0.33429900  0.48055700  1
  Fe  Fe3  1  0.66694100  0.33352000  0.15794600  1
  Fe  Fe4  1  0.67210000  0.33610000  0.80288600  1
  O  O0  1  0.33684900  0.66847400  0.47929100  1
  O  O1  1  0.34312300  0.67161100  0.82045400  1
  O  O2  1  0.33816200  0.66913100  0.13956600  1
  O  O3  1  0.65523600  0.32766800  0.31760400  1
  O  O4  1  0.65847500  0.32928800  0.64232800  1
  F  F0  1  0.67021600  0.33515800  0.97956800  1
loop_
_geom_bond_atom_site_label_1
_geom_bond_atom_site_label_2
_geom_bond_distance
_geom_bond_site_symmetry_2
Li0 O2 2.072909 1_556
Li0 O1 2.115015 1_555
Fe0 O3 2.016606 1_565
Fe0 O3 2.016607 1_555
Fe0 O3 2.017500 1_455
Fe0 O2 2.201267 1_555
Fe0 O0 2.257761 1_555
Fe1 O4 2.018099 1_565
Fe1 O4 2.018102 1_555
Fe1 O4 2.018131 1_455
Fe1 O1 2.185633 1_555
Fe1 O0 2.292261 1_555
Fe2 O0 2.009230 1_655
Fe2 O0 2.013978 1_555
Fe2 O0 2.013984 1_545
Fe2 O4 2.123206 1_555
Fe2 O3 2.138895 1_555
Fe3 O2 2.024110 1_545
Fe3 O2 2.024113 1_555
Fe3 O2 2.032091 1_655
Fe3 O3 2.095556 1_555
Fe4 O1 2.023095 1_555
Fe4 O1 2.023098 1_545
Fe4 O1 2.030391 1_655
Fe4 O4 2.107491 1_555
F0 Li0 2.006650 1_655
F0 Li0 2.015423 1_555
F0 Li0 2.015426 1_545
F0 Fe4 2.318690 1_555
F0 Fe3 2.340960 1_556
