# generated using pymatgen
data_PmTl3
_symmetry_space_group_name_H-M   'P 1'
_cell_length_a   4.77538698
_cell_length_b   4.77538698
_cell_length_c   4.77538698
_cell_angle_alpha   90.00000000
_cell_angle_beta   90.00000000
_cell_angle_gamma   90.00000000
_symmetry_Int_Tables_number   1
_chemical_formula_structural   PmTl3
_chemical_formula_sum   'Pm1 Tl3'
_cell_volume   108.89945668
_cell_formula_units_Z   1
loop_
 _symmetry_equiv_pos_site_id
 _symmetry_equiv_pos_as_xyz
  1  'x, y, z'
loop_
 _atom_site_type_symbol
 _atom_site_label
 _atom_site_symmetry_multiplicity
 _atom_site_fract_x
 _atom_site_fract_y
 _atom_site_fract_z
 _atom_site_occupancy
  Pm  Pm0  1  -0.00000000  -0.00000000  -0.00000000  1
  Tl  Tl0  1  0.50000200  0.50000200  -0.00000000  1
  Tl  Tl1  1  0.50000200  -0.00000000  0.50000200  1
  Tl  Tl2  1  -0.00000000  0.50000200  0.50000200  1
loop_
_geom_bond_atom_site_label_1
_geom_bond_atom_site_label_2
_geom_bond_distance
_geom_bond_site_symmetry_2
Pm0 Tl1 3.376695 1_454
Pm0 Tl0 3.376695 1_445
Pm0 Tl2 3.376695 1_544
Pm0 Tl1 3.376709 1_554
Pm0 Tl0 3.376709 1_545
Pm0 Tl2 3.376709 1_554
Pm0 Tl1 3.376709 1_455
Pm0 Tl2 3.376709 1_545
Pm0 Tl0 3.376709 1_455
Pm0 Tl2 3.376722 1_555
Pm0 Tl0 3.376722 1_555
Pm0 Tl1 3.376722 1_555
Tl0 Tl1 3.376695 1_564
Tl0 Tl2 3.376695 1_654
Tl0 Tl1 3.376709 1_554
Tl0 Tl2 3.376709 1_554
Tl0 Tl2 3.376709 1_655
Tl0 Tl1 3.376709 1_565
Tl0 Tl2 3.376722 1_555
Tl0 Tl1 3.376722 1_555
Tl1 Tl2 3.376695 1_645
Tl1 Tl2 3.376709 1_545
Tl1 Tl2 3.376709 1_655
Tl1 Tl2 3.376722 1_555
