# generated using pymatgen
data_LiCr(SO4)2
_symmetry_space_group_name_H-M   'P 1'
_cell_length_a   8.31777000
_cell_length_b   8.34177257
_cell_length_c   8.87790699
_cell_angle_alpha   62.14691753
_cell_angle_beta   62.37246231
_cell_angle_gamma   60.16266302
_symmetry_Int_Tables_number   1
_chemical_formula_structural   LiCr(SO4)2
_chemical_formula_sum   'Li3 Cr3 S6 O24'
_cell_volume   450.44328051
_cell_formula_units_Z   3
loop_
 _symmetry_equiv_pos_site_id
 _symmetry_equiv_pos_as_xyz
  1  'x, y, z'
loop_
 _atom_site_type_symbol
 _atom_site_label
 _atom_site_symmetry_multiplicity
 _atom_site_fract_x
 _atom_site_fract_y
 _atom_site_fract_z
 _atom_site_occupancy
  Li  Li0  1  0.35758500  0.35064900  0.93626600  1
  Li  Li1  1  0.17759800  0.76153900  0.62927200  1
  Li  Li2  1  0.76058100  0.43163100  0.62866300  1
  Cr  Cr0  1  0.16080400  0.15641800  0.53639400  1
  Cr  Cr1  1  0.64231600  0.64461200  0.06896200  1
  Cr  Cr2  1  0.84665500  0.85397000  0.45051800  1
  S  S0  1  0.04264800  0.45956100  0.74971600  1
  S  S1  1  0.45608600  0.75590700  0.74753100  1
  S  S2  1  0.75349200  0.04150000  0.74494800  1
  S  S3  1  0.25237200  0.95895200  0.24587500  1
  S  S4  1  0.54184800  0.25510500  0.24595400  1
  S  S5  1  0.95897000  0.54456000  0.24572500  1
  O  O0  1  0.10748600  0.51096400  0.08422600  1
  O  O1  1  0.29874500  0.10820600  0.08539600  1
  O  O2  1  0.00375000  0.33807900  0.69567500  1
  O  O3  1  0.51538300  0.29982800  0.07972300  1
  O  O4  1  0.02355800  0.65822900  0.60626400  1
  O  O5  1  0.23604300  0.37600100  0.76282100  1
  O  O6  1  0.37012800  0.63453600  0.75513900  1
  O  O7  1  0.33467600  0.96495100  0.69749300  1
  O  O8  1  0.64056600  0.23904700  0.75544700  1
  O  O9  1  0.04626300  0.98081800  0.29642600  1
  O  O10  1  0.27901500  0.96245600  0.40512400  1
  O  O11  1  0.35073500  0.28634500  0.39505700  1
  O  O12  1  0.65508600  0.71378400  0.60679500  1
  O  O13  1  0.71801600  0.02534400  0.60298000  1
  O  O14  1  0.96831200  0.00092300  0.69759600  1
  O  O15  1  0.38151700  0.75739700  0.23585500  1
  O  O16  1  0.67411800  0.04806700  0.29795000  1
  O  O17  1  0.62645500  0.38351400  0.23567300  1
  O  O18  1  0.75664000  0.62505300  0.23629600  1
  O  O19  1  0.96524500  0.35538400  0.40393600  1
  O  O20  1  0.48326200  0.70179600  0.91979600  1
  O  O21  1  0.97872100  0.67845400  0.29775000  1
  O  O22  1  0.70195200  0.89528500  0.91776800  1
  O  O23  1  0.88787100  0.48743400  0.91819000  1
loop_
_geom_bond_atom_site_label_1
_geom_bond_atom_site_label_2
_geom_bond_distance
_geom_bond_site_symmetry_2
Li0 O1 1.991112 1_556
Li0 O3 2.004157 1_556
Li0 O0 2.044563 1_556
Li0 O5 2.089152 1_555
Li0 O8 2.166913 1_555
Li0 O6 2.176384 1_555
Li1 O6 1.949565 1_555
Li1 O4 1.982931 1_555
Li1 O14 2.019728 1_465
Li1 O10 2.052828 1_555
Li2 O8 1.925704 1_555
Li2 O12 2.005806 1_555
Li2 O2 2.040948 1_655
Li2 O19 2.059452 1_555
Cr0 O11 1.959459 1_555
Cr0 O19 2.011782 1_455
Cr0 O10 2.014686 1_545
Cr0 O7 2.042896 1_545
Cr0 O2 2.078879 1_555
Cr0 O14 2.121561 1_455
Cr1 O17 2.011071 1_555
Cr1 O18 2.016706 1_555
Cr1 O15 2.019152 1_555
Cr1 O23 2.030276 1_554
Cr1 O20 2.034246 1_554
Cr1 O22 2.052371 1_554
Cr2 O16 1.989254 1_565
Cr2 O13 1.990826 1_565
Cr2 O9 2.009167 1_655
Cr2 O21 2.015711 1_555
Cr2 O12 2.029590 1_555
Cr2 O4 2.032151 1_655
O0 S5 1.431282 1_455
O1 S3 1.428091 1_545
O2 S0 1.512056 1_555
O3 S4 1.438989 1_555
O4 S0 1.532040 1_555
O5 S0 1.438433 1_555
O6 S1 1.467120 1_555
O7 S1 1.482526 1_555
O8 S2 1.458971 1_555
O9 S3 1.491811 1_555
O10 S3 1.544160 1_555
O11 S4 1.518436 1_555
O12 S1 1.528984 1_555
O13 S2 1.495664 1_555
O14 S2 1.522664 1_555
O15 S3 1.497536 1_555
O16 S4 1.497190 1_555
O17 S4 1.500048 1_555
O18 S5 1.497935 1_555
O19 S5 1.542967 1_555
O20 S1 1.472346 1_555
O21 S5 1.490909 1_555
O22 S2 1.478892 1_565
O23 S0 1.479802 1_655
