# generated using pymatgen
data_Li(Co3P2)2
_symmetry_space_group_name_H-M   'P 1'
_cell_length_a   6.48017137
_cell_length_b   6.48012878
_cell_length_c   3.31200345
_cell_angle_alpha   90.00000000
_cell_angle_beta   90.00000000
_cell_angle_gamma   119.99979511
_symmetry_Int_Tables_number   1
_chemical_formula_structural   Li(Co3P2)2
_chemical_formula_sum   'Li1 Co6 P4'
_cell_volume   120.44601524
_cell_formula_units_Z   1
loop_
 _symmetry_equiv_pos_site_id
 _symmetry_equiv_pos_as_xyz
  1  'x, y, z'
loop_
 _atom_site_type_symbol
 _atom_site_label
 _atom_site_symmetry_multiplicity
 _atom_site_fract_x
 _atom_site_fract_y
 _atom_site_fract_z
 _atom_site_occupancy
  Li  Li0  1  0.00000486  0.00000293  -0.00000000  1
  Co  Co0  1  0.20049144  0.79950803  0.50000000  1
  Co  Co1  1  0.20049144  0.40098341  0.50000000  1
  Co  Co2  1  0.53587003  0.07173437  -0.00000000  1
  Co  Co3  1  0.92826597  0.46413249  -0.00000000  1
  Co  Co4  1  0.53587003  0.46413566  -0.00000000  1
  Co  Co5  1  0.59901497  0.79950749  0.50000000  1
  P  P0  1  0.81804605  0.18196714  0.50000000  1
  P  P1  1  0.36390944  0.18195472  0.50000000  1
  P  P2  1  0.33332172  0.66666186  -0.00000000  1
  P  P3  1  0.81804605  0.63607991  0.50000000  1
loop_
_geom_bond_atom_site_label_1
_geom_bond_atom_site_label_2
_geom_bond_distance
_geom_bond_site_symmetry_2
Li0 P1 2.629270 1_555
Li0 P1 2.629270 1_554
Li0 P3 2.629340 1_444
Li0 P3 2.629340 1_445
Li0 P0 2.629341 1_454
Li0 P0 2.629341 1_455
Co0 P1 2.153827 1_565
Co0 P3 2.153829 1_455
Co0 P2 2.228301 1_556
Co0 P2 2.228301 1_555
Co0 Li0 2.793953 1_566
Co0 Li0 2.793953 1_565
Co1 P1 2.153828 1_555
Co1 P0 2.153829 1_455
Co1 P2 2.228309 1_556
Co1 P2 2.228309 1_555
Co1 Li0 2.793948 1_555
Co1 Li0 2.793948 1_556
Co2 P2 2.273254 1_545
Co2 P0 2.300005 1_554
Co2 P0 2.300005 1_555
Co2 P1 2.300027 1_554
Co2 P1 2.300027 1_555
Co3 P2 2.273175 1_655
Co3 P0 2.299960 1_555
Co3 P0 2.299960 1_554
Co3 P3 2.299969 1_555
Co3 P3 2.299969 1_554
Co4 P2 2.273266 1_555
Co4 P3 2.300006 1_554
Co4 P3 2.300006 1_555
Co4 P1 2.300027 1_555
Co4 P1 2.300027 1_554
Co5 P3 2.153895 1_555
Co5 P0 2.153900 1_565
Co5 P2 2.228371 1_556
Co5 P2 2.228371 1_555
Co5 Li0 2.794002 1_665
Co5 Li0 2.794002 1_666
