# generated using pymatgen
data_Li2Mn3VO8
_symmetry_space_group_name_H-M   'P 1'
_cell_length_a   8.25653100
_cell_length_b   8.35979000
_cell_length_c   8.77373860
_cell_angle_alpha   89.89910570
_cell_angle_beta   90.00000000
_cell_angle_gamma   90.00000000
_symmetry_Int_Tables_number   1
_chemical_formula_structural   Li2Mn3VO8
_chemical_formula_sum   'Li8 Mn12 V4 O32'
_cell_volume   605.58763875
_cell_formula_units_Z   4
loop_
 _symmetry_equiv_pos_site_id
 _symmetry_equiv_pos_as_xyz
  1  'x, y, z'
loop_
 _atom_site_type_symbol
 _atom_site_label
 _atom_site_symmetry_multiplicity
 _atom_site_fract_x
 _atom_site_fract_y
 _atom_site_fract_z
 _atom_site_occupancy
  Li  Li0  1  0.99896000  0.25235600  0.99611100  1
  Li  Li1  1  0.74720600  0.00124300  0.75208300  1
  Li  Li2  1  0.25563500  0.49854800  0.74521900  1
  Li  Li3  1  0.99802200  0.75409700  0.50306600  1
  Li  Li4  1  0.49802200  0.24590300  0.49693400  1
  Li  Li5  1  0.75563500  0.50145200  0.25478100  1
  Li  Li6  1  0.24720600  0.99875700  0.24791700  1
  Li  Li7  1  0.49896000  0.74764400  0.00388900  1
  Mn  Mn0  1  0.86984800  0.62531800  0.87221800  1
  Mn  Mn1  1  0.62336200  0.37593300  0.87309900  1
  Mn  Mn2  1  0.37385200  0.12696100  0.87749800  1
  Mn  Mn3  1  0.62793100  0.62700200  0.61884600  1
  Mn  Mn4  1  0.37858900  0.88035900  0.62064600  1
  Mn  Mn5  1  0.12256000  0.12558900  0.63260100  1
  Mn  Mn6  1  0.62256000  0.87441100  0.36739900  1
  Mn  Mn7  1  0.87858900  0.11964100  0.37935400  1
  Mn  Mn8  1  0.12793100  0.37299800  0.38115400  1
  Mn  Mn9  1  0.87385200  0.87303900  0.12250200  1
  Mn  Mn10  1  0.12336200  0.62406700  0.12690100  1
  Mn  Mn11  1  0.36984800  0.37468200  0.12778200  1
  V  V0  1  0.12697300  0.86755000  0.87399500  1
  V  V1  1  0.87018200  0.37382200  0.62516700  1
  V  V2  1  0.37018200  0.62617800  0.37483300  1
  V  V3  1  0.62697300  0.13245000  0.12600500  1
  O  O0  1  0.88258000  0.86280700  0.89625300  1
  O  O1  1  0.11317800  0.64941200  0.86737000  1
  O  O2  1  0.38885200  0.35839400  0.88208300  1
  O  O3  1  0.86241000  0.39070100  0.85660200  1
  O  O4  1  0.60896900  0.13632600  0.89509500  1
  O  O5  1  0.63267800  0.60968900  0.86104100  1
  O  O6  1  0.36106500  0.89585000  0.87558400  1
  O  O7  1  0.13711000  0.11190900  0.85824600  1
  O  O8  1  0.85986300  0.61274300  0.62530500  1
  O  O9  1  0.64880400  0.37807800  0.62037000  1
  O  O10  1  0.36242600  0.11592000  0.64960100  1
  O  O11  1  0.39222500  0.64386900  0.60500600  1
  O  O12  1  0.13861300  0.89227900  0.64466900  1
  O  O13  1  0.61653000  0.87408800  0.59042800  1
  O  O14  1  0.89290400  0.13407400  0.62908000  1
  O  O15  1  0.10759800  0.35643500  0.62515200  1
  O  O16  1  0.60759800  0.64356500  0.37484800  1
  O  O17  1  0.39290400  0.86592600  0.37092000  1
  O  O18  1  0.11653000  0.12591200  0.40957200  1
  O  O19  1  0.63861300  0.10772100  0.35533100  1
  O  O20  1  0.89222500  0.35613100  0.39499400  1
  O  O21  1  0.86242600  0.88408000  0.35039900  1
  O  O22  1  0.14880400  0.62192200  0.37963000  1
  O  O23  1  0.35986300  0.38725700  0.37469500  1
  O  O24  1  0.63711000  0.88809100  0.14175400  1
  O  O25  1  0.86106500  0.10415000  0.12441600  1
  O  O26  1  0.13267800  0.39031100  0.13895900  1
  O  O27  1  0.10896900  0.86367400  0.10490500  1
  O  O28  1  0.36241000  0.60929900  0.14339800  1
  O  O29  1  0.88885200  0.64160600  0.11791700  1
  O  O30  1  0.61317800  0.35058800  0.13263000  1
  O  O31  1  0.38258000  0.13719300  0.10374700  1
loop_
_geom_bond_atom_site_label_1
_geom_bond_atom_site_label_2
_geom_bond_distance
_geom_bond_site_symmetry_2
Li0 O25 2.023272 1_556
Li0 O3 2.025314 1_555
Li0 O26 2.030971 1_656
Li0 O7 2.036590 1_655
Li1 O14 1.959753 1_555
Li1 O4 2.038952 1_555
Li1 O0 2.045354 1_545
Li1 O13 2.076289 1_545
Li2 O15 2.004872 1_555
Li2 O2 2.004887 1_555
Li2 O1 2.031600 1_555
Li2 O11 2.062964 1_555
Li3 O8 1.960458 1_555
Li3 O22 1.986929 1_655
Li3 O21 2.055041 1_555
Li3 O12 2.056805 1_655
Li4 O23 1.960458 1_555
Li4 O9 1.986929 1_555
Li4 O10 2.055041 1_555
Li4 O19 2.056805 1_555
Li5 O16 2.004872 1_555
Li5 O29 2.004887 1_555
Li5 O30 2.031600 1_555
Li5 O20 2.062964 1_555
Li6 O17 1.959753 1_555
Li6 O27 2.038952 1_555
Li6 O31 2.045354 1_565
Li6 O18 2.076289 1_565
Li7 O6 2.023272 1_554
Li7 O28 2.025314 1_555
Li7 O5 2.030971 1_554
Li7 O24 2.036590 1_555
Mn0 O5 1.965015 1_555
Mn0 O3 1.967328 1_555
Mn0 O0 1.999660 1_555
Mn0 O1 2.019574 1_655
Mn0 O29 2.165925 1_556
Mn0 O8 2.170650 1_555
Mn1 O2 1.943371 1_555
Mn1 O5 1.958338 1_555
Mn1 O3 1.982839 1_555
Mn1 O4 2.015508 1_555
Mn1 O9 2.227347 1_555
Mn1 O30 2.288068 1_556
Mn2 O6 1.935024 1_545
Mn2 O2 1.939179 1_555
Mn2 O4 1.948965 1_555
Mn2 O7 1.966002 1_555
Mn2 O31 1.988348 1_556
Mn2 O10 2.004022 1_555
Mn3 O8 1.919491 1_555
Mn3 O11 1.954975 1_555
Mn3 O13 2.082274 1_555
Mn3 O9 2.088096 1_555
Mn3 O5 2.129985 1_555
Mn3 O16 2.151564 1_555
Mn4 O13 1.983082 1_555
Mn4 O11 1.985199 1_555
Mn4 O10 1.990482 1_565
Mn4 O12 1.995057 1_555
Mn4 O17 2.197743 1_555
Mn4 O6 2.245399 1_555
Mn5 O14 1.897738 1_455
Mn5 O15 1.934763 1_555
Mn5 O18 1.957429 1_555
Mn5 O12 1.957600 1_545
Mn5 O7 1.986485 1_555
Mn5 O10 1.987703 1_555
Mn6 O17 1.897738 1_555
Mn6 O16 1.934763 1_555
Mn6 O13 1.957429 1_555
Mn6 O19 1.957600 1_565
Mn6 O24 1.986485 1_555
Mn6 O21 1.987703 1_555
Mn7 O18 1.983082 1_655
Mn7 O20 1.985199 1_555
Mn7 O21 1.990482 1_545
Mn7 O19 1.995057 1_555
Mn7 O14 2.197743 1_555
Mn7 O25 2.245399 1_555
Mn8 O23 1.919491 1_555
Mn8 O20 1.954975 1_455
Mn8 O18 2.082274 1_555
Mn8 O22 2.088096 1_555
Mn8 O26 2.129985 1_555
Mn8 O15 2.151564 1_555
Mn9 O25 1.935024 1_565
Mn9 O29 1.939179 1_555
Mn9 O27 1.948965 1_655
Mn9 O24 1.966002 1_555
Mn9 O0 1.988348 1_554
Mn9 O21 2.004022 1_555
Mn10 O29 1.943371 1_455
Mn10 O26 1.958338 1_555
Mn10 O28 1.982839 1_555
Mn10 O27 2.015508 1_555
Mn10 O22 2.227347 1_555
Mn10 O1 2.288068 1_554
Mn11 O26 1.965015 1_555
Mn11 O28 1.967328 1_555
Mn11 O31 1.999660 1_555
Mn11 O30 2.019574 1_555
Mn11 O2 2.165925 1_554
Mn11 O23 2.170650 1_555
O0 V0 2.027647 1_655
O1 V0 1.828168 1_555
O3 V1 2.036706 1_555
O4 V3 2.031592 1_556
O6 V0 1.947266 1_555
O7 V0 2.048925 1_545
O8 V1 1.999148 1_555
O9 V1 1.828644 1_555
O11 V2 2.033307 1_555
O12 V0 2.024559 1_555
O14 V1 2.013237 1_555
O15 V1 1.965614 1_455
O16 V2 1.965614 1_555
O17 V2 2.013237 1_555
O19 V3 2.024559 1_555
O20 V1 2.033307 1_555
O22 V2 1.828644 1_555
O23 V2 1.999148 1_555
O24 V3 2.048925 1_565
O25 V3 1.947266 1_555
O27 V0 2.031592 1_554
O28 V2 2.036706 1_555
O30 V3 1.828168 1_555
O31 V3 2.027647 1_555
