# generated using pymatgen
data_Li2EuGe
_symmetry_space_group_name_H-M   'P 1'
_cell_length_a   4.76796304
_cell_length_b   4.76796304
_cell_length_c   4.76796304
_cell_angle_alpha   60.00000000
_cell_angle_beta   60.00000000
_cell_angle_gamma   60.00000000
_symmetry_Int_Tables_number   1
_chemical_formula_structural   Li2EuGe
_chemical_formula_sum   'Li2 Eu1 Ge1'
_cell_volume   76.64496735
_cell_formula_units_Z   1
loop_
 _symmetry_equiv_pos_site_id
 _symmetry_equiv_pos_as_xyz
  1  'x, y, z'
loop_
 _atom_site_type_symbol
 _atom_site_label
 _atom_site_symmetry_multiplicity
 _atom_site_fract_x
 _atom_site_fract_y
 _atom_site_fract_z
 _atom_site_occupancy
  Li  Li0  1  0.25000000  0.25000000  0.25000000  1
  Li  Li1  1  0.75000000  0.75000000  0.75000000  1
  Eu  Eu0  1  0.50000000  0.50000000  0.50000000  1
  Ge  Ge0  1  0.00000000  0.00000000  0.00000000  1
loop_
_geom_bond_atom_site_label_1
_geom_bond_atom_site_label_2
_geom_bond_distance
_geom_bond_site_symmetry_2
Eu0 Li1 2.919769 1_455
Eu0 Li1 2.919769 1_554
Eu0 Li0 2.919769 1_565
Eu0 Li0 2.919769 1_655
Eu0 Li1 2.919769 1_555
Eu0 Li1 2.919769 1_545
Eu0 Li0 2.919769 1_556
Eu0 Li0 2.919769 1_555
Eu0 Ge0 3.371459 1_565
Eu0 Ge0 3.371459 1_656
Eu0 Ge0 3.371459 1_556
Eu0 Ge0 3.371459 1_665
Eu0 Ge0 3.371459 1_566
Eu0 Ge0 3.371459 1_655
Ge0 Li1 2.919769 1_454
Ge0 Li0 2.919769 1_554
Ge0 Li1 2.919769 1_444
Ge0 Li1 2.919769 1_544
Ge0 Li0 2.919769 1_545
Ge0 Li0 2.919769 1_455
Ge0 Li1 2.919769 1_445
Ge0 Li0 2.919769 1_555
