# generated using pymatgen
data_PmNi3
_symmetry_space_group_name_H-M   'P 1'
_cell_length_a   5.79339656
_cell_length_b   5.79313308
_cell_length_c   4.19356486
_cell_angle_alpha   90.00000000
_cell_angle_beta   90.00000000
_cell_angle_gamma   119.99205438
_symmetry_Int_Tables_number   1
_chemical_formula_structural   PmNi3
_chemical_formula_sum   'Pm2 Ni6'
_cell_volume   121.89770379
_cell_formula_units_Z   2
loop_
 _symmetry_equiv_pos_site_id
 _symmetry_equiv_pos_as_xyz
  1  'x, y, z'
loop_
 _atom_site_type_symbol
 _atom_site_label
 _atom_site_symmetry_multiplicity
 _atom_site_fract_x
 _atom_site_fract_y
 _atom_site_fract_z
 _atom_site_occupancy
  Pm  Pm0  1  0.33330972  0.66659088  0.74999900  1
  Pm  Pm1  1  0.66665440  0.33315494  0.25000100  1
  Ni  Ni0  1  0.13844099  0.27695301  0.25000100  1
  Ni  Ni1  1  0.72304011  0.86161484  0.25000100  1
  Ni  Ni2  1  0.13848593  0.86163507  0.25000100  1
  Ni  Ni3  1  0.86146539  0.72301002  0.74999900  1
  Ni  Ni4  1  0.27694605  0.13857138  0.74999900  1
  Ni  Ni5  1  0.86165542  0.13846486  0.74999900  1
loop_
_geom_bond_atom_site_label_1
_geom_bond_atom_site_label_2
_geom_bond_distance
_geom_bond_site_symmetry_2
Ni0 Ni2 2.406122 1_545
Ni0 Ni1 2.406635 1_445
Ni0 Ni5 2.515005 1_455
Ni0 Ni5 2.515019 1_454
Ni0 Ni4 2.515175 1_555
Ni0 Ni4 2.515189 1_554
Ni0 Pm0 2.866770 1_555
Ni0 Pm0 2.866782 1_554
Ni0 Pm1 2.909697 1_455
Ni0 Pm1 2.911086 1_555
Ni1 Ni2 2.406784 1_655
Ni1 Ni5 2.515149 1_565
Ni1 Ni5 2.515163 1_564
Ni1 Ni3 2.515573 1_555
Ni1 Ni3 2.515587 1_554
Ni1 Pm0 2.867147 1_555
Ni1 Pm0 2.867159 1_554
Ni1 Pm1 2.908780 1_565
Ni1 Pm1 2.911922 1_555
Ni2 Ni4 2.515387 1_565
Ni2 Ni4 2.515401 1_564
Ni2 Ni3 2.515656 1_455
Ni2 Ni3 2.515670 1_454
Ni2 Pm0 2.867427 1_555
Ni2 Pm0 2.867440 1_554
Ni2 Pm1 2.910004 1_565
Ni2 Pm1 2.911771 1_455
Ni3 Ni5 2.406235 1_565
Ni3 Ni4 2.407512 1_665
Ni3 Pm1 2.867513 1_555
Ni3 Pm1 2.867525 1_556
Ni3 Pm0 2.910233 1_555
Ni3 Pm0 2.910761 1_655
Ni4 Ni5 2.405635 1_455
Ni4 Pm1 2.867072 1_555
Ni4 Pm1 2.867084 1_556
Ni4 Pm0 2.909436 1_555
Ni4 Pm0 2.911245 1_545
Ni5 Pm1 2.866822 1_555
Ni5 Pm1 2.866834 1_556
Ni5 Pm0 2.910153 1_655
Ni5 Pm0 2.911449 1_545
