# generated using pymatgen
data_Li9Si2Ni5O16
_symmetry_space_group_name_H-M   'P 1'
_cell_length_a   4.90327300
_cell_length_b   5.04339370
_cell_length_c   11.12028040
_cell_angle_alpha   80.81842385
_cell_angle_beta   85.46602872
_cell_angle_gamma   80.02979709
_symmetry_Int_Tables_number   1
_chemical_formula_structural   Li9Si2Ni5O16
_chemical_formula_sum   'Li9 Si2 Ni5 O16'
_cell_volume   266.99757645
_cell_formula_units_Z   1
loop_
 _symmetry_equiv_pos_site_id
 _symmetry_equiv_pos_as_xyz
  1  'x, y, z'
loop_
 _atom_site_type_symbol
 _atom_site_label
 _atom_site_symmetry_multiplicity
 _atom_site_fract_x
 _atom_site_fract_y
 _atom_site_fract_z
 _atom_site_occupancy
  Li  Li0  1  0.74093000  0.94785000  0.56021400  1
  Li  Li1  1  0.26115000  0.81268300  0.68416600  1
  Li  Li2  1  0.74263400  0.69198200  0.81424400  1
  Li  Li3  1  0.24328600  0.55708400  0.93705900  1
  Li  Li4  1  0.75671400  0.44291600  0.06294100  1
  Li  Li5  1  0.25736600  0.30801800  0.18575600  1
  Li  Li6  1  0.73885000  0.18731700  0.31583400  1
  Li  Li7  1  0.25907000  0.05215000  0.43978600  1
  Li  Li8  1  0.50000000  0.50000000  0.50000000  1
  Si  Si0  1  0.99916500  0.38224000  0.61959900  1
  Si  Si1  1  0.00083500  0.61776000  0.38040100  1
  Ni  Ni0  1  0.49958900  0.25812700  0.74314400  1
  Ni  Ni1  1  0.99930100  0.12830200  0.87296100  1
  Ni  Ni2  1  0.00069900  0.87169800  0.12703900  1
  Ni  Ni3  1  0.50000000  0.00000000  0.00000000  1
  Ni  Ni4  1  0.50041100  0.74187300  0.25685600  1
  O  O0  1  0.65884000  0.55951100  0.65570200  1
  O  O1  1  0.34178100  0.18240000  0.60174900  1
  O  O2  1  0.38700900  0.94127900  0.83436200  1
  O  O3  1  0.86467600  0.08594500  0.70343700  1
  O  O4  1  0.13480300  0.45912800  0.75634200  1
  O  O5  1  0.85571900  0.79550600  0.97005100  1
  O  O6  1  0.60809900  0.33375100  0.89203300  1
  O  O7  1  0.14428100  0.20449400  0.02994900  1
  O  O8  1  0.39190100  0.66624900  0.10796700  1
  O  O9  1  0.86519700  0.54087200  0.24365800  1
  O  O10  1  0.61299100  0.05872100  0.16563800  1
  O  O11  1  0.65821900  0.81760000  0.39825100  1
  O  O12  1  0.34116000  0.44048900  0.34429800  1
  O  O13  1  0.13532400  0.91405500  0.29656300  1
  O  O14  1  0.09313400  0.68575500  0.52635400  1
  O  O15  1  0.90686600  0.31424500  0.47364600  1
loop_
_geom_bond_atom_site_label_1
_geom_bond_atom_site_label_2
_geom_bond_distance
_geom_bond_site_symmetry_2
Li0 O3 2.010712 1_565
Li0 O14 2.033961 1_655
Li0 O11 2.103607 1_555
Li0 O0 2.160363 1_555
Li0 O1 2.161668 1_565
Li0 O15 2.198282 1_565
Li1 O4 2.013623 1_555
Li1 O1 2.031190 1_565
Li1 O2 2.058726 1_555
Li1 O0 2.168454 1_555
Li1 O3 2.196621 1_465
Li1 O14 2.222139 1_555
Li2 O2 1.985036 1_555
Li2 O5 2.030479 1_555
Li2 O6 2.066719 1_555
Li2 O0 2.075795 1_555
Li2 O4 2.180582 1_655
Li2 O3 2.310422 1_565
Li3 O6 2.014898 1_555
Li3 O7 2.024424 1_556
Li3 O5 2.105022 1_455
Li3 O8 2.266715 1_556
Li3 O4 2.267692 1_555
Li3 O2 2.279193 1_555
Li4 O8 2.014898 1_555
Li4 O5 2.024424 1_554
Li4 O7 2.105022 1_655
Li4 O6 2.266715 1_554
Li4 O9 2.267692 1_555
Li4 O10 2.279193 1_555
Li5 O10 1.985036 1_555
Li5 O7 2.030479 1_555
Li5 O8 2.066719 1_555
Li5 O12 2.075795 1_555
Li5 O9 2.180582 1_455
Li5 O13 2.310422 1_545
Li6 O9 2.013623 1_555
Li6 O11 2.031190 1_545
Li6 O10 2.058726 1_555
Li6 O12 2.168454 1_555
Li6 O13 2.196621 1_645
Li6 O15 2.222139 1_555
Li7 O13 2.010712 1_545
Li7 O15 2.033961 1_455
Li7 O1 2.103607 1_555
Li7 O12 2.160363 1_555
Li7 O11 2.161668 1_545
Li7 O14 2.198282 1_545
Li8 O0 2.038277 1_555
Li8 O12 2.038277 1_555
Li8 O1 2.039836 1_555
Li8 O11 2.039836 1_555
Li8 O14 2.071590 1_555
Li8 O15 2.071590 1_555
Ni0 O6 1.892330 1_555
Ni0 O2 1.893901 1_545
Ni0 O3 1.900712 1_555
Ni0 O4 1.904351 1_555
Ni0 O0 1.919613 1_555
Ni0 O1 1.924372 1_555
Ni1 O2 2.016720 1_645
Ni1 O6 2.028687 1_555
Ni1 O5 2.046734 1_545
Ni1 O7 2.050738 1_656
Ni1 O3 2.099825 1_555
Ni1 O4 2.112861 1_655
Ni2 O10 2.016720 1_465
Ni2 O8 2.028687 1_555
Ni2 O7 2.046734 1_565
Ni2 O5 2.050738 1_454
Ni2 O13 2.099825 1_555
Ni2 O9 2.112861 1_455
Ni3 O7 1.900436 1_555
Ni3 O5 1.900436 1_544
Ni3 O6 2.029561 1_554
Ni3 O8 2.029561 1_545
Ni3 O10 2.044415 1_555
Ni3 O2 2.044415 1_544
Ni4 O8 1.892330 1_555
Ni4 O10 1.893901 1_565
Ni4 O13 1.900712 1_555
Ni4 O9 1.904351 1_555
Ni4 O12 1.919613 1_555
Ni4 O11 1.924372 1_555
O0 Si0 1.799197 1_555
O1 Si0 1.817205 1_455
O3 Si0 1.826608 1_555
O4 Si0 1.828208 1_455
O9 Si1 1.828208 1_655
O11 Si1 1.817205 1_655
O12 Si1 1.799197 1_555
O13 Si1 1.826608 1_555
O14 Si0 1.814613 1_455
O14 Si1 1.817735 1_555
O15 Si1 1.814613 1_655
O15 Si0 1.817735 1_555
