# generated using pymatgen
data_Cs2Li14Tb3O14
_symmetry_space_group_name_H-M   'P 1'
_cell_length_a   8.67193773
_cell_length_b   8.67193773
_cell_length_c   8.67193773
_cell_angle_alpha   128.80283828
_cell_angle_beta   123.36062219
_cell_angle_gamma   79.83117197
_symmetry_Int_Tables_number   1
_chemical_formula_structural   Cs2Li14Tb3O14
_chemical_formula_sum   'Cs2 Li14 Tb3 O14'
_cell_volume   410.09285342
_cell_formula_units_Z   1
loop_
 _symmetry_equiv_pos_site_id
 _symmetry_equiv_pos_as_xyz
  1  'x, y, z'
loop_
 _atom_site_type_symbol
 _atom_site_label
 _atom_site_symmetry_multiplicity
 _atom_site_fract_x
 _atom_site_fract_y
 _atom_site_fract_z
 _atom_site_occupancy
  Cs  Cs0  1  0.50000000  0.76638900  0.26638900  1
  Cs  Cs1  1  0.50000000  0.23361100  0.73361100  1
  Li  Li0  1  0.71297400  0.14113100  0.12032900  1
  Li  Li1  1  0.97919800  0.85886900  0.57184300  1
  Li  Li2  1  0.02080200  0.59264500  0.87967100  1
  Li  Li3  1  0.28702600  0.40735500  0.42815700  1
  Li  Li4  1  0.02080200  0.14113100  0.42815700  1
  Li  Li5  1  0.15527000  0.50000000  0.65527000  1
  Li  Li6  1  0.84473000  0.50000000  0.34473000  1
  Li  Li7  1  0.41575600  0.76788200  0.64787500  1
  Li  Li8  1  0.58424400  0.23211800  0.35212500  1
  Li  Li9  1  0.87999300  0.23211800  0.64787500  1
  Li  Li10  1  0.12000700  0.76788200  0.35212500  1
  Li  Li11  1  0.71297400  0.59264500  0.57184300  1
  Li  Li12  1  0.28702600  0.85886900  0.87967100  1
  Li  Li13  1  0.97919800  0.40735500  0.12032900  1
  Tb  Tb0  1  0.00000000  0.00000000  0.00000000  1
  Tb  Tb1  1  0.26837400  0.26837400  0.00000000  1
  Tb  Tb2  1  0.73162600  0.73162600  0.00000000  1
  O  O0  1  0.05165100  0.86876200  0.18289000  1
  O  O1  1  0.40797300  0.62958200  0.77839100  1
  O  O2  1  0.85119000  0.62958200  0.22160900  1
  O  O3  1  0.59202700  0.37041800  0.22160900  1
  O  O4  1  0.14881000  0.37041800  0.77839100  1
  O  O5  1  0.75374600  0.05226200  0.29851600  1
  O  O6  1  0.24625400  0.54477000  0.29851600  1
  O  O7  1  0.24625400  0.94773800  0.70148400  1
  O  O8  1  0.75374600  0.45523000  0.70148400  1
  O  O9  1  0.00000000  0.70199800  0.70199800  1
  O  O10  1  0.00000000  0.29800200  0.29800200  1
  O  O11  1  0.68587200  0.86876200  0.81711000  1
  O  O12  1  0.31412800  0.13123800  0.18289000  1
  O  O13  1  0.94834900  0.13123800  0.81711000  1
loop_
_geom_bond_atom_site_label_1
_geom_bond_atom_site_label_2
_geom_bond_distance
_geom_bond_site_symmetry_2
Cs0 O2 3.206380 1_555
Cs0 O4 3.206385 1_554
Cs0 O1 3.206389 1_554
Cs0 O3 3.206389 1_555
Cs0 O5 3.384054 1_565
Cs0 O6 3.384054 1_555
Cs1 O4 3.206380 1_555
Cs1 O2 3.206385 1_556
Cs1 O3 3.206389 1_556
Cs1 O1 3.206389 1_555
Cs1 O7 3.384054 1_545
Cs1 O8 3.384054 1_555
Li0 O5 1.975360 1_555
Li0 O3 1.978163 1_555
Li0 O11 2.069015 1_544
Li0 O10 2.184237 1_655
Li1 O7 1.975360 1_655
Li1 O2 1.978162 1_555
Li1 O13 2.069011 1_565
Li1 O9 2.184237 1_655
Li2 O8 1.975360 1_455
Li2 O4 1.978168 1_555
Li2 O0 2.069018 1_556
Li2 O9 2.184237 1_555
Li3 O6 1.975360 1_555
Li3 O1 1.978163 1_555
Li3 O12 2.069015 1_555
Li3 O10 2.184237 1_555
Li4 O5 1.975360 1_455
Li4 O4 1.978162 1_555
Li4 O0 2.069011 1_545
Li4 O10 2.184237 1_555
Li5 O9 1.980750 1_555
Li5 O10 1.980750 1_555
Li5 O4 1.999396 1_555
Li5 O1 1.999399 1_555
Li6 O10 1.980750 1_655
Li6 O9 1.980750 1_655
Li6 O2 1.999396 1_555
Li6 O3 1.999399 1_555
Li7 O11 1.933844 1_555
Li7 O7 1.960285 1_555
Li7 O6 1.960291 1_555
Li7 O1 2.130217 1_555
Li8 O12 1.933844 1_555
Li8 O5 1.960285 1_555
Li8 O8 1.960291 1_555
Li8 O3 2.130217 1_555
Li9 O13 1.933835 1_555
Li9 O5 1.960291 1_555
Li9 O8 1.960291 1_555
Li9 O4 2.130229 1_655
Li10 O0 1.933835 1_555
Li10 O6 1.960291 1_555
Li10 O7 1.960291 1_555
Li10 O2 2.130229 1_455
Li11 O8 1.975360 1_555
Li11 O3 1.978163 1_555
Li11 O11 2.069015 1_555
Li11 O9 2.184237 1_655
Li12 O7 1.975360 1_555
Li12 O1 1.978163 1_555
Li12 O12 2.069015 1_566
Li12 O9 2.184237 1_555
Li13 O6 1.975360 1_655
Li13 O2 1.978168 1_555
Li13 O13 2.069018 1_554
Li13 O10 2.184237 1_655
O0 Tb0 2.304822 1_565
O0 Tb2 2.364796 1_455
O1 Tb2 2.273163 1_556
O2 Tb2 2.273164 1_555
O3 Tb1 2.273163 1_555
O4 Tb1 2.273164 1_556
O5 Tb2 2.256246 1_545
O6 Tb1 2.256246 1_555
O7 Tb1 2.256246 1_566
O8 Tb2 2.256246 1_556
O9 Tb0 2.233124 1_566
O10 Tb0 2.233124 1_555
O11 Tb0 2.304819 1_666
O11 Tb2 2.364803 1_556
O12 Tb0 2.304819 1_555
O12 Tb1 2.364803 1_555
O13 Tb0 2.304822 1_656
O13 Tb1 2.364796 1_656
