# generated using pymatgen
data_HfZn3
_symmetry_space_group_name_H-M   'P 1'
_cell_length_a   5.76522210
_cell_length_b   5.76521193
_cell_length_c   4.33891828
_cell_angle_alpha   90.00001414
_cell_angle_beta   90.00000000
_cell_angle_gamma   119.99940152
_symmetry_Int_Tables_number   1
_chemical_formula_structural   HfZn3
_chemical_formula_sum   'Hf2 Zn6'
_cell_volume   124.89528427
_cell_formula_units_Z   2
loop_
 _symmetry_equiv_pos_site_id
 _symmetry_equiv_pos_as_xyz
  1  'x, y, z'
loop_
 _atom_site_type_symbol
 _atom_site_label
 _atom_site_symmetry_multiplicity
 _atom_site_fract_x
 _atom_site_fract_y
 _atom_site_fract_z
 _atom_site_occupancy
  Hf  Hf0  1  0.33333475  0.66666790  0.74999998  1
  Hf  Hf1  1  0.66666625  0.33333210  0.25000002  1
  Zn  Zn0  1  0.15891459  0.31782663  0.24999998  1
  Zn  Zn1  1  0.68217458  0.84108537  0.25000012  1
  Zn  Zn2  1  0.15891127  0.84108835  0.25000008  1
  Zn  Zn3  1  0.84108641  0.68217337  0.75000002  1
  Zn  Zn4  1  0.31782642  0.15891463  0.74999988  1
  Zn  Zn5  1  0.84108973  0.15891165  0.74999992  1
loop_
_geom_bond_atom_site_label_1
_geom_bond_atom_site_label_2
_geom_bond_distance
_geom_bond_site_symmetry_2
Hf0 Zn1 2.782103 1_555
Hf0 Zn1 2.782104 1_556
Hf0 Zn2 2.782105 1_555
Hf0 Zn2 2.782106 1_556
Hf0 Zn0 2.782106 1_555
Hf0 Zn0 2.782106 1_556
Hf0 Zn4 2.883641 1_555
Hf0 Zn3 2.883645 1_555
Hf0 Zn4 2.883650 1_565
Hf0 Zn3 2.883656 1_455
Hf0 Zn5 2.883671 1_565
Hf0 Zn5 2.883678 1_455
Hf1 Zn4 2.782103 1_555
Hf1 Zn4 2.782104 1_554
Hf1 Zn5 2.782105 1_555
Hf1 Zn5 2.782106 1_554
Hf1 Zn3 2.782106 1_555
Hf1 Zn3 2.782106 1_554
Hf1 Zn1 2.883641 1_555
Hf1 Zn0 2.883645 1_555
Hf1 Zn1 2.883650 1_545
Hf1 Zn0 2.883656 1_655
Hf1 Zn2 2.883671 1_545
Hf1 Zn2 2.883678 1_655
Zn0 Zn4 2.687860 1_555
Zn0 Zn4 2.687861 1_554
Zn0 Zn5 2.687873 1_455
Zn0 Zn5 2.687873 1_454
Zn0 Zn2 2.748488 1_545
Zn0 Zn1 2.748538 1_445
Zn0 Zn2 3.016724 1_555
Zn0 Zn1 3.016731 1_555
Zn1 Zn3 2.687860 1_555
Zn1 Zn3 2.687861 1_554
Zn1 Zn5 2.687874 1_565
Zn1 Zn5 2.687877 1_564
Zn1 Zn2 2.748484 1_655
Zn1 Zn2 3.016738 1_555
Zn2 Zn3 2.687873 1_455
Zn2 Zn3 2.687873 1_454
Zn2 Zn4 2.687874 1_565
Zn2 Zn4 2.687877 1_564
Zn3 Zn5 2.748488 1_565
Zn3 Zn4 2.748538 1_665
Zn3 Zn5 3.016724 1_555
Zn3 Zn4 3.016731 1_555
Zn4 Zn5 2.748484 1_455
Zn4 Zn5 3.016738 1_555
