# generated using pymatgen
data_Mg2Ni3P
_symmetry_space_group_name_H-M   'P 1'
_cell_length_a   4.57975792
_cell_length_b   4.57975774
_cell_length_c   4.57975821
_cell_angle_alpha   65.11279541
_cell_angle_beta   65.11280356
_cell_angle_gamma   65.11278495
_symmetry_Int_Tables_number   1
_chemical_formula_structural   Mg2Ni3P
_chemical_formula_sum   'Mg2 Ni3 P1'
_cell_volume   75.49821641
_cell_formula_units_Z   1
loop_
 _symmetry_equiv_pos_site_id
 _symmetry_equiv_pos_as_xyz
  1  'x, y, z'
loop_
 _atom_site_type_symbol
 _atom_site_label
 _atom_site_symmetry_multiplicity
 _atom_site_fract_x
 _atom_site_fract_y
 _atom_site_fract_z
 _atom_site_occupancy
  Mg  Mg0  1  0.37430350  0.37430350  0.37430350  1
  Mg  Mg1  1  0.62569650  0.62569650  0.62569650  1
  Ni  Ni0  1  0.00000000  0.00000000  0.50000000  1
  Ni  Ni1  1  0.00000000  0.50000000  -0.00000000  1
  Ni  Ni2  1  0.50000000  0.00000000  -0.00000000  1
  P  P0  1  0.00000000  0.00000000  -0.00000000  1
loop_
_geom_bond_atom_site_label_1
_geom_bond_atom_site_label_2
_geom_bond_distance
_geom_bond_site_symmetry_2
Mg0 Ni1 2.649648 1_555
Mg0 Ni2 2.649648 1_555
Mg0 Ni0 2.649648 1_555
Mg0 Mg1 2.706212 1_555
Mg0 Ni0 2.811524 1_655
Mg0 Ni0 2.811524 1_565
Mg0 Ni2 2.811525 1_556
Mg0 Ni2 2.811525 1_565
Mg0 Ni1 2.811525 1_556
Mg0 Ni1 2.811525 1_655
Mg0 P0 2.879736 1_565
Mg0 P0 2.879736 1_655
Mg0 P0 2.879737 1_556
Mg0 Mg1 2.979333 1_545
Mg0 Mg1 2.979333 1_455
Mg0 Mg1 2.979334 1_554
Mg1 Ni1 2.649648 1_656
Mg1 Ni2 2.649648 1_566
Mg1 Ni0 2.649648 1_665
Mg1 Ni0 2.811524 1_565
Mg1 Ni0 2.811524 1_655
Mg1 Ni2 2.811525 1_565
Mg1 Ni2 2.811525 1_556
Mg1 Ni1 2.811525 1_655
Mg1 Ni1 2.811525 1_556
Mg1 P0 2.879736 1_656
Mg1 P0 2.879736 1_566
Mg1 P0 2.879737 1_665
Ni0 P0 2.289879 1_555
Ni0 P0 2.289879 1_556
Ni0 Ni1 2.464503 1_546
Ni0 Ni1 2.464503 1_555
Ni0 Ni2 2.464503 1_555
Ni0 Ni2 2.464503 1_456
Ni1 P0 2.289879 1_565
Ni1 P0 2.289879 1_555
Ni1 Ni2 2.464503 1_465
Ni1 Ni2 2.464503 1_555
Ni2 P0 2.289879 1_555
Ni2 P0 2.289879 1_655
