# generated using pymatgen
data_Ti3In
_symmetry_space_group_name_H-M   'P 1'
_cell_length_a   5.90293973
_cell_length_b   5.90293328
_cell_length_c   4.77395756
_cell_angle_alpha   90.00000000
_cell_angle_beta   90.00000000
_cell_angle_gamma   120.00060771
_symmetry_Int_Tables_number   1
_chemical_formula_structural   Ti3In
_chemical_formula_sum   'Ti6 In2'
_cell_volume   144.05978071
_cell_formula_units_Z   2
loop_
 _symmetry_equiv_pos_site_id
 _symmetry_equiv_pos_as_xyz
  1  'x, y, z'
loop_
 _atom_site_type_symbol
 _atom_site_label
 _atom_site_symmetry_multiplicity
 _atom_site_fract_x
 _atom_site_fract_y
 _atom_site_fract_z
 _atom_site_occupancy
  Ti  Ti0  1  0.16522346  0.33044317  0.25000000  1
  Ti  Ti1  1  0.66953984  0.83477055  0.25000000  1
  Ti  Ti2  1  0.16523599  0.83476711  0.25000000  1
  Ti  Ti3  1  0.83478282  0.66955446  0.75000000  1
  Ti  Ti4  1  0.33046315  0.16521588  0.75000000  1
  Ti  Ti5  1  0.83475271  0.16522407  0.75000000  1
  In  In0  1  0.33333748  0.66668927  0.75000000  1
  In  In1  1  0.66666455  0.33333050  0.25000000  1
loop_
_geom_bond_atom_site_label_1
_geom_bond_atom_site_label_2
_geom_bond_distance
_geom_bond_site_symmetry_2
Ti0 Ti4 2.924326 1_555
Ti0 Ti4 2.924326 1_554
Ti0 Ti5 2.924329 1_455
Ti0 Ti5 2.924329 1_454
Ti0 Ti1 2.925930 1_445
Ti0 Ti2 2.925980 1_545
Ti0 Ti1 2.976953 1_555
Ti0 Ti2 2.976954 1_555
Ti1 Ti5 2.924277 1_565
Ti1 Ti5 2.924277 1_564
Ti1 Ti3 2.924303 1_555
Ti1 Ti3 2.924303 1_554
Ti1 Ti2 2.926075 1_655
Ti1 Ti2 2.976865 1_555
Ti2 Ti4 2.924263 1_565
Ti2 Ti4 2.924263 1_564
Ti2 Ti3 2.924277 1_454
Ti2 Ti3 2.924277 1_455
Ti3 Ti4 2.925887 1_665
Ti3 Ti5 2.925994 1_565
Ti3 Ti5 2.976940 1_555
Ti3 Ti4 2.976995 1_555
Ti4 Ti5 2.926173 1_455
Ti4 Ti5 2.976767 1_555
In0 Ti2 2.941293 1_555
In0 Ti2 2.941293 1_556
In0 Ti1 2.941353 1_555
In0 Ti1 2.941353 1_556
In0 Ti0 2.941482 1_556
In0 Ti0 2.941482 1_555
In0 Ti4 2.951290 1_565
In0 Ti5 2.951330 1_565
In0 Ti3 2.951431 1_455
In0 Ti3 2.951581 1_555
In0 Ti5 2.951625 1_455
In0 Ti4 2.951717 1_555
In1 Ti5 2.941338 1_554
In1 Ti5 2.941338 1_555
In1 Ti4 2.941350 1_554
In1 Ti4 2.941350 1_555
In1 Ti3 2.941416 1_555
In1 Ti3 2.941416 1_554
In1 Ti2 2.951454 1_545
In1 Ti1 2.951489 1_545
In1 Ti0 2.951491 1_555
In1 Ti2 2.951501 1_655
In1 Ti1 2.951517 1_555
In1 Ti0 2.951522 1_655
