# generated using pymatgen
data_CeHfO4
_symmetry_space_group_name_H-M   'P 1'
_cell_length_a   7.45785100
_cell_length_b   7.47064700
_cell_length_c   10.55797800
_cell_angle_alpha   90.00000000
_cell_angle_beta   90.00000000
_cell_angle_gamma   90.00000000
_symmetry_Int_Tables_number   1
_chemical_formula_structural   CeHfO4
_chemical_formula_sum   'Ce8 Hf8 O32'
_cell_volume   588.23745075
_cell_formula_units_Z   8
loop_
 _symmetry_equiv_pos_site_id
 _symmetry_equiv_pos_as_xyz
  1  'x, y, z'
loop_
 _atom_site_type_symbol
 _atom_site_label
 _atom_site_symmetry_multiplicity
 _atom_site_fract_x
 _atom_site_fract_y
 _atom_site_fract_z
 _atom_site_occupancy
  Ce  Ce0  1  0.50000000  0.00076700  0.37383600  1
  Ce  Ce1  1  0.00000000  0.49928400  0.87433100  1
  Ce  Ce2  1  0.75010900  0.25088800  0.62394800  1
  Ce  Ce3  1  0.25010900  0.74911200  0.12394800  1
  Ce  Ce4  1  0.24989100  0.25088800  0.62394800  1
  Ce  Ce5  1  0.74989100  0.74911200  0.12394800  1
  Ce  Ce6  1  0.50000000  0.50071600  0.37433100  1
  Ce  Ce7  1  0.00000000  0.99923300  0.87383600  1
  Hf  Hf0  1  0.74687000  0.24917300  0.12202800  1
  Hf  Hf1  1  0.24687000  0.75082700  0.62202800  1
  Hf  Hf2  1  0.00000000  0.48764300  0.36776300  1
  Hf  Hf3  1  0.50000000  0.00426400  0.87551600  1
  Hf  Hf4  1  0.00000000  0.99573600  0.37551600  1
  Hf  Hf5  1  0.50000000  0.51235700  0.86776300  1
  Hf  Hf6  1  0.25313000  0.24917300  0.12202800  1
  Hf  Hf7  1  0.75313000  0.75082700  0.62202800  1
  O  O0  1  0.75735600  0.48678300  0.24689500  1
  O  O1  1  0.00000000  0.74517300  0.26305300  1
  O  O2  1  0.73640600  0.48831000  0.99689400  1
  O  O3  1  0.00000000  0.76162500  0.50457100  1
  O  O4  1  0.00000000  0.74828500  0.00015000  1
  O  O5  1  0.00000000  0.75080500  0.74027000  1
  O  O6  1  0.76359400  0.51169000  0.49689400  1
  O  O7  1  0.26418700  0.98998800  0.74756300  1
  O  O8  1  0.50000000  0.74802900  0.51175100  1
  O  O9  1  0.76418700  0.01001200  0.24756300  1
  O  O10  1  0.50000000  0.74658300  0.75148400  1
  O  O11  1  0.25735600  0.51321700  0.74689500  1
  O  O12  1  0.23640600  0.51169000  0.49689400  1
  O  O13  1  0.74236900  0.00944400  0.99712700  1
  O  O14  1  0.00000000  0.24517800  0.48880200  1
  O  O15  1  0.00000000  0.24953800  0.74938800  1
  O  O16  1  0.50000000  0.75046200  0.24938800  1
  O  O17  1  0.50000000  0.75482200  0.98880200  1
  O  O18  1  0.75763100  0.99055600  0.49712700  1
  O  O19  1  0.26359400  0.48831000  0.99689400  1
  O  O20  1  0.24264400  0.48678300  0.24689500  1
  O  O21  1  0.00000000  0.25341700  0.25148400  1
  O  O22  1  0.73581300  0.98998800  0.74756300  1
  O  O23  1  0.00000000  0.25197100  0.01175100  1
  O  O24  1  0.23581300  0.01001200  0.24756300  1
  O  O25  1  0.50000000  0.25171500  0.50015000  1
  O  O26  1  0.50000000  0.23837500  0.00457100  1
  O  O27  1  0.50000000  0.24919500  0.24027000  1
  O  O28  1  0.74264400  0.51321700  0.74689500  1
  O  O29  1  0.50000000  0.25482700  0.76305300  1
  O  O30  1  0.25763100  0.00944400  0.99712700  1
  O  O31  1  0.24236900  0.99055600  0.49712700  1
loop_
_geom_bond_atom_site_label_1
_geom_bond_atom_site_label_2
_geom_bond_distance
_geom_bond_site_symmetry_2
Ce0 O16 2.285402 1_545
Ce0 O25 2.300697 1_555
Ce0 O18 2.322053 1_545
Ce0 O31 2.322053 1_545
Ce0 O27 2.330892 1_555
Ce0 O9 2.379940 1_555
Ce0 O24 2.379940 1_555
Ce0 O8 2.384370 1_545
Ce1 O15 2.284999 1_555
Ce1 O4 2.285819 1_556
Ce1 O11 2.346255 1_555
Ce1 O28 2.346255 1_455
Ce1 O23 2.349176 1_556
Ce1 O5 2.352473 1_555
Ce1 O2 2.354941 1_455
Ce1 O19 2.354941 1_555
Ce2 O25 2.277650 1_555
Ce2 O15 2.286331 1_655
Ce2 O14 2.347544 1_655
Ce2 O22 2.348122 1_545
Ce2 O28 2.351335 1_555
Ce2 O18 2.361870 1_545
Ce2 O6 2.367628 1_555
Ce2 O29 2.374259 1_555
Ce3 O4 2.277650 1_555
Ce3 O16 2.286331 1_555
Ce3 O17 2.347544 1_554
Ce3 O24 2.348122 1_565
Ce3 O20 2.351335 1_555
Ce3 O30 2.361870 1_564
Ce3 O19 2.367628 1_554
Ce3 O1 2.374259 1_555
Ce4 O25 2.277650 1_555
Ce4 O15 2.286331 1_555
Ce4 O14 2.347544 1_555
Ce4 O7 2.348122 1_545
Ce4 O11 2.351335 1_555
Ce4 O31 2.361870 1_545
Ce4 O12 2.367628 1_555
Ce4 O29 2.374259 1_555
Ce5 O4 2.277650 1_655
Ce5 O16 2.286331 1_555
Ce5 O17 2.347544 1_554
Ce5 O9 2.348122 1_565
Ce5 O0 2.351335 1_555
Ce5 O13 2.361870 1_564
Ce5 O2 2.367628 1_554
Ce5 O1 2.374259 1_655
Ce6 O16 2.284999 1_555
Ce6 O25 2.285819 1_555
Ce6 O0 2.346255 1_555
Ce6 O20 2.346255 1_555
Ce6 O8 2.349176 1_555
Ce6 O27 2.352473 1_555
Ce6 O6 2.354941 1_555
Ce6 O12 2.354941 1_555
Ce7 O15 2.285402 1_565
Ce7 O4 2.300697 1_556
Ce7 O30 2.322053 1_565
Ce7 O13 2.322053 1_465
Ce7 O5 2.330892 1_555
Ce7 O7 2.379940 1_555
Ce7 O22 2.379940 1_455
Ce7 O23 2.384370 1_566
Hf0 O0 2.212493 1_555
Hf0 O23 2.218073 1_655
Hf0 O26 2.221283 1_555
Hf0 O2 2.223324 1_554
Hf0 O13 2.224305 1_554
Hf0 O27 2.224458 1_555
Hf0 O9 2.228364 1_555
Hf0 O21 2.330867 1_655
Hf1 O11 2.212493 1_555
Hf1 O8 2.218073 1_555
Hf1 O3 2.221283 1_555
Hf1 O12 2.223324 1_555
Hf1 O31 2.224305 1_555
Hf1 O5 2.224458 1_555
Hf1 O7 2.228364 1_555
Hf1 O10 2.330867 1_555
Hf2 O21 2.137533 1_555
Hf2 O20 2.214315 1_555
Hf2 O0 2.214315 1_455
Hf2 O14 2.216791 1_555
Hf2 O1 2.218927 1_555
Hf2 O12 2.235952 1_555
Hf2 O6 2.235952 1_455
Hf2 O3 2.505159 1_555
Hf3 O17 2.214315 1_545
Hf3 O29 2.216701 1_555
Hf3 O26 2.217078 1_556
Hf3 O30 2.217501 1_555
Hf3 O13 2.217501 1_555
Hf3 O22 2.220192 1_545
Hf3 O7 2.220192 1_545
Hf3 O10 2.328230 1_545
Hf4 O14 2.214315 1_565
Hf4 O1 2.216701 1_555
Hf4 O3 2.217078 1_555
Hf4 O31 2.217501 1_555
Hf4 O18 2.217501 1_455
Hf4 O9 2.220192 1_465
Hf4 O24 2.220192 1_565
Hf4 O21 2.328230 1_565
Hf5 O10 2.137533 1_555
Hf5 O28 2.214315 1_555
Hf5 O11 2.214315 1_555
Hf5 O17 2.216791 1_555
Hf5 O29 2.218927 1_555
Hf5 O19 2.235952 1_555
Hf5 O2 2.235952 1_555
Hf5 O26 2.505159 1_556
Hf6 O20 2.212493 1_555
Hf6 O23 2.218073 1_555
Hf6 O26 2.221283 1_555
Hf6 O19 2.223324 1_554
Hf6 O30 2.224305 1_554
Hf6 O27 2.224458 1_555
Hf6 O24 2.228364 1_555
Hf6 O21 2.330867 1_555
Hf7 O28 2.212493 1_555
Hf7 O8 2.218073 1_555
Hf7 O3 2.221283 1_655
Hf7 O6 2.223324 1_555
Hf7 O18 2.224305 1_555
Hf7 O5 2.224458 1_655
Hf7 O22 2.228364 1_555
Hf7 O10 2.330867 1_555
