# generated using pymatgen
data_LuHfRu2
_symmetry_space_group_name_H-M   'P 1'
_cell_length_a   4.60741062
_cell_length_b   4.60741062
_cell_length_c   4.60741062
_cell_angle_alpha   60.00000000
_cell_angle_beta   60.00000000
_cell_angle_gamma   60.00000000
_symmetry_Int_Tables_number   1
_chemical_formula_structural   LuHfRu2
_chemical_formula_sum   'Lu1 Hf1 Ru2'
_cell_volume   69.16012316
_cell_formula_units_Z   1
loop_
 _symmetry_equiv_pos_site_id
 _symmetry_equiv_pos_as_xyz
  1  'x, y, z'
loop_
 _atom_site_type_symbol
 _atom_site_label
 _atom_site_symmetry_multiplicity
 _atom_site_fract_x
 _atom_site_fract_y
 _atom_site_fract_z
 _atom_site_occupancy
  Lu  Lu0  1  0.75000100  0.75000100  0.75000100  1
  Hf  Hf0  1  0.25000100  0.25000100  0.25000100  1
  Ru  Ru0  1  -0.00000000  0.00000000  0.00000000  1
  Ru  Ru1  1  0.50000000  0.50000000  0.50000000  1
loop_
_geom_bond_atom_site_label_1
_geom_bond_atom_site_label_2
_geom_bond_distance
_geom_bond_site_symmetry_2
Lu0 Ru0 2.821440 1_666
Lu0 Ru1 2.821447 1_565
Lu0 Ru1 2.821447 1_556
Lu0 Ru1 2.821447 1_655
Lu0 Ru0 2.821455 1_665
Lu0 Ru0 2.821455 1_566
Lu0 Ru0 2.821455 1_656
Lu0 Ru1 2.821463 1_555
Hf0 Ru1 2.821440 1_555
Hf0 Ru0 2.821447 1_556
Hf0 Ru0 2.821447 1_565
Hf0 Ru0 2.821447 1_655
Hf0 Ru1 2.821455 1_545
Hf0 Ru1 2.821455 1_554
Hf0 Ru1 2.821455 1_455
Hf0 Ru0 2.821463 1_555
