# generated using pymatgen
data_Li4Nb3Fe3(SbO8)2
_symmetry_space_group_name_H-M   'P 1'
_cell_length_a   6.17775743
_cell_length_b   6.17775743
_cell_length_c   10.55421744
_cell_angle_alpha   89.25099637
_cell_angle_beta   89.25099637
_cell_angle_gamma   59.41833422
_symmetry_Int_Tables_number   1
_chemical_formula_structural   Li4Nb3Fe3(SbO8)2
_chemical_formula_sum   'Li4 Nb3 Fe3 Sb2 O16'
_cell_volume   346.73183030
_cell_formula_units_Z   1
loop_
 _symmetry_equiv_pos_site_id
 _symmetry_equiv_pos_as_xyz
  1  'x, y, z'
loop_
 _atom_site_type_symbol
 _atom_site_label
 _atom_site_symmetry_multiplicity
 _atom_site_fract_x
 _atom_site_fract_y
 _atom_site_fract_z
 _atom_site_occupancy
  Li  Li0  1  0.66911500  0.66911500  0.09846000  1
  Li  Li1  1  0.00113400  0.00113400  0.99741900  1
  Li  Li2  1  0.00251600  0.00251600  0.51143200  1
  Li  Li3  1  0.33642500  0.33642500  0.61097100  1
  Nb  Nb0  1  0.82681200  0.82681200  0.76970200  1
  Nb  Nb1  1  0.65975300  0.16275800  0.28070100  1
  Nb  Nb2  1  0.16275800  0.65975300  0.28070100  1
  Fe  Fe0  1  0.81717200  0.34561900  0.78730500  1
  Fe  Fe1  1  0.34561900  0.81717200  0.78730500  1
  Fe  Fe2  1  0.16764400  0.16764400  0.29236200  1
  Sb  Sb0  1  0.64558400  0.64558400  0.50688500  1
  Sb  Sb1  1  0.32415100  0.32415100  0.98041700  1
  O  O0  1  0.83485700  0.30540200  0.40177100  1
  O  O1  1  0.51818600  0.51818600  0.65734900  1
  O  O2  1  0.67969600  0.67969600  0.89498300  1
  O  O3  1  0.99567100  0.99567100  0.69069000  1
  O  O4  1  0.99765000  0.99765000  0.18123800  1
  O  O5  1  0.30540200  0.83485700  0.40177100  1
  O  O6  1  0.98031800  0.52015700  0.67304800  1
  O  O7  1  0.52015700  0.98031800  0.67304800  1
  O  O8  1  0.15676000  0.15676000  0.89098400  1
  O  O9  1  0.85601200  0.85601200  0.39299100  1
  O  O10  1  0.50490100  0.01651900  0.18436500  1
  O  O11  1  0.01651900  0.50490100  0.18436500  1
  O  O12  1  0.34462500  0.34462500  0.39467400  1
  O  O13  1  0.67803200  0.16062600  0.89304100  1
  O  O14  1  0.49287100  0.49287100  0.18131900  1
  O  O15  1  0.16062600  0.67803200  0.89304100  1
loop_
_geom_bond_atom_site_label_1
_geom_bond_atom_site_label_2
_geom_bond_distance
_geom_bond_site_symmetry_2
Li0 O11 2.066079 1_655
Li0 O10 2.066079 1_565
Li0 O14 2.071757 1_555
Li0 O2 2.148833 1_554
Li1 O4 1.939863 1_446
Li1 O8 1.998651 1_555
Li1 O15 2.048542 1_545
Li1 O13 2.048542 1_455
Li2 O3 1.892248 1_445
Li2 O5 1.978949 1_545
Li2 O0 1.978949 1_455
Li2 O9 2.023261 1_445
Li3 O6 1.999569 1_455
Li3 O7 1.999569 1_545
Li3 O1 2.018164 1_555
Li3 O12 2.283217 1_555
Nb0 O6 1.930294 1_555
Nb0 O7 1.930294 1_555
Nb0 O3 1.983333 1_555
Nb0 O2 2.044011 1_555
Nb0 O15 2.214120 1_655
Nb0 O13 2.214120 1_565
Nb1 O10 1.921972 1_555
Nb1 O9 2.026470 1_545
Nb1 O14 2.038391 1_555
Nb1 O12 2.061004 1_555
Nb1 O4 2.074607 1_545
Nb1 O0 2.148267 1_555
Nb2 O11 1.921972 1_555
Nb2 O9 2.026470 1_455
Nb2 O14 2.038391 1_555
Nb2 O12 2.061004 1_555
Nb2 O4 2.074607 1_455
Nb2 O5 2.148267 1_555
Fe0 O13 2.057056 1_555
Fe0 O1 2.110397 1_555
Fe0 O8 2.120341 1_655
Fe0 O2 2.127168 1_555
Fe0 O3 2.128857 1_545
Fe0 O6 2.161632 1_555
Fe1 O15 2.057056 1_555
Fe1 O1 2.110397 1_555
Fe1 O8 2.120341 1_565
Fe1 O2 2.127168 1_555
Fe1 O3 2.128857 1_455
Fe1 O7 2.161632 1_555
Fe2 O0 2.113673 1_455
Fe2 O5 2.113673 1_545
Fe2 O10 2.120902 1_555
Fe2 O11 2.120902 1_555
Fe2 O4 2.183554 1_445
Fe2 O12 2.198846 1_555
O0 Sb0 2.131005 1_555
O1 Sb0 2.079811 1_555
O5 Sb0 2.131005 1_555
O6 Sb0 2.526071 1_555
O7 Sb0 2.526071 1_555
O8 Sb1 2.041769 1_555
O9 Sb0 2.542177 1_555
O13 Sb1 2.091601 1_555
O15 Sb1 2.091601 1_555
