# generated using pymatgen
data_Li3Mn2(PO4)3
_symmetry_space_group_name_H-M   'P 1'
_cell_length_a   9.74116260
_cell_length_b   9.74116260
_cell_length_c   9.89590508
_cell_angle_alpha   85.16108906
_cell_angle_beta   85.16108906
_cell_angle_gamma   88.98325897
_symmetry_Int_Tables_number   1
_chemical_formula_structural   Li3Mn2(PO4)3
_chemical_formula_sum   'Li12 Mn8 P12 O48'
_cell_volume   932.28965843
_cell_formula_units_Z   4
loop_
 _symmetry_equiv_pos_site_id
 _symmetry_equiv_pos_as_xyz
  1  'x, y, z'
loop_
 _atom_site_type_symbol
 _atom_site_label
 _atom_site_symmetry_multiplicity
 _atom_site_fract_x
 _atom_site_fract_y
 _atom_site_fract_z
 _atom_site_occupancy
  Li  Li0  1  0.21018000  0.03199700  0.41415900  1
  Li  Li1  1  0.49421300  0.80998100  0.52290500  1
  Li  Li2  1  0.96800300  0.78982000  0.58584100  1
  Li  Li3  1  0.19001900  0.50578700  0.47709500  1
  Li  Li4  1  0.47185400  0.03736000  0.25722600  1
  Li  Li5  1  0.96264000  0.52814600  0.74277400  1
  Li  Li6  1  0.25542900  0.34547000  0.74613200  1
  Li  Li7  1  0.65453000  0.74457100  0.25386800  1
  Li  Li8  1  0.80510600  0.51182100  0.00308800  1
  Li  Li9  1  0.99996300  0.23066800  0.91264400  1
  Li  Li10  1  0.48817900  0.19489400  0.99691200  1
  Li  Li11  1  0.76933200  0.00003700  0.08735600  1
  Mn  Mn0  1  0.24132800  0.96717800  0.77811000  1
  Mn  Mn1  1  0.97384500  0.24512900  0.27725000  1
  Mn  Mn2  1  0.53079600  0.46920400  0.50000000  1
  Mn  Mn3  1  0.74260800  0.25739200  0.50000000  1
  Mn  Mn4  1  0.25960700  0.74039300  0.00000000  1
  Mn  Mn5  1  0.03282200  0.75867200  0.22189000  1
  Mn  Mn6  1  0.47144900  0.52855100  0.00000000  1
  Mn  Mn7  1  0.75487100  0.02615500  0.72275000  1
  P  P0  1  0.83315400  0.95345400  0.40455800  1
  P  P1  1  0.34657300  0.67500300  0.30079700  1
  P  P2  1  0.84385900  0.55770700  0.43174800  1
  P  P3  1  0.32499700  0.65342700  0.69920300  1
  P  P4  1  0.95226200  0.82178500  0.90871500  1
  P  P5  1  0.55877400  0.83868900  0.93482800  1
  P  P6  1  0.44229300  0.15614100  0.56825200  1
  P  P7  1  0.04654600  0.16684600  0.59544200  1
  P  P8  1  0.67943700  0.33677700  0.80196300  1
  P  P9  1  0.16131100  0.44122600  0.06517200  1
  P  P10  1  0.66322300  0.32056300  0.19803700  1
  P  P11  1  0.17821500  0.04773800  0.09128500  1
  O  O0  1  0.72461800  0.90449600  0.31922900  1
  O  O1  1  0.97990200  0.89413400  0.37327700  1
  O  O2  1  0.43171300  0.79344400  0.34068100  1
  O  O3  1  0.18719000  0.68807900  0.33587300  1
  O  O4  1  0.80049400  0.91587200  0.56071600  1
  O  O5  1  0.89769600  0.62348400  0.28906500  1
  O  O6  1  0.38223100  0.53431000  0.37524200  1
  O  O7  1  0.31192100  0.81281000  0.66412700  1
  O  O8  1  0.68426400  0.59263300  0.43352600  1
  O  O9  1  0.89058300  0.96522900  0.86811300  1
  O  O10  1  0.61838200  0.89689200  0.79143400  1
  O  O11  1  0.91841900  0.60586700  0.54717900  1
  O  O12  1  0.46569000  0.61776900  0.62475800  1
  O  O13  1  0.62105800  0.32943900  0.35546600  1
  O  O14  1  0.87069500  0.39714800  0.42932600  1
  O  O15  1  0.39793100  0.86834900  0.93040400  1
  O  O16  1  0.11635200  0.83199000  0.87440000  1
  O  O17  1  0.20655600  0.56828700  0.65931900  1
  O  O18  1  0.90886600  0.70322400  0.83276200  1
  O  O19  1  0.60801700  0.90699600  0.05364900  1
  O  O20  1  0.33635600  0.61879300  0.85662700  1
  O  O21  1  0.16801000  0.88364800  0.12560000  1
  O  O22  1  0.40736700  0.31573600  0.56647400  1
  O  O23  1  0.08412800  0.19950600  0.43928400  1
  O  O24  1  0.91647400  0.79997400  0.06641100  1
  O  O25  1  0.59341700  0.68042200  0.94482200  1
  O  O26  1  0.83710200  0.11685700  0.37173500  1
  O  O27  1  0.67056100  0.37894200  0.64453400  1
  O  O28  1  0.39413300  0.08158100  0.45282100  1
  O  O29  1  0.09550400  0.27538200  0.68077100  1
  O  O30  1  0.80825500  0.40136000  0.84677500  1
  O  O31  1  0.60285200  0.12930500  0.57067400  1
  O  O32  1  0.88314300  0.16289800  0.62826500  1
  O  O33  1  0.13165100  0.60206900  0.06959600  1
  O  O34  1  0.38120700  0.66364400  0.14337300  1
  O  O35  1  0.54042000  0.38011800  0.87496900  1
  O  O36  1  0.09300400  0.39198300  0.94635100  1
  O  O37  1  0.10586600  0.02009800  0.62672300  1
  O  O38  1  0.37651600  0.10230400  0.71093500  1
  O  O39  1  0.31957800  0.40658300  0.05517800  1
  O  O40  1  0.68092100  0.17640400  0.83457500  1
  O  O41  1  0.61988200  0.45958000  0.12503100  1
  O  O42  1  0.10310800  0.38161800  0.20856600  1
  O  O43  1  0.20002600  0.08352600  0.93358900  1
  O  O44  1  0.82359600  0.31907900  0.16542500  1
  O  O45  1  0.59864000  0.19174500  0.15322500  1
  O  O46  1  0.03477100  0.10941700  0.13188700  1
  O  O47  1  0.29677600  0.09113400  0.16723800  1
loop_
_geom_bond_atom_site_label_1
_geom_bond_atom_site_label_2
_geom_bond_distance
_geom_bond_site_symmetry_2
Li0 O28 1.941183 1_555
Li0 O23 2.043997 1_555
Li0 O37 2.252372 1_555
Li0 O47 2.538930 1_555
Li1 O2 1.971322 1_555
Li1 O12 2.061967 1_555
Li1 O7 2.166367 1_555
Li2 O11 1.941183 1_555
Li2 O4 2.043997 1_555
Li2 O1 2.252372 1_555
Li2 O18 2.538930 1_555
Li3 O17 1.971322 1_555
Li3 O6 2.061967 1_555
Li3 O3 2.166367 1_555
Li4 O47 2.030229 1_555
Li4 O28 2.094545 1_555
Li4 O45 2.106320 1_555
Li4 O2 2.475456 1_545
Li5 O18 2.030229 1_555
Li5 O11 2.094545 1_555
Li5 O30 2.106320 1_555
Li5 O17 2.475456 1_655
Li6 O29 1.895692 1_555
Li6 O22 2.250118 1_555
Li6 O17 2.322390 1_555
Li6 O36 2.496306 1_555
Li7 O0 1.895692 1_555
Li7 O8 2.250118 1_555
Li7 O2 2.322390 1_555
Li7 O19 2.496306 1_555
Li8 O30 1.955290 1_554
Li8 O41 2.128924 1_555
Li8 O44 2.380393 1_555
Li8 O18 2.566748 1_554
Li9 O36 1.895245 1_655
Li9 O29 2.409674 1_655
Li9 O43 2.411286 1_655
Li9 O46 2.427919 1_656
Li9 O30 2.566964 1_555
Li10 O45 1.955290 1_556
Li10 O35 2.128924 1_555
Li10 O40 2.380393 1_555
Li10 O47 2.566748 1_556
Li11 O19 1.895245 1_545
Li11 O0 2.409674 1_545
Li11 O24 2.411286 1_545
Li11 O9 2.427919 1_544
Li11 O45 2.566964 1_555
Mn0 O38 1.917005 1_565
Mn0 O16 1.942613 1_555
Mn0 O43 1.996815 1_565
Mn0 O7 2.031000 1_555
Mn0 O37 2.104850 1_565
Mn0 O15 2.369859 1_555
Mn1 O42 1.891505 1_655
Mn1 O26 1.965123 1_555
Mn1 O44 1.996740 1_555
Mn1 O23 2.018953 1_655
Mn1 O46 2.078010 1_655
Mn1 O14 2.352741 1_555
Mn2 O8 1.969186 1_555
Mn2 O22 1.969186 1_555
Mn2 O6 2.039014 1_555
Mn2 O12 2.039014 1_555
Mn2 O13 2.178606 1_555
Mn2 O27 2.178606 1_555
Mn3 O14 1.910951 1_555
Mn3 O31 1.910951 1_555
Mn3 O13 2.006767 1_555
Mn3 O27 2.006767 1_555
Mn3 O32 2.093756 1_555
Mn3 O26 2.093756 1_555
Mn4 O33 1.897826 1_555
Mn4 O15 1.897826 1_554
Mn4 O20 2.012015 1_554
Mn4 O34 2.012015 1_555
Mn4 O21 2.085584 1_555
Mn4 O16 2.085584 1_554
Mn5 O5 1.917005 1_455
Mn5 O21 1.942613 1_555
Mn5 O24 1.996815 1_455
Mn5 O3 2.031000 1_555
Mn5 O1 2.104850 1_455
Mn5 O33 2.369859 1_555
Mn6 O25 1.927441 1_554
Mn6 O39 1.927441 1_555
Mn6 O35 2.049402 1_554
Mn6 O41 2.049402 1_555
Mn6 O34 2.140337 1_555
Mn6 O20 2.140337 1_554
Mn7 O10 1.891505 1_545
Mn7 O32 1.965123 1_555
Mn7 O40 1.996740 1_555
Mn7 O4 2.018953 1_545
Mn7 O9 2.078010 1_545
Mn7 O31 2.352741 1_555
O0 P0 1.514837 1_555
O1 P0 1.548999 1_555
O2 P1 1.529960 1_555
O3 P1 1.567393 1_555
O4 P0 1.564933 1_555
O5 P2 1.553586 1_555
O6 P1 1.548427 1_555
O7 P3 1.567393 1_555
O8 P2 1.584485 1_555
O9 P4 1.546326 1_555
O10 P5 1.552143 1_555
O11 P2 1.514895 1_555
O12 P3 1.548427 1_555
O13 P10 1.586427 1_555
O14 P2 1.582992 1_555
O15 P5 1.591735 1_555
O16 P4 1.608893 1_455
O17 P3 1.529960 1_555
O18 P4 1.514880 1_555
O19 P5 1.514571 1_554
O20 P3 1.578625 1_555
O21 P11 1.608893 1_565
O22 P6 1.584485 1_555
O23 P7 1.564933 1_555
O24 P4 1.567445 1_554
O25 P5 1.569063 1_555
O26 P0 1.597950 1_545
O27 P8 1.586427 1_555
O28 P6 1.514895 1_555
O29 P7 1.514837 1_555
O30 P8 1.528403 1_555
O31 P6 1.582992 1_555
O32 P7 1.597950 1_655
O33 P9 1.591735 1_555
O34 P1 1.578625 1_555
O35 P8 1.549236 1_555
O36 P9 1.514571 1_556
O37 P7 1.548999 1_555
O38 P6 1.553586 1_555
O39 P9 1.569063 1_555
O40 P8 1.568381 1_555
O41 P10 1.549236 1_555
O42 P9 1.552143 1_555
O43 P11 1.567445 1_556
O44 P10 1.568381 1_555
O45 P10 1.528403 1_555
O46 P11 1.546326 1_555
O47 P11 1.514880 1_555
