# generated using pymatgen
data_K2PtSe2
_symmetry_space_group_name_H-M   'P 1'
_cell_length_a   3.76905035
_cell_length_b   6.38687444
_cell_length_c   6.38687537
_cell_angle_alpha   70.62000530
_cell_angle_beta   72.83874333
_cell_angle_gamma   72.83874409
_symmetry_Int_Tables_number   1
_chemical_formula_structural   K2PtSe2
_chemical_formula_sum   'K2 Pt1 Se2'
_cell_volume   135.22322684
_cell_formula_units_Z   1
loop_
 _symmetry_equiv_pos_site_id
 _symmetry_equiv_pos_as_xyz
  1  'x, y, z'
loop_
 _atom_site_type_symbol
 _atom_site_label
 _atom_site_symmetry_multiplicity
 _atom_site_fract_x
 _atom_site_fract_y
 _atom_site_fract_z
 _atom_site_occupancy
  K  K0  1  0.20002361  0.29997639  0.29997639  1
  K  K1  1  0.79997639  0.70002361  0.70002361  1
  Pt  Pt0  1  0.00000000  0.00000000  0.00000000  1
  Se  Se0  1  0.50000000  0.77886520  0.22113480  1
  Se  Se1  1  0.50000000  0.22113480  0.77886520  1
loop_
_geom_bond_atom_site_label_1
_geom_bond_atom_site_label_2
_geom_bond_distance
_geom_bond_site_symmetry_2
K0 Se0 3.341394 1_545
K0 Se1 3.341394 1_554
K0 Se0 3.401402 1_555
K0 Se1 3.401402 1_555
K0 Se0 3.401402 1_455
K0 Se1 3.401403 1_455
K0 Pt0 3.471408 1_555
K0 Pt0 3.471409 1_655
K1 Se1 3.341394 1_565
K1 Se0 3.341394 1_556
K1 Se1 3.401402 1_555
K1 Se0 3.401402 1_555
K1 Se1 3.401402 1_655
K1 Se0 3.401403 1_655
K1 Pt0 3.471408 1_666
K1 Pt0 3.471409 1_566
Pt0 Se1 2.493413 1_554
Pt0 Se0 2.493413 1_445
Pt0 Se0 2.493413 1_545
Pt0 Se1 2.493413 1_454
