# generated using pymatgen
data_Sm2ZnIr
_symmetry_space_group_name_H-M   'P 1'
_cell_length_a   5.03608803
_cell_length_b   5.03608803
_cell_length_c   5.03608803
_cell_angle_alpha   60.00000000
_cell_angle_beta   60.00000000
_cell_angle_gamma   60.00000000
_symmetry_Int_Tables_number   1
_chemical_formula_structural   Sm2ZnIr
_chemical_formula_sum   'Sm2 Zn1 Ir1'
_cell_volume   90.31605140
_cell_formula_units_Z   1
loop_
 _symmetry_equiv_pos_site_id
 _symmetry_equiv_pos_as_xyz
  1  'x, y, z'
loop_
 _atom_site_type_symbol
 _atom_site_label
 _atom_site_symmetry_multiplicity
 _atom_site_fract_x
 _atom_site_fract_y
 _atom_site_fract_z
 _atom_site_occupancy
  Sm  Sm0  1  0.25000000  0.25000000  0.25000000  1
  Sm  Sm1  1  0.75000000  0.75000000  0.75000000  1
  Zn  Zn0  1  0.00000000  0.00000000  0.00000000  1
  Ir  Ir0  1  0.50000000  0.50000000  0.50000000  1
loop_
_geom_bond_atom_site_label_1
_geom_bond_atom_site_label_2
_geom_bond_distance
_geom_bond_site_symmetry_2
Sm0 Zn0 3.083961 1_565
Sm0 Zn0 3.083961 1_655
Sm0 Zn0 3.083961 1_555
Sm0 Zn0 3.083961 1_556
Sm1 Zn0 3.083961 1_566
Sm1 Zn0 3.083961 1_665
Sm1 Zn0 3.083961 1_666
Sm1 Zn0 3.083961 1_656
Ir0 Sm1 3.083961 1_554
Ir0 Sm0 3.083961 1_655
Ir0 Sm1 3.083961 1_555
Ir0 Sm1 3.083961 1_545
Ir0 Sm1 3.083961 1_455
Ir0 Sm0 3.083961 1_556
Ir0 Sm0 3.083961 1_555
Ir0 Sm0 3.083961 1_565
