# generated using pymatgen
data_K2HfF6
_symmetry_space_group_name_H-M   'P 1'
_cell_length_a   6.06128031
_cell_length_b   6.06128031
_cell_length_c   8.87115087
_cell_angle_alpha   90.00000000
_cell_angle_beta   90.00000000
_cell_angle_gamma   90.00000000
_symmetry_Int_Tables_number   1
_chemical_formula_structural   K2HfF6
_chemical_formula_sum   'K4 Hf2 F12'
_cell_volume   325.91826745
_cell_formula_units_Z   2
loop_
 _symmetry_equiv_pos_site_id
 _symmetry_equiv_pos_as_xyz
  1  'x, y, z'
loop_
 _atom_site_type_symbol
 _atom_site_label
 _atom_site_symmetry_multiplicity
 _atom_site_fract_x
 _atom_site_fract_y
 _atom_site_fract_z
 _atom_site_occupancy
  K  K0  1  -0.00000000  0.50000000  0.25000000  1
  K  K1  1  0.50000000  0.00000000  0.25000000  1
  K  K2  1  0.50000000  0.00000000  0.75000000  1
  K  K3  1  -0.00000000  0.50000000  0.75000000  1
  Hf  Hf0  1  -0.00000000  0.00000000  -0.00000000  1
  Hf  Hf1  1  0.50000000  0.50000000  0.50000000  1
  F  F0  1  0.35459121  0.20650553  0.50000000  1
  F  F1  1  0.64540879  0.79349447  0.50000000  1
  F  F2  1  0.70650553  0.85459121  -0.00000000  1
  F  F3  1  0.20650553  0.64540879  0.50000000  1
  F  F4  1  0.79349447  0.35459121  0.50000000  1
  F  F5  1  0.14540879  0.70650553  0.00000000  1
  F  F6  1  -0.00000000  0.00000000  0.22452281  1
  F  F7  1  0.50000000  0.50000000  0.27547719  1
  F  F8  1  -0.00000000  0.00000000  0.77547719  1
  F  F9  1  0.50000000  0.50000000  0.72452281  1
  F  F10  1  0.29349447  0.14540879  0.00000000  1
  F  F11  1  0.85459121  0.29349447  0.00000000  1
loop_
_geom_bond_atom_site_label_1
_geom_bond_atom_site_label_2
_geom_bond_distance
_geom_bond_site_symmetry_2
F0 Hf1 1.985314 1_555
F0 K1 2.694830 1_555
F0 K2 2.694830 1_555
F1 Hf1 1.985314 1_555
F1 K2 2.694830 1_565
F1 K1 2.694830 1_565
F2 Hf0 1.985314 1_665
F2 K1 2.694830 1_565
F2 K2 2.694830 1_564
F3 Hf1 1.985314 1_555
F3 K0 2.694830 1_555
F3 K3 2.694830 1_555
F4 Hf1 1.985314 1_555
F4 K3 2.694830 1_655
F4 K0 2.694830 1_655
F5 Hf0 1.985314 1_565
F5 K0 2.694830 1_555
F5 K3 2.694830 1_554
F6 Hf0 1.991776 1_555
F6 K0 3.039056 1_555
F6 K1 3.039056 1_555
F6 K0 3.039056 1_545
F6 K1 3.039056 1_455
F7 Hf1 1.991776 1_555
F7 K0 3.039056 1_555
F7 K1 3.039056 1_555
F7 K0 3.039056 1_655
F7 K1 3.039056 1_565
F8 Hf0 1.991776 1_556
F8 K3 3.039056 1_555
F8 K2 3.039056 1_455
F8 K3 3.039056 1_545
F8 K2 3.039056 1_555
F9 Hf1 1.991776 1_555
F9 K3 3.039056 1_555
F9 K3 3.039056 1_655
F9 K2 3.039056 1_555
F9 K2 3.039056 1_565
F10 Hf0 1.985314 1_555
F10 K2 2.694830 1_554
F10 K1 2.694830 1_555
F11 Hf0 1.985314 1_655
F11 K0 2.694830 1_655
F11 K3 2.694830 1_654
