# generated using pymatgen
data_Sr3Co(CN)3
_symmetry_space_group_name_H-M   'P 1'
_cell_length_a   8.71567615
_cell_length_b   8.71567615
_cell_length_c   5.43335000
_cell_angle_alpha   90.00000000
_cell_angle_beta   90.00000000
_cell_angle_gamma   120.00000114
_symmetry_Int_Tables_number   1
_chemical_formula_structural   Sr3Co(CN)3
_chemical_formula_sum   'Sr6 Co2 C6 N6'
_cell_volume   357.43779967
_cell_formula_units_Z   2
loop_
 _symmetry_equiv_pos_site_id
 _symmetry_equiv_pos_as_xyz
  1  'x, y, z'
loop_
 _atom_site_type_symbol
 _atom_site_label
 _atom_site_symmetry_multiplicity
 _atom_site_fract_x
 _atom_site_fract_y
 _atom_site_fract_z
 _atom_site_occupancy
  Sr  Sr0  1  0.30745200  0.93461300  0.75000000  1
  Sr  Sr1  1  0.06538700  0.37283900  0.75000000  1
  Sr  Sr2  1  0.93461300  0.62716100  0.25000000  1
  Sr  Sr3  1  0.69254800  0.06538700  0.25000000  1
  Sr  Sr4  1  0.62716100  0.69254800  0.75000000  1
  Sr  Sr5  1  0.37283900  0.30745200  0.25000000  1
  Co  Co0  1  0.66666700  0.33333300  0.75000000  1
  Co  Co1  1  0.33333300  0.66666700  0.25000000  1
  C  C0  1  0.45140300  0.30292500  0.75000000  1
  C  C1  1  0.69707500  0.14847800  0.75000000  1
  C  C2  1  0.30292500  0.85152200  0.25000000  1
  C  C3  1  0.54859700  0.69707500  0.25000000  1
  C  C4  1  0.85152200  0.54859700  0.75000000  1
  C  C5  1  0.14847800  0.45140300  0.25000000  1
  N  N0  1  0.29558700  0.27247900  0.75000000  1
  N  N1  1  0.72752100  0.02310800  0.75000000  1
  N  N2  1  0.27247900  0.97689200  0.25000000  1
  N  N3  1  0.02310800  0.29558700  0.25000000  1
  N  N4  1  0.70441300  0.72752100  0.25000000  1
  N  N5  1  0.97689200  0.70441300  0.75000000  1
loop_
_geom_bond_atom_site_label_1
_geom_bond_atom_site_label_2
_geom_bond_distance
_geom_bond_site_symmetry_2
C0 N0 1.246726 1_555
C0 Co0 1.758699 1_555
C1 N1 1.246726 1_555
C1 Co0 1.758691 1_555
C2 N2 1.246726 1_555
C2 Co1 1.758691 1_555
C3 N4 1.246726 1_555
C3 Co1 1.758699 1_555
C4 N5 1.246726 1_555
C4 Co0 1.758696 1_555
C5 N3 1.246726 1_555
C5 Co1 1.758696 1_555
N0 Sr1 2.558419 1_555
N1 Sr4 2.558419 1_545
N2 Sr5 2.558419 1_565
N3 Sr3 2.558419 1_455
N4 Sr2 2.558419 1_555
N5 Sr0 2.558419 1_655
