# generated using pymatgen
data_Li8MnFe7(BO3)8
_symmetry_space_group_name_H-M   'P 1'
_cell_length_a   5.22889300
_cell_length_b   9.05516099
_cell_length_c   11.51277162
_cell_angle_alpha   112.15346392
_cell_angle_beta   102.53605316
_cell_angle_gamma   89.78291846
_symmetry_Int_Tables_number   1
_chemical_formula_structural   Li8MnFe7(BO3)8
_chemical_formula_sum   'Li8 Mn1 Fe7 B8 O24'
_cell_volume   490.99369628
_cell_formula_units_Z   1
loop_
 _symmetry_equiv_pos_site_id
 _symmetry_equiv_pos_as_xyz
  1  'x, y, z'
loop_
 _atom_site_type_symbol
 _atom_site_label
 _atom_site_symmetry_multiplicity
 _atom_site_fract_x
 _atom_site_fract_y
 _atom_site_fract_z
 _atom_site_occupancy
  Li  Li0  1  0.02990400  0.04193700  0.41657500  1
  Li  Li1  1  0.29305400  0.28306000  0.91568900  1
  Li  Li2  1  0.48365800  0.50665900  0.66680000  1
  Li  Li3  1  0.26923900  0.24295700  0.16606700  1
  Li  Li4  1  0.52814000  0.54055700  0.41648300  1
  Li  Li5  1  0.79493300  0.78524200  0.91659500  1
  Li  Li6  1  0.98760800  0.00814300  0.66874200  1
  Li  Li7  1  0.76846300  0.74600500  0.16624900  1
  Mn  Mn0  1  0.24100300  0.56645900  0.13188200  1
  Fe  Fe0  1  0.03058500  0.35727100  0.38493100  1
  Fe  Fe1  1  0.27864000  0.93274200  0.88228800  1
  Fe  Fe2  1  0.47077600  0.15085700  0.62996100  1
  Fe  Fe3  1  0.52942700  0.85579700  0.38348000  1
  Fe  Fe4  1  0.76570800  0.43268800  0.87872100  1
  Fe  Fe5  1  0.74735500  0.07017500  0.13438400  1
  Fe  Fe6  1  0.97134200  0.65584800  0.63193300  1
  B  B0  1  0.02216900  0.68610200  0.37783100  1
  B  B1  1  0.26634400  0.60395700  0.87504100  1
  B  B2  1  0.23645500  0.89565000  0.12754100  1
  B  B3  1  0.47444500  0.81482100  0.62638600  1
  B  B4  1  0.52232400  0.18525000  0.37689800  1
  B  B5  1  0.76862900  0.10369100  0.87557700  1
  B  B6  1  0.73205400  0.39149900  0.12499400  1
  B  B7  1  0.97348000  0.31640500  0.62644900  1
  O  O0  1  0.02381700  0.10470200  0.86214500  1
  O  O1  1  0.10168300  0.71474400  0.84556000  1
  O  O2  1  0.16691300  0.49338700  0.91466000  1
  O  O3  1  0.08364200  0.17287300  0.61435100  1
  O  O4  1  0.10159500  0.42807000  0.59620000  1
  O  O5  1  0.23818500  0.84368900  0.66422000  1
  O  O6  1  0.26872000  0.66071400  0.34905400  1
  O  O7  1  0.52396300  0.60682000  0.86290200  1
  O  O8  1  0.60248400  0.21338800  0.84543200  1
  O  O9  1  0.40230500  0.08181000  0.41734400  1
  O  O10  1  0.39616100  0.31507600  0.36352800  1
  O  O11  1  0.66851600  0.99386700  0.91621500  1
  O  O12  1  0.34135200  0.01355400  0.09638700  1
  O  O13  1  0.58429300  0.67129100  0.61377500  1
  O  O14  1  0.60282400  0.92775500  0.59746000  1
  O  O15  1  0.40296700  0.79515500  0.16841000  1
  O  O16  1  0.46420300  0.37044300  0.11125500  1
  O  O17  1  0.73724900  0.34557400  0.66471500  1
  O  O18  1  0.76771000  0.15909100  0.34681600  1
  O  O19  1  0.90131200  0.58096200  0.41610700  1
  O  O20  1  0.89687500  0.81642800  0.36482500  1
  O  O21  1  0.83391800  0.51185300  0.09521100  1
  O  O22  1  0.90083300  0.29132600  0.16589900  1
  O  O23  1  0.96594600  0.87685900  0.11363000  1
loop_
_geom_bond_atom_site_label_1
_geom_bond_atom_site_label_2
_geom_bond_distance
_geom_bond_site_symmetry_2
Li0 O18 1.950268 1_455
Li0 O9 1.979302 1_555
Li0 O20 1.980399 1_445
Li0 O3 2.087576 1_555
Li1 O8 1.961031 1_555
Li1 O0 1.964688 1_555
Li1 O2 2.016576 1_555
Li1 O16 2.069624 1_556
Li2 O13 1.924500 1_555
Li2 O17 1.964502 1_555
Li2 O4 2.006935 1_555
Li2 O7 2.052980 1_555
Li3 O16 1.899399 1_555
Li3 O22 1.973654 1_455
Li3 O12 1.992342 1_555
Li3 O10 2.064852 1_555
Li4 O6 1.948127 1_555
Li4 O10 1.976358 1_555
Li4 O19 1.987872 1_555
Li4 O13 2.081347 1_555
Li5 O1 1.953708 1_655
Li5 O7 1.970752 1_555
Li5 O11 2.000327 1_555
Li5 O23 2.083113 1_556
Li6 O3 1.927677 1_655
Li6 O5 1.973167 1_645
Li6 O14 2.023676 1_545
Li6 O0 2.026844 1_655
Li7 O23 1.912971 1_555
Li7 O15 1.963924 1_555
Li7 O21 2.022335 1_555
Li7 O20 2.078799 1_555
Mn0 O16 2.087028 1_555
Mn0 O15 2.093920 1_555
Mn0 O21 2.100978 1_455
Mn0 O2 2.274957 1_554
Mn0 O6 2.288006 1_555
Fe0 O10 1.997171 1_555
Fe0 O19 2.057977 1_455
Fe0 O18 2.113128 1_455
Fe0 O4 2.213290 1_555
Fe0 O22 2.302265 1_455
Fe1 O11 2.028479 1_555
Fe1 O1 2.036209 1_555
Fe1 O0 2.091960 1_565
Fe1 O12 2.238132 1_566
Fe1 O5 2.289515 1_555
Fe2 O3 2.008929 1_555
Fe2 O14 2.056585 1_545
Fe2 O17 2.110672 1_555
Fe2 O9 2.231120 1_555
Fe2 O8 2.269495 1_555
Fe3 O20 1.995241 1_555
Fe3 O9 2.069486 1_565
Fe3 O6 2.095626 1_555
Fe3 O14 2.240886 1_555
Fe3 O15 2.266316 1_555
Fe4 O8 2.028688 1_555
Fe4 O7 2.053978 1_555
Fe4 O2 2.082000 1_655
Fe4 O17 2.256255 1_555
Fe4 O21 2.263119 1_556
Fe5 O22 2.030696 1_555
Fe5 O23 2.053227 1_545
Fe5 O12 2.096923 1_555
Fe5 O18 2.245778 1_555
Fe5 O11 2.280336 1_544
Fe6 O13 1.998854 1_555
Fe6 O5 2.072240 1_655
Fe6 O4 2.087665 1_655
Fe6 O1 2.254693 1_655
Fe6 O19 2.259224 1_555
B0 O20 1.388940 1_455
B0 O19 1.393490 1_455
B0 O6 1.396548 1_555
B1 O7 1.385460 1_555
B1 O2 1.390012 1_555
B1 O1 1.409360 1_555
B2 O23 1.392207 1_455
B2 O15 1.395215 1_555
B2 O12 1.395701 1_565
B3 O13 1.388674 1_555
B3 O5 1.389061 1_555
B3 O14 1.402279 1_555
B4 O10 1.388318 1_555
B4 O9 1.395800 1_555
B4 O18 1.396826 1_555
B5 O0 1.376672 1_655
B5 O11 1.393937 1_545
B5 O8 1.408702 1_555
B6 O16 1.380602 1_555
B6 O21 1.398032 1_555
B6 O22 1.399681 1_555
B7 O3 1.390348 1_655
B7 O17 1.391270 1_555
B7 O4 1.401582 1_655
