# generated using pymatgen
data_LiCoPO4
_symmetry_space_group_name_H-M   'P 1'
_cell_length_a   7.52190300
_cell_length_b   8.49533000
_cell_length_c   16.88228373
_cell_angle_alpha   60.10124674
_cell_angle_beta   90.00000000
_cell_angle_gamma   90.00000000
_symmetry_Int_Tables_number   1
_chemical_formula_structural   LiCoPO4
_chemical_formula_sum   'Li12 Co12 P12 O48'
_cell_volume   935.21612300
_cell_formula_units_Z   12
loop_
 _symmetry_equiv_pos_site_id
 _symmetry_equiv_pos_as_xyz
  1  'x, y, z'
loop_
 _atom_site_type_symbol
 _atom_site_label
 _atom_site_symmetry_multiplicity
 _atom_site_fract_x
 _atom_site_fract_y
 _atom_site_fract_z
 _atom_site_occupancy
  Li  Li0  1  0.66429700  0.66336500  0.40536700  1
  Li  Li1  1  0.82557700  0.31481700  0.75996000  1
  Li  Li2  1  0.66450200  0.01294200  0.08381900  1
  Li  Li3  1  0.16450200  0.98705800  0.41618100  1
  Li  Li4  1  0.32557700  0.68518300  0.74004000  1
  Li  Li5  1  0.16429700  0.33663500  0.09463300  1
  Li  Li6  1  0.83570300  0.66336500  0.90536700  1
  Li  Li7  1  0.67442300  0.31481700  0.25996000  1
  Li  Li8  1  0.83549800  0.01294200  0.58381900  1
  Li  Li9  1  0.33549800  0.98705800  0.91618100  1
  Li  Li10  1  0.17442300  0.68518300  0.24004000  1
  Li  Li11  1  0.33570300  0.33663500  0.59463300  1
  Co  Co0  1  0.95189700  0.31696200  0.92598100  1
  Co  Co1  1  0.04059800  0.65438200  0.58570200  1
  Co  Co2  1  0.40785700  0.00293900  0.25187400  1
  Co  Co3  1  0.90785700  0.99706100  0.24812600  1
  Co  Co4  1  0.54059800  0.34561800  0.91429800  1
  Co  Co5  1  0.45189700  0.68303800  0.57401900  1
  Co  Co6  1  0.54810300  0.31696200  0.42598100  1
  Co  Co7  1  0.45940200  0.65438200  0.08570200  1
  Co  Co8  1  0.09214300  0.00293900  0.75187400  1
  Co  Co9  1  0.59214300  0.99706100  0.74812600  1
  Co  Co10  1  0.95940200  0.34561800  0.41429800  1
  Co  Co11  1  0.04810300  0.68303800  0.07401900  1
  P  P0  1  0.26135200  0.63856900  0.41238500  1
  P  P1  1  0.22558000  0.32448200  0.77140900  1
  P  P2  1  0.26173200  0.03893600  0.06967100  1
  P  P3  1  0.76173200  0.96106400  0.43032900  1
  P  P4  1  0.72558000  0.67551800  0.72859100  1
  P  P5  1  0.76135200  0.36143100  0.08761500  1
  P  P6  1  0.23864800  0.63856900  0.91238500  1
  P  P7  1  0.27442000  0.32448200  0.27140900  1
  P  P8  1  0.23826800  0.03893600  0.56967100  1
  P  P9  1  0.73826800  0.96106400  0.93032900  1
  P  P10  1  0.77442000  0.67551800  0.22859100  1
  P  P11  1  0.73864800  0.36143100  0.58761500  1
  O  O0  1  0.43863600  0.56794100  0.39581400  1
  O  O1  1  0.89272600  0.42236700  0.62641700  1
  O  O2  1  0.76607400  0.10355100  0.96167500  1
  O  O3  1  0.38152500  0.26146300  0.83972600  1
  O  O4  1  0.23741800  0.57996600  0.51571500  1
  O  O5  1  0.76471400  0.78238200  0.28258600  1
  O  O6  1  0.27101100  0.93096800  0.17683700  1
  O  O7  1  0.04824400  0.27246400  0.82504800  1
  O  O8  1  0.44141500  0.13970600  0.03447200  1
  O  O9  1  0.23080500  0.52974100  0.69723200  1
  O  O10  1  0.11090600  0.18083700  0.03893000  1
  O  O11  1  0.26597000  0.85181800  0.36006400  1
  O  O12  1  0.73080500  0.47025900  0.80276800  1
  O  O13  1  0.76597000  0.14818200  0.13993600  1
  O  O14  1  0.61090600  0.81916300  0.46107000  1
  O  O15  1  0.94141500  0.86029400  0.46552800  1
  O  O16  1  0.54824400  0.72753600  0.67495200  1
  O  O17  1  0.77101100  0.06903200  0.32316300  1
  O  O18  1  0.73741800  0.42003400  0.98428500  1
  O  O19  1  0.88152500  0.73853700  0.66027400  1
  O  O20  1  0.26471400  0.21761800  0.21741400  1
  O  O21  1  0.26607400  0.89644900  0.53832500  1
  O  O22  1  0.39272600  0.57763300  0.87358300  1
  O  O23  1  0.93863600  0.43205900  0.10418600  1
  O  O24  1  0.06136400  0.56794100  0.89581400  1
  O  O25  1  0.60727400  0.42236700  0.12641700  1
  O  O26  1  0.73392600  0.10355100  0.46167500  1
  O  O27  1  0.73528600  0.78238200  0.78258600  1
  O  O28  1  0.11847500  0.26146300  0.33972600  1
  O  O29  1  0.26258200  0.57996600  0.01571500  1
  O  O30  1  0.22898900  0.93096800  0.67683700  1
  O  O31  1  0.45175600  0.27246400  0.32504800  1
  O  O32  1  0.05858500  0.13970600  0.53447200  1
  O  O33  1  0.38909400  0.18083700  0.53893000  1
  O  O34  1  0.23403000  0.85181800  0.86006400  1
  O  O35  1  0.26919500  0.52974100  0.19723200  1
  O  O36  1  0.73403000  0.14818200  0.63993600  1
  O  O37  1  0.88909400  0.81916300  0.96107000  1
  O  O38  1  0.76919500  0.47025900  0.30276800  1
  O  O39  1  0.55858500  0.86029400  0.96552800  1
  O  O40  1  0.95175600  0.72753600  0.17495200  1
  O  O41  1  0.72898900  0.06903200  0.82316300  1
  O  O42  1  0.23528600  0.21761800  0.71741400  1
  O  O43  1  0.76258200  0.42003400  0.48428500  1
  O  O44  1  0.61847500  0.73853700  0.16027400  1
  O  O45  1  0.23392600  0.89644900  0.03832500  1
  O  O46  1  0.10727400  0.57763300  0.37358300  1
  O  O47  1  0.56136400  0.43205900  0.60418600  1
loop_
_geom_bond_atom_site_label_1
_geom_bond_atom_site_label_2
_geom_bond_distance
_geom_bond_site_symmetry_2
Li0 O0 1.922156 1_555
Li0 O5 1.949366 1_555
Li0 O43 1.961922 1_555
Li0 O14 2.009546 1_555
Li1 O12 1.930205 1_555
Li1 O7 1.935966 1_655
Li1 O41 1.950660 1_555
Li1 O1 2.029570 1_555
Li2 O8 1.942978 1_555
Li2 O2 1.961108 1_554
Li2 O13 1.971084 1_555
Li2 O44 2.054379 1_545
Li3 O15 1.942978 1_455
Li3 O21 1.961108 1_555
Li3 O11 1.971084 1_555
Li3 O28 2.054379 1_565
Li4 O9 1.930205 1_555
Li4 O16 1.935966 1_555
Li4 O30 1.950660 1_555
Li4 O22 2.029570 1_555
Li5 O23 1.922156 1_455
Li5 O20 1.949366 1_555
Li5 O29 1.961922 1_555
Li5 O10 2.009546 1_555
Li6 O24 1.922156 1_655
Li6 O27 1.949366 1_555
Li6 O18 1.961922 1_555
Li6 O37 2.009546 1_555
Li7 O38 1.930205 1_555
Li7 O31 1.935966 1_555
Li7 O17 1.950660 1_555
Li7 O25 2.029570 1_555
Li8 O32 1.942978 1_655
Li8 O26 1.961108 1_555
Li8 O36 1.971084 1_555
Li8 O19 2.054379 1_545
Li9 O39 1.942978 1_555
Li9 O45 1.961108 1_556
Li9 O34 1.971084 1_555
Li9 O3 2.054379 1_565
Li10 O35 1.930205 1_555
Li10 O40 1.935966 1_455
Li10 O6 1.950660 1_555
Li10 O46 2.029570 1_555
Li11 O47 1.922156 1_555
Li11 O42 1.949366 1_555
Li11 O4 1.961922 1_555
Li11 O33 2.009546 1_555
Co0 O10 2.050737 1_656
Co0 O7 2.052762 1_655
Co0 O24 2.097825 1_655
Co0 O2 2.124760 1_555
Co0 O18 2.279811 1_555
Co0 O12 2.467370 1_555
Co1 O15 2.048063 1_455
Co1 O1 2.060091 1_455
Co1 O19 2.103579 1_455
Co1 O9 2.173886 1_555
Co1 O4 2.175347 1_555
Co1 O21 2.470900 1_555
Co2 O20 1.940652 1_555
Co2 O11 1.945665 1_545
Co2 O6 1.952004 1_545
Co3 O5 1.940652 1_555
Co3 O13 1.945665 1_565
Co3 O17 1.952004 1_565
Co4 O8 2.048063 1_556
Co4 O22 2.060091 1_555
Co4 O3 2.103579 1_555
Co4 O12 2.173886 1_555
Co4 O18 2.175347 1_555
Co4 O2 2.470900 1_555
Co5 O14 2.050737 1_555
Co5 O16 2.052762 1_555
Co5 O47 2.097825 1_555
Co5 O21 2.124760 1_555
Co5 O4 2.279811 1_555
Co5 O9 2.467370 1_555
Co6 O33 2.050737 1_555
Co6 O31 2.052762 1_555
Co6 O0 2.097825 1_555
Co6 O26 2.124760 1_555
Co6 O43 2.279811 1_555
Co6 O38 2.467370 1_555
Co7 O39 2.048063 1_554
Co7 O25 2.060091 1_555
Co7 O44 2.103579 1_555
Co7 O35 2.173886 1_555
Co7 O29 2.175347 1_555
Co7 O45 2.470900 1_555
Co8 O42 1.940652 1_555
Co8 O34 1.945665 1_545
Co8 O30 1.952004 1_545
Co9 O27 1.940652 1_555
Co9 O36 1.945665 1_565
Co9 O41 1.952004 1_565
Co10 O32 2.048063 1_655
Co10 O46 2.060091 1_655
Co10 O28 2.103579 1_655
Co10 O38 2.173886 1_555
Co10 O43 2.175347 1_555
Co10 O26 2.470900 1_555
Co11 O37 2.050737 1_454
Co11 O40 2.052762 1_455
Co11 O23 2.097825 1_455
Co11 O45 2.124760 1_555
Co11 O29 2.279811 1_555
Co11 O35 2.467370 1_555
O0 P0 1.543979 1_555
O1 P11 1.542191 1_555
O2 P9 1.558091 1_545
O3 P1 1.541814 1_555
O4 P0 1.567656 1_555
O5 P10 1.576538 1_555
O6 P2 1.570043 1_565
O7 P1 1.547791 1_555
O8 P2 1.550980 1_555
O9 P1 1.559942 1_555
O10 P2 1.544647 1_555
O11 P0 1.571016 1_555
O12 P4 1.559942 1_555
O13 P5 1.571016 1_555
O14 P3 1.544647 1_555
O15 P3 1.550980 1_555
O16 P4 1.547791 1_555
O17 P3 1.570043 1_545
O18 P5 1.567656 1_556
O19 P4 1.541814 1_555
O20 P7 1.576538 1_555
O21 P8 1.558091 1_565
O22 P6 1.542191 1_555
O23 P5 1.543979 1_555
O24 P6 1.543979 1_555
O25 P5 1.542191 1_555
O26 P3 1.558091 1_545
O27 P4 1.576538 1_555
O28 P7 1.541814 1_555
O29 P6 1.567656 1_554
O30 P8 1.570043 1_565
O31 P7 1.547791 1_555
O32 P8 1.550980 1_555
O33 P8 1.544647 1_555
O34 P6 1.571016 1_555
O35 P7 1.559942 1_555
O36 P11 1.571016 1_555
O37 P9 1.544647 1_555
O38 P10 1.559942 1_555
O39 P9 1.550980 1_555
O40 P10 1.547791 1_555
O41 P9 1.570043 1_545
O42 P1 1.576538 1_555
O43 P11 1.567656 1_555
O44 P10 1.541814 1_555
O45 P2 1.558091 1_565
O46 P0 1.542191 1_555
O47 P11 1.543979 1_555
