# generated using pymatgen
data_LiGeBO4
_symmetry_space_group_name_H-M   'P 1'
_cell_length_a   4.75614451
_cell_length_b   4.75614451
_cell_length_c   4.75614451
_cell_angle_alpha   122.68967318
_cell_angle_beta   122.68967318
_cell_angle_gamma   85.40124410
_symmetry_Int_Tables_number   1
_chemical_formula_structural   LiGeBO4
_chemical_formula_sum   'Li1 Ge1 B1 O4'
_cell_volume   72.72802250
_cell_formula_units_Z   1
loop_
 _symmetry_equiv_pos_site_id
 _symmetry_equiv_pos_as_xyz
  1  'x, y, z'
loop_
 _atom_site_type_symbol
 _atom_site_label
 _atom_site_symmetry_multiplicity
 _atom_site_fract_x
 _atom_site_fract_y
 _atom_site_fract_z
 _atom_site_occupancy
  Li  Li0  1  0.50000000  0.50000000  0.00000000  1
  Ge  Ge0  1  0.00000000  0.00000000  0.00000000  1
  B  B0  1  0.25000000  0.75000000  0.50000000  1
  O  O0  1  0.30066400  0.41961700  0.45508500  1
  O  O1  1  0.96453200  0.84557900  0.54491500  1
  O  O2  1  0.15442100  0.69933600  0.11895300  1
  O  O3  1  0.58038300  0.03546800  0.88104700  1
loop_
_geom_bond_atom_site_label_1
_geom_bond_atom_site_label_2
_geom_bond_distance
_geom_bond_site_symmetry_2
Li0 O2 2.023761 1_555
Li0 O3 2.023761 1_554
Li0 O1 2.023761 1_555
Li0 O0 2.023761 1_554
Ge0 O0 1.777935 1_555
Ge0 O2 1.777935 1_545
Ge0 O3 1.777935 1_454
Ge0 O1 1.777935 1_444
B0 O1 1.484970 1_455
B0 O3 1.484970 1_565
B0 O0 1.484970 1_555
B0 O2 1.484970 1_555
