# generated using pymatgen
data_LiMgB3(H9N)2
_symmetry_space_group_name_H-M   'P 1'
_cell_length_a   7.69744842
_cell_length_b   7.69744842
_cell_length_c   7.84838400
_cell_angle_alpha   90.00000000
_cell_angle_beta   90.00000000
_cell_angle_gamma   120.00000363
_symmetry_Int_Tables_number   1
_chemical_formula_structural   LiMgB3(H9N)2
_chemical_formula_sum   'Li2 Mg2 B6 H36 N4'
_cell_volume   402.72114654
_cell_formula_units_Z   2
loop_
 _symmetry_equiv_pos_site_id
 _symmetry_equiv_pos_as_xyz
  1  'x, y, z'
loop_
 _atom_site_type_symbol
 _atom_site_label
 _atom_site_symmetry_multiplicity
 _atom_site_fract_x
 _atom_site_fract_y
 _atom_site_fract_z
 _atom_site_occupancy
  Li  Li0  1  0.00000000  0.00000000  0.20810600  1
  Li  Li1  1  0.00000000  0.00000000  0.70810600  1
  Mg  Mg0  1  0.66666700  0.33333300  0.47744600  1
  Mg  Mg1  1  0.33333300  0.66666700  0.97744600  1
  B  B0  1  0.95054800  0.25507500  0.47114700  1
  B  B1  1  0.74492500  0.69547300  0.47114700  1
  B  B2  1  0.30452700  0.04945200  0.47114700  1
  B  B3  1  0.04945200  0.74492500  0.97114700  1
  B  B4  1  0.25507500  0.30452700  0.97114700  1
  B  B5  1  0.69547300  0.95054800  0.97114700  1
  H  H0  1  0.95448300  0.75378100  0.09268100  1
  H  H1  1  0.79929800  0.04551700  0.09268100  1
  H  H2  1  0.24621900  0.20070200  0.09268100  1
  H  H3  1  0.69533500  0.22644900  0.15690400  1
  H  H4  1  0.77355100  0.46888600  0.15690400  1
  H  H5  1  0.53111400  0.30466500  0.15690400  1
  H  H6  1  0.31817900  0.78215800  0.29755800  1
  H  H7  1  0.21784200  0.53602000  0.29755800  1
  H  H8  1  0.46398000  0.68182100  0.29755800  1
  H  H9  1  0.01643300  0.23415500  0.33539100  1
  H  H10  1  0.21772200  0.98356700  0.33539100  1
  H  H11  1  0.76584500  0.78227800  0.33539100  1
  H  H12  1  0.97421000  0.42612300  0.47177600  1
  H  H13  1  0.45191300  0.02579000  0.47177600  1
  H  H14  1  0.57387700  0.54808700  0.47177600  1
  H  H15  1  0.77306700  0.12630600  0.48514400  1
  H  H16  1  0.87369400  0.64676100  0.48514400  1
  H  H17  1  0.35323900  0.22693300  0.48514400  1
  H  H18  1  0.04551700  0.24621900  0.59268100  1
  H  H19  1  0.20070200  0.95448300  0.59268100  1
  H  H20  1  0.75378100  0.79929800  0.59268100  1
  H  H21  1  0.30466500  0.77355100  0.65690400  1
  H  H22  1  0.22644900  0.53111400  0.65690400  1
  H  H23  1  0.46888600  0.69533500  0.65690400  1
  H  H24  1  0.68182100  0.21784200  0.79755800  1
  H  H25  1  0.78215800  0.46398000  0.79755800  1
  H  H26  1  0.53602000  0.31817900  0.79755800  1
  H  H27  1  0.98356700  0.76584500  0.83539100  1
  H  H28  1  0.78227800  0.01643300  0.83539100  1
  H  H29  1  0.23415500  0.21772200  0.83539100  1
  H  H30  1  0.02579000  0.57387700  0.97177600  1
  H  H31  1  0.54808700  0.97421000  0.97177600  1
  H  H32  1  0.42612300  0.45191300  0.97177600  1
  H  H33  1  0.22693300  0.87369400  0.98514400  1
  H  H34  1  0.12630600  0.35323900  0.98514400  1
  H  H35  1  0.64676100  0.77306700  0.98514400  1
  N  N0  1  0.66666700  0.33333300  0.20652000  1
  N  N1  1  0.33333300  0.66666700  0.24812800  1
  N  N2  1  0.33333300  0.66666700  0.70652000  1
  N  N3  1  0.66666700  0.33333300  0.74812800  1
loop_
_geom_bond_atom_site_label_1
_geom_bond_atom_site_label_2
_geom_bond_distance
_geom_bond_site_symmetry_2
Mg0 N3 2.124416 1_555
Mg0 N0 2.126331 1_555
Mg1 N1 2.124416 1_556
Mg1 N2 2.126331 1_555
B0 H18 1.224210 1_655
B0 H9 1.224749 1_655
B0 H15 1.227510 1_555
B0 H12 1.235683 1_555
B1 H20 1.224210 1_555
B1 H11 1.224749 1_555
B1 H16 1.227510 1_555
B1 H14 1.235683 1_555
B2 H19 1.224210 1_545
B2 H10 1.224749 1_545
B2 H17 1.227510 1_555
B2 H13 1.235683 1_555
B3 H0 1.224210 1_456
B3 H27 1.224749 1_455
B3 H33 1.227510 1_555
B3 H30 1.235683 1_555
B4 H2 1.224210 1_556
B4 H29 1.224749 1_555
B4 H34 1.227510 1_555
B4 H32 1.235683 1_555
B5 H1 1.224210 1_566
B5 H28 1.224749 1_565
B5 H35 1.227510 1_555
B5 H31 1.235683 1_555
H0 Li0 1.967583 1_665
H1 Li0 1.967583 1_655
H2 Li0 1.967583 1_555
H3 N0 1.028969 1_555
H4 N0 1.028973 1_555
H5 N0 1.028976 1_555
H6 N1 1.028641 1_555
H7 N1 1.028649 1_555
H8 N1 1.028655 1_555
H9 Li0 2.008633 1_555
H10 Li0 2.008633 1_565
H11 Li0 2.008633 1_665
H12 Mg0 2.103660 1_555
H13 Mg0 2.103662 1_555
H14 Mg0 2.103668 1_555
H15 Mg0 2.125812 1_555
H16 Mg0 2.125818 1_555
H17 Mg0 2.125819 1_555
H18 Li1 1.967583 1_555
H19 Li1 1.967583 1_565
H20 Li1 1.967583 1_665
H21 N2 1.028969 1_555
H22 N2 1.028973 1_555
H23 N2 1.028976 1_555
H24 N3 1.028641 1_555
H25 N3 1.028649 1_555
H26 N3 1.028655 1_555
H27 Li1 2.008633 1_665
H28 Li1 2.008633 1_655
H29 Li1 2.008633 1_555
H30 Mg1 2.103660 1_555
H31 Mg1 2.103662 1_555
H32 Mg1 2.103668 1_555
H33 Mg1 2.125812 1_555
H34 Mg1 2.125818 1_555
H35 Mg1 2.125819 1_555
