# generated using pymatgen
data_CsAgO
_symmetry_space_group_name_H-M   'P 1'
_cell_length_a   6.19775459
_cell_length_b   7.89836283
_cell_length_c   7.89836241
_cell_angle_alpha   81.14502731
_cell_angle_beta   66.89954875
_cell_angle_gamma   66.89955099
_symmetry_Int_Tables_number   1
_chemical_formula_structural   CsAgO
_chemical_formula_sum   'Cs4 Ag4 O4'
_cell_volume   327.12422955
_cell_formula_units_Z   4
loop_
 _symmetry_equiv_pos_site_id
 _symmetry_equiv_pos_as_xyz
  1  'x, y, z'
loop_
 _atom_site_type_symbol
 _atom_site_label
 _atom_site_symmetry_multiplicity
 _atom_site_fract_x
 _atom_site_fract_y
 _atom_site_fract_z
 _atom_site_occupancy
  Cs  Cs0  1  0.55659974  0.19337326  0.19337326  1
  Cs  Cs1  1  0.25002701  0.80662674  0.19337326  1
  Cs  Cs2  1  0.94334725  0.80662674  0.80662674  1
  Cs  Cs3  1  0.25002701  0.19337326  0.80662674  1
  Ag  Ag0  1  0.89146820  0.21706559  0.50000000  1
  Ag  Ag1  1  0.60853180  0.78293441  0.50000000  1
  Ag  Ag2  1  0.60853180  0.50000000  0.78293441  1
  Ag  Ag3  1  0.89146820  0.50000000  0.21706559  1
  O  O0  1  0.46730093  0.78252747  0.78252747  1
  O  O1  1  0.75017059  0.21747253  0.78252747  1
  O  O2  1  0.75017059  0.78252747  0.21747253  1
  O  O3  1  0.03235688  0.21747253  0.21747253  1
loop_
_geom_bond_atom_site_label_1
_geom_bond_atom_site_label_2
_geom_bond_distance
_geom_bond_site_symmetry_2
Cs0 O1 2.989950 1_554
Cs0 O2 2.989950 1_545
Cs0 O3 3.107866 1_655
Cs0 O3 3.109641 1_555
Cs1 O0 2.989950 1_554
Cs1 O3 2.989950 1_565
Cs1 O2 3.107866 1_455
Cs1 O2 3.109641 1_555
Cs2 O2 2.989950 1_556
Cs2 O1 2.989950 1_565
Cs2 O0 3.107854 1_655
Cs2 O0 3.109653 1_555
Cs3 O3 2.989950 1_556
Cs3 O0 2.989950 1_545
Cs3 O1 3.107866 1_455
Cs3 O1 3.109641 1_555
Ag0 O1 2.052581 1_555
Ag0 O3 2.052581 1_655
Ag1 O0 2.052581 1_555
Ag1 O2 2.052581 1_555
Ag2 O0 2.052581 1_555
Ag2 O1 2.052581 1_555
Ag3 O2 2.052581 1_555
Ag3 O3 2.052581 1_655
