# generated using pymatgen
data_Sr2AgPt
_symmetry_space_group_name_H-M   'P 1'
_cell_length_a   5.37616538
_cell_length_b   5.37616538
_cell_length_c   5.37616538
_cell_angle_alpha   60.00000000
_cell_angle_beta   60.00000000
_cell_angle_gamma   60.00000000
_symmetry_Int_Tables_number   1
_chemical_formula_structural   Sr2AgPt
_chemical_formula_sum   'Sr2 Ag1 Pt1'
_cell_volume   109.87600561
_cell_formula_units_Z   1
loop_
 _symmetry_equiv_pos_site_id
 _symmetry_equiv_pos_as_xyz
  1  'x, y, z'
loop_
 _atom_site_type_symbol
 _atom_site_label
 _atom_site_symmetry_multiplicity
 _atom_site_fract_x
 _atom_site_fract_y
 _atom_site_fract_z
 _atom_site_occupancy
  Sr  Sr0  1  0.25000000  0.25000000  0.25000000  1
  Sr  Sr1  1  0.75000000  0.75000000  0.75000000  1
  Ag  Ag0  1  0.50000000  0.50000000  0.50000000  1
  Pt  Pt0  1  0.00000000  0.00000000  0.00000000  1
loop_
_geom_bond_atom_site_label_1
_geom_bond_atom_site_label_2
_geom_bond_distance
_geom_bond_site_symmetry_2
Ag0 Sr1 3.292215 1_455
Ag0 Sr0 3.292215 1_565
Ag0 Sr0 3.292215 1_655
Ag0 Sr1 3.292215 1_555
Ag0 Sr1 3.292215 1_545
Ag0 Sr0 3.292215 1_555
Ag0 Sr0 3.292215 1_556
Ag0 Sr1 3.292215 1_554
Pt0 Sr0 3.292215 1_545
Pt0 Sr1 3.292215 1_445
Pt0 Sr1 3.292215 1_544
Pt0 Sr1 3.292215 1_444
Pt0 Sr0 3.292215 1_455
Pt0 Sr1 3.292215 1_454
Pt0 Sr0 3.292215 1_555
Pt0 Sr0 3.292215 1_554
