# generated using pymatgen
data_Li3LaSb2
_symmetry_space_group_name_H-M   'P 1'
_cell_length_a   4.63793087
_cell_length_b   4.63793019
_cell_length_c   7.47384481
_cell_angle_alpha   90.00000000
_cell_angle_beta   90.00000000
_cell_angle_gamma   119.99999736
_symmetry_Int_Tables_number   1
_chemical_formula_structural   Li3LaSb2
_chemical_formula_sum   'Li3 La1 Sb2'
_cell_volume   139.22691422
_cell_formula_units_Z   1
loop_
 _symmetry_equiv_pos_site_id
 _symmetry_equiv_pos_as_xyz
  1  'x, y, z'
loop_
 _atom_site_type_symbol
 _atom_site_label
 _atom_site_symmetry_multiplicity
 _atom_site_fract_x
 _atom_site_fract_y
 _atom_site_fract_z
 _atom_site_occupancy
  Li  Li0  1  -0.00000000  0.00000000  0.50000000  1
  Li  Li1  1  0.66666700  0.33333300  0.35705648  1
  Li  Li2  1  0.33333300  0.66666700  0.64294352  1
  La  La0  1  -0.00000000  0.00000000  0.00000000  1
  Sb  Sb0  1  0.33333300  0.66666700  0.25864128  1
  Sb  Sb1  1  0.66666700  0.33333300  0.74135872  1
loop_
_geom_bond_atom_site_label_1
_geom_bond_atom_site_label_2
_geom_bond_distance
_geom_bond_site_symmetry_2
Li0 Li1 2.882961 1_455
Li0 Li2 2.882961 1_545
Li0 Li1 2.882965 1_445
Li0 Li2 2.882965 1_555
Li0 Li1 2.882965 1_555
Li0 Li2 2.882965 1_445
Li0 Sb1 3.228636 1_455
Li0 Sb0 3.228636 1_545
Li0 Sb0 3.228640 1_555
Li0 Sb1 3.228640 1_445
Li0 Sb0 3.228640 1_445
Li0 Sb1 3.228640 1_555
Li1 Sb0 2.776893 1_545
Li1 Sb0 2.776894 1_655
Li1 Sb0 2.776901 1_555
Li1 Sb1 2.872215 1_555
Li2 Sb1 2.776893 1_565
Li2 Sb1 2.776894 1_455
Li2 Sb1 2.776901 1_555
Li2 Sb0 2.872215 1_555
La0 Sb1 3.302542 1_454
La0 Sb0 3.302542 1_545
La0 Sb0 3.302545 1_555
La0 Sb1 3.302545 1_444
La0 Sb1 3.302545 1_554
La0 Sb0 3.302545 1_445
