# generated using pymatgen
data_VF4
_symmetry_space_group_name_H-M   'P 1'
_cell_length_a   7.13487753
_cell_length_b   4.84254053
_cell_length_c   7.29633107
_cell_angle_alpha   89.99986269
_cell_angle_beta   103.37256158
_cell_angle_gamma   89.99984394
_symmetry_Int_Tables_number   1
_chemical_formula_structural   VF4
_chemical_formula_sum   'V4 F16'
_cell_volume   245.25993372
_cell_formula_units_Z   4
loop_
 _symmetry_equiv_pos_site_id
 _symmetry_equiv_pos_as_xyz
  1  'x, y, z'
loop_
 _atom_site_type_symbol
 _atom_site_label
 _atom_site_symmetry_multiplicity
 _atom_site_fract_x
 _atom_site_fract_y
 _atom_site_fract_z
 _atom_site_occupancy
  V  V0  1  0.20652958  0.25192941  0.81632679  1
  V  V1  1  0.20652975  0.24804971  0.31633823  1
  V  V2  1  0.79346512  0.75192424  0.68367664  1
  V  V3  1  0.79346277  0.74805968  0.18366638  1
  F  F0  1  0.04169403  0.93404686  0.71128628  1
  F  F1  1  0.04169992  0.56596121  0.21127386  1
  F  F2  1  0.19151978  0.37553506  0.56072266  1
  F  F3  1  0.30453610  0.56219192  0.91343646  1
  F  F4  1  0.19150987  0.12448064  0.06070029  1
  F  F5  1  0.30453473  0.93779153  0.41344847  1
  F  F6  1  0.40441890  0.05463542  0.80868446  1
  F  F7  1  0.40445709  0.44536949  0.30866988  1
  F  F8  1  0.59557185  0.55461354  0.69130698  1
  F  F9  1  0.59553644  0.94538758  0.19131418  1
  F  F10  1  0.69546239  0.06220095  0.58656442  1
  F  F11  1  0.80848780  0.87551792  0.93928648  1
  F  F12  1  0.69545934  0.43779123  0.08654899  1
  F  F13  1  0.80849337  0.62449975  0.43929764  1
  F  F14  1  0.95832714  0.43408382  0.78872183  1
  F  F15  1  0.95830303  0.06592802  0.28872907  1
loop_
_geom_bond_atom_site_label_1
_geom_bond_atom_site_label_2
_geom_bond_distance
_geom_bond_site_symmetry_2
F0 V2 1.946818 1_455
F0 V0 1.980721 1_565
F1 V3 1.946814 1_455
F1 V1 1.980845 1_555
F2 V1 1.913220 1_555
F2 V0 1.937906 1_555
F3 V0 1.737589 1_555
F4 V0 1.913104 1_554
F4 V1 1.938076 1_555
F5 V1 1.737563 1_565
F6 V0 1.716340 1_555
F7 V1 1.716681 1_555
F8 V2 1.716393 1_555
F9 V3 1.716660 1_555
F10 V2 1.737640 1_545
F11 V3 1.913173 1_556
F11 V2 1.937915 1_555
F12 V3 1.737625 1_555
F13 V2 1.913123 1_555
F13 V3 1.938001 1_555
F14 V0 1.946720 1_655
F14 V2 1.980659 1_555
F15 V1 1.946803 1_655
F15 V3 1.980725 1_545
