# generated using pymatgen
data_K3CO3F
_symmetry_space_group_name_H-M   'P 1'
_cell_length_a   7.02067884
_cell_length_b   7.02067884
_cell_length_c   7.02067888
_cell_angle_alpha   65.34563334
_cell_angle_beta   65.34563334
_cell_angle_gamma   65.34562583
_symmetry_Int_Tables_number   1
_chemical_formula_structural   K3CO3F
_chemical_formula_sum   'K6 C2 O6 F2'
_cell_volume   273.16978630
_cell_formula_units_Z   2
loop_
 _symmetry_equiv_pos_site_id
 _symmetry_equiv_pos_as_xyz
  1  'x, y, z'
loop_
 _atom_site_type_symbol
 _atom_site_label
 _atom_site_symmetry_multiplicity
 _atom_site_fract_x
 _atom_site_fract_y
 _atom_site_fract_z
 _atom_site_occupancy
  K  K0  1  0.32494800  0.75000000  0.17505200  1
  K  K1  1  0.17505200  0.32494800  0.75000000  1
  K  K2  1  0.75000000  0.17505200  0.32494800  1
  K  K3  1  0.67505200  0.25000000  0.82494800  1
  K  K4  1  0.82494800  0.67505200  0.25000000  1
  K  K5  1  0.25000000  0.82494800  0.67505200  1
  C  C0  1  0.25000000  0.25000000  0.25000000  1
  C  C1  1  0.75000000  0.75000000  0.75000000  1
  O  O0  1  0.92270400  0.75000000  0.57729600  1
  O  O1  1  0.57729600  0.92270400  0.75000000  1
  O  O2  1  0.75000000  0.57729600  0.92270400  1
  O  O3  1  0.07729600  0.25000000  0.42270400  1
  O  O4  1  0.25000000  0.42270400  0.07729600  1
  O  O5  1  0.42270400  0.07729600  0.25000000  1
  F  F0  1  0.00000000  0.00000000  0.00000000  1
  F  F1  1  0.50000000  0.50000000  0.50000000  1
loop_
_geom_bond_atom_site_label_1
_geom_bond_atom_site_label_2
_geom_bond_distance
_geom_bond_site_symmetry_2
K0 O2 2.806559 1_554
K0 O1 2.806559 1_554
K0 O4 2.941714 1_555
K0 O5 2.941714 1_565
K0 O0 3.049050 1_455
K1 O2 2.806559 1_455
K1 O0 2.806559 1_455
K1 O4 2.941714 1_556
K1 O3 2.941714 1_555
K1 O1 3.049050 1_545
K2 O0 2.806559 1_545
K2 O1 2.806559 1_545
K2 O3 2.941714 1_655
K2 O5 2.941714 1_555
K2 O2 3.049050 1_554
K3 O4 2.806559 1_556
K3 O5 2.806559 1_556
K3 O2 2.941714 1_555
K3 O1 2.941714 1_545
K3 O3 3.049050 1_655
K4 O3 2.806559 1_655
K4 O4 2.806559 1_655
K4 O0 2.941714 1_555
K4 O2 2.941714 1_554
K4 O5 3.049050 1_565
K5 O3 2.806559 1_565
K5 O5 2.806559 1_565
K5 O0 2.941714 1_455
K5 O1 2.941714 1_555
K5 O4 3.049050 1_556
C0 O5 1.309114 1_555
C0 O3 1.309114 1_555
C0 O4 1.309114 1_555
C1 O1 1.309114 1_555
C1 O0 1.309114 1_555
C1 O2 1.309114 1_555
F0 K0 2.644710 1_545
F0 K3 2.644710 1_454
F0 K2 2.644710 1_455
F0 K5 2.644710 1_544
F0 K1 2.644711 1_554
F0 K4 2.644711 1_445
F1 K5 2.644710 1_555
F1 K2 2.644710 1_555
F1 K3 2.644710 1_555
F1 K0 2.644710 1_555
F1 K4 2.644711 1_555
F1 K1 2.644711 1_555
