# generated using pymatgen
data_LiSc2Os
_symmetry_space_group_name_H-M   'P 1'
_cell_length_a   4.60960424
_cell_length_b   4.60960424
_cell_length_c   4.60960424
_cell_angle_alpha   60.00000000
_cell_angle_beta   60.00000000
_cell_angle_gamma   60.00000000
_symmetry_Int_Tables_number   1
_chemical_formula_structural   LiSc2Os
_chemical_formula_sum   'Li1 Sc2 Os1'
_cell_volume   69.25895344
_cell_formula_units_Z   1
loop_
 _symmetry_equiv_pos_site_id
 _symmetry_equiv_pos_as_xyz
  1  'x, y, z'
loop_
 _atom_site_type_symbol
 _atom_site_label
 _atom_site_symmetry_multiplicity
 _atom_site_fract_x
 _atom_site_fract_y
 _atom_site_fract_z
 _atom_site_occupancy
  Li  Li0  1  0.25000000  0.25000000  0.25000000  1
  Sc  Sc0  1  -0.00000000  -0.00000000  -0.00000000  1
  Sc  Sc1  1  0.49999900  0.49999900  0.49999900  1
  Os  Os0  1  0.74999900  0.74999900  0.74999900  1
loop_
_geom_bond_atom_site_label_1
_geom_bond_atom_site_label_2
_geom_bond_distance
_geom_bond_site_symmetry_2
Li0 Sc1 2.822783 1_555
Li0 Sc0 2.822795 1_565
Li0 Sc0 2.822795 1_555
Li0 Sc0 2.822795 1_556
Li0 Sc0 2.822795 1_655
Li0 Sc1 2.822798 1_545
Li0 Sc1 2.822798 1_554
Li0 Sc1 2.822798 1_455
Li0 Os0 3.259476 1_545
Li0 Os0 3.259476 1_554
Li0 Os0 3.259476 1_455
Li0 Os0 3.259489 1_445
Li0 Os0 3.259489 1_454
Li0 Os0 3.259489 1_544
Os0 Sc0 2.822791 1_665
Os0 Sc0 2.822791 1_566
Os0 Sc0 2.822791 1_656
Os0 Sc1 2.822795 1_565
Os0 Sc1 2.822795 1_655
Os0 Sc1 2.822795 1_556
Os0 Sc1 2.822795 1_555
Os0 Sc0 2.822806 1_666
