# generated using pymatgen
data_YbCeZn2
_symmetry_space_group_name_H-M   'P 1'
_cell_length_a   5.13375787
_cell_length_b   5.13375787
_cell_length_c   5.13375787
_cell_angle_alpha   60.00000000
_cell_angle_beta   60.00000000
_cell_angle_gamma   60.00000000
_symmetry_Int_Tables_number   1
_chemical_formula_structural   YbCeZn2
_chemical_formula_sum   'Yb1 Ce1 Zn2'
_cell_volume   95.67338635
_cell_formula_units_Z   1
loop_
 _symmetry_equiv_pos_site_id
 _symmetry_equiv_pos_as_xyz
  1  'x, y, z'
loop_
 _atom_site_type_symbol
 _atom_site_label
 _atom_site_symmetry_multiplicity
 _atom_site_fract_x
 _atom_site_fract_y
 _atom_site_fract_z
 _atom_site_occupancy
  Yb  Yb0  1  0.00000000  0.00000000  0.00000000  1
  Ce  Ce0  1  0.50000000  0.50000000  0.50000000  1
  Zn  Zn0  1  0.25000000  0.25000000  0.25000000  1
  Zn  Zn1  1  0.75000000  0.75000000  0.75000000  1
loop_
_geom_bond_atom_site_label_1
_geom_bond_atom_site_label_2
_geom_bond_distance
_geom_bond_site_symmetry_2
Yb0 Zn0 3.143772 1_555
Yb0 Zn0 3.143772 1_455
Yb0 Zn1 3.143772 1_444
Yb0 Zn0 3.143772 1_545
Yb0 Zn1 3.143772 1_445
Yb0 Zn1 3.143772 1_454
Yb0 Zn0 3.143772 1_554
Yb0 Zn1 3.143772 1_544
Ce0 Zn1 3.143772 1_554
Ce0 Zn0 3.143772 1_555
Ce0 Zn0 3.143772 1_556
Ce0 Zn1 3.143772 1_455
Ce0 Zn1 3.143772 1_555
Ce0 Zn1 3.143772 1_545
Ce0 Zn0 3.143772 1_565
Ce0 Zn0 3.143772 1_655
