# generated using pymatgen
data_Li3V4(OF3)3
_symmetry_space_group_name_H-M   'P 1'
_cell_length_a   5.16014300
_cell_length_b   5.56483799
_cell_length_c   9.04025070
_cell_angle_alpha   107.07650778
_cell_angle_beta   89.92622103
_cell_angle_gamma   117.32898801
_symmetry_Int_Tables_number   1
_chemical_formula_structural   Li3V4(OF3)3
_chemical_formula_sum   'Li3 V4 O3 F9'
_cell_volume   217.71015516
_cell_formula_units_Z   1
loop_
 _symmetry_equiv_pos_site_id
 _symmetry_equiv_pos_as_xyz
  1  'x, y, z'
loop_
 _atom_site_type_symbol
 _atom_site_label
 _atom_site_symmetry_multiplicity
 _atom_site_fract_x
 _atom_site_fract_y
 _atom_site_fract_z
 _atom_site_occupancy
  Li  Li0  1  0.64410100  0.50789300  0.88294000  1
  Li  Li1  1  0.80079800  0.42572000  0.59358500  1
  Li  Li2  1  0.06579700  0.38548700  0.35645600  1
  V  V0  1  0.98070400  0.00475400  0.00524300  1
  V  V1  1  0.75148100  0.99866800  0.24644200  1
  V  V2  1  0.53040500  0.97718600  0.50250700  1
  V  V3  1  0.21916700  0.98907300  0.74815800  1
  O  O0  1  0.80961700  0.89037200  0.68788600  1
  O  O1  1  0.80972900  0.12154400  0.06462300  1
  O  O2  1  0.70277100  0.88462200  0.43169800  1
  F  F0  1  0.78791100  0.49674600  0.38402200  1
  F  F1  1  0.74697900  0.49507600  0.12525000  1
  F  F2  1  0.67817500  0.13892300  0.80449300  1
  F  F3  1  0.33242300  0.15124800  0.55557700  1
  F  F4  1  0.29486000  0.84333900  0.19510300  1
  F  F5  1  0.26280800  0.51085300  0.87361800  1
  F  F6  1  0.23958300  0.48844000  0.63078800  1
  F  F7  1  0.16526800  0.88877600  0.93372600  1
  F  F8  1  0.19368700  0.14171400  0.32146400  1
loop_
_geom_bond_atom_site_label_1
_geom_bond_atom_site_label_2
_geom_bond_distance
_geom_bond_site_symmetry_2
Li1 V2 2.110229 1_545
Li1 O0 2.451980 1_555
Li2 V1 1.947944 1_445
O0 V3 1.956056 1_655
O1 V0 1.345104 1_555
O1 V1 1.931247 1_545
O2 V2 1.300671 1_555
O2 V1 1.935834 1_555
F0 Li2 1.795895 1_655
F0 Li1 2.052804 1_555
F0 V1 2.600440 1_545
F1 Li0 2.283617 1_554
F1 V1 2.681692 1_555
F2 O0 1.867516 1_545
F2 Li0 2.055652 1_555
F2 V3 2.122476 1_545
F2 V2 2.603209 1_545
F3 V2 1.687169 1_545
F3 Li1 2.143985 1_555
F3 V3 2.150089 1_545
F4 V1 2.100359 1_555
F5 Li0 1.977254 1_555
F6 Li1 2.137500 1_455
F6 Li2 2.445912 1_555
F6 V3 2.726084 1_555
F7 V0 1.435026 1_466
F7 V3 1.899819 1_555
F8 Li2 1.716177 1_555
F8 V1 2.078353 1_445
