# generated using pymatgen
data_V4(PO4)3
_symmetry_space_group_name_H-M   'P 1'
_cell_length_a   10.73972430
_cell_length_b   10.73972430
_cell_length_c   10.73972430
_cell_angle_alpha   143.46192183
_cell_angle_beta   143.46192183
_cell_angle_gamma   52.63267188
_symmetry_Int_Tables_number   1
_chemical_formula_structural   V4(PO4)3
_chemical_formula_sum   'V8 P6 O24'
_cell_volume   436.45534743
_cell_formula_units_Z   2
loop_
 _symmetry_equiv_pos_site_id
 _symmetry_equiv_pos_as_xyz
  1  'x, y, z'
loop_
 _atom_site_type_symbol
 _atom_site_label
 _atom_site_symmetry_multiplicity
 _atom_site_fract_x
 _atom_site_fract_y
 _atom_site_fract_z
 _atom_site_occupancy
  V  V0  1  0.12474000  0.12500000  0.49974000  1
  V  V1  1  0.22730200  0.22730200  0.00000000  1
  V  V2  1  0.52269800  0.02269800  0.50000000  1
  V  V3  1  0.77269800  0.77269800  0.00000000  1
  V  V4  1  0.37500000  0.87526000  0.00026000  1
  V  V5  1  0.62526000  0.62500000  0.50026000  1
  V  V6  1  0.97730200  0.47730200  0.50000000  1
  V  V7  1  0.87500000  0.37474000  0.99974000  1
  P  P0  1  0.52649600  0.12500000  0.90149600  1
  P  P1  1  0.00000000  0.00000000  0.00000000  1
  P  P2  1  0.22350400  0.62500000  0.09850400  1
  P  P3  1  0.87500000  0.77649600  0.40149600  1
  P  P4  1  0.75000000  0.25000000  0.50000000  1
  P  P5  1  0.37500000  0.47350400  0.59850400  1
  O  O0  1  0.85021400  0.10281100  0.36931600  1
  O  O1  1  0.31925000  0.10818600  0.80098900  1
  O  O2  1  0.44280400  0.14181400  0.71106400  1
  O  O3  1  0.01650400  0.14718900  0.24740300  1
  O  O4  1  0.63193800  0.91919200  0.84076200  1
  O  O5  1  0.85281100  0.10021400  0.86931600  1
  O  O6  1  0.51910100  0.14978600  0.25259700  1
  O  O7  1  0.23089900  0.98349600  0.13068400  1
  O  O8  1  0.07843000  0.79117600  0.15923800  1
  O  O9  1  0.89978600  0.76910100  0.75259700  1
  O  O10  1  0.43075000  0.73173900  0.28893600  1
  O  O11  1  0.08080800  0.92157000  0.71274600  1
  O  O12  1  0.66919200  0.88193800  0.34076200  1
  O  O13  1  0.30719600  0.51826100  0.19901100  1
  O  O14  1  0.73349600  0.48089900  0.63068400  1
  O  O15  1  0.11806200  0.45882400  0.78725400  1
  O  O16  1  0.89181400  0.69280400  0.21106400  1
  O  O17  1  0.85818600  0.56925000  0.30098900  1
  O  O18  1  0.48173900  0.68075000  0.78893600  1
  O  O19  1  0.26826100  0.55719600  0.69901100  1
  O  O20  1  0.67157000  0.33080800  0.21274600  1
  O  O21  1  0.20882400  0.36806200  0.28725400  1
  O  O22  1  0.54117600  0.32843000  0.65923800  1
  O  O23  1  0.89718900  0.26650400  0.74740300  1
loop_
_geom_bond_atom_site_label_1
_geom_bond_atom_site_label_2
_geom_bond_distance
_geom_bond_site_symmetry_2
O0 P4 1.556939 1_555
O0 V0 2.095636 1_655
O0 V3 2.162030 1_545
O1 P0 1.570272 1_555
O1 V0 2.117610 1_555
O1 V1 2.155065 1_556
O2 P0 1.570278 1_555
O2 V0 2.117619 1_555
O2 V2 2.155055 1_555
O3 P1 1.556946 1_555
O3 V0 2.095630 1_555
O3 V6 2.162028 1_455
O4 P0 1.557332 1_565
O4 V5 2.155870 1_555
O4 V3 2.228790 1_556
O5 P1 1.556939 1_656
O5 V7 2.095636 1_555
O5 V2 2.162030 1_555
O6 P4 1.556946 1_555
O6 V4 2.095630 1_545
O6 V1 2.162028 1_555
O7 P1 1.556949 1_565
O7 V4 2.095621 1_555
O7 V2 2.162034 1_565
O8 P2 1.557332 1_555
O8 V0 2.155870 1_565
O8 V3 2.228790 1_455
O9 P1 1.556946 1_666
O9 V5 2.095630 1_555
O9 V6 2.162028 1_555
O10 P2 1.570272 1_555
O10 V5 2.117610 1_555
O10 V2 2.155065 1_565
O11 P3 1.557332 1_455
O11 V4 2.155870 1_556
O11 V1 2.228790 1_566
O12 P3 1.557332 1_555
O12 V4 2.155870 1_555
O12 V2 2.228790 1_565
O13 P2 1.570277 1_555
O13 V5 2.117618 1_555
O13 V1 2.155060 1_555
O14 P4 1.556949 1_555
O14 V5 2.095621 1_555
O14 V3 2.162034 1_556
O15 P2 1.557332 1_556
O15 V0 2.155870 1_555
O15 V6 2.228790 1_455
O16 P3 1.570278 1_555
O16 V7 2.117619 1_554
O16 V3 2.155055 1_555
O17 P3 1.570272 1_555
O17 V7 2.117610 1_554
O17 V6 2.155065 1_555
O18 P5 1.570272 1_555
O18 V4 2.117610 1_556
O18 V3 2.155065 1_556
O19 P5 1.570277 1_555
O19 V4 2.117618 1_556
O19 V6 2.155060 1_455
O20 P0 1.557332 1_554
O20 V5 2.155870 1_555
O20 V6 2.228790 1_555
O21 P5 1.557332 1_555
O21 V7 2.155870 1_454
O21 V1 2.228790 1_555
O22 P5 1.557332 1_555
O22 V7 2.155870 1_555
O22 V2 2.228790 1_555
O23 P4 1.556946 1_555
O23 V7 2.095630 1_555
O23 V1 2.162028 1_656
