# generated using pymatgen
data_TiTc2Sb
_symmetry_space_group_name_H-M   'P 1'
_cell_length_a   4.45673779
_cell_length_b   4.45673779
_cell_length_c   4.45673779
_cell_angle_alpha   60.00000000
_cell_angle_beta   60.00000000
_cell_angle_gamma   60.00000000
_symmetry_Int_Tables_number   1
_chemical_formula_structural   TiTc2Sb
_chemical_formula_sum   'Ti1 Tc2 Sb1'
_cell_volume   62.59451097
_cell_formula_units_Z   1
loop_
 _symmetry_equiv_pos_site_id
 _symmetry_equiv_pos_as_xyz
  1  'x, y, z'
loop_
 _atom_site_type_symbol
 _atom_site_label
 _atom_site_symmetry_multiplicity
 _atom_site_fract_x
 _atom_site_fract_y
 _atom_site_fract_z
 _atom_site_occupancy
  Ti  Ti0  1  0.74999900  0.74999900  0.74999900  1
  Tc  Tc0  1  -0.00000000  0.00000000  -0.00000000  1
  Tc  Tc1  1  0.49999900  0.49999900  0.49999900  1
  Sb  Sb0  1  0.25000000  0.25000000  0.25000000  1
loop_
_geom_bond_atom_site_label_1
_geom_bond_atom_site_label_2
_geom_bond_distance
_geom_bond_site_symmetry_2
Tc0 Ti0 2.729180 1_454
Tc0 Ti0 2.729180 1_445
Tc0 Ti0 2.729180 1_544
Tc0 Ti0 2.729194 1_444
Tc1 Ti0 2.729183 1_555
Tc1 Ti0 2.729183 1_455
Tc1 Ti0 2.729183 1_554
Tc1 Ti0 2.729183 1_545
Sb0 Tc1 2.729172 1_555
Sb0 Tc0 2.729183 1_555
Sb0 Tc0 2.729183 1_556
Sb0 Tc0 2.729183 1_565
Sb0 Tc0 2.729183 1_655
Sb0 Tc1 2.729187 1_554
Sb0 Tc1 2.729187 1_455
Sb0 Tc1 2.729187 1_545
Sb0 Ti0 3.151383 1_545
Sb0 Ti0 3.151383 1_455
Sb0 Ti0 3.151383 1_554
Sb0 Ti0 3.151396 1_544
Sb0 Ti0 3.151396 1_445
Sb0 Ti0 3.151396 1_454
