# generated using pymatgen
data_KYGeS4
_symmetry_space_group_name_H-M   'P 1'
_cell_length_a   6.71187800
_cell_length_b   6.54213100
_cell_length_c   8.70463875
_cell_angle_alpha   72.67936380
_cell_angle_beta   90.00000000
_cell_angle_gamma   90.00000000
_symmetry_Int_Tables_number   1
_chemical_formula_structural   KYGeS4
_chemical_formula_sum   'K2 Y2 Ge2 S8'
_cell_volume   364.88824410
_cell_formula_units_Z   2
loop_
 _symmetry_equiv_pos_site_id
 _symmetry_equiv_pos_as_xyz
  1  'x, y, z'
loop_
 _atom_site_type_symbol
 _atom_site_label
 _atom_site_symmetry_multiplicity
 _atom_site_fract_x
 _atom_site_fract_y
 _atom_site_fract_z
 _atom_site_occupancy
  K  K0  1  0.99087100  0.73317300  0.06537900  1
  K  K1  1  0.49087100  0.26682700  0.93462100  1
  Y  Y0  1  0.50911000  0.22841700  0.44909700  1
  Y  Y1  1  0.00911000  0.77158300  0.55090300  1
  Ge  Ge0  1  0.47414400  0.77478300  0.32548300  1
  Ge  Ge1  1  0.97414400  0.22521700  0.67451700  1
  S  S0  1  0.47213900  0.56940700  0.16630400  1
  S  S1  1  0.23632700  0.02503100  0.28063600  1
  S  S2  1  0.74491500  0.98228200  0.29857000  1
  S  S3  1  0.90549500  0.43403400  0.42691200  1
  S  S4  1  0.40549500  0.56596600  0.57308800  1
  S  S5  1  0.24491500  0.01771800  0.70143000  1
  S  S6  1  0.73632700  0.97496900  0.71936400  1
  S  S7  1  0.97213900  0.43059300  0.83369600  1
loop_
_geom_bond_atom_site_label_1
_geom_bond_atom_site_label_2
_geom_bond_distance
_geom_bond_site_symmetry_2
K0 S7 3.221569 1_554
K0 S3 3.224097 1_555
K0 S2 3.386910 1_555
K0 S6 3.414083 1_554
K0 S0 3.434163 1_655
K0 S1 3.464249 1_665
K0 S5 3.591333 1_664
K0 S0 3.671675 1_555
K1 S0 3.221569 1_556
K1 S4 3.224097 1_555
K1 S5 3.386910 1_555
K1 S1 3.414083 1_556
K1 S7 3.434163 1_555
K1 S6 3.464249 1_545
K1 S2 3.591333 1_546
K1 S7 3.671675 1_455
Ge0 S0 2.198596 1_555
Ge0 S4 2.229512 1_555
Ge0 S1 2.236062 1_565
Ge0 S2 2.238564 1_555
Ge1 S7 2.198596 1_555
Ge1 S3 2.229512 1_555
Ge1 S6 2.236062 1_545
Ge1 S5 2.238564 1_655
S0 Y0 2.797823 1_555
S1 Y1 2.878714 1_545
S1 Y0 2.904251 1_555
S2 Y1 2.840093 1_655
S2 Y0 2.840944 1_565
S3 Y1 2.818553 1_655
S3 Y0 2.961470 1_555
S4 Y0 2.818553 1_555
S4 Y1 2.961470 1_555
S5 Y0 2.840093 1_555
S5 Y1 2.840944 1_545
S6 Y0 2.878714 1_565
S6 Y1 2.904251 1_655
S7 Y1 2.797823 1_655
