# generated using pymatgen
data_Cs2Li2TiO4
_symmetry_space_group_name_H-M   'P 1'
_cell_length_a   5.78543575
_cell_length_b   5.89288069
_cell_length_c   9.41522015
_cell_angle_alpha   83.66839266
_cell_angle_beta   74.38820937
_cell_angle_gamma   86.62435961
_symmetry_Int_Tables_number   1
_chemical_formula_structural   Cs2Li2TiO4
_chemical_formula_sum   'Cs4 Li4 Ti2 O8'
_cell_volume   307.12095291
_cell_formula_units_Z   2
loop_
 _symmetry_equiv_pos_site_id
 _symmetry_equiv_pos_as_xyz
  1  'x, y, z'
loop_
 _atom_site_type_symbol
 _atom_site_label
 _atom_site_symmetry_multiplicity
 _atom_site_fract_x
 _atom_site_fract_y
 _atom_site_fract_z
 _atom_site_occupancy
  Cs  Cs0  1  0.47157658  0.85255362  0.71638815  1
  Cs  Cs1  1  0.52842342  0.14744638  0.28361185  1
  Cs  Cs2  1  0.78284886  0.72620229  0.01475438  1
  Cs  Cs3  1  0.21715114  0.27379771  0.98524562  1
  Li  Li0  1  0.92630049  0.17877940  0.44159580  1
  Li  Li1  1  0.07369951  0.82122060  0.55840420  1
  Li  Li2  1  0.69190395  0.58438039  0.42550634  1
  Li  Li3  1  0.30809605  0.41561961  0.57449366  1
  Ti  Ti0  1  0.13823294  0.68067838  0.29137877  1
  Ti  Ti1  1  0.86176706  0.31932162  0.70862123  1
  O  O0  1  0.02502538  0.57540626  0.70806749  1
  O  O1  1  0.97497462  0.42459374  0.29193251  1
  O  O2  1  0.90060181  0.86197561  0.40422515  1
  O  O3  1  0.09939819  0.13802439  0.59577485  1
  O  O4  1  0.25947885  0.79547963  0.10266086  1
  O  O5  1  0.74052115  0.20452037  0.89733914  1
  O  O6  1  0.36884789  0.63930500  0.39710696  1
  O  O7  1  0.63115211  0.36069500  0.60289304  1
loop_
_geom_bond_atom_site_label_1
_geom_bond_atom_site_label_2
_geom_bond_distance
_geom_bond_site_symmetry_2
Cs0 O3 3.037109 1_565
Cs0 O0 3.159422 1_555
Cs0 O7 3.170100 1_565
Cs0 O7 3.198800 1_555
Cs0 O2 3.294823 1_555
Cs0 O0 3.493319 1_655
Cs0 O5 3.494526 1_565
Cs0 O4 3.496040 1_556
Cs1 O2 3.037109 1_545
Cs1 O1 3.159422 1_555
Cs1 O6 3.170100 1_545
Cs1 O6 3.198800 1_555
Cs1 O3 3.294823 1_555
Cs1 O1 3.493319 1_455
Cs1 O4 3.494526 1_545
Cs1 O5 3.496040 1_554
Cs2 O4 2.932591 1_555
Cs2 O5 2.933279 1_564
Cs2 O0 3.054883 1_654
Cs2 O4 3.145005 1_655
Cs2 O1 3.392718 1_555
Cs2 O5 3.422981 1_554
Cs3 O5 2.932591 1_555
Cs3 O4 2.933279 1_546
Cs3 O1 3.054883 1_456
Cs3 O5 3.145005 1_455
Cs3 O0 3.392718 1_555
Cs3 O4 3.422981 1_556
Li0 O1 1.883469 1_555
Li0 O2 1.958800 1_545
Li0 O3 1.960875 1_655
Li0 O7 2.262527 1_555
Li1 O0 1.883469 1_555
Li1 O3 1.958800 1_565
Li1 O2 1.960875 1_455
Li1 O6 2.262527 1_555
Li2 O6 1.961669 1_555
Li2 O7 1.975714 1_555
Li2 O1 2.030099 1_555
Li2 O2 2.050373 1_555
Li3 O7 1.961669 1_555
Li3 O6 1.975714 1_555
Li3 O0 2.030099 1_555
Li3 O3 2.050373 1_555
O0 Ti1 1.825630 1_455
O1 Ti0 1.825630 1_655
O2 Ti0 1.857828 1_655
O3 Ti1 1.857828 1_455
O4 Ti0 1.796307 1_555
O5 Ti1 1.796307 1_555
O6 Ti0 1.858359 1_555
O7 Ti1 1.858359 1_555
