# generated using pymatgen
data_CuAgS
_symmetry_space_group_name_H-M   'P 1'
_cell_length_a   3.93823729
_cell_length_b   3.93823729
_cell_length_c   8.45477100
_cell_angle_alpha   90.00000000
_cell_angle_beta   90.00000000
_cell_angle_gamma   119.51806923
_symmetry_Int_Tables_number   1
_chemical_formula_structural   CuAgS
_chemical_formula_sum   'Cu2 Ag2 S2'
_cell_volume   114.11030532
_cell_formula_units_Z   2
loop_
 _symmetry_equiv_pos_site_id
 _symmetry_equiv_pos_as_xyz
  1  'x, y, z'
loop_
 _atom_site_type_symbol
 _atom_site_label
 _atom_site_symmetry_multiplicity
 _atom_site_fract_x
 _atom_site_fract_y
 _atom_site_fract_z
 _atom_site_occupancy
  Cu  Cu0  1  0.47770400  0.52229600  0.25000000  1
  Cu  Cu1  1  0.52229600  0.47770400  0.75000000  1
  Ag  Ag0  1  0.00000000  0.00000000  0.50000000  1
  Ag  Ag1  1  0.00000000  0.00000000  0.00000000  1
  S  S0  1  0.18361500  0.81638500  0.75000000  1
  S  S1  1  0.81638500  0.18361500  0.25000000  1
loop_
_geom_bond_atom_site_label_1
_geom_bond_atom_site_label_2
_geom_bond_distance
_geom_bond_site_symmetry_2
Cu0 S1 2.266942 1_455
Cu0 S1 2.266942 1_565
Cu0 S1 2.304590 1_555
Cu1 S0 2.266942 1_545
Cu1 S0 2.266942 1_655
Cu1 S0 2.304590 1_555
Ag0 S0 2.455355 1_545
Ag0 S1 2.455355 1_455
Ag1 S1 2.455355 1_455
Ag1 S0 2.455355 1_544
