# generated using pymatgen
data_LaPO4
_symmetry_space_group_name_H-M   'P 1'
_cell_length_a   7.21805778
_cell_length_b   7.21805878
_cell_length_c   6.45527402
_cell_angle_alpha   90.00000000
_cell_angle_beta   90.00000000
_cell_angle_gamma   120.00000469
_symmetry_Int_Tables_number   1
_chemical_formula_structural   LaPO4
_chemical_formula_sum   'La3 P3 O12'
_cell_volume   291.26349861
_cell_formula_units_Z   3
loop_
 _symmetry_equiv_pos_site_id
 _symmetry_equiv_pos_as_xyz
  1  'x, y, z'
loop_
 _atom_site_type_symbol
 _atom_site_label
 _atom_site_symmetry_multiplicity
 _atom_site_fract_x
 _atom_site_fract_y
 _atom_site_fract_z
 _atom_site_occupancy
  La  La0  1  0.00000000  0.50000000  0.66666700  1
  La  La1  1  0.50000000  0.50000000  0.33333300  1
  La  La2  1  0.50000000  0.00000000  -0.00000000  1
  P  P0  1  0.00000000  0.50000000  0.16666700  1
  P  P1  1  0.50000000  0.50000000  0.83333300  1
  P  P2  1  0.50000000  0.00000000  0.50000000  1
  O  O0  1  0.44745912  0.31149403  0.97874336  1
  O  O1  1  0.68850597  0.13596609  0.64541036  1
  O  O2  1  0.86403391  0.55254088  0.31207736  1
  O  O3  1  0.13596609  0.44745912  0.31207736  1
  O  O4  1  0.55254088  0.86403391  0.35458964  1
  O  O5  1  0.55254088  0.68850597  0.97874336  1
  O  O6  1  0.44745912  0.13596609  0.35458964  1
  O  O7  1  0.31149403  0.44745912  0.68792264  1
  O  O8  1  0.13596609  0.68850597  0.02125664  1
  O  O9  1  0.86403391  0.31149403  0.02125664  1
  O  O10  1  0.68850597  0.55254088  0.68792264  1
  O  O11  1  0.31149403  0.86403391  0.64541036  1
loop_
_geom_bond_atom_site_label_1
_geom_bond_atom_site_label_2
_geom_bond_distance
_geom_bond_site_symmetry_2
La0 O1 2.463846 1_455
La0 O11 2.463846 1_555
La0 O10 2.463850 1_455
La0 O7 2.463850 1_555
La0 O9 2.592021 1_456
La0 O8 2.592021 1_556
La0 O2 2.592023 1_455
La0 O3 2.592023 1_555
La1 O3 2.463843 1_555
La1 O2 2.463843 1_555
La1 O6 2.463844 1_555
La1 O4 2.463844 1_555
La1 O7 2.592020 1_555
La1 O10 2.592020 1_555
La1 O5 2.592020 1_554
La1 O0 2.592020 1_554
La2 O8 2.463846 1_545
La2 O9 2.463846 1_555
La2 O5 2.463851 1_544
La2 O0 2.463851 1_554
La2 O11 2.592021 1_544
La2 O1 2.592021 1_554
La2 O4 2.592023 1_545
La2 O6 2.592023 1_555
O0 P1 1.536314 1_555
O1 P2 1.536315 1_555
O2 P0 1.536319 1_655
O3 P0 1.536319 1_555
O4 P2 1.536319 1_565
O5 P1 1.536314 1_555
O6 P2 1.536319 1_555
O7 P1 1.536313 1_555
O8 P0 1.536315 1_555
O9 P0 1.536315 1_655
O10 P1 1.536313 1_555
O11 P2 1.536315 1_565
