# generated using pymatgen
data_H12PtC6(N3O4)2
_symmetry_space_group_name_H-M   'P 1'
_cell_length_a   14.94923200
_cell_length_b   3.62186500
_cell_length_c   12.43221731
_cell_angle_alpha   85.03784694
_cell_angle_beta   90.00000000
_cell_angle_gamma   90.00000000
_symmetry_Int_Tables_number   1
_chemical_formula_structural   H12PtC6(N3O4)2
_chemical_formula_sum   'H24 Pt2 C12 N12 O16'
_cell_volume   670.60835808
_cell_formula_units_Z   2
loop_
 _symmetry_equiv_pos_site_id
 _symmetry_equiv_pos_as_xyz
  1  'x, y, z'
loop_
 _atom_site_type_symbol
 _atom_site_label
 _atom_site_symmetry_multiplicity
 _atom_site_fract_x
 _atom_site_fract_y
 _atom_site_fract_z
 _atom_site_occupancy
  H  H0  1  0.43671500  0.64267500  0.94713200  1
  H  H1  1  0.09026800  0.76183500  0.57843900  1
  H  H2  1  0.23577000  0.69067100  0.63892700  1
  H  H3  1  0.71849000  0.63819500  0.61610200  1
  H  H4  1  0.06328500  0.64267500  0.44713200  1
  H  H5  1  0.40973200  0.76183500  0.07843900  1
  H  H6  1  0.83095000  0.58987500  0.66023500  1
  H  H7  1  0.81919400  0.47793700  0.94263300  1
  H  H8  1  0.26423000  0.69067100  0.13892700  1
  H  H9  1  0.31919400  0.52206300  0.55736700  1
  H  H10  1  0.33095000  0.41012500  0.83976500  1
  H  H11  1  0.78151000  0.63819500  0.11610200  1
  H  H12  1  0.21849000  0.36180500  0.88389800  1
  H  H13  1  0.66905000  0.58987500  0.16023500  1
  H  H14  1  0.68080600  0.47793700  0.44263300  1
  H  H15  1  0.73577000  0.30932900  0.86107300  1
  H  H16  1  0.18080600  0.52206300  0.05736700  1
  H  H17  1  0.16905000  0.41012500  0.33976500  1
  H  H18  1  0.59026800  0.23816500  0.92156100  1
  H  H19  1  0.93671500  0.35732500  0.55286800  1
  H  H20  1  0.28151000  0.36180500  0.38389800  1
  H  H21  1  0.76423000  0.30932900  0.36107300  1
  H  H22  1  0.90973200  0.23816500  0.42156100  1
  H  H23  1  0.56328500  0.35732500  0.05286800  1
  Pt  Pt0  1  0.50000000  0.00000000  0.50000000  1
  Pt  Pt1  1  0.00000000  0.00000000  0.00000000  1
  C  C0  1  0.98472300  0.83833100  0.78276100  1
  C  C1  1  0.51527700  0.83833100  0.28276100  1
  C  C2  1  0.48472300  0.16166900  0.71723900  1
  C  C3  1  0.01527700  0.16166900  0.21723900  1
  C  C4  1  0.08142700  0.97801700  0.79537400  1
  C  C5  1  0.41857300  0.97801700  0.29537400  1
  C  C6  1  0.30642000  0.56738000  0.99024000  1
  C  C7  1  0.19358000  0.56738000  0.49024000  1
  C  C8  1  0.80642000  0.43262000  0.50976000  1
  C  C9  1  0.69358000  0.43262000  0.00976000  1
  C  C10  1  0.58142700  0.02198300  0.70462600  1
  C  C11  1  0.91857300  0.02198300  0.20462600  1
  N  N0  1  0.10848500  0.66152400  0.50724700  1
  N  N1  1  0.25452500  0.59578900  0.56784000  1
  N  N2  1  0.78247800  0.55225600  0.60428700  1
  N  N3  1  0.28247800  0.44774400  0.89571300  1
  N  N4  1  0.39151500  0.66152400  0.00724700  1
  N  N5  1  0.75452500  0.40421100  0.93216000  1
  N  N6  1  0.24547500  0.59578900  0.06784000  1
  N  N7  1  0.60848500  0.33847600  0.99275300  1
  N  N8  1  0.71752200  0.55225600  0.10428700  1
  N  N9  1  0.21752200  0.44774400  0.39571300  1
  N  N10  1  0.74547500  0.40421100  0.43216000  1
  N  N11  1  0.89151500  0.33847600  0.49275300  1
  O  O0  1  0.13607400  0.98051800  0.72070400  1
  O  O1  1  0.93393700  0.85198900  0.86753100  1
  O  O2  1  0.59946400  0.90259400  0.61033500  1
  O  O3  1  0.36392600  0.98051800  0.22070400  1
  O  O4  1  0.56606300  0.85198900  0.36753100  1
  O  O5  1  0.90053600  0.90259400  0.11033500  1
  O  O6  1  0.95945600  0.72590400  0.69615800  1
  O  O7  1  0.54054400  0.72590400  0.19615800  1
  O  O8  1  0.45945600  0.27409600  0.80384200  1
  O  O9  1  0.04054400  0.27409600  0.30384200  1
  O  O10  1  0.09946400  0.09740600  0.88966500  1
  O  O11  1  0.43393700  0.14801100  0.63246900  1
  O  O12  1  0.63607400  0.01948200  0.77929600  1
  O  O13  1  0.40053600  0.09740600  0.38966500  1
  O  O14  1  0.06606300  0.14801100  0.13246900  1
  O  O15  1  0.86392600  0.01948200  0.27929600  1
loop_
_geom_bond_atom_site_label_1
_geom_bond_atom_site_label_2
_geom_bond_distance
_geom_bond_site_symmetry_2
H0 N4 1.014207 1_556
H1 N0 1.022323 1_555
H2 N1 1.015033 1_555
H3 N2 1.020488 1_555
H4 N0 1.014207 1_555
H5 N4 1.022323 1_555
H6 N2 1.021681 1_555
H7 N5 1.014337 1_555
H8 N6 1.015033 1_555
H9 N1 1.014337 1_555
H10 N3 1.021681 1_555
H11 N8 1.020488 1_555
H12 N3 1.020488 1_555
H13 N8 1.021681 1_555
H14 N10 1.014337 1_555
H15 N5 1.015033 1_555
H16 N6 1.014337 1_555
H17 N9 1.021681 1_555
H18 N7 1.022323 1_555
H19 N11 1.014207 1_555
H20 N9 1.020488 1_555
H21 N10 1.015033 1_555
H22 N11 1.022323 1_555
H23 N7 1.014207 1_554
C0 O6 1.242392 1_555
C0 O1 1.303276 1_555
C1 O7 1.242392 1_555
C1 O4 1.303276 1_555
C2 O8 1.242392 1_555
C2 O11 1.303276 1_555
C3 O9 1.242392 1_555
C3 O14 1.303276 1_555
C4 O0 1.236030 1_555
C4 O10 1.312073 1_565
C5 O3 1.236030 1_555
C5 O13 1.312073 1_565
C6 N3 1.336038 1_555
C6 N6 1.337367 1_556
C6 N4 1.338541 1_556
C7 N9 1.336038 1_555
C7 N1 1.337367 1_555
C7 N0 1.338541 1_555
C8 N2 1.336038 1_555
C8 N10 1.337367 1_555
C8 N11 1.338541 1_555
C9 N8 1.336038 1_555
C9 N5 1.337367 1_554
C9 N7 1.338541 1_554
C10 O12 1.236030 1_555
C10 O2 1.312073 1_545
C11 O15 1.236030 1_555
C11 O5 1.312073 1_545
O1 Pt1 2.031666 1_666
O2 Pt0 2.033035 1_565
O4 Pt0 2.031666 1_565
O5 Pt1 2.033035 1_665
O10 Pt1 2.033035 1_556
O11 Pt0 2.031666 1_555
O13 Pt0 2.033035 1_555
O14 Pt1 2.031666 1_555
