# generated using pymatgen
data_Li4CoNi3(PO4)4
_symmetry_space_group_name_H-M   'P 1'
_cell_length_a   5.94140300
_cell_length_b   4.73233400
_cell_length_c   10.15249461
_cell_angle_alpha   89.98011789
_cell_angle_beta   90.00000000
_cell_angle_gamma   90.00000000
_symmetry_Int_Tables_number   1
_chemical_formula_structural   Li4CoNi3(PO4)4
_chemical_formula_sum   'Li4 Co1 Ni3 P4 O16'
_cell_volume   285.45466282
_cell_formula_units_Z   1
loop_
 _symmetry_equiv_pos_site_id
 _symmetry_equiv_pos_as_xyz
  1  'x, y, z'
loop_
 _atom_site_type_symbol
 _atom_site_label
 _atom_site_symmetry_multiplicity
 _atom_site_fract_x
 _atom_site_fract_y
 _atom_site_fract_z
 _atom_site_occupancy
  Li  Li0  1  0.24967900  0.00050800  0.00039900  1
  Li  Li1  1  0.75032100  0.00050800  0.00039900  1
  Li  Li2  1  0.74959600  0.49890300  0.50042400  1
  Li  Li3  1  0.25040400  0.49890300  0.50042400  1
  Co  Co0  1  0.00000000  0.97518700  0.27895800  1
  Ni  Ni0  1  0.50000000  0.01974600  0.72494800  1
  Ni  Ni1  1  0.50000000  0.48029200  0.22334500  1
  Ni  Ni2  1  0.00000000  0.52002700  0.77611500  1
  P  P0  1  0.00000000  0.08418000  0.59541800  1
  P  P1  1  0.00000000  0.41698200  0.09325300  1
  P  P2  1  0.50000000  0.58436100  0.90566700  1
  P  P3  1  0.50000000  0.91617200  0.40574200  1
  O  O0  1  0.00000000  0.20205800  0.45250500  1
  O  O1  1  0.20753300  0.22568400  0.66589000  1
  O  O2  1  0.79246700  0.22568400  0.66589000  1
  O  O3  1  0.50000000  0.23977400  0.39983500  1
  O  O4  1  0.50000000  0.26031200  0.89981400  1
  O  O5  1  0.20718100  0.27608000  0.16426700  1
  O  O6  1  0.79281900  0.27608000  0.16426700  1
  O  O7  1  0.00000000  0.29853500  0.95014200  1
  O  O8  1  0.50000000  0.70169000  0.04870300  1
  O  O9  1  0.70704100  0.72620400  0.83441900  1
  O  O10  1  0.29295900  0.72620400  0.83441900  1
  O  O11  1  0.00000000  0.74058900  0.09827600  1
  O  O12  1  0.00000000  0.75987500  0.59984000  1
  O  O13  1  0.70602600  0.77317200  0.33392900  1
  O  O14  1  0.29397400  0.77317200  0.33392900  1
  O  O15  1  0.50000000  0.79911700  0.54878600  1
loop_
_geom_bond_atom_site_label_1
_geom_bond_atom_site_label_2
_geom_bond_distance
_geom_bond_site_symmetry_2
Li0 O7 2.109400 1_554
Li0 O8 2.109893 1_545
Li0 O5 2.129255 1_555
Li0 O10 2.142965 1_544
Li0 O11 2.167982 1_545
Li0 O4 2.183005 1_554
Li1 O7 2.109400 1_654
Li1 O8 2.109893 1_545
Li1 O6 2.129255 1_555
Li1 O9 2.142965 1_544
Li1 O11 2.167982 1_645
Li1 O4 2.183005 1_554
Li2 O0 2.103315 1_655
Li2 O15 2.111665 1_555
Li2 O2 2.134752 1_555
Li2 O13 2.146478 1_555
Li2 O3 2.178691 1_555
Li2 O12 2.181338 1_655
Li3 O0 2.103315 1_555
Li3 O15 2.111665 1_555
Li3 O1 2.134752 1_555
Li3 O14 2.146478 1_555
Li3 O3 2.178691 1_555
Li3 O12 2.181338 1_555
Co0 O0 2.063591 1_565
Co0 O13 2.067780 1_455
Co0 O14 2.067780 1_555
Co0 O11 2.144498 1_555
Co0 O5 2.213023 1_565
Co0 O6 2.213023 1_465
Ni0 O15 2.071254 1_545
Ni0 O1 2.080470 1_555
Ni0 O2 2.080470 1_555
Ni0 O4 2.109319 1_555
Ni0 O9 2.162645 1_545
Ni0 O10 2.162645 1_545
Ni1 O8 2.059165 1_555
Ni1 O6 2.078660 1_555
Ni1 O5 2.078660 1_555
Ni1 O3 2.122429 1_555
Ni1 O14 2.163547 1_555
Ni1 O13 2.163547 1_555
Ni2 O7 2.054019 1_555
Ni2 O9 2.081446 1_455
Ni2 O10 2.081446 1_555
Ni2 O12 2.118888 1_555
Ni2 O2 2.171176 1_455
Ni2 O1 2.171176 1_555
O0 P0 1.554285 1_555
O1 P0 1.575128 1_555
O2 P0 1.575128 1_655
O3 P3 1.532546 1_545
O4 P2 1.534680 1_555
O5 P1 1.574581 1_555
O6 P1 1.574581 1_655
O7 P1 1.557490 1_556
O8 P2 1.554881 1_554
O9 P2 1.576910 1_555
O10 P2 1.576910 1_555
O11 P1 1.532283 1_555
O12 P0 1.535361 1_565
O13 P3 1.577415 1_555
O14 P3 1.577415 1_555
O15 P3 1.554135 1_555
