# generated using pymatgen
data_MgCo2
_symmetry_space_group_name_H-M   'P 1'
_cell_length_a   4.80715459
_cell_length_b   4.80719388
_cell_length_c   7.86034796
_cell_angle_alpha   90.00024743
_cell_angle_beta   89.99994934
_cell_angle_gamma   120.00181776
_symmetry_Int_Tables_number   1
_chemical_formula_structural   MgCo2
_chemical_formula_sum   'Mg4 Co8'
_cell_volume   157.30559687
_cell_formula_units_Z   4
loop_
 _symmetry_equiv_pos_site_id
 _symmetry_equiv_pos_as_xyz
  1  'x, y, z'
loop_
 _atom_site_type_symbol
 _atom_site_label
 _atom_site_symmetry_multiplicity
 _atom_site_fract_x
 _atom_site_fract_y
 _atom_site_fract_z
 _atom_site_occupancy
  Mg  Mg0  1  0.33332936  0.66664160  0.06156864  1
  Mg  Mg1  1  0.33337862  0.66667936  0.43840857  1
  Mg  Mg2  1  0.66666358  0.33335630  0.56155105  1
  Mg  Mg3  1  0.66661744  0.33331967  0.93847984  1
  Co  Co0  1  0.99997035  0.99998079  0.00001758  1
  Co  Co1  1  0.33936241  0.16959126  0.24999198  1
  Co  Co2  1  0.83049167  0.16957424  0.24999568  1
  Co  Co3  1  0.83047678  0.66070784  0.24999670  1
  Co  Co4  1  0.00003895  0.00003366  0.49997973  1
  Co  Co5  1  0.16951025  0.33927440  0.75000298  1
  Co  Co6  1  0.16949937  0.83041977  0.75000138  1
  Co  Co7  1  0.66066822  0.83042111  0.75000485  1
loop_
_geom_bond_atom_site_label_1
_geom_bond_atom_site_label_2
_geom_bond_distance
_geom_bond_site_symmetry_2
Mg0 Mg3 2.939028 1_554
Mg0 Mg3 2.939241 1_564
Mg0 Mg3 2.939348 1_454
Mg0 Mg1 2.962093 1_555
Mg1 Mg2 2.939165 1_555
Mg1 Mg2 2.939368 1_565
Mg1 Mg2 2.939501 1_455
Mg2 Mg3 2.962791 1_555
Co0 Co2 2.419408 1_565
Co0 Co6 2.419694 1_654
Co0 Co3 2.419891 1_555
Co0 Co1 2.420137 1_665
Co0 Co7 2.420163 1_554
Co0 Co5 2.420168 1_664
Co0 Mg0 2.817111 1_555
Co0 Mg3 2.817118 1_664
Co0 Mg3 2.817195 1_554
Co0 Mg0 2.817212 1_665
Co0 Mg3 2.817388 1_564
Co0 Mg0 2.817433 1_655
Co1 Co3 2.360813 1_555
Co1 Co2 2.360975 1_555
Co1 Co4 2.420059 1_555
Co1 Co2 2.446179 1_455
Co1 Co3 2.446229 1_445
Co1 Mg3 2.802087 1_554
Co1 Mg2 2.802499 1_555
Co1 Mg1 2.823030 1_545
Co1 Mg0 2.823102 1_545
Co1 Mg0 2.823662 1_555
Co1 Mg1 2.823675 1_555
Co2 Co3 2.361010 1_555
Co2 Co4 2.419491 1_655
Co2 Co3 2.446184 1_545
Co2 Mg3 2.802873 1_554
Co2 Mg2 2.803118 1_555
Co2 Mg0 2.823133 1_655
Co2 Mg1 2.823245 1_655
Co2 Mg1 2.823286 1_545
Co2 Mg0 2.823513 1_545
Co3 Co4 2.420035 1_665
Co3 Mg3 2.802387 1_554
Co3 Mg2 2.802581 1_555
Co3 Mg0 2.822912 1_655
Co3 Mg1 2.822973 1_655
Co3 Mg1 2.823659 1_555
Co3 Mg0 2.823851 1_555
Co4 Co6 2.419698 1_545
Co4 Co5 2.420085 1_555
Co4 Co7 2.420412 1_445
Co4 Mg2 2.817070 1_555
Co4 Mg1 2.817181 1_555
Co4 Mg1 2.817216 1_445
Co4 Mg2 2.817311 1_445
Co4 Mg1 2.817440 1_545
Co4 Mg2 2.817456 1_455
Co5 Co7 2.360990 1_555
Co5 Co6 2.361057 1_555
Co5 Co7 2.446052 1_445
Co5 Co6 2.446137 1_545
Co5 Mg0 2.802680 1_556
Co5 Mg1 2.802965 1_555
Co5 Mg2 2.823019 1_455
Co5 Mg3 2.823235 1_455
Co5 Mg3 2.823931 1_555
Co5 Mg2 2.823939 1_555
Co6 Co7 2.361121 1_555
Co6 Co7 2.446033 1_455
Co6 Mg0 2.803203 1_556
Co6 Mg1 2.803395 1_555
Co6 Mg2 2.823209 1_455
Co6 Mg3 2.823503 1_455
Co6 Mg3 2.823568 1_565
Co6 Mg2 2.823630 1_565
Co7 Mg0 2.802611 1_556
Co7 Mg1 2.802731 1_555
Co7 Mg2 2.823255 1_565
Co7 Mg3 2.823275 1_565
Co7 Mg2 2.823757 1_555
Co7 Mg3 2.823909 1_555
