# generated using pymatgen
data_Mn3(OF2)2
_symmetry_space_group_name_H-M   'P 1'
_cell_length_a   10.87834580
_cell_length_b   6.82950395
_cell_length_c   3.13642500
_cell_angle_alpha   90.00000000
_cell_angle_beta   90.00000000
_cell_angle_gamma   108.31150557
_symmetry_Int_Tables_number   1
_chemical_formula_structural   Mn3(OF2)2
_chemical_formula_sum   'Mn6 O4 F8'
_cell_volume   221.21723381
_cell_formula_units_Z   2
loop_
 _symmetry_equiv_pos_site_id
 _symmetry_equiv_pos_as_xyz
  1  'x, y, z'
loop_
 _atom_site_type_symbol
 _atom_site_label
 _atom_site_symmetry_multiplicity
 _atom_site_fract_x
 _atom_site_fract_y
 _atom_site_fract_z
 _atom_site_occupancy
  Mn  Mn0  1  0.01874900  0.00944900  0.00000000  1
  Mn  Mn1  1  0.32512700  0.16252900  0.50000000  1
  Mn  Mn2  1  0.00823800  0.50415800  0.50000000  1
  Mn  Mn3  1  0.66665600  0.33333100  0.00000000  1
  Mn  Mn4  1  0.31462400  0.65722300  0.00000000  1
  Mn  Mn5  1  0.66674100  0.83336900  0.50000000  1
  O  O0  1  0.13651300  0.06840900  0.50000000  1
  O  O1  1  0.66667700  0.02313200  0.00000000  1
  O  O2  1  0.19686500  0.59825100  0.50000000  1
  O  O3  1  0.66663000  0.64351900  0.00000000  1
  F  F0  1  0.99739300  0.30310400  0.00000000  1
  F  F1  1  0.33592200  0.36356200  0.00000000  1
  F  F2  1  0.99738400  0.69438000  0.00000000  1
  F  F3  1  0.52622100  0.26311300  0.50000000  1
  F  F4  1  0.44468700  0.72233300  0.50000000  1
  F  F5  1  0.80707100  0.40355000  0.50000000  1
  F  F6  1  0.33588400  0.97225400  0.00000000  1
  F  F7  1  0.88861700  0.94433600  0.50000000  1
loop_
_geom_bond_atom_site_label_1
_geom_bond_atom_site_label_2
_geom_bond_distance
_geom_bond_site_symmetry_2
Mn0 O0 1.984553 1_555
Mn0 O0 1.984553 1_554
Mn1 O0 1.947911 1_555
Mn2 O2 1.948045 1_555
Mn3 O3 2.118519 1_555
Mn3 O1 2.118577 1_555
Mn4 O2 1.984521 1_554
Mn4 O2 1.984521 1_555
Mn5 O3 2.034559 1_555
Mn5 O3 2.034559 1_556
Mn5 O1 2.034562 1_565
Mn5 O1 2.034562 1_566
F0 Mn2 2.063206 1_655
F0 Mn2 2.063206 1_654
F0 Mn0 2.090177 1_655
F1 Mn1 2.063196 1_554
F1 Mn1 2.063196 1_555
F1 Mn4 2.089958 1_555
F2 Mn2 2.063331 1_654
F2 Mn2 2.063331 1_655
F2 Mn0 2.090421 1_665
F3 Mn1 2.076797 1_555
F3 Mn3 2.136067 1_556
F3 Mn3 2.136067 1_555
F4 Mn4 2.064835 1_555
F4 Mn4 2.064835 1_556
F4 Mn5 2.293261 1_555
F5 Mn2 2.077551 1_655
F5 Mn3 2.135926 1_555
F5 Mn3 2.135926 1_556
F6 Mn1 2.063297 1_565
F6 Mn1 2.063297 1_564
F6 Mn4 2.090406 1_555
F7 Mn0 2.065298 1_665
F7 Mn0 2.065298 1_666
F7 Mn5 2.291423 1_555
