# generated using pymatgen
data_K2MnTe2
_symmetry_space_group_name_H-M   'P 1'
_cell_length_a   6.97782886
_cell_length_b   7.45405550
_cell_length_c   8.75485466
_cell_angle_alpha   115.18792957
_cell_angle_beta   113.48519165
_cell_angle_gamma   89.99999598
_symmetry_Int_Tables_number   1
_chemical_formula_structural   K2MnTe2
_chemical_formula_sum   'K4 Mn2 Te4'
_cell_volume   369.95968089
_cell_formula_units_Z   2
loop_
 _symmetry_equiv_pos_site_id
 _symmetry_equiv_pos_as_xyz
  1  'x, y, z'
loop_
 _atom_site_type_symbol
 _atom_site_label
 _atom_site_symmetry_multiplicity
 _atom_site_fract_x
 _atom_site_fract_y
 _atom_site_fract_z
 _atom_site_occupancy
  K  K0  1  0.14286698  0.46599712  0.28573397  1
  K  K1  1  0.85713302  0.53400288  0.71426603  1
  K  K2  1  0.35709791  0.18021354  0.71419582  1
  K  K3  1  0.64290209  0.81978646  0.28580418  1
  Mn  Mn0  1  0.25003265  -0.00000000  -0.00000000  1
  Mn  Mn1  1  0.74996735  -0.00000000  0.00000000  1
  Te  Te0  1  0.89158882  0.09142585  0.78317665  1
  Te  Te1  1  0.10841118  0.90857415  0.21682335  1
  Te  Te2  1  0.60821861  0.30826509  0.21643721  1
  Te  Te3  1  0.39178139  0.69173491  0.78356279  1
loop_
_geom_bond_atom_site_label_1
_geom_bond_atom_site_label_2
_geom_bond_distance
_geom_bond_site_symmetry_2
K0 Te3 3.545150 1_555
K0 Te1 3.589376 1_555
K0 Mn0 3.602419 1_555
K0 Mn1 3.602419 1_455
K0 Te2 3.641066 1_455
K0 Te2 3.641066 1_555
K0 Te0 3.690981 1_454
K0 Te1 3.928996 1_545
K1 Te2 3.545150 1_555
K1 Te0 3.589376 1_555
K1 Mn1 3.602419 1_566
K1 Mn0 3.602419 1_666
K1 Te3 3.641066 1_655
K1 Te3 3.641066 1_555
K1 Te1 3.690981 1_656
K1 Te0 3.928996 1_565
K2 Te1 3.541878 1_545
K2 Te3 3.588530 1_555
K2 Mn1 3.602002 1_556
K2 Mn0 3.602003 1_556
K2 Te0 3.641088 1_455
K2 Te0 3.641094 1_555
K2 Te2 3.688124 1_556
K2 Te3 3.930695 1_545
K3 Te0 3.541878 1_565
K3 Te2 3.588530 1_555
K3 Mn0 3.602002 1_565
K3 Mn1 3.602003 1_565
K3 Te1 3.641088 1_655
K3 Te1 3.641094 1_555
K3 Te3 3.688124 1_554
K3 Te2 3.930695 1_565
Mn0 Te3 2.763433 1_544
Mn0 Te2 2.763433 1_555
Mn0 Te0 2.764162 1_454
Mn0 Te1 2.764167 1_545
Mn1 Te2 2.763433 1_555
Mn1 Te3 2.763433 1_544
Mn1 Te1 2.764162 1_645
Mn1 Te0 2.764167 1_554
