# generated using pymatgen
data_LiCoPO4
_symmetry_space_group_name_H-M   'P 1'
_cell_length_a   10.06991679
_cell_length_b   10.06991679
_cell_length_c   16.43236571
_cell_angle_alpha   82.24549974
_cell_angle_beta   82.24549974
_cell_angle_gamma   58.93756153
_symmetry_Int_Tables_number   1
_chemical_formula_structural   LiCoPO4
_chemical_formula_sum   'Li16 Co16 P16 O64'
_cell_volume   1410.11163133
_cell_formula_units_Z   16
loop_
 _symmetry_equiv_pos_site_id
 _symmetry_equiv_pos_as_xyz
  1  'x, y, z'
loop_
 _atom_site_type_symbol
 _atom_site_label
 _atom_site_symmetry_multiplicity
 _atom_site_fract_x
 _atom_site_fract_y
 _atom_site_fract_z
 _atom_site_occupancy
  Li  Li0  1  0.19915100  0.81277000  0.00296200  1
  Li  Li1  1  0.81277000  0.19915100  0.50296200  1
  Li  Li2  1  0.70135200  0.57743500  0.25319500  1
  Li  Li3  1  0.25958900  0.07445900  0.25197200  1
  Li  Li4  1  0.14020200  0.31349900  0.00182700  1
  Li  Li5  1  0.57743500  0.70135200  0.75319500  1
  Li  Li6  1  0.70173500  0.81142100  0.00361100  1
  Li  Li7  1  0.07445900  0.25958900  0.75197200  1
  Li  Li8  1  0.31349900  0.14020200  0.50182700  1
  Li  Li9  1  0.81142100  0.70173500  0.50361100  1
  Li  Li10  1  0.20390500  0.56967700  0.25212800  1
  Li  Li11  1  0.75986300  0.08118400  0.25308000  1
  Li  Li12  1  0.63974700  0.31241300  0.00281200  1
  Li  Li13  1  0.56967700  0.20390500  0.75212800  1
  Li  Li14  1  0.08118400  0.75986300  0.75308000  1
  Li  Li15  1  0.31241300  0.63974700  0.50281200  1
  Co  Co0  1  0.88468700  0.26675100  0.12847800  1
  Co  Co1  1  0.44578400  0.76863700  0.12781400  1
  Co  Co2  1  0.26675100  0.88468700  0.62847800  1
  Co  Co3  1  0.76863700  0.44578400  0.62781400  1
  Co  Co4  1  0.00460400  0.32540000  0.37834100  1
  Co  Co5  1  0.51033500  0.88023300  0.37879500  1
  Co  Co6  1  0.32540000  0.00460400  0.87834100  1
  Co  Co7  1  0.88023300  0.51033500  0.87879500  1
  Co  Co8  1  0.38223600  0.26999400  0.12780700  1
  Co  Co9  1  0.94572800  0.76714700  0.12969900  1
  Co  Co10  1  0.26999400  0.38223600  0.62780700  1
  Co  Co11  1  0.76714700  0.94572800  0.62969900  1
  Co  Co12  1  0.00939900  0.82589000  0.37925000  1
  Co  Co13  1  0.50482200  0.38123000  0.37896400  1
  Co  Co14  1  0.82589000  0.00939900  0.87925000  1
  Co  Co15  1  0.38123000  0.50482200  0.87896400  1
  P  P0  1  0.10153300  0.91462700  0.19066200  1
  P  P1  1  0.91462700  0.10153300  0.69066200  1
  P  P2  1  0.16844000  0.98257100  0.43966300  1
  P  P3  1  0.66549200  0.53706700  0.44106300  1
  P  P4  1  0.98257100  0.16844000  0.93966300  1
  P  P5  1  0.53706700  0.66549200  0.94106300  1
  P  P6  1  0.04333800  0.41693400  0.18876300  1
  P  P7  1  0.60211800  0.91811500  0.19076100  1
  P  P8  1  0.41693400  0.04333800  0.68876300  1
  P  P9  1  0.91811500  0.60211800  0.69076100  1
  P  P10  1  0.16544700  0.48193800  0.43968400  1
  P  P11  1  0.66699900  0.03868800  0.44164300  1
  P  P12  1  0.48193800  0.16544700  0.93968400  1
  P  P13  1  0.03868800  0.66699900  0.94164300  1
  P  P14  1  0.54475100  0.41843100  0.18905200  1
  P  P15  1  0.41843100  0.54475100  0.68905200  1
  O  O0  1  0.66288100  0.33962900  0.11499000  1
  O  O1  1  0.95507900  0.07678500  0.20443500  1
  O  O2  1  0.52819500  0.57661900  0.20158700  1
  O  O3  1  0.41916900  0.74322800  0.01530300  1
  O  O4  1  0.33962900  0.66288100  0.61499000  1
  O  O5  1  0.50916500  0.55078600  0.42680800  1
  O  O6  1  0.98858800  0.23890400  0.01681200  1
  O  O7  1  0.24781500  0.93168700  0.17977000  1
  O  O8  1  0.07678500  0.95507900  0.70443500  1
  O  O9  1  0.00766900  0.13112300  0.42634000  1
  O  O10  1  0.57661900  0.52819500  0.70158700  1
  O  O11  1  0.74322800  0.41916900  0.51530300  1
  O  O12  1  0.55078600  0.50916500  0.92680800  1
  O  O13  1  0.77997800  0.47507800  0.36313800  1
  O  O14  1  0.28462900  0.97386000  0.36465800  1
  O  O15  1  0.88258200  0.44230900  0.17327200  1
  O  O16  1  0.23890400  0.98858800  0.51681200  1
  O  O17  1  0.93168700  0.24781500  0.67977000  1
  O  O18  1  0.13112300  0.00766900  0.92634000  1
  O  O19  1  0.63465300  0.69960500  0.45713600  1
  O  O20  1  0.59645100  0.84447300  0.11461900  1
  O  O21  1  0.10939300  0.30066100  0.26535400  1
  O  O22  1  0.60777500  0.80750400  0.26808000  1
  O  O23  1  0.47507800  0.77997800  0.86313800  1
  O  O24  1  0.97386000  0.28462900  0.86465800  1
  O  O25  1  0.44230900  0.88258200  0.67327200  1
  O  O26  1  0.16063000  0.34414600  0.11334800  1
  O  O27  1  0.45294100  0.07917700  0.20275200  1
  O  O28  1  0.13899300  0.34129800  0.45130600  1
  O  O29  1  0.69960500  0.63465300  0.95713600  1
  O  O30  1  0.84447300  0.59645100  0.61461900  1
  O  O31  1  0.30066100  0.10939300  0.76535400  1
  O  O32  1  0.80750400  0.60777500  0.76808000  1
  O  O33  1  0.02665500  0.57402100  0.20377300  1
  O  O34  1  0.92152700  0.74088200  0.01669400  1
  O  O35  1  0.34414600  0.16063000  0.61334800  1
  O  O36  1  0.51210100  0.05109900  0.42550400  1
  O  O37  1  0.48514300  0.24074000  0.01562100  1
  O  O38  1  0.74721900  0.93686400  0.17892200  1
  O  O39  1  0.07917700  0.45294100  0.70275200  1
  O  O40  1  0.34129800  0.13899300  0.95130600  1
  O  O41  1  0.00675100  0.63374300  0.42736600  1
  O  O42  1  0.57402100  0.02665500  0.70377300  1
  O  O43  1  0.74088200  0.92152700  0.51669400  1
  O  O44  1  0.05109900  0.51210100  0.92550400  1
  O  O45  1  0.27994700  0.47025200  0.36312000  1
  O  O46  1  0.78593500  0.97687000  0.36537000  1
  O  O47  1  0.24074000  0.48514300  0.51562100  1
  O  O48  1  0.38477500  0.44246500  0.17331000  1
  O  O49  1  0.93686400  0.74721900  0.67892200  1
  O  O50  1  0.63374300  0.00675100  0.92736600  1
  O  O51  1  0.63317800  0.20231400  0.45758900  1
  O  O52  1  0.09297200  0.84737400  0.11275900  1
  O  O53  1  0.10721700  0.79900900  0.26502100  1
  O  O54  1  0.60850700  0.30924600  0.26836200  1
  O  O55  1  0.47025200  0.27994700  0.86312000  1
  O  O56  1  0.97687000  0.78593500  0.86537000  1
  O  O57  1  0.44246500  0.38477500  0.67331000  1
  O  O58  1  0.20231400  0.63317800  0.95758900  1
  O  O59  1  0.14666300  0.83918600  0.45036300  1
  O  O60  1  0.84737400  0.09297200  0.61275900  1
  O  O61  1  0.79900900  0.10721700  0.76502100  1
  O  O62  1  0.30924600  0.60850700  0.76836200  1
  O  O63  1  0.83918600  0.14666300  0.95036300  1
loop_
_geom_bond_atom_site_label_1
_geom_bond_atom_site_label_2
_geom_bond_distance
_geom_bond_site_symmetry_2
Li0 O52 1.945370 1_555
Li0 O3 1.980425 1_555
Li0 O18 2.021120 1_564
Li0 O58 2.031137 1_554
Li1 O60 1.945370 1_555
Li1 O11 1.980425 1_555
Li1 O9 2.021120 1_655
Li1 O51 2.031137 1_555
Li2 O13 1.998626 1_555
Li2 O22 2.037913 1_555
Li2 O2 2.043369 1_555
Li2 O15 2.044443 1_555
Li3 O14 1.968447 1_545
Li3 O21 2.003661 1_555
Li3 O27 2.026697 1_555
Li3 O7 2.040315 1_545
Li4 O26 1.953374 1_555
Li4 O6 1.996978 1_455
Li4 O40 2.036105 1_554
Li4 O44 2.037815 1_554
Li5 O23 1.998626 1_555
Li5 O32 2.037913 1_555
Li5 O10 2.043369 1_555
Li5 O25 2.044443 1_555
Li6 O20 1.959602 1_555
Li6 O34 1.978445 1_555
Li6 O50 2.020925 1_564
Li6 O29 2.040317 1_554
Li7 O24 1.968447 1_455
Li7 O31 2.003661 1_555
Li7 O39 2.026697 1_555
Li7 O17 2.040315 1_455
Li8 O35 1.953374 1_555
Li8 O16 1.996978 1_545
Li8 O28 2.036105 1_555
Li8 O36 2.037815 1_555
Li9 O30 1.959602 1_555
Li9 O43 1.978445 1_555
Li9 O41 2.020925 1_655
Li9 O19 2.040317 1_555
Li10 O45 2.002046 1_555
Li10 O48 2.009777 1_555
Li10 O53 2.020406 1_555
Li10 O33 2.027782 1_555
Li11 O46 1.974880 1_545
Li11 O1 2.000244 1_555
Li11 O54 2.024975 1_555
Li11 O38 2.079413 1_545
Li12 O0 1.960973 1_555
Li12 O37 2.004770 1_555
Li12 O63 2.005991 1_554
Li12 O12 2.022466 1_554
Li13 O55 2.002046 1_555
Li13 O57 2.009777 1_555
Li13 O61 2.020406 1_555
Li13 O42 2.027782 1_555
Li14 O56 1.974880 1_455
Li14 O8 2.000244 1_555
Li14 O62 2.024975 1_555
Li14 O49 2.079413 1_455
Li15 O4 1.960973 1_555
Li15 O47 2.004770 1_555
Li15 O59 2.005991 1_555
Li15 O5 2.022466 1_555
Co0 O6 1.964261 1_555
Co0 O1 1.978594 1_555
Co0 O0 1.993665 1_555
Co0 O15 1.993950 1_555
Co1 O2 1.969804 1_555
Co1 O3 1.971694 1_555
Co1 O7 1.984983 1_555
Co1 O20 1.998571 1_555
Co2 O16 1.964261 1_555
Co2 O8 1.978594 1_555
Co2 O4 1.993665 1_555
Co2 O25 1.993950 1_555
Co3 O10 1.969804 1_555
Co3 O11 1.971694 1_555
Co3 O17 1.984983 1_555
Co3 O30 1.998571 1_555
Co4 O21 1.986836 1_555
Co4 O9 1.994551 1_555
Co4 O13 1.995826 1_455
Co4 O28 2.001953 1_555
Co5 O36 1.985337 1_565
Co5 O22 1.986278 1_555
Co5 O14 1.995176 1_555
Co5 O19 1.996512 1_555
Co6 O31 1.986836 1_555
Co6 O18 1.994551 1_555
Co6 O23 1.995826 1_545
Co6 O40 2.001953 1_555
Co7 O44 1.985337 1_655
Co7 O32 1.986278 1_555
Co7 O24 1.995176 1_555
Co7 O29 1.996512 1_555
Co8 O37 1.968517 1_555
Co8 O27 1.975353 1_555
Co8 O26 1.992365 1_555
Co8 O48 1.994375 1_555
Co9 O34 1.974523 1_555
Co9 O33 1.980208 1_655
Co9 O38 1.995544 1_555
Co9 O52 1.998180 1_655
Co10 O47 1.968517 1_555
Co10 O39 1.975353 1_555
Co10 O35 1.992365 1_555
Co10 O57 1.994375 1_555
Co11 O43 1.974523 1_555
Co11 O42 1.980208 1_565
Co11 O49 1.995544 1_555
Co11 O60 1.998180 1_565
Co12 O53 1.982392 1_555
Co12 O46 1.985353 1_455
Co12 O59 1.990755 1_555
Co12 O41 2.001105 1_555
Co13 O54 1.995279 1_555
Co13 O5 1.995959 1_555
Co13 O45 2.000133 1_555
Co13 O51 2.001322 1_555
Co14 O61 1.982392 1_555
Co14 O56 1.985353 1_545
Co14 O63 1.990755 1_555
Co14 O50 2.001105 1_555
Co15 O62 1.995279 1_555
Co15 O12 1.995959 1_555
Co15 O55 2.000133 1_555
Co15 O58 2.001322 1_555
O0 P14 1.556180 1_555
O1 P0 1.554720 1_645
O2 P14 1.553352 1_555
O3 P5 1.555100 1_554
O4 P15 1.556180 1_555
O5 P3 1.555125 1_555
O6 P4 1.556331 1_554
O7 P0 1.553420 1_555
O8 P1 1.554720 1_465
O9 P2 1.553955 1_545
O10 P15 1.553352 1_555
O11 P3 1.555100 1_555
O12 P5 1.555125 1_555
O13 P3 1.559842 1_555
O14 P2 1.558789 1_555
O15 P6 1.554797 1_655
O16 P2 1.556331 1_555
O17 P1 1.553420 1_555
O18 P4 1.553955 1_455
O19 P3 1.554069 1_555
O20 P7 1.559484 1_555
O21 P6 1.556250 1_555
O22 P7 1.558944 1_555
O23 P5 1.559842 1_555
O24 P4 1.558789 1_555
O25 P8 1.554797 1_565
O26 P6 1.557168 1_555
O27 P7 1.555016 1_545
O28 P10 1.554270 1_555
O29 P5 1.554069 1_555
O30 P9 1.559484 1_555
O31 P8 1.556250 1_555
O32 P9 1.558944 1_555
O33 P6 1.552801 1_555
O34 P13 1.554207 1_654
O35 P8 1.557168 1_555
O36 P11 1.555788 1_555
O37 P12 1.557047 1_554
O38 P7 1.551298 1_555
O39 P9 1.555016 1_455
O40 P12 1.554270 1_555
O41 P10 1.553844 1_555
O42 P8 1.552801 1_555
O43 P11 1.554207 1_565
O44 P13 1.555788 1_555
O45 P10 1.560330 1_555
O46 P11 1.558494 1_565
O47 P10 1.557047 1_555
O48 P14 1.553659 1_555
O49 P9 1.551298 1_555
O50 P12 1.553844 1_555
O51 P11 1.553353 1_555
O52 P0 1.558458 1_555
O53 P0 1.554997 1_555
O54 P14 1.558907 1_555
O55 P12 1.560330 1_555
O56 P13 1.558494 1_655
O57 P15 1.553659 1_555
O58 P13 1.553353 1_555
O59 P2 1.552936 1_555
O60 P1 1.558458 1_555
O61 P1 1.554997 1_555
O62 P15 1.558907 1_555
O63 P4 1.552936 1_555
