# generated using pymatgen
data_Er2IrRh
_symmetry_space_group_name_H-M   'P 1'
_cell_length_a   4.76825710
_cell_length_b   4.76825710
_cell_length_c   4.76825710
_cell_angle_alpha   59.95691539
_cell_angle_beta   59.95691539
_cell_angle_gamma   59.95691539
_symmetry_Int_Tables_number   1
_chemical_formula_structural   Er2IrRh
_chemical_formula_sum   'Er2 Ir1 Rh1'
_cell_volume   76.58424530
_cell_formula_units_Z   1
loop_
 _symmetry_equiv_pos_site_id
 _symmetry_equiv_pos_as_xyz
  1  'x, y, z'
loop_
 _atom_site_type_symbol
 _atom_site_label
 _atom_site_symmetry_multiplicity
 _atom_site_fract_x
 _atom_site_fract_y
 _atom_site_fract_z
 _atom_site_occupancy
  Er  Er0  1  0.00001395  0.00001395  0.00001395  1
  Er  Er1  1  0.49998355  0.49998355  0.49998355  1
  Ir  Ir0  1  0.24999923  0.24999923  0.24999923  1
  Rh  Rh0  1  0.75000327  0.75000327  0.75000327  1
loop_
_geom_bond_atom_site_label_1
_geom_bond_atom_site_label_2
_geom_bond_distance
_geom_bond_site_symmetry_2
Er0 Rh0 2.918323 1_445
Er0 Rh0 2.918323 1_544
Er0 Rh0 2.918323 1_454
Er0 Ir0 2.918422 1_545
Er0 Ir0 2.918422 1_554
Er0 Ir0 2.918422 1_455
Er0 Ir0 2.920728 1_555
Er0 Rh0 2.921024 1_444
Er1 Rh0 2.918288 1_455
Er1 Rh0 2.918288 1_545
Er1 Rh0 2.918288 1_554
Er1 Ir0 2.918426 1_556
Er1 Ir0 2.918426 1_565
Er1 Ir0 2.918426 1_655
Er1 Ir0 2.920716 1_555
Er1 Rh0 2.921130 1_555
