# generated using pymatgen
data_EuGeO3
_symmetry_space_group_name_H-M   'P 1'
_cell_length_a   3.83991258
_cell_length_b   3.83678796
_cell_length_c   3.84117929
_cell_angle_alpha   90.00353639
_cell_angle_beta   90.00233111
_cell_angle_gamma   90.01420426
_symmetry_Int_Tables_number   1
_chemical_formula_structural   EuGeO3
_chemical_formula_sum   'Eu1 Ge1 O3'
_cell_volume   56.59182513
_cell_formula_units_Z   1
loop_
 _symmetry_equiv_pos_site_id
 _symmetry_equiv_pos_as_xyz
  1  'x, y, z'
loop_
 _atom_site_type_symbol
 _atom_site_label
 _atom_site_symmetry_multiplicity
 _atom_site_fract_x
 _atom_site_fract_y
 _atom_site_fract_z
 _atom_site_occupancy
  Eu  Eu0  1  0.99999921  -0.00000007  -0.00000008  1
  Ge  Ge0  1  0.49999975  0.49999955  0.49999956  1
  O  O0  1  0.50000004  0.49999904  0.99999941  1
  O  O1  1  0.49999925  0.99999940  0.49999906  1
  O  O2  1  -0.00000026  0.49999909  0.49999905  1
loop_
_geom_bond_atom_site_label_1
_geom_bond_atom_site_label_2
_geom_bond_distance
_geom_bond_site_symmetry_2
Eu0 O0 2.713787 1_654
Eu0 O0 2.713787 1_544
Eu0 O0 2.714455 1_554
Eu0 O0 2.714465 1_644
Eu0 O2 2.714483 1_655
Eu0 O2 2.714493 1_644
Eu0 O2 2.714655 1_645
Eu0 O2 2.714656 1_654
Eu0 O1 2.715619 1_645
Eu0 O1 2.715623 1_544
Eu0 O1 2.715729 1_545
Eu0 O1 2.715734 1_644
Ge0 O1 1.918393 1_555
Ge0 O1 1.918395 1_545
Ge0 O2 1.919956 1_655
Ge0 O2 1.919956 1_555
Ge0 O0 1.920589 1_555
Ge0 O0 1.920590 1_554
