# generated using pymatgen
data_La3Nb8O24
_symmetry_space_group_name_H-M   'P 1'
_cell_length_a   8.91108890
_cell_length_b   8.91108890
_cell_length_c   8.98714232
_cell_angle_alpha   66.63137048
_cell_angle_beta   66.63137048
_cell_angle_gamma   53.10370566
_symmetry_Int_Tables_number   1
_chemical_formula_structural   La3Nb8O24
_chemical_formula_sum   'La3 Nb8 O24'
_cell_volume   511.54650163
_cell_formula_units_Z   1
loop_
 _symmetry_equiv_pos_site_id
 _symmetry_equiv_pos_as_xyz
  1  'x, y, z'
loop_
 _atom_site_type_symbol
 _atom_site_label
 _atom_site_symmetry_multiplicity
 _atom_site_fract_x
 _atom_site_fract_y
 _atom_site_fract_z
 _atom_site_occupancy
  La  La0  1  0.50000000  0.50000000  0.00000000  1
  La  La1  1  0.25067900  0.25067900  0.00007000  1
  La  La2  1  0.74932100  0.74932100  0.99993000  1
  Nb  Nb0  1  0.30492700  0.81218000  0.25905800  1
  Nb  Nb1  1  0.81218000  0.30492700  0.25905800  1
  Nb  Nb2  1  0.43432600  0.94179500  0.74095900  1
  Nb  Nb3  1  0.94179500  0.43432600  0.74095900  1
  Nb  Nb4  1  0.56567400  0.05820500  0.25904100  1
  Nb  Nb5  1  0.05820500  0.56567400  0.25904100  1
  Nb  Nb6  1  0.69507300  0.18782000  0.74094200  1
  Nb  Nb7  1  0.18782000  0.69507300  0.74094200  1
  O  O0  1  0.07265800  0.07265800  0.22936300  1
  O  O1  1  0.57044200  0.57044200  0.22223000  1
  O  O2  1  0.38997300  0.87031500  0.00001400  1
  O  O3  1  0.74906300  0.25093700  0.50000000  1
  O  O4  1  0.87031500  0.38997300  0.00001400  1
  O  O5  1  0.25093700  0.74906300  0.50000000  1
  O  O6  1  0.31958700  0.79608600  0.76860000  1
  O  O7  1  0.79608600  0.31958700  0.76860000  1
  O  O8  1  0.94378700  0.44356500  0.22538000  1
  O  O9  1  0.44356500  0.94378700  0.22538000  1
  O  O10  1  0.81269100  0.81269100  0.22937100  1
  O  O11  1  0.18730900  0.18730900  0.77062900  1
  O  O12  1  0.68145500  0.68145500  0.77782100  1
  O  O13  1  0.50000000  0.00000000  0.50000000  1
  O  O14  1  0.31854500  0.31854500  0.22217900  1
  O  O15  1  0.61002700  0.12968500  0.99998600  1
  O  O16  1  0.00000000  0.50000000  0.50000000  1
  O  O17  1  0.12968500  0.61002700  0.99998600  1
  O  O18  1  0.05621300  0.55643500  0.77462000  1
  O  O19  1  0.55643500  0.05621300  0.77462000  1
  O  O20  1  0.68041300  0.20391400  0.23140000  1
  O  O21  1  0.20391400  0.68041300  0.23140000  1
  O  O22  1  0.42955800  0.42955800  0.77777000  1
  O  O23  1  0.92734200  0.92734200  0.77063700  1
loop_
_geom_bond_atom_site_label_1
_geom_bond_atom_site_label_2
_geom_bond_distance
_geom_bond_site_symmetry_2
La0 O6 2.660283 1_554
La0 O7 2.660283 1_554
La0 O20 2.660283 1_555
La0 O21 2.660283 1_555
La0 O12 2.689425 1_554
La0 O14 2.689425 1_555
La0 O22 2.690557 1_554
La0 O1 2.690557 1_555
La0 O4 2.822417 1_555
La0 O2 2.822417 1_555
La0 O15 2.822417 1_554
La0 O17 2.822417 1_554
La1 O14 2.659026 1_555
La1 O22 2.659211 1_554
La1 O0 2.667339 1_555
La1 O11 2.668335 1_554
La1 O8 2.693947 1_455
La1 O9 2.693947 1_545
La1 O18 2.696015 1_554
La1 O19 2.696015 1_554
La1 O17 2.696215 1_554
La1 O15 2.696215 1_554
La1 O4 2.824582 1_455
La1 O2 2.824582 1_545
La2 O12 2.659026 1_555
La2 O1 2.659211 1_556
La2 O23 2.667339 1_555
La2 O10 2.668335 1_556
La2 O18 2.693947 1_655
La2 O19 2.693947 1_565
La2 O9 2.696015 1_556
La2 O8 2.696015 1_556
La2 O2 2.696215 1_556
La2 O4 2.696215 1_556
La2 O17 2.824582 1_655
La2 O15 2.824582 1_565
Nb0 O5 1.941393 1_555
Nb0 O0 1.980161 1_565
Nb0 O21 1.982136 1_555
Nb0 O9 2.038308 1_555
Nb0 O1 2.042663 1_555
Nb0 O2 2.092281 1_555
Nb1 O3 1.941393 1_555
Nb1 O0 1.980161 1_655
Nb1 O20 1.982136 1_555
Nb1 O8 2.038308 1_555
Nb1 O1 2.042663 1_555
Nb1 O4 2.092281 1_555
Nb2 O13 1.941425 1_565
Nb2 O11 1.979269 1_565
Nb2 O6 1.982354 1_555
Nb2 O19 2.037904 1_565
Nb2 O12 2.043529 1_555
Nb2 O2 2.092412 1_556
Nb3 O16 1.941425 1_655
Nb3 O11 1.979269 1_655
Nb3 O7 1.982354 1_555
Nb3 O18 2.037904 1_655
Nb3 O12 2.043529 1_555
Nb3 O4 2.092412 1_556
Nb4 O13 1.941425 1_555
Nb4 O10 1.979269 1_545
Nb4 O20 1.982354 1_555
Nb4 O9 2.037904 1_545
Nb4 O14 2.043529 1_555
Nb4 O15 2.092412 1_554
Nb5 O16 1.941425 1_555
Nb5 O10 1.979269 1_455
Nb5 O21 1.982354 1_555
Nb5 O8 2.037904 1_455
Nb5 O14 2.043529 1_555
Nb5 O17 2.092412 1_554
Nb6 O3 1.941393 1_555
Nb6 O23 1.980161 1_545
Nb6 O7 1.982136 1_555
Nb6 O19 2.038308 1_555
Nb6 O22 2.042663 1_555
Nb6 O15 2.092281 1_555
Nb7 O5 1.941393 1_555
Nb7 O23 1.980161 1_455
Nb7 O6 1.982136 1_555
Nb7 O18 2.038308 1_555
Nb7 O22 2.042663 1_555
Nb7 O17 2.092281 1_555
