# generated using pymatgen
data_Sc2GaTc
_symmetry_space_group_name_H-M   'P 1'
_cell_length_a   4.64049819
_cell_length_b   4.64049819
_cell_length_c   4.64049819
_cell_angle_alpha   60.00000000
_cell_angle_beta   60.00000000
_cell_angle_gamma   60.00000000
_symmetry_Int_Tables_number   1
_chemical_formula_structural   Sc2GaTc
_chemical_formula_sum   'Sc2 Ga1 Tc1'
_cell_volume   70.66084485
_cell_formula_units_Z   1
loop_
 _symmetry_equiv_pos_site_id
 _symmetry_equiv_pos_as_xyz
  1  'x, y, z'
loop_
 _atom_site_type_symbol
 _atom_site_label
 _atom_site_symmetry_multiplicity
 _atom_site_fract_x
 _atom_site_fract_y
 _atom_site_fract_z
 _atom_site_occupancy
  Sc  Sc0  1  0.75000000  0.75000000  0.75000000  1
  Sc  Sc1  1  0.25000000  0.25000000  0.25000000  1
  Ga  Ga0  1  0.00000000  -0.00000000  0.00000000  1
  Tc  Tc0  1  0.50000000  0.50000000  0.50000000  1
loop_
_geom_bond_atom_site_label_1
_geom_bond_atom_site_label_2
_geom_bond_distance
_geom_bond_site_symmetry_2
Sc0 Tc0 2.841713 1_556
Sc0 Tc0 2.841713 1_555
Sc0 Tc0 2.841713 1_565
Sc0 Tc0 2.841713 1_655
Sc1 Tc0 2.841713 1_455
Sc1 Tc0 2.841713 1_555
Sc1 Tc0 2.841713 1_554
Sc1 Tc0 2.841713 1_545
Ga0 Sc1 2.841713 1_455
Ga0 Sc0 2.841713 1_544
Ga0 Sc0 2.841713 1_445
Ga0 Sc0 2.841713 1_454
Ga0 Sc1 2.841713 1_555
Ga0 Sc0 2.841713 1_444
Ga0 Sc1 2.841713 1_554
Ga0 Sc1 2.841713 1_545
