# generated using pymatgen
data_Li3Ni2(PO3)7
_symmetry_space_group_name_H-M   'P 1'
_cell_length_a   6.86712900
_cell_length_b   6.93535641
_cell_length_c   18.50889131
_cell_angle_alpha   86.20657988
_cell_angle_beta   80.04233561
_cell_angle_gamma   68.37610506
_symmetry_Int_Tables_number   1
_chemical_formula_structural   Li3Ni2(PO3)7
_chemical_formula_sum   'Li6 Ni4 P14 O42'
_cell_volume   807.11902080
_cell_formula_units_Z   2
loop_
 _symmetry_equiv_pos_site_id
 _symmetry_equiv_pos_as_xyz
  1  'x, y, z'
loop_
 _atom_site_type_symbol
 _atom_site_label
 _atom_site_symmetry_multiplicity
 _atom_site_fract_x
 _atom_site_fract_y
 _atom_site_fract_z
 _atom_site_occupancy
  Li  Li0  1  0.27629300  0.20944700  0.24412300  1
  Li  Li1  1  0.43722100  0.73591000  0.44908800  1
  Li  Li2  1  0.81148100  0.11351100  0.12406800  1
  Li  Li3  1  0.18851900  0.88648900  0.87593200  1
  Li  Li4  1  0.56277900  0.26409000  0.55091200  1
  Li  Li5  1  0.72370700  0.79055300  0.75587700  1
  Ni  Ni0  1  0.61955500  0.17258500  0.38252800  1
  Ni  Ni1  1  0.33165800  0.88013200  0.12703600  1
  Ni  Ni2  1  0.66834200  0.11986800  0.87296400  1
  Ni  Ni3  1  0.38044500  0.82741500  0.61747200  1
  P  P0  1  0.30676600  0.27280000  0.02533800  1
  P  P1  1  0.20324900  0.22239300  0.50262200  1
  P  P2  1  0.98957500  0.32513100  0.92733700  1
  P  P3  1  0.08954000  0.58152600  0.60149800  1
  P  P4  1  0.05142500  0.89131300  0.28264000  1
  P  P5  1  0.34308200  0.16027300  0.73312700  1
  P  P6  1  0.45795300  0.54418900  0.25184900  1
  P  P7  1  0.54204700  0.45581100  0.74815100  1
  P  P8  1  0.65691800  0.83972700  0.26687300  1
  P  P9  1  0.94857500  0.10868700  0.71736000  1
  P  P10  1  0.91046000  0.41847400  0.39850200  1
  P  P11  1  0.01042500  0.67486900  0.07266300  1
  P  P12  1  0.79675100  0.77760700  0.49737800  1
  P  P13  1  0.69323400  0.72720000  0.97466200  1
  O  O0  1  0.11161100  0.23630200  0.99809300  1
  O  O1  1  0.99447500  0.27107200  0.46710600  1
  O  O2  1  0.31718700  0.17684000  0.10076200  1
  O  O3  1  0.06509000  0.35887300  0.33026900  1
  O  O4  1  0.23698500  0.52059900  0.03141000  1
  O  O5  1  0.05356500  0.86261800  0.09438900  1
  O  O6  1  0.10579500  0.35211600  0.57781100  1
  O  O7  1  0.28632300  0.99293500  0.51773600  1
  O  O8  1  0.08877900  0.22284600  0.74481300  1
  O  O9  1  0.50459200  0.20823800  0.97010000  1
  O  O10  1  0.12860100  0.00899600  0.21941300  1
  O  O11  1  0.25185100  0.70102500  0.30579500  1
  O  O12  1  0.35349400  0.31562100  0.45821700  1
  O  O13  1  0.10048400  0.43669900  0.87571100  1
  O  O14  1  0.31869900  0.56892400  0.59289100  1
  O  O15  1  0.41952000  0.58381300  0.17400000  1
  O  O16  1  0.44572800  0.07193800  0.65651000  1
  O  O17  1  0.42802100  0.03425500  0.79797200  1
  O  O18  1  0.06793800  0.98396800  0.65077200  1
  O  O19  1  0.50728000  0.32644800  0.28103500  1
  O  O20  1  0.35356100  0.38709800  0.73278700  1
  O  O21  1  0.64643900  0.61290200  0.26721300  1
  O  O22  1  0.49272000  0.67355200  0.71896500  1
  O  O23  1  0.93206200  0.01603200  0.34922800  1
  O  O24  1  0.57197900  0.96574500  0.20202800  1
  O  O25  1  0.55427200  0.92806200  0.34349000  1
  O  O26  1  0.58048000  0.41618700  0.82600000  1
  O  O27  1  0.68130100  0.43107600  0.40710900  1
  O  O28  1  0.89951600  0.56330100  0.12428900  1
  O  O29  1  0.64650600  0.68437900  0.54178300  1
  O  O30  1  0.74814900  0.29897500  0.69420500  1
  O  O31  1  0.87139900  0.99100400  0.78058700  1
  O  O32  1  0.49540800  0.79176200  0.02990000  1
  O  O33  1  0.91122100  0.77715400  0.25518700  1
  O  O34  1  0.71367700  0.00706500  0.48226400  1
  O  O35  1  0.89420500  0.64788400  0.42218900  1
  O  O36  1  0.94643500  0.13738200  0.90561100  1
  O  O37  1  0.76301500  0.47940100  0.96859000  1
  O  O38  1  0.93491000  0.64112700  0.66973100  1
  O  O39  1  0.68281300  0.82316000  0.89923800  1
  O  O40  1  0.00552500  0.72892800  0.53289400  1
  O  O41  1  0.88838900  0.76369800  0.00190700  1
loop_
_geom_bond_atom_site_label_1
_geom_bond_atom_site_label_2
_geom_bond_distance
_geom_bond_site_symmetry_2
Li0 O3 2.007715 1_555
Li0 O10 2.110498 1_555
Li0 O24 2.164347 1_545
Li0 O19 2.244566 1_555
Li1 O7 2.085347 1_555
Li1 O27 2.244534 1_555
Li1 O29 2.351566 1_555
Li1 O25 2.478635 1_555
Li2 O5 1.942113 1_645
Li2 O24 2.462354 1_545
Li3 O36 1.942113 1_465
Li3 O17 2.462354 1_565
Li4 O34 2.085347 1_555
Li4 O14 2.244534 1_555
Li4 O12 2.351566 1_555
Li4 O16 2.478635 1_555
Li5 O38 2.007715 1_555
Li5 O31 2.110498 1_555
Li5 O17 2.164347 1_565
Li5 O22 2.244566 1_555
Ni0 O23 2.019398 1_555
Ni0 O12 2.060994 1_555
Ni0 O27 2.082197 1_555
Ni0 O25 2.105581 1_545
Ni0 O34 2.174547 1_555
Ni0 O19 2.211622 1_555
Ni1 O32 1.952216 1_555
Ni1 O10 2.031180 1_565
Ni1 O2 2.052899 1_565
Ni1 O15 2.091441 1_555
Ni1 O5 2.146299 1_555
Ni2 O9 1.952216 1_555
Ni2 O31 2.031180 1_545
Ni2 O39 2.052899 1_545
Ni2 O26 2.091441 1_555
Ni2 O36 2.146299 1_555
Ni3 O18 2.019398 1_555
Ni3 O29 2.060994 1_555
Ni3 O14 2.082197 1_555
Ni3 O16 2.105581 1_565
Ni3 O7 2.174547 1_555
Ni3 O22 2.211622 1_555
O0 P0 1.617100 1_556
O0 P2 1.639885 1_455
O1 P1 1.594168 1_655
O1 P10 1.623941 1_555
O2 P0 1.507782 1_555
O3 P10 1.474844 1_455
O4 P0 1.611125 1_555
O4 P11 1.618241 1_555
O5 P11 1.529619 1_555
O6 P1 1.610538 1_555
O6 P3 1.637241 1_555
O7 P1 1.504445 1_565
O8 P9 1.611291 1_455
O8 P5 1.614936 1_555
O9 P0 1.491041 1_556
O10 P4 1.514745 1_545
O11 P4 1.615581 1_555
O11 P6 1.644257 1_555
O12 P1 1.512001 1_555
O13 P2 1.475352 1_455
O14 P3 1.524208 1_555
O15 P6 1.499011 1_555
O16 P5 1.527795 1_555
O17 P5 1.507369 1_555
O18 P9 1.485989 1_465
O19 P6 1.505101 1_555
O20 P5 1.600583 1_555
O20 P7 1.607224 1_555
O21 P8 1.600583 1_555
O21 P6 1.607224 1_555
O22 P7 1.505101 1_555
O23 P4 1.485989 1_645
O24 P8 1.507369 1_555
O25 P8 1.527795 1_555
O26 P7 1.499011 1_555
O27 P10 1.524208 1_555
O28 P11 1.475352 1_655
O29 P12 1.512001 1_555
O30 P9 1.615581 1_555
O30 P7 1.644257 1_555
O31 P9 1.514745 1_565
O32 P13 1.491041 1_554
O33 P4 1.611291 1_655
O33 P8 1.614936 1_555
O34 P12 1.504445 1_545
O35 P12 1.610538 1_555
O35 P10 1.637241 1_555
O36 P2 1.529619 1_555
O37 P13 1.611125 1_555
O37 P2 1.618241 1_555
O38 P3 1.474844 1_655
O39 P13 1.507782 1_555
O40 P12 1.594168 1_455
O40 P3 1.623941 1_555
O41 P13 1.617100 1_554
O41 P11 1.639885 1_655
