# generated using pymatgen
data_TcRu3
_symmetry_space_group_name_H-M   'P 1'
_cell_length_a   5.43944418
_cell_length_b   5.43944191
_cell_length_c   4.27701510
_cell_angle_alpha   90.00000000
_cell_angle_beta   90.00000000
_cell_angle_gamma   120.00000144
_symmetry_Int_Tables_number   1
_chemical_formula_structural   TcRu3
_chemical_formula_sum   'Tc2 Ru6'
_cell_volume   109.59235920
_cell_formula_units_Z   2
loop_
 _symmetry_equiv_pos_site_id
 _symmetry_equiv_pos_as_xyz
  1  'x, y, z'
loop_
 _atom_site_type_symbol
 _atom_site_label
 _atom_site_symmetry_multiplicity
 _atom_site_fract_x
 _atom_site_fract_y
 _atom_site_fract_z
 _atom_site_occupancy
  Tc  Tc0  1  0.33333300  0.66666600  0.74999900  1
  Tc  Tc1  1  0.66666700  0.33333200  0.25000000  1
  Ru  Ru0  1  0.16752093  0.33504086  0.24999900  1
  Ru  Ru1  1  0.66495814  0.83247707  0.24999900  1
  Ru  Ru2  1  0.16751993  0.83247707  0.24999900  1
  Ru  Ru3  1  0.83248007  0.66495914  0.75000000  1
  Ru  Ru4  1  0.33504286  0.16752293  0.75000000  1
  Ru  Ru5  1  0.83248007  0.16752293  0.75000000  1
loop_
_geom_bond_atom_site_label_1
_geom_bond_atom_site_label_2
_geom_bond_distance
_geom_bond_site_symmetry_2
Ru0 Tc0 2.648327 1_555
Ru0 Tc0 2.648327 1_554
Ru0 Ru4 2.657844 1_554
Ru0 Ru5 2.657847 1_454
Ru0 Ru4 2.657851 1_555
Ru0 Ru5 2.657854 1_455
Ru0 Ru2 2.705778 1_555
Ru0 Ru1 2.705779 1_555
Ru0 Tc1 2.719731 1_455
Ru0 Tc1 2.719737 1_555
Ru0 Ru2 2.733664 1_545
Ru0 Ru1 2.733664 1_445
Ru1 Tc0 2.648327 1_554
Ru1 Tc0 2.648327 1_555
Ru1 Ru3 2.657844 1_554
Ru1 Ru3 2.657851 1_555
Ru1 Ru5 2.657861 1_564
Ru1 Ru5 2.657868 1_565
Ru1 Ru2 2.705787 1_555
Ru1 Tc1 2.719730 1_555
Ru1 Tc1 2.719736 1_565
Ru1 Ru2 2.733657 1_655
Ru2 Tc0 2.648324 1_554
Ru2 Tc0 2.648324 1_555
Ru2 Ru3 2.657844 1_454
Ru2 Ru3 2.657851 1_455
Ru2 Ru4 2.657861 1_564
Ru2 Ru4 2.657868 1_565
Ru2 Tc1 2.719728 1_455
Ru2 Tc1 2.719739 1_565
Ru3 Tc1 2.648333 1_555
Ru3 Tc1 2.648333 1_556
Ru3 Ru5 2.705775 1_555
Ru3 Ru4 2.705779 1_555
Ru3 Tc0 2.719731 1_655
Ru3 Tc0 2.719737 1_555
Ru3 Ru4 2.733664 1_665
Ru3 Ru5 2.733667 1_565
Ru4 Tc1 2.648325 1_555
Ru4 Tc1 2.648325 1_556
Ru4 Ru5 2.705782 1_555
Ru4 Tc0 2.719722 1_555
Ru4 Tc0 2.719744 1_545
Ru4 Ru5 2.733662 1_455
Ru5 Tc1 2.648319 1_555
Ru5 Tc1 2.648319 1_556
Ru5 Tc0 2.719723 1_655
Ru5 Tc0 2.719744 1_545
