# generated using pymatgen
data_Mn5OF11
_symmetry_space_group_name_H-M   'P 1'
_cell_length_a   5.26325400
_cell_length_b   5.70992608
_cell_length_c   9.23451646
_cell_angle_alpha   106.75884109
_cell_angle_beta   88.62812931
_cell_angle_gamma   116.04404203
_symmetry_Int_Tables_number   1
_chemical_formula_structural   Mn5OF11
_chemical_formula_sum   'Mn5 O1 F11'
_cell_volume   237.04609750
_cell_formula_units_Z   1
loop_
 _symmetry_equiv_pos_site_id
 _symmetry_equiv_pos_as_xyz
  1  'x, y, z'
loop_
 _atom_site_type_symbol
 _atom_site_label
 _atom_site_symmetry_multiplicity
 _atom_site_fract_x
 _atom_site_fract_y
 _atom_site_fract_z
 _atom_site_occupancy
  Mn  Mn0  1  0.23933300  0.60931500  0.41570200  1
  Mn  Mn1  1  0.46421600  0.56597600  0.17215800  1
  Mn  Mn2  1  0.67100500  0.62113400  0.89143300  1
  Mn  Mn3  1  0.97007100  0.66592100  0.63570900  1
  Mn  Mn4  1  0.98083800  0.98542800  0.00151700  1
  O  O0  1  0.59712300  0.76019700  0.99000000  1
  F  F0  1  0.97271300  0.13540300  0.79689300  1
  F  F1  1  0.04740600  0.73188000  0.46807300  1
  F  F2  1  0.56739100  0.52251900  0.59083000  1
  F  F3  1  0.46054400  0.08202700  0.28858900  1
  F  F4  1  0.37175900  0.75359000  0.71140900  1
  F  F5  1  0.39329800  0.12057100  0.02961800  1
  F  F6  1  0.38529300  0.49419900  0.33801700  1
  F  F7  1  0.04611100  0.54176800  0.07751600  1
  F  F8  1  0.91112400  0.78702300  0.20136100  1
  F  F9  1  0.98704500  0.15320500  0.52449600  1
  F  F10  1  0.89841100  0.47174400  0.85368800  1
loop_
_geom_bond_atom_site_label_1
_geom_bond_atom_site_label_2
_geom_bond_distance
_geom_bond_site_symmetry_2
Mn1 O0 2.210661 1_554
Mn2 O0 1.203162 1_555
Mn4 O0 1.842455 1_554
F0 Mn4 2.296727 1_546
F0 Mn3 2.658777 1_545
F1 Mn0 1.465025 1_555
F1 Mn3 1.695694 1_455
F2 Mn3 1.912215 1_555
F3 Mn1 2.839172 1_545
F4 Mn3 2.036827 1_455
F5 Mn4 1.953460 1_445
F5 Mn1 2.366296 1_555
F6 Mn0 1.296901 1_555
F6 Mn1 1.693648 1_555
F7 Mn1 2.319668 1_555
F8 Mn1 2.103722 1_555
F8 Mn4 2.373185 1_555
F9 Mn0 2.821966 1_655
F9 Mn3 2.850399 1_555
F10 Mn2 1.728225 1_555
