# generated using pymatgen
data_Zr2NiAs2
_symmetry_space_group_name_H-M   'P 1'
_cell_length_a   3.90834934
_cell_length_b   3.90834970
_cell_length_c   13.23469965
_cell_angle_alpha   90.00000000
_cell_angle_beta   90.00000000
_cell_angle_gamma   120.00001391
_symmetry_Int_Tables_number   1
_chemical_formula_structural   Zr2NiAs2
_chemical_formula_sum   'Zr4 Ni2 As4'
_cell_volume   175.07794926
_cell_formula_units_Z   2
loop_
 _symmetry_equiv_pos_site_id
 _symmetry_equiv_pos_as_xyz
  1  'x, y, z'
loop_
 _atom_site_type_symbol
 _atom_site_label
 _atom_site_symmetry_multiplicity
 _atom_site_fract_x
 _atom_site_fract_y
 _atom_site_fract_z
 _atom_site_occupancy
  Zr  Zr0  1  0.66666700  0.33333300  0.38778090  1
  Zr  Zr1  1  0.33333300  0.66666700  0.88778090  1
  Zr  Zr2  1  0.33333300  0.66666700  0.61221910  1
  Zr  Zr3  1  0.66666700  0.33333300  0.11221910  1
  Ni  Ni0  1  -0.00000000  -0.00000000  0.75000000  1
  Ni  Ni1  1  -0.00000000  -0.00000000  0.25000000  1
  As  As0  1  0.33333300  0.66666700  0.25000000  1
  As  As1  1  -0.00000000  -0.00000000  -0.00000000  1
  As  As2  1  -0.00000000  -0.00000000  0.50000000  1
  As  As3  1  0.66666700  0.33333300  0.75000000  1
loop_
_geom_bond_atom_site_label_1
_geom_bond_atom_site_label_2
_geom_bond_distance
_geom_bond_site_symmetry_2
Ni0 Zr2 2.901178 1_545
Ni0 Zr1 2.901178 1_545
Ni0 Zr2 2.901180 1_445
Ni0 Zr1 2.901180 1_445
Ni0 Zr2 2.901180 1_555
Ni0 Zr1 2.901180 1_555
Ni1 Zr3 2.901178 1_455
Ni1 Zr0 2.901178 1_455
Ni1 Zr3 2.901180 1_555
Ni1 Zr0 2.901180 1_555
Ni1 Zr3 2.901180 1_445
Ni1 Zr0 2.901180 1_445
As0 Ni1 2.256485 1_565
As0 Ni1 2.256487 1_665
As0 Ni1 2.256488 1_555
As0 Zr3 2.901178 1_455
As0 Zr0 2.901178 1_455
As0 Zr3 2.901178 1_565
As0 Zr0 2.901178 1_565
As0 Zr0 2.901183 1_555
As0 Zr3 2.901183 1_555
As1 Zr3 2.701389 1_455
As1 Zr1 2.701389 1_544
As1 Zr3 2.701391 1_555
As1 Zr1 2.701391 1_444
As1 Zr1 2.701391 1_554
As1 Zr3 2.701391 1_445
As2 Zr2 2.701389 1_545
As2 Zr0 2.701389 1_455
As2 Zr2 2.701391 1_445
As2 Zr0 2.701391 1_555
As2 Zr0 2.701391 1_445
As2 Zr2 2.701391 1_555
As3 Ni0 2.256485 1_655
As3 Ni0 2.256487 1_555
As3 Ni0 2.256488 1_665
As3 Zr1 2.901178 1_655
As3 Zr2 2.901178 1_655
As3 Zr2 2.901178 1_545
As3 Zr1 2.901178 1_545
As3 Zr2 2.901183 1_555
As3 Zr1 2.901183 1_555
