# generated using pymatgen
data_NaFe2(Si2O5)3
_symmetry_space_group_name_H-M   'P 1'
_cell_length_a   11.36391185
_cell_length_b   11.36391185
_cell_length_c   10.20729200
_cell_angle_alpha   90.00000000
_cell_angle_beta   90.00000000
_cell_angle_gamma   100.28031503
_symmetry_Int_Tables_number   1
_chemical_formula_structural   NaFe2(Si2O5)3
_chemical_formula_sum   'Na4 Fe8 Si24 O60'
_cell_volume   1296.99319289
_cell_formula_units_Z   4
loop_
 _symmetry_equiv_pos_site_id
 _symmetry_equiv_pos_as_xyz
  1  'x, y, z'
loop_
 _atom_site_type_symbol
 _atom_site_label
 _atom_site_symmetry_multiplicity
 _atom_site_fract_x
 _atom_site_fract_y
 _atom_site_fract_z
 _atom_site_occupancy
  Na  Na0  1  0.97016300  0.52983700  0.25000000  1
  Na  Na1  1  0.52983700  0.97016300  0.75000000  1
  Na  Na2  1  0.02983700  0.47016300  0.75000000  1
  Na  Na3  1  0.47016300  0.02983700  0.25000000  1
  Fe  Fe0  1  0.75146400  0.75146400  0.00000000  1
  Fe  Fe1  1  0.25146400  0.25146400  0.50000000  1
  Fe  Fe2  1  0.24853600  0.24853600  0.00000000  1
  Fe  Fe3  1  0.74853600  0.74853600  0.50000000  1
  Fe  Fe4  1  0.65619900  0.84380100  0.25000000  1
  Fe  Fe5  1  0.84380100  0.65619900  0.75000000  1
  Fe  Fe6  1  0.34380100  0.15619900  0.75000000  1
  Fe  Fe7  1  0.15619900  0.34380100  0.25000000  1
  Si  Si0  1  0.74060600  0.47622700  0.01140500  1
  Si  Si1  1  0.47622700  0.74060600  0.98859500  1
  Si  Si2  1  0.97622700  0.24060600  0.51140500  1
  Si  Si3  1  0.24060600  0.97622700  0.48859500  1
  Si  Si4  1  0.25939400  0.52377300  0.98859500  1
  Si  Si5  1  0.52377300  0.25939400  0.01140500  1
  Si  Si6  1  0.02377300  0.75939400  0.48859500  1
  Si  Si7  1  0.75939400  0.02377300  0.51140500  1
  Si  Si8  1  0.67991800  0.53902900  0.30434800  1
  Si  Si9  1  0.53902900  0.67991800  0.69565200  1
  Si  Si10  1  0.03902900  0.17991800  0.80434800  1
  Si  Si11  1  0.17991800  0.03902900  0.19565200  1
  Si  Si12  1  0.32008200  0.46097100  0.69565200  1
  Si  Si13  1  0.46097100  0.32008200  0.30434800  1
  Si  Si14  1  0.96097100  0.82008200  0.19565200  1
  Si  Si15  1  0.82008200  0.96097100  0.80434800  1
  Si  Si16  1  0.79789600  0.42030200  0.54248200  1
  Si  Si17  1  0.42030200  0.79789600  0.45751800  1
  Si  Si18  1  0.92030200  0.29789600  0.04248200  1
  Si  Si19  1  0.29789600  0.92030200  0.95751800  1
  Si  Si20  1  0.20210400  0.57969800  0.45751800  1
  Si  Si21  1  0.57969800  0.20210400  0.54248200  1
  Si  Si22  1  0.07969800  0.70210400  0.95751800  1
  Si  Si23  1  0.70210400  0.07969800  0.04248200  1
  O  O0  1  0.85298600  0.40673100  0.99201600  1
  O  O1  1  0.40673100  0.85298600  0.00798400  1
  O  O2  1  0.90673100  0.35298600  0.49201600  1
  O  O3  1  0.35298600  0.90673100  0.50798400  1
  O  O4  1  0.14701400  0.59326900  0.00798400  1
  O  O5  1  0.59326900  0.14701400  0.99201600  1
  O  O6  1  0.09326900  0.64701400  0.50798400  1
  O  O7  1  0.64701400  0.09326900  0.49201600  1
  O  O8  1  0.75139200  0.59071300  0.91513600  1
  O  O9  1  0.59071300  0.75139200  0.08486400  1
  O  O10  1  0.09071300  0.25139200  0.41513600  1
  O  O11  1  0.25139200  0.09071300  0.58486400  1
  O  O12  1  0.24860800  0.40928700  0.08486400  1
  O  O13  1  0.40928700  0.24860800  0.91513600  1
  O  O14  1  0.90928700  0.74860800  0.58486400  1
  O  O15  1  0.74860800  0.90928700  0.41513600  1
  O  O16  1  0.74816400  0.52694100  0.16398400  1
  O  O17  1  0.52694100  0.74816400  0.83601600  1
  O  O18  1  0.02694100  0.24816400  0.66398400  1
  O  O19  1  0.24816400  0.02694100  0.33601600  1
  O  O20  1  0.25183600  0.47305900  0.83601600  1
  O  O21  1  0.47305900  0.25183600  0.16398400  1
  O  O22  1  0.97305900  0.75183600  0.33601600  1
  O  O23  1  0.75183600  0.97305900  0.66398400  1
  O  O24  1  0.66659600  0.67543200  0.33643400  1
  O  O25  1  0.67543200  0.66659600  0.66356600  1
  O  O26  1  0.17543200  0.16659600  0.83643400  1
  O  O27  1  0.16659600  0.17543200  0.16356600  1
  O  O28  1  0.33340400  0.32456800  0.66356600  1
  O  O29  1  0.32456800  0.33340400  0.33643400  1
  O  O30  1  0.82456800  0.83340400  0.16356600  1
  O  O31  1  0.83340400  0.82456800  0.83643400  1
  O  O32  1  0.77266400  0.49888400  0.41292500  1
  O  O33  1  0.49888400  0.77266400  0.58707500  1
  O  O34  1  0.99888400  0.27266400  0.91292500  1
  O  O35  1  0.27266400  0.99888400  0.08707500  1
  O  O36  1  0.22733600  0.50111600  0.58707500  1
  O  O37  1  0.50111600  0.22733600  0.41292500  1
  O  O38  1  0.00111600  0.72733600  0.08707500  1
  O  O39  1  0.72733600  0.00111600  0.91292500  1
  O  O40  1  0.84407400  0.50099100  0.66740700  1
  O  O41  1  0.50099100  0.84407400  0.33259300  1
  O  O42  1  0.00099100  0.34407400  0.16740700  1
  O  O43  1  0.34407400  0.00099100  0.83259300  1
  O  O44  1  0.15592600  0.49900900  0.33259300  1
  O  O45  1  0.49900900  0.15592600  0.66740700  1
  O  O46  1  0.99900900  0.65592600  0.83259300  1
  O  O47  1  0.65592600  0.99900900  0.16740700  1
  O  O48  1  0.61434900  0.38565100  0.99000400  1
  O  O49  1  0.38565100  0.61434900  0.00999600  1
  O  O50  1  0.88565100  0.11434900  0.49000400  1
  O  O51  1  0.11434900  0.88565100  0.50999600  1
  O  O52  1  0.55238500  0.44761500  0.30758500  1
  O  O53  1  0.44761500  0.55238500  0.69241500  1
  O  O54  1  0.94761500  0.05238500  0.80758500  1
  O  O55  1  0.05238500  0.94761500  0.19241500  1
  O  O56  1  0.67945400  0.32054600  0.57517100  1
  O  O57  1  0.32054600  0.67945400  0.42482900  1
  O  O58  1  0.82054600  0.17945400  0.07517100  1
  O  O59  1  0.17945400  0.82054600  0.92482900  1
loop_
_geom_bond_atom_site_label_1
_geom_bond_atom_site_label_2
_geom_bond_distance
_geom_bond_site_symmetry_2
Na0 O44 2.356634 1_655
Na0 O42 2.356634 1_655
Na0 O22 2.665843 1_555
Na0 O16 2.665843 1_555
Na0 O32 2.764915 1_555
Na0 O38 2.764915 1_655
Na1 O45 2.356634 1_565
Na1 O43 2.356634 1_565
Na1 O23 2.665843 1_555
Na1 O17 2.665843 1_555
Na1 O33 2.764915 1_555
Na1 O39 2.764915 1_565
Na2 O46 2.356634 1_455
Na2 O40 2.356634 1_455
Na2 O18 2.665843 1_555
Na2 O20 2.665843 1_555
Na2 O36 2.764915 1_555
Na2 O34 2.764915 1_455
Na3 O41 2.356634 1_545
Na3 O47 2.356634 1_545
Na3 O19 2.665843 1_555
Na3 O21 2.665843 1_555
Na3 O37 2.764915 1_555
Na3 O35 2.764915 1_545
Fe0 O31 2.017063 1_554
Fe0 O30 2.017063 1_555
Fe0 O9 2.021603 1_555
Fe0 O8 2.021603 1_554
Fe1 O28 2.017063 1_555
Fe1 O29 2.017063 1_555
Fe1 O11 2.021603 1_555
Fe1 O10 2.021603 1_555
Fe2 O26 2.017063 1_554
Fe2 O27 2.017063 1_555
Fe2 O12 2.021603 1_555
Fe2 O13 2.021603 1_554
Fe3 O24 2.017063 1_555
Fe3 O25 2.017063 1_555
Fe3 O14 2.021603 1_555
Fe3 O15 2.021603 1_555
Fe4 O41 1.955398 1_555
Fe4 O47 1.955398 1_555
Fe4 O9 2.053985 1_555
Fe4 O15 2.053985 1_555
Fe4 O30 2.129286 1_555
Fe4 O24 2.129286 1_555
Fe5 O46 1.955398 1_555
Fe5 O40 1.955398 1_555
Fe5 O8 2.053985 1_555
Fe5 O14 2.053985 1_555
Fe5 O25 2.129286 1_555
Fe5 O31 2.129286 1_555
Fe6 O43 1.955398 1_555
Fe6 O45 1.955398 1_555
Fe6 O13 2.053985 1_555
Fe6 O11 2.053985 1_555
Fe6 O28 2.129286 1_555
Fe6 O26 2.129286 1_555
Fe7 O42 1.955398 1_555
Fe7 O44 1.955398 1_555
Fe7 O10 2.053985 1_555
Fe7 O12 2.053985 1_555
Fe7 O29 2.129286 1_555
Fe7 O27 2.129286 1_555
O0 Si0 1.629042 1_556
O0 Si18 1.648600 1_556
O1 Si1 1.629042 1_554
O1 Si19 1.648600 1_554
O2 Si2 1.629042 1_555
O2 Si16 1.648600 1_555
O3 Si3 1.629042 1_555
O3 Si17 1.648600 1_555
O4 Si4 1.629042 1_554
O4 Si22 1.648600 1_554
O5 Si5 1.629042 1_556
O5 Si23 1.648600 1_556
O6 Si6 1.629042 1_555
O6 Si20 1.648600 1_555
O7 Si7 1.629042 1_555
O7 Si21 1.648600 1_555
O8 Si0 1.617505 1_556
O9 Si1 1.617505 1_554
O10 Si2 1.617505 1_455
O11 Si3 1.617505 1_545
O12 Si4 1.617505 1_554
O13 Si5 1.617505 1_556
O14 Si6 1.617505 1_655
O15 Si7 1.617505 1_565
O16 Si8 1.646540 1_555
O16 Si0 1.657527 1_555
O17 Si9 1.646540 1_555
O17 Si1 1.657527 1_555
O18 Si10 1.646540 1_555
O18 Si2 1.657527 1_455
O19 Si11 1.646540 1_555
O19 Si3 1.657527 1_545
O20 Si12 1.646540 1_555
O20 Si4 1.657527 1_555
O21 Si13 1.646540 1_555
O21 Si5 1.657527 1_555
O22 Si14 1.646540 1_555
O22 Si6 1.657527 1_655
O23 Si15 1.646540 1_555
O23 Si7 1.657527 1_565
O24 Si8 1.617610 1_555
O25 Si9 1.617610 1_555
O26 Si10 1.617610 1_555
O27 Si11 1.617610 1_555
O28 Si12 1.617610 1_555
O29 Si13 1.617610 1_555
O30 Si14 1.617610 1_555
O31 Si15 1.617610 1_555
O32 Si8 1.648892 1_555
O32 Si16 1.649202 1_555
O33 Si9 1.648892 1_555
O33 Si17 1.649202 1_555
O34 Si10 1.648892 1_655
O34 Si18 1.649202 1_556
O35 Si11 1.648892 1_565
O35 Si19 1.649202 1_554
O36 Si12 1.648892 1_555
O36 Si20 1.649202 1_555
O37 Si13 1.648892 1_555
O37 Si21 1.649202 1_555
O38 Si14 1.648892 1_455
O38 Si22 1.649202 1_554
O39 Si15 1.648892 1_545
O39 Si23 1.649202 1_556
O40 Si16 1.603250 1_555
O41 Si17 1.603250 1_555
O42 Si18 1.603250 1_455
O43 Si19 1.603250 1_545
O44 Si20 1.603250 1_555
O45 Si21 1.603250 1_555
O46 Si22 1.603250 1_655
O47 Si23 1.603250 1_565
O48 Si5 1.624387 1_556
O48 Si0 1.624387 1_556
O49 Si4 1.624387 1_554
O49 Si1 1.624387 1_554
O50 Si7 1.624387 1_555
O50 Si2 1.624387 1_555
O51 Si6 1.624387 1_555
O51 Si3 1.624387 1_555
O52 Si8 1.625812 1_555
O52 Si13 1.625812 1_555
O53 Si9 1.625812 1_555
O53 Si12 1.625812 1_555
O54 Si10 1.625812 1_655
O54 Si15 1.625812 1_545
O55 Si11 1.625812 1_565
O55 Si14 1.625812 1_455
O56 Si16 1.632005 1_555
O56 Si21 1.632005 1_555
O57 Si17 1.632005 1_555
O57 Si20 1.632005 1_555
O58 Si18 1.632005 1_555
O58 Si23 1.632005 1_555
O59 Si19 1.632005 1_555
O59 Si22 1.632005 1_555
