# generated using pymatgen
data_Li4Fe2Ni3O10
_symmetry_space_group_name_H-M   'P 1'
_cell_length_a   5.08188900
_cell_length_b   5.04211373
_cell_length_c   7.76669013
_cell_angle_alpha   108.34020190
_cell_angle_beta   102.83721910
_cell_angle_gamma   99.31494831
_symmetry_Int_Tables_number   1
_chemical_formula_structural   Li4Fe2Ni3O10
_chemical_formula_sum   'Li4 Fe2 Ni3 O10'
_cell_volume   178.31008525
_cell_formula_units_Z   1
loop_
 _symmetry_equiv_pos_site_id
 _symmetry_equiv_pos_as_xyz
  1  'x, y, z'
loop_
 _atom_site_type_symbol
 _atom_site_label
 _atom_site_symmetry_multiplicity
 _atom_site_fract_x
 _atom_site_fract_y
 _atom_site_fract_z
 _atom_site_occupancy
  Li  Li0  1  0.40364500  0.09827300  0.41303000  1
  Li  Li1  1  0.83453700  0.73573900  0.78259900  1
  Li  Li2  1  0.16546300  0.26426100  0.21740100  1
  Li  Li3  1  0.59635500  0.90172700  0.58697000  1
  Fe  Fe0  1  0.72889200  0.32332000  0.68702800  1
  Fe  Fe1  1  0.27110800  0.67668000  0.31297200  1
  Ni  Ni0  1  0.00000000  0.50000000  0.00000000  1
  Ni  Ni1  1  0.89566700  0.09638100  0.90221000  1
  Ni  Ni2  1  0.10433300  0.90361900  0.09779000  1
  O  O0  1  0.33248500  0.37538900  0.86307100  1
  O  O1  1  0.00537100  0.19654500  0.55305800  1
  O  O2  1  0.42225400  0.81060200  0.95383900  1
  O  O3  1  0.09778300  0.54907000  0.68007500  1
  O  O4  1  0.78595200  0.02361500  0.21867900  1
  O  O5  1  0.21404800  0.97638500  0.78132100  1
  O  O6  1  0.90221700  0.45093000  0.31992500  1
  O  O7  1  0.57774600  0.18939800  0.04616100  1
  O  O8  1  0.99462900  0.80345500  0.44694200  1
  O  O9  1  0.66751500  0.62461100  0.13692900  1
loop_
_geom_bond_atom_site_label_1
_geom_bond_atom_site_label_2
_geom_bond_distance
_geom_bond_site_symmetry_2
Li0 Li3 2.082071 1_545
Li0 Li2 2.187481 1_555
Li0 Ni2 2.370876 1_545
Li0 O8 2.467582 1_445
Li0 O1 2.547246 1_555
Li0 O4 2.716091 1_555
Li1 Ni1 1.700558 1_565
Li1 O3 1.928448 1_655
Li1 O5 2.109623 1_655
Li1 Li3 2.187481 1_555
Li2 Ni2 1.700558 1_545
Li2 O6 1.928448 1_455
Li2 O4 2.109623 1_455
Li3 Ni1 2.370876 1_565
Li3 O1 2.467582 1_665
Li3 O8 2.547246 1_555
Li3 O5 2.716091 1_555
Fe0 Li1 1.911416 1_555
Fe0 Li3 1.959740 1_545
Fe0 O1 1.996793 1_655
Fe0 O3 2.050805 1_655
Fe0 Li0 2.204175 1_555
Fe0 Ni0 2.313469 1_656
Fe0 Ni1 2.389289 1_555
Fe0 O0 2.676902 1_555
Fe1 Li2 1.911416 1_555
Fe1 Li0 1.959740 1_565
Fe1 O8 1.996793 1_455
Fe1 O6 2.050805 1_455
Fe1 Li3 2.204175 1_555
Fe1 Ni0 2.313469 1_555
Fe1 Ni2 2.389289 1_555
Fe1 O9 2.676902 1_555
Ni0 O0 2.258836 1_554
Ni0 O9 2.258836 1_455
Ni1 O5 2.121300 1_645
Ni1 O7 2.190480 1_556
Ni2 O4 2.121300 1_465
Ni2 O2 2.190480 1_554
O0 O5 1.856653 1_545
O1 O3 1.665398 1_555
O1 O8 1.878181 1_445
O4 O9 1.856653 1_545
O6 O8 1.665398 1_555
