# generated using pymatgen
data_RbNpCuS3
_symmetry_space_group_name_H-M   'P 1'
_cell_length_a   7.56607941
_cell_length_b   7.56607941
_cell_length_c   10.26608600
_cell_angle_alpha   90.00000000
_cell_angle_beta   90.00000000
_cell_angle_gamma   149.25563410
_symmetry_Int_Tables_number   1
_chemical_formula_structural   RbNpCuS3
_chemical_formula_sum   'Rb2 Np2 Cu2 S6'
_cell_volume   300.43105182
_cell_formula_units_Z   2
loop_
 _symmetry_equiv_pos_site_id
 _symmetry_equiv_pos_as_xyz
  1  'x, y, z'
loop_
 _atom_site_type_symbol
 _atom_site_label
 _atom_site_symmetry_multiplicity
 _atom_site_fract_x
 _atom_site_fract_y
 _atom_site_fract_z
 _atom_site_occupancy
  Rb  Rb0  1  0.74164300  0.25835700  0.25000000  1
  Rb  Rb1  1  0.25835700  0.74164300  0.75000000  1
  Np  Np0  1  0.00000000  0.00000000  0.50000000  1
  Np  Np1  1  0.00000000  0.00000000  0.00000000  1
  Cu  Cu0  1  0.46508500  0.53491500  0.25000000  1
  Cu  Cu1  1  0.53491500  0.46508500  0.75000000  1
  S  S0  1  0.38233400  0.61766600  0.44052600  1
  S  S1  1  0.05527900  0.94472100  0.25000000  1
  S  S2  1  0.38233400  0.61766600  0.05947400  1
  S  S3  1  0.61766600  0.38233400  0.94052600  1
  S  S4  1  0.94472100  0.05527900  0.75000000  1
  S  S5  1  0.61766600  0.38233400  0.55947400  1
loop_
_geom_bond_atom_site_label_1
_geom_bond_atom_site_label_2
_geom_bond_distance
_geom_bond_site_symmetry_2
Rb0 S1 3.378873 1_655
Rb0 S1 3.378873 1_545
Rb0 S0 3.473106 1_655
Rb0 S2 3.473106 1_655
Rb0 S0 3.473106 1_545
Rb0 S2 3.473106 1_545
Rb0 S3 3.655965 1_554
Rb0 S5 3.655965 1_555
Rb1 S4 3.378873 1_565
Rb1 S4 3.378873 1_455
Rb1 S5 3.473106 1_565
Rb1 S3 3.473106 1_565
Rb1 S5 3.473106 1_455
Rb1 S3 3.473106 1_455
Rb1 S0 3.655965 1_555
Rb1 S2 3.655965 1_556
Np0 S1 2.690275 1_545
Np0 S4 2.690275 1_455
Np0 S0 2.709810 1_555
Np0 S5 2.709810 1_555
Np0 S5 2.709810 1_445
Np0 S0 2.709810 1_445
Np1 S4 2.690275 1_454
Np1 S1 2.690275 1_545
Np1 S2 2.709810 1_555
Np1 S3 2.709810 1_554
Np1 S2 2.709810 1_445
Np1 S3 2.709810 1_444
Cu0 S0 2.298605 1_555
Cu0 S2 2.298605 1_555
Cu0 S1 2.398875 1_655
Cu0 S1 2.398875 1_545
Cu1 S3 2.298605 1_555
Cu1 S5 2.298605 1_555
Cu1 S4 2.398875 1_565
Cu1 S4 2.398875 1_455
