# generated using pymatgen
data_Li2Si2NiO6
_symmetry_space_group_name_H-M   'P 1'
_cell_length_a   15.61714531
_cell_length_b   11.62285231
_cell_length_c   11.35099822
_cell_angle_alpha   85.64412277
_cell_angle_beta   47.90949859
_cell_angle_gamma   46.44637864
_symmetry_Int_Tables_number   1
_chemical_formula_structural   Li2Si2NiO6
_chemical_formula_sum   'Li12 Si12 Ni6 O36'
_cell_volume   771.79424337
_cell_formula_units_Z   6
loop_
 _symmetry_equiv_pos_site_id
 _symmetry_equiv_pos_as_xyz
  1  'x, y, z'
loop_
 _atom_site_type_symbol
 _atom_site_label
 _atom_site_symmetry_multiplicity
 _atom_site_fract_x
 _atom_site_fract_y
 _atom_site_fract_z
 _atom_site_occupancy
  Li  Li0  1  0.62295000  0.62295000  0.87705000  1
  Li  Li1  1  0.00208800  0.00208800  0.49791200  1
  Li  Li2  1  0.11083800  0.46254000  0.53303300  1
  Li  Li3  1  0.80233700  0.05940900  0.91813700  1
  Li  Li4  1  0.33186300  0.02988300  0.44766300  1
  Li  Li5  1  0.71696700  0.35641100  0.13916200  1
  Li  Li6  1  0.75208800  0.75208800  0.24791200  1
  Li  Li7  1  0.37295000  0.37295000  0.62705000  1
  Li  Li8  1  0.35641100  0.71696700  0.78746000  1
  Li  Li9  1  0.02988300  0.33186300  0.19059100  1
  Li  Li10  1  0.05940900  0.80233700  0.22011700  1
  Li  Li11  1  0.46254000  0.11083800  0.89358900  1
  Si  Si0  1  0.15898400  0.15898400  0.34101600  1
  Si  Si1  1  0.49336400  0.49336400  0.00663600  1
  Si  Si2  1  0.56430000  0.94650600  0.04291700  1
  Si  Si3  1  0.28287300  0.58114600  0.42468400  1
  Si  Si4  1  0.82531600  0.53870300  0.96712700  1
  Si  Si5  1  0.20708300  0.80372400  0.68570000  1
  Si  Si6  1  0.90898400  0.90898400  0.09101600  1
  Si  Si7  1  0.24336400  0.24336400  0.75663600  1
  Si  Si8  1  0.80372400  0.20708300  0.30349400  1
  Si  Si9  1  0.53870300  0.82531600  0.66885400  1
  Si  Si10  1  0.58114600  0.28287300  0.71129700  1
  Si  Si11  1  0.94650600  0.56430000  0.44627600  1
  Ni  Ni0  1  0.87385400  0.87385400  0.62614600  1
  Ni  Ni1  1  0.94391500  0.19834500  0.73939400  1
  Ni  Ni2  1  0.51060600  0.13165400  0.30608500  1
  Ni  Ni3  1  0.62385400  0.62385400  0.37614600  1
  Ni  Ni4  1  0.13165400  0.51060600  0.05165500  1
  Ni  Ni5  1  0.19834500  0.94391500  0.11834600  1
  O  O0  1  0.42617000  0.97238300  0.08161100  1
  O  O1  1  0.75459800  0.31402500  0.77003700  1
  O  O2  1  0.61417900  0.01681400  0.91406200  1
  O  O3  1  0.03113700  0.84122700  0.59376100  1
  O  O4  1  0.47371000  0.42553700  0.15038500  1
  O  O5  1  0.18371100  0.06696100  0.44769700  1
  O  O6  1  0.80448100  0.67056000  0.88368000  1
  O  O7  1  0.76107800  0.47150900  0.97080100  1
  O  O8  1  0.39589400  0.11899500  0.29642100  1
  O  O9  1  0.95357900  0.06131000  0.85410600  1
  O  O10  1  0.27919900  0.45338800  0.48892200  1
  O  O11  1  0.36632000  0.60872100  0.44551900  1
  O  O12  1  0.80230300  0.94836900  0.06628900  1
  O  O13  1  0.09961500  0.29963100  0.77629000  1
  O  O14  1  0.65623900  0.71612500  0.21886300  1
  O  O15  1  0.33593800  0.79505500  0.63582100  1
  O  O16  1  0.47996300  0.08865900  0.49540200  1
  O  O17  1  0.16838900  0.73016400  0.82383000  1
  O  O18  1  0.73016400  0.16838900  0.27761700  1
  O  O19  1  0.08865900  0.47996300  0.93597500  1
  O  O20  1  0.79505500  0.33593800  0.23318600  1
  O  O21  1  0.71612500  0.65623800  0.40877300  1
  O  O22  1  0.29963100  0.09961500  0.82446300  1
  O  O23  1  0.94836900  0.80230300  0.18303900  1
  O  O24  1  0.60872100  0.36632000  0.57944000  1
  O  O25  1  0.45338800  0.27919900  0.77849100  1
  O  O26  1  0.06131000  0.95357900  0.13100500  1
  O  O27  1  0.11899500  0.39589400  0.18869000  1
  O  O28  1  0.47150900  0.76107800  0.79661200  1
  O  O29  1  0.67056000  0.80448100  0.64127900  1
  O  O30  1  0.06696100  0.18371100  0.30163100  1
  O  O31  1  0.42553700  0.47371000  0.95036900  1
  O  O32  1  0.84122700  0.03113700  0.53387500  1
  O  O33  1  0.01681400  0.61417900  0.45494500  1
  O  O34  1  0.31402500  0.75459800  0.16134100  1
  O  O35  1  0.97238300  0.42617000  0.51983600  1
loop_
_geom_bond_atom_site_label_1
_geom_bond_atom_site_label_2
_geom_bond_distance
_geom_bond_site_symmetry_2
Li0 O1 2.395052 1_555
Li0 O34 2.395053 1_556
Li0 O0 2.448883 1_556
Li0 O35 2.448883 1_555
Li0 O28 2.538597 1_555
Li0 O7 2.538597 1_555
Li1 O34 2.002443 1_545
Li1 O1 2.002448 1_455
Li1 O3 2.017172 1_545
Li1 O32 2.017172 1_455
Li2 O33 1.997316 1_555
Li2 O8 2.019748 1_555
Li2 O6 2.137748 1_455
Li2 O10 2.243452 1_555
Li2 O35 2.565154 1_455
Li3 O9 1.968675 1_555
Li3 O3 2.012265 1_645
Li3 O12 2.040524 1_546
Li3 O4 2.206231 1_556
Li4 O8 1.968675 1_555
Li4 O14 2.012265 1_545
Li4 O5 2.040524 1_555
Li4 O13 2.206226 1_555
Li5 O20 1.997316 1_555
Li5 O9 2.019748 1_554
Li5 O11 2.137748 1_555
Li5 O7 2.243452 1_554
Li5 O18 2.565154 1_555
Li6 O16 2.002441 1_565
Li6 O19 2.002442 1_654
Li6 O14 2.017172 1_555
Li6 O21 2.017180 1_555
Li7 O19 2.395060 1_555
Li7 O16 2.395063 1_555
Li7 O18 2.448883 1_555
Li7 O17 2.448883 1_555
Li7 O10 2.538597 1_555
Li7 O25 2.538597 1_555
Li8 O15 1.997316 1_555
Li8 O26 2.019748 1_556
Li8 O24 2.137748 1_555
Li8 O28 2.243452 1_555
Li8 O17 2.565154 1_555
Li9 O27 1.968675 1_555
Li9 O21 2.012262 1_455
Li9 O30 2.040524 1_555
Li9 O22 2.206234 1_554
Li10 O26 1.968675 1_555
Li10 O32 2.012265 1_465
Li10 O23 2.040524 1_455
Li10 O31 2.206233 1_554
Li11 O2 1.997316 1_555
Li11 O27 2.019748 1_556
Li11 O29 2.137748 1_545
Li11 O25 2.243452 1_555
Li11 O0 2.565154 1_546
Ni0 O33 1.912809 1_655
Ni0 O2 1.912809 1_565
Ni0 O3 1.959450 1_655
Ni0 O32 1.959450 1_565
Ni1 O5 1.893057 1_655
Ni1 O7 1.962613 1_555
Ni1 O9 1.967792 1_555
Ni1 O1 1.970895 1_555
Ni2 O12 1.893057 1_545
Ni2 O10 1.962613 1_555
Ni2 O8 1.967792 1_555
Ni2 O16 1.970899 1_555
Ni3 O20 1.912809 1_555
Ni3 O15 1.912809 1_555
Ni3 O21 1.959442 1_555
Ni3 O14 1.959450 1_555
Ni4 O23 1.893057 1_455
Ni4 O25 1.962613 1_554
Ni4 O27 1.967792 1_555
Ni4 O19 1.970909 1_554
Ni5 O30 1.893057 1_565
Ni5 O28 1.962613 1_554
Ni5 O26 1.967792 1_555
Ni5 O34 1.970904 1_555
O0 Si2 1.671120 1_555
O0 Si0 1.677095 1_565
O1 Si1 1.626190 1_556
O2 Si2 1.606896 1_546
O3 Si3 1.632816 1_555
O4 Si3 1.683716 1_555
O4 Si1 1.686643 1_555
O5 Si0 1.618777 1_555
O6 Si2 1.684103 1_556
O6 Si4 1.690348 1_555
O7 Si4 1.623820 1_555
O8 Si2 1.637364 1_545
O9 Si5 1.637361 1_645
O10 Si3 1.623820 1_555
O11 Si5 1.684109 1_555
O11 Si3 1.690348 1_555
O12 Si6 1.618777 1_555
O13 Si4 1.683716 1_455
O13 Si7 1.686649 1_555
O14 Si4 1.632816 1_554
O15 Si5 1.606887 1_555
O16 Si7 1.626186 1_555
O17 Si5 1.671128 1_555
O17 Si6 1.677095 1_456
O18 Si8 1.671135 1_555
O18 Si6 1.677095 1_545
O19 Si7 1.626181 1_555
O20 Si8 1.606892 1_555
O21 Si9 1.632818 1_555
O22 Si9 1.683719 1_545
O22 Si7 1.686641 1_555
O23 Si6 1.618777 1_555
O24 Si8 1.684100 1_555
O24 Si10 1.690348 1_555
O25 Si10 1.623820 1_555
O26 Si8 1.637358 1_465
O27 Si11 1.637356 1_455
O28 Si9 1.623820 1_555
O29 Si11 1.684100 1_555
O29 Si9 1.690348 1_555
O30 Si0 1.618777 1_555
O31 Si10 1.683725 1_555
O31 Si1 1.686634 1_556
O32 Si10 1.632816 1_555
O33 Si11 1.606902 1_455
O34 Si1 1.626190 1_555
O35 Si11 1.671126 1_555
O35 Si0 1.677095 1_655
