# generated using pymatgen
data_Li3Fe8(BO3)8
_symmetry_space_group_name_H-M   'P 1'
_cell_length_a   5.22017900
_cell_length_b   9.15205480
_cell_length_c   10.13627760
_cell_angle_alpha   89.09782868
_cell_angle_beta   89.57759269
_cell_angle_gamma   89.33641737
_symmetry_Int_Tables_number   1
_chemical_formula_structural   Li3Fe8(BO3)8
_chemical_formula_sum   'Li3 Fe8 B8 O24'
_cell_volume   484.15932981
_cell_formula_units_Z   1
loop_
 _symmetry_equiv_pos_site_id
 _symmetry_equiv_pos_as_xyz
  1  'x, y, z'
loop_
 _atom_site_type_symbol
 _atom_site_label
 _atom_site_symmetry_multiplicity
 _atom_site_fract_x
 _atom_site_fract_y
 _atom_site_fract_z
 _atom_site_occupancy
  Li  Li0  1  0.15200200  0.17089300  0.64770200  1
  Li  Li1  1  0.33489100  0.31820500  0.91172800  1
  Li  Li2  1  0.68205800  0.67040200  0.15093700  1
  Fe  Fe0  1  0.17101800  0.82855800  0.63109200  1
  Fe  Fe1  1  0.18645600  0.48694200  0.13636000  1
  Fe  Fe2  1  0.32065300  0.98799500  0.87958100  1
  Fe  Fe3  1  0.32546700  0.66019300  0.37972700  1
  Fe  Fe4  1  0.64928600  0.34923900  0.62400900  1
  Fe  Fe5  1  0.67102900  0.01188900  0.12546300  1
  Fe  Fe6  1  0.83071800  0.16603800  0.37833000  1
  Fe  Fe7  1  0.83126800  0.50498600  0.87447200  1
  B  B0  1  0.14754800  0.49924100  0.62967000  1
  B  B1  1  0.17048700  0.83298400  0.13315600  1
  B  B2  1  0.33806500  0.99805300  0.38141200  1
  B  B3  1  0.33339500  0.65739800  0.87571700  1
  B  B4  1  0.66996800  0.00228900  0.62666000  1
  B  B5  1  0.67284600  0.33172900  0.12322400  1
  B  B6  1  0.83319900  0.49549600  0.37152500  1
  B  B7  1  0.83149000  0.17631500  0.87982200  1
  O  O0  1  0.09233900  0.50383000  0.34318400  1
  O  O1  1  0.08991300  0.16623000  0.85634800  1
  O  O2  1  0.21230400  0.78064300  0.82347800  1
  O  O3  1  0.25961200  0.86184800  0.43037900  1
  O  O4  1  0.17906400  0.11572400  0.38838000  1
  O  O5  1  0.19068100  0.53474700  0.91419800  1
  O  O6  1  0.27576500  0.36932300  0.63307900  1
  O  O7  1  0.32357100  0.94484900  0.08532400  1
  O  O8  1  0.26087900  0.62666400  0.57740100  1
  O  O9  1  0.29391400  0.70496100  0.17774800  1
  O  O10  1  0.41724000  0.32316900  0.10272300  1
  O  O11  1  0.40738700  0.99936200  0.66160400  1
  O  O12  1  0.58681000  0.01096600  0.32892300  1
  O  O13  1  0.59141000  0.65540700  0.89551000  1
  O  O14  1  0.69647700  0.30615200  0.84678200  1
  O  O15  1  0.73576900  0.36488300  0.41896600  1
  O  O16  1  0.67517700  0.61393200  0.34881100  1
  O  O17  1  0.68881600  0.06240800  0.93336800  1
  O  O18  1  0.80797700  0.45862300  0.08839400  1
  O  O19  1  0.82232500  0.88150400  0.63595000  1
  O  O20  1  0.77357100  0.13557100  0.58210900  1
  O  O21  1  0.80701500  0.20818500  0.17458800  1
  O  O22  1  0.90683300  0.84587100  0.13406000  1
  O  O23  1  0.89904200  0.51078900  0.67951200  1
loop_
_geom_bond_atom_site_label_1
_geom_bond_atom_site_label_2
_geom_bond_distance
_geom_bond_site_symmetry_2
Li0 O6 1.937696 1_555
Li0 O11 2.051573 1_545
Li0 O20 2.118960 1_455
Li0 O1 2.137059 1_555
Li1 O10 1.987552 1_556
Li1 O1 1.990337 1_555
Li1 O14 1.996874 1_555
Li1 O5 2.112253 1_555
Li2 O22 2.004248 1_555
Li2 O16 2.063485 1_555
Li2 O9 2.063746 1_555
Li2 O18 2.143286 1_555
Fe0 O19 1.878696 1_455
Fe0 O8 1.984494 1_555
Fe0 O2 2.004653 1_555
Fe0 O11 2.031571 1_555
Fe0 O3 2.101357 1_555
Fe1 O10 1.944845 1_555
Fe1 O18 2.058411 1_455
Fe1 O9 2.127846 1_555
Fe1 O0 2.157204 1_555
Fe1 O5 2.287226 1_554
Fe2 O1 2.028233 1_565
Fe2 O2 2.075605 1_555
Fe2 O7 2.116538 1_556
Fe2 O17 2.124174 1_565
Fe2 O11 2.253154 1_555
Fe3 O16 1.894182 1_555
Fe3 O0 1.931264 1_555
Fe3 O3 1.949463 1_555
Fe3 O8 2.048327 1_555
Fe3 O9 2.088898 1_555
Fe4 O6 1.957991 1_555
Fe4 O23 2.069781 1_555
Fe4 O20 2.101903 1_555
Fe4 O15 2.126555 1_555
Fe4 O14 2.300666 1_555
Fe5 O22 1.945633 1_545
Fe5 O7 1.968844 1_545
Fe5 O17 1.995916 1_554
Fe5 O21 2.010533 1_555
Fe5 O12 2.105401 1_555
Fe6 O4 1.873755 1_655
Fe6 O15 1.930505 1_555
Fe6 O12 1.989924 1_555
Fe6 O21 2.099206 1_555
Fe6 O20 2.099521 1_555
Fe7 O13 1.863816 1_555
Fe7 O5 1.944966 1_655
Fe7 O14 1.983427 1_555
Fe7 O23 2.005007 1_555
Fe7 O18 2.205675 1_556
B0 O6 1.357775 1_555
B0 O23 1.392156 1_455
B0 O8 1.408043 1_555
B1 O22 1.379979 1_455
B1 O7 1.385436 1_555
B1 O9 1.400852 1_555
B2 O4 1.354444 1_565
B2 O3 1.399044 1_555
B2 O12 1.405172 1_565
B3 O13 1.363078 1_555
B3 O2 1.386299 1_555
B3 O5 1.403025 1_555
B4 O19 1.356782 1_545
B4 O20 1.406654 1_555
B4 O11 1.413663 1_545
B5 O10 1.355257 1_555
B5 O18 1.404759 1_555
B5 O21 1.417231 1_555
B6 O16 1.372084 1_555
B6 O15 1.382468 1_555
B6 O0 1.383570 1_655
B7 O1 1.370419 1_655
B7 O17 1.389340 1_555
B7 O14 1.411538 1_555
