# generated using pymatgen
data_Li2VO2F
_symmetry_space_group_name_H-M   'P 1'
_cell_length_a   7.91263803
_cell_length_b   7.91263803
_cell_length_c   10.38798035
_cell_angle_alpha   72.00455182
_cell_angle_beta   72.00455182
_cell_angle_gamma   22.00186607
_symmetry_Int_Tables_number   1
_chemical_formula_structural   Li2VO2F
_chemical_formula_sum   'Li8 V4 O8 F4'
_cell_volume   231.27786962
_cell_formula_units_Z   4
loop_
 _symmetry_equiv_pos_site_id
 _symmetry_equiv_pos_as_xyz
  1  'x, y, z'
loop_
 _atom_site_type_symbol
 _atom_site_label
 _atom_site_symmetry_multiplicity
 _atom_site_fract_x
 _atom_site_fract_y
 _atom_site_fract_z
 _atom_site_occupancy
  Li  Li0  1  0.42329100  0.42329100  0.13046900  1
  Li  Li1  1  0.08464500  0.08464500  0.13822500  1
  Li  Li2  1  0.07741500  0.07741500  0.61454800  1
  Li  Li3  1  0.44455300  0.44455300  0.59342600  1
  Li  Li4  1  0.93949100  0.93949100  0.37445800  1
  Li  Li5  1  0.57453200  0.57453200  0.89765000  1
  Li  Li6  1  0.57341000  0.57341000  0.39762500  1
  Li  Li7  1  0.92906900  0.92906900  0.86973700  1
  V  V0  1  0.25541000  0.25541000  0.37315400  1
  V  V1  1  0.25644600  0.25644600  0.88203500  1
  V  V2  1  0.75618400  0.75618400  0.12635000  1
  V  V3  1  0.76805000  0.76805000  0.61070600  1
  O  O0  1  0.33335400  0.33335400  0.00485400  1
  O  O1  1  0.33372100  0.33372100  0.50221300  1
  O  O2  1  0.18272100  0.18272100  0.24109900  1
  O  O3  1  0.00668000  0.00668000  0.49889000  1
  O  O4  1  0.83198900  0.83198900  0.25458000  1
  O  O5  1  0.82145400  0.82145400  0.76221100  1
  O  O6  1  0.68514800  0.68514800  0.49956800  1
  O  O7  1  0.67793900  0.67793900  0.99511800  1
  F  F0  1  0.17704700  0.17704700  0.74373600  1
  F  F1  1  0.00648500  0.00648500  0.00130000  1
  F  F2  1  0.50661900  0.50661900  0.23960000  1
  F  F3  1  0.50885200  0.50885200  0.76299800  1
loop_
_geom_bond_atom_site_label_1
_geom_bond_atom_site_label_2
_geom_bond_distance
_geom_bond_site_symmetry_2
Li0 O0 2.191398 1_555
Li0 O4 2.191513 1_545
Li0 O4 2.191513 1_455
Li1 O2 2.118512 1_555
Li1 O7 2.287816 1_454
Li1 O7 2.287816 1_544
Li2 O3 1.865989 1_555
Li2 O6 2.291097 1_545
Li2 O6 2.291097 1_455
Li3 O3 1.891863 1_565
Li3 O3 1.891863 1_655
Li3 O1 2.211099 1_555
Li4 O3 1.899850 1_665
Li4 O1 2.316956 1_655
Li4 O1 2.316956 1_565
Li4 O4 2.376682 1_555
Li5 O7 2.151592 1_555
Li6 O3 1.942845 1_655
Li6 O3 1.942845 1_565
Li6 O6 2.300315 1_555
Li6 O2 2.463590 1_565
Li6 O2 2.463590 1_655
Li7 O0 2.268729 1_656
Li7 O0 2.268729 1_566
Li7 O5 2.284236 1_555
O0 V1 2.003646 1_554
O0 V2 2.087470 1_545
O0 V2 2.087470 1_455
O1 V3 1.966493 1_545
O1 V3 1.966493 1_455
O1 V0 2.074583 1_555
O2 V0 2.032700 1_555
O2 V2 2.036387 1_455
O2 V2 2.036387 1_545
O4 V2 2.036772 1_555
O4 V0 2.071214 1_655
O4 V0 2.071214 1_565
O5 V3 1.996755 1_555
O5 V1 2.014408 1_655
O5 V1 2.014408 1_565
O6 V3 1.981734 1_555
O6 V0 2.072070 1_655
O6 V0 2.072070 1_565
O7 V1 2.060434 1_655
O7 V1 2.060434 1_565
O7 V2 2.092568 1_556
F0 V1 2.168101 1_555
F0 V3 2.226743 1_545
F0 V3 2.226743 1_455
F0 Li2 2.346027 1_555
F0 Li5 2.402005 1_545
F0 Li5 2.402005 1_455
F1 Li5 1.959639 1_454
F1 Li5 1.959639 1_544
F1 Li7 2.085339 1_444
F1 Li1 2.141129 1_555
F1 Li0 2.158477 1_545
F1 Li0 2.158477 1_455
F2 Li0 1.970907 1_555
F2 Li1 2.013600 1_565
F2 Li1 2.013600 1_655
F2 Li4 2.100072 1_545
F2 Li4 2.100072 1_455
F2 Li6 2.200761 1_555
F3 Li5 1.973799 1_555
F3 Li7 2.044602 1_545
F3 Li7 2.044602 1_455
F3 Li2 2.181401 1_565
F3 Li2 2.181401 1_655
F3 Li3 2.282133 1_555
