# generated using pymatgen
data_MgSnPd2
_symmetry_space_group_name_H-M   'P 1'
_cell_length_a   4.55564916
_cell_length_b   4.55564917
_cell_length_c   4.55564917
_cell_angle_alpha   59.99972243
_cell_angle_beta   59.99972310
_cell_angle_gamma   59.99972207
_symmetry_Int_Tables_number   1
_chemical_formula_structural   MgSnPd2
_chemical_formula_sum   'Mg1 Sn1 Pd2'
_cell_volume   66.85487548
_cell_formula_units_Z   1
loop_
 _symmetry_equiv_pos_site_id
 _symmetry_equiv_pos_as_xyz
  1  'x, y, z'
loop_
 _atom_site_type_symbol
 _atom_site_label
 _atom_site_symmetry_multiplicity
 _atom_site_fract_x
 _atom_site_fract_y
 _atom_site_fract_z
 _atom_site_occupancy
  Mg  Mg0  1  0.24999928  0.24999927  0.24999928  1
  Sn  Sn0  1  0.74999995  0.74999995  0.74999995  1
  Pd  Pd0  1  -0.00000077  -0.00000077  -0.00000079  1
  Pd  Pd1  1  0.50000155  0.50000155  0.50000156  1
loop_
_geom_bond_atom_site_label_1
_geom_bond_atom_site_label_2
_geom_bond_distance
_geom_bond_site_symmetry_2
Mg0 Pd1 2.789736 1_545
Mg0 Pd1 2.789736 1_554
Mg0 Pd1 2.789736 1_455
Mg0 Pd0 2.789744 1_556
Mg0 Pd0 2.789744 1_655
Mg0 Pd0 2.789744 1_565
Mg0 Pd0 2.789760 1_555
Mg0 Pd1 2.789785 1_555
Mg0 Sn0 3.221319 1_454
Mg0 Sn0 3.221319 1_544
Mg0 Sn0 3.221319 1_445
Mg0 Sn0 3.221328 1_545
Mg0 Sn0 3.221328 1_455
Mg0 Sn0 3.221328 1_554
Pd0 Sn0 2.789747 1_454
Pd0 Sn0 2.789747 1_544
Pd0 Sn0 2.789747 1_445
Pd0 Sn0 2.789752 1_444
Pd1 Sn0 2.789742 1_555
Pd1 Sn0 2.789750 1_545
Pd1 Sn0 2.789750 1_455
Pd1 Sn0 2.789750 1_554
