# generated using pymatgen
data_NaHoTl2
_symmetry_space_group_name_H-M   'P 1'
_cell_length_a   5.27362707
_cell_length_b   5.27362707
_cell_length_c   5.27362707
_cell_angle_alpha   60.00000000
_cell_angle_beta   60.00000000
_cell_angle_gamma   60.00000000
_symmetry_Int_Tables_number   1
_chemical_formula_structural   NaHoTl2
_chemical_formula_sum   'Na1 Ho1 Tl2'
_cell_volume   103.70823572
_cell_formula_units_Z   1
loop_
 _symmetry_equiv_pos_site_id
 _symmetry_equiv_pos_as_xyz
  1  'x, y, z'
loop_
 _atom_site_type_symbol
 _atom_site_label
 _atom_site_symmetry_multiplicity
 _atom_site_fract_x
 _atom_site_fract_y
 _atom_site_fract_z
 _atom_site_occupancy
  Na  Na0  1  0.75000000  0.75000000  0.75000000  1
  Ho  Ho0  1  0.25000000  0.25000000  0.25000000  1
  Tl  Tl0  1  0.00000000  0.00000000  -0.00000000  1
  Tl  Tl1  1  0.49999900  0.49999900  0.49999900  1
loop_
_geom_bond_atom_site_label_1
_geom_bond_atom_site_label_2
_geom_bond_distance
_geom_bond_site_symmetry_2
Na0 Tl1 3.229420 1_556
Na0 Tl1 3.229420 1_565
Na0 Tl1 3.229420 1_655
Na0 Tl0 3.229424 1_666
Na0 Tl0 3.229424 1_566
Na0 Tl0 3.229424 1_665
Na0 Tl0 3.229424 1_656
Na0 Tl1 3.229437 1_555
Ho0 Tl1 3.229411 1_555
Ho0 Tl0 3.229424 1_655
Ho0 Tl0 3.229424 1_555
Ho0 Tl0 3.229424 1_565
Ho0 Tl0 3.229424 1_556
Ho0 Tl1 3.229428 1_455
Ho0 Tl1 3.229428 1_545
Ho0 Tl1 3.229428 1_554
