# generated using pymatgen
data_Co2OF3
_symmetry_space_group_name_H-M   'P 1'
_cell_length_a   7.11435886
_cell_length_b   7.11435886
_cell_length_c   6.81863400
_cell_angle_alpha   90.00000000
_cell_angle_beta   90.00000000
_cell_angle_gamma   128.65260768
_symmetry_Int_Tables_number   1
_chemical_formula_structural   Co2OF3
_chemical_formula_sum   'Co8 O4 F12'
_cell_volume   269.51978389
_cell_formula_units_Z   4
loop_
 _symmetry_equiv_pos_site_id
 _symmetry_equiv_pos_as_xyz
  1  'x, y, z'
loop_
 _atom_site_type_symbol
 _atom_site_label
 _atom_site_symmetry_multiplicity
 _atom_site_fract_x
 _atom_site_fract_y
 _atom_site_fract_z
 _atom_site_occupancy
  Co  Co0  1  0.62496500  0.87485800  0.75000000  1
  Co  Co1  1  0.12514200  0.37503500  0.75000000  1
  Co  Co2  1  0.12568100  0.87431900  0.75000000  1
  Co  Co3  1  0.37567100  0.62432900  0.25000000  1
  Co  Co4  1  0.87431900  0.12568100  0.25000000  1
  Co  Co5  1  0.62432900  0.37567100  0.75000000  1
  Co  Co6  1  0.87485800  0.62496500  0.25000000  1
  Co  Co7  1  0.37503500  0.12514200  0.25000000  1
  O  O0  1  0.46971200  0.53028800  0.75000000  1
  O  O1  1  0.78001300  0.21998700  0.75000000  1
  O  O2  1  0.53028800  0.46971200  0.25000000  1
  O  O3  1  0.21998700  0.78001300  0.25000000  1
  F  F0  1  0.97384800  0.02615200  0.75000000  1
  F  F1  1  0.62508600  0.87482300  0.05125200  1
  F  F2  1  0.12517700  0.37491400  0.05125200  1
  F  F3  1  0.87482300  0.62508600  0.94874800  1
  F  F4  1  0.37491400  0.12517700  0.94874800  1
  F  F5  1  0.62508600  0.87482300  0.44874800  1
  F  F6  1  0.12517700  0.37491400  0.44874800  1
  F  F7  1  0.02615200  0.97384800  0.25000000  1
  F  F8  1  0.27678500  0.72321500  0.75000000  1
  F  F9  1  0.72321500  0.27678500  0.25000000  1
  F  F10  1  0.87482300  0.62508600  0.55125200  1
  F  F11  1  0.37491400  0.12517700  0.55125200  1
loop_
_geom_bond_atom_site_label_1
_geom_bond_atom_site_label_2
_geom_bond_distance
_geom_bond_site_symmetry_2
Co0 O0 1.961367 1_555
Co0 O1 1.965258 1_565
Co0 F8 1.990351 1_555
Co0 F0 1.995472 1_565
Co0 F5 2.054127 1_555
Co0 F1 2.054127 1_556
Co1 O0 1.961367 1_555
Co1 O1 1.965258 1_455
Co1 F8 1.990351 1_555
Co1 F0 1.995472 1_455
Co1 F6 2.054127 1_555
Co1 F2 2.054127 1_556
Co2 F8 1.937758 1_555
Co2 F0 1.947107 1_465
Co2 F4 2.052462 1_565
Co2 F11 2.052462 1_565
Co2 F3 2.052462 1_455
Co2 F10 2.052462 1_455
Co3 O2 1.982809 1_555
Co3 O3 1.996492 1_555
Co3 F5 2.052026 1_555
Co3 F1 2.052026 1_555
Co3 F6 2.052026 1_555
Co3 F2 2.052026 1_555
Co4 F9 1.937758 1_555
Co4 F7 1.947107 1_645
Co4 F6 2.052462 1_655
Co4 F2 2.052462 1_655
Co4 F5 2.052462 1_545
Co4 F1 2.052462 1_545
Co5 O0 1.982809 1_555
Co5 O1 1.996492 1_555
Co5 F3 2.052026 1_555
Co5 F10 2.052026 1_555
Co5 F4 2.052026 1_555
Co5 F11 2.052026 1_555
Co6 O2 1.961367 1_555
Co6 O3 1.965258 1_655
Co6 F9 1.990351 1_555
Co6 F7 1.995472 1_655
Co6 F10 2.054127 1_555
Co6 F3 2.054127 1_554
Co7 O2 1.961367 1_555
Co7 O3 1.965258 1_545
Co7 F9 1.990351 1_555
Co7 F7 1.995472 1_545
Co7 F11 2.054127 1_555
Co7 F4 2.054127 1_554
