# generated using pymatgen
data_LiMn(Si2O5)2
_symmetry_space_group_name_H-M   'P 1'
_cell_length_a   7.29633700
_cell_length_b   7.29633700
_cell_length_c   14.99206400
_cell_angle_alpha   90.00000000
_cell_angle_beta   90.00000000
_cell_angle_gamma   90.00000000
_symmetry_Int_Tables_number   1
_chemical_formula_structural   LiMn(Si2O5)2
_chemical_formula_sum   'Li4 Mn4 Si16 O40'
_cell_volume   798.12551913
_cell_formula_units_Z   4
loop_
 _symmetry_equiv_pos_site_id
 _symmetry_equiv_pos_as_xyz
  1  'x, y, z'
loop_
 _atom_site_type_symbol
 _atom_site_label
 _atom_site_symmetry_multiplicity
 _atom_site_fract_x
 _atom_site_fract_y
 _atom_site_fract_z
 _atom_site_occupancy
  Li  Li0  1  0.50000000  0.50000000  0.00000000  1
  Li  Li1  1  0.50000000  0.50000000  0.50000000  1
  Li  Li2  1  0.00000000  0.00000000  0.50000000  1
  Li  Li3  1  0.00000000  0.00000000  0.00000000  1
  Mn  Mn0  1  0.50000000  0.00000000  0.57548200  1
  Mn  Mn1  1  0.50000000  0.00000000  0.07548200  1
  Mn  Mn2  1  0.00000000  0.50000000  0.42451800  1
  Mn  Mn3  1  0.00000000  0.50000000  0.92451800  1
  Si  Si0  1  0.24717300  0.82860300  0.35530600  1
  Si  Si1  1  0.24717300  0.17139700  0.85530600  1
  Si  Si2  1  0.32860300  0.74717300  0.85530600  1
  Si  Si3  1  0.32860300  0.25282700  0.35530600  1
  Si  Si4  1  0.67139700  0.25282700  0.85530600  1
  Si  Si5  1  0.67139700  0.74717300  0.35530600  1
  Si  Si6  1  0.75282700  0.82860300  0.85530600  1
  Si  Si7  1  0.75282700  0.17139700  0.35530600  1
  Si  Si8  1  0.74717300  0.67139700  0.14469400  1
  Si  Si9  1  0.74717300  0.32860300  0.64469400  1
  Si  Si10  1  0.82860300  0.24717300  0.14469400  1
  Si  Si11  1  0.82860300  0.75282700  0.64469400  1
  Si  Si12  1  0.17139700  0.75282700  0.14469400  1
  Si  Si13  1  0.17139700  0.24717300  0.64469400  1
  Si  Si14  1  0.25282700  0.67139700  0.64469400  1
  Si  Si15  1  0.25282700  0.32860300  0.14469400  1
  O  O0  1  0.24764000  0.04856500  0.37724100  1
  O  O1  1  0.24764000  0.95143500  0.87724100  1
  O  O2  1  0.25398200  0.90978600  0.08004000  1
  O  O3  1  0.25398200  0.09021400  0.58004000  1
  O  O4  1  0.29652100  0.29652100  0.25000000  1
  O  O5  1  0.29652100  0.70347900  0.75000000  1
  O  O6  1  0.40978600  0.75398200  0.58004000  1
  O  O7  1  0.40978600  0.24601800  0.08004000  1
  O  O8  1  0.45143500  0.74764000  0.37724100  1
  O  O9  1  0.45143500  0.25236000  0.87724100  1
  O  O10  1  0.54856500  0.25236000  0.37724100  1
  O  O11  1  0.54856500  0.74764000  0.87724100  1
  O  O12  1  0.59021400  0.75398200  0.08004000  1
  O  O13  1  0.59021400  0.24601800  0.58004000  1
  O  O14  1  0.70347900  0.29652100  0.75000000  1
  O  O15  1  0.70347900  0.70347900  0.25000000  1
  O  O16  1  0.74601800  0.09021400  0.08004000  1
  O  O17  1  0.74601800  0.90978600  0.58004000  1
  O  O18  1  0.75236000  0.95143500  0.37724100  1
  O  O19  1  0.75236000  0.04856500  0.87724100  1
  O  O20  1  0.74764000  0.54856500  0.62275900  1
  O  O21  1  0.74764000  0.45143500  0.12275900  1
  O  O22  1  0.75398200  0.59021400  0.41996000  1
  O  O23  1  0.75398200  0.40978600  0.91996000  1
  O  O24  1  0.79652100  0.20347900  0.25000000  1
  O  O25  1  0.79652100  0.79652100  0.75000000  1
  O  O26  1  0.90978600  0.25398200  0.41996000  1
  O  O27  1  0.90978600  0.74601800  0.91996000  1
  O  O28  1  0.95143500  0.75236000  0.12275900  1
  O  O29  1  0.95143500  0.24764000  0.62275900  1
  O  O30  1  0.04856500  0.24764000  0.12275900  1
  O  O31  1  0.04856500  0.75236000  0.62275900  1
  O  O32  1  0.09021400  0.74601800  0.41996000  1
  O  O33  1  0.09021400  0.25398200  0.91996000  1
  O  O34  1  0.20347900  0.79652100  0.25000000  1
  O  O35  1  0.20347900  0.20347900  0.75000000  1
  O  O36  1  0.24601800  0.40978600  0.41996000  1
  O  O37  1  0.24601800  0.59021400  0.91996000  1
  O  O38  1  0.25236000  0.54856500  0.12275900  1
  O  O39  1  0.25236000  0.45143500  0.62275900  1
loop_
_geom_bond_atom_site_label_1
_geom_bond_atom_site_label_2
_geom_bond_distance
_geom_bond_site_symmetry_2
Li0 O23 2.303759 1_554
Li0 O12 2.303759 1_555
Li0 O37 2.303759 1_554
Li0 O7 2.303759 1_555
Li0 O38 2.603351 1_555
Li0 O21 2.603351 1_555
Li0 O9 2.603351 1_554
Li0 O11 2.603351 1_554
Li1 O22 2.303759 1_555
Li1 O6 2.303759 1_555
Li1 O36 2.303759 1_555
Li1 O13 2.303759 1_555
Li1 O39 2.603351 1_555
Li1 O20 2.603351 1_555
Li1 O10 2.603351 1_555
Li1 O8 2.603351 1_555
Li2 O26 2.303759 1_455
Li2 O3 2.303759 1_555
Li2 O32 2.303759 1_545
Li2 O17 2.303759 1_445
Li2 O31 2.603351 1_545
Li2 O0 2.603351 1_555
Li2 O29 2.603351 1_455
Li2 O18 2.603351 1_445
Li3 O33 2.303759 1_554
Li3 O27 2.303759 1_444
Li3 O2 2.303759 1_545
Li3 O16 2.303759 1_455
Li3 O30 2.603351 1_555
Li3 O28 2.603351 1_445
Li3 O19 2.603351 1_454
Li3 O1 2.603351 1_544
Mn0 O17 1.913131 1_545
Mn0 O13 1.913131 1_555
Mn0 O3 1.913131 1_555
Mn0 O6 1.913131 1_545
Mn1 O16 1.913131 1_555
Mn1 O7 1.913131 1_555
Mn1 O2 1.913131 1_545
Mn1 O12 1.913131 1_545
Mn2 O32 1.913131 1_555
Mn2 O36 1.913131 1_555
Mn2 O26 1.913131 1_455
Mn2 O22 1.913131 1_455
Mn3 O27 1.913131 1_455
Mn3 O37 1.913131 1_555
Mn3 O33 1.913131 1_555
Mn3 O23 1.913131 1_455
O0 Si3 1.636550 1_555
O0 Si0 1.638265 1_545
O1 Si2 1.636550 1_555
O1 Si1 1.638265 1_565
O2 Si12 1.616838 1_555
O3 Si13 1.616838 1_555
O4 Si3 1.627543 1_555
O4 Si15 1.627543 1_555
O5 Si2 1.627543 1_555
O5 Si14 1.627543 1_555
O6 Si14 1.616838 1_555
O7 Si15 1.616838 1_555
O8 Si0 1.636550 1_555
O8 Si5 1.638265 1_555
O9 Si1 1.636550 1_555
O9 Si4 1.638265 1_555
O10 Si7 1.636550 1_555
O10 Si3 1.638265 1_555
O11 Si6 1.636550 1_555
O11 Si2 1.638265 1_555
O12 Si8 1.616838 1_555
O13 Si9 1.616838 1_555
O14 Si9 1.627543 1_555
O14 Si4 1.627543 1_555
O15 Si8 1.627543 1_555
O15 Si5 1.627543 1_555
O16 Si10 1.616838 1_555
O17 Si11 1.616838 1_555
O18 Si5 1.636550 1_555
O18 Si7 1.638265 1_565
O19 Si4 1.636550 1_555
O19 Si6 1.638265 1_545
O20 Si11 1.636550 1_555
O20 Si9 1.638265 1_555
O21 Si10 1.636550 1_555
O21 Si8 1.638265 1_555
O22 Si5 1.616838 1_555
O23 Si4 1.616838 1_555
O24 Si10 1.627543 1_555
O24 Si7 1.627543 1_555
O25 Si6 1.627543 1_555
O25 Si11 1.627543 1_555
O26 Si7 1.616838 1_555
O27 Si6 1.616838 1_555
O28 Si8 1.636550 1_555
O28 Si12 1.638265 1_655
O29 Si9 1.636550 1_555
O29 Si13 1.638265 1_655
O30 Si15 1.636550 1_555
O30 Si10 1.638265 1_455
O31 Si14 1.636550 1_555
O31 Si11 1.638265 1_455
O32 Si0 1.616838 1_555
O33 Si1 1.616838 1_555
O34 Si0 1.627543 1_555
O34 Si12 1.627543 1_555
O35 Si1 1.627543 1_555
O35 Si13 1.627543 1_555
O36 Si3 1.616838 1_555
O37 Si2 1.616838 1_555
O38 Si12 1.636550 1_555
O38 Si15 1.638265 1_555
O39 Si13 1.636550 1_555
O39 Si14 1.638265 1_555
