# generated using pymatgen
data_Y2AgRu
_symmetry_space_group_name_H-M   'P 1'
_cell_length_a   4.94638813
_cell_length_b   4.94638813
_cell_length_c   4.94638813
_cell_angle_alpha   60.00000000
_cell_angle_beta   60.00000000
_cell_angle_gamma   60.00000000
_symmetry_Int_Tables_number   1
_chemical_formula_structural   Y2AgRu
_chemical_formula_sum   'Y2 Ag1 Ru1'
_cell_volume   85.57552583
_cell_formula_units_Z   1
loop_
 _symmetry_equiv_pos_site_id
 _symmetry_equiv_pos_as_xyz
  1  'x, y, z'
loop_
 _atom_site_type_symbol
 _atom_site_label
 _atom_site_symmetry_multiplicity
 _atom_site_fract_x
 _atom_site_fract_y
 _atom_site_fract_z
 _atom_site_occupancy
  Y  Y0  1  0.00000000  -0.00000000  -0.00000000  1
  Y  Y1  1  0.50000000  0.50000000  0.50000000  1
  Ag  Ag0  1  0.24999900  0.24999900  0.24999900  1
  Ru  Ru0  1  0.75000000  0.75000000  0.75000000  1
loop_
_geom_bond_atom_site_label_1
_geom_bond_atom_site_label_2
_geom_bond_distance
_geom_bond_site_symmetry_2
Ag0 Y0 3.029020 1_555
Ag0 Y1 3.029028 1_455
Ag0 Y1 3.029028 1_545
Ag0 Y1 3.029028 1_554
Ag0 Y0 3.029036 1_655
Ag0 Y0 3.029036 1_556
Ag0 Y0 3.029036 1_565
Ag0 Y1 3.029044 1_555
Ru0 Y1 3.029032 1_655
Ru0 Y0 3.029032 1_566
Ru0 Y0 3.029032 1_656
Ru0 Y1 3.029032 1_565
Ru0 Y1 3.029032 1_556
Ru0 Y0 3.029032 1_666
Ru0 Y1 3.029032 1_555
Ru0 Y0 3.029032 1_665
