# generated using pymatgen
data_LuCuSi
_symmetry_space_group_name_H-M   'P 1'
_cell_length_a   4.06229060
_cell_length_b   4.06228960
_cell_length_c   7.27673599
_cell_angle_alpha   90.00000000
_cell_angle_beta   90.00000000
_cell_angle_gamma   119.99999186
_symmetry_Int_Tables_number   1
_chemical_formula_structural   LuCuSi
_chemical_formula_sum   'Lu2 Cu2 Si2'
_cell_volume   103.99420868
_cell_formula_units_Z   2
loop_
 _symmetry_equiv_pos_site_id
 _symmetry_equiv_pos_as_xyz
  1  'x, y, z'
loop_
 _atom_site_type_symbol
 _atom_site_label
 _atom_site_symmetry_multiplicity
 _atom_site_fract_x
 _atom_site_fract_y
 _atom_site_fract_z
 _atom_site_occupancy
  Lu  Lu0  1  -0.00000000  -0.00000000  0.50000000  1
  Lu  Lu1  1  -0.00000000  -0.00000000  0.00000000  1
  Cu  Cu0  1  0.33333300  0.66666700  0.25000000  1
  Cu  Cu1  1  0.66666700  0.33333300  0.75000000  1
  Si  Si0  1  0.66666700  0.33333300  0.25000000  1
  Si  Si1  1  0.33333300  0.66666700  0.75000000  1
loop_
_geom_bond_atom_site_label_1
_geom_bond_atom_site_label_2
_geom_bond_distance
_geom_bond_site_symmetry_2
Lu0 Si1 2.968190 1_545
Lu0 Si0 2.968190 1_455
Lu0 Si0 2.968193 1_445
Lu0 Si1 2.968193 1_555
Lu0 Si0 2.968193 1_555
Lu0 Si1 2.968193 1_445
Lu1 Si1 2.968190 1_544
Lu1 Si0 2.968190 1_455
Lu1 Si0 2.968193 1_445
Lu1 Si1 2.968193 1_554
Lu1 Si0 2.968193 1_555
Lu1 Si1 2.968193 1_444
Cu0 Si0 2.345362 1_565
Cu0 Si0 2.345362 1_455
Cu0 Si0 2.345369 1_555
Cu0 Lu0 2.968190 1_565
Cu0 Lu1 2.968190 1_565
Cu0 Lu1 2.968193 1_555
Cu0 Lu0 2.968193 1_555
Cu0 Lu1 2.968193 1_665
Cu0 Lu0 2.968193 1_665
Cu1 Si1 2.345362 1_545
Cu1 Si1 2.345362 1_655
Cu1 Si1 2.345369 1_555
Cu1 Lu1 2.968190 1_656
Cu1 Lu0 2.968190 1_655
Cu1 Lu1 2.968193 1_666
Cu1 Lu0 2.968193 1_665
Cu1 Lu0 2.968193 1_555
Cu1 Lu1 2.968193 1_556
