# generated using pymatgen
data_Si2W
_symmetry_space_group_name_H-M   'P 1'
_cell_length_a   4.61685276
_cell_length_b   4.61685276
_cell_length_c   6.65322200
_cell_angle_alpha   90.00000000
_cell_angle_beta   90.00000000
_cell_angle_gamma   120.00001095
_symmetry_Int_Tables_number   1
_chemical_formula_structural   Si2W
_chemical_formula_sum   'Si6 W3'
_cell_volume   122.81591499
_cell_formula_units_Z   3
loop_
 _symmetry_equiv_pos_site_id
 _symmetry_equiv_pos_as_xyz
  1  'x, y, z'
loop_
 _atom_site_type_symbol
 _atom_site_label
 _atom_site_symmetry_multiplicity
 _atom_site_fract_x
 _atom_site_fract_y
 _atom_site_fract_z
 _atom_site_occupancy
  Si  Si0  1  0.16362600  0.83637400  0.16666700  1
  Si  Si1  1  0.83637400  0.67274700  0.83333300  1
  Si  Si2  1  0.32725300  0.16362600  0.50000000  1
  Si  Si3  1  0.83637400  0.16362600  0.16666700  1
  Si  Si4  1  0.16362600  0.32725300  0.83333300  1
  Si  Si5  1  0.67274700  0.83637400  0.50000000  1
  W  W0  1  0.00000000  0.50000000  0.50000000  1
  W  W1  1  0.50000000  0.00000000  0.83333300  1
  W  W2  1  0.50000000  0.50000000  0.16666700  1
loop_
_geom_bond_atom_site_label_1
_geom_bond_atom_site_label_2
_geom_bond_distance
_geom_bond_site_symmetry_2
Si0 Si2 2.574960 1_565
Si0 Si1 2.574966 1_454
Si0 W0 2.593769 1_555
Si0 W1 2.593775 1_564
Si0 Si3 2.616911 1_465
Si0 W2 2.653467 1_455
Si0 W2 2.653467 1_565
Si0 W2 2.689856 1_555
Si0 Si3 2.690186 1_565
Si0 Si3 2.690186 1_455
Si1 Si5 2.574964 1_555
Si1 W0 2.593767 1_655
Si1 W2 2.593775 1_556
Si1 Si4 2.616919 1_665
Si1 W1 2.653467 1_665
Si1 W1 2.653471 1_565
Si1 W1 2.689852 1_555
Si1 Si4 2.690178 1_655
Si1 Si4 2.690185 1_555
Si2 Si4 2.574964 1_555
Si2 W1 2.593767 1_555
Si2 W2 2.593769 1_555
Si2 Si5 2.616919 1_445
Si2 W0 2.653467 1_545
Si2 W0 2.653471 1_555
Si2 W0 2.689852 1_655
Si2 Si5 2.690178 1_545
Si2 Si5 2.690185 1_555
Si3 Si5 2.574960 1_545
Si3 Si4 2.574966 1_654
Si3 W0 2.593769 1_655
Si3 W1 2.593775 1_554
Si3 W2 2.653467 1_655
Si3 W2 2.653467 1_545
Si3 W2 2.689856 1_555
Si4 W0 2.593767 1_555
Si4 W2 2.593775 1_556
Si4 W1 2.653467 1_455
Si4 W1 2.653471 1_555
Si4 W1 2.689852 1_565
Si5 W1 2.593767 1_565
Si5 W2 2.593769 1_555
Si5 W0 2.653467 1_665
Si5 W0 2.653471 1_655
Si5 W0 2.689852 1_555
