# generated using pymatgen
data_Li6TiFe5O12
_symmetry_space_group_name_H-M   'P 1'
_cell_length_a   5.16302506
_cell_length_b   5.16302506
_cell_length_c   10.19668508
_cell_angle_alpha   85.92048828
_cell_angle_beta   85.92048828
_cell_angle_gamma   120.03117494
_symmetry_Int_Tables_number   1
_chemical_formula_structural   Li6TiFe5O12
_chemical_formula_sum   'Li6 Ti1 Fe5 O12'
_cell_volume   232.92511303
_cell_formula_units_Z   1
loop_
 _symmetry_equiv_pos_site_id
 _symmetry_equiv_pos_as_xyz
  1  'x, y, z'
loop_
 _atom_site_type_symbol
 _atom_site_label
 _atom_site_symmetry_multiplicity
 _atom_site_fract_x
 _atom_site_fract_y
 _atom_site_fract_z
 _atom_site_occupancy
  Li  Li0  1  0.28804400  0.94281100  0.24321900  1
  Li  Li1  1  0.94807600  0.28060100  0.24180700  1
  Li  Li2  1  0.38200000  0.38960200  0.75493400  1
  Li  Li3  1  0.61039800  0.61800000  0.24506600  1
  Li  Li4  1  0.05718900  0.71195600  0.75678100  1
  Li  Li5  1  0.71939900  0.05192400  0.75819300  1
  Ti  Ti0  1  0.00406300  0.99593700  0.00000000  1
  Fe  Fe0  1  0.50015400  0.49984600  0.50000000  1
  Fe  Fe1  1  0.33265400  0.66734600  0.00000000  1
  Fe  Fe2  1  0.66451200  0.33548800  0.00000000  1
  Fe  Fe3  1  0.83358200  0.16641800  0.50000000  1
  Fe  Fe4  1  0.16647300  0.83352700  0.50000000  1
  O  O0  1  0.13396900  0.13237300  0.61212600  1
  O  O1  1  0.29084200  0.27179600  0.11314100  1
  O  O2  1  0.20210100  0.53723100  0.38523400  1
  O  O3  1  0.53493300  0.20203900  0.38666600  1
  O  O4  1  0.94803500  0.63936100  0.11411300  1
  O  O5  1  0.65114400  0.97607600  0.11009000  1
  O  O6  1  0.36063900  0.05196500  0.88588700  1
  O  O7  1  0.02392400  0.34885600  0.88991000  1
  O  O8  1  0.46276900  0.79789900  0.61476600  1
  O  O9  1  0.79796100  0.46506700  0.61333400  1
  O  O10  1  0.72820400  0.70915800  0.88685900  1
  O  O11  1  0.86762700  0.86603100  0.38787400  1
loop_
_geom_bond_atom_site_label_1
_geom_bond_atom_site_label_2
_geom_bond_distance
_geom_bond_site_symmetry_2
Li0 O1 2.072852 1_565
Li0 O3 2.095654 1_565
Li0 O5 2.160828 1_555
Li0 O4 2.266869 1_455
Li0 O2 2.286010 1_555
Li0 O11 2.375787 1_455
Li1 O2 2.103278 1_655
Li1 O1 2.147990 1_655
Li1 O4 2.187143 1_555
Li1 O5 2.192472 1_545
Li1 O3 2.344507 1_555
Li1 O11 2.353890 1_545
Li2 O6 2.071091 1_555
Li2 O0 2.088608 1_555
Li2 O7 2.136319 1_555
Li2 O8 2.295021 1_555
Li2 O10 2.330813 1_555
Li2 O9 2.343070 1_555
Li3 O4 2.071091 1_555
Li3 O11 2.088608 1_555
Li3 O5 2.136319 1_555
Li3 O2 2.295021 1_555
Li3 O1 2.330813 1_555
Li3 O3 2.343070 1_555
Li4 O10 2.072852 1_455
Li4 O9 2.095654 1_455
Li4 O7 2.160828 1_555
Li4 O6 2.266869 1_565
Li4 O8 2.286010 1_555
Li4 O0 2.375787 1_565
Li5 O8 2.103278 1_545
Li5 O10 2.147990 1_545
Li5 O6 2.187143 1_555
Li5 O7 2.192472 1_655
Li5 O9 2.344507 1_555
Li5 O0 2.353890 1_655
Fe0 O3 2.057072 1_555
Fe0 O9 2.057072 1_555
Fe0 O0 2.067527 1_555
Fe0 O11 2.067527 1_555
Fe0 O2 2.072721 1_555
Fe0 O8 2.072721 1_555
Fe1 O5 2.097264 1_555
Fe1 O7 2.097264 1_554
Fe1 O6 2.162938 1_564
Fe1 O4 2.162938 1_455
Fe1 O1 2.176309 1_555
Fe1 O10 2.176309 1_554
Fe2 O10 2.038496 1_554
Fe2 O1 2.038496 1_555
Fe2 O4 2.039972 1_555
Fe2 O6 2.039972 1_554
Fe2 O5 2.067060 1_545
Fe2 O7 2.067060 1_654
Fe3 O0 2.059110 1_655
Fe3 O11 2.059110 1_545
Fe3 O3 2.062523 1_555
Fe3 O9 2.062523 1_555
Fe3 O2 2.091239 1_655
Fe3 O8 2.091239 1_545
Fe4 O11 2.049121 1_455
Fe4 O0 2.049121 1_565
Fe4 O2 2.061376 1_555
Fe4 O8 2.061376 1_555
Fe4 O9 2.079892 1_455
Fe4 O3 2.079892 1_565
O1 Ti0 1.979342 1_545
O4 Ti0 1.985237 1_655
O5 Ti0 2.023949 1_655
O6 Ti0 1.985237 1_546
O7 Ti0 2.023949 1_546
O10 Ti0 1.979342 1_656
