# generated using pymatgen
data_BaCuO2
_symmetry_space_group_name_H-M   'P 1'
_cell_length_a   3.70276200
_cell_length_b   6.06111700
_cell_length_c   11.91043100
_cell_angle_alpha   90.00000000
_cell_angle_beta   90.00000000
_cell_angle_gamma   90.00000000
_symmetry_Int_Tables_number   1
_chemical_formula_structural   BaCuO2
_chemical_formula_sum   'Ba4 Cu4 O8'
_cell_volume   267.30429871
_cell_formula_units_Z   4
loop_
 _symmetry_equiv_pos_site_id
 _symmetry_equiv_pos_as_xyz
  1  'x, y, z'
loop_
 _atom_site_type_symbol
 _atom_site_label
 _atom_site_symmetry_multiplicity
 _atom_site_fract_x
 _atom_site_fract_y
 _atom_site_fract_z
 _atom_site_occupancy
  Ba  Ba0  1  0.50000000  0.73097600  0.64271700  1
  Ba  Ba1  1  0.50000000  0.26902400  0.35728300  1
  Ba  Ba2  1  0.50000000  0.23097600  0.85728300  1
  Ba  Ba3  1  0.50000000  0.76902400  0.14271700  1
  Cu  Cu0  1  0.00000000  0.73339500  0.87369800  1
  Cu  Cu1  1  0.00000000  0.26660500  0.12630200  1
  Cu  Cu2  1  0.00000000  0.23339500  0.62630200  1
  Cu  Cu3  1  0.00000000  0.76660500  0.37369800  1
  O  O0  1  0.50000000  0.73890000  0.41452700  1
  O  O1  1  0.50000000  0.76110000  0.91452700  1
  O  O2  1  0.00000000  0.00838400  0.26046600  1
  O  O3  1  0.00000000  0.99161600  0.73953400  1
  O  O4  1  0.50000000  0.26110000  0.58547300  1
  O  O5  1  0.50000000  0.23890000  0.08547300  1
  O  O6  1  0.00000000  0.50838400  0.23953400  1
  O  O7  1  0.00000000  0.49161600  0.76046600  1
loop_
_geom_bond_atom_site_label_1
_geom_bond_atom_site_label_2
_geom_bond_distance
_geom_bond_site_symmetry_2
Ba0 O3 2.693139 1_655
Ba0 O3 2.693139 1_555
Ba0 O0 2.718266 1_555
Ba0 O7 2.738474 1_555
Ba0 O7 2.738474 1_655
Ba0 O4 2.928448 1_555
Ba1 O2 2.693139 1_655
Ba1 O2 2.693139 1_555
Ba1 O4 2.718266 1_555
Ba1 O6 2.738474 1_555
Ba1 O6 2.738474 1_655
Ba1 O0 2.928448 1_555
Ba2 O7 2.693139 1_555
Ba2 O7 2.693139 1_655
Ba2 O5 2.718266 1_556
Ba2 O3 2.738474 1_645
Ba2 O3 2.738474 1_545
Ba2 O1 2.928448 1_545
Ba3 O6 2.693139 1_555
Ba3 O6 2.693139 1_655
Ba3 O1 2.718266 1_554
Ba3 O2 2.738474 1_565
Ba3 O2 2.738474 1_665
Ba3 O5 2.928448 1_565
Cu0 O1 1.921533 1_555
Cu0 O1 1.921533 1_455
Cu0 O7 1.991578 1_555
Cu0 O3 2.236741 1_555
Cu1 O5 1.921533 1_555
Cu1 O5 1.921533 1_455
Cu1 O6 1.991578 1_555
Cu1 O2 2.236741 1_555
Cu2 O4 1.921533 1_555
Cu2 O4 1.921533 1_455
Cu2 O3 1.991578 1_545
Cu2 O7 2.236741 1_555
Cu3 O0 1.921533 1_555
Cu3 O0 1.921533 1_455
Cu3 O2 1.991578 1_565
Cu3 O6 2.236741 1_555
