# generated using pymatgen
data_K2Na(H2N)3
_symmetry_space_group_name_H-M   'P 1'
_cell_length_a   7.03338000
_cell_length_b   7.03338000
_cell_length_c   12.40927300
_cell_angle_alpha   90.00000000
_cell_angle_beta   90.00000000
_cell_angle_gamma   90.00000000
_symmetry_Int_Tables_number   1
_chemical_formula_structural   K2Na(H2N)3
_chemical_formula_sum   'K8 Na4 H24 N12'
_cell_volume   613.86730517
_cell_formula_units_Z   4
loop_
 _symmetry_equiv_pos_site_id
 _symmetry_equiv_pos_as_xyz
  1  'x, y, z'
loop_
 _atom_site_type_symbol
 _atom_site_label
 _atom_site_symmetry_multiplicity
 _atom_site_fract_x
 _atom_site_fract_y
 _atom_site_fract_z
 _atom_site_occupancy
  K  K0  1  0.50000000  0.50000000  0.25000000  1
  K  K1  1  0.50000000  0.50000000  0.75000000  1
  K  K2  1  0.00000000  0.00000000  0.00000000  1
  K  K3  1  0.00000000  0.00000000  0.50000000  1
  K  K4  1  0.00000000  0.50000000  0.15064900  1
  K  K5  1  0.50000000  0.00000000  0.65064900  1
  K  K6  1  0.00000000  0.50000000  0.84935100  1
  K  K7  1  0.50000000  0.00000000  0.34935100  1
  Na  Na0  1  0.36215300  0.32465600  0.00000000  1
  Na  Na1  1  0.63784700  0.67534400  0.00000000  1
  Na  Na2  1  0.67534400  0.36215300  0.50000000  1
  Na  Na3  1  0.32465600  0.63784700  0.50000000  1
  H  H0  1  0.16494000  0.14224600  0.22131900  1
  H  H1  1  0.83506000  0.85775400  0.22131900  1
  H  H2  1  0.85775400  0.16494000  0.72131900  1
  H  H3  1  0.14224600  0.83506000  0.72131900  1
  H  H4  1  0.83506000  0.85775400  0.77868100  1
  H  H5  1  0.16494000  0.14224600  0.77868100  1
  H  H6  1  0.14224600  0.83506000  0.27868100  1
  H  H7  1  0.85775400  0.16494000  0.27868100  1
  H  H8  1  0.33047200  0.04807200  0.15029400  1
  H  H9  1  0.66952800  0.95192800  0.15029400  1
  H  H10  1  0.95192800  0.33047200  0.65029400  1
  H  H11  1  0.04807200  0.66952800  0.65029400  1
  H  H12  1  0.66952800  0.95192800  0.84970600  1
  H  H13  1  0.33047200  0.04807200  0.84970600  1
  H  H14  1  0.04807200  0.66952800  0.34970600  1
  H  H15  1  0.95192800  0.33047200  0.34970600  1
  H  H16  1  0.70421000  0.24330900  0.06484800  1
  H  H17  1  0.29579000  0.75669100  0.06484800  1
  H  H18  1  0.75669100  0.70421000  0.56484800  1
  H  H19  1  0.24330900  0.29579000  0.56484800  1
  H  H20  1  0.29579000  0.75669100  0.93515200  1
  H  H21  1  0.70421000  0.24330900  0.93515200  1
  H  H22  1  0.24330900  0.29579000  0.43515200  1
  H  H23  1  0.75669100  0.70421000  0.43515200  1
  N  N0  1  0.72187800  0.33335100  0.00000000  1
  N  N1  1  0.27812200  0.66664900  0.00000000  1
  N  N2  1  0.66664900  0.72187800  0.50000000  1
  N  N3  1  0.33335100  0.27812200  0.50000000  1
  N  N4  1  0.26957200  0.17816100  0.16704800  1
  N  N5  1  0.73042800  0.82183900  0.16704800  1
  N  N6  1  0.82183900  0.26957200  0.66704800  1
  N  N7  1  0.17816100  0.73042800  0.66704800  1
  N  N8  1  0.73042800  0.82183900  0.83295200  1
  N  N9  1  0.26957200  0.17816100  0.83295200  1
  N  N10  1  0.17816100  0.73042800  0.33295200  1
  N  N11  1  0.82183900  0.26957200  0.33295200  1
loop_
_geom_bond_atom_site_label_1
_geom_bond_atom_site_label_2
_geom_bond_distance
_geom_bond_site_symmetry_2
K0 N11 2.968198 1_555
K0 N5 2.968198 1_555
K0 N10 2.968198 1_555
K0 N4 2.968198 1_555
K1 N8 2.968198 1_555
K1 N6 2.968198 1_555
K1 N9 2.968198 1_555
K1 N7 2.968198 1_555
K4 N1 2.948751 1_555
K4 N0 2.948751 1_455
K4 N5 2.959763 1_455
K4 N4 2.959763 1_555
K5 N2 2.948751 1_545
K5 N3 2.948751 1_555
K5 N6 2.959763 1_555
K5 N7 2.959763 1_545
K6 N1 2.948751 1_556
K6 N0 2.948751 1_456
K6 N8 2.959763 1_455
K6 N9 2.959763 1_555
K7 N2 2.948751 1_545
K7 N3 2.948751 1_555
K7 N11 2.959763 1_555
K7 N10 2.959763 1_545
H0 N4 1.029046 1_555
H0 K4 2.906239 1_555
H1 N5 1.029046 1_555
H1 K4 2.906239 1_655
H2 N6 1.029046 1_555
H2 K5 2.906239 1_555
H3 N7 1.029046 1_555
H3 K5 2.906239 1_565
H4 N8 1.029046 1_555
H4 K6 2.906239 1_655
H5 N9 1.029046 1_555
H5 K6 2.906239 1_555
H6 N10 1.029046 1_555
H6 K7 2.906239 1_565
H7 N11 1.029046 1_555
H7 K7 2.906239 1_555
H8 N4 1.031434 1_555
H8 K7 2.763636 1_555
H9 N5 1.031434 1_555
H9 K7 2.763636 1_565
H10 N6 1.031434 1_555
H10 K6 2.763636 1_655
H11 N7 1.031434 1_555
H11 K6 2.763636 1_555
H12 N8 1.031434 1_555
H12 K5 2.763636 1_565
H13 N9 1.031434 1_555
H13 K5 2.763636 1_555
H14 N10 1.031434 1_555
H14 K4 2.763636 1_555
H15 N11 1.031434 1_555
H15 K4 2.763636 1_655
H16 N0 1.031542 1_555
H16 K2 2.811431 1_655
H16 K4 2.953170 1_655
H17 N1 1.031542 1_555
H17 K2 2.811431 1_565
H17 K4 2.953170 1_555
H18 N2 1.031542 1_555
H18 K3 2.811431 1_665
H18 K5 2.953170 1_565
H19 N3 1.031542 1_555
H19 K3 2.811431 1_555
H19 K5 2.953170 1_555
H20 N1 1.031542 1_556
H20 K2 2.811431 1_566
H20 K6 2.953170 1_555
H21 N0 1.031542 1_556
H21 K2 2.811431 1_656
H21 K6 2.953170 1_655
H22 N3 1.031542 1_555
H22 K3 2.811431 1_555
H22 K7 2.953170 1_555
H23 N2 1.031542 1_555
H23 K3 2.811431 1_665
H23 K7 2.953170 1_565
N0 Na1 2.476913 1_555
N1 Na0 2.476913 1_555
N2 Na3 2.476913 1_555
N3 Na2 2.476913 1_555
N4 Na0 2.404732 1_555
N5 Na1 2.404732 1_555
N6 Na2 2.404732 1_555
N7 Na3 2.404732 1_555
N8 Na1 2.404732 1_556
N9 Na0 2.404732 1_556
N10 Na3 2.404732 1_555
N11 Na2 2.404732 1_555
