# generated using pymatgen
data_Te4Mo3
_symmetry_space_group_name_H-M   'P 1'
_cell_length_a   7.18502060
_cell_length_b   7.18501939
_cell_length_c   7.18502019
_cell_angle_alpha   92.24611134
_cell_angle_beta   92.24608511
_cell_angle_gamma   92.24608736
_symmetry_Int_Tables_number   1
_chemical_formula_structural   Te4Mo3
_chemical_formula_sum   'Te8 Mo6'
_cell_volume   370.04519433
_cell_formula_units_Z   2
loop_
 _symmetry_equiv_pos_site_id
 _symmetry_equiv_pos_as_xyz
  1  'x, y, z'
loop_
 _atom_site_type_symbol
 _atom_site_label
 _atom_site_symmetry_multiplicity
 _atom_site_fract_x
 _atom_site_fract_y
 _atom_site_fract_z
 _atom_site_occupancy
  Te  Te0  1  0.28409267  0.28409267  0.28409267  1
  Te  Te1  1  0.71590733  0.71590733  0.71590733  1
  Te  Te2  1  0.88356871  0.61772269  0.23796302  1
  Te  Te3  1  0.23796302  0.88356871  0.61772269  1
  Te  Te4  1  0.61772269  0.23796302  0.88356871  1
  Te  Te5  1  0.11643129  0.38227731  0.76203798  1
  Te  Te6  1  0.76203798  0.11643129  0.38227731  1
  Te  Te7  1  0.38227731  0.76203798  0.11643129  1
  Mo  Mo0  1  0.95299453  0.25057638  0.08115379  1
  Mo  Mo1  1  0.08115379  0.95299453  0.25057638  1
  Mo  Mo2  1  0.25057638  0.08115379  0.95299453  1
  Mo  Mo3  1  0.04700547  0.74942262  0.91884621  1
  Mo  Mo4  1  0.91884621  0.04700547  0.74942262  1
  Mo  Mo5  1  0.74942262  0.91884621  0.04700547  1
loop_
_geom_bond_atom_site_label_1
_geom_bond_atom_site_label_2
_geom_bond_distance
_geom_bond_site_symmetry_2
Mo0 Mo2 2.678028 1_654
Mo0 Mo1 2.678028 1_645
Mo0 Te0 2.738462 1_655
Mo0 Te4 2.744329 1_554
Mo0 Mo5 2.744700 1_545
Mo0 Mo4 2.744702 1_554
Mo0 Te6 2.790159 1_555
Mo0 Te5 2.797427 1_654
Mo0 Te2 2.896766 1_555
Mo1 Mo2 2.678028 1_564
Mo1 Te0 2.738461 1_565
Mo1 Te2 2.744328 1_455
Mo1 Mo3 2.744700 1_554
Mo1 Mo5 2.744703 1_455
Mo1 Te7 2.790159 1_555
Mo1 Te6 2.797426 1_465
Mo1 Te3 2.896767 1_555
Mo2 Te0 2.738461 1_556
Mo2 Te3 2.744328 1_545
Mo2 Mo4 2.744701 1_455
Mo2 Mo3 2.744703 1_545
Mo2 Te5 2.790159 1_555
Mo2 Te7 2.797427 1_546
Mo2 Te4 2.896767 1_555
Mo3 Mo5 2.678037 1_456
Mo3 Mo4 2.678038 1_465
Mo3 Te1 2.738461 1_455
Mo3 Te7 2.744328 1_556
Mo3 Te3 2.790166 1_555
Mo3 Te2 2.797430 1_456
Mo3 Te5 2.896757 1_555
Mo4 Mo5 2.678038 1_546
Mo4 Te1 2.738461 1_545
Mo4 Te5 2.744328 1_655
Mo4 Te4 2.790165 1_555
Mo4 Te3 2.797430 1_645
Mo4 Te6 2.896758 1_555
Mo5 Te1 2.738461 1_554
Mo5 Te6 2.744328 1_565
Mo5 Te2 2.790166 1_555
Mo5 Te4 2.797430 1_564
Mo5 Te7 2.896758 1_555
