# generated using pymatgen
data_Li4MnV3(P2O7)4
_symmetry_space_group_name_H-M   'P 1'
_cell_length_a   7.16138400
_cell_length_b   9.59318342
_cell_length_c   9.63854392
_cell_angle_alpha   119.11758483
_cell_angle_beta   100.23918900
_cell_angle_gamma   100.87948354
_symmetry_Int_Tables_number   1
_chemical_formula_structural   Li4MnV3(P2O7)4
_chemical_formula_sum   'Li4 Mn1 V3 P8 O28'
_cell_volume   539.31222238
_cell_formula_units_Z   1
loop_
 _symmetry_equiv_pos_site_id
 _symmetry_equiv_pos_as_xyz
  1  'x, y, z'
loop_
 _atom_site_type_symbol
 _atom_site_label
 _atom_site_symmetry_multiplicity
 _atom_site_fract_x
 _atom_site_fract_y
 _atom_site_fract_z
 _atom_site_occupancy
  Li  Li0  1  0.32467100  0.79091400  0.56987500  1
  Li  Li1  1  0.67451400  0.04322700  0.81924100  1
  Li  Li2  1  0.32486100  0.29012100  0.07113400  1
  Li  Li3  1  0.67475300  0.54401800  0.31778100  1
  Mn  Mn0  1  0.26796100  0.25660000  0.74226000  1
  V  V0  1  0.27158500  0.75630800  0.24352000  1
  V  V1  1  0.72757500  0.49441300  0.00567500  1
  V  V2  1  0.72797400  0.99129600  0.50762300  1
  P  P0  1  0.52285100  0.70730800  0.47171700  1
  P  P1  1  0.52148800  0.20835000  0.97061000  1
  P  P2  1  0.08684000  0.23973200  0.54487300  1
  P  P3  1  0.08773100  0.73836500  0.04467400  1
  P  P4  1  0.91367400  0.86861700  0.41854000  1
  P  P5  1  0.91392000  0.36250200  0.92133100  1
  P  P6  1  0.48184200  0.58033200  0.10002900  1
  P  P7  1  0.47798400  0.08222200  0.59865000  1
  O  O0  1  0.08433300  0.05769600  0.87608300  1
  O  O1  1  0.39188200  0.36980300  0.80663600  1
  O  O2  1  0.50505300  0.88737600  0.95474900  1
  O  O3  1  0.11468600  0.68638900  0.51782000  1
  O  O4  1  0.14489100  0.13510700  0.68909900  1
  O  O5  1  0.48131600  0.40770100  0.62837900  1
  O  O6  1  0.50645400  0.88380500  0.45840100  1
  O  O7  1  0.50594000  0.38527000  0.95725100  1
  O  O8  1  0.60504400  0.91313900  0.76494400  1
  O  O9  1  0.60461900  0.40596400  0.26885700  1
  O  O10  1  0.91653400  0.49308600  0.94065200  1
  O  O11  1  0.91360800  0.99755500  0.43871300  1
  O  O12  1  0.75330400  0.65272300  0.50101100  1
  O  O13  1  0.24669500  0.05914600  0.59455300  1
  O  O14  1  0.24884500  0.56100100  0.09350500  1
  O  O15  1  0.08528100  0.55617900  0.37769300  1
  O  O16  1  0.39540700  0.86927400  0.30746600  1
  O  O17  1  0.49403200  0.39483200  0.44889700  1
  O  O18  1  0.51727700  0.95520200  0.58317100  1
  O  O19  1  0.51755500  0.45222700  0.08430400  1
  O  O20  1  0.85107300  0.58541300  0.73877300  1
  O  O21  1  0.84670600  0.09069300  0.23558200  1
  O  O22  1  0.88713200  0.66492900  0.02981900  1
  O  O23  1  0.88587900  0.16884500  0.52801200  1
  O  O24  1  0.11374200  0.17146700  0.02513900  1
  O  O25  1  0.14858700  0.63767400  0.18687900  1
  O  O26  1  0.48167300  0.90955500  0.12847600  1
  O  O27  1  0.75222500  0.15036000  0.00202700  1
loop_
_geom_bond_atom_site_label_1
_geom_bond_atom_site_label_2
_geom_bond_distance
_geom_bond_site_symmetry_2
Li0 O3 1.480370 1_555
Li0 O18 1.822871 1_555
Li0 P0 1.929044 1_555
Li0 O8 2.136603 1_555
Li0 O15 2.189833 1_555
Li1 O8 1.056528 1_545
Li1 O27 1.463981 1_556
Li2 O24 1.548876 1_555
Li2 O19 1.809500 1_555
Li2 P1 1.923346 1_554
Li2 O9 2.149829 1_555
Li2 O0 2.189155 1_554
Li3 O9 1.133807 1_555
Li3 O12 1.468311 1_555
Mn0 O1 1.066097 1_555
Mn0 O4 1.126152 1_555
Mn0 O13 1.681553 1_555
O0 O24 1.256687 1_556
O2 O26 1.625904 1_556
O6 V2 1.563281 1_555
O6 P0 1.782769 1_555
O7 V1 1.570689 1_556
O7 P1 1.785630 1_555
O10 P5 1.169273 1_555
O10 O22 1.522207 1_556
O10 V1 1.588826 1_556
O11 P4 1.154982 1_555
O11 O23 1.512586 1_565
O11 V2 1.592056 1_555
O12 P0 1.839041 1_555
O13 O4 1.297481 1_555
O13 P7 1.619841 1_555
O14 O25 1.285045 1_555
O14 P6 1.630046 1_555
O14 V0 1.671000 1_555
O15 O3 1.259578 1_555
O16 V0 1.064662 1_555
O17 O5 1.693708 1_555
O18 O6 1.032753 1_555
O18 P7 1.246467 1_565
O19 O7 1.047501 1_554
O19 P6 1.244916 1_555
O22 P3 1.423797 1_655
O22 V1 1.692641 1_555
O23 P2 1.414175 1_655
O23 V2 1.756881 1_545
O25 V0 1.102312 1_555
O27 P1 1.861356 1_554
