# generated using pymatgen
data_Fe5(OF4)2
_symmetry_space_group_name_H-M   'P 1'
_cell_length_a   4.79388200
_cell_length_b   5.75322600
_cell_length_c   13.70455473
_cell_angle_alpha   79.11843418
_cell_angle_beta   90.00000000
_cell_angle_gamma   90.00000000
_symmetry_Int_Tables_number   1
_chemical_formula_structural   Fe5(OF4)2
_chemical_formula_sum   'Fe10 O4 F16'
_cell_volume   371.17935781
_cell_formula_units_Z   2
loop_
 _symmetry_equiv_pos_site_id
 _symmetry_equiv_pos_as_xyz
  1  'x, y, z'
loop_
 _atom_site_type_symbol
 _atom_site_label
 _atom_site_symmetry_multiplicity
 _atom_site_fract_x
 _atom_site_fract_y
 _atom_site_fract_z
 _atom_site_occupancy
  Fe  Fe0  1  0.51537200  0.75760200  0.98907900  1
  Fe  Fe1  1  0.50248200  0.53520200  0.60399800  1
  Fe  Fe2  1  0.53166000  0.13537900  0.78915600  1
  Fe  Fe3  1  0.48569400  0.94361300  0.40048700  1
  Fe  Fe4  1  0.48172900  0.35183200  0.19661600  1
  Fe  Fe5  1  0.98569400  0.05638700  0.59951300  1
  Fe  Fe6  1  0.03166000  0.86462100  0.21084400  1
  Fe  Fe7  1  0.98172900  0.64816800  0.80338400  1
  Fe  Fe8  1  0.00248200  0.46479800  0.39600200  1
  Fe  Fe9  1  0.01537200  0.24239800  0.01092100  1
  O  O0  1  0.18524800  0.16874400  0.13335000  1
  O  O1  1  0.20372000  0.77366500  0.32961200  1
  O  O2  1  0.70372000  0.22633500  0.67038800  1
  O  O3  1  0.68524800  0.83125600  0.86665000  1
  F  F0  1  0.20767600  0.96219200  0.74713900  1
  F  F1  1  0.20124000  0.55323600  0.94923900  1
  F  F2  1  0.19544600  0.37496500  0.53877500  1
  F  F3  1  0.28876500  0.05970900  0.94232900  1
  F  F4  1  0.29856300  0.86766100  0.54650700  1
  F  F5  1  0.30125900  0.27769700  0.33613600  1
  F  F6  1  0.29976000  0.69273400  0.12197700  1
  F  F7  1  0.30138500  0.44444500  0.76141800  1
  F  F8  1  0.70767600  0.03780800  0.25286100  1
  F  F9  1  0.70124000  0.44676400  0.05076100  1
  F  F10  1  0.69544600  0.62503500  0.46122500  1
  F  F11  1  0.79976000  0.30726600  0.87802300  1
  F  F12  1  0.78876500  0.94029100  0.05767100  1
  F  F13  1  0.79856300  0.13233900  0.45349300  1
  F  F14  1  0.80125900  0.72230300  0.66386400  1
  F  F15  1  0.80138500  0.55555500  0.23858200  1
loop_
_geom_bond_atom_site_label_1
_geom_bond_atom_site_label_2
_geom_bond_distance
_geom_bond_site_symmetry_2
Fe0 O3 1.841045 1_555
Fe1 O2 2.075023 1_555
Fe2 O2 1.811599 1_555
Fe2 O3 2.007443 1_545
Fe3 O1 2.021196 1_555
Fe4 O0 2.055768 1_555
Fe5 O2 2.021196 1_555
Fe6 O1 1.811599 1_555
Fe6 O0 2.007443 1_565
Fe7 O3 2.055768 1_555
Fe8 O1 2.075023 1_555
Fe9 O0 1.841045 1_555
F0 Fe2 1.988271 1_565
F0 Fe7 2.122639 1_455
F0 Fe5 2.259488 1_465
F1 Fe9 2.033676 1_556
F1 Fe0 2.047113 1_555
F1 Fe7 2.233602 1_455
F2 Fe1 2.031360 1_555
F2 Fe5 2.118319 1_455
F2 Fe8 2.137629 1_555
F3 Fe9 2.019676 1_556
F3 Fe0 2.047219 1_545
F3 Fe2 2.367878 1_555
F4 Fe5 2.062519 1_465
F4 Fe1 2.160065 1_555
F4 Fe3 2.161043 1_555
F5 Fe8 2.053474 1_555
F5 Fe4 2.068445 1_555
F5 Fe3 2.147980 1_545
F6 Fe0 2.065957 1_554
F6 Fe6 2.137225 1_555
F6 Fe4 2.212798 1_555
F7 Fe2 2.066314 1_555
F7 Fe7 2.075389 1_455
F7 Fe1 2.330439 1_555
F8 Fe6 1.988271 1_645
F8 Fe4 2.122639 1_555
F8 Fe3 2.259488 1_545
F9 Fe0 2.033676 1_554
F9 Fe9 2.047113 1_655
F9 Fe4 2.233602 1_555
F10 Fe8 2.031360 1_655
F10 Fe3 2.118319 1_555
F10 Fe1 2.137629 1_555
F11 Fe9 2.065957 1_656
F11 Fe2 2.137225 1_555
F11 Fe7 2.212798 1_555
F12 Fe0 2.019676 1_554
F12 Fe9 2.047219 1_665
F12 Fe6 2.367878 1_655
F13 Fe3 2.062519 1_545
F13 Fe8 2.160065 1_655
F13 Fe5 2.161043 1_555
F14 Fe1 2.053474 1_555
F14 Fe7 2.068445 1_555
F14 Fe5 2.147980 1_565
F15 Fe6 2.066314 1_655
F15 Fe4 2.075389 1_555
F15 Fe8 2.330439 1_655
