# generated using pymatgen
data_Li4V2Si4O13
_symmetry_space_group_name_H-M   'P 1'
_cell_length_a   5.02940500
_cell_length_b   13.81325500
_cell_length_c   14.15574500
_cell_angle_alpha   90.00000000
_cell_angle_beta   90.00000000
_cell_angle_gamma   90.00000000
_symmetry_Int_Tables_number   1
_chemical_formula_structural   Li4V2Si4O13
_chemical_formula_sum   'Li16 V8 Si16 O52'
_cell_volume   983.43434000
_cell_formula_units_Z   4
loop_
 _symmetry_equiv_pos_site_id
 _symmetry_equiv_pos_as_xyz
  1  'x, y, z'
loop_
 _atom_site_type_symbol
 _atom_site_label
 _atom_site_symmetry_multiplicity
 _atom_site_fract_x
 _atom_site_fract_y
 _atom_site_fract_z
 _atom_site_occupancy
  Li  Li0  1  0.18293900  0.04130000  0.21880800  1
  Li  Li1  1  0.66268500  0.10029000  0.91607600  1
  Li  Li2  1  0.64777300  0.14042400  0.11044800  1
  Li  Li3  1  0.25102300  0.20954200  0.83751800  1
  Li  Li4  1  0.75102300  0.29045800  0.33751800  1
  Li  Li5  1  0.14777300  0.35957600  0.61044800  1
  Li  Li6  1  0.16268500  0.39971000  0.41607600  1
  Li  Li7  1  0.68293900  0.45870000  0.71880800  1
  Li  Li8  1  0.31706100  0.54130000  0.21880800  1
  Li  Li9  1  0.83731500  0.60029000  0.91607600  1
  Li  Li10  1  0.85222700  0.64042400  0.11044800  1
  Li  Li11  1  0.24897700  0.70954200  0.83751800  1
  Li  Li12  1  0.74897700  0.79045800  0.33751800  1
  Li  Li13  1  0.35222700  0.85957600  0.61044800  1
  Li  Li14  1  0.33731500  0.89971000  0.41607600  1
  Li  Li15  1  0.81706100  0.95870000  0.71880800  1
  V  V0  1  0.35385000  0.07912200  0.62619300  1
  V  V1  1  0.18255600  0.17212900  0.42136700  1
  V  V2  1  0.68255600  0.32787100  0.92136700  1
  V  V3  1  0.85385000  0.42087800  0.12619300  1
  V  V4  1  0.14615000  0.57912200  0.62619300  1
  V  V5  1  0.31744400  0.67212900  0.42136700  1
  V  V6  1  0.81744400  0.82787100  0.92136700  1
  V  V7  1  0.64615000  0.92087800  0.12619300  1
  Si  Si0  1  0.14992500  0.02205700  0.00161100  1
  Si  Si1  1  0.68942700  0.06129200  0.31746500  1
  Si  Si2  1  0.84477900  0.18975100  0.72871700  1
  Si  Si3  1  0.17072000  0.22562500  0.04600300  1
  Si  Si4  1  0.67072000  0.27437500  0.54600300  1
  Si  Si5  1  0.34477900  0.31024900  0.22871700  1
  Si  Si6  1  0.18942700  0.43870800  0.81746500  1
  Si  Si7  1  0.64992500  0.47794300  0.50161100  1
  Si  Si8  1  0.35007500  0.52205700  0.00161100  1
  Si  Si9  1  0.81057300  0.56129200  0.31746500  1
  Si  Si10  1  0.65522100  0.68975100  0.72871700  1
  Si  Si11  1  0.32928000  0.72562500  0.04600300  1
  Si  Si12  1  0.82928000  0.77437500  0.54600300  1
  Si  Si13  1  0.15522100  0.81024900  0.22871700  1
  Si  Si14  1  0.31057300  0.93870800  0.81746500  1
  Si  Si15  1  0.85007500  0.97794300  0.50161100  1
  O  O0  1  0.42329000  0.02540200  0.06126500  1
  O  O1  1  0.77377600  0.03684400  0.20831800  1
  O  O2  1  0.21768500  0.03260600  0.88694200  1
  O  O3  1  0.06216300  0.06425100  0.52104000  1
  O  O4  1  0.37203100  0.07330800  0.33813800  1
  O  O5  1  0.66863300  0.09358300  0.70938900  1
  O  O6  1  0.98680800  0.12553500  0.02543000  1
  O  O7  1  0.85899800  0.15665900  0.34714600  1
  O  O8  1  0.15940600  0.17768800  0.70226300  1
  O  O9  1  0.47266900  0.18401600  0.52483000  1
  O  O10  1  0.24085800  0.21756200  0.16049300  1
  O  O11  1  0.82640200  0.21516900  0.84165500  1
  O  O12  1  0.44515500  0.21744400  0.98574300  1
  O  O13  1  0.94515500  0.28255600  0.48574300  1
  O  O14  1  0.32640200  0.28483100  0.34165500  1
  O  O15  1  0.74085800  0.28243800  0.66049300  1
  O  O16  1  0.97266900  0.31598400  0.02483000  1
  O  O17  1  0.65940600  0.32231200  0.20226300  1
  O  O18  1  0.35899800  0.34334100  0.84714600  1
  O  O19  1  0.48680800  0.37446500  0.52543000  1
  O  O20  1  0.16863300  0.40641700  0.20938900  1
  O  O21  1  0.87203100  0.42669200  0.83813800  1
  O  O22  1  0.56216300  0.43574900  0.02104000  1
  O  O23  1  0.71768500  0.46739400  0.38694200  1
  O  O24  1  0.27377600  0.46315600  0.70831800  1
  O  O25  1  0.92329000  0.47459800  0.56126500  1
  O  O26  1  0.07671000  0.52540200  0.06126500  1
  O  O27  1  0.72622400  0.53684400  0.20831800  1
  O  O28  1  0.28231500  0.53260600  0.88694200  1
  O  O29  1  0.43783700  0.56425100  0.52104000  1
  O  O30  1  0.12796900  0.57330800  0.33813800  1
  O  O31  1  0.83136700  0.59358300  0.70938900  1
  O  O32  1  0.51319200  0.62553500  0.02543000  1
  O  O33  1  0.64100200  0.65665900  0.34714600  1
  O  O34  1  0.34059400  0.67768800  0.70226300  1
  O  O35  1  0.02733100  0.68401600  0.52483000  1
  O  O36  1  0.25914200  0.71756200  0.16049300  1
  O  O37  1  0.67359800  0.71516900  0.84165500  1
  O  O38  1  0.05484500  0.71744400  0.98574300  1
  O  O39  1  0.55484500  0.78255600  0.48574300  1
  O  O40  1  0.17359800  0.78483100  0.34165500  1
  O  O41  1  0.75914200  0.78243800  0.66049300  1
  O  O42  1  0.52733100  0.81598400  0.02483000  1
  O  O43  1  0.84059400  0.82231200  0.20226300  1
  O  O44  1  0.14100200  0.84334100  0.84714600  1
  O  O45  1  0.01319200  0.87446500  0.52543000  1
  O  O46  1  0.33136700  0.90641700  0.20938900  1
  O  O47  1  0.62796900  0.92669200  0.83813800  1
  O  O48  1  0.93783700  0.93574900  0.02104000  1
  O  O49  1  0.78231500  0.96739400  0.38694200  1
  O  O50  1  0.22622400  0.96315600  0.70831800  1
  O  O51  1  0.57671000  0.97459800  0.56126500  1
loop_
_geom_bond_atom_site_label_1
_geom_bond_atom_site_label_2
_geom_bond_distance
_geom_bond_site_symmetry_2
Li0 O4 1.988300 1_555
Li0 O46 2.011582 1_545
Li0 O1 2.064115 1_455
Li0 O0 2.546173 1_555
Li0 O10 2.587336 1_555
Li1 O11 2.075071 1_555
Li1 O12 2.188225 1_555
Li1 O6 2.274916 1_556
Li1 O2 2.460329 1_555
Li1 O0 2.596886 1_556
Li1 O47 2.645349 1_545
Li2 O0 2.069729 1_555
Li2 O1 2.090005 1_555
Li2 O6 2.097191 1_555
Li2 O12 2.299259 1_554
Li2 O10 2.413615 1_555
Li3 O18 1.931145 1_555
Li3 O8 2.017858 1_555
Li3 O11 2.137807 1_455
Li3 O12 2.316852 1_555
Li3 O2 2.547752 1_555
Li4 O7 1.931145 1_555
Li4 O17 2.017858 1_555
Li4 O14 2.137807 1_555
Li4 O13 2.316852 1_555
Li4 O23 2.547752 1_555
Li5 O25 2.069729 1_455
Li5 O24 2.090005 1_555
Li5 O19 2.097191 1_555
Li5 O13 2.299259 1_455
Li5 O15 2.413615 1_455
Li6 O14 2.075071 1_555
Li6 O13 2.188225 1_455
Li6 O19 2.274916 1_555
Li6 O23 2.460329 1_455
Li6 O25 2.596886 1_455
Li6 O30 2.645349 1_555
Li7 O21 1.988300 1_555
Li7 O31 2.011582 1_555
Li7 O24 2.064115 1_555
Li7 O25 2.546173 1_555
Li7 O15 2.587336 1_555
Li8 O30 1.988300 1_555
Li8 O20 2.011582 1_555
Li8 O27 2.064115 1_555
Li8 O26 2.546173 1_555
Li8 O36 2.587336 1_555
Li9 O37 2.075071 1_555
Li9 O38 2.188225 1_655
Li9 O32 2.274916 1_556
Li9 O28 2.460329 1_655
Li9 O26 2.596886 1_656
Li9 O21 2.645349 1_555
Li10 O26 2.069729 1_655
Li10 O27 2.090005 1_555
Li10 O32 2.097191 1_555
Li10 O38 2.299259 1_654
Li10 O36 2.413615 1_655
Li11 O44 1.931145 1_555
Li11 O34 2.017858 1_555
Li11 O37 2.137807 1_555
Li11 O38 2.316852 1_555
Li11 O28 2.547752 1_555
Li12 O33 1.931145 1_555
Li12 O43 2.017858 1_555
Li12 O40 2.137807 1_655
Li12 O39 2.316852 1_555
Li12 O49 2.547752 1_555
Li13 O51 2.069729 1_555
Li13 O50 2.090005 1_555
Li13 O45 2.097191 1_555
Li13 O39 2.299259 1_555
Li13 O41 2.413615 1_555
Li14 O40 2.075071 1_555
Li14 O39 2.188225 1_555
Li14 O45 2.274916 1_555
Li14 O49 2.460329 1_555
Li14 O51 2.596886 1_555
Li14 O4 2.645349 1_565
Li15 O47 1.988300 1_555
Li15 O5 2.011582 1_565
Li15 O50 2.064115 1_655
Li15 O51 2.546173 1_555
Li15 O41 2.587336 1_555
O0 Si0 1.614148 1_555
O0 V7 2.045891 1_545
O1 Si1 1.637441 1_555
O1 V7 2.080744 1_545
O2 Si0 1.665002 1_556
O2 Si14 1.693465 1_545
O3 Si15 1.623197 1_445
O3 V0 2.100002 1_555
O3 V1 2.139612 1_555
O4 Si1 1.631381 1_555
O4 V1 2.039490 1_555
O5 Si2 1.619976 1_555
O5 V0 1.983258 1_555
O6 Si0 1.682203 1_655
O6 Si3 1.688749 1_655
O7 Si1 1.624569 1_555
O7 V1 1.948757 1_655
O8 Si2 1.634609 1_455
O8 V0 1.992398 1_555
O9 Si4 1.624773 1_555
O9 V1 2.073876 1_555
O9 V0 2.124936 1_555
O10 Si3 1.662372 1_555
O10 Si5 1.686731 1_555
O11 Si2 1.639429 1_555
O11 V2 2.054315 1_555
O12 Si3 1.626499 1_556
O12 V2 2.140739 1_555
O13 Si4 1.626499 1_555
O13 V1 2.140739 1_655
O14 Si5 1.639429 1_555
O14 V1 2.054315 1_555
O15 Si4 1.662372 1_555
O15 Si2 1.686731 1_555
O16 Si3 1.624773 1_655
O16 V2 2.073876 1_554
O16 V3 2.124936 1_555
O17 Si5 1.634609 1_555
O17 V3 1.992398 1_555
O18 Si6 1.624569 1_555
O18 V2 1.948757 1_555
O19 Si7 1.682203 1_555
O19 Si4 1.688749 1_555
O20 Si5 1.619976 1_555
O20 V3 1.983258 1_455
O21 Si6 1.631381 1_655
O21 V2 2.039490 1_555
O22 Si8 1.623197 1_555
O22 V3 2.100002 1_555
O22 V2 2.139612 1_554
O23 Si7 1.665002 1_555
O23 Si9 1.693465 1_555
O24 Si6 1.637441 1_555
O24 V4 2.080744 1_555
O25 Si7 1.614148 1_555
O25 V4 2.045891 1_655
O26 Si8 1.614148 1_555
O26 V3 2.045891 1_455
O27 Si9 1.637441 1_555
O27 V3 2.080744 1_555
O28 Si8 1.665002 1_556
O28 Si6 1.693465 1_555
O29 Si7 1.623197 1_555
O29 V4 2.100002 1_555
O29 V5 2.139612 1_555
O30 Si9 1.631381 1_455
O30 V5 2.039490 1_555
O31 Si10 1.619976 1_555
O31 V4 1.983258 1_655
O32 Si8 1.682203 1_555
O32 Si11 1.688749 1_555
O33 Si9 1.624569 1_555
O33 V5 1.948757 1_555
O34 Si10 1.634609 1_555
O34 V4 1.992398 1_555
O35 Si12 1.624773 1_455
O35 V5 2.073876 1_555
O35 V4 2.124936 1_555
O36 Si11 1.662372 1_555
O36 Si13 1.686731 1_555
O37 Si10 1.639429 1_555
O37 V6 2.054315 1_555
O38 Si11 1.626499 1_556
O38 V6 2.140739 1_455
O39 Si12 1.626499 1_555
O39 V5 2.140739 1_555
O40 Si13 1.639429 1_555
O40 V5 2.054315 1_555
O41 Si12 1.662372 1_555
O41 Si10 1.686731 1_555
O42 Si11 1.624773 1_555
O42 V6 2.073876 1_554
O42 V7 2.124936 1_555
O43 Si13 1.634609 1_655
O43 V7 1.992398 1_555
O44 Si14 1.624569 1_555
O44 V6 1.948757 1_455
O45 Si15 1.682203 1_455
O45 Si12 1.688749 1_455
O46 Si13 1.619976 1_555
O46 V7 1.983258 1_555
O47 Si14 1.631381 1_555
O47 V6 2.039490 1_555
O48 Si0 1.623197 1_665
O48 V7 2.100002 1_555
O48 V6 2.139612 1_554
O49 Si15 1.665002 1_555
O49 Si1 1.693465 1_565
O50 Si14 1.637441 1_555
O50 V0 2.080744 1_565
O51 Si15 1.614148 1_555
O51 V0 2.045891 1_565
