# generated using pymatgen
data_LiSc2Ir
_symmetry_space_group_name_H-M   'P 1'
_cell_length_a   4.61510143
_cell_length_b   4.61510145
_cell_length_c   4.61510136
_cell_angle_alpha   60.00094884
_cell_angle_beta   60.00094899
_cell_angle_gamma   60.00094732
_symmetry_Int_Tables_number   1
_chemical_formula_structural   LiSc2Ir
_chemical_formula_sum   'Li1 Sc2 Ir1'
_cell_volume   69.50852712
_cell_formula_units_Z   1
loop_
 _symmetry_equiv_pos_site_id
 _symmetry_equiv_pos_as_xyz
  1  'x, y, z'
loop_
 _atom_site_type_symbol
 _atom_site_label
 _atom_site_symmetry_multiplicity
 _atom_site_fract_x
 _atom_site_fract_y
 _atom_site_fract_z
 _atom_site_occupancy
  Li  Li0  1  0.75000077  0.75000078  0.75000077  1
  Sc  Sc0  1  0.00000032  0.00000032  0.00000032  1
  Sc  Sc1  1  0.49999895  0.49999895  0.49999895  1
  Ir  Ir0  1  0.24999996  0.24999994  0.24999995  1
loop_
_geom_bond_atom_site_label_1
_geom_bond_atom_site_label_2
_geom_bond_distance
_geom_bond_site_symmetry_2
Li0 Sc0 2.826136 1_666
Li0 Sc1 2.826161 1_555
Li0 Sc1 2.826188 1_565
Li0 Sc1 2.826188 1_655
Li0 Sc1 2.826188 1_556
Li0 Sc0 2.826196 1_566
Li0 Sc0 2.826196 1_665
Li0 Sc0 2.826196 1_656
Ir0 Sc1 2.826129 1_555
Ir0 Sc0 2.826136 1_555
Ir0 Sc0 2.826196 1_655
Ir0 Sc0 2.826196 1_556
Ir0 Sc0 2.826196 1_565
Ir0 Sc1 2.826198 1_545
Ir0 Sc1 2.826198 1_554
Ir0 Sc1 2.826198 1_455
