# generated using pymatgen
data_BeVRu2
_symmetry_space_group_name_H-M   'P 1'
_cell_length_a   4.09879656
_cell_length_b   4.09879656
_cell_length_c   4.09879656
_cell_angle_alpha   60.00101398
_cell_angle_beta   60.00101398
_cell_angle_gamma   60.00101398
_symmetry_Int_Tables_number   1
_chemical_formula_structural   BeVRu2
_chemical_formula_sum   'Be1 V1 Ru2'
_cell_volume   48.69272440
_cell_formula_units_Z   1
loop_
 _symmetry_equiv_pos_site_id
 _symmetry_equiv_pos_as_xyz
  1  'x, y, z'
loop_
 _atom_site_type_symbol
 _atom_site_label
 _atom_site_symmetry_multiplicity
 _atom_site_fract_x
 _atom_site_fract_y
 _atom_site_fract_z
 _atom_site_occupancy
  Be  Be0  1  0.24998172  0.24998172  0.24998172  1
  V  V0  1  0.74999815  0.74999815  0.74999815  1
  Ru  Ru0  1  0.00002036  0.00002036  0.00002036  1
  Ru  Ru1  1  0.49999577  0.49999577  0.49999577  1
loop_
_geom_bond_atom_site_label_1
_geom_bond_atom_site_label_2
_geom_bond_distance
_geom_bond_site_symmetry_2
Be0 Ru0 2.509583 1_555
Be0 Ru1 2.509975 1_455
Be0 Ru1 2.509975 1_554
Be0 Ru1 2.509975 1_545
Be0 Ru1 2.510112 1_555
Be0 Ru0 2.510151 1_655
Be0 Ru0 2.510151 1_556
Be0 Ru0 2.510151 1_565
Ru0 V0 2.509948 1_445
Ru0 V0 2.509948 1_454
Ru0 V0 2.509948 1_544
Ru0 V0 2.510194 1_444
Ru1 V0 2.509995 1_555
Ru1 V0 2.510014 1_545
Ru1 V0 2.510014 1_455
Ru1 V0 2.510014 1_554
