# generated using pymatgen
data_LiTiMnO4
_symmetry_space_group_name_H-M   'P 1'
_cell_length_a   5.95893076
_cell_length_b   10.18742612
_cell_length_c   5.95892827
_cell_angle_alpha   104.65333096
_cell_angle_beta   117.60087538
_cell_angle_gamma   75.34676151
_symmetry_Int_Tables_number   1
_chemical_formula_structural   LiTiMnO4
_chemical_formula_sum   'Li4 Ti4 Mn4 O16'
_cell_volume   306.23583806
_cell_formula_units_Z   4
loop_
 _symmetry_equiv_pos_site_id
 _symmetry_equiv_pos_as_xyz
  1  'x, y, z'
loop_
 _atom_site_type_symbol
 _atom_site_label
 _atom_site_symmetry_multiplicity
 _atom_site_fract_x
 _atom_site_fract_y
 _atom_site_fract_z
 _atom_site_occupancy
  Li  Li0  1  0.31246600  0.06236000  0.18754500  1
  Li  Li1  1  0.81246700  0.56235100  0.68754300  1
  Li  Li2  1  0.18754600  0.43763900  0.31246500  1
  Li  Li3  1  0.68754200  0.93764800  0.81246700  1
  Ti  Ti0  1  0.75000100  0.25000000  0.75000200  1
  Ti  Ti1  1  0.25000000  0.74999900  0.25000300  1
  Ti  Ti2  1  0.00000000  0.00000400  0.50000100  1
  Ti  Ti3  1  0.50000200  0.49999800  0.99999800  1
  Mn  Mn0  1  0.24996600  0.75001500  0.74997900  1
  Mn  Mn1  1  0.75000200  0.74998600  0.24999200  1
  Mn  Mn2  1  0.74998800  0.24999000  0.24997500  1
  Mn  Mn3  1  0.24996900  0.25001000  0.74999000  1
  O  O0  1  0.66331400  0.13170100  0.39992500  1
  O  O1  1  0.16332400  0.63170400  0.89991800  1
  O  O2  1  0.10007900  0.13170400  0.83669500  1
  O  O3  1  0.60009000  0.63170200  0.33668000  1
  O  O4  1  0.39992600  0.36829900  0.66331200  1
  O  O5  1  0.89992000  0.86829500  0.16332500  1
  O  O6  1  0.83669400  0.36829700  0.10007900  1
  O  O7  1  0.33667900  0.86829900  0.60008900  1
  O  O8  1  0.87422700  0.35965700  0.62577800  1
  O  O9  1  0.37422200  0.85966400  0.12578800  1
  O  O10  1  0.10901700  0.12522600  0.39099300  1
  O  O11  1  0.60901900  0.62520900  0.89098200  1
  O  O12  1  0.62577900  0.14034200  0.87422500  1
  O  O13  1  0.12578600  0.64033700  0.37422100  1
  O  O14  1  0.39099200  0.37477300  0.10901200  1
  O  O15  1  0.89098200  0.87479100  0.60902000  1
loop_
_geom_bond_atom_site_label_1
_geom_bond_atom_site_label_2
_geom_bond_distance
_geom_bond_site_symmetry_2
Li0 O9 1.972670 1_545
Li0 O10 1.981397 1_555
Li0 O0 2.077200 1_555
Li0 O2 2.077226 1_554
Li1 O8 1.972652 1_555
Li1 O11 1.981347 1_555
Li1 O1 2.077295 1_655
Li1 O3 2.077317 1_555
Li2 O13 1.972690 1_555
Li2 O14 1.981406 1_555
Li2 O4 2.077192 1_555
Li2 O6 2.077226 1_455
Li3 O12 1.972651 1_565
Li3 O15 1.981347 1_555
Li3 O5 2.077302 1_556
Li3 O7 2.077308 1_555
Mn0 O7 1.950395 1_555
Mn0 O1 1.950562 1_555
Mn0 O15 2.096869 1_455
Mn0 O11 2.097308 1_555
Mn0 O13 2.104011 1_555
Mn0 O9 2.104137 1_556
Mn1 O3 1.950397 1_555
Mn1 O5 1.950548 1_555
Mn1 O11 2.096987 1_554
Mn1 O15 2.097187 1_555
Mn1 O13 2.104027 1_655
Mn1 O9 2.104113 1_555
Mn2 O0 1.950552 1_555
Mn2 O6 1.950582 1_555
Mn2 O14 2.096952 1_555
Mn2 O10 2.097025 1_655
Mn2 O12 2.103866 1_554
Mn2 O8 2.104174 1_555
Mn3 O2 1.950544 1_555
Mn3 O4 1.950597 1_555
Mn3 O10 2.096952 1_555
Mn3 O14 2.096991 1_556
Mn3 O8 2.103828 1_455
Mn3 O12 2.104213 1_555
O0 Ti2 2.028584 1_655
O0 Ti0 2.028664 1_555
O1 Ti3 2.028596 1_555
O1 Ti1 2.028689 1_556
O2 Ti2 2.028629 1_555
O2 Ti0 2.028657 1_455
O3 Ti3 2.028600 1_554
O3 Ti1 2.028722 1_555
O4 Ti3 2.028591 1_555
O4 Ti0 2.028657 1_555
O5 Ti2 2.028600 1_665
O5 Ti1 2.028673 1_655
O6 Ti3 2.028629 1_554
O6 Ti0 2.028654 1_554
O7 Ti2 2.028596 1_565
O7 Ti1 2.028713 1_555
O8 Ti0 1.920527 1_555
O9 Ti1 1.920535 1_555
O10 Ti2 1.923767 1_555
O11 Ti3 1.923705 1_555
O12 Ti0 1.920514 1_555
O13 Ti1 1.920490 1_555
O14 Ti3 1.923788 1_554
O15 Ti2 1.923738 1_665
