# generated using pymatgen
data_Li5Mn3(NiO5)2
_symmetry_space_group_name_H-M   'P 1'
_cell_length_a   5.04554900
_cell_length_b   5.14504961
_cell_length_c   7.86087230
_cell_angle_alpha   107.34734110
_cell_angle_beta   102.97296327
_cell_angle_gamma   99.46297762
_symmetry_Int_Tables_number   1
_chemical_formula_structural   Li5Mn3(NiO5)2
_chemical_formula_sum   'Li5 Mn3 Ni2 O10'
_cell_volume   183.84688376
_cell_formula_units_Z   1
loop_
 _symmetry_equiv_pos_site_id
 _symmetry_equiv_pos_as_xyz
  1  'x, y, z'
loop_
 _atom_site_type_symbol
 _atom_site_label
 _atom_site_symmetry_multiplicity
 _atom_site_fract_x
 _atom_site_fract_y
 _atom_site_fract_z
 _atom_site_occupancy
  Li  Li0  1  0.34877400  0.08448100  0.42435800  1
  Li  Li1  1  0.86219600  0.75123200  0.76463700  1
  Li  Li2  1  0.50000000  0.50000000  0.50000000  1
  Li  Li3  1  0.13780400  0.24876800  0.23536300  1
  Li  Li4  1  0.65122600  0.91551900  0.57564200  1
  Mn  Mn0  1  0.00000000  0.50000000  0.00000000  1
  Mn  Mn1  1  0.90212700  0.10909200  0.89424900  1
  Mn  Mn2  1  0.09787300  0.89090800  0.10575100  1
  Ni  Ni0  1  0.73246300  0.32057000  0.68359100  1
  Ni  Ni1  1  0.26753700  0.67943000  0.31640900  1
  O  O0  1  0.29508100  0.36807000  0.87189100  1
  O  O1  1  0.45017100  0.82706200  0.95583900  1
  O  O2  1  0.03921500  0.20410500  0.55149200  1
  O  O3  1  0.79942600  0.02341100  0.21828200  1
  O  O4  1  0.12686100  0.55919200  0.67339900  1
  O  O5  1  0.87313900  0.44080800  0.32660100  1
  O  O6  1  0.20057400  0.97658900  0.78171800  1
  O  O7  1  0.96078500  0.79589500  0.44850800  1
  O  O8  1  0.54982900  0.17293800  0.04416100  1
  O  O9  1  0.70491900  0.63193000  0.12810900  1
loop_
_geom_bond_atom_site_label_1
_geom_bond_atom_site_label_2
_geom_bond_distance
_geom_bond_site_symmetry_2
Li0 Ni1 1.933794 1_545
Li0 O2 2.113580 1_555
Li0 Ni0 2.314156 1_555
Li0 O7 2.334970 1_445
Li1 Mn1 1.770848 1_565
Li1 O6 1.852188 1_655
Li1 O4 1.927477 1_655
Li1 Ni0 2.058655 1_555
Li2 Ni0 2.168244 1_555
Li2 Ni1 2.168244 1_555
Li2 O4 2.566790 1_555
Li2 O5 2.566790 1_555
Li3 Mn2 1.770848 1_545
Li3 O3 1.852188 1_455
Li3 O5 1.927477 1_455
Li3 Ni1 2.058655 1_555
Li4 Ni0 1.933794 1_565
Li4 O7 2.113580 1_555
Li4 Ni1 2.314156 1_555
Li4 O2 2.334970 1_665
Mn0 O0 2.071090 1_554
Mn0 O9 2.071090 1_455
Mn0 Ni1 2.361005 1_555
Mn0 Ni0 2.361005 1_454
Mn1 O6 2.022570 1_645
Mn1 O0 2.272602 1_655
Mn1 Ni0 2.324469 1_555
Mn1 O8 2.357522 1_556
Mn2 O3 2.022570 1_465
Mn2 O9 2.272602 1_455
Mn2 Ni1 2.324469 1_555
Mn2 O1 2.357522 1_554
Ni0 O2 2.118570 1_655
Ni0 O4 2.191012 1_655
Ni1 O7 2.118570 1_455
Ni1 O5 2.191012 1_455
O0 O6 1.862208 1_545
O1 O8 1.647398 1_566
O2 O4 1.718038 1_555
O2 O7 1.947312 1_445
O3 O9 1.862208 1_545
O5 O7 1.718038 1_555
