# generated using pymatgen
data_TiGaRh2
_symmetry_space_group_name_H-M   'P 1'
_cell_length_a   4.30339121
_cell_length_b   4.30339121
_cell_length_c   4.30339109
_cell_angle_alpha   60.00015013
_cell_angle_beta   60.00014996
_cell_angle_gamma   60.00014779
_symmetry_Int_Tables_number   1
_chemical_formula_structural   TiGaRh2
_chemical_formula_sum   'Ti1 Ga1 Rh2'
_cell_volume   56.35324720
_cell_formula_units_Z   1
loop_
 _symmetry_equiv_pos_site_id
 _symmetry_equiv_pos_as_xyz
  1  'x, y, z'
loop_
 _atom_site_type_symbol
 _atom_site_label
 _atom_site_symmetry_multiplicity
 _atom_site_fract_x
 _atom_site_fract_y
 _atom_site_fract_z
 _atom_site_occupancy
  Ti  Ti0  1  0.75000083  0.75000080  0.75000080  1
  Ga  Ga0  1  0.25000078  0.25000079  0.25000079  1
  Rh  Rh0  1  0.00000026  0.00000027  0.00000027  1
  Rh  Rh1  1  0.49999913  0.49999914  0.49999914  1
loop_
_geom_bond_atom_site_label_1
_geom_bond_atom_site_label_2
_geom_bond_distance
_geom_bond_site_symmetry_2
Ga0 Rh1 2.635258 1_555
Ga0 Rh0 2.635281 1_555
Ga0 Rh0 2.635281 1_556
Ga0 Rh0 2.635281 1_655
Ga0 Rh0 2.635281 1_565
Ga0 Rh1 2.635289 1_554
Ga0 Rh1 2.635289 1_545
Ga0 Rh1 2.635289 1_455
Rh0 Ti0 2.635269 1_444
Rh0 Ti0 2.635285 1_445
Rh0 Ti0 2.635285 1_454
Rh0 Ti0 2.635285 1_544
Rh1 Ti0 2.635277 1_455
Rh1 Ti0 2.635277 1_554
Rh1 Ti0 2.635277 1_545
Rh1 Ti0 2.635293 1_555
