# generated using pymatgen
data_LiCa2Ir
_symmetry_space_group_name_H-M   'P 1'
_cell_length_a   4.98463673
_cell_length_b   4.98463308
_cell_length_c   4.98463673
_cell_angle_alpha   60.00003397
_cell_angle_beta   60.00006795
_cell_angle_gamma   59.99995626
_symmetry_Int_Tables_number   1
_chemical_formula_structural   LiCa2Ir
_chemical_formula_sum   'Li1 Ca2 Ir1'
_cell_volume   87.57606228
_cell_formula_units_Z   1
loop_
 _symmetry_equiv_pos_site_id
 _symmetry_equiv_pos_as_xyz
  1  'x, y, z'
loop_
 _atom_site_type_symbol
 _atom_site_label
 _atom_site_symmetry_multiplicity
 _atom_site_fract_x
 _atom_site_fract_y
 _atom_site_fract_z
 _atom_site_occupancy
  Li  Li0  1  0.74999900  0.74999900  0.74999900  1
  Ca  Ca0  1  0.49999900  0.50000000  0.49999900  1
  Ca  Ca1  1  0.00000000  0.99999900  0.00000000  1
  Ir  Ir0  1  0.25000000  0.25000000  0.25000000  1
loop_
_geom_bond_atom_site_label_1
_geom_bond_atom_site_label_2
_geom_bond_distance
_geom_bond_site_symmetry_2
Ca0 Ir0 3.052445 1_555
Ca0 Li0 3.052449 1_555
Ca0 Ir0 3.052451 1_565
Ca0 Li0 3.052454 1_455
Ca0 Li0 3.052455 1_545
Ca0 Li0 3.052457 1_554
Ca0 Ir0 3.052458 1_655
Ca0 Ir0 3.052461 1_556
Ca1 Ir0 3.052447 1_555
Ca1 Li0 3.052450 1_554
Ca1 Li0 3.052451 1_464
Ca1 Li0 3.052453 1_455
Ca1 Ir0 3.052454 1_465
Ca1 Ir0 3.052457 1_564
Ca1 Ir0 3.052457 1_565
Ca1 Li0 3.052461 1_454
