# generated using pymatgen
data_Ti2MnIr
_symmetry_space_group_name_H-M   'P 1'
_cell_length_a   4.29111088
_cell_length_b   4.29111082
_cell_length_c   4.29110957
_cell_angle_alpha   59.99990673
_cell_angle_beta   59.99990472
_cell_angle_gamma   59.99987544
_symmetry_Int_Tables_number   1
_chemical_formula_structural   Ti2MnIr
_chemical_formula_sum   'Ti2 Mn1 Ir1'
_cell_volume   55.87184927
_cell_formula_units_Z   1
loop_
 _symmetry_equiv_pos_site_id
 _symmetry_equiv_pos_as_xyz
  1  'x, y, z'
loop_
 _atom_site_type_symbol
 _atom_site_label
 _atom_site_symmetry_multiplicity
 _atom_site_fract_x
 _atom_site_fract_y
 _atom_site_fract_z
 _atom_site_occupancy
  Ti  Ti0  1  -0.00000015  -0.00000030  -0.00000030  1
  Ti  Ti1  1  0.49999952  0.49999938  0.49999938  1
  Mn  Mn0  1  0.75000050  0.75000101  0.75000101  1
  Ir  Ir0  1  0.25000013  0.24999991  0.24999991  1
loop_
_geom_bond_atom_site_label_1
_geom_bond_atom_site_label_2
_geom_bond_distance
_geom_bond_site_symmetry_2
Mn0 Ti0 2.627748 1_666
Mn0 Ti1 2.627749 1_565
Mn0 Ti1 2.627749 1_556
Mn0 Ti1 2.627751 1_655
Mn0 Ti0 2.627757 1_566
Mn0 Ti0 2.627759 1_656
Mn0 Ti0 2.627759 1_665
Mn0 Ti1 2.627775 1_555
Ir0 Ti0 2.627753 1_655
Ir0 Ti0 2.627754 1_565
Ir0 Ti0 2.627754 1_556
Ir0 Ti1 2.627754 1_555
Ir0 Ti1 2.627756 1_545
Ir0 Ti1 2.627756 1_554
Ir0 Ti1 2.627756 1_455
Ir0 Ti0 2.627762 1_555
