# generated using pymatgen
data_MnSeO4
_symmetry_space_group_name_H-M   'P 1'
_cell_length_a   4.92070100
_cell_length_b   5.81733600
_cell_length_c   12.77676900
_cell_angle_alpha   90.00000000
_cell_angle_beta   90.00000000
_cell_angle_gamma   90.00000000
_symmetry_Int_Tables_number   1
_chemical_formula_structural   MnSeO4
_chemical_formula_sum   'Mn4 Se4 O16'
_cell_volume   365.73975373
_cell_formula_units_Z   4
loop_
 _symmetry_equiv_pos_site_id
 _symmetry_equiv_pos_as_xyz
  1  'x, y, z'
loop_
 _atom_site_type_symbol
 _atom_site_label
 _atom_site_symmetry_multiplicity
 _atom_site_fract_x
 _atom_site_fract_y
 _atom_site_fract_z
 _atom_site_occupancy
  Mn  Mn0  1  0.60700600  0.75000000  0.77181600  1
  Mn  Mn1  1  0.89299400  0.75000000  0.27181600  1
  Mn  Mn2  1  0.39299400  0.25000000  0.22818400  1
  Mn  Mn3  1  0.10700600  0.25000000  0.72818400  1
  Se  Se0  1  0.94468000  0.25000000  0.39726300  1
  Se  Se1  1  0.55532000  0.25000000  0.89726300  1
  Se  Se2  1  0.05532000  0.75000000  0.60273700  1
  Se  Se3  1  0.44468000  0.75000000  0.10273700  1
  O  O0  1  0.61450200  0.25000000  0.35966000  1
  O  O1  1  0.88549800  0.25000000  0.85966000  1
  O  O2  1  0.38549800  0.75000000  0.64034000  1
  O  O3  1  0.11450200  0.75000000  0.14034000  1
  O  O4  1  0.60448400  0.53348100  0.17685700  1
  O  O5  1  0.89551600  0.96651900  0.67685700  1
  O  O6  1  0.39551600  0.03348100  0.82314300  1
  O  O7  1  0.10448400  0.46651900  0.32314300  1
  O  O8  1  0.39551600  0.46651900  0.82314300  1
  O  O9  1  0.10448400  0.03348100  0.32314300  1
  O  O10  1  0.60448400  0.96651900  0.17685700  1
  O  O11  1  0.89551600  0.53348100  0.67685700  1
  O  O12  1  0.82326200  0.75000000  0.88000300  1
  O  O13  1  0.67673800  0.75000000  0.38000300  1
  O  O14  1  0.17673800  0.25000000  0.11999700  1
  O  O15  1  0.32326200  0.25000000  0.61999700  1
loop_
_geom_bond_atom_site_label_1
_geom_bond_atom_site_label_2
_geom_bond_distance
_geom_bond_site_symmetry_2
Mn0 O12 1.744441 1_555
Mn0 O2 2.002474 1_555
Mn0 O8 2.057334 1_555
Mn0 O6 2.057334 1_565
Mn0 O11 2.252552 1_555
Mn0 O5 2.252552 1_555
Mn1 O13 1.744441 1_555
Mn1 O3 2.002474 1_655
Mn1 O7 2.057334 1_655
Mn1 O9 2.057334 1_665
Mn1 O4 2.252552 1_555
Mn1 O10 2.252552 1_555
Mn2 O14 1.744441 1_555
Mn2 O0 2.002474 1_555
Mn2 O10 2.057334 1_545
Mn2 O4 2.057334 1_555
Mn2 O9 2.252552 1_555
Mn2 O7 2.252552 1_555
Mn3 O15 1.744441 1_555
Mn3 O1 2.002474 1_455
Mn3 O5 2.057334 1_445
Mn3 O11 2.057334 1_455
Mn3 O6 2.252552 1_555
Mn3 O8 2.252552 1_555
O0 Se0 1.694255 1_555
O1 Se1 1.694255 1_555
O2 Se2 1.694255 1_555
O3 Se3 1.694255 1_555
O4 Se3 1.761159 1_555
O5 Se2 1.761159 1_655
O6 Se1 1.761159 1_555
O7 Se0 1.761159 1_455
O8 Se1 1.761159 1_555
O9 Se0 1.761159 1_455
O10 Se3 1.761159 1_555
O11 Se2 1.761159 1_655
