# generated using pymatgen
data_AlVRu2
_symmetry_space_group_name_H-M   'P 1'
_cell_length_a   4.22020012
_cell_length_b   4.22020010
_cell_length_c   4.22020019
_cell_angle_alpha   60.00004833
_cell_angle_beta   60.00004789
_cell_angle_gamma   60.00005033
_symmetry_Int_Tables_number   1
_chemical_formula_structural   AlVRu2
_chemical_formula_sum   'Al1 V1 Ru2'
_cell_volume   53.14771828
_cell_formula_units_Z   1
loop_
 _symmetry_equiv_pos_site_id
 _symmetry_equiv_pos_as_xyz
  1  'x, y, z'
loop_
 _atom_site_type_symbol
 _atom_site_label
 _atom_site_symmetry_multiplicity
 _atom_site_fract_x
 _atom_site_fract_y
 _atom_site_fract_z
 _atom_site_occupancy
  Al  Al0  1  0.24999923  0.24999922  0.24999922  1
  V  V0  1  0.75000006  0.74999997  0.74999998  1
  Ru  Ru0  1  0.00000011  0.00000016  0.00000015  1
  Ru  Ru1  1  0.50000060  0.50000065  0.50000065  1
loop_
_geom_bond_atom_site_label_1
_geom_bond_atom_site_label_2
_geom_bond_distance
_geom_bond_site_symmetry_2
Al0 Ru0 2.584324 1_555
Al0 Ru1 2.584331 1_554
Al0 Ru1 2.584331 1_545
Al0 Ru1 2.584331 1_455
Al0 Ru0 2.584339 1_655
Al0 Ru0 2.584339 1_556
Al0 Ru0 2.584339 1_565
Al0 Ru1 2.584348 1_555
Ru0 V0 2.584335 1_444
Ru0 V0 2.584335 1_454
Ru0 V0 2.584335 1_445
Ru0 V0 2.584336 1_544
Ru1 V0 2.584327 1_555
Ru1 V0 2.584338 1_455
Ru1 V0 2.584338 1_554
Ru1 V0 2.584338 1_545
