# generated using pymatgen
data_BaTbMn2O5
_symmetry_space_group_name_H-M   'P 1'
_cell_length_a   3.98540500
_cell_length_b   3.98540500
_cell_length_c   7.82875400
_cell_angle_alpha   90.00000000
_cell_angle_beta   90.00000000
_cell_angle_gamma   90.00000000
_symmetry_Int_Tables_number   1
_chemical_formula_structural   BaTbMn2O5
_chemical_formula_sum   'Ba1 Tb1 Mn2 O5'
_cell_volume   124.34764632
_cell_formula_units_Z   1
loop_
 _symmetry_equiv_pos_site_id
 _symmetry_equiv_pos_as_xyz
  1  'x, y, z'
loop_
 _atom_site_type_symbol
 _atom_site_label
 _atom_site_symmetry_multiplicity
 _atom_site_fract_x
 _atom_site_fract_y
 _atom_site_fract_z
 _atom_site_occupancy
  Ba  Ba0  1  0.50000000  0.50000000  0.00000000  1
  Tb  Tb0  1  0.50000000  0.50000000  0.50000000  1
  Mn  Mn0  1  0.00000000  0.00000000  0.26584700  1
  Mn  Mn1  1  0.00000000  0.00000000  0.73415300  1
  O  O0  1  0.00000000  0.50000000  0.68054500  1
  O  O1  1  0.50000000  0.00000000  0.68054500  1
  O  O2  1  0.00000000  0.50000000  0.31945500  1
  O  O3  1  0.50000000  0.00000000  0.31945500  1
  O  O4  1  0.00000000  0.00000000  0.00000000  1
loop_
_geom_bond_atom_site_label_1
_geom_bond_atom_site_label_2
_geom_bond_distance
_geom_bond_site_symmetry_2
Ba0 O4 2.818107 1_665
Ba0 O4 2.818107 1_555
Ba0 O4 2.818107 1_655
Ba0 O4 2.818107 1_565
Ba0 O0 3.197739 1_654
Ba0 O2 3.197739 1_655
Ba0 O3 3.197739 1_555
Ba0 O1 3.197739 1_564
Ba0 O0 3.197739 1_554
Ba0 O2 3.197739 1_555
Ba0 O3 3.197739 1_565
Ba0 O1 3.197739 1_554
Mn0 O2 2.036418 1_555
Mn0 O2 2.036418 1_545
Mn0 O3 2.036418 1_455
Mn0 O3 2.036418 1_555
Mn0 O4 2.081251 1_555
Mn1 O1 2.036418 1_455
Mn1 O1 2.036418 1_555
Mn1 O0 2.036418 1_545
Mn1 O0 2.036418 1_555
Mn1 O4 2.081251 1_556
O0 Tb0 2.443089 1_555
O0 Tb0 2.443089 1_455
O1 Tb0 2.443089 1_555
O1 Tb0 2.443089 1_545
O2 Tb0 2.443089 1_455
O2 Tb0 2.443089 1_555
O3 Tb0 2.443089 1_545
O3 Tb0 2.443089 1_555
