# generated using pymatgen
data_V2CrTc
_symmetry_space_group_name_H-M   'P 1'
_cell_length_a   4.18285608
_cell_length_b   4.18285608
_cell_length_c   4.18285608
_cell_angle_alpha   60.00000000
_cell_angle_beta   60.00000000
_cell_angle_gamma   60.00000000
_symmetry_Int_Tables_number   1
_chemical_formula_structural   V2CrTc
_chemical_formula_sum   'V2 Cr1 Tc1'
_cell_volume   51.74921530
_cell_formula_units_Z   1
loop_
 _symmetry_equiv_pos_site_id
 _symmetry_equiv_pos_as_xyz
  1  'x, y, z'
loop_
 _atom_site_type_symbol
 _atom_site_label
 _atom_site_symmetry_multiplicity
 _atom_site_fract_x
 _atom_site_fract_y
 _atom_site_fract_z
 _atom_site_occupancy
  V  V0  1  0.50000100  0.50000100  0.50000100  1
  V  V1  1  0.00000000  0.00000000  0.00000000  1
  Cr  Cr0  1  0.25000000  0.25000000  0.25000000  1
  Tc  Tc0  1  0.74999900  0.74999900  0.74999900  1
loop_
_geom_bond_atom_site_label_1
_geom_bond_atom_site_label_2
_geom_bond_distance
_geom_bond_site_symmetry_2
Cr0 V0 2.561462 1_455
Cr0 V0 2.561462 1_545
Cr0 V0 2.561462 1_554
Cr0 V1 2.561466 1_555
Cr0 V1 2.561466 1_556
Cr0 V1 2.561466 1_565
Cr0 V1 2.561466 1_655
Cr0 V0 2.561476 1_555
Tc0 V0 2.561445 1_555
Tc0 V1 2.561462 1_665
Tc0 V1 2.561462 1_656
Tc0 V1 2.561462 1_566
Tc0 V0 2.561473 1_556
Tc0 V0 2.561473 1_655
Tc0 V0 2.561473 1_565
Tc0 V1 2.561476 1_666
