# generated using pymatgen
data_BaNaScSi2O7
_symmetry_space_group_name_H-M   'P 1'
_cell_length_a   5.69153700
_cell_length_b   6.91413700
_cell_length_c   8.92983934
_cell_angle_alpha   70.55710866
_cell_angle_beta   90.00000000
_cell_angle_gamma   90.00000000
_symmetry_Int_Tables_number   1
_chemical_formula_structural   BaNaScSi2O7
_chemical_formula_sum   'Ba2 Na2 Sc2 Si4 O14'
_cell_volume   331.36816907
_cell_formula_units_Z   2
loop_
 _symmetry_equiv_pos_site_id
 _symmetry_equiv_pos_as_xyz
  1  'x, y, z'
loop_
 _atom_site_type_symbol
 _atom_site_label
 _atom_site_symmetry_multiplicity
 _atom_site_fract_x
 _atom_site_fract_y
 _atom_site_fract_z
 _atom_site_occupancy
  Ba  Ba0  1  0.25000000  0.79431700  0.53377300  1
  Ba  Ba1  1  0.75000000  0.20568300  0.46622700  1
  Na  Na0  1  0.75000000  0.23060000  0.99838800  1
  Na  Na1  1  0.25000000  0.76940000  0.00161200  1
  Sc  Sc0  1  0.75000000  0.79844800  0.26524500  1
  Sc  Sc1  1  0.25000000  0.20155200  0.73475500  1
  Si  Si0  1  0.75000000  0.86017900  0.84326100  1
  Si  Si1  1  0.25000000  0.13982100  0.15673900  1
  Si  Si2  1  0.75000000  0.55274200  0.68066800  1
  Si  Si3  1  0.25000000  0.44725800  0.31933200  1
  O  O0  1  0.75000000  0.61500700  0.84745000  1
  O  O1  1  0.25000000  0.38499300  0.15255000  1
  O  O2  1  0.99110300  0.96572800  0.74889600  1
  O  O3  1  0.49110300  0.03427200  0.25110400  1
  O  O4  1  0.00889700  0.03427200  0.25110400  1
  O  O5  1  0.50889700  0.96572800  0.74889600  1
  O  O6  1  0.75000000  0.86349600  0.02425800  1
  O  O7  1  0.25000000  0.13650400  0.97574200  1
  O  O8  1  0.75000000  0.76177100  0.52373100  1
  O  O9  1  0.25000000  0.23822900  0.47626900  1
  O  O10  1  0.51328600  0.41887700  0.68676000  1
  O  O11  1  0.01328600  0.58112300  0.31324000  1
  O  O12  1  0.48671400  0.58112300  0.31324000  1
  O  O13  1  0.98671400  0.41887700  0.68676000  1
loop_
_geom_bond_atom_site_label_1
_geom_bond_atom_site_label_2
_geom_bond_distance
_geom_bond_site_symmetry_2
Ba0 O8 2.858411 1_555
Ba0 O8 2.858411 1_455
Ba0 O3 2.866907 1_565
Ba0 O4 2.866907 1_565
Ba0 O13 2.913653 1_455
Ba0 O10 2.913653 1_555
Ba0 O9 2.938511 1_565
Ba0 O2 2.963418 1_455
Ba0 O5 2.963418 1_555
Ba0 O11 3.130295 1_555
Ba0 O12 3.130295 1_555
Ba1 O9 2.858411 1_655
Ba1 O9 2.858411 1_555
Ba1 O5 2.866907 1_545
Ba1 O2 2.866907 1_545
Ba1 O11 2.913653 1_655
Ba1 O12 2.913653 1_555
Ba1 O8 2.938511 1_545
Ba1 O4 2.963418 1_655
Ba1 O3 2.963418 1_555
Ba1 O10 3.130295 1_555
Ba1 O13 3.130295 1_555
Na0 O6 2.470931 1_546
Na0 O0 2.548710 1_555
Na0 O4 2.658436 1_656
Na0 O3 2.658436 1_556
Na1 O7 2.470931 1_564
Na1 O1 2.548710 1_555
Na1 O5 2.658436 1_554
Na1 O2 2.658436 1_454
O0 Si2 1.682353 1_555
O0 Si0 1.683071 1_555
O1 Si3 1.682353 1_555
O1 Si1 1.683071 1_555
O2 Si0 1.648127 1_555
O2 Sc1 2.169962 1_665
O3 Si1 1.648127 1_555
O3 Sc0 2.169962 1_545
O4 Si1 1.648127 1_555
O4 Sc0 2.169962 1_445
O5 Si0 1.648127 1_555
O5 Sc1 2.169962 1_565
O6 Si0 1.624052 1_554
O6 Sc0 2.046690 1_555
O7 Si1 1.624052 1_556
O7 Sc1 2.046690 1_555
O8 Si2 1.644494 1_555
O8 Sc0 2.236647 1_555
O9 Si3 1.644494 1_555
O9 Sc1 2.236647 1_555
O10 Si2 1.625186 1_555
O10 Sc1 2.063568 1_555
O11 Si3 1.625186 1_555
O11 Sc0 2.063568 1_455
O12 Si3 1.625186 1_555
O12 Sc0 2.063568 1_555
O13 Si2 1.625186 1_555
O13 Sc1 2.063568 1_655
