# generated using pymatgen
data_Na3Zn4As3H12O19
_symmetry_space_group_name_H-M   'P 1'
_cell_length_a   10.99717487
_cell_length_b   10.99717487
_cell_length_c   10.99717513
_cell_angle_alpha   60.66908433
_cell_angle_beta   60.66908433
_cell_angle_gamma   60.66908748
_symmetry_Int_Tables_number   1
_chemical_formula_structural   Na3Zn4As3H12O19
_chemical_formula_sum   'Na6 Zn8 As6 H24 O38'
_cell_volume   954.63893539
_cell_formula_units_Z   2
loop_
 _symmetry_equiv_pos_site_id
 _symmetry_equiv_pos_as_xyz
  1  'x, y, z'
loop_
 _atom_site_type_symbol
 _atom_site_label
 _atom_site_symmetry_multiplicity
 _atom_site_fract_x
 _atom_site_fract_y
 _atom_site_fract_z
 _atom_site_occupancy
  Na  Na0  1  0.66367700  0.94755700  0.06115800  1
  Na  Na1  1  0.56115800  0.44755700  0.16367700  1
  Na  Na2  1  0.94755700  0.06115800  0.66367700  1
  Na  Na3  1  0.44755700  0.16367700  0.56115800  1
  Na  Na4  1  0.16367700  0.56115800  0.44755700  1
  Na  Na5  1  0.06115800  0.66367700  0.94755700  1
  Zn  Zn0  1  0.98986800  0.29245700  0.00549300  1
  Zn  Zn1  1  0.79245700  0.48986800  0.50549300  1
  Zn  Zn2  1  0.50549300  0.79245700  0.48986800  1
  Zn  Zn3  1  0.99913300  0.99913300  0.99913300  1
  Zn  Zn4  1  0.49913300  0.49913300  0.49913300  1
  Zn  Zn5  1  0.00549300  0.98986800  0.29245700  1
  Zn  Zn6  1  0.48986800  0.50549300  0.79245700  1
  Zn  Zn7  1  0.29245700  0.00549300  0.98986800  1
  As  As0  1  0.83765000  0.80426200  0.30840200  1
  As  As1  1  0.80840200  0.30426200  0.33765000  1
  As  As2  1  0.33765000  0.80840200  0.30426200  1
  As  As3  1  0.80426200  0.30840200  0.83765000  1
  As  As4  1  0.30840200  0.83765000  0.80426200  1
  As  As5  1  0.30426200  0.33765000  0.80840200  1
  H  H0  1  0.74974600  0.68460600  0.00974400  1
  H  H1  1  0.80027700  0.61878400  0.14616000  1
  H  H2  1  0.45199200  0.23409300  0.03127700  1
  H  H3  1  0.64616000  0.11878400  0.30027700  1
  H  H4  1  0.95199200  0.53127700  0.73409300  1
  H  H5  1  0.50974400  0.18460600  0.24974600  1
  H  H6  1  0.30027700  0.64616000  0.11878400  1
  H  H7  1  0.88382300  0.67560700  0.62131100  1
  H  H8  1  0.38382300  0.12131100  0.17560700  1
  H  H9  1  0.73409300  0.95199200  0.53127700  1
  H  H10  1  0.24974600  0.50974400  0.18460600  1
  H  H11  1  0.17560700  0.38382300  0.12131100  1
  H  H12  1  0.62131100  0.88382300  0.67560700  1
  H  H13  1  0.68460600  0.00974400  0.74974600  1
  H  H14  1  0.03127700  0.45199200  0.23409300  1
  H  H15  1  0.67560700  0.62131100  0.88382300  1
  H  H16  1  0.12131100  0.17560700  0.38382300  1
  H  H17  1  0.61878400  0.14616000  0.80027700  1
  H  H18  1  0.23409300  0.03127700  0.45199200  1
  H  H19  1  0.18460600  0.24974600  0.50974400  1
  H  H20  1  0.53127700  0.73409300  0.95199200  1
  H  H21  1  0.14616000  0.80027700  0.61878400  1
  H  H22  1  0.11878400  0.30027700  0.64616000  1
  H  H23  1  0.00974400  0.74974600  0.68460600  1
  O  O0  1  0.96201600  0.80891300  0.13416900  1
  O  O1  1  0.80611700  0.69645000  0.04928700  1
  O  O2  1  0.80695900  0.34606700  0.16539400  1
  O  O3  1  0.93948100  0.13531800  0.38813500  1
  O  O4  1  0.85574000  0.43999100  0.32687100  1
  O  O5  1  0.82687100  0.93999100  0.35574000  1
  O  O6  1  0.88813500  0.63531800  0.43948100  1
  O  O7  1  0.66539400  0.84606700  0.30695900  1
  O  O8  1  0.45809000  0.16886700  0.13193300  1
  O  O9  1  0.95809000  0.63193300  0.66886700  1
  O  O10  1  0.38813500  0.93948100  0.13531800  1
  O  O11  1  0.54928700  0.19645000  0.30611700  1
  O  O12  1  0.84606700  0.30695900  0.66539400  1
  O  O13  1  0.63416900  0.30891300  0.46201600  1
  O  O14  1  0.46201600  0.63416900  0.30891300  1
  O  O15  1  0.93999100  0.35574000  0.82687100  1
  O  O16  1  0.30611700  0.54928700  0.19645000  1
  O  O17  1  0.66886700  0.95809000  0.63193300  1
  O  O18  1  0.07298300  0.07298300  0.07298300  1
  O  O19  1  0.57298300  0.57298300  0.57298300  1
  O  O20  1  0.13193300  0.45809000  0.16886700  1
  O  O21  1  0.69645000  0.04928700  0.80611700  1
  O  O22  1  0.32687100  0.85574000  0.43999100  1
  O  O23  1  0.80891300  0.13416900  0.96201600  1
  O  O24  1  0.16539400  0.80695900  0.34606700  1
  O  O25  1  0.43948100  0.88813500  0.63531800  1
  O  O26  1  0.63531800  0.43948100  0.88813500  1
  O  O27  1  0.16886700  0.13193300  0.45809000  1
  O  O28  1  0.63193300  0.66886700  0.95809000  1
  O  O29  1  0.30891300  0.46201600  0.63416900  1
  O  O30  1  0.19645000  0.30611700  0.54928700  1
  O  O31  1  0.43999100  0.32687100  0.85574000  1
  O  O32  1  0.34606700  0.16539400  0.80695900  1
  O  O33  1  0.30695900  0.66539400  0.84606700  1
  O  O34  1  0.35574000  0.82687100  0.93999100  1
  O  O35  1  0.04928700  0.80611700  0.69645000  1
  O  O36  1  0.13416900  0.96201600  0.80891300  1
  O  O37  1  0.13531800  0.38813500  0.93948100  1
loop_
_geom_bond_atom_site_label_1
_geom_bond_atom_site_label_2
_geom_bond_distance
_geom_bond_site_symmetry_2
Na0 O21 2.361903 1_564
Na0 O7 2.372027 1_555
Na0 O1 2.451823 1_555
Na0 O8 2.526201 1_565
Na0 O23 2.695251 1_564
Na0 O10 2.761631 1_555
Na1 O16 2.361903 1_555
Na1 O2 2.372027 1_555
Na1 O11 2.451823 1_555
Na1 O28 2.526201 1_554
Na1 O14 2.695251 1_555
Na1 O26 2.761631 1_554
Na2 O35 2.361903 1_645
Na2 O12 2.372027 1_555
Na2 O21 2.451823 1_555
Na2 O27 2.526201 1_655
Na2 O36 2.695251 1_645
Na2 O3 2.761631 1_555
Na3 O11 2.361903 1_555
Na3 O32 2.372027 1_555
Na3 O30 2.451823 1_555
Na3 O17 2.526201 1_545
Na3 O13 2.695251 1_555
Na3 O25 2.761631 1_545
Na4 O30 2.361903 1_555
Na4 O24 2.372026 1_555
Na4 O16 2.451823 1_555
Na4 O9 2.526201 1_455
Na4 O29 2.695251 1_555
Na4 O6 2.761631 1_455
Na5 O1 2.361903 1_456
Na5 O33 2.372026 1_555
Na5 O35 2.451823 1_555
Na5 O20 2.526201 1_556
Na5 O0 2.695251 1_456
Na5 O37 2.761631 1_555
As0 O0 1.717445 1_555
As0 O7 1.723130 1_555
As0 O6 1.728485 1_555
As0 O5 1.743701 1_555
As1 O13 1.717445 1_555
As1 O2 1.723130 1_555
As1 O3 1.728485 1_555
As1 O4 1.743701 1_555
As2 O14 1.717445 1_555
As2 O24 1.723130 1_555
As2 O10 1.728485 1_555
As2 O22 1.743701 1_555
As3 O23 1.717445 1_555
As3 O12 1.723130 1_555
As3 O26 1.728485 1_555
As3 O15 1.743701 1_555
As4 O36 1.717445 1_555
As4 O33 1.723130 1_555
As4 O25 1.728485 1_555
As4 O34 1.743701 1_555
As5 O29 1.717445 1_555
As5 O32 1.723130 1_555
As5 O37 1.728485 1_555
As5 O31 1.743701 1_555
H0 O1 0.994525 1_555
H1 O1 0.981743 1_555
H2 O8 0.996004 1_555
H2 O31 1.724229 1_554
H3 O11 0.981743 1_555
H4 O9 0.996004 1_555
H4 O15 1.724229 1_555
H5 O11 0.994525 1_555
H6 O16 0.981743 1_555
H7 O9 0.979442 1_555
H8 O8 0.979442 1_555
H9 O17 0.996004 1_555
H9 O5 1.724229 1_555
H10 O16 0.994525 1_555
H11 O20 0.979442 1_555
H12 O17 0.979442 1_555
H13 O21 0.994525 1_555
H14 O20 0.996004 1_555
H14 O4 1.724229 1_455
H15 O28 0.979442 1_555
H16 O27 0.979442 1_555
H17 O21 0.981743 1_555
H18 O27 0.996004 1_555
H18 O22 1.724229 1_545
H19 O30 0.994525 1_555
H20 O28 0.996004 1_555
H20 O34 1.724229 1_555
H21 O35 0.981743 1_555
H22 O30 0.981743 1_555
H23 O35 0.994525 1_555
O0 Zn3 1.986733 1_554
O2 Zn0 1.968336 1_555
O3 Zn5 1.988854 1_645
O4 Zn1 1.996523 1_555
O5 Zn5 1.996523 1_655
O6 Zn1 1.988853 1_555
O7 Zn2 1.968336 1_555
O10 Zn7 1.988854 1_564
O12 Zn1 1.968336 1_555
O13 Zn4 1.986733 1_555
O14 Zn4 1.986733 1_555
O15 Zn0 1.996523 1_556
O18 Zn3 1.979213 1_444
O18 Zn5 1.989983 1_545
O18 Zn7 1.989983 1_554
O18 Zn0 1.989983 1_455
O19 Zn4 1.979213 1_555
O19 Zn6 1.989983 1_555
O19 Zn2 1.989983 1_555
O19 Zn1 1.989983 1_555
O22 Zn2 1.996523 1_555
O23 Zn3 1.986733 1_545
O24 Zn5 1.968336 1_555
O25 Zn2 1.988854 1_555
O26 Zn6 1.988854 1_555
O29 Zn4 1.986733 1_555
O31 Zn6 1.996523 1_555
O32 Zn7 1.968336 1_555
O33 Zn6 1.968336 1_555
O34 Zn7 1.996523 1_565
O36 Zn3 1.986733 1_455
O37 Zn0 1.988853 1_456
