# generated using pymatgen
data_CdAg3
_symmetry_space_group_name_H-M   'P 1'
_cell_length_a   5.84410742
_cell_length_b   5.84410542
_cell_length_c   4.86802090
_cell_angle_alpha   90.00000000
_cell_angle_beta   90.00000000
_cell_angle_gamma   120.00001131
_symmetry_Int_Tables_number   1
_chemical_formula_structural   CdAg3
_chemical_formula_sum   'Cd2 Ag6'
_cell_volume   143.98566213
_cell_formula_units_Z   2
loop_
 _symmetry_equiv_pos_site_id
 _symmetry_equiv_pos_as_xyz
  1  'x, y, z'
loop_
 _atom_site_type_symbol
 _atom_site_label
 _atom_site_symmetry_multiplicity
 _atom_site_fract_x
 _atom_site_fract_y
 _atom_site_fract_z
 _atom_site_occupancy
  Cd  Cd0  1  0.33333400  0.66666800  0.75000100  1
  Cd  Cd1  1  0.66666800  0.33333400  0.25000000  1
  Ag  Ag0  1  0.16550073  0.33100246  0.25000000  1
  Ag  Ag1  1  0.66899754  0.83449827  0.25000000  1
  Ag  Ag2  1  0.16550173  0.83449827  0.25000000  1
  Ag  Ag3  1  0.83449827  0.66899754  0.75000100  1
  Ag  Ag4  1  0.33100246  0.16550073  0.75000100  1
  Ag  Ag5  1  0.83449827  0.16550073  0.75000100  1
loop_
_geom_bond_atom_site_label_1
_geom_bond_atom_site_label_2
_geom_bond_distance
_geom_bond_site_symmetry_2
Ag0 Ag1 2.901620 1_445
Ag0 Ag2 2.901626 1_545
Ag0 Cd1 2.922069 1_455
Ag0 Cd1 2.922086 1_555
Ag0 Ag2 2.942480 1_555
Ag0 Ag1 2.942486 1_555
Ag0 Ag5 2.954801 1_454
Ag0 Ag4 2.954804 1_554
Ag0 Ag5 2.954809 1_455
Ag0 Ag4 2.954812 1_555
Ag0 Cd0 2.968245 1_554
Ag0 Cd0 2.968253 1_555
Ag1 Ag2 2.901624 1_655
Ag1 Cd1 2.922074 1_555
Ag1 Cd1 2.922079 1_565
Ag1 Ag2 2.942484 1_555
Ag1 Ag3 2.954798 1_554
Ag1 Ag5 2.954801 1_564
Ag1 Ag3 2.954806 1_555
Ag1 Ag5 2.954809 1_565
Ag1 Cd0 2.968240 1_554
Ag1 Cd0 2.968248 1_555
Ag2 Cd1 2.922071 1_455
Ag2 Cd1 2.922082 1_565
Ag2 Ag4 2.954801 1_564
Ag2 Ag3 2.954804 1_454
Ag2 Ag4 2.954809 1_565
Ag2 Ag3 2.954812 1_455
Ag2 Cd0 2.968237 1_554
Ag2 Cd0 2.968245 1_555
Ag3 Ag5 2.901617 1_565
Ag3 Ag4 2.901620 1_665
Ag3 Cd0 2.922075 1_555
Ag3 Cd0 2.922080 1_655
Ag3 Ag4 2.942486 1_555
Ag3 Ag5 2.942488 1_555
Ag3 Cd1 2.968239 1_556
Ag3 Cd1 2.968247 1_555
Ag4 Ag5 2.901624 1_455
Ag4 Cd0 2.922068 1_545
Ag4 Cd0 2.922085 1_555
Ag4 Ag5 2.942484 1_555
Ag4 Cd1 2.968245 1_556
Ag4 Cd1 2.968253 1_555
Ag5 Cd0 2.922068 1_545
Ag5 Cd0 2.922085 1_655
Ag5 Cd1 2.968240 1_556
Ag5 Cd1 2.968248 1_555
