# generated using pymatgen
data_Sc2AgOs
_symmetry_space_group_name_H-M   'P 1'
_cell_length_a   4.65686713
_cell_length_b   4.65686713
_cell_length_c   4.65686713
_cell_angle_alpha   60.00000000
_cell_angle_beta   60.00000000
_cell_angle_gamma   60.00000000
_symmetry_Int_Tables_number   1
_chemical_formula_structural   Sc2AgOs
_chemical_formula_sum   'Sc2 Ag1 Os1'
_cell_volume   71.41123499
_cell_formula_units_Z   1
loop_
 _symmetry_equiv_pos_site_id
 _symmetry_equiv_pos_as_xyz
  1  'x, y, z'
loop_
 _atom_site_type_symbol
 _atom_site_label
 _atom_site_symmetry_multiplicity
 _atom_site_fract_x
 _atom_site_fract_y
 _atom_site_fract_z
 _atom_site_occupancy
  Sc  Sc0  1  0.00000000  0.00000000  0.00000000  1
  Sc  Sc1  1  0.50000000  0.50000000  0.50000000  1
  Ag  Ag0  1  0.24999900  0.24999900  0.24999900  1
  Os  Os0  1  0.75000000  0.75000000  0.75000000  1
loop_
_geom_bond_atom_site_label_1
_geom_bond_atom_site_label_2
_geom_bond_distance
_geom_bond_site_symmetry_2
Ag0 Sc0 2.851726 1_555
Ag0 Sc1 2.851733 1_554
Ag0 Sc1 2.851733 1_455
Ag0 Sc1 2.851733 1_545
Ag0 Sc0 2.851741 1_556
Ag0 Sc0 2.851741 1_565
Ag0 Sc0 2.851741 1_655
Ag0 Sc1 2.851748 1_555
Os0 Sc1 2.851737 1_655
Os0 Sc0 2.851737 1_566
Os0 Sc0 2.851737 1_656
Os0 Sc0 2.851737 1_665
Os0 Sc1 2.851737 1_555
Os0 Sc1 2.851737 1_556
Os0 Sc0 2.851737 1_666
Os0 Sc1 2.851737 1_565
