# generated using pymatgen
data_V2Sn(PO4)3
_symmetry_space_group_name_H-M   'P 1'
_cell_length_a   8.99633124
_cell_length_b   8.99633124
_cell_length_c   8.99633140
_cell_angle_alpha   57.37077904
_cell_angle_beta   57.37077904
_cell_angle_gamma   57.37077503
_symmetry_Int_Tables_number   1
_chemical_formula_structural   V2Sn(PO4)3
_chemical_formula_sum   'V4 Sn2 P6 O24'
_cell_volume   483.69664392
_cell_formula_units_Z   2
loop_
 _symmetry_equiv_pos_site_id
 _symmetry_equiv_pos_as_xyz
  1  'x, y, z'
loop_
 _atom_site_type_symbol
 _atom_site_label
 _atom_site_symmetry_multiplicity
 _atom_site_fract_x
 _atom_site_fract_y
 _atom_site_fract_z
 _atom_site_occupancy
  V  V0  1  0.85233200  0.85233200  0.85233200  1
  V  V1  1  0.64766800  0.64766800  0.64766800  1
  V  V2  1  0.35233200  0.35233200  0.35233200  1
  V  V3  1  0.14766800  0.14766800  0.14766800  1
  Sn  Sn0  1  0.00000000  0.00000000  0.00000000  1
  Sn  Sn1  1  0.50000000  0.50000000  0.50000000  1
  P  P0  1  0.53641300  0.96358700  0.25000000  1
  P  P1  1  0.25000000  0.53641300  0.96358700  1
  P  P2  1  0.96358700  0.25000000  0.53641300  1
  P  P3  1  0.03641300  0.75000000  0.46358700  1
  P  P4  1  0.75000000  0.46358700  0.03641300  1
  P  P5  1  0.46358700  0.03641300  0.75000000  1
  O  O0  1  0.49229900  0.87236700  0.71360600  1
  O  O1  1  0.87236700  0.71360600  0.49229900  1
  O  O2  1  0.72116300  0.93797400  0.07672900  1
  O  O3  1  0.71360600  0.49229900  0.87236700  1
  O  O4  1  0.37236700  0.99229900  0.21360600  1
  O  O5  1  0.56202600  0.77883700  0.42327100  1
  O  O6  1  0.07672900  0.72116300  0.93797400  1
  O  O7  1  0.42327100  0.56202600  0.77883700  1
  O  O8  1  0.00770100  0.78639400  0.62763300  1
  O  O9  1  0.77883700  0.42327100  0.56202600  1
  O  O10  1  0.06202600  0.92327100  0.27883700  1
  O  O11  1  0.78639400  0.62763300  0.00770100  1
  O  O12  1  0.21360600  0.37236700  0.99229900  1
  O  O13  1  0.93797400  0.07672900  0.72116300  1
  O  O14  1  0.22116300  0.57672900  0.43797400  1
  O  O15  1  0.99229900  0.21360600  0.37236700  1
  O  O16  1  0.57672900  0.43797400  0.22116300  1
  O  O17  1  0.92327100  0.27883700  0.06202600  1
  O  O18  1  0.43797400  0.22116300  0.57672900  1
  O  O19  1  0.62763300  0.00770100  0.78639400  1
  O  O20  1  0.28639400  0.50770100  0.12763300  1
  O  O21  1  0.27883700  0.06202600  0.92327100  1
  O  O22  1  0.12763300  0.28639400  0.50770100  1
  O  O23  1  0.50770100  0.12763300  0.28639400  1
loop_
_geom_bond_atom_site_label_1
_geom_bond_atom_site_label_2
_geom_bond_distance
_geom_bond_site_symmetry_2
O0 P5 1.539717 1_565
O0 V1 1.934913 1_555
O1 P3 1.539717 1_655
O1 V1 1.934913 1_555
O2 P0 1.557504 1_555
O2 V0 2.046789 1_554
O2 Sn0 2.511430 1_665
O3 P4 1.539717 1_556
O3 V1 1.934913 1_555
O4 P0 1.539717 1_555
O4 V3 1.934913 1_565
O5 P0 1.557504 1_555
O5 V1 2.046789 1_555
O5 Sn1 2.511430 1_555
O6 P1 1.557504 1_555
O6 V0 2.046789 1_455
O6 Sn0 2.511430 1_566
O7 P1 1.557504 1_555
O7 V1 2.046789 1_555
O7 Sn1 2.511430 1_555
O8 P3 1.539717 1_555
O8 V0 1.934913 1_455
O9 P2 1.557504 1_555
O9 V1 2.046789 1_555
O9 Sn1 2.511430 1_555
O10 P3 1.557504 1_555
O10 V3 2.046789 1_565
O10 Sn0 2.511430 1_565
O11 P4 1.539717 1_555
O11 V0 1.934913 1_554
O12 P1 1.539717 1_555
O12 V3 1.934913 1_556
O13 P2 1.557504 1_555
O13 V0 2.046789 1_545
O13 Sn0 2.511430 1_656
O14 P3 1.557504 1_555
O14 V2 2.046789 1_555
O14 Sn1 2.511430 1_555
O15 P2 1.539717 1_555
O15 V3 1.934913 1_655
O16 P4 1.557504 1_555
O16 V2 2.046789 1_555
O16 Sn1 2.511430 1_555
O17 P4 1.557504 1_555
O17 V3 2.046789 1_655
O17 Sn0 2.511430 1_655
O18 P5 1.557504 1_555
O18 V2 2.046789 1_555
O18 Sn1 2.511430 1_555
O19 P5 1.539717 1_555
O19 V0 1.934913 1_545
O20 P1 1.539717 1_554
O20 V2 1.934913 1_555
O21 P5 1.557504 1_555
O21 V3 2.046789 1_556
O21 Sn0 2.511430 1_556
O22 P2 1.539717 1_455
O22 V2 1.934913 1_555
O23 P0 1.539717 1_545
O23 V2 1.934913 1_555
