# generated using pymatgen
data_Pm2GePd
_symmetry_space_group_name_H-M   'P 1'
_cell_length_a   5.12336015
_cell_length_b   5.12336012
_cell_length_c   5.12336019
_cell_angle_alpha   60.00006442
_cell_angle_beta   60.00006424
_cell_angle_gamma   60.00006437
_symmetry_Int_Tables_number   1
_chemical_formula_structural   Pm2GePd
_chemical_formula_sum   'Pm2 Ge1 Pd1'
_cell_volume   95.09338223
_cell_formula_units_Z   1
loop_
 _symmetry_equiv_pos_site_id
 _symmetry_equiv_pos_as_xyz
  1  'x, y, z'
loop_
 _atom_site_type_symbol
 _atom_site_label
 _atom_site_symmetry_multiplicity
 _atom_site_fract_x
 _atom_site_fract_y
 _atom_site_fract_z
 _atom_site_occupancy
  Pm  Pm0  1  0.00000005  0.00000006  0.00000006  1
  Pm  Pm1  1  0.49999911  0.49999911  0.49999911  1
  Ge  Ge0  1  0.25000078  0.25000078  0.25000078  1
  Pd  Pd0  1  0.75000105  0.75000105  0.75000105  1
loop_
_geom_bond_atom_site_label_1
_geom_bond_atom_site_label_2
_geom_bond_distance
_geom_bond_site_symmetry_2
Ge0 Pm1 3.137382 1_555
Ge0 Pm0 3.137404 1_655
Ge0 Pm0 3.137404 1_565
Ge0 Pm0 3.137404 1_556
Ge0 Pm0 3.137412 1_555
Ge0 Pm1 3.137414 1_545
Ge0 Pm1 3.137414 1_455
Ge0 Pm1 3.137414 1_554
Pd0 Pm0 3.137391 1_666
Pd0 Pm1 3.137399 1_565
Pd0 Pm1 3.137399 1_655
Pd0 Pm1 3.137399 1_556
Pd0 Pm0 3.137411 1_656
Pd0 Pm0 3.137411 1_665
Pd0 Pm0 3.137411 1_566
Pd0 Pm1 3.137427 1_555
