# generated using pymatgen
data_Li2PrAl
_symmetry_space_group_name_H-M   'P 1'
_cell_length_a   4.87573599
_cell_length_b   4.87574108
_cell_length_c   4.87574471
_cell_angle_alpha   60.00016263
_cell_angle_beta   60.00007882
_cell_angle_gamma   60.00009360
_symmetry_Int_Tables_number   1
_chemical_formula_structural   Li2PrAl
_chemical_formula_sum   'Li2 Pr1 Al1'
_cell_volume   81.96111862
_cell_formula_units_Z   1
loop_
 _symmetry_equiv_pos_site_id
 _symmetry_equiv_pos_as_xyz
  1  'x, y, z'
loop_
 _atom_site_type_symbol
 _atom_site_label
 _atom_site_symmetry_multiplicity
 _atom_site_fract_x
 _atom_site_fract_y
 _atom_site_fract_z
 _atom_site_occupancy
  Li  Li0  1  0.00000000  -0.00000000  0.00000000  1
  Li  Li1  1  0.50000000  0.50000000  0.50000000  1
  Pr  Pr0  1  0.75000100  0.75000100  0.75000100  1
  Al  Al0  1  0.25000000  0.25000000  0.25000000  1
loop_
_geom_bond_atom_site_label_1
_geom_bond_atom_site_label_2
_geom_bond_distance
_geom_bond_site_symmetry_2
Li0 Pr0 2.985755 1_444
Li0 Pr0 2.985773 1_544
Li0 Pr0 2.985779 1_454
Li0 Pr0 2.985780 1_445
Li1 Pr0 2.985765 1_455
Li1 Pr0 2.985771 1_545
Li1 Pr0 2.985772 1_554
Li1 Pr0 2.985779 1_555
Al0 Li1 2.985767 1_555
Al0 Li0 2.985767 1_555
Al0 Li1 2.985769 1_455
Al0 Li0 2.985769 1_655
Al0 Li0 2.985775 1_565
Al0 Li1 2.985775 1_545
Al0 Li0 2.985776 1_556
Al0 Li1 2.985776 1_554
Al0 Pr0 3.447664 1_544
Al0 Pr0 3.447665 1_445
Al0 Pr0 3.447667 1_454
Al0 Pr0 3.447678 1_455
Al0 Pr0 3.447679 1_554
Al0 Pr0 3.447681 1_545
