# generated using pymatgen
data_Li4CrP2O9
_symmetry_space_group_name_H-M   'P 1'
_cell_length_a   12.62691381
_cell_length_b   7.16087740
_cell_length_c   19.42456957
_cell_angle_alpha   90.00000000
_cell_angle_beta   98.17963660
_cell_angle_gamma   90.00000000
_symmetry_Int_Tables_number   1
_chemical_formula_structural   Li4CrP2O9
_chemical_formula_sum   'Li40 Cr10 P20 O90'
_cell_volume   1738.49759063
_cell_formula_units_Z   10
loop_
 _symmetry_equiv_pos_site_id
 _symmetry_equiv_pos_as_xyz
  1  'x, y, z'
loop_
 _atom_site_type_symbol
 _atom_site_label
 _atom_site_symmetry_multiplicity
 _atom_site_fract_x
 _atom_site_fract_y
 _atom_site_fract_z
 _atom_site_occupancy
  Li  Li0  1  0.09466783  0.51809901  0.94955872  1
  Li  Li1  1  0.08367838  0.26688403  0.83203509  1
  Li  Li2  1  0.10446935  0.01207217  0.70139828  1
  Li  Li3  1  0.10954152  0.79383866  0.55963127  1
  Li  Li4  1  0.09466783  0.48190099  0.44955872  1
  Li  Li5  1  0.08367838  0.73311597  0.33203509  1
  Li  Li6  1  0.10446935  0.98792783  0.20139828  1
  Li  Li7  1  0.10954152  0.20616134  0.05963127  1
  Li  Li8  1  0.28986807  0.79637810  0.97511206  1
  Li  Li9  1  0.29907299  0.95344415  0.83718371  1
  Li  Li10  1  0.30381637  0.54254767  0.84614017  1
  Li  Li11  1  0.29622013  0.97219106  0.64039213  1
  Li  Li12  1  0.28986807  0.20362190  0.47511206  1
  Li  Li13  1  0.29907299  0.04655585  0.33718371  1
  Li  Li14  1  0.30381637  0.45745233  0.34614017  1
  Li  Li15  1  0.29622013  0.02780894  0.14039213  1
  Li  Li16  1  0.51826696  0.25508726  0.86507439  1
  Li  Li17  1  0.50000000  0.58059959  0.75000000  1
  Li  Li18  1  0.48173304  0.25508726  0.63492561  1
  Li  Li19  1  0.50000000  0.00000000  0.50000000  1
  Li  Li20  1  0.51826696  0.74491274  0.36507439  1
  Li  Li21  1  0.50000000  0.41940041  0.25000000  1
  Li  Li22  1  0.48173304  0.74491274  0.13492561  1
  Li  Li23  1  0.50000000  0.00000000  0.00000000  1
  Li  Li24  1  0.70377987  0.97219106  0.85960787  1
  Li  Li25  1  0.69618363  0.54254767  0.65385983  1
  Li  Li26  1  0.70092701  0.95344415  0.66281629  1
  Li  Li27  1  0.71013193  0.79637810  0.52488794  1
  Li  Li28  1  0.70377987  0.02780894  0.35960787  1
  Li  Li29  1  0.69618363  0.45745233  0.15385983  1
  Li  Li30  1  0.70092701  0.04655585  0.16281629  1
  Li  Li31  1  0.71013193  0.20362190  0.02488794  1
  Li  Li32  1  0.89045848  0.79383866  0.94036873  1
  Li  Li33  1  0.89553065  0.01207217  0.79860172  1
  Li  Li34  1  0.91632162  0.26688403  0.66796491  1
  Li  Li35  1  0.90533217  0.51809901  0.55044128  1
  Li  Li36  1  0.89045848  0.20616134  0.44036873  1
  Li  Li37  1  0.89553065  0.98792783  0.29860172  1
  Li  Li38  1  0.91632162  0.73311597  0.16796491  1
  Li  Li39  1  0.90533217  0.48190099  0.05044128  1
  Cr  Cr0  1  0.10093780  0.53690860  0.69915001  1
  Cr  Cr1  1  0.10093780  0.46309140  0.19915001  1
  Cr  Cr2  1  0.29826537  0.51997080  0.59824976  1
  Cr  Cr3  1  0.29826537  0.48002920  0.09824976  1
  Cr  Cr4  1  0.50000000  0.50000000  0.50000000  1
  Cr  Cr5  1  0.50000000  0.50000000  0.00000000  1
  Cr  Cr6  1  0.70173463  0.51997080  0.90175024  1
  Cr  Cr7  1  0.70173463  0.48002920  0.40175024  1
  Cr  Cr8  1  0.89906220  0.53690860  0.80084999  1
  Cr  Cr9  1  0.89906220  0.46309140  0.30084999  1
  P  P0  1  0.10012828  0.80155197  0.83380407  1
  P  P1  1  0.09845549  0.24183233  0.56839185  1
  P  P2  1  0.10012828  0.19844803  0.33380407  1
  P  P3  1  0.09845549  0.75816767  0.06839185  1
  P  P4  1  0.29158386  0.25634265  0.95335552  1
  P  P5  1  0.30608606  0.27770305  0.74089986  1
  P  P6  1  0.29158386  0.74365735  0.45335552  1
  P  P7  1  0.30608606  0.72229695  0.24089986  1
  P  P8  1  0.50415965  0.79601143  0.87351669  1
  P  P9  1  0.49584035  0.79601143  0.62648331  1
  P  P10  1  0.50415965  0.20398857  0.37351669  1
  P  P11  1  0.49584035  0.20398857  0.12648331  1
  P  P12  1  0.69391394  0.27770305  0.75910014  1
  P  P13  1  0.70841614  0.25634265  0.54664448  1
  P  P14  1  0.69391394  0.72229695  0.25910014  1
  P  P15  1  0.70841614  0.74365735  0.04664448  1
  P  P16  1  0.90154451  0.24183233  0.93160815  1
  P  P17  1  0.89987172  0.80155197  0.66619593  1
  P  P18  1  0.90154451  0.75816767  0.43160815  1
  P  P19  1  0.89987172  0.19844803  0.16619593  1
  O  O0  1  0.01675957  0.66566067  0.86086753  1
  O  O1  1  0.00000000  0.42801510  0.75000000  1
  O  O2  1  0.00030167  0.27119371  0.51342860  1
  O  O3  1  0.05940565  0.00242562  0.83038174  1
  O  O4  1  0.01675957  0.33433933  0.36086753  1
  O  O5  1  0.00000000  0.57198490  0.25000000  1
  O  O6  1  0.07138754  0.31631754  0.63987835  1
  O  O7  1  0.11799505  0.75789162  0.75693957  1
  O  O8  1  0.00030167  0.72880629  0.01342860  1
  O  O9  1  0.05940565  0.99757438  0.33038174  1
  O  O10  1  0.14244836  0.04453019  0.58440629  1
  O  O11  1  0.20604618  0.76349608  0.88137023  1
  O  O12  1  0.07138754  0.68368246  0.13987835  1
  O  O13  1  0.19276634  0.33144982  0.90654983  1
  O  O14  1  0.11799505  0.24210838  0.25693957  1
  O  O15  1  0.21546418  0.41590948  0.75891083  1
  O  O16  1  0.19260225  0.63721730  0.64043404  1
  O  O17  1  0.18804440  0.36471711  0.53983238  1
  O  O18  1  0.14244836  0.95546981  0.08440629  1
  O  O19  1  0.20604618  0.23650392  0.38137023  1
  O  O20  1  0.19276634  0.66855018  0.40654983  1
  O  O21  1  0.26515341  0.07541953  0.74311362  1
  O  O22  1  0.21546418  0.58409052  0.25891083  1
  O  O23  1  0.19260225  0.36278270  0.14043404  1
  O  O24  1  0.32644804  0.05581593  0.94026143  1
  O  O25  1  0.18804440  0.63528289  0.03983238  1
  O  O26  1  0.27327375  0.72879135  0.53115616  1
  O  O27  1  0.32843042  0.31145849  0.66498527  1
  O  O28  1  0.26515341  0.92458047  0.24311362  1
  O  O29  1  0.38457529  0.39255366  0.93676476  1
  O  O30  1  0.32644804  0.94418407  0.44026143  1
  O  O31  1  0.40373009  0.32844437  0.79330310  1
  O  O32  1  0.27327375  0.27120865  0.03115616  1
  O  O33  1  0.40293499  0.76630315  0.82115108  1
  O  O34  1  0.32843042  0.68854151  0.16498527  1
  O  O35  1  0.41022948  0.66457228  0.65386782  1
  O  O36  1  0.39894156  0.39951020  0.55182976  1
  O  O37  1  0.38457529  0.60744634  0.43676476  1
  O  O38  1  0.48191898  0.73980342  0.94854344  1
  O  O39  1  0.40373009  0.67155563  0.29330310  1
  O  O40  1  0.40293499  0.23369685  0.32115108  1
  O  O41  1  0.45090407  0.99484423  0.61873805  1
  O  O42  1  0.41022948  0.33542772  0.15386782  1
  O  O43  1  0.39894156  0.60048980  0.05182976  1
  O  O44  1  0.54909593  0.99484423  0.88126195  1
  O  O45  1  0.48191898  0.26019658  0.44854344  1
  O  O46  1  0.51808102  0.73980342  0.55145656  1
  O  O47  1  0.45090407  0.00515577  0.11873805  1
  O  O48  1  0.60105844  0.39951020  0.94817024  1
  O  O49  1  0.58977052  0.66457228  0.84613218  1
  O  O50  1  0.54909593  0.00515577  0.38126195  1
  O  O51  1  0.59706501  0.76630315  0.67884892  1
  O  O52  1  0.59626991  0.32844437  0.70669690  1
  O  O53  1  0.51808102  0.26019658  0.05145656  1
  O  O54  1  0.61542471  0.39255366  0.56323524  1
  O  O55  1  0.60105844  0.60048980  0.44817024  1
  O  O56  1  0.58977052  0.33542772  0.34613218  1
  O  O57  1  0.67156958  0.31145849  0.83501473  1
  O  O58  1  0.59706501  0.23369685  0.17884892  1
  O  O59  1  0.72672625  0.72879135  0.96884384  1
  O  O60  1  0.59626991  0.67155563  0.20669690  1
  O  O61  1  0.67355196  0.05581593  0.55973857  1
  O  O62  1  0.61542471  0.60744634  0.06323524  1
  O  O63  1  0.73484659  0.07541953  0.75688638  1
  O  O64  1  0.67156958  0.68854151  0.33501473  1
  O  O65  1  0.72672625  0.27120865  0.46884384  1
  O  O66  1  0.81195560  0.36471711  0.96016762  1
  O  O67  1  0.67355196  0.94418407  0.05973857  1
  O  O68  1  0.80739775  0.63721730  0.85956596  1
  O  O69  1  0.78453582  0.41590948  0.74108917  1
  O  O70  1  0.73484659  0.92458047  0.25688638  1
  O  O71  1  0.80723366  0.33144982  0.59345017  1
  O  O72  1  0.79395382  0.76349608  0.61862977  1
  O  O73  1  0.85755164  0.04453019  0.91559371  1
  O  O74  1  0.81195560  0.63528289  0.46016762  1
  O  O75  1  0.80739775  0.36278270  0.35956596  1
  O  O76  1  0.78453582  0.58409052  0.24108917  1
  O  O77  1  0.88200495  0.75789162  0.74306043  1
  O  O78  1  0.80723366  0.66855018  0.09345017  1
  O  O79  1  0.92861246  0.31631754  0.86012165  1
  O  O80  1  0.79395382  0.23650392  0.11862977  1
  O  O81  1  0.85755164  0.95546981  0.41559371  1
  O  O82  1  0.94059435  0.00242562  0.66961826  1
  O  O83  1  0.99969833  0.27119371  0.98657140  1
  O  O84  1  0.88200495  0.24210838  0.24306043  1
  O  O85  1  0.92861246  0.68368246  0.36012165  1
  O  O86  1  0.98324043  0.66566067  0.63913247  1
  O  O87  1  0.94059435  0.99757438  0.16961826  1
  O  O88  1  0.99969833  0.72880629  0.48657140  1
  O  O89  1  0.98324043  0.33433933  0.13913247  1
loop_
_geom_bond_atom_site_label_1
_geom_bond_atom_site_label_2
_geom_bond_distance
_geom_bond_site_symmetry_2
Li0 O13 2.076816 1_555
Li0 O0 2.137766 1_555
Li0 O25 2.140297 1_556
Li0 O83 2.307871 1_455
Li0 O8 2.378293 1_556
Li1 O13 1.907566 1_555
Li1 O3 1.917934 1_555
Li1 O1 2.123177 1_555
Li1 O79 2.135580 1_455
Li1 O15 2.568659 1_555
Li2 O82 2.074633 1_455
Li2 O7 2.110369 1_545
Li2 O21 2.123947 1_555
Li2 O10 2.399677 1_555
Li2 O6 2.491394 1_555
Li3 O10 1.889441 1_565
Li3 O88 1.895913 1_455
Li3 O16 2.086371 1_555
Li3 O26 2.263312 1_555
Li3 O86 2.543902 1_455
Li4 O20 2.076816 1_555
Li4 O4 2.137766 1_555
Li4 O17 2.140297 1_555
Li4 O88 2.307871 1_455
Li4 O2 2.378293 1_555
Li5 O20 1.907566 1_555
Li5 O9 1.917934 1_555
Li5 O5 2.123177 1_555
Li5 O85 2.135580 1_455
Li5 O22 2.568659 1_555
Li6 O87 2.074633 1_455
Li6 O14 2.110369 1_565
Li6 O28 2.123947 1_555
Li6 O18 2.399677 1_555
Li6 O12 2.491394 1_555
Li7 O18 1.889441 1_545
Li7 O83 1.895913 1_454
Li7 O23 2.086371 1_555
Li7 O32 2.263312 1_555
Li7 O89 2.543902 1_455
Li8 O11 1.985681 1_555
Li8 O24 2.052321 1_565
Li8 O25 2.241480 1_556
Li8 O43 2.345465 1_556
Li8 O38 2.582105 1_555
Li9 O33 1.931055 1_555
Li9 O21 2.015584 1_565
Li9 O11 2.062398 1_555
Li9 O24 2.113978 1_565
Li10 O15 2.097626 1_555
Li10 O33 2.131247 1_555
Li10 O11 2.176256 1_555
Li10 O29 2.186673 1_555
Li10 O31 2.316044 1_555
Li10 O13 2.469097 1_555
Li11 O41 2.062020 1_555
Li11 O10 2.149464 1_565
Li11 O21 2.214574 1_565
Li11 O27 2.498115 1_565
Li12 O19 1.985681 1_555
Li12 O30 2.052321 1_545
Li12 O17 2.241480 1_555
Li12 O36 2.345465 1_555
Li12 O45 2.582105 1_555
Li13 O40 1.931055 1_555
Li13 O28 2.015584 1_545
Li13 O19 2.062398 1_555
Li13 O30 2.113978 1_545
Li14 O22 2.097626 1_555
Li14 O40 2.131247 1_555
Li14 O19 2.176256 1_555
Li14 O37 2.186673 1_555
Li14 O39 2.316044 1_555
Li14 O20 2.469097 1_555
Li15 O47 2.062020 1_555
Li15 O18 2.149464 1_545
Li15 O28 2.214574 1_545
Li15 O34 2.498115 1_545
Li16 O44 1.920537 1_545
Li16 O31 1.933243 1_555
Li16 O48 2.070650 1_555
Li16 O57 2.138362 1_555
Li16 O29 2.535126 1_555
Li17 O35 2.128630 1_555
Li17 O49 2.128630 1_555
Li17 O51 2.379642 1_555
Li17 O33 2.379642 1_555
Li17 O31 2.395104 1_555
Li17 O52 2.395104 1_555
Li18 O41 1.920537 1_545
Li18 O52 1.933243 1_555
Li18 O36 2.070650 1_555
Li18 O27 2.138362 1_555
Li18 O54 2.535126 1_555
Li19 O45 2.111369 1_555
Li19 O46 2.111369 1_545
Li19 O30 2.363264 1_545
Li19 O61 2.363264 1_555
Li19 O50 2.472283 1_555
Li19 O41 2.472283 1_545
Li20 O50 1.920537 1_565
Li20 O39 1.933243 1_555
Li20 O55 2.070650 1_555
Li20 O64 2.138362 1_555
Li20 O37 2.535126 1_555
Li21 O42 2.128630 1_555
Li21 O56 2.128630 1_555
Li21 O58 2.379642 1_555
Li21 O40 2.379642 1_555
Li21 O60 2.395104 1_555
Li21 O39 2.395104 1_555
Li22 O47 1.920537 1_565
Li22 O60 1.933243 1_555
Li22 O43 2.070650 1_555
Li22 O34 2.138362 1_555
Li22 O62 2.535126 1_555
Li23 O38 2.111369 1_544
Li23 O53 2.111369 1_555
Li23 O24 2.363264 1_554
Li23 O67 2.363264 1_545
Li23 O44 2.472283 1_544
Li23 O47 2.472283 1_555
Li24 O44 2.062020 1_555
Li24 O73 2.149464 1_565
Li24 O63 2.214574 1_565
Li24 O57 2.498115 1_565
Li25 O69 2.097626 1_555
Li25 O51 2.131247 1_555
Li25 O72 2.176256 1_555
Li25 O54 2.186673 1_555
Li25 O52 2.316044 1_555
Li25 O71 2.469097 1_555
Li26 O51 1.931055 1_555
Li26 O63 2.015584 1_565
Li26 O72 2.062398 1_555
Li26 O61 2.113978 1_565
Li27 O72 1.985681 1_555
Li27 O61 2.052321 1_565
Li27 O74 2.241480 1_555
Li27 O55 2.345465 1_555
Li27 O46 2.582105 1_555
Li28 O50 2.062020 1_555
Li28 O81 2.149464 1_545
Li28 O70 2.214574 1_545
Li28 O64 2.498115 1_545
Li29 O76 2.097626 1_555
Li29 O58 2.131247 1_555
Li29 O80 2.176256 1_555
Li29 O62 2.186673 1_555
Li29 O60 2.316044 1_555
Li29 O78 2.469097 1_555
Li30 O58 1.931055 1_555
Li30 O70 2.015584 1_545
Li30 O80 2.062398 1_555
Li30 O67 2.113978 1_545
Li31 O80 1.985681 1_555
Li31 O67 2.052321 1_545
Li31 O66 2.241480 1_554
Li31 O48 2.345465 1_554
Li31 O53 2.582105 1_555
Li32 O73 1.889441 1_565
Li32 O8 1.895913 1_656
Li32 O68 2.086371 1_555
Li32 O59 2.263312 1_555
Li32 O0 2.543902 1_655
Li33 O3 2.074633 1_655
Li33 O77 2.110369 1_545
Li33 O63 2.123947 1_555
Li33 O73 2.399677 1_555
Li33 O79 2.491394 1_555
Li34 O71 1.907566 1_555
Li34 O82 1.917934 1_555
Li34 O1 2.123177 1_655
Li34 O6 2.135580 1_655
Li34 O69 2.568659 1_555
Li35 O71 2.076816 1_555
Li35 O86 2.137766 1_555
Li35 O74 2.140297 1_555
Li35 O2 2.307871 1_655
Li35 O88 2.378293 1_555
Li36 O81 1.889441 1_545
Li36 O2 1.895913 1_655
Li36 O75 2.086371 1_555
Li36 O65 2.263312 1_555
Li36 O4 2.543902 1_655
Li37 O9 2.074633 1_655
Li37 O84 2.110369 1_565
Li37 O70 2.123947 1_555
Li37 O81 2.399677 1_555
Li37 O85 2.491394 1_555
Li38 O78 1.907566 1_555
Li38 O87 1.917934 1_555
Li38 O5 2.123177 1_655
Li38 O12 2.135580 1_655
Li38 O76 2.568659 1_555
Li39 O78 2.076816 1_555
Li39 O89 2.137766 1_555
Li39 O66 2.140297 1_554
Li39 O8 2.307871 1_655
Li39 O83 2.378293 1_554
Cr0 O16 1.879381 1_555
Cr0 O1 1.888474 1_555
Cr0 O15 1.926615 1_555
Cr0 O7 1.934366 1_555
Cr0 O6 1.959018 1_555
Cr0 O86 1.981113 1_455
Cr1 O23 1.879381 1_555
Cr1 O5 1.888474 1_555
Cr1 O22 1.926615 1_555
Cr1 O14 1.934366 1_555
Cr1 O12 1.959018 1_555
Cr1 O89 1.981113 1_455
Cr2 O16 1.862128 1_555
Cr2 O36 1.870648 1_555
Cr2 O35 1.950251 1_555
Cr2 O27 1.978493 1_555
Cr2 O26 1.979164 1_555
Cr2 O17 2.002797 1_555
Cr3 O23 1.862128 1_555
Cr3 O43 1.870648 1_555
Cr3 O42 1.950251 1_555
Cr3 O34 1.978493 1_555
Cr3 O32 1.979164 1_555
Cr3 O25 2.002797 1_555
Cr4 O55 1.877576 1_555
Cr4 O36 1.877576 1_555
Cr4 O37 1.927569 1_555
Cr4 O54 1.927569 1_555
Cr4 O46 1.983688 1_555
Cr4 O45 1.983688 1_555
Cr5 O48 1.877576 1_554
Cr5 O43 1.877576 1_555
Cr5 O62 1.927569 1_555
Cr5 O29 1.927569 1_554
Cr5 O38 1.983688 1_554
Cr5 O53 1.983688 1_555
Cr6 O68 1.862128 1_555
Cr6 O48 1.870648 1_555
Cr6 O49 1.950251 1_555
Cr6 O57 1.978493 1_555
Cr6 O59 1.979164 1_555
Cr6 O66 2.002797 1_555
Cr7 O75 1.862128 1_555
Cr7 O55 1.870648 1_555
Cr7 O56 1.950251 1_555
Cr7 O64 1.978493 1_555
Cr7 O65 1.979164 1_555
Cr7 O74 2.002797 1_555
Cr8 O68 1.879381 1_555
Cr8 O1 1.888474 1_655
Cr8 O69 1.926615 1_555
Cr8 O77 1.934366 1_555
Cr8 O79 1.959018 1_555
Cr8 O0 1.981113 1_655
Cr9 O75 1.879381 1_555
Cr9 O5 1.888474 1_655
Cr9 O76 1.926615 1_555
Cr9 O84 1.934366 1_555
Cr9 O85 1.959018 1_555
Cr9 O4 1.981113 1_655
O0 P0 1.577627 1_555
O2 P1 1.530880 1_555
O3 P0 1.525838 1_545
O4 P2 1.577627 1_555
O6 P1 1.569890 1_555
O7 P0 1.572807 1_555
O8 P3 1.530880 1_555
O9 P2 1.525838 1_565
O10 P1 1.533732 1_555
O11 P0 1.537858 1_555
O12 P3 1.569890 1_555
O13 P4 1.532961 1_555
O14 P2 1.572807 1_555
O15 P5 1.589070 1_555
O17 P1 1.593847 1_555
O18 P3 1.533732 1_555
O19 P2 1.537858 1_555
O20 P6 1.532961 1_555
O21 P5 1.540631 1_555
O22 P7 1.589070 1_555
O24 P4 1.533720 1_555
O25 P3 1.593847 1_555
O26 P6 1.564630 1_555
O27 P5 1.559131 1_555
O28 P7 1.540631 1_555
O29 P4 1.594256 1_555
O30 P6 1.533720 1_555
O31 P5 1.526824 1_555
O32 P4 1.564630 1_554
O33 P8 1.530895 1_555
O34 P7 1.559131 1_555
O35 P9 1.581466 1_555
O37 P6 1.594256 1_555
O38 P8 1.575194 1_555
O39 P7 1.526824 1_555
O40 P10 1.530895 1_555
O41 P9 1.532172 1_555
O42 P11 1.581466 1_555
O44 P8 1.532172 1_555
O45 P10 1.575194 1_555
O46 P9 1.575194 1_555
O47 P11 1.532172 1_555
O49 P8 1.581466 1_555
O50 P10 1.532172 1_555
O51 P9 1.530895 1_555
O52 P12 1.526824 1_555
O53 P11 1.575194 1_555
O54 P13 1.594256 1_555
O56 P10 1.581466 1_555
O57 P12 1.559131 1_555
O58 P11 1.530895 1_555
O59 P15 1.564630 1_556
O60 P14 1.526824 1_555
O61 P13 1.533720 1_555
O62 P15 1.594256 1_555
O63 P12 1.540631 1_555
O64 P14 1.559131 1_555
O65 P13 1.564630 1_555
O66 P16 1.593847 1_555
O67 P15 1.533720 1_555
O69 P12 1.589070 1_555
O70 P14 1.540631 1_555
O71 P13 1.532961 1_555
O72 P17 1.537858 1_555
O73 P16 1.533732 1_555
O74 P18 1.593847 1_555
O76 P14 1.589070 1_555
O77 P17 1.572807 1_555
O78 P15 1.532961 1_555
O79 P16 1.569890 1_555
O80 P19 1.537858 1_555
O81 P18 1.533732 1_555
O82 P17 1.525838 1_545
O83 P16 1.530880 1_555
O84 P19 1.572807 1_555
O85 P18 1.569890 1_555
O86 P17 1.577627 1_555
O87 P19 1.525838 1_565
O88 P18 1.530880 1_555
O89 P19 1.577627 1_555
