# generated using pymatgen
data_TiZnIr2
_symmetry_space_group_name_H-M   'P 1'
_cell_length_a   4.30574072
_cell_length_b   4.30574143
_cell_length_c   4.30574287
_cell_angle_alpha   59.99997789
_cell_angle_beta   59.99999446
_cell_angle_gamma   59.99998332
_symmetry_Int_Tables_number   1
_chemical_formula_structural   TiZnIr2
_chemical_formula_sum   'Ti1 Zn1 Ir2'
_cell_volume   56.44542765
_cell_formula_units_Z   1
loop_
 _symmetry_equiv_pos_site_id
 _symmetry_equiv_pos_as_xyz
  1  'x, y, z'
loop_
 _atom_site_type_symbol
 _atom_site_label
 _atom_site_symmetry_multiplicity
 _atom_site_fract_x
 _atom_site_fract_y
 _atom_site_fract_z
 _atom_site_occupancy
  Ti  Ti0  1  0.25000000  0.25000000  0.25000000  1
  Zn  Zn0  1  0.75000000  0.75000000  0.75000000  1
  Ir  Ir0  1  -0.00000000  -0.00000000  0.00000000  1
  Ir  Ir1  1  0.49999900  0.49999900  0.49999900  1
loop_
_geom_bond_atom_site_label_1
_geom_bond_atom_site_label_2
_geom_bond_distance
_geom_bond_site_symmetry_2
Ir0 Zn0 2.636717 1_454
Ir0 Ti0 2.636717 1_545
Ir0 Zn0 2.636717 1_544
Ir0 Ti0 2.636717 1_455
Ir0 Ti0 2.636718 1_554
Ir0 Zn0 2.636718 1_445
Ir0 Zn0 2.636718 1_444
Ir0 Ti0 2.636718 1_555
Ir1 Ti0 2.636707 1_555
Ir1 Zn0 2.636713 1_545
Ir1 Zn0 2.636713 1_455
Ir1 Zn0 2.636714 1_554
Ir1 Ti0 2.636720 1_565
Ir1 Ti0 2.636720 1_655
Ir1 Ti0 2.636721 1_556
Ir1 Zn0 2.636728 1_555
