# generated using pymatgen
data_Mg3P2
_symmetry_space_group_name_H-M   'P 1'
_cell_length_a   6.02442800
_cell_length_b   6.02442800
_cell_length_c   6.02442800
_cell_angle_alpha   90.00000000
_cell_angle_beta   90.00000000
_cell_angle_gamma   90.00000000
_symmetry_Int_Tables_number   1
_chemical_formula_structural   Mg3P2
_chemical_formula_sum   'Mg6 P4'
_cell_volume   218.64897967
_cell_formula_units_Z   2
loop_
 _symmetry_equiv_pos_site_id
 _symmetry_equiv_pos_as_xyz
  1  'x, y, z'
loop_
 _atom_site_type_symbol
 _atom_site_label
 _atom_site_symmetry_multiplicity
 _atom_site_fract_x
 _atom_site_fract_y
 _atom_site_fract_z
 _atom_site_occupancy
  Mg  Mg0  1  0.50000000  0.00000000  0.00000000  1
  Mg  Mg1  1  0.00000000  0.50000000  0.50000000  1
  Mg  Mg2  1  0.50000000  0.50000000  0.00000000  1
  Mg  Mg3  1  0.50000000  0.00000000  0.50000000  1
  Mg  Mg4  1  0.00000000  0.50000000  0.00000000  1
  Mg  Mg5  1  0.00000000  0.00000000  0.50000000  1
  P  P0  1  0.75000000  0.75000000  0.75000000  1
  P  P1  1  0.25000000  0.75000000  0.25000000  1
  P  P2  1  0.25000000  0.25000000  0.75000000  1
  P  P3  1  0.75000000  0.25000000  0.25000000  1
loop_
_geom_bond_atom_site_label_1
_geom_bond_atom_site_label_2
_geom_bond_distance
_geom_bond_site_symmetry_2
Mg0 P0 2.608654 1_544
Mg0 P1 2.608654 1_545
Mg0 P2 2.608654 1_554
Mg0 P3 2.608654 1_555
Mg1 P2 2.608654 1_555
Mg1 P3 2.608654 1_455
Mg1 P0 2.608654 1_455
Mg1 P1 2.608654 1_555
Mg2 P2 2.608654 1_554
Mg2 P1 2.608654 1_555
Mg2 P0 2.608654 1_554
Mg2 P3 2.608654 1_555
Mg3 P2 2.608654 1_555
Mg3 P1 2.608654 1_545
Mg3 P0 2.608654 1_545
Mg3 P3 2.608654 1_555
Mg4 P1 2.608654 1_555
Mg4 P3 2.608654 1_455
Mg4 P0 2.608654 1_454
Mg4 P2 2.608654 1_554
Mg5 P2 2.608654 1_555
Mg5 P0 2.608654 1_445
Mg5 P3 2.608654 1_455
Mg5 P1 2.608654 1_545
