# generated using pymatgen
data_Na3UF8
_symmetry_space_group_name_H-M   'P 1'
_cell_length_a   6.57700120
_cell_length_b   6.57698060
_cell_length_c   6.57725824
_cell_angle_alpha   131.62292582
_cell_angle_beta   131.79991184
_cell_angle_gamma   70.68915562
_symmetry_Int_Tables_number   1
_chemical_formula_structural   Na3UF8
_chemical_formula_sum   'Na3 U1 F8'
_cell_volume   155.31191292
_cell_formula_units_Z   1
loop_
 _symmetry_equiv_pos_site_id
 _symmetry_equiv_pos_as_xyz
  1  'x, y, z'
loop_
 _atom_site_type_symbol
 _atom_site_label
 _atom_site_symmetry_multiplicity
 _atom_site_fract_x
 _atom_site_fract_y
 _atom_site_fract_z
 _atom_site_occupancy
  Na  Na0  1  0.49999995  0.49999997  -0.00000005  1
  Na  Na1  1  0.24996074  0.74996421  0.50000137  1
  Na  Na2  1  0.75003919  0.25003568  0.49999852  1
  U  U0  1  -0.00000005  -0.00000002  -0.00000003  1
  F  F0  1  0.88289659  0.88275179  0.52977866  1
  F  F1  1  0.88291175  0.35313470  0.00016344  1
  F  F2  1  0.35298746  0.88276969  0.99987397  1
  F  F3  1  0.35297970  0.35312098  0.47021731  1
  F  F4  1  0.64702022  0.64687907  0.52978267  1
  F  F5  1  0.64701275  0.11723044  0.00012635  1
  F  F6  1  0.11708828  0.64686537  0.99983648  1
  F  F7  1  0.11710343  0.11724812  0.47022130  1
loop_
_geom_bond_atom_site_label_1
_geom_bond_atom_site_label_2
_geom_bond_distance
_geom_bond_site_symmetry_2
F0 U0 2.191392 1_666
F0 Na1 2.374440 1_655
F0 Na2 2.375179 1_565
F0 Na0 2.379715 1_555
F1 U0 2.191385 1_655
F1 Na1 2.374119 1_655
F1 Na2 2.375261 1_554
F1 Na0 2.379978 1_555
F2 U0 2.191377 1_566
F2 Na1 2.374507 1_555
F2 Na2 2.374857 1_566
F2 Na0 2.379988 1_556
F3 U0 2.191164 1_555
F3 Na1 2.374405 1_555
F3 Na2 2.375137 1_555
F3 Na0 2.380034 1_556
F4 U0 2.191163 1_666
F4 Na2 2.374405 1_555
F4 Na1 2.375137 1_555
F4 Na0 2.380034 1_555
F5 U0 2.191376 1_655
F5 Na2 2.374506 1_555
F5 Na1 2.374859 1_544
F5 Na0 2.379988 1_555
F6 U0 2.191385 1_566
F6 Na2 2.374120 1_455
F6 Na1 2.375262 1_556
F6 Na0 2.379977 1_556
F7 U0 2.191392 1_555
F7 Na2 2.374440 1_455
F7 Na1 2.375179 1_545
F7 Na0 2.379715 1_556
