# generated using pymatgen
data_Li4Ti4V4CrO18
_symmetry_space_group_name_H-M   'P 1'
_cell_length_a   9.14066900
_cell_length_b   25.11660200
_cell_length_c   2.97230600
_cell_angle_alpha   90.00000000
_cell_angle_beta   90.00000000
_cell_angle_gamma   90.00000000
_symmetry_Int_Tables_number   1
_chemical_formula_structural   Li4Ti4V4CrO18
_chemical_formula_sum   'Li8 Ti8 V8 Cr2 O36'
_cell_volume   682.38957685
_cell_formula_units_Z   2
loop_
 _symmetry_equiv_pos_site_id
 _symmetry_equiv_pos_as_xyz
  1  'x, y, z'
loop_
 _atom_site_type_symbol
 _atom_site_label
 _atom_site_symmetry_multiplicity
 _atom_site_fract_x
 _atom_site_fract_y
 _atom_site_fract_z
 _atom_site_occupancy
  Li  Li0  1  0.19686000  0.99100100  0.00000000  1
  Li  Li1  1  0.20099300  0.19276800  0.00000000  1
  Li  Li2  1  0.29900800  0.69276800  0.00000000  1
  Li  Li3  1  0.30314000  0.49100100  0.00000000  1
  Li  Li4  1  0.69686000  0.50899900  0.00000000  1
  Li  Li5  1  0.70099300  0.30723200  0.00000000  1
  Li  Li6  1  0.79900700  0.80723200  0.00000000  1
  Li  Li7  1  0.80314000  0.00899900  0.00000000  1
  Ti  Ti0  1  0.99753700  0.10136800  0.00000000  1
  Ti  Ti1  1  0.14710600  0.80522200  0.50000000  1
  Ti  Ti2  1  0.35289400  0.30522200  0.50000000  1
  Ti  Ti3  1  0.50246300  0.60136800  0.00000000  1
  Ti  Ti4  1  0.49753700  0.39863200  0.00000000  1
  Ti  Ti5  1  0.64710600  0.69477800  0.50000000  1
  Ti  Ti6  1  0.85289400  0.19477800  0.50000000  1
  Ti  Ti7  1  0.00246300  0.89863200  0.00000000  1
  V  V0  1  0.01137700  0.31243300  0.00000000  1
  V  V1  1  0.14773700  0.58580800  0.50000000  1
  V  V2  1  0.35226300  0.08580800  0.50000000  1
  V  V3  1  0.48862300  0.81243300  0.00000000  1
  V  V4  1  0.51137700  0.18756700  0.00000000  1
  V  V5  1  0.64773700  0.91419200  0.50000000  1
  V  V6  1  0.85226300  0.41419200  0.50000000  1
  V  V7  1  0.98862300  0.68756700  0.00000000  1
  Cr  Cr0  1  0.00000000  0.50000000  0.00000000  1
  Cr  Cr1  1  0.50000000  0.00000000  0.00000000  1
  O  O0  1  0.99126600  0.41856000  0.00000000  1
  O  O1  1  0.00873400  0.58144000  0.00000000  1
  O  O2  1  0.05974000  0.94192700  0.50000000  1
  O  O3  1  0.04745400  0.15839000  0.50000000  1
  O  O4  1  0.12632400  0.66458600  0.50000000  1
  O  O5  1  0.10083100  0.75672200  0.00000000  1
  O  O6  1  0.14911600  0.50537300  0.50000000  1
  O  O7  1  0.14430200  0.28914700  0.50000000  1
  O  O8  1  0.18415500  0.85562300  0.00000000  1
  O  O9  1  0.20192200  0.08282600  0.00000000  1
  O  O10  1  0.29807800  0.58282600  0.00000000  1
  O  O11  1  0.31584500  0.35562300  0.00000000  1
  O  O12  1  0.35569800  0.78914700  0.50000000  1
  O  O13  1  0.35088400  0.00537300  0.50000000  1
  O  O14  1  0.39916900  0.25672200  0.00000000  1
  O  O15  1  0.37367600  0.16458600  0.50000000  1
  O  O16  1  0.45254600  0.65839000  0.50000000  1
  O  O17  1  0.44026000  0.44192700  0.50000000  1
  O  O18  1  0.49126600  0.08144000  0.00000000  1
  O  O19  1  0.50873400  0.91856000  0.00000000  1
  O  O20  1  0.55974000  0.55807300  0.50000000  1
  O  O21  1  0.54745400  0.34161000  0.50000000  1
  O  O22  1  0.62632400  0.83541400  0.50000000  1
  O  O23  1  0.60083100  0.74327800  0.00000000  1
  O  O24  1  0.64911600  0.99462700  0.50000000  1
  O  O25  1  0.64430200  0.21085300  0.50000000  1
  O  O26  1  0.68415500  0.64437700  0.00000000  1
  O  O27  1  0.70192200  0.41717400  0.00000000  1
  O  O28  1  0.79807800  0.91717400  0.00000000  1
  O  O29  1  0.81584500  0.14437700  0.00000000  1
  O  O30  1  0.85569800  0.71085300  0.50000000  1
  O  O31  1  0.85088400  0.49462700  0.50000000  1
  O  O32  1  0.89916900  0.24327800  0.00000000  1
  O  O33  1  0.87367600  0.33541400  0.50000000  1
  O  O34  1  0.95254600  0.84161000  0.50000000  1
  O  O35  1  0.94026000  0.05807300  0.50000000  1
loop_
_geom_bond_atom_site_label_1
_geom_bond_atom_site_label_2
_geom_bond_distance
_geom_bond_site_symmetry_2
Li0 O13 2.078722 1_564
Li0 O13 2.078722 1_565
Li0 O2 2.301916 1_554
Li0 O2 2.301916 1_555
Li0 O9 2.306796 1_565
Li1 O3 2.218982 1_555
Li1 O3 2.218982 1_554
Li1 O15 2.280603 1_554
Li1 O15 2.280603 1_555
Li1 O14 2.421077 1_555
Li2 O16 2.218976 1_555
Li2 O16 2.218976 1_554
Li2 O4 2.280609 1_554
Li2 O4 2.280609 1_555
Li2 O5 2.421084 1_555
Li3 O6 2.078722 1_555
Li3 O6 2.078722 1_554
Li3 O17 2.301916 1_555
Li3 O17 2.301916 1_554
Li3 O10 2.306796 1_555
Li4 O31 2.078722 1_555
Li4 O31 2.078722 1_554
Li4 O20 2.301916 1_554
Li4 O20 2.301916 1_555
Li4 O27 2.306796 1_555
Li5 O21 2.218982 1_554
Li5 O21 2.218982 1_555
Li5 O33 2.280603 1_555
Li5 O33 2.280603 1_554
Li5 O32 2.421077 1_555
Li6 O34 2.218982 1_554
Li6 O34 2.218982 1_555
Li6 O22 2.280603 1_555
Li6 O22 2.280603 1_554
Li6 O23 2.421077 1_555
Li7 O24 2.078722 1_545
Li7 O24 2.078722 1_544
Li7 O35 2.301916 1_554
Li7 O35 2.301916 1_555
Li7 O28 2.306796 1_545
Cr0 O6 2.021061 1_555
Cr0 O6 2.021061 1_554
Cr0 O31 2.021061 1_455
Cr0 O31 2.021061 1_454
Cr0 O1 2.047053 1_555
Cr0 O0 2.047053 1_455
Cr1 O24 2.021061 1_544
Cr1 O13 2.021061 1_554
Cr1 O13 2.021061 1_555
Cr1 O24 2.021061 1_545
Cr1 O19 2.047053 1_545
Cr1 O18 2.047053 1_555
O0 V6 1.958331 1_554
O0 V6 1.958331 1_555
O1 V1 1.958331 1_555
O1 V1 1.958331 1_554
O2 Ti7 1.914483 1_556
O2 Ti7 1.914483 1_555
O3 Ti6 1.999507 1_455
O3 Ti0 2.113772 1_456
O3 Ti0 2.113772 1_455
O4 V1 1.988293 1_555
O4 V7 2.031278 1_455
O4 V7 2.031278 1_456
O5 Ti1 1.967605 1_554
O5 Ti1 1.967605 1_555
O5 V7 2.017158 1_455
O6 V1 2.020293 1_555
O7 Ti2 1.948950 1_555
O7 V0 2.006739 1_556
O7 V0 2.006739 1_555
O8 Ti7 1.981194 1_555
O8 Ti1 1.981374 1_554
O8 Ti1 1.981374 1_555
O9 Ti0 1.925388 1_455
O9 V2 2.025521 1_555
O9 V2 2.025521 1_554
O10 Ti3 1.925388 1_555
O10 V1 2.025521 1_555
O10 V1 2.025521 1_554
O11 Ti4 1.981194 1_555
O11 Ti2 1.981374 1_555
O11 Ti2 1.981374 1_554
O12 Ti1 1.948950 1_555
O12 V3 2.006739 1_555
O12 V3 2.006739 1_556
O13 V2 2.020293 1_555
O14 Ti2 1.967605 1_554
O14 Ti2 1.967605 1_555
O14 V4 2.017158 1_555
O15 V2 1.988293 1_555
O15 V4 2.031278 1_556
O15 V4 2.031278 1_555
O16 Ti5 1.999507 1_555
O16 Ti3 2.113772 1_555
O16 Ti3 2.113772 1_556
O17 Ti4 1.914483 1_556
O17 Ti4 1.914483 1_555
O18 V2 1.958331 1_555
O18 V2 1.958331 1_554
O19 V5 1.958331 1_555
O19 V5 1.958331 1_554
O20 Ti3 1.914483 1_556
O20 Ti3 1.914483 1_555
O21 Ti2 1.999507 1_555
O21 Ti4 2.113772 1_555
O21 Ti4 2.113772 1_556
O22 V5 1.988293 1_555
O22 V3 2.031278 1_555
O22 V3 2.031278 1_556
O23 Ti5 1.967605 1_554
O23 Ti5 1.967605 1_555
O23 V3 2.017158 1_555
O24 V5 2.020293 1_555
O25 Ti6 1.948950 1_555
O25 V4 2.006739 1_555
O25 V4 2.006739 1_556
O26 Ti3 1.981194 1_555
O26 Ti5 1.981374 1_555
O26 Ti5 1.981374 1_554
O27 Ti4 1.925388 1_555
O27 V6 2.025521 1_555
O27 V6 2.025521 1_554
O28 Ti7 1.925388 1_655
O28 V5 2.025521 1_555
O28 V5 2.025521 1_554
O29 Ti0 1.981194 1_555
O29 Ti6 1.981374 1_554
O29 Ti6 1.981374 1_555
O30 Ti5 1.948950 1_555
O30 V7 2.006739 1_556
O30 V7 2.006739 1_555
O31 V6 2.020293 1_555
O32 Ti6 1.967605 1_554
O32 Ti6 1.967605 1_555
O32 V0 2.017158 1_655
O33 V6 1.988293 1_555
O33 V0 2.031278 1_656
O33 V0 2.031278 1_655
O34 Ti1 1.999507 1_655
O34 Ti7 2.113772 1_655
O34 Ti7 2.113772 1_656
O35 Ti0 1.914483 1_556
O35 Ti0 1.914483 1_555
