# generated using pymatgen
data_Pu(SiPt)2
_symmetry_space_group_name_H-M   'P 1'
_cell_length_a   4.21216189
_cell_length_b   4.21216189
_cell_length_c   9.84108044
_cell_angle_alpha   90.00000000
_cell_angle_beta   90.00000000
_cell_angle_gamma   90.00000000
_symmetry_Int_Tables_number   1
_chemical_formula_structural   Pu(SiPt)2
_chemical_formula_sum   'Pu2 Si4 Pt4'
_cell_volume   174.60347813
_cell_formula_units_Z   2
loop_
 _symmetry_equiv_pos_site_id
 _symmetry_equiv_pos_as_xyz
  1  'x, y, z'
loop_
 _atom_site_type_symbol
 _atom_site_label
 _atom_site_symmetry_multiplicity
 _atom_site_fract_x
 _atom_site_fract_y
 _atom_site_fract_z
 _atom_site_occupancy
  Pu  Pu0  1  -0.00000000  0.50000000  0.25267171  1
  Pu  Pu1  1  0.50000000  -0.00000000  0.74732829  1
  Si  Si0  1  0.50000000  0.00000000  0.13498048  1
  Si  Si1  1  -0.00000000  -0.00000000  0.50000000  1
  Si  Si2  1  0.50000000  0.50000000  0.50000000  1
  Si  Si3  1  0.00000000  0.50000000  0.86501952  1
  Pt  Pt0  1  -0.00000000  0.00000000  0.00000000  1
  Pt  Pt1  1  0.50000000  0.50000000  0.00000000  1
  Pt  Pt2  1  0.50000000  -0.00000000  0.37850382  1
  Pt  Pt3  1  -0.00000000  0.50000000  0.62149618  1
loop_
_geom_bond_atom_site_label_1
_geom_bond_atom_site_label_2
_geom_bond_distance
_geom_bond_site_symmetry_2
Pu0 Si0 3.195716 1_465
Pu0 Si0 3.195716 1_455
Pu0 Si0 3.195716 1_565
Pu0 Si0 3.195716 1_555
Pu0 Si1 3.218668 1_565
Pu0 Si2 3.218668 1_555
Pu0 Si2 3.218668 1_455
Pu0 Si1 3.218668 1_555
Pu1 Si3 3.195716 1_545
Pu1 Si3 3.195716 1_555
Pu1 Si3 3.195716 1_655
Pu1 Si3 3.195716 1_645
Pu1 Si1 3.218668 1_655
Pu1 Si2 3.218668 1_545
Pu1 Si2 3.218668 1_555
Pu1 Si1 3.218668 1_555
Pt0 Si3 2.490000 1_544
Pt0 Si3 2.490000 1_554
Pt0 Si0 2.490000 1_455
Pt0 Si0 2.490000 1_555
Pt0 Pu0 3.258615 1_555
Pt0 Pu1 3.258615 1_554
Pt0 Pu0 3.258615 1_545
Pt0 Pu1 3.258615 1_454
Pt1 Si3 2.490000 1_554
Pt1 Si3 2.490000 1_654
Pt1 Si0 2.490000 1_565
Pt1 Si0 2.490000 1_555
Pt1 Pu1 3.258615 1_564
Pt1 Pu1 3.258615 1_554
Pt1 Pu0 3.258615 1_655
Pt1 Pu0 3.258615 1_555
Pt2 Si0 2.396533 1_555
Pt2 Si2 2.421810 1_545
Pt2 Si1 2.421810 1_655
Pt2 Si2 2.421810 1_555
Pt2 Si1 2.421810 1_555
Pt2 Pu0 3.225616 1_655
Pt2 Pu0 3.225616 1_545
Pt2 Pu0 3.225616 1_645
Pt2 Pu0 3.225616 1_555
Pt3 Si3 2.396533 1_555
Pt3 Si1 2.421810 1_565
Pt3 Si2 2.421810 1_555
Pt3 Si2 2.421810 1_455
Pt3 Si1 2.421810 1_555
Pt3 Pu1 3.225616 1_465
Pt3 Pu1 3.225616 1_455
Pt3 Pu1 3.225616 1_555
Pt3 Pu1 3.225616 1_565
