# generated using pymatgen
data_LiFeSiO4
_symmetry_space_group_name_H-M   'P 1'
_cell_length_a   8.67365041
_cell_length_b   8.67365041
_cell_length_c   8.67365120
_cell_angle_alpha   107.98245565
_cell_angle_beta   107.98245565
_cell_angle_gamma   107.98245694
_symmetry_Int_Tables_number   1
_chemical_formula_structural   LiFeSiO4
_chemical_formula_sum   'Li6 Fe6 Si6 O24'
_cell_volume   528.19911179
_cell_formula_units_Z   6
loop_
 _symmetry_equiv_pos_site_id
 _symmetry_equiv_pos_as_xyz
  1  'x, y, z'
loop_
 _atom_site_type_symbol
 _atom_site_label
 _atom_site_symmetry_multiplicity
 _atom_site_fract_x
 _atom_site_fract_y
 _atom_site_fract_z
 _atom_site_occupancy
  Li  Li0  1  0.87299200  0.08676300  0.25847500  1
  Li  Li1  1  0.74152500  0.12700800  0.91323700  1
  Li  Li2  1  0.91323700  0.74152500  0.12700800  1
  Li  Li3  1  0.08676300  0.25847500  0.87299200  1
  Li  Li4  1  0.25847500  0.87299200  0.08676300  1
  Li  Li5  1  0.12700800  0.91323700  0.74152500  1
  Fe  Fe0  1  0.60652300  0.19203200  0.42579300  1
  Fe  Fe1  1  0.80796800  0.57420700  0.39347700  1
  Fe  Fe2  1  0.57420700  0.39347700  0.80796800  1
  Fe  Fe3  1  0.42579300  0.60652300  0.19203200  1
  Fe  Fe4  1  0.19203200  0.42579300  0.60652300  1
  Fe  Fe5  1  0.39347700  0.80796800  0.57420700  1
  Si  Si0  1  0.94800300  0.53988900  0.77079700  1
  Si  Si1  1  0.46011100  0.22920300  0.05199700  1
  Si  Si2  1  0.22920300  0.05199700  0.46011100  1
  Si  Si3  1  0.77079700  0.94800300  0.53988900  1
  Si  Si4  1  0.53988900  0.77079700  0.94800300  1
  Si  Si5  1  0.05199700  0.46011100  0.22920300  1
  O  O0  1  0.68081400  0.97366300  0.01926100  1
  O  O1  1  0.98073900  0.31918600  0.02633700  1
  O  O2  1  0.74250900  0.06341800  0.42122500  1
  O  O3  1  0.57877500  0.25749100  0.93658200  1
  O  O4  1  0.36701600  0.04830900  0.36259900  1
  O  O5  1  0.72425700  0.38588200  0.67732100  1
  O  O6  1  0.93658200  0.57877500  0.25749100  1
  O  O7  1  0.61411800  0.32267900  0.27574300  1
  O  O8  1  0.95169100  0.63740100  0.63298400  1
  O  O9  1  0.63740100  0.63298400  0.95169100  1
  O  O10  1  0.32267900  0.27574300  0.61411800  1
  O  O11  1  0.02633700  0.98073900  0.31918600  1
  O  O12  1  0.97366300  0.01926100  0.68081400  1
  O  O13  1  0.67732100  0.72425700  0.38588200  1
  O  O14  1  0.36259900  0.36701600  0.04830900  1
  O  O15  1  0.04830900  0.36259900  0.36701600  1
  O  O16  1  0.38588200  0.67732100  0.72425700  1
  O  O17  1  0.06341800  0.42122500  0.74250900  1
  O  O18  1  0.27574300  0.61411800  0.32267900  1
  O  O19  1  0.63298400  0.95169100  0.63740100  1
  O  O20  1  0.42122500  0.74250900  0.06341800  1
  O  O21  1  0.25749100  0.93658200  0.57877500  1
  O  O22  1  0.01926100  0.68081400  0.97366300  1
  O  O23  1  0.31918600  0.02633700  0.98073900  1
loop_
_geom_bond_atom_site_label_1
_geom_bond_atom_site_label_2
_geom_bond_distance
_geom_bond_site_symmetry_2
Li0 O11 1.874520 1_645
Li0 O0 1.908919 1_545
Li0 O2 2.082322 1_555
Li0 O15 2.098016 1_655
Li1 O0 1.874520 1_546
Li1 O1 1.908919 1_556
Li1 O3 2.082322 1_555
Li1 O19 2.098016 1_545
Li2 O22 1.874520 1_654
Li2 O11 1.908919 1_655
Li2 O6 2.082322 1_555
Li2 O9 2.098016 1_554
Li3 O1 1.874520 1_456
Li3 O12 1.908919 1_455
Li3 O17 2.082322 1_555
Li3 O14 2.098016 1_556
Li4 O23 1.874520 1_564
Li4 O22 1.908919 1_554
Li4 O20 2.082322 1_555
Li4 O4 2.098016 1_565
Li5 O12 1.874520 1_465
Li5 O23 1.908919 1_565
Li5 O21 2.082322 1_555
Li5 O8 2.098016 1_455
Fe0 O4 1.856358 1_555
Fe0 O2 1.857750 1_555
Fe0 O7 1.974786 1_555
Fe0 O5 1.982125 1_555
Fe1 O8 1.856358 1_555
Fe1 O6 1.857751 1_555
Fe1 O13 1.974786 1_555
Fe1 O7 1.982124 1_555
Fe2 O9 1.856358 1_555
Fe2 O3 1.857751 1_555
Fe2 O5 1.974786 1_555
Fe2 O10 1.982125 1_555
Fe3 O14 1.856358 1_555
Fe3 O20 1.857751 1_555
Fe3 O18 1.974786 1_555
Fe3 O13 1.982125 1_555
Fe4 O15 1.856358 1_555
Fe4 O17 1.857751 1_555
Fe4 O10 1.974786 1_555
Fe4 O16 1.982124 1_555
Fe5 O19 1.856358 1_555
Fe5 O21 1.857750 1_555
Fe5 O16 1.974786 1_555
Fe5 O18 1.982125 1_555
O0 Si4 1.583118 1_554
O1 Si5 1.583118 1_655
O2 Si3 1.659403 1_545
O3 Si1 1.659403 1_556
O4 Si2 1.666243 1_555
O5 Si0 1.722523 1_555
O6 Si5 1.659403 1_655
O7 Si1 1.722523 1_555
O8 Si0 1.666243 1_555
O9 Si4 1.666243 1_555
O10 Si2 1.722523 1_555
O11 Si2 1.583118 1_565
O12 Si3 1.583118 1_545
O13 Si3 1.722523 1_555
O14 Si1 1.666243 1_555
O15 Si5 1.666243 1_555
O16 Si4 1.722523 1_555
O17 Si0 1.659403 1_455
O18 Si5 1.722523 1_555
O19 Si3 1.666243 1_555
O20 Si4 1.659403 1_554
O21 Si2 1.659403 1_565
O22 Si0 1.583118 1_455
O23 Si1 1.583118 1_556
