# generated using pymatgen
data_PmMgRh2
_symmetry_space_group_name_H-M   'P 1'
_cell_length_a   4.68620286
_cell_length_b   4.68620286
_cell_length_c   4.68620286
_cell_angle_alpha   60.00000000
_cell_angle_beta   60.00000000
_cell_angle_gamma   60.00000000
_symmetry_Int_Tables_number   1
_chemical_formula_structural   PmMgRh2
_chemical_formula_sum   'Pm1 Mg1 Rh2'
_cell_volume   72.76930989
_cell_formula_units_Z   1
loop_
 _symmetry_equiv_pos_site_id
 _symmetry_equiv_pos_as_xyz
  1  'x, y, z'
loop_
 _atom_site_type_symbol
 _atom_site_label
 _atom_site_symmetry_multiplicity
 _atom_site_fract_x
 _atom_site_fract_y
 _atom_site_fract_z
 _atom_site_occupancy
  Pm  Pm0  1  0.75000000  0.75000000  0.75000000  1
  Mg  Mg0  1  0.24999900  0.24999900  0.24999900  1
  Rh  Rh0  1  0.00000000  0.00000000  0.00000000  1
  Rh  Rh1  1  0.50000100  0.50000100  0.50000100  1
loop_
_geom_bond_atom_site_label_1
_geom_bond_atom_site_label_2
_geom_bond_distance
_geom_bond_site_symmetry_2
Pm0 Rh1 2.869690 1_555
Pm0 Rh0 2.869701 1_566
Pm0 Rh0 2.869701 1_656
Pm0 Rh0 2.869701 1_665
Pm0 Rh0 2.869701 1_666
Pm0 Rh1 2.869705 1_565
Pm0 Rh1 2.869705 1_655
Pm0 Rh1 2.869705 1_556
Mg0 Rh0 2.869690 1_555
Mg0 Rh1 2.869694 1_455
Mg0 Rh1 2.869694 1_545
Mg0 Rh1 2.869694 1_554
Mg0 Rh0 2.869705 1_556
Mg0 Rh0 2.869705 1_565
Mg0 Rh0 2.869705 1_655
Mg0 Rh1 2.869724 1_555
