# generated using pymatgen
data_PaS3
_symmetry_space_group_name_H-M   'P 1'
_cell_length_a   5.83759824
_cell_length_b   5.82500578
_cell_length_c   4.95394166
_cell_angle_alpha   89.99990373
_cell_angle_beta   90.00031501
_cell_angle_gamma   120.12288552
_symmetry_Int_Tables_number   1
_chemical_formula_structural   PaS3
_chemical_formula_sum   'Pa2 S6'
_cell_volume   145.70450283
_cell_formula_units_Z   2
loop_
 _symmetry_equiv_pos_site_id
 _symmetry_equiv_pos_as_xyz
  1  'x, y, z'
loop_
 _atom_site_type_symbol
 _atom_site_label
 _atom_site_symmetry_multiplicity
 _atom_site_fract_x
 _atom_site_fract_y
 _atom_site_fract_z
 _atom_site_occupancy
  Pa  Pa0  1  0.66664446  0.33323923  0.25000000  1
  Pa  Pa1  1  0.33335765  0.66675990  0.75000100  1
  S  S0  1  0.82264073  0.17741879  0.75000100  1
  S  S1  1  0.35477801  0.17745044  0.75000100  1
  S  S2  1  0.82259393  0.64521327  0.75000000  1
  S  S3  1  0.17737024  0.82257095  0.25000100  1
  S  S4  1  0.64519747  0.82253560  0.24999900  1
  S  S5  1  0.17741751  0.35480681  0.25000100  1
loop_
_geom_bond_atom_site_label_1
_geom_bond_atom_site_label_2
_geom_bond_distance
_geom_bond_site_symmetry_2
Pa0 S3 2.911809 1_545
Pa0 S3 2.912683 1_655
Pa0 S4 2.914033 1_545
Pa0 S4 2.914998 1_555
Pa0 S5 2.920661 1_655
Pa0 S5 2.920981 1_555
Pa0 S2 2.933605 1_555
Pa0 S2 2.933608 1_554
Pa0 S1 2.935131 1_554
Pa0 S1 2.935154 1_555
Pa0 S0 2.935661 1_555
Pa0 S0 2.935664 1_554
Pa1 S0 2.911804 1_565
Pa1 S0 2.912681 1_455
Pa1 S1 2.914029 1_565
Pa1 S1 2.914991 1_555
Pa1 S2 2.920664 1_455
Pa1 S2 2.920970 1_555
Pa1 S5 2.933548 1_555
Pa1 S5 2.933551 1_556
Pa1 S4 2.935055 1_556
Pa1 S4 2.935086 1_555
Pa1 S3 2.935607 1_555
Pa1 S3 2.935618 1_556
