# generated using pymatgen
data_TmPaOs2
_symmetry_space_group_name_H-M   'P 1'
_cell_length_a   4.81993841
_cell_length_b   4.82000862
_cell_length_c   4.81987300
_cell_angle_alpha   60.00374769
_cell_angle_beta   60.00672001
_cell_angle_gamma   60.00380085
_symmetry_Int_Tables_number   1
_chemical_formula_structural   TmPaOs2
_chemical_formula_sum   'Tm1 Pa1 Os2'
_cell_volume   79.18751733
_cell_formula_units_Z   1
loop_
 _symmetry_equiv_pos_site_id
 _symmetry_equiv_pos_as_xyz
  1  'x, y, z'
loop_
 _atom_site_type_symbol
 _atom_site_label
 _atom_site_symmetry_multiplicity
 _atom_site_fract_x
 _atom_site_fract_y
 _atom_site_fract_z
 _atom_site_occupancy
  Tm  Tm0  1  0.75000236  0.74999686  0.75000236  1
  Pa  Pa0  1  0.24999849  0.24999987  0.24999767  1
  Os  Os0  1  0.00003195  0.00003828  0.00002237  1
  Os  Os1  1  0.49996820  0.49996499  0.49997860  1
loop_
_geom_bond_atom_site_label_1
_geom_bond_atom_site_label_2
_geom_bond_distance
_geom_bond_site_symmetry_2
Os0 Pa0 2.951112 1_555
Os0 Tm0 2.951596 1_454
Os0 Tm0 2.951684 1_445
Os0 Tm0 2.951688 1_544
Os0 Tm0 2.951850 1_444
Os0 Pa0 2.951860 1_554
Os0 Pa0 2.951910 1_545
Os0 Pa0 2.951936 1_455
Os1 Pa0 2.951161 1_555
Os1 Tm0 2.951633 1_545
Os1 Tm0 2.951669 1_554
Os1 Tm0 2.951670 1_455
Os1 Pa0 2.951838 1_556
Os1 Tm0 2.951846 1_555
Os1 Pa0 2.951896 1_565
Os1 Pa0 2.951923 1_655
