# generated using pymatgen
data_Na3(CoO2)5
_symmetry_space_group_name_H-M   'P 1'
_cell_length_a   4.85806987
_cell_length_b   8.91150017
_cell_length_c   8.91148871
_cell_angle_alpha   75.59454766
_cell_angle_beta   84.94481604
_cell_angle_gamma   95.05511614
_symmetry_Int_Tables_number   1
_chemical_formula_structural   Na3(CoO2)5
_chemical_formula_sum   'Na6 Co10 O20'
_cell_volume   369.79025776
_cell_formula_units_Z   2
loop_
 _symmetry_equiv_pos_site_id
 _symmetry_equiv_pos_as_xyz
  1  'x, y, z'
loop_
 _atom_site_type_symbol
 _atom_site_label
 _atom_site_symmetry_multiplicity
 _atom_site_fract_x
 _atom_site_fract_y
 _atom_site_fract_z
 _atom_site_occupancy
  Na  Na0  1  0.41162109  0.64757747  0.15242279  1
  Na  Na1  1  0.91164845  0.14759682  0.65240385  1
  Na  Na2  1  0.91624220  0.34704017  0.85101880  1
  Na  Na3  1  0.41624924  0.84704396  0.35101431  1
  Na  Na4  1  0.41624114  0.44897679  0.95296447  1
  Na  Na5  1  0.91624253  0.94899600  0.45294829  1
  Co  Co0  1  0.50158540  0.90431964  0.89568765  1
  Co  Co1  1  0.49989410  0.49777218  0.50197626  1
  Co  Co2  1  0.49989471  0.29801712  0.30222413  1
  Co  Co3  1  0.00077181  0.60267597  0.59654675  1
  Co  Co4  1  0.00077643  0.20344823  0.19731951  1
  Co  Co5  1  0.00163937  0.40430849  0.39567904  1
  Co  Co6  1  -0.00016834  0.99778677  0.00199461  1
  Co  Co7  1  -0.00017308  0.79801336  0.80222368  1
  Co  Co8  1  0.50076330  0.10269886  0.09656754  1
  Co  Co9  1  0.50075912  0.70343506  0.69730540  1
  O  O0  1  0.68999885  0.48754045  0.31245675  1
  O  O1  1  0.18996033  0.98756200  0.81244404  1
  O  O2  1  0.80097594  0.81261363  0.98739356  1
  O  O3  1  0.30105884  0.31263080  0.48736822  1
  O  O4  1  0.19424046  0.19118558  0.00735264  1
  O  O5  1  0.69424363  0.69116470  0.50733233  1
  O  O6  1  0.69425385  0.29265740  0.10883214  1
  O  O7  1  0.19423530  0.79265921  0.60880416  1
  O  O8  1  0.70149019  0.09201258  0.90872615  1
  O  O9  1  0.20155417  0.59199077  0.40872451  1
  O  O10  1  0.20155313  0.39127155  0.20800331  1
  O  O11  1  0.70149479  0.89128945  0.70798426  1
  O  O12  1  0.30970595  0.91109335  0.08841709  1
  O  O13  1  0.80974643  0.41108969  0.58838315  1
  O  O14  1  0.30970280  0.71158213  0.88892459  1
  O  O15  1  0.80975633  0.21161045  0.38890702  1
  O  O16  1  0.80249416  0.60965764  0.78750259  1
  O  O17  1  0.30251917  0.10969163  0.28750895  1
  O  O18  1  0.30252166  0.51248313  0.69030506  1
  O  O19  1  0.80250155  0.01251197  0.19033140  1
loop_
_geom_bond_atom_site_label_1
_geom_bond_atom_site_label_2
_geom_bond_distance
_geom_bond_site_symmetry_2
Na0 O9 2.332556 1_555
Na0 O10 2.332599 1_555
Na0 O0 2.358929 1_555
Na0 O14 2.381721 1_554
Na0 O12 2.381868 1_555
Na0 O2 2.418056 1_554
Na1 O11 2.332749 1_545
Na1 O8 2.332868 1_555
Na1 O1 2.358730 1_645
Na1 O13 2.381655 1_555
Na1 O15 2.381670 1_555
Na1 O3 2.418253 1_655
Na2 O4 2.322341 1_656
Na2 O8 2.328958 1_555
Na2 O6 2.365088 1_556
Na2 O13 2.381599 1_555
Na2 O16 2.393061 1_555
Na2 O18 2.394695 1_655
Na3 O5 2.322368 1_555
Na3 O9 2.329062 1_555
Na3 O7 2.364946 1_555
Na3 O12 2.381352 1_555
Na3 O17 2.393283 1_565
Na3 O19 2.394591 1_565
Na4 O6 2.322383 1_556
Na4 O10 2.328937 1_556
Na4 O4 2.364935 1_556
Na4 O14 2.381413 1_555
Na4 O18 2.393362 1_555
Na4 O16 2.394565 1_555
Na5 O7 2.322342 1_655
Na5 O11 2.329013 1_555
Na5 O5 2.365249 1_555
Na5 O15 2.381408 1_565
Na5 O19 2.393042 1_565
Na5 O17 2.394612 1_665
Co0 O1 1.874697 1_555
Co0 O2 1.880915 1_555
Co0 O8 1.893314 1_565
Co0 O11 1.893376 1_555
Co0 O12 1.897830 1_556
Co0 O14 1.897873 1_555
Co1 O3 1.876250 1_555
Co1 O0 1.878886 1_555
Co1 O13 1.889111 1_555
Co1 O9 1.890961 1_555
Co1 O18 1.897700 1_555
Co1 O5 1.904207 1_555
Co2 O3 1.876286 1_555
Co2 O0 1.878920 1_555
Co2 O15 1.889150 1_555
Co2 O10 1.890985 1_555
Co2 O17 1.897697 1_555
Co2 O6 1.904230 1_555
Co3 O9 1.889438 1_555
Co3 O5 1.890789 1_455
Co3 O13 1.891013 1_455
Co3 O18 1.892722 1_555
Co3 O7 1.895080 1_555
Co3 O16 1.897860 1_455
Co4 O10 1.889433 1_555
Co4 O6 1.890743 1_455
Co4 O15 1.891005 1_455
Co4 O17 1.892675 1_555
Co4 O4 1.894967 1_555
Co4 O19 1.897724 1_455
Co5 O0 1.874659 1_455
Co5 O3 1.880876 1_555
Co5 O10 1.893195 1_555
Co5 O9 1.893275 1_555
Co5 O15 1.897592 1_455
Co5 O13 1.897681 1_455
Co6 O2 1.876515 1_454
Co6 O1 1.879155 1_554
Co6 O12 1.889292 1_555
Co6 O8 1.891052 1_464
Co6 O19 1.897714 1_465
Co6 O4 1.904382 1_565
Co7 O2 1.876475 1_455
Co7 O1 1.879140 1_555
Co7 O14 1.889354 1_555
Co7 O11 1.891090 1_455
Co7 O16 1.897855 1_455
Co7 O7 1.904528 1_555
Co8 O8 1.889468 1_554
Co8 O4 1.890761 1_555
Co8 O12 1.891190 1_545
Co8 O19 1.892674 1_555
Co8 O6 1.894966 1_555
Co8 O17 1.897709 1_555
Co9 O11 1.889567 1_555
Co9 O7 1.890846 1_555
Co9 O14 1.891282 1_555
Co9 O16 1.892744 1_555
Co9 O5 1.895079 1_555
Co9 O18 1.897799 1_555
