# generated using pymatgen
data_Na4(NiO2)9
_symmetry_space_group_name_H-M   'P 1'
_cell_length_a   7.06165044
_cell_length_b   6.98624875
_cell_length_c   7.39516354
_cell_angle_alpha   103.31630842
_cell_angle_beta   89.96458608
_cell_angle_gamma   105.37948823
_symmetry_Int_Tables_number   1
_chemical_formula_structural   Na4(NiO2)9
_chemical_formula_sum   'Na4 Ni9 O18'
_cell_volume   341.60210944
_cell_formula_units_Z   1
loop_
 _symmetry_equiv_pos_site_id
 _symmetry_equiv_pos_as_xyz
  1  'x, y, z'
loop_
 _atom_site_type_symbol
 _atom_site_label
 _atom_site_symmetry_multiplicity
 _atom_site_fract_x
 _atom_site_fract_y
 _atom_site_fract_z
 _atom_site_occupancy
  Na  Na0  1  0.09095729  0.09279485  0.69571092  1
  Na  Na1  1  0.19430505  0.19887722  0.29920589  1
  Na  Na2  1  0.58433508  0.57965894  0.36950173  1
  Na  Na3  1  0.68946840  0.68690991  0.97225375  1
  Ni  Ni0  1  0.06267260  0.54798159  0.83288782  1
  Ni  Ni1  1  0.49437280  0.00005571  0.49874241  1
  Ni  Ni2  1  0.16695763  0.66128348  0.50150855  1
  Ni  Ni3  1  0.61062665  0.11630164  0.16489278  1
  Ni  Ni4  1  0.71437685  0.22996516  0.83333213  1
  Ni  Ni5  1  0.28321333  0.77712934  0.16750434  1
  Ni  Ni6  1  0.82887270  0.32802160  0.49914141  1
  Ni  Ni7  1  0.38922658  0.88887117  0.83336286  1
  Ni  Ni8  1  0.94847074  0.44943490  0.16732683  1
  O  O0  1  0.99956026  0.32282185  0.93199049  1
  O  O1  1  0.08782842  0.39239086  0.58741364  1
  O  O2  1  0.34086519  0.01159587  0.07480471  1
  O  O3  1  0.43000518  0.11947710  0.73342715  1
  O  O4  1  0.34924694  0.65863714  0.93335735  1
  O  O5  1  0.55957917  0.23840473  0.40504884  1
  O  O6  1  0.75818212  0.08913382  0.58746711  1
  O  O7  1  0.12449320  0.78298722  0.74322953  1
  O  O8  1  0.21785543  0.53867315  0.26109746  1
  O  O9  1  0.77522407  0.45413939  0.73356593  1
  O  O10  1  0.68927127  0.38567311  0.08008148  1
  O  O11  1  0.43670519  0.76582256  0.59170737  1
  O  O12  1  0.87920837  0.21010079  0.25419530  1
  O  O13  1  0.23504522  0.92035885  0.40344841  1
  O  O14  1  0.89876142  0.56758295  0.41235863  1
  O  O15  1  0.65389269  0.99536062  0.92346655  1
  O  O16  1  0.54237726  0.85699206  0.26308232  1
  O  O17  1  0.01960191  0.68811842  0.07821335  1
loop_
_geom_bond_atom_site_label_1
_geom_bond_atom_site_label_2
_geom_bond_distance
_geom_bond_site_symmetry_2
Na0 O0 2.303798 1_455
Na0 O7 2.342331 1_545
Na0 O3 2.363273 1_555
Na0 O1 2.412362 1_555
Na0 O6 2.474806 1_455
Na0 O13 2.570203 1_545
Na1 O12 2.274535 1_455
Na1 O2 2.291911 1_555
Na1 O13 2.334813 1_545
Na1 O8 2.416856 1_555
Na1 O1 2.479025 1_555
Na1 O5 2.620596 1_555
Na2 O14 2.269394 1_555
Na2 O11 2.282801 1_555
Na2 O16 2.338442 1_555
Na2 O5 2.418907 1_555
Na2 O10 2.482184 1_555
Na2 O8 2.631714 1_555
Na3 O9 2.307743 1_555
Na3 O15 2.341440 1_555
Na3 O4 2.369990 1_555
Na3 O10 2.415849 1_556
Na3 O17 2.457184 1_656
Na3 O16 2.567314 1_556
Ni0 O0 1.835466 1_455
Ni0 O7 1.856518 1_555
Ni0 O17 1.918716 1_556
Ni0 O1 1.923941 1_555
Ni0 O4 2.037751 1_555
Ni0 O9 2.040536 1_455
Ni1 O13 1.854787 1_545
Ni1 O3 1.856856 1_555
Ni1 O11 1.865676 1_545
Ni1 O6 1.867291 1_555
Ni1 O16 1.878199 1_545
Ni1 O5 1.894538 1_555
Ni2 O7 1.855446 1_555
Ni2 O8 1.866752 1_555
Ni2 O14 1.896098 1_455
Ni2 O11 1.909469 1_555
Ni2 O13 2.043433 1_555
Ni2 O1 2.058470 1_555
Ni3 O15 1.853699 1_544
Ni3 O5 1.864459 1_555
Ni3 O12 1.898872 1_555
Ni3 O2 1.909386 1_555
Ni3 O16 2.045449 1_545
Ni3 O10 2.057244 1_555
Ni4 O9 1.832125 1_555
Ni4 O15 1.855979 1_545
Ni4 O6 1.925171 1_555
Ni4 O10 1.931836 1_556
Ni4 O3 2.022673 1_555
Ni4 O0 2.024753 1_555
Ni5 O16 1.854336 1_555
Ni5 O4 1.855924 1_554
Ni5 O2 1.866034 1_565
Ni5 O17 1.867184 1_555
Ni5 O13 1.880686 1_555
Ni5 O8 1.894799 1_555
Ni6 O9 1.843326 1_555
Ni6 O1 1.844559 1_655
Ni6 O14 1.874238 1_555
Ni6 O6 1.876440 1_555
Ni6 O12 1.885037 1_555
Ni6 O5 1.913607 1_555
Ni7 O2 1.867918 1_566
Ni7 O11 1.868026 1_555
Ni7 O4 1.876299 1_555
Ni7 O15 1.877823 1_555
Ni7 O3 1.877974 1_565
Ni7 O7 1.878095 1_555
Ni8 O0 1.844115 1_554
Ni8 O10 1.844334 1_555
Ni8 O12 1.873042 1_555
Ni8 O17 1.878481 1_655
Ni8 O14 1.884664 1_555
Ni8 O8 1.913560 1_655
