# generated using pymatgen
data_TiInCo2
_symmetry_space_group_name_H-M   'P 1'
_cell_length_a   4.28404513
_cell_length_b   4.28419872
_cell_length_c   4.28387357
_cell_angle_alpha   59.98780648
_cell_angle_beta   59.98501195
_cell_angle_gamma   59.98770478
_symmetry_Int_Tables_number   1
_chemical_formula_structural   TiInCo2
_chemical_formula_sum   'Ti1 In1 Co2'
_cell_volume   55.57963508
_cell_formula_units_Z   1
loop_
 _symmetry_equiv_pos_site_id
 _symmetry_equiv_pos_as_xyz
  1  'x, y, z'
loop_
 _atom_site_type_symbol
 _atom_site_label
 _atom_site_symmetry_multiplicity
 _atom_site_fract_x
 _atom_site_fract_y
 _atom_site_fract_z
 _atom_site_occupancy
  Ti  Ti0  1  0.74990720  0.74993952  0.74983700  1
  In  In0  1  0.25002408  0.25000850  0.25007603  1
  Co  Co0  1  0.49998418  0.50002062  0.49997330  1
  Co  Co1  1  0.00008454  0.00003136  0.00011567  1
loop_
_geom_bond_atom_site_label_1
_geom_bond_atom_site_label_2
_geom_bond_distance
_geom_bond_site_symmetry_2
Co0 Ti0 2.622659 1_555
Co0 In0 2.623096 1_565
Co0 In0 2.623110 1_655
Co0 In0 2.623228 1_556
Co0 In0 2.623232 1_555
Co0 Ti0 2.623240 1_455
Co0 Ti0 2.623345 1_554
Co0 Ti0 2.623423 1_545
Co1 Ti0 2.621894 1_445
Co1 Ti0 2.622351 1_544
Co1 Ti0 2.622818 1_454
Co1 In0 2.623007 1_554
Co1 In0 2.623182 1_455
Co1 In0 2.623219 1_545
Co1 In0 2.623258 1_555
Co1 Ti0 2.625605 1_444
