# generated using pymatgen
data_BeGeRu2
_symmetry_space_group_name_H-M   'P 1'
_cell_length_a   4.10037725
_cell_length_b   4.10037725
_cell_length_c   4.10037725
_cell_angle_alpha   60.00000000
_cell_angle_beta   60.00000000
_cell_angle_gamma   60.00000000
_symmetry_Int_Tables_number   1
_chemical_formula_structural   BeGeRu2
_chemical_formula_sum   'Be1 Ge1 Ru2'
_cell_volume   48.74796027
_cell_formula_units_Z   1
loop_
 _symmetry_equiv_pos_site_id
 _symmetry_equiv_pos_as_xyz
  1  'x, y, z'
loop_
 _atom_site_type_symbol
 _atom_site_label
 _atom_site_symmetry_multiplicity
 _atom_site_fract_x
 _atom_site_fract_y
 _atom_site_fract_z
 _atom_site_occupancy
  Be  Be0  1  0.25000000  0.25000000  0.25000000  1
  Ge  Ge0  1  0.74999900  0.74999900  0.74999900  1
  Ru  Ru0  1  -0.00000000  -0.00000000  -0.00000000  1
  Ru  Ru1  1  0.50000000  0.50000000  0.50000000  1
loop_
_geom_bond_atom_site_label_1
_geom_bond_atom_site_label_2
_geom_bond_distance
_geom_bond_site_symmetry_2
Be0 Ru1 2.510958 1_455
Be0 Ru0 2.510958 1_655
Be0 Ru1 2.510958 1_555
Be0 Ru1 2.510958 1_545
Be0 Ru0 2.510958 1_556
Be0 Ru1 2.510958 1_554
Be0 Ru0 2.510958 1_555
Be0 Ru0 2.510958 1_565
Ge0 Ru1 2.510948 1_555
Ge0 Ru0 2.510955 1_665
Ge0 Ru0 2.510955 1_566
Ge0 Ru0 2.510955 1_656
Ge0 Ru1 2.510961 1_556
Ge0 Ru1 2.510961 1_565
Ge0 Ru1 2.510961 1_655
Ge0 Ru0 2.510968 1_666
