# generated using pymatgen
data_Li2Cu(Si2O5)2
_symmetry_space_group_name_H-M   'P 1'
_cell_length_a   7.77876400
_cell_length_b   10.78186100
_cell_length_c   10.93994908
_cell_angle_alpha   68.43483426
_cell_angle_beta   90.00000000
_cell_angle_gamma   90.00000000
_symmetry_Int_Tables_number   1
_chemical_formula_structural   Li2Cu(Si2O5)2
_chemical_formula_sum   'Li8 Cu4 Si16 O40'
_cell_volume   853.30173999
_cell_formula_units_Z   4
loop_
 _symmetry_equiv_pos_site_id
 _symmetry_equiv_pos_as_xyz
  1  'x, y, z'
loop_
 _atom_site_type_symbol
 _atom_site_label
 _atom_site_symmetry_multiplicity
 _atom_site_fract_x
 _atom_site_fract_y
 _atom_site_fract_z
 _atom_site_occupancy
  Li  Li0  1  0.25000000  0.61829900  0.09759700  1
  Li  Li1  1  0.25000000  0.91988300  0.99250800  1
  Li  Li2  1  0.25000000  0.12557700  0.37160200  1
  Li  Li3  1  0.25000000  0.47631600  0.43310200  1
  Li  Li4  1  0.75000000  0.52368400  0.56689800  1
  Li  Li5  1  0.75000000  0.87442300  0.62839800  1
  Li  Li6  1  0.75000000  0.08011700  0.00749200  1
  Li  Li7  1  0.75000000  0.38170100  0.90240300  1
  Cu  Cu0  1  0.99990400  0.72334300  0.21694800  1
  Cu  Cu1  1  0.50009600  0.72334300  0.21694800  1
  Cu  Cu2  1  0.49990400  0.27665700  0.78305200  1
  Cu  Cu3  1  0.00009600  0.27665700  0.78305200  1
  Si  Si0  1  0.05413200  0.26315500  0.07663200  1
  Si  Si1  1  0.44586800  0.26315500  0.07663200  1
  Si  Si2  1  0.95118500  0.41747000  0.24995500  1
  Si  Si3  1  0.54881500  0.41747000  0.24995500  1
  Si  Si4  1  0.56243300  0.00391700  0.25378200  1
  Si  Si5  1  0.93756700  0.00391700  0.25378200  1
  Si  Si6  1  0.95681400  0.22703600  0.52737500  1
  Si  Si7  1  0.54318600  0.22703600  0.52737500  1
  Si  Si8  1  0.04318600  0.77296400  0.47262500  1
  Si  Si9  1  0.45681400  0.77296400  0.47262500  1
  Si  Si10  1  0.06243300  0.99608300  0.74621800  1
  Si  Si11  1  0.43756700  0.99608300  0.74621800  1
  Si  Si12  1  0.04881500  0.58253000  0.75004500  1
  Si  Si13  1  0.45118500  0.58253000  0.75004500  1
  Si  Si14  1  0.55413200  0.73684500  0.92336800  1
  Si  Si15  1  0.94586800  0.73684500  0.92336800  1
  O  O0  1  0.25000000  0.31337600  0.02526700  1
  O  O1  1  0.07739600  0.12850800  0.21326300  1
  O  O2  1  0.42260400  0.12850800  0.21326300  1
  O  O3  1  0.75000000  0.08057900  0.22527800  1
  O  O4  1  0.53750900  0.37967900  0.11803100  1
  O  O5  1  0.96249100  0.37967900  0.11803100  1
  O  O6  1  0.06420300  0.76619800  0.03001100  1
  O  O7  1  0.43579700  0.76619800  0.03001100  1
  O  O8  1  0.75000000  0.44481400  0.27721100  1
  O  O9  1  0.07229100  0.53960900  0.24460400  1
  O  O10  1  0.42770900  0.53960900  0.24460400  1
  O  O11  1  0.53972700  0.91215700  0.16861100  1
  O  O12  1  0.96027300  0.91215700  0.16861100  1
  O  O13  1  0.48108600  0.28159600  0.37211300  1
  O  O14  1  0.01891400  0.28159600  0.37211300  1
  O  O15  1  0.75000000  0.19593600  0.54024400  1
  O  O16  1  0.04647400  0.07725800  0.58620500  1
  O  O17  1  0.45352600  0.07725800  0.58620500  1
  O  O18  1  0.97902500  0.67006000  0.40726200  1
  O  O19  1  0.52097500  0.67006000  0.40726200  1
  O  O20  1  0.47902500  0.32994000  0.59273800  1
  O  O21  1  0.02097500  0.32994000  0.59273800  1
  O  O22  1  0.54647400  0.92274200  0.41379500  1
  O  O23  1  0.95352600  0.92274200  0.41379500  1
  O  O24  1  0.25000000  0.80406400  0.45975600  1
  O  O25  1  0.51891400  0.71840400  0.62788700  1
  O  O26  1  0.98108600  0.71840400  0.62788700  1
  O  O27  1  0.03972700  0.08784300  0.83138900  1
  O  O28  1  0.46027300  0.08784300  0.83138900  1
  O  O29  1  0.57229100  0.46039100  0.75539600  1
  O  O30  1  0.92770900  0.46039100  0.75539600  1
  O  O31  1  0.25000000  0.55518600  0.72278900  1
  O  O32  1  0.56420300  0.23380200  0.96998900  1
  O  O33  1  0.93579700  0.23380200  0.96998900  1
  O  O34  1  0.03750900  0.62032100  0.88196900  1
  O  O35  1  0.46249100  0.62032100  0.88196900  1
  O  O36  1  0.25000000  0.91942100  0.77472200  1
  O  O37  1  0.57739600  0.87149200  0.78673700  1
  O  O38  1  0.92260400  0.87149200  0.78673700  1
  O  O39  1  0.75000000  0.68662400  0.97473300  1
loop_
_geom_bond_atom_site_label_1
_geom_bond_atom_site_label_2
_geom_bond_distance
_geom_bond_site_symmetry_2
Li0 O9 2.052838 1_555
Li0 O10 2.052838 1_555
Li0 O7 2.076438 1_555
Li0 O6 2.076438 1_555
Li1 O7 2.122041 1_556
Li1 O6 2.122041 1_556
Li1 O36 2.384403 1_555
Li1 O28 2.591374 1_565
Li1 O27 2.591374 1_565
Li2 O2 2.182669 1_555
Li2 O1 2.182669 1_555
Li2 O13 2.463309 1_555
Li2 O14 2.463309 1_555
Li3 O9 2.365291 1_555
Li3 O10 2.365291 1_555
Li3 O20 2.586195 1_555
Li3 O21 2.586195 1_555
Li4 O30 2.365291 1_555
Li4 O29 2.365291 1_555
Li4 O18 2.586195 1_555
Li4 O19 2.586195 1_555
Li5 O38 2.182669 1_555
Li5 O37 2.182669 1_555
Li5 O26 2.463309 1_555
Li5 O25 2.463309 1_555
Li6 O33 2.122041 1_554
Li6 O32 2.122041 1_554
Li6 O3 2.384403 1_555
Li6 O12 2.591374 1_545
Li6 O11 2.591374 1_545
Li7 O29 2.052838 1_555
Li7 O30 2.052838 1_555
Li7 O32 2.076438 1_555
Li7 O33 2.076438 1_555
Cu0 O12 1.930711 1_555
Cu0 O18 1.952427 1_555
Cu0 O9 1.972901 1_655
Cu0 O6 1.987807 1_655
Cu1 O11 1.930711 1_555
Cu1 O19 1.952427 1_555
Cu1 O10 1.972901 1_555
Cu1 O7 1.987807 1_555
Cu2 O28 1.930711 1_555
Cu2 O20 1.952427 1_555
Cu2 O29 1.972901 1_555
Cu2 O32 1.987807 1_555
Cu3 O27 1.930711 1_555
Cu3 O21 1.952427 1_555
Cu3 O30 1.972901 1_455
Cu3 O33 1.987807 1_455
O0 Si0 1.645198 1_555
O0 Si1 1.645198 1_555
O1 Si5 1.657214 1_455
O1 Si0 1.667141 1_555
O2 Si4 1.657214 1_555
O2 Si1 1.667141 1_555
O3 Si5 1.649170 1_555
O3 Si4 1.649170 1_555
O4 Si3 1.639816 1_555
O4 Si1 1.646199 1_555
O5 Si2 1.639816 1_555
O5 Si0 1.646199 1_655
O6 Si15 1.606245 1_454
O7 Si14 1.606245 1_554
O8 Si2 1.639996 1_555
O8 Si3 1.639996 1_555
O9 Si2 1.602627 1_455
O10 Si3 1.602627 1_555
O11 Si4 1.598701 1_565
O12 Si5 1.598701 1_565
O13 Si7 1.652263 1_555
O13 Si3 1.664476 1_555
O14 Si6 1.652263 1_455
O14 Si2 1.664476 1_455
O15 Si6 1.638797 1_555
O15 Si7 1.638797 1_555
O16 Si10 1.649095 1_545
O16 Si6 1.656643 1_455
O17 Si11 1.649095 1_545
O17 Si7 1.656643 1_555
O18 Si8 1.604561 1_655
O19 Si9 1.604561 1_555
O20 Si7 1.604561 1_555
O21 Si6 1.604561 1_455
O22 Si4 1.649095 1_565
O22 Si9 1.656643 1_555
O23 Si5 1.649095 1_565
O23 Si8 1.656643 1_655
O24 Si9 1.638797 1_555
O24 Si8 1.638797 1_555
O25 Si9 1.652263 1_555
O25 Si13 1.664476 1_555
O26 Si8 1.652263 1_655
O26 Si12 1.664476 1_655
O27 Si10 1.598701 1_545
O28 Si11 1.598701 1_545
O29 Si13 1.602627 1_555
O30 Si12 1.602627 1_655
O31 Si12 1.639996 1_555
O31 Si13 1.639996 1_555
O32 Si1 1.606245 1_556
O33 Si0 1.606245 1_656
O34 Si12 1.639816 1_555
O34 Si15 1.646199 1_455
O35 Si13 1.639816 1_555
O35 Si14 1.646199 1_555
O36 Si11 1.649170 1_555
O36 Si10 1.649170 1_555
O37 Si11 1.657214 1_555
O37 Si14 1.667141 1_555
O38 Si10 1.657214 1_655
O38 Si15 1.667141 1_555
O39 Si15 1.645198 1_555
O39 Si14 1.645198 1_555
