# generated using pymatgen
data_LiCoSiO4
_symmetry_space_group_name_H-M   'P 1'
_cell_length_a   5.36810500
_cell_length_b   7.88721600
_cell_length_c   8.49714963
_cell_angle_alpha   74.99348090
_cell_angle_beta   90.00000000
_cell_angle_gamma   90.00000000
_symmetry_Int_Tables_number   1
_chemical_formula_structural   LiCoSiO4
_chemical_formula_sum   'Li4 Co4 Si4 O16'
_cell_volume   347.49498194
_cell_formula_units_Z   4
loop_
 _symmetry_equiv_pos_site_id
 _symmetry_equiv_pos_as_xyz
  1  'x, y, z'
loop_
 _atom_site_type_symbol
 _atom_site_label
 _atom_site_symmetry_multiplicity
 _atom_site_fract_x
 _atom_site_fract_y
 _atom_site_fract_z
 _atom_site_occupancy
  Li  Li0  1  0.34491200  0.13140800  0.20329000  1
  Li  Li1  1  0.83257100  0.63444400  0.39231900  1
  Li  Li2  1  0.65508800  0.13140800  0.70329000  1
  Li  Li3  1  0.16742900  0.63444400  0.89231900  1
  Co  Co0  1  0.85518400  0.03168700  0.06788300  1
  Co  Co1  1  0.32978800  0.50952400  0.27340000  1
  Co  Co2  1  0.14481600  0.03168700  0.56788300  1
  Co  Co3  1  0.67021200  0.50952400  0.77340000  1
  Si  Si0  1  0.66551600  0.74633000  0.01885300  1
  Si  Si1  1  0.82986100  0.26234500  0.32074400  1
  Si  Si2  1  0.33448400  0.74633000  0.51885300  1
  Si  Si3  1  0.17013900  0.26234500  0.82074400  1
  O  O0  1  0.16762300  0.11713600  0.00200400  1
  O  O1  1  0.38276300  0.66637000  0.07096800  1
  O  O2  1  0.70698700  0.17142600  0.18457000  1
  O  O3  1  0.12508000  0.31534800  0.27733900  1
  O  O4  1  0.81530000  0.78551900  0.17576400  1
  O  O5  1  0.65908100  0.43073000  0.33342200  1
  O  O6  1  0.83237700  0.11713600  0.50200400  1
  O  O7  1  0.19256900  0.60942900  0.43109200  1
  O  O8  1  0.32137800  0.94950000  0.40215400  1
  O  O9  1  0.61723700  0.66637000  0.57096800  1
  O  O10  1  0.29301300  0.17142600  0.68457000  1
  O  O11  1  0.87492000  0.31534800  0.77733900  1
  O  O12  1  0.18470000  0.78551900  0.67576400  1
  O  O13  1  0.34091900  0.43073000  0.83342200  1
  O  O14  1  0.80743100  0.60942900  0.93109200  1
  O  O15  1  0.67862200  0.94950000  0.90215400  1
loop_
_geom_bond_atom_site_label_1
_geom_bond_atom_site_label_2
_geom_bond_distance
_geom_bond_site_symmetry_2
Li0 O8 1.916849 1_545
Li0 O2 1.968940 1_555
Li0 O0 1.985810 1_555
Li0 O3 2.089487 1_555
Li1 O4 1.918054 1_555
Li1 O7 1.961732 1_655
Li1 O9 1.975320 1_555
Li1 O5 2.028746 1_555
Li2 O15 1.916849 1_545
Li2 O10 1.968940 1_555
Li2 O6 1.985810 1_555
Li2 O11 2.089487 1_555
Li3 O12 1.918054 1_555
Li3 O14 1.961732 1_455
Li3 O1 1.975320 1_556
Li3 O13 2.028746 1_555
Co0 O0 1.839896 1_655
Co0 O2 1.842990 1_555
Co0 O4 1.932405 1_545
Co0 O15 1.942769 1_544
Co1 O1 1.862260 1_555
Co1 O7 1.872346 1_555
Co1 O3 1.878207 1_555
Co1 O5 1.899181 1_555
Co2 O6 1.839896 1_455
Co2 O10 1.842990 1_555
Co2 O12 1.932405 1_545
Co2 O8 1.942769 1_545
Co3 O9 1.862260 1_555
Co3 O14 1.872346 1_555
Co3 O11 1.878207 1_555
Co3 O13 1.899181 1_555
O0 Si3 1.664509 1_554
O1 Si0 1.659237 1_555
O2 Si1 1.648591 1_555
O3 Si1 1.656028 1_455
O4 Si0 1.653221 1_555
O5 Si1 1.640114 1_555
O6 Si1 1.664509 1_555
O7 Si2 1.649041 1_555
O8 Si2 1.653237 1_555
O9 Si2 1.659237 1_555
O10 Si3 1.648591 1_555
O11 Si3 1.656028 1_655
O12 Si2 1.653221 1_555
O13 Si3 1.640114 1_555
O14 Si0 1.649041 1_556
O15 Si0 1.653237 1_556
