# generated using pymatgen
data_Ca(BO2)2
_symmetry_space_group_name_H-M   'P 1'
_cell_length_a   5.01739660
_cell_length_b   8.37811462
_cell_length_c   13.81875959
_cell_angle_alpha   90.00000000
_cell_angle_beta   90.00000000
_cell_angle_gamma   90.00000000
_symmetry_Int_Tables_number   1
_chemical_formula_structural   Ca(BO2)2
_chemical_formula_sum   'Ca8 B16 O32'
_cell_volume   580.88985276
_cell_formula_units_Z   8
loop_
 _symmetry_equiv_pos_site_id
 _symmetry_equiv_pos_as_xyz
  1  'x, y, z'
loop_
 _atom_site_type_symbol
 _atom_site_label
 _atom_site_symmetry_multiplicity
 _atom_site_fract_x
 _atom_site_fract_y
 _atom_site_fract_z
 _atom_site_occupancy
  Ca  Ca0  1  0.62002915  0.38375968  0.35673482  1
  Ca  Ca1  1  0.62002915  0.11624032  0.14326518  1
  Ca  Ca2  1  0.87997085  0.88375968  0.64326518  1
  Ca  Ca3  1  0.87997085  0.61624032  0.85673482  1
  Ca  Ca4  1  0.37997085  0.61624032  0.64326518  1
  Ca  Ca5  1  0.37997085  0.88375968  0.85673482  1
  Ca  Ca6  1  0.12002915  0.11624032  0.35673482  1
  Ca  Ca7  1  0.12002915  0.38375968  0.14326518  1
  B  B0  1  0.86991698  0.74547153  0.44938786  1
  B  B1  1  0.86991698  0.75452847  0.05061214  1
  B  B2  1  0.63008302  0.24547153  0.55061214  1
  B  B3  1  0.63008302  0.25452847  0.94938786  1
  B  B4  1  0.13008302  0.25452847  0.55061214  1
  B  B5  1  0.13008302  0.24547153  0.94938786  1
  B  B6  1  0.36991698  0.75452847  0.44938786  1
  B  B7  1  0.36991698  0.74547153  0.05061214  1
  B  B8  1  0.62425678  0.53623177  0.13774677  1
  B  B9  1  0.62425678  0.96376823  0.36225323  1
  B  B10  1  0.87574322  0.03623177  0.86225323  1
  B  B11  1  0.87574322  0.46376823  0.63774677  1
  B  B12  1  0.37574322  0.46376823  0.86225323  1
  B  B13  1  0.37574322  0.03623177  0.63774677  1
  B  B14  1  0.12425678  0.96376823  0.13774677  1
  B  B15  1  0.12425678  0.53623177  0.36225323  1
  O  O0  1  0.35744048  0.88882599  0.11383000  1
  O  O1  1  0.35744048  0.61117401  0.38617000  1
  O  O2  1  0.14255952  0.38882599  0.88617000  1
  O  O3  1  0.14255952  0.11117401  0.61383000  1
  O  O4  1  0.64255952  0.11117401  0.88617000  1
  O  O5  1  0.64255952  0.38882599  0.61383000  1
  O  O6  1  0.85744048  0.61117401  0.11383000  1
  O  O7  1  0.85744048  0.88882599  0.38617000  1
  O  O8  1  0.62801223  0.39422864  0.18603526  1
  O  O9  1  0.62801223  0.10577136  0.31396474  1
  O  O10  1  0.87198777  0.89422864  0.81396474  1
  O  O11  1  0.87198777  0.60577136  0.68603526  1
  O  O12  1  0.37198777  0.60577136  0.81396474  1
  O  O13  1  0.37198777  0.89422864  0.68603526  1
  O  O14  1  0.12801223  0.10577136  0.18603526  1
  O  O15  1  0.12801223  0.39422864  0.31396474  1
  O  O16  1  0.12035538  0.74150788  0.99126864  1
  O  O17  1  0.12035538  0.75849212  0.50873136  1
  O  O18  1  0.37964462  0.24150788  0.00873136  1
  O  O19  1  0.37964462  0.25849212  0.49126864  1
  O  O20  1  0.87964462  0.25849212  0.00873136  1
  O  O21  1  0.87964462  0.24150788  0.49126864  1
  O  O22  1  0.62035538  0.75849212  0.99126864  1
  O  O23  1  0.62035538  0.74150788  0.50873136  1
  O  O24  1  0.38578270  0.60054763  0.10959945  1
  O  O25  1  0.38578270  0.89945237  0.39040055  1
  O  O26  1  0.11421730  0.10054763  0.89040055  1
  O  O27  1  0.11421730  0.39945237  0.60959945  1
  O  O28  1  0.61421730  0.39945237  0.89040055  1
  O  O29  1  0.61421730  0.10054763  0.60959945  1
  O  O30  1  0.88578270  0.89945237  0.10959945  1
  O  O31  1  0.88578270  0.60054763  0.39040055  1
loop_
_geom_bond_atom_site_label_1
_geom_bond_atom_site_label_2
_geom_bond_distance
_geom_bond_site_symmetry_2
Ca0 O31 2.300698 1_555
Ca0 O1 2.351908 1_555
Ca0 O8 2.360826 1_555
Ca0 O9 2.403174 1_555
Ca0 O19 2.452013 1_555
Ca0 O15 2.539924 1_555
Ca0 O21 2.563856 1_555
Ca0 O15 2.617852 1_655
Ca1 O30 2.300698 1_545
Ca1 O0 2.351908 1_545
Ca1 O9 2.360826 1_555
Ca1 O8 2.403174 1_555
Ca1 O18 2.452013 1_555
Ca1 O14 2.539924 1_555
Ca1 O20 2.563856 1_555
Ca1 O14 2.617852 1_655
Ca2 O29 2.300698 1_565
Ca2 O3 2.351908 1_665
Ca2 O10 2.360826 1_555
Ca2 O11 2.403174 1_555
Ca2 O17 2.452013 1_655
Ca2 O13 2.539924 1_655
Ca2 O23 2.563856 1_555
Ca2 O13 2.617852 1_555
Ca3 O28 2.300698 1_555
Ca3 O2 2.351908 1_655
Ca3 O11 2.360826 1_555
Ca3 O10 2.403174 1_555
Ca3 O16 2.452013 1_655
Ca3 O12 2.539924 1_655
Ca3 O22 2.563856 1_555
Ca3 O12 2.617852 1_555
Ca4 O27 2.300698 1_555
Ca4 O5 2.351908 1_555
Ca4 O12 2.360826 1_555
Ca4 O13 2.403174 1_555
Ca4 O23 2.452013 1_555
Ca4 O11 2.539924 1_555
Ca4 O17 2.563856 1_555
Ca4 O11 2.617852 1_455
Ca5 O26 2.300698 1_565
Ca5 O4 2.351908 1_565
Ca5 O13 2.360826 1_555
Ca5 O12 2.403174 1_555
Ca5 O22 2.452013 1_555
Ca5 O10 2.539924 1_555
Ca5 O16 2.563856 1_555
Ca5 O10 2.617852 1_455
Ca6 O25 2.300698 1_545
Ca6 O7 2.351908 1_445
Ca6 O14 2.360826 1_555
Ca6 O15 2.403174 1_555
Ca6 O21 2.452013 1_455
Ca6 O9 2.539924 1_455
Ca6 O19 2.563856 1_555
Ca6 O9 2.617852 1_555
Ca7 O24 2.300698 1_555
Ca7 O6 2.351908 1_455
Ca7 O15 2.360826 1_555
Ca7 O14 2.403174 1_555
Ca7 O20 2.452013 1_455
Ca7 O8 2.539924 1_455
Ca7 O18 2.563856 1_555
Ca7 O8 2.617852 1_555
B0 O31 1.464593 1_555
B0 O7 1.486466 1_555
B0 O23 1.497154 1_555
B0 O17 1.504428 1_655
B1 O30 1.464593 1_555
B1 O6 1.486466 1_555
B1 O22 1.497154 1_554
B1 O16 1.504428 1_654
B2 O29 1.464593 1_555
B2 O5 1.486466 1_555
B2 O21 1.497154 1_555
B2 O19 1.504428 1_555
B3 O28 1.464593 1_555
B3 O4 1.486466 1_555
B3 O20 1.497154 1_556
B3 O18 1.504428 1_556
B4 O27 1.464593 1_555
B4 O3 1.486466 1_555
B4 O19 1.497154 1_555
B4 O21 1.504428 1_455
B5 O26 1.464593 1_555
B5 O2 1.486466 1_555
B5 O18 1.497154 1_556
B5 O20 1.504428 1_456
B6 O25 1.464593 1_555
B6 O1 1.486466 1_555
B6 O17 1.497154 1_555
B6 O23 1.504428 1_555
B7 O24 1.464593 1_555
B7 O0 1.486466 1_555
B7 O16 1.497154 1_554
B7 O22 1.504428 1_554
B8 O8 1.364206 1_555
B8 O6 1.368320 1_555
B8 O24 1.368687 1_555
B9 O9 1.364206 1_565
B9 O7 1.368320 1_555
B9 O25 1.368687 1_555
B10 O10 1.364206 1_545
B10 O4 1.368320 1_555
B10 O26 1.368687 1_655
B11 O11 1.364206 1_555
B11 O5 1.368320 1_555
B11 O27 1.368687 1_655
B12 O12 1.364206 1_555
B12 O2 1.368320 1_555
B12 O28 1.368687 1_555
B13 O13 1.364206 1_545
B13 O3 1.368320 1_555
B13 O29 1.368687 1_555
B14 O14 1.364206 1_565
B14 O0 1.368320 1_555
B14 O30 1.368687 1_455
B15 O15 1.364206 1_555
B15 O1 1.368320 1_555
B15 O31 1.368687 1_455
