# generated using pymatgen
data_Zn2NiRh
_symmetry_space_group_name_H-M   'P 1'
_cell_length_a   4.13885068
_cell_length_b   4.13885068
_cell_length_c   4.13885068
_cell_angle_alpha   60.00000000
_cell_angle_beta   60.00000000
_cell_angle_gamma   60.00000000
_symmetry_Int_Tables_number   1
_chemical_formula_structural   Zn2NiRh
_chemical_formula_sum   'Zn2 Ni1 Rh1'
_cell_volume   50.13306723
_cell_formula_units_Z   1
loop_
 _symmetry_equiv_pos_site_id
 _symmetry_equiv_pos_as_xyz
  1  'x, y, z'
loop_
 _atom_site_type_symbol
 _atom_site_label
 _atom_site_symmetry_multiplicity
 _atom_site_fract_x
 _atom_site_fract_y
 _atom_site_fract_z
 _atom_site_occupancy
  Zn  Zn0  1  -0.00000000  0.00000000  -0.00000000  1
  Zn  Zn1  1  0.49999900  0.49999900  0.49999900  1
  Ni  Ni0  1  0.25000000  0.25000000  0.25000000  1
  Rh  Rh0  1  0.75000100  0.75000100  0.75000100  1
loop_
_geom_bond_atom_site_label_1
_geom_bond_atom_site_label_2
_geom_bond_distance
_geom_bond_site_symmetry_2
Ni0 Zn1 2.534508 1_555
Ni0 Zn0 2.534518 1_655
Ni0 Zn0 2.534518 1_555
Ni0 Zn0 2.534518 1_565
Ni0 Zn0 2.534518 1_556
Ni0 Zn1 2.534521 1_554
Ni0 Zn1 2.534521 1_545
Ni0 Zn1 2.534521 1_455
Rh0 Zn0 2.534508 1_666
Rh0 Zn1 2.534511 1_655
Rh0 Zn1 2.534511 1_556
Rh0 Zn1 2.534511 1_565
Rh0 Zn0 2.534521 1_566
Rh0 Zn0 2.534521 1_656
Rh0 Zn0 2.534521 1_665
Rh0 Zn1 2.534538 1_555
