# generated using pymatgen
data_LiIn3
_symmetry_space_group_name_H-M   'P 1'
_cell_length_a   4.49285060
_cell_length_b   4.49285060
_cell_length_c   4.49284856
_cell_angle_alpha   90.00000000
_cell_angle_beta   90.00000000
_cell_angle_gamma   90.00000000
_symmetry_Int_Tables_number   1
_chemical_formula_structural   LiIn3
_chemical_formula_sum   'Li1 In3'
_cell_volume   90.69132244
_cell_formula_units_Z   1
loop_
 _symmetry_equiv_pos_site_id
 _symmetry_equiv_pos_as_xyz
  1  'x, y, z'
loop_
 _atom_site_type_symbol
 _atom_site_label
 _atom_site_symmetry_multiplicity
 _atom_site_fract_x
 _atom_site_fract_y
 _atom_site_fract_z
 _atom_site_occupancy
  Li  Li0  1  0.50000000  0.50000000  0.50000000  1
  In  In0  1  0.50000000  0.00000000  0.00000000  1
  In  In1  1  0.00000000  0.50000000  0.00000000  1
  In  In2  1  0.00000000  0.00000000  0.50000000  1
loop_
_geom_bond_atom_site_label_1
_geom_bond_atom_site_label_2
_geom_bond_distance
_geom_bond_site_symmetry_2
In0 In2 3.176924 1_654
In0 In2 3.176924 1_655
In0 In2 3.176924 1_554
In0 Li0 3.176924 1_555
In0 Li0 3.176924 1_554
In0 Li0 3.176924 1_544
In0 In2 3.176924 1_555
In0 Li0 3.176924 1_545
In0 In1 3.176925 1_655
In0 In1 3.176925 1_645
In0 In1 3.176925 1_555
In0 In1 3.176925 1_545
In1 Li0 3.176924 1_455
In1 Li0 3.176924 1_454
In1 In2 3.176924 1_565
In1 In2 3.176924 1_564
In1 In2 3.176924 1_554
In1 Li0 3.176924 1_555
In1 Li0 3.176924 1_554
In1 In2 3.176924 1_555
In2 Li0 3.176925 1_545
In2 Li0 3.176925 1_455
In2 Li0 3.176925 1_555
In2 Li0 3.176925 1_445
