# generated using pymatgen
data_LiNd9Mo16O35
_symmetry_space_group_name_H-M   'P 1'
_cell_length_a   10.15639579
_cell_length_b   10.15639579
_cell_length_c   9.90256916
_cell_angle_alpha   79.14377329
_cell_angle_beta   79.14377329
_cell_angle_gamma   50.93822972
_symmetry_Int_Tables_number   1
_chemical_formula_structural   LiNd9Mo16O35
_chemical_formula_sum   'Li1 Nd9 Mo16 O35'
_cell_volume   775.68898648
_cell_formula_units_Z   1
loop_
 _symmetry_equiv_pos_site_id
 _symmetry_equiv_pos_as_xyz
  1  'x, y, z'
loop_
 _atom_site_type_symbol
 _atom_site_label
 _atom_site_symmetry_multiplicity
 _atom_site_fract_x
 _atom_site_fract_y
 _atom_site_fract_z
 _atom_site_occupancy
  Li  Li0  1  0.00000000  0.00000000  0.00000000  1
  Nd  Nd0  1  0.61771300  0.07259700  0.20235300  1
  Nd  Nd1  1  0.92740300  0.38228700  0.79764700  1
  Nd  Nd2  1  0.38228700  0.92740300  0.79764700  1
  Nd  Nd3  1  0.07259700  0.61771300  0.20235300  1
  Nd  Nd4  1  0.29808200  0.29808200  0.53402200  1
  Nd  Nd5  1  0.70191800  0.70191800  0.46597800  1
  Nd  Nd6  1  0.69204100  0.69204100  0.06692500  1
  Nd  Nd7  1  0.30795900  0.30795900  0.93307500  1
  Nd  Nd8  1  0.50000000  0.50000000  0.00000000  1
  Mo  Mo0  1  0.73815900  0.06200000  0.82938300  1
  Mo  Mo1  1  0.93800000  0.26184100  0.17061700  1
  Mo  Mo2  1  0.26184100  0.93800000  0.17061700  1
  Mo  Mo3  1  0.06200000  0.73815900  0.82938300  1
  Mo  Mo4  1  0.78897800  0.78897800  0.74548800  1
  Mo  Mo5  1  0.21102200  0.21102200  0.25451200  1
  Mo  Mo6  1  0.72970800  0.04645000  0.55143700  1
  Mo  Mo7  1  0.95355000  0.27029200  0.44856300  1
  Mo  Mo8  1  0.27029200  0.95355000  0.44856300  1
  Mo  Mo9  1  0.04645000  0.72970800  0.55143700  1
  Mo  Mo10  1  0.99039000  0.99039000  0.35603400  1
  Mo  Mo11  1  0.00961000  0.00961000  0.64396600  1
  Mo  Mo12  1  0.31716100  0.68619500  0.35599800  1
  Mo  Mo13  1  0.31380500  0.68283900  0.64400200  1
  Mo  Mo14  1  0.68283900  0.31380500  0.64400200  1
  Mo  Mo15  1  0.68619500  0.31716100  0.35599800  1
  O  O0  1  0.50000000  0.50000000  0.50000000  1
  O  O1  1  0.56007500  0.20608400  0.40521900  1
  O  O2  1  0.79391600  0.43992500  0.59478100  1
  O  O3  1  0.43992500  0.79391600  0.59478100  1
  O  O4  1  0.20608400  0.56007500  0.40521900  1
  O  O5  1  0.89798600  0.89798600  0.98673200  1
  O  O6  1  0.10201400  0.10201400  0.01326800  1
  O  O7  1  0.49389400  0.49389400  0.23329400  1
  O  O8  1  0.50610600  0.50610600  0.76670600  1
  O  O9  1  0.54164600  0.22200700  0.69303400  1
  O  O10  1  0.77799300  0.45835400  0.30696600  1
  O  O11  1  0.45835400  0.77799300  0.30696600  1
  O  O12  1  0.22200700  0.54164600  0.69303400  1
  O  O13  1  0.60650700  0.93443600  0.60738300  1
  O  O14  1  0.06556400  0.39349300  0.39261700  1
  O  O15  1  0.39349300  0.06556400  0.39261700  1
  O  O16  1  0.93443600  0.60650700  0.60738300  1
  O  O17  1  0.77663100  0.42523200  0.01959700  1
  O  O18  1  0.57476800  0.22336900  0.98040300  1
  O  O19  1  0.22336900  0.57476800  0.98040300  1
  O  O20  1  0.42523200  0.77663100  0.01959700  1
  O  O21  1  0.67518200  0.67518200  0.81125900  1
  O  O22  1  0.32481800  0.32481800  0.18874100  1
  O  O23  1  0.61642300  0.94754500  0.88782900  1
  O  O24  1  0.05245500  0.38357700  0.11217100  1
  O  O25  1  0.38357700  0.05245500  0.11217100  1
  O  O26  1  0.94754500  0.61642300  0.88782900  1
  O  O27  1  0.76869100  0.76869100  0.23191700  1
  O  O28  1  0.23130900  0.23130900  0.76808300  1
  O  O29  1  0.87321400  0.87321400  0.39813900  1
  O  O30  1  0.12678600  0.12678600  0.60186100  1
  O  O31  1  0.85622400  0.18261300  0.79842800  1
  O  O32  1  0.81738700  0.14377600  0.20157200  1
  O  O33  1  0.14377600  0.81738700  0.20157200  1
  O  O34  1  0.18261300  0.85622400  0.79842800  1
loop_
_geom_bond_atom_site_label_1
_geom_bond_atom_site_label_2
_geom_bond_distance
_geom_bond_site_symmetry_2
Li0 O6 1.902562 1_555
Li0 O5 1.902562 1_444
Li0 O31 2.417980 1_454
Li0 O33 2.417980 1_545
Li0 O32 2.417980 1_455
Li0 O34 2.417980 1_544
Nd0 O18 2.370090 1_554
Nd0 O1 2.408132 1_555
Nd0 O27 2.414070 1_545
Nd0 O22 2.417937 1_555
Nd0 O32 2.544606 1_555
Nd0 O15 2.697957 1_555
Nd0 O25 2.824181 1_555
Nd0 O29 2.896017 1_545
Nd0 O5 2.929441 1_544
Nd1 O17 2.370090 1_556
Nd1 O2 2.408132 1_555
Nd1 O28 2.414070 1_655
Nd1 O21 2.417937 1_555
Nd1 O31 2.544606 1_555
Nd1 O16 2.697957 1_555
Nd1 O26 2.824181 1_555
Nd1 O30 2.896017 1_655
Nd1 O6 2.929441 1_656
Nd2 O20 2.370090 1_556
Nd2 O3 2.408132 1_555
Nd2 O28 2.414070 1_565
Nd2 O21 2.417937 1_555
Nd2 O34 2.544606 1_555
Nd2 O13 2.697957 1_555
Nd2 O23 2.824181 1_555
Nd2 O30 2.896017 1_565
Nd2 O6 2.929441 1_566
Nd3 O19 2.370090 1_554
Nd3 O4 2.408132 1_555
Nd3 O27 2.414070 1_455
Nd3 O22 2.417937 1_555
Nd3 O33 2.544606 1_555
Nd3 O14 2.697957 1_555
Nd3 O24 2.824181 1_555
Nd3 O29 2.896017 1_455
Nd3 O5 2.929441 1_454
Nd4 O4 2.370084 1_555
Nd4 O1 2.370084 1_555
Nd4 O28 2.384844 1_555
Nd4 O15 2.515366 1_555
Nd4 O14 2.515366 1_555
Nd4 O12 2.792116 1_555
Nd4 O9 2.792116 1_555
Nd4 O16 3.040799 1_455
Nd4 O13 3.040799 1_545
Nd5 O2 2.370084 1_555
Nd5 O3 2.370084 1_555
Nd5 O27 2.384844 1_555
Nd5 O16 2.515366 1_555
Nd5 O13 2.515366 1_555
Nd5 O10 2.792116 1_555
Nd5 O11 2.792116 1_555
Nd5 O14 3.040799 1_655
Nd5 O15 3.040799 1_565
Nd6 O27 2.367190 1_555
Nd6 O20 2.386100 1_555
Nd6 O17 2.386100 1_555
Nd6 O26 2.595548 1_554
Nd6 O23 2.595548 1_554
Nd6 O21 2.613798 1_554
Nd6 O11 2.844406 1_555
Nd6 O10 2.844406 1_555
Nd6 O24 3.008462 1_655
Nd6 O25 3.008462 1_565
Nd7 O28 2.367190 1_555
Nd7 O19 2.386100 1_555
Nd7 O18 2.386100 1_555
Nd7 O24 2.595548 1_556
Nd7 O25 2.595548 1_556
Nd7 O22 2.613798 1_556
Nd7 O12 2.844406 1_555
Nd7 O9 2.844406 1_555
Nd7 O23 3.008462 1_545
Nd7 O26 3.008462 1_455
Nd8 O7 2.289470 1_555
Nd8 O8 2.289470 1_554
Nd8 O20 2.443150 1_555
Nd8 O17 2.443150 1_555
Nd8 O18 2.443150 1_554
Nd8 O19 2.443150 1_554
Mo0 O18 2.058417 1_555
Mo0 O5 2.098769 1_545
Mo0 O23 2.122109 1_545
Mo0 O9 2.132661 1_555
Mo0 O31 2.145653 1_555
Mo1 O17 2.058417 1_555
Mo1 O6 2.098769 1_655
Mo1 O24 2.122109 1_655
Mo1 O10 2.132661 1_555
Mo1 O32 2.145653 1_555
Mo2 O20 2.058417 1_555
Mo2 O6 2.098769 1_565
Mo2 O25 2.122109 1_565
Mo2 O11 2.132661 1_555
Mo2 O33 2.145653 1_555
Mo3 O19 2.058417 1_555
Mo3 O5 2.098769 1_455
Mo3 O26 2.122109 1_455
Mo3 O12 2.132661 1_555
Mo3 O34 2.145653 1_555
Mo4 O23 2.004806 1_555
Mo4 O26 2.004806 1_555
Mo4 O21 2.052349 1_555
Mo4 O13 2.056803 1_555
Mo4 O16 2.056803 1_555
Mo5 O24 2.004806 1_555
Mo5 O25 2.004806 1_555
Mo5 O22 2.052349 1_555
Mo5 O14 2.056803 1_555
Mo5 O15 2.056803 1_555
Mo6 O1 2.056298 1_555
Mo6 O9 2.105763 1_555
Mo6 O13 2.112448 1_545
Mo6 O29 2.113090 1_545
Mo7 O2 2.056298 1_555
Mo7 O10 2.105763 1_555
Mo7 O14 2.112448 1_655
Mo7 O30 2.113090 1_655
Mo8 O3 2.056298 1_555
Mo8 O11 2.105763 1_555
Mo8 O15 2.112448 1_565
Mo8 O30 2.113090 1_565
Mo9 O4 2.056298 1_555
Mo9 O12 2.105763 1_555
Mo9 O16 2.112448 1_455
Mo9 O29 2.113090 1_455
Mo10 O29 2.101812 1_555
Mo10 O33 2.125746 1_655
Mo10 O32 2.125746 1_565
Mo11 O30 2.101812 1_555
Mo11 O34 2.125746 1_545
Mo11 O31 2.125746 1_455
Mo12 O7 2.041307 1_555
Mo12 O11 2.100859 1_555
Mo12 O33 2.122395 1_555
Mo12 O4 2.128372 1_555
Mo12 O0 2.147985 1_555
Mo13 O8 2.041307 1_555
Mo13 O12 2.100859 1_555
Mo13 O34 2.122395 1_555
Mo13 O3 2.128372 1_555
Mo13 O0 2.147985 1_555
Mo14 O8 2.041307 1_555
Mo14 O9 2.100859 1_555
Mo14 O31 2.122395 1_555
Mo14 O2 2.128372 1_555
Mo14 O0 2.147985 1_555
Mo15 O7 2.041307 1_555
Mo15 O10 2.100859 1_555
Mo15 O32 2.122395 1_555
Mo15 O1 2.128372 1_555
Mo15 O0 2.147985 1_555
