# generated using pymatgen
data_LiCo3(OF3)2
_symmetry_space_group_name_H-M   'P 1'
_cell_length_a   4.60115665
_cell_length_b   5.50591607
_cell_length_c   10.21821296
_cell_angle_alpha   97.15011546
_cell_angle_beta   89.40890584
_cell_angle_gamma   90.27011319
_symmetry_Int_Tables_number   1
_chemical_formula_structural   LiCo3(OF3)2
_chemical_formula_sum   'Li2 Co6 O4 F12'
_cell_volume   256.83566698
_cell_formula_units_Z   2
loop_
 _symmetry_equiv_pos_site_id
 _symmetry_equiv_pos_as_xyz
  1  'x, y, z'
loop_
 _atom_site_type_symbol
 _atom_site_label
 _atom_site_symmetry_multiplicity
 _atom_site_fract_x
 _atom_site_fract_y
 _atom_site_fract_z
 _atom_site_occupancy
  Li  Li0  1  0.00000000  0.00000100  0.99999900  1
  Li  Li1  1  0.50000200  0.99999800  0.50000100  1
  Co  Co0  1  0.00000000  0.49999900  0.50000000  1
  Co  Co1  1  0.96805200  0.73040700  0.24610200  1
  Co  Co2  1  0.03195100  0.26959300  0.75389800  1
  Co  Co3  1  0.49999800  0.50000200  0.00000000  1
  Co  Co4  1  0.47084600  0.27095300  0.25551700  1
  Co  Co5  1  0.52915300  0.72904400  0.74448300  1
  O  O0  1  0.69336400  0.52637200  0.17276900  1
  O  O1  1  0.18982300  0.46986500  0.33141300  1
  O  O2  1  0.81017800  0.53013500  0.66858700  1
  O  O3  1  0.30663800  0.47363300  0.82723100  1
  F  F0  1  0.19593100  0.71720300  0.07425600  1
  F  F1  1  0.68903100  0.27597400  0.42229000  1
  F  F2  1  0.31097100  0.72402100  0.57771100  1
  F  F3  1  0.80406400  0.28279900  0.92574300  1
  F  F4  1  0.30290700  0.22844000  0.07421700  1
  F  F5  1  0.80072200  0.77419500  0.42693900  1
  F  F6  1  0.19927800  0.22580000  0.57306000  1
  F  F7  1  0.69708800  0.77156200  0.92578300  1
  F  F8  1  0.77596200  0.02967400  0.18273300  1
  F  F9  1  0.27391600  0.96601300  0.31377200  1
  F  F10  1  0.72608600  0.03398500  0.68622900  1
  F  F11  1  0.22404100  0.97033000  0.81726800  1
loop_
_geom_bond_atom_site_label_1
_geom_bond_atom_site_label_2
_geom_bond_distance
_geom_bond_site_symmetry_2
Co0 O2 1.912349 1_455
Co0 O1 1.912351 1_555
Co0 F1 1.990522 1_455
Co0 F2 1.990522 1_555
Co0 F5 1.996248 1_455
Co0 F6 1.996256 1_555
Co1 O0 1.793745 1_555
Co1 F9 1.980168 1_655
Co1 F5 1.981632 1_555
Co1 F0 2.029531 1_655
Co1 O1 2.049985 1_655
Co1 F8 2.051008 1_565
Co2 O3 1.793757 1_555
Co2 F10 1.980175 1_455
Co2 F6 1.981636 1_555
Co2 F3 2.029540 1_455
Co2 O2 2.049990 1_455
Co2 F11 2.050993 1_545
Co3 F0 1.931639 1_555
Co3 F3 1.931646 1_554
Co3 F7 1.971893 1_554
Co3 F4 1.971903 1_555
Co3 O3 1.973980 1_554
Co3 O0 1.973992 1_555
Co4 O1 1.803895 1_555
Co4 F1 1.983917 1_555
Co4 F4 2.000936 1_555
Co4 O0 2.001369 1_555
Co4 F8 2.009706 1_555
Co4 F9 2.053690 1_545
Co5 O2 1.803892 1_555
Co5 F2 1.983900 1_555
Co5 F7 2.000929 1_555
Co5 O3 2.001329 1_555
Co5 F11 2.009720 1_555
Co5 F10 2.053697 1_565
F0 Li0 2.033312 1_564
F1 Li1 1.992373 1_545
F2 Li1 1.992376 1_555
F3 Li0 2.033318 1_655
F4 Li0 1.966570 1_554
F5 Li1 1.944581 1_555
F6 Li1 1.944582 1_545
F7 Li0 1.966580 1_665
F8 Li0 2.112282 1_654
F9 Li1 2.165329 1_555
F10 Li1 2.165315 1_545
F11 Li0 2.112262 1_565
