# generated using pymatgen
data_Mn7Fe3O20
_symmetry_space_group_name_H-M   'P 1'
_cell_length_a   5.82532000
_cell_length_b   5.88368961
_cell_length_c   24.37743221
_cell_angle_alpha   96.77816733
_cell_angle_beta   89.97786429
_cell_angle_gamma   119.64994475
_symmetry_Int_Tables_number   1
_chemical_formula_structural   Mn7Fe3O20
_chemical_formula_sum   'Mn14 Fe6 O40'
_cell_volume   719.41591997
_cell_formula_units_Z   2
loop_
 _symmetry_equiv_pos_site_id
 _symmetry_equiv_pos_as_xyz
  1  'x, y, z'
loop_
 _atom_site_type_symbol
 _atom_site_label
 _atom_site_symmetry_multiplicity
 _atom_site_fract_x
 _atom_site_fract_y
 _atom_site_fract_z
 _atom_site_occupancy
  Mn  Mn0  1  0.69771000  0.19717300  0.10041700  1
  Mn  Mn1  1  0.69844100  0.69761800  0.10022200  1
  Mn  Mn2  1  0.10310500  0.10143700  0.29990400  1
  Mn  Mn3  1  0.60296000  0.10130200  0.30007200  1
  Mn  Mn4  1  0.19860100  0.69678500  0.10022600  1
  Mn  Mn5  1  0.10349000  0.60107900  0.30001800  1
  Mn  Mn6  1  0.50068000  0.49986300  0.50032100  1
  Mn  Mn7  1  0.80048000  0.30433100  0.89995700  1
  Mn  Mn8  1  0.00085200  0.50095500  0.50009500  1
  Mn  Mn9  1  0.40068100  0.90106600  0.69995800  1
  Mn  Mn10  1  0.29988600  0.30232800  0.90020900  1
  Mn  Mn11  1  0.90100600  0.90114800  0.70016500  1
  Mn  Mn12  1  0.10205600  0.60267300  0.80011700  1
  Mn  Mn13  1  0.70124400  0.20054200  0.60001100  1
  Fe  Fe0  1  0.30251200  0.80089100  0.39997900  1
  Fe  Fe1  1  0.49839900  0.99871000  0.00021200  1
  Fe  Fe2  1  0.90082500  0.40034800  0.20013600  1
  Fe  Fe3  1  0.50120400  0.00115200  0.49990100  1
  Fe  Fe4  1  0.90051800  0.40098800  0.70015300  1
  Fe  Fe5  1  0.30161200  0.80350900  0.89991300  1
  O  O0  1  0.81179300  0.07156900  0.05492700  1
  O  O1  1  0.36664400  0.07070100  0.05522000  1
  O  O2  1  0.25610700  0.98789400  0.25941700  1
  O  O3  1  0.85121400  0.58396500  0.05967900  1
  O  O4  1  0.02875600  0.32300300  0.14576200  1
  O  O5  1  0.58511200  0.32437200  0.14582300  1
  O  O6  1  0.98919200  0.72720200  0.34537900  1
  O  O7  1  0.02882200  0.76698600  0.14549800  1
  O  O8  1  0.77312700  0.03274700  0.25462500  1
  O  O9  1  0.36866500  0.62716900  0.05520200  1
  O  O10  1  0.21665800  0.47509600  0.25452100  1
  O  O11  1  0.77227000  0.47570600  0.25475100  1
  O  O12  1  0.16409800  0.87266700  0.45373000  1
  O  O13  1  0.34388500  0.60554500  0.54098300  1
  O  O14  1  0.54540900  0.81021400  0.14091100  1
  O  O15  1  0.95026600  0.21411500  0.34062900  1
  O  O16  1  0.43444800  0.72722200  0.34526000  1
  O  O17  1  0.43287100  0.17108900  0.34510800  1
  O  O18  1  0.82844300  0.56211700  0.54707600  1
  O  O19  1  0.39092300  0.12952800  0.54754700  1
  O  O20  1  0.61764000  0.87163800  0.45382000  1
  O  O21  1  0.57312700  0.83822600  0.65320600  1
  O  O22  1  0.17126000  0.43228300  0.45449700  1
  O  O23  1  0.56574600  0.27094700  0.65226600  1
  O  O24  1  0.23627500  0.53140100  0.74777400  1
  O  O25  1  0.65762500  0.39691300  0.45891000  1
  O  O26  1  0.83546600  0.13028500  0.54733400  1
  O  O27  1  0.05690200  0.79557500  0.65921300  1
  O  O28  1  0.45747900  0.19965800  0.85913600  1
  O  O29  1  0.62882100  0.36966900  0.94588000  1
  O  O30  1  0.22971700  0.96454600  0.74687000  1
  O  O31  1  0.79165300  0.53166400  0.74801500  1
  O  O32  1  0.01086900  0.27083200  0.65244400  1
  O  O33  1  0.97280700  0.24175100  0.85318000  1
  O  O34  1  0.41155200  0.67267900  0.85277200  1
  O  O35  1  0.96798500  0.67486800  0.85250200  1
  O  O36  1  0.74381500  0.00628100  0.74096000  1
  O  O37  1  0.14318900  0.40732400  0.94119800  1
  O  O38  1  0.63820300  0.93196500  0.94587400  1
  O  O39  1  0.18347100  0.93017000  0.94623200  1
loop_
_geom_bond_atom_site_label_1
_geom_bond_atom_site_label_2
_geom_bond_distance
_geom_bond_site_symmetry_2
Mn0 O5 1.582751 1_555
Mn0 O0 1.584116 1_555
Mn0 O1 1.968566 1_555
Mn0 O4 1.970992 1_655
Mn0 O14 2.340185 1_545
Mn0 O3 2.341857 1_555
Mn1 O14 1.626639 1_555
Mn1 O3 1.627296 1_555
Mn1 O9 2.042818 1_555
Mn1 O7 2.051070 1_655
Mn1 O0 2.373105 1_565
Mn1 O5 2.373926 1_555
Mn2 O15 1.626582 1_455
Mn2 O2 1.627140 1_545
Mn2 O17 2.046608 1_555
Mn2 O8 2.050449 1_455
Mn2 O10 2.372677 1_555
Mn2 O6 2.376451 1_445
Mn3 O17 1.628159 1_555
Mn3 O8 1.631562 1_555
Mn3 O2 2.005370 1_545
Mn3 O15 2.007298 1_555
Mn3 O16 2.335628 1_545
Mn3 O11 2.338813 1_555
Mn4 O9 1.627388 1_555
Mn4 O7 1.631703 1_555
Mn4 O14 2.005454 1_555
Mn4 O3 2.007577 1_455
Mn4 O1 2.332410 1_565
Mn4 O4 2.338857 1_555
Mn5 O10 1.582086 1_555
Mn5 O6 1.584717 1_455
Mn5 O16 1.968968 1_555
Mn5 O11 1.971286 1_455
Mn5 O2 2.340691 1_555
Mn5 O15 2.341197 1_455
Mn6 O13 1.618387 1_555
Mn6 O25 1.620095 1_555
Mn6 O22 2.056769 1_555
Mn6 O18 2.071219 1_555
Mn6 O20 2.375737 1_555
Mn6 O19 2.386445 1_555
Mn7 O29 1.636722 1_555
Mn7 O33 1.645998 1_555
Mn7 O28 2.000316 1_555
Mn7 O37 2.006068 1_655
Mn7 O38 2.339970 1_545
Mn7 O35 2.352241 1_555
Mn8 O22 1.635300 1_555
Mn8 O18 1.645984 1_455
Mn8 O13 2.001348 1_555
Mn8 O25 2.006453 1_455
Mn8 O12 2.343049 1_555
Mn8 O26 2.350267 1_455
Mn9 O30 1.644837 1_555
Mn9 O21 1.646771 1_555
Mn9 O27 2.002126 1_555
Mn9 O36 2.002233 1_565
Mn9 O23 2.353368 1_565
Mn9 O24 2.354390 1_555
Mn10 O28 1.617220 1_555
Mn10 O37 1.620117 1_555
Mn10 O29 2.052929 1_555
Mn10 O33 2.074857 1_455
Mn10 O39 2.371358 1_545
Mn10 O34 2.387544 1_555
Mn11 O27 1.618092 1_655
Mn11 O36 1.620062 1_565
Mn11 O30 2.072875 1_655
Mn11 O21 2.073072 1_555
Mn11 O32 2.390272 1_665
Mn11 O31 2.391703 1_555
Mn12 O24 1.616363 1_555
Mn12 O35 1.618821 1_455
Mn12 O31 2.046065 1_455
Mn12 O34 2.051832 1_555
Mn12 O33 2.411504 1_455
Mn12 O30 2.419962 1_555
Mn13 O23 1.617239 1_555
Mn13 O26 1.620159 1_555
Mn13 O32 2.048650 1_655
Mn13 O19 2.050964 1_555
Mn13 O18 2.414058 1_555
Mn13 O21 2.420874 1_545
Fe0 O16 1.658378 1_555
Fe0 O12 1.658569 1_555
Fe0 O6 2.091312 1_455
Fe0 O20 2.093486 1_555
Fe0 O22 2.468480 1_555
Fe0 O17 2.482050 1_565
Fe1 O1 1.659347 1_565
Fe1 O38 1.662798 1_554
Fe1 O0 2.094830 1_565
Fe1 O39 2.098672 1_554
Fe1 O29 2.477130 1_564
Fe1 O9 2.490631 1_555
Fe2 O4 1.646759 1_655
Fe2 O11 1.648745 1_555
Fe2 O5 2.093798 1_555
Fe2 O10 2.097553 1_655
Fe2 O7 2.463638 1_655
Fe2 O8 2.466011 1_555
Fe3 O19 1.613909 1_555
Fe3 O20 1.615968 1_545
Fe3 O12 2.006661 1_545
Fe3 O26 2.009084 1_555
Fe3 O13 2.387403 1_545
Fe3 O25 2.387497 1_555
Fe4 O31 1.620100 1_555
Fe4 O32 1.621278 1_655
Fe4 O23 2.016404 1_555
Fe4 O24 2.017062 1_655
Fe4 O36 2.379758 1_555
Fe4 O27 2.381083 1_655
Fe5 O34 1.612972 1_555
Fe5 O39 1.616220 1_555
Fe5 O38 2.001670 1_555
Fe5 O35 2.006397 1_455
Fe5 O28 2.386958 1_565
Fe5 O37 2.392259 1_555
