# generated using pymatgen
data_Ba3NaN
_symmetry_space_group_name_H-M   'P 1'
_cell_length_a   8.54339625
_cell_length_b   8.54339429
_cell_length_c   6.98639627
_cell_angle_alpha   90.00001887
_cell_angle_beta   89.99999685
_cell_angle_gamma   120.00001879
_symmetry_Int_Tables_number   1
_chemical_formula_structural   Ba3NaN
_chemical_formula_sum   'Ba6 Na2 N2'
_cell_volume   441.61596392
_cell_formula_units_Z   2
loop_
 _symmetry_equiv_pos_site_id
 _symmetry_equiv_pos_as_xyz
  1  'x, y, z'
loop_
 _atom_site_type_symbol
 _atom_site_label
 _atom_site_symmetry_multiplicity
 _atom_site_fract_x
 _atom_site_fract_y
 _atom_site_fract_z
 _atom_site_occupancy
  Ba  Ba0  1  0.85669706  0.71339312  0.25000000  1
  Ba  Ba1  1  0.71339312  0.85669706  0.75000000  1
  Ba  Ba2  1  0.85669706  0.14330294  0.25000000  1
  Ba  Ba3  1  0.14330294  0.85669706  0.75000000  1
  Ba  Ba4  1  0.14330294  0.28660688  0.75000000  1
  Ba  Ba5  1  0.28660688  0.14330294  0.25000000  1
  Na  Na0  1  0.66666700  0.33333300  0.75000000  1
  Na  Na1  1  0.33333300  0.66666700  0.25000000  1
  N  N0  1  0.00000000  0.00000000  0.50000000  1
  N  N1  1  0.00000000  0.00000000  0.00000000  1
loop_
_geom_bond_atom_site_label_1
_geom_bond_atom_site_label_2
_geom_bond_distance
_geom_bond_site_symmetry_2
Ba0 N0 2.747238 1_665
Ba0 N1 2.747239 1_665
Ba0 Na1 4.285657 1_655
Ba0 Na1 4.285674 1_555
Ba0 Na0 4.484384 1_554
Ba0 Na0 4.484385 1_555
Ba1 N1 2.747239 1_666
Ba1 N0 2.747239 1_665
Ba1 Na0 4.285656 1_565
Ba1 Na0 4.285672 1_555
Ba1 Na1 4.484385 1_555
Ba1 Na1 4.484385 1_556
Ba2 N1 2.747234 1_655
Ba2 N0 2.747234 1_655
Ba2 Na1 4.285664 1_655
Ba2 Na1 4.285665 1_545
Ba2 Na0 4.484385 1_555
Ba2 Na0 4.484386 1_554
Ba3 N1 2.747234 1_566
Ba3 N0 2.747234 1_565
Ba3 Na0 4.285664 1_455
Ba3 Na0 4.285665 1_565
Ba3 Na1 4.484385 1_555
Ba3 Na1 4.484386 1_556
Ba4 N0 2.747238 1_555
Ba4 N1 2.747239 1_556
Ba4 Na0 4.285657 1_455
Ba4 Na0 4.285674 1_555
Ba4 Na1 4.484384 1_556
Ba4 Na1 4.484385 1_555
Ba5 N1 2.747239 1_555
Ba5 N0 2.747239 1_555
Ba5 Na1 4.285656 1_545
Ba5 Na1 4.285672 1_555
Ba5 Na0 4.484385 1_555
Ba5 Na0 4.484385 1_554
