# generated using pymatgen
data_HfZnAu2
_symmetry_space_group_name_H-M   'P 1'
_cell_length_a   4.61586283
_cell_length_b   4.61586283
_cell_length_c   4.61586283
_cell_angle_alpha   60.00000000
_cell_angle_beta   60.00000000
_cell_angle_gamma   60.00000000
_symmetry_Int_Tables_number   1
_chemical_formula_structural   HfZnAu2
_chemical_formula_sum   'Hf1 Zn1 Au2'
_cell_volume   69.54144106
_cell_formula_units_Z   1
loop_
 _symmetry_equiv_pos_site_id
 _symmetry_equiv_pos_as_xyz
  1  'x, y, z'
loop_
 _atom_site_type_symbol
 _atom_site_label
 _atom_site_symmetry_multiplicity
 _atom_site_fract_x
 _atom_site_fract_y
 _atom_site_fract_z
 _atom_site_occupancy
  Hf  Hf0  1  0.25000000  0.25000000  0.25000000  1
  Zn  Zn0  1  0.74999900  0.74999900  0.74999900  1
  Au  Au0  1  0.50000100  0.50000100  0.50000100  1
  Au  Au1  1  -0.00000000  -0.00000000  0.00000000  1
loop_
_geom_bond_atom_site_label_1
_geom_bond_atom_site_label_2
_geom_bond_distance
_geom_bond_site_symmetry_2
Au0 Zn0 2.826605 1_555
Au0 Hf0 2.826623 1_655
Au0 Hf0 2.826623 1_565
Au0 Hf0 2.826623 1_556
Au0 Zn0 2.826635 1_554
Au0 Zn0 2.826635 1_455
Au0 Zn0 2.826635 1_545
Au0 Hf0 2.826638 1_555
Au1 Zn0 2.826623 1_544
Au1 Zn0 2.826623 1_454
Au1 Zn0 2.826623 1_445
Au1 Hf0 2.826627 1_554
Au1 Hf0 2.826627 1_545
Au1 Hf0 2.826627 1_455
Au1 Hf0 2.826627 1_555
Au1 Zn0 2.826638 1_444
