# generated using pymatgen
data_PrCuSi
_symmetry_space_group_name_H-M   'P 1'
_cell_length_a   4.17728785
_cell_length_b   4.17728757
_cell_length_c   8.21806392
_cell_angle_alpha   90.00000000
_cell_angle_beta   90.00000000
_cell_angle_gamma   119.99999426
_symmetry_Int_Tables_number   1
_chemical_formula_structural   PrCuSi
_chemical_formula_sum   'Pr2 Cu2 Si2'
_cell_volume   124.19066362
_cell_formula_units_Z   2
loop_
 _symmetry_equiv_pos_site_id
 _symmetry_equiv_pos_as_xyz
  1  'x, y, z'
loop_
 _atom_site_type_symbol
 _atom_site_label
 _atom_site_symmetry_multiplicity
 _atom_site_fract_x
 _atom_site_fract_y
 _atom_site_fract_z
 _atom_site_occupancy
  Pr  Pr0  1  -0.00000000  0.00000000  0.50000000  1
  Pr  Pr1  1  -0.00000000  0.00000000  0.00000000  1
  Cu  Cu0  1  0.33333300  0.66666700  0.25000000  1
  Cu  Cu1  1  0.66666700  0.33333300  0.75000000  1
  Si  Si0  1  0.66666700  0.33333300  0.25000000  1
  Si  Si1  1  0.33333300  0.66666700  0.75000000  1
loop_
_geom_bond_atom_site_label_1
_geom_bond_atom_site_label_2
_geom_bond_distance
_geom_bond_site_symmetry_2
Pr0 Si1 3.168217 1_545
Pr0 Si0 3.168217 1_455
Pr0 Si0 3.168220 1_445
Pr0 Si1 3.168220 1_555
Pr0 Si1 3.168220 1_445
Pr0 Si0 3.168220 1_555
Pr1 Si1 3.168217 1_544
Pr1 Si0 3.168217 1_455
Pr1 Si0 3.168220 1_445
Pr1 Si1 3.168220 1_554
Pr1 Si1 3.168220 1_444
Pr1 Si0 3.168220 1_555
Cu0 Si0 2.411756 1_565
Cu0 Si0 2.411756 1_455
Cu0 Si0 2.411763 1_555
Cu0 Pr1 3.168217 1_565
Cu0 Pr0 3.168217 1_565
Cu0 Pr1 3.168220 1_555
Cu0 Pr0 3.168220 1_555
Cu0 Pr1 3.168220 1_665
Cu0 Pr0 3.168220 1_665
Cu1 Si1 2.411756 1_545
Cu1 Si1 2.411756 1_655
Cu1 Si1 2.411763 1_555
Cu1 Pr1 3.168217 1_656
Cu1 Pr0 3.168217 1_655
Cu1 Pr0 3.168220 1_665
Cu1 Pr1 3.168220 1_666
Cu1 Pr0 3.168220 1_555
Cu1 Pr1 3.168220 1_556
