# generated using pymatgen
data_Ca2SnS4
_symmetry_space_group_name_H-M   'P 1'
_cell_length_a   6.18460896
_cell_length_b   6.18460896
_cell_length_c   9.73688100
_cell_angle_alpha   90.00000000
_cell_angle_beta   90.00000000
_cell_angle_gamma   110.59572337
_symmetry_Int_Tables_number   1
_chemical_formula_structural   Ca2SnS4
_chemical_formula_sum   'Ca4 Sn2 S8'
_cell_volume   348.62618828
_cell_formula_units_Z   2
loop_
 _symmetry_equiv_pos_site_id
 _symmetry_equiv_pos_as_xyz
  1  'x, y, z'
loop_
 _atom_site_type_symbol
 _atom_site_label
 _atom_site_symmetry_multiplicity
 _atom_site_fract_x
 _atom_site_fract_y
 _atom_site_fract_z
 _atom_site_occupancy
  Ca  Ca0  1  0.52399400  0.14547100  0.25000000  1
  Ca  Ca1  1  0.14547100  0.52399400  0.75000000  1
  Ca  Ca2  1  0.79203200  0.79203200  0.50000000  1
  Ca  Ca3  1  0.79203200  0.79203200  0.00000000  1
  Sn  Sn0  1  0.09900200  0.54330200  0.25000000  1
  Sn  Sn1  1  0.54330200  0.09900200  0.75000000  1
  S  S0  1  0.05244800  0.91988500  0.25000000  1
  S  S1  1  0.91988500  0.05244800  0.75000000  1
  S  S2  1  0.50750100  0.61812000  0.25000000  1
  S  S3  1  0.61812000  0.50750100  0.75000000  1
  S  S4  1  0.88398000  0.34849600  0.44741200  1
  S  S5  1  0.34849600  0.88398000  0.55258800  1
  S  S6  1  0.88398000  0.34849600  0.05258800  1
  S  S7  1  0.34849600  0.88398000  0.94741200  1
loop_
_geom_bond_atom_site_label_1
_geom_bond_atom_site_label_2
_geom_bond_distance
_geom_bond_site_symmetry_2
Ca0 S0 2.754796 1_545
Ca0 S4 2.874257 1_555
Ca0 S6 2.874257 1_555
Ca0 S2 2.960571 1_555
Ca0 S2 3.226991 1_545
Ca0 S5 3.352461 1_545
Ca0 S7 3.352461 1_544
Ca1 S1 2.754796 1_455
Ca1 S7 2.874257 1_555
Ca1 S5 2.874257 1_555
Ca1 S3 2.960571 1_555
Ca1 S3 3.226991 1_455
Ca1 S6 3.352461 1_456
Ca1 S4 3.352461 1_455
Ca2 S0 2.872044 1_655
Ca2 S1 2.872044 1_565
Ca2 S3 2.974438 1_555
Ca2 S2 2.974438 1_555
Ca2 S4 3.034403 1_555
Ca2 S5 3.034403 1_555
Ca2 S4 3.324559 1_565
Ca2 S5 3.324559 1_655
Ca3 S0 2.872044 1_655
Ca3 S1 2.872044 1_564
Ca3 S3 2.974438 1_554
Ca3 S2 2.974438 1_555
Ca3 S6 3.034403 1_555
Ca3 S7 3.034403 1_554
Ca3 S6 3.324559 1_565
Ca3 S7 3.324559 1_654
S0 Sn0 2.445199 1_555
S1 Sn1 2.445199 1_555
S2 Sn0 2.402995 1_555
S3 Sn1 2.402995 1_555
S4 Sn0 2.405732 1_655
S5 Sn1 2.405732 1_565
S6 Sn0 2.405732 1_655
S7 Sn1 2.405732 1_565
