# generated using pymatgen
data_VCo2Ge
_symmetry_space_group_name_H-M   'P 1'
_cell_length_a   4.04895463
_cell_length_b   4.04895463
_cell_length_c   4.04895463
_cell_angle_alpha   60.00395170
_cell_angle_beta   60.00395170
_cell_angle_gamma   60.00395170
_symmetry_Int_Tables_number   1
_chemical_formula_structural   VCo2Ge
_chemical_formula_sum   'V1 Co2 Ge1'
_cell_volume   46.94103269
_cell_formula_units_Z   1
loop_
 _symmetry_equiv_pos_site_id
 _symmetry_equiv_pos_as_xyz
  1  'x, y, z'
loop_
 _atom_site_type_symbol
 _atom_site_label
 _atom_site_symmetry_multiplicity
 _atom_site_fract_x
 _atom_site_fract_y
 _atom_site_fract_z
 _atom_site_occupancy
  V  V0  1  0.75000100  0.75000100  0.75000100  1
  Co  Co0  1  0.49999821  0.49999821  0.49999821  1
  Co  Co1  1  0.00000179  0.00000179  0.00000179  1
  Ge  Ge0  1  0.25000100  0.25000100  0.25000100  1
loop_
_geom_bond_atom_site_label_1
_geom_bond_atom_site_label_2
_geom_bond_distance
_geom_bond_site_symmetry_2
Co0 Ge0 2.479366 1_555
Co0 V0 2.479422 1_555
Co0 V0 2.479582 1_545
Co0 V0 2.479582 1_554
Co0 V0 2.479582 1_455
Co0 Ge0 2.479601 1_556
Co0 Ge0 2.479601 1_655
Co0 Ge0 2.479601 1_565
Co1 Ge0 2.479386 1_555
Co1 V0 2.479402 1_444
Co1 V0 2.479589 1_445
Co1 V0 2.479589 1_454
Co1 V0 2.479589 1_544
Co1 Ge0 2.479594 1_545
Co1 Ge0 2.479594 1_554
Co1 Ge0 2.479594 1_455
Ge0 V0 2.863129 1_454
Ge0 V0 2.863129 1_445
Ge0 V0 2.863129 1_455
Ge0 V0 2.863129 1_544
Ge0 V0 2.863129 1_545
Ge0 V0 2.863129 1_554
