# generated using pymatgen
data_Lu4Ni13C4
_symmetry_space_group_name_H-M   'P 1'
_cell_length_a   8.25785320
_cell_length_b   8.25785320
_cell_length_c   3.78000839
_cell_angle_alpha   90.00000000
_cell_angle_beta   90.00000000
_cell_angle_gamma   91.38981191
_symmetry_Int_Tables_number   1
_chemical_formula_structural   Lu4Ni13C4
_chemical_formula_sum   'Lu4 Ni13 C4'
_cell_volume   257.69102909
_cell_formula_units_Z   1
loop_
 _symmetry_equiv_pos_site_id
 _symmetry_equiv_pos_as_xyz
  1  'x, y, z'
loop_
 _atom_site_type_symbol
 _atom_site_label
 _atom_site_symmetry_multiplicity
 _atom_site_fract_x
 _atom_site_fract_y
 _atom_site_fract_z
 _atom_site_occupancy
  Lu  Lu0  1  0.31382798  0.68617202  -0.00000000  1
  Lu  Lu1  1  0.68617202  0.31382798  -0.00000000  1
  Lu  Lu2  1  0.84781802  0.84781802  -0.00000000  1
  Lu  Lu3  1  0.15218198  0.15218198  -0.00000000  1
  Ni  Ni0  1  0.50000000  0.50000000  0.50000000  1
  Ni  Ni1  1  0.71533880  0.07091844  0.50000000  1
  Ni  Ni2  1  0.28466120  0.92908156  0.50000000  1
  Ni  Ni3  1  0.92908156  0.28466120  0.50000000  1
  Ni  Ni4  1  0.07091844  0.71533880  0.50000000  1
  Ni  Ni5  1  0.50000000  0.00000000  -0.00000000  1
  Ni  Ni6  1  -0.00000000  0.50000000  -0.00000000  1
  Ni  Ni7  1  0.57562058  0.79064745  0.50000000  1
  Ni  Ni8  1  0.42437942  0.20935255  0.50000000  1
  Ni  Ni9  1  0.20935255  0.42437942  0.50000000  1
  Ni  Ni10  1  0.79064745  0.57562058  0.50000000  1
  Ni  Ni11  1  0.62341223  0.62341223  -0.00000000  1
  Ni  Ni12  1  0.37658777  0.37658777  0.00000000  1
  C  C0  1  0.50000000  0.00000000  0.50000000  1
  C  C1  1  -0.00000000  0.50000000  0.50000000  1
  C  C2  1  0.94263413  0.05736587  0.50000000  1
  C  C3  1  0.05736587  0.94263413  0.50000000  1
loop_
_geom_bond_atom_site_label_1
_geom_bond_atom_site_label_2
_geom_bond_distance
_geom_bond_site_symmetry_2
Lu0 Ni11 2.620795 1_555
Lu0 Ni12 2.620795 1_555
Lu0 Ni4 2.770784 1_555
Lu0 Ni4 2.770784 1_554
Lu0 Ni2 2.770784 1_555
Lu0 Ni2 2.770784 1_554
Lu0 Ni0 2.900664 1_555
Lu0 Ni0 2.900664 1_554
Lu0 Ni5 2.981003 1_565
Lu0 Ni6 2.981003 1_555
Lu0 Ni9 2.983210 1_554
Lu0 Ni9 2.983210 1_555
Lu0 Ni7 2.983210 1_554
Lu0 Ni7 2.983210 1_555
Lu1 Ni12 2.620795 1_555
Lu1 Ni11 2.620795 1_555
Lu1 Ni1 2.770784 1_554
Lu1 Ni1 2.770784 1_555
Lu1 Ni3 2.770784 1_554
Lu1 Ni3 2.770784 1_555
Lu1 Ni0 2.900664 1_555
Lu1 Ni0 2.900664 1_554
Lu1 Ni5 2.981003 1_555
Lu1 Ni6 2.981003 1_655
Lu1 Ni10 2.983210 1_554
Lu1 Ni8 2.983210 1_554
Lu1 Ni10 2.983210 1_555
Lu1 Ni8 2.983210 1_555
Lu2 Ni11 2.588717 1_555
Lu2 Ni1 2.874176 1_564
Lu2 Ni4 2.874176 1_654
Lu2 Ni4 2.874176 1_655
Lu2 Ni1 2.874176 1_565
Lu2 Ni10 2.965801 1_554
Lu2 Ni7 2.965801 1_554
Lu2 Ni7 2.965801 1_555
Lu2 Ni10 2.965801 1_555
Lu2 Ni5 3.162924 1_565
Lu2 Ni6 3.162924 1_655
Lu3 Ni12 2.588717 1_555
Lu3 Ni2 2.874176 1_544
Lu3 Ni2 2.874176 1_545
Lu3 Ni3 2.874176 1_455
Lu3 Ni3 2.874176 1_454
Lu3 Ni9 2.965801 1_555
Lu3 Ni8 2.965801 1_554
Lu3 Ni8 2.965801 1_555
Lu3 Ni9 2.965801 1_554
Lu3 Ni5 3.162924 1_555
Lu3 Ni6 3.162924 1_555
Ni0 Ni11 2.366209 1_556
Ni0 Ni11 2.366209 1_555
Ni0 Ni12 2.366209 1_555
Ni0 Ni12 2.366209 1_556
Ni0 Ni8 2.465329 1_555
Ni0 Ni9 2.465329 1_555
Ni0 Ni7 2.465329 1_555
Ni0 Ni10 2.465329 1_555
Ni10 Ni11 2.379386 1_555
Ni10 Ni11 2.379386 1_556
Ni11 Ni7 2.379386 1_554
Ni11 Ni7 2.379386 1_555
Ni12 Ni9 2.379386 1_554
Ni12 Ni8 2.379386 1_555
Ni12 Ni9 2.379386 1_555
Ni12 Ni8 2.379386 1_554
C0 Ni7 1.852318 1_545
C0 Ni8 1.852318 1_555
C0 Ni1 1.858649 1_555
C0 Ni2 1.858649 1_545
C0 Ni5 1.890004 1_556
C0 Ni5 1.890004 1_555
C1 Ni9 1.852318 1_555
C1 Ni10 1.852318 1_455
C1 Ni4 1.858649 1_555
C1 Ni3 1.858649 1_455
C1 Ni6 1.890004 1_555
C1 Ni6 1.890004 1_556
C2 C3 1.356031 1_645
C2 Ni3 1.883013 1_555
C2 Ni1 1.883013 1_555
C2 Lu2 2.667168 1_546
C2 Lu3 2.667168 1_655
C2 Lu3 2.667168 1_656
C2 Lu2 2.667168 1_545
C3 Ni2 1.883013 1_555
C3 Ni4 1.883013 1_555
C3 Lu2 2.667168 1_455
C3 Lu3 2.667168 1_565
C3 Lu3 2.667168 1_566
C3 Lu2 2.667168 1_456
