# generated using pymatgen
data_Ta7BiO19
_symmetry_space_group_name_H-M   'P 1'
_cell_length_a   6.29948968
_cell_length_b   6.29948968
_cell_length_c   20.28602800
_cell_angle_alpha   90.00000000
_cell_angle_beta   90.00000000
_cell_angle_gamma   119.99999663
_symmetry_Int_Tables_number   1
_chemical_formula_structural   Ta7BiO19
_chemical_formula_sum   'Ta14 Bi2 O38'
_cell_volume   697.16954058
_cell_formula_units_Z   2
loop_
 _symmetry_equiv_pos_site_id
 _symmetry_equiv_pos_as_xyz
  1  'x, y, z'
loop_
 _atom_site_type_symbol
 _atom_site_label
 _atom_site_symmetry_multiplicity
 _atom_site_fract_x
 _atom_site_fract_y
 _atom_site_fract_z
 _atom_site_occupancy
  Ta  Ta0  1  0.99749600  0.64121800  0.90574300  1
  Ta  Ta1  1  0.00250400  0.64372200  0.09425700  1
  Ta  Ta2  1  0.99749600  0.35627800  0.59425700  1
  Ta  Ta3  1  0.00250400  0.35878200  0.40574300  1
  Ta  Ta4  1  0.33333300  0.66666700  0.25000000  1
  Ta  Ta5  1  0.35878200  0.35627800  0.90574300  1
  Ta  Ta6  1  0.35627800  0.35878200  0.09425700  1
  Ta  Ta7  1  0.64121800  0.64372200  0.40574300  1
  Ta  Ta8  1  0.64372200  0.64121800  0.59425700  1
  Ta  Ta9  1  0.35627800  0.99749600  0.40574300  1
  Ta  Ta10  1  0.35878200  0.00250400  0.59425700  1
  Ta  Ta11  1  0.66666700  0.33333300  0.75000000  1
  Ta  Ta12  1  0.64372200  0.00250400  0.90574300  1
  Ta  Ta13  1  0.64121800  0.99749600  0.09425700  1
  Bi  Bi0  1  0.33333300  0.66666700  0.75000000  1
  Bi  Bi1  1  0.66666700  0.33333300  0.25000000  1
  O  O0  1  0.00281500  0.75686900  0.59683700  1
  O  O1  1  0.99718500  0.75405400  0.40316300  1
  O  O2  1  0.00000000  0.60842700  0.00000000  1
  O  O3  1  0.95294000  0.57129400  0.80620800  1
  O  O4  1  0.04706000  0.61835300  0.19379200  1
  O  O5  1  0.04706000  0.42870600  0.30620800  1
  O  O6  1  0.95294000  0.38164700  0.69379200  1
  O  O7  1  0.00000000  0.39157300  0.50000000  1
  O  O8  1  0.00281500  0.24594600  0.90316300  1
  O  O9  1  0.99718500  0.24313100  0.09683700  1
  O  O10  1  0.33333300  0.66666700  0.88902100  1
  O  O11  1  0.33333300  0.66666700  0.40948600  1
  O  O12  1  0.33333300  0.66666700  0.61097900  1
  O  O13  1  0.33333300  0.66666700  0.09051400  1
  O  O14  1  0.24313100  0.24594600  0.59683700  1
  O  O15  1  0.24594600  0.24313100  0.40316300  1
  O  O16  1  0.39157300  0.39157300  0.00000000  1
  O  O17  1  0.42870600  0.38164700  0.80620800  1
  O  O18  1  0.38164700  0.42870600  0.19379200  1
  O  O19  1  0.24313100  0.99718500  0.90316300  1
  O  O20  1  0.24594600  0.00281500  0.09683700  1
  O  O21  1  0.57129400  0.61835300  0.30620800  1
  O  O22  1  0.61835300  0.57129400  0.69379200  1
  O  O23  1  0.60842700  0.60842700  0.50000000  1
  O  O24  1  0.75405400  0.75686900  0.90316300  1
  O  O25  1  0.75686900  0.75405400  0.09683700  1
  O  O26  1  0.39157300  0.00000000  0.50000000  1
  O  O27  1  0.42870600  0.04706000  0.69379200  1
  O  O28  1  0.38164700  0.95294000  0.30620800  1
  O  O29  1  0.66666700  0.33333300  0.38902100  1
  O  O30  1  0.66666700  0.33333300  0.59051400  1
  O  O31  1  0.66666700  0.33333300  0.90948600  1
  O  O32  1  0.66666700  0.33333300  0.11097900  1
  O  O33  1  0.61835300  0.04706000  0.80620800  1
  O  O34  1  0.57129400  0.95294000  0.19379200  1
  O  O35  1  0.60842700  0.00000000  0.00000000  1
  O  O36  1  0.75405400  0.99718500  0.59683700  1
  O  O37  1  0.75686900  0.00281500  0.40316300  1
loop_
_geom_bond_atom_site_label_1
_geom_bond_atom_site_label_2
_geom_bond_distance
_geom_bond_site_symmetry_2
Bi0 O17 2.442044 1_555
Bi0 O22 2.442044 1_555
Bi0 O3 2.442044 1_455
Bi0 O27 2.442044 1_565
Bi0 O6 2.442044 1_455
Bi0 O33 2.442044 1_565
Bi1 O18 2.442044 1_555
Bi1 O21 2.442044 1_555
Bi1 O34 2.442044 1_545
Bi1 O5 2.442044 1_655
Bi1 O28 2.442044 1_545
Bi1 O4 2.442044 1_655
O0 Ta10 1.988885 1_565
O0 Ta8 2.000646 1_455
O1 Ta7 1.988885 1_555
O1 Ta9 2.000646 1_655
O2 Ta0 1.924137 1_454
O2 Ta1 1.924137 1_555
O3 Ta11 2.023878 1_555
O3 Ta0 2.055777 1_555
O4 Ta4 2.023874 1_555
O4 Ta1 2.055778 1_555
O5 Ta4 2.023878 1_555
O5 Ta3 2.055777 1_555
O6 Ta11 2.023874 1_555
O6 Ta2 2.055778 1_555
O7 Ta3 1.924137 1_555
O7 Ta2 1.924137 1_455
O8 Ta5 1.988885 1_555
O8 Ta12 2.000646 1_455
O9 Ta13 1.988885 1_545
O9 Ta6 2.000646 1_655
O10 Ta0 2.068183 1_455
O10 Ta12 2.068186 1_565
O10 Ta5 2.068189 1_555
O11 Ta9 2.017103 1_555
O11 Ta3 2.017106 1_555
O11 Ta7 2.017110 1_555
O12 Ta10 2.068183 1_565
O12 Ta2 2.068186 1_455
O12 Ta8 2.068189 1_555
O13 Ta1 2.017103 1_555
O13 Ta13 2.017106 1_555
O13 Ta6 2.017110 1_555
O14 Ta2 1.988885 1_455
O14 Ta10 2.000646 1_555
O15 Ta9 1.988885 1_545
O15 Ta3 2.000646 1_555
O16 Ta6 1.924137 1_555
O16 Ta5 1.924137 1_554
O17 Ta11 2.023884 1_555
O17 Ta5 2.055777 1_555
O18 Ta4 2.023884 1_555
O18 Ta6 2.055777 1_555
O19 Ta0 1.988885 1_455
O19 Ta5 2.000646 1_565
O20 Ta6 1.988885 1_555
O20 Ta1 2.000646 1_545
O21 Ta4 2.023884 1_555
O21 Ta7 2.055777 1_555
O22 Ta11 2.023884 1_555
O22 Ta8 2.055777 1_555
O23 Ta7 1.924137 1_555
O23 Ta8 1.924137 1_555
O24 Ta12 1.988885 1_565
O24 Ta0 2.000646 1_555
O25 Ta1 1.988885 1_655
O25 Ta13 2.000646 1_555
O26 Ta10 1.924137 1_555
O26 Ta9 1.924137 1_545
O27 Ta11 2.023878 1_555
O27 Ta10 2.055777 1_555
O28 Ta4 2.023874 1_555
O28 Ta9 2.055778 1_555
O29 Ta3 2.068183 1_655
O29 Ta9 2.068186 1_545
O29 Ta7 2.068189 1_555
O30 Ta2 2.017103 1_555
O30 Ta10 2.017106 1_555
O30 Ta8 2.017110 1_555
O31 Ta12 2.017103 1_555
O31 Ta0 2.017106 1_555
O31 Ta5 2.017110 1_555
O32 Ta13 2.068183 1_545
O32 Ta1 2.068186 1_655
O32 Ta6 2.068189 1_555
O33 Ta11 2.023874 1_555
O33 Ta12 2.055778 1_555
O34 Ta4 2.023878 1_555
O34 Ta13 2.055777 1_555
O35 Ta13 1.924137 1_545
O35 Ta12 1.924137 1_554
O36 Ta8 1.988885 1_555
O36 Ta2 2.000646 1_565
O37 Ta3 1.988885 1_655
O37 Ta7 2.000646 1_545
