# generated using pymatgen
data_FeN2F5
_symmetry_space_group_name_H-M   'P 1'
_cell_length_a   5.97942000
_cell_length_b   7.56830200
_cell_length_c   10.45625200
_cell_angle_alpha   90.00000000
_cell_angle_beta   90.00000000
_cell_angle_gamma   90.00000000
_symmetry_Int_Tables_number   1
_chemical_formula_structural   FeN2F5
_chemical_formula_sum   'Fe4 N8 F20'
_cell_volume   473.18781716
_cell_formula_units_Z   4
loop_
 _symmetry_equiv_pos_site_id
 _symmetry_equiv_pos_as_xyz
  1  'x, y, z'
loop_
 _atom_site_type_symbol
 _atom_site_label
 _atom_site_symmetry_multiplicity
 _atom_site_fract_x
 _atom_site_fract_y
 _atom_site_fract_z
 _atom_site_occupancy
  Fe  Fe0  1  0.50000000  0.00000000  0.50000000  1
  Fe  Fe1  1  0.00000000  0.50000000  0.00000000  1
  Fe  Fe2  1  0.50000000  0.50000000  0.50000000  1
  Fe  Fe3  1  0.00000000  0.00000000  0.00000000  1
  N  N0  1  0.93192400  0.25000000  0.30537900  1
  N  N1  1  0.43192400  0.25000000  0.19462100  1
  N  N2  1  0.06807600  0.75000000  0.69462100  1
  N  N3  1  0.56807600  0.75000000  0.80537900  1
  N  N4  1  0.00976100  0.25000000  0.64356200  1
  N  N5  1  0.50976100  0.25000000  0.85643800  1
  N  N6  1  0.99023900  0.75000000  0.35643800  1
  N  N7  1  0.49023900  0.75000000  0.14356200  1
  F  F0  1  0.59282700  0.25000000  0.49231700  1
  F  F1  1  0.09282700  0.25000000  0.00768300  1
  F  F2  1  0.40717300  0.75000000  0.50768300  1
  F  F3  1  0.90717300  0.75000000  0.99231700  1
  F  F4  1  0.72617400  0.05286400  0.06356400  1
  F  F5  1  0.22617400  0.44713600  0.43643600  1
  F  F6  1  0.27382600  0.55286400  0.93643600  1
  F  F7  1  0.77382600  0.94713600  0.56356400  1
  F  F8  1  0.27382600  0.94713600  0.93643600  1
  F  F9  1  0.77382600  0.55286400  0.56356400  1
  F  F10  1  0.72617400  0.44713600  0.06356400  1
  F  F11  1  0.22617400  0.05286400  0.43643600  1
  F  F12  1  0.60619600  0.52909800  0.33780900  1
  F  F13  1  0.10619600  0.97090200  0.16219100  1
  F  F14  1  0.39380400  0.02909800  0.66219100  1
  F  F15  1  0.89380400  0.47090200  0.83780900  1
  F  F16  1  0.39380400  0.47090200  0.66219100  1
  F  F17  1  0.89380400  0.02909800  0.83780900  1
  F  F18  1  0.60619600  0.97090200  0.33780900  1
  F  F19  1  0.10619600  0.52909800  0.16219100  1
loop_
_geom_bond_atom_site_label_1
_geom_bond_atom_site_label_2
_geom_bond_distance
_geom_bond_site_symmetry_2
F0 Fe2 1.973445 1_555
F0 Fe0 1.973445 1_555
F1 Fe1 1.973445 1_555
F1 Fe3 1.973445 1_555
F2 Fe2 1.973445 1_555
F2 Fe0 1.973445 1_565
F3 Fe1 1.973445 1_656
F3 Fe3 1.973445 1_666
F4 Fe3 1.811806 1_655
F5 Fe2 1.811806 1_555
F6 Fe1 1.811806 1_556
F7 Fe0 1.811806 1_565
F8 Fe3 1.811806 1_566
F9 Fe2 1.811806 1_555
F10 Fe1 1.811806 1_655
F11 Fe0 1.811806 1_555
F12 Fe2 1.824232 1_555
F13 Fe3 1.824232 1_565
F14 Fe0 1.824232 1_555
F15 Fe1 1.824232 1_656
F16 Fe2 1.824232 1_555
F17 Fe3 1.824232 1_656
F18 Fe0 1.824232 1_565
F19 Fe1 1.824232 1_555
