# generated using pymatgen
data_K2As2Pd
_symmetry_space_group_name_H-M   'P 1'
_cell_length_a   6.00301851
_cell_length_b   6.51798905
_cell_length_c   7.93549515
_cell_angle_alpha   114.24792161
_cell_angle_beta   90.00000000
_cell_angle_gamma   90.00000000
_symmetry_Int_Tables_number   1
_chemical_formula_structural   K2As2Pd
_chemical_formula_sum   'K4 As4 Pd2'
_cell_volume   283.10396045
_cell_formula_units_Z   2
loop_
 _symmetry_equiv_pos_site_id
 _symmetry_equiv_pos_as_xyz
  1  'x, y, z'
loop_
 _atom_site_type_symbol
 _atom_site_label
 _atom_site_symmetry_multiplicity
 _atom_site_fract_x
 _atom_site_fract_y
 _atom_site_fract_z
 _atom_site_occupancy
  K  K0  1  0.75000000  0.42014490  0.84028880  1
  K  K1  1  0.25000000  0.57985510  0.15971120  1
  K  K2  1  0.75000000  0.79469759  0.58939618  1
  K  K3  1  0.25000000  0.20530241  0.41060382  1
  As  As0  1  0.25000000  0.70354399  0.77664748  1
  As  As1  1  0.75000000  0.29645601  0.22335252  1
  As  As2  1  0.75000000  0.92689652  0.22335252  1
  As  As3  1  0.25000000  0.07310348  0.77664748  1
  Pd  Pd0  1  0.00000000  0.00000000  0.00000000  1
  Pd  Pd1  1  0.50000000  0.00000000  0.00000000  1
loop_
_geom_bond_atom_site_label_1
_geom_bond_atom_site_label_2
_geom_bond_distance
_geom_bond_site_symmetry_2
K0 Pd0 3.769435 1_666
K0 Pd1 3.769435 1_566
K0 Pd1 3.769441 1_556
K0 Pd0 3.769441 1_656
K1 Pd0 3.769435 1_555
K1 Pd1 3.769435 1_555
K1 Pd0 3.769441 1_565
K1 Pd1 3.769441 1_565
K2 Pd1 3.328425 1_566
K2 Pd0 3.328425 1_666
K3 Pd0 3.328425 1_555
K3 Pd1 3.328425 1_555
As0 As3 2.408785 1_565
As0 Pd0 2.512852 1_566
As0 Pd1 2.512852 1_566
As0 K3 3.351982 1_555
As0 K1 3.450113 1_556
As0 K2 3.506451 1_455
As0 K2 3.506451 1_555
As0 K0 3.666397 1_455
As0 K0 3.666397 1_555
As1 As2 2.408785 1_545
As1 Pd1 2.512852 1_555
As1 Pd0 2.512852 1_655
As1 K2 3.351982 1_555
As1 K0 3.450113 1_554
As1 K3 3.506451 1_555
As1 K3 3.506451 1_655
As1 K1 3.666397 1_655
As1 K1 3.666397 1_555
As2 Pd0 2.512852 1_665
As2 Pd1 2.512852 1_565
As2 K2 3.351986 1_555
As2 K0 3.450109 1_554
As2 K3 3.506453 1_665
As2 K3 3.506453 1_565
As2 K1 3.666401 1_655
As2 K1 3.666401 1_555
As3 Pd1 2.512852 1_556
As3 Pd0 2.512852 1_556
As3 K3 3.351986 1_555
As3 K1 3.450109 1_556
As3 K2 3.506453 1_445
As3 K2 3.506453 1_545
As3 K0 3.666401 1_455
As3 K0 3.666401 1_555
Pd0 Pd1 3.001509 1_555
Pd0 Pd1 3.001509 1_455
