# generated using pymatgen
data_LiPt3
_symmetry_space_group_name_H-M   'P 1'
_cell_length_a   3.85327292
_cell_length_b   3.85327598
_cell_length_c   3.85327598
_cell_angle_alpha   90.00000000
_cell_angle_beta   90.00000000
_cell_angle_gamma   90.00000000
_symmetry_Int_Tables_number   1
_chemical_formula_structural   LiPt3
_chemical_formula_sum   'Li1 Pt3'
_cell_volume   57.21237820
_cell_formula_units_Z   1
loop_
 _symmetry_equiv_pos_site_id
 _symmetry_equiv_pos_as_xyz
  1  'x, y, z'
loop_
 _atom_site_type_symbol
 _atom_site_label
 _atom_site_symmetry_multiplicity
 _atom_site_fract_x
 _atom_site_fract_y
 _atom_site_fract_z
 _atom_site_occupancy
  Li  Li0  1  0.00000000  0.00000000  0.00000000  1
  Pt  Pt0  1  -0.00000000  0.50000000  0.50000000  1
  Pt  Pt1  1  0.50000000  0.50000000  0.00000000  1
  Pt  Pt2  1  0.50000000  0.00000000  0.50000000  1
loop_
_geom_bond_atom_site_label_1
_geom_bond_atom_site_label_2
_geom_bond_distance
_geom_bond_site_symmetry_2
Li0 Pt1 2.724676 1_545
Li0 Pt1 2.724676 1_455
Li0 Pt2 2.724676 1_455
Li0 Pt2 2.724676 1_554
Li0 Pt2 2.724676 1_454
Li0 Pt1 2.724676 1_555
Li0 Pt1 2.724676 1_445
Li0 Pt2 2.724676 1_555
Li0 Pt0 2.724678 1_545
Li0 Pt0 2.724678 1_554
Li0 Pt0 2.724678 1_555
Li0 Pt0 2.724678 1_544
Pt0 Pt2 2.724676 1_565
Pt0 Pt1 2.724676 1_456
Pt0 Pt2 2.724676 1_555
Pt0 Pt1 2.724676 1_455
Pt0 Pt1 2.724676 1_555
Pt0 Pt1 2.724676 1_556
Pt0 Pt2 2.724676 1_455
Pt0 Pt2 2.724676 1_465
Pt1 Pt2 2.724678 1_555
Pt1 Pt2 2.724678 1_564
Pt1 Pt2 2.724678 1_565
Pt1 Pt2 2.724678 1_554
