# generated using pymatgen
data_Ta6Pb4O19
_symmetry_space_group_name_H-M   'P 1'
_cell_length_a   13.03906924
_cell_length_b   13.03906924
_cell_length_c   13.03906924
_cell_angle_alpha   146.48587610
_cell_angle_beta   131.77371694
_cell_angle_gamma   60.00395821
_symmetry_Int_Tables_number   1
_chemical_formula_structural   Ta6Pb4O19
_chemical_formula_sum   'Ta12 Pb8 O38'
_cell_volume   904.52859082
_cell_formula_units_Z   2
loop_
 _symmetry_equiv_pos_site_id
 _symmetry_equiv_pos_as_xyz
  1  'x, y, z'
loop_
 _atom_site_type_symbol
 _atom_site_label
 _atom_site_symmetry_multiplicity
 _atom_site_fract_x
 _atom_site_fract_y
 _atom_site_fract_z
 _atom_site_occupancy
  Ta  Ta0  1  0.83755700  0.83474800  0.00280800  1
  Ta  Ta1  1  0.00000000  0.00000000  0.00000000  1
  Ta  Ta2  1  0.66808000  0.66808000  0.50000000  1
  Ta  Ta3  1  0.33192000  0.33192000  0.50000000  1
  Ta  Ta4  1  0.66808000  0.16808000  0.00000000  1
  Ta  Ta5  1  0.33192000  0.83192000  0.00000000  1
  Ta  Ta6  1  0.33194000  0.33474800  0.99719200  1
  Ta  Ta7  1  0.16244300  0.16525200  0.99719200  1
  Ta  Ta8  1  0.50000000  0.50000000  0.00000000  1
  Ta  Ta9  1  0.00000000  0.00000000  0.50000000  1
  Ta  Ta10  1  0.00000000  0.50000000  0.00000000  1
  Ta  Ta11  1  0.66806000  0.66525200  0.00280800  1
  Pb  Pb0  1  0.85021600  0.33386600  0.51635000  1
  Pb  Pb1  1  0.00000000  0.50000000  0.50000000  1
  Pb  Pb2  1  0.50000000  0.50000000  0.50000000  1
  Pb  Pb3  1  0.50000000  0.00000000  0.00000000  1
  Pb  Pb4  1  0.14978400  0.66613400  0.48365000  1
  Pb  Pb5  1  0.31751600  0.83386600  0.48365000  1
  Pb  Pb6  1  0.50000000  0.00000000  0.50000000  1
  Pb  Pb7  1  0.68248400  0.16613400  0.51635000  1
  O  O0  1  0.14213300  0.82598200  0.92551600  1
  O  O1  1  0.14213300  0.21661700  0.31615100  1
  O  O2  1  0.97129400  0.91634100  0.05495300  1
  O  O3  1  0.65754400  0.25000000  0.40754400  1
  O  O4  1  0.85786700  0.78338300  0.68384900  1
  O  O5  1  0.72681500  0.04457500  0.06458900  1
  O  O6  1  0.85786700  0.17401800  0.07448400  1
  O  O7  1  0.72681500  0.66222600  0.68224000  1
  O  O8  1  0.73426000  0.41921000  0.31505000  1
  O  O9  1  0.60416000  0.91921000  0.68495000  1
  O  O10  1  0.26574000  0.58079000  0.68495000  1
  O  O11  1  0.27318500  0.95542500  0.93541100  1
  O  O12  1  0.47998600  0.54457500  0.31776000  1
  O  O13  1  0.59953400  0.28338300  0.92551600  1
  O  O14  1  0.59953400  0.67401800  0.31615100  1
  O  O15  1  0.47998600  0.16222600  0.93541100  1
  O  O16  1  0.34245600  0.75000000  0.59245600  1
  O  O17  1  0.27318500  0.33777400  0.31776000  1
  O  O18  1  0.31891700  0.25000000  0.06891700  1
  O  O19  1  0.36138800  0.41634100  0.94504700  1
  O  O20  1  0.02870600  0.08365900  0.94504700  1
  O  O21  1  0.18869200  0.12061000  0.68689100  1
  O  O22  1  0.06628000  0.99819800  0.68689100  1
  O  O23  1  0.18869200  0.50180200  0.06808200  1
  O  O24  1  0.40046600  0.71661700  0.07448400  1
  O  O25  1  0.40046600  0.32598200  0.68384900  1
  O  O26  1  0.06628000  0.37939000  0.06808200  1
  O  O27  1  0.06491800  0.75000000  0.31491800  1
  O  O28  1  0.93508200  0.25000000  0.68508200  1
  O  O29  1  0.81130800  0.87939000  0.31310900  1
  O  O30  1  0.81130800  0.49819800  0.93191800  1
  O  O31  1  0.93372000  0.00180200  0.31310900  1
  O  O32  1  0.93372000  0.62061000  0.93191800  1
  O  O33  1  0.63861200  0.58365900  0.05495300  1
  O  O34  1  0.68108300  0.75000000  0.93108300  1
  O  O35  1  0.52001400  0.45542500  0.68224000  1
  O  O36  1  0.52001400  0.83777400  0.06458900  1
  O  O37  1  0.39584000  0.08079000  0.31505000  1
loop_
_geom_bond_atom_site_label_1
_geom_bond_atom_site_label_2
_geom_bond_distance
_geom_bond_site_symmetry_2
O0 Ta5 1.984205 1_556
O0 Ta1 2.011283 1_566
O0 Pb1 2.671424 1_555
O1 Ta3 1.984205 1_555
O1 Ta1 2.011283 1_555
O1 Pb1 2.671424 1_555
O2 Ta0 1.924599 1_555
O2 Ta1 1.977978 1_665
O3 Pb7 2.220606 1_555
O3 Pb0 2.220606 1_555
O3 Pb3 2.520006 1_555
O3 Pb2 2.520006 1_555
O4 Ta2 1.984205 1_555
O4 Ta1 2.011283 1_666
O4 Pb1 2.671424 1_655
O5 Ta4 2.014484 1_555
O5 Ta0 2.035668 1_545
O5 Pb3 2.716164 1_555
O6 Ta4 1.984205 1_555
O6 Ta1 2.011283 1_655
O6 Pb1 2.671424 1_655
O7 Ta2 2.014484 1_555
O7 Ta0 2.035663 1_556
O7 Pb2 2.716164 1_555
O8 Ta2 2.003530 1_555
O8 Ta4 2.003530 1_555
O8 Pb1 2.685453 1_655
O9 Ta2 2.003530 1_555
O9 Ta4 2.003530 1_566
O9 Pb6 2.685453 1_565
O10 Ta5 2.003530 1_556
O10 Ta3 2.003530 1_555
O10 Pb1 2.685453 1_555
O11 Ta5 2.014484 1_556
O11 Ta7 2.035668 1_565
O11 Pb3 2.716164 1_566
O12 Ta2 2.014484 1_555
O12 Ta6 2.035664 1_554
O12 Pb2 2.716164 1_555
O13 Ta4 1.984205 1_556
O13 Ta8 2.011283 1_556
O13 Pb6 2.671424 1_555
O14 Ta2 1.984205 1_555
O14 Ta8 2.011283 1_555
O14 Pb6 2.671424 1_565
O15 Ta4 2.014484 1_556
O15 Ta6 2.035664 1_555
O15 Pb3 2.716164 1_556
O16 Pb5 2.220606 1_555
O16 Pb4 2.220606 1_555
O16 Pb3 2.520006 1_566
O16 Pb2 2.520006 1_555
O17 Ta3 2.014484 1_555
O17 Ta7 2.035663 1_554
O17 Pb2 2.716164 1_555
O18 Ta6 2.060848 1_554
O18 Ta7 2.060860 1_554
O18 Pb3 2.693545 1_555
O18 Pb2 2.693545 1_555
O19 Ta6 1.924612 1_555
O19 Ta8 1.977978 1_556
O20 Ta7 1.924599 1_555
O20 Ta1 1.977978 1_556
O21 Ta9 1.988701 1_555
O21 Ta6 1.990665 1_555
O22 Ta9 1.988717 1_565
O22 Ta7 1.990661 1_565
O23 Ta10 1.988705 1_555
O23 Ta6 1.990668 1_554
O24 Ta5 1.984205 1_555
O24 Ta8 2.011283 1_555
O24 Pb6 2.671424 1_565
O25 Ta3 1.984205 1_555
O25 Ta8 2.011283 1_556
O25 Pb6 2.671424 1_555
O26 Ta10 1.988705 1_555
O26 Ta7 1.990665 1_554
O27 Ta10 2.002882 1_555
O27 Ta9 2.002882 1_565
O28 Ta10 2.002882 1_656
O28 Ta9 2.002882 1_655
O29 Ta9 1.988701 1_665
O29 Ta11 1.990665 1_555
O30 Ta10 1.988705 1_656
O30 Ta11 1.990668 1_556
O31 Ta9 1.988717 1_655
O31 Ta0 1.990661 1_545
O32 Ta10 1.988705 1_656
O32 Ta0 1.990665 1_556
O33 Ta11 1.924612 1_555
O33 Ta8 1.977978 1_555
O34 Ta11 2.060848 1_556
O34 Ta0 2.060860 1_556
O34 Pb2 2.693545 1_555
O34 Pb3 2.693545 1_566
O35 Ta3 2.014484 1_555
O35 Ta11 2.035664 1_556
O35 Pb2 2.716164 1_555
O36 Ta5 2.014484 1_555
O36 Ta11 2.035664 1_555
O36 Pb3 2.716164 1_565
O37 Ta5 2.003530 1_545
O37 Ta3 2.003530 1_555
O37 Pb6 2.685453 1_555
