# generated using pymatgen
data_PmIn3
_symmetry_space_group_name_H-M   'P 1'
_cell_length_a   4.67713412
_cell_length_b   4.67714369
_cell_length_c   4.67377408
_cell_angle_alpha   89.99848227
_cell_angle_beta   90.00128049
_cell_angle_gamma   90.00062832
_symmetry_Int_Tables_number   1
_chemical_formula_structural   PmIn3
_chemical_formula_sum   'Pm1 In3'
_cell_volume   102.24174467
_cell_formula_units_Z   1
loop_
 _symmetry_equiv_pos_site_id
 _symmetry_equiv_pos_as_xyz
  1  'x, y, z'
loop_
 _atom_site_type_symbol
 _atom_site_label
 _atom_site_symmetry_multiplicity
 _atom_site_fract_x
 _atom_site_fract_y
 _atom_site_fract_z
 _atom_site_occupancy
  Pm  Pm0  1  0.99999916  0.99999603  0.00000429  1
  In  In0  1  0.00000161  0.49999998  0.50000471  1
  In  In1  1  0.49999925  0.00000725  0.49999313  1
  In  In2  1  0.49999999  0.49999774  0.99999887  1
loop_
_geom_bond_atom_site_label_1
_geom_bond_atom_site_label_2
_geom_bond_distance
_geom_bond_site_symmetry_2
In0 In2 3.305984 1_555
In0 Pm0 3.305993 1_455
In0 Pm0 3.306017 1_446
In0 In2 3.306033 1_454
In0 In2 3.306069 1_455
In0 Pm0 3.306078 1_456
In0 In2 3.306096 1_554
In0 Pm0 3.306107 1_445
In0 In1 3.307202 1_455
In0 In1 3.307223 1_555
In0 In1 3.307235 1_565
In0 In1 3.307287 1_465
In1 In2 3.305955 1_554
In1 Pm0 3.305972 1_445
In1 Pm0 3.306045 1_546
In1 Pm0 3.306045 1_545
In1 In2 3.306056 1_545
In1 In2 3.306080 1_555
In1 In2 3.306105 1_544
In1 Pm0 3.306120 1_446
In2 Pm0 3.307210 1_556
In2 Pm0 3.307227 1_446
In2 Pm0 3.307252 1_456
In2 Pm0 3.307258 1_546
