# generated using pymatgen
data_Na6V2As(CO4)4
_symmetry_space_group_name_H-M   'P 1'
_cell_length_a   10.04648264
_cell_length_b   10.04648264
_cell_length_c   10.04648264
_cell_angle_alpha   60.00000000
_cell_angle_beta   60.00000000
_cell_angle_gamma   60.00000000
_symmetry_Int_Tables_number   1
_chemical_formula_structural   Na6V2As(CO4)4
_chemical_formula_sum   'Na12 V4 As2 C8 O32'
_cell_volume   717.01314265
_cell_formula_units_Z   2
loop_
 _symmetry_equiv_pos_site_id
 _symmetry_equiv_pos_as_xyz
  1  'x, y, z'
loop_
 _atom_site_type_symbol
 _atom_site_label
 _atom_site_symmetry_multiplicity
 _atom_site_fract_x
 _atom_site_fract_y
 _atom_site_fract_z
 _atom_site_occupancy
  Na  Na0  1  0.29132600  0.29132600  0.70867400  1
  Na  Na1  1  0.95867400  0.54132600  0.54132600  1
  Na  Na2  1  0.70867400  0.29132600  0.70867400  1
  Na  Na3  1  0.29132600  0.70867400  0.29132600  1
  Na  Na4  1  0.54132600  0.95867400  0.95867400  1
  Na  Na5  1  0.54132600  0.54132600  0.95867400  1
  Na  Na6  1  0.70867400  0.29132600  0.29132600  1
  Na  Na7  1  0.70867400  0.70867400  0.29132600  1
  Na  Na8  1  0.54132600  0.95867400  0.54132600  1
  Na  Na9  1  0.95867400  0.54132600  0.95867400  1
  Na  Na10  1  0.29132600  0.70867400  0.70867400  1
  Na  Na11  1  0.95867400  0.95867400  0.54132600  1
  V  V0  1  0.62500000  0.12500000  0.12500000  1
  V  V1  1  0.12500000  0.12500000  0.12500000  1
  V  V2  1  0.12500000  0.12500000  0.62500000  1
  V  V3  1  0.12500000  0.62500000  0.12500000  1
  As  As0  1  0.50000000  0.50000000  0.50000000  1
  As  As1  1  0.75000000  0.75000000  0.75000000  1
  C  C0  1  0.26778900  0.91073700  0.91073700  1
  C  C1  1  0.91073700  0.26778900  0.91073700  1
  C  C2  1  0.91073700  0.91073700  0.91073700  1
  C  C3  1  0.91073700  0.91073700  0.26778900  1
  C  C4  1  0.33926300  0.33926300  0.98221100  1
  C  C5  1  0.33926300  0.33926300  0.33926300  1
  C  C6  1  0.33926300  0.98221100  0.33926300  1
  C  C7  1  0.98221100  0.33926300  0.33926300  1
  O  O0  1  0.22593400  0.48031900  0.31389300  1
  O  O1  1  0.97985300  0.31389300  0.48031900  1
  O  O2  1  0.27014700  0.02406600  0.93610700  1
  O  O3  1  0.02406600  0.27014700  0.76968100  1
  O  O4  1  0.27014700  0.76968100  0.02406600  1
  O  O5  1  0.57013500  0.57013500  0.28959500  1
  O  O6  1  0.93610700  0.02406600  0.76968100  1
  O  O7  1  0.57013500  0.28959500  0.57013500  1
  O  O8  1  0.57013500  0.57013500  0.57013500  1
  O  O9  1  0.93610700  0.27014700  0.02406600  1
  O  O10  1  0.76968100  0.27014700  0.93610700  1
  O  O11  1  0.28959500  0.57013500  0.57013500  1
  O  O12  1  0.02406600  0.93610700  0.27014700  1
  O  O13  1  0.76968100  0.93610700  0.02406600  1
  O  O14  1  0.93610700  0.76968100  0.27014700  1
  O  O15  1  0.48031900  0.22593400  0.97985300  1
  O  O16  1  0.76968100  0.02406600  0.27014700  1
  O  O17  1  0.31389300  0.48031900  0.97985300  1
  O  O18  1  0.48031900  0.31389300  0.22593400  1
  O  O19  1  0.22593400  0.31389300  0.97985300  1
  O  O20  1  0.96040500  0.67986500  0.67986500  1
  O  O21  1  0.48031900  0.97985300  0.31389300  1
  O  O22  1  0.31389300  0.97985300  0.22593400  1
  O  O23  1  0.67986500  0.96040500  0.67986500  1
  O  O24  1  0.67986500  0.67986500  0.67986500  1
  O  O25  1  0.31389300  0.22593400  0.48031900  1
  O  O26  1  0.67986500  0.67986500  0.96040500  1
  O  O27  1  0.97985300  0.48031900  0.22593400  1
  O  O28  1  0.22593400  0.97985300  0.48031900  1
  O  O29  1  0.97985300  0.22593400  0.31389300  1
  O  O30  1  0.27014700  0.93610700  0.76968100  1
  O  O31  1  0.02406600  0.76968100  0.93610700  1
loop_
_geom_bond_atom_site_label_1
_geom_bond_atom_site_label_2
_geom_bond_distance
_geom_bond_site_symmetry_2
Na0 O11 2.420802 1_555
Na0 O7 2.420802 1_555
Na0 O3 2.534857 1_555
Na0 O2 2.534861 1_555
Na0 O19 2.565977 1_555
Na0 O25 2.565986 1_555
Na1 O20 2.420802 1_555
Na1 O24 2.420802 1_555
Na1 O0 2.534862 1_655
Na1 O1 2.534867 1_555
Na1 O14 2.565980 1_555
Na1 O3 2.565981 1_655
Na2 O7 2.420802 1_555
Na2 O8 2.420802 1_555
Na2 O6 2.534862 1_555
Na2 O10 2.534867 1_555
Na2 O1 2.565980 1_555
Na2 O15 2.565981 1_555
Na3 O5 2.420802 1_555
Na3 O11 2.420802 1_555
Na3 O4 2.534857 1_555
Na3 O12 2.534861 1_555
Na3 O22 2.565977 1_555
Na3 O0 2.565986 1_555
Na4 O26 2.420802 1_555
Na4 O23 2.420802 1_555
Na4 O15 2.534857 1_565
Na4 O22 2.534861 1_556
Na4 O2 2.565977 1_565
Na4 O13 2.565986 1_556
Na5 O26 2.420802 1_555
Na5 O24 2.420802 1_555
Na5 O18 2.534862 1_556
Na5 O17 2.534867 1_555
Na5 O10 2.565980 1_555
Na5 O4 2.565981 1_556
Na6 O5 2.420802 1_555
Na6 O7 2.420802 1_555
Na6 O16 2.534857 1_555
Na6 O9 2.534861 1_555
Na6 O29 2.565977 1_555
Na6 O18 2.565986 1_555
Na7 O5 2.420802 1_555
Na7 O8 2.420802 1_555
Na7 O13 2.534862 1_555
Na7 O14 2.534867 1_555
Na7 O21 2.565980 1_555
Na7 O27 2.565981 1_555
Na8 O23 2.420802 1_555
Na8 O24 2.420802 1_555
Na8 O25 2.534862 1_565
Na8 O21 2.534867 1_555
Na8 O30 2.565980 1_555
Na8 O16 2.565981 1_565
Na9 O26 2.420802 1_555
Na9 O20 2.420802 1_555
Na9 O27 2.534857 1_556
Na9 O19 2.534861 1_655
Na9 O9 2.565977 1_556
Na9 O31 2.565986 1_655
Na10 O11 2.420802 1_555
Na10 O8 2.420802 1_555
Na10 O31 2.534862 1_555
Na10 O30 2.534867 1_555
Na10 O17 2.565980 1_555
Na10 O28 2.565981 1_555
Na11 O23 2.420802 1_555
Na11 O20 2.420802 1_555
Na11 O28 2.534857 1_655
Na11 O29 2.534861 1_565
Na11 O12 2.565977 1_655
Na11 O6 2.565986 1_565
As0 O8 1.725935 1_555
As0 O7 1.725935 1_555
As0 O5 1.725935 1_555
As0 O11 1.725935 1_555
As1 O20 1.725935 1_555
As1 O23 1.725935 1_555
As1 O26 1.725935 1_555
As1 O24 1.725935 1_555
C0 O30 1.298082 1_555
C0 O4 1.298086 1_556
C0 O2 1.298092 1_565
C1 O10 1.298082 1_555
C1 O3 1.298086 1_655
C1 O9 1.298092 1_556
C2 O31 1.298087 1_655
C2 O13 1.298087 1_556
C2 O6 1.298087 1_565
C3 O14 1.298082 1_555
C3 O16 1.298086 1_565
C3 O12 1.298092 1_655
C4 O17 1.298082 1_555
C4 O15 1.298086 1_555
C4 O19 1.298092 1_555
C5 O25 1.298087 1_555
C5 O18 1.298087 1_555
C5 O0 1.298087 1_555
C6 O21 1.298082 1_555
C6 O28 1.298086 1_555
C6 O22 1.298092 1_555
C7 O1 1.298082 1_555
C7 O27 1.298086 1_555
C7 O29 1.298092 1_555
O0 V3 2.105789 1_555
O1 V2 2.105795 1_655
O2 V1 2.105789 1_556
O3 V2 2.105797 1_555
O4 V3 2.105797 1_555
O6 V2 2.105789 1_655
O9 V1 2.105789 1_655
O10 V0 2.105795 1_556
O12 V1 2.105789 1_565
O13 V0 2.105789 1_565
O14 V3 2.105795 1_655
O15 V0 2.105797 1_556
O16 V0 2.105797 1_555
O17 V3 2.105795 1_556
O18 V0 2.105789 1_555
O19 V1 2.105789 1_556
O21 V0 2.105795 1_565
O22 V1 2.105789 1_565
O25 V2 2.105789 1_555
O27 V3 2.105797 1_655
O28 V2 2.105797 1_565
O29 V1 2.105789 1_655
O30 V2 2.105795 1_565
O31 V3 2.105789 1_556
