# generated using pymatgen
data_LiFe8F33
_symmetry_space_group_name_H-M   'P 1'
_cell_length_a   8.79330201
_cell_length_b   8.79282851
_cell_length_c   18.58475002
_cell_angle_alpha   89.99560784
_cell_angle_beta   90.00219206
_cell_angle_gamma   119.99821930
_symmetry_Int_Tables_number   1
_chemical_formula_structural   LiFe8F33
_chemical_formula_sum   'Li2 Fe16 F66'
_cell_volume   1244.44509101
_cell_formula_units_Z   2
loop_
 _symmetry_equiv_pos_site_id
 _symmetry_equiv_pos_as_xyz
  1  'x, y, z'
loop_
 _atom_site_type_symbol
 _atom_site_label
 _atom_site_symmetry_multiplicity
 _atom_site_fract_x
 _atom_site_fract_y
 _atom_site_fract_z
 _atom_site_occupancy
  Li  Li0  1  0.33332100  0.66667000  0.06879800  1
  Li  Li1  1  0.66667900  0.33334800  0.56879800  1
  Fe  Fe0  1  0.00688200  0.67076500  0.25028300  1
  Fe  Fe1  1  0.00815500  0.34294900  0.87668500  1
  Fe  Fe2  1  0.33477600  0.99180900  0.87676200  1
  Fe  Fe3  1  0.99991700  0.99996100  0.99423300  1
  Fe  Fe4  1  0.00008300  0.00004400  0.49423300  1
  Fe  Fe5  1  0.33329600  0.66664500  0.63128300  1
  Fe  Fe6  1  0.32936600  0.33602200  0.25025200  1
  Fe  Fe7  1  0.33605100  0.32920200  0.75030300  1
  Fe  Fe8  1  0.66394900  0.99315000  0.25030300  1
  Fe  Fe9  1  0.65689900  0.66516100  0.87670700  1
  Fe  Fe10  1  0.66522400  0.65703300  0.37676200  1
  Fe  Fe11  1  0.34310100  0.00826100  0.37670700  1
  Fe  Fe12  1  0.66670400  0.33334900  0.13128300  1
  Fe  Fe13  1  0.99311800  0.66388400  0.75028300  1
  Fe  Fe14  1  0.67063400  0.00665700  0.75025200  1
  Fe  Fe15  1  0.99184500  0.33479500  0.37668500  1
  F  F0  1  0.07229600  0.87927800  0.04383300  1
  F  F1  1  0.07250200  0.85760600  0.19762000  1
  F  F2  1  0.11893800  0.92693100  0.43211000  1
  F  F3  1  0.13911200  0.86759200  0.81053600  1
  F  F4  1  0.20683900  0.80682700  0.31921000  1
  F  F5  1  0.07502100  0.54692700  0.81069300  1
  F  F6  1  0.12369200  0.59344200  0.19676500  1
  F  F7  1  0.21315500  0.74135000  0.69266200  1
  F  F8  1  0.24943500  0.79890700  0.93011300  1
  F  F9  1  0.10959600  0.51950900  0.43166700  1
  F  F10  1  0.13990900  0.54541200  0.58177300  1
  F  F11  1  0.40989000  0.89051700  0.43166500  1
  F  F12  1  0.07312100  0.19197400  0.43209800  1
  F  F13  1  0.40550600  0.86004400  0.58178900  1
  F  F14  1  0.20101800  0.45043800  0.93011300  1
  F  F15  1  0.13237600  0.27156100  0.81054700  1
  F  F16  1  0.47207400  0.92504600  0.81063200  1
  F  F17  1  0.19334300  0.39998400  0.31912300  1
  F  F18  1  0.46978300  0.87638400  0.19677900  1
  F  F19  1  0.12069100  0.19301600  0.04384200  1
  F  F20  1  0.14273200  0.21513600  0.19764900  1
  F  F21  1  0.25871400  0.47183000  0.69268300  1
  F  F22  1  0.52821700  0.78691600  0.69269400  1
  F  F23  1  0.19299700  0.12068000  0.54383500  1
  F  F24  1  0.21490800  0.14245600  0.69761300  1
  F  F25  1  0.40654100  0.53008700  0.19680100  1
  F  F26  1  0.19192900  0.07311500  0.93211100  1
  F  F27  1  0.45458100  0.59454500  0.58179600  1
  F  F28  1  0.54954800  0.75045100  0.93008700  1
  F  F29  1  0.48047600  0.59007700  0.43170400  1
  F  F30  1  0.45301800  0.52810100  0.81070500  1
  F  F31  1  0.59997400  0.79334300  0.31914300  1
  F  F32  1  0.27153100  0.13239500  0.31053900  1
  F  F33  1  0.40002600  0.19337000  0.81914300  1
  F  F34  1  0.72846900  0.86086400  0.81053900  1
  F  F35  1  0.52792600  0.45297300  0.31063200  1
  F  F36  1  0.78509200  0.92754800  0.19761300  1
  F  F37  1  0.53021700  0.40660200  0.69677900  1
  F  F38  1  0.80700300  0.92768300  0.04383500  1
  F  F39  1  0.47178300  0.25869900  0.19269400  1
  F  F40  1  0.45045200  0.20090300  0.43008700  1
  F  F41  1  0.59011000  0.48062800  0.93166500  1
  F  F42  1  0.59449400  0.45453900  0.08178900  1
  F  F43  1  0.80807100  0.88118700  0.43211100  1
  F  F44  1  0.51952400  0.10960100  0.93170400  1
  F  F45  1  0.88106200  0.80799400  0.93211000  1
  F  F46  1  0.54541900  0.13996400  0.08179600  1
  F  F47  1  0.75056500  0.54947200  0.43011300  1
  F  F48  1  0.86088800  0.72848200  0.31053600  1
  F  F49  1  0.54698200  0.07508300  0.31070500  1
  F  F50  1  0.79316100  0.59998800  0.81921000  1
  F  F51  1  0.59346000  0.12354700  0.69680100  1
  F  F52  1  0.92770400  0.80698200  0.54383300  1
  F  F53  1  0.92749800  0.78510400  0.69762000  1
  F  F54  1  0.78684500  0.52819500  0.19266200  1
  F  F55  1  0.74128600  0.21311500  0.19268300  1
  F  F56  1  0.87630800  0.46975000  0.69676500  1
  F  F57  1  0.86009100  0.40550300  0.08177300  1
  F  F58  1  0.79898200  0.24942000  0.43011300  1
  F  F59  1  0.89040400  0.40991400  0.93166700  1
  F  F60  1  0.92497900  0.47190600  0.31069300  1
  F  F61  1  0.80665700  0.20664000  0.81912300  1
  F  F62  1  0.86762400  0.13918500  0.31054700  1
  F  F63  1  0.85726800  0.07240500  0.69764900  1
  F  F64  1  0.87930900  0.07232400  0.54384200  1
  F  F65  1  0.92687900  0.11885300  0.93209800  1
loop_
_geom_bond_atom_site_label_1
_geom_bond_atom_site_label_2
_geom_bond_distance
_geom_bond_site_symmetry_2
F0 Fe3 1.748129 1_454
F1 Fe0 1.744058 1_555
F2 Fe4 1.873657 1_565
F2 Fe11 2.011831 1_565
F3 Fe2 1.946529 1_555
F3 Fe13 1.952216 1_455
F4 Fe11 1.895431 1_565
F4 Fe0 2.015047 1_555
F5 Fe13 1.891318 1_455
F5 Fe1 2.002972 1_555
F6 Fe0 1.790260 1_555
F7 Fe5 1.882251 1_555
F7 Fe13 2.009124 1_455
F8 Fe2 1.774883 1_555
F9 Fe15 1.752910 1_455
F10 Fe5 1.749888 1_555
F11 Fe11 1.751507 1_565
F12 Fe4 1.873482 1_555
F12 Fe15 2.011360 1_455
F13 Fe5 1.749613 1_555
F14 Fe1 1.775543 1_555
F15 Fe1 1.945204 1_555
F15 Fe7 1.952029 1_555
F16 Fe14 1.889402 1_565
F16 Fe2 2.005385 1_555
F17 Fe15 1.896540 1_455
F17 Fe6 2.014470 1_555
F18 Fe8 1.790490 1_555
F19 Fe3 1.748399 1_444
F20 Fe6 1.742004 1_555
F21 Fe5 1.882263 1_555
F21 Fe7 2.008609 1_555
F22 Fe5 1.883155 1_555
F22 Fe14 2.006596 1_565
F23 Fe4 1.747370 1_555
F24 Fe7 1.743843 1_555
F25 Fe6 1.789111 1_555
F26 Fe3 1.873894 1_445
F26 Fe2 2.011256 1_545
F27 Fe5 1.749692 1_555
F28 Fe9 1.773620 1_555
F29 Fe10 1.752720 1_555
F30 Fe7 1.891595 1_555
F30 Fe9 2.002671 1_555
F31 Fe10 1.897318 1_555
F31 Fe8 2.012780 1_555
F32 Fe11 1.945823 1_555
F32 Fe6 1.951650 1_555
F33 Fe2 1.897325 1_545
F33 Fe7 2.012780 1_555
F34 Fe9 1.945816 1_555
F34 Fe14 1.951657 1_565
F35 Fe6 1.889404 1_555
F35 Fe10 2.005380 1_555
F36 Fe8 1.743838 1_555
F37 Fe7 1.790490 1_555
F38 Fe3 1.747370 1_554
F39 Fe12 1.883155 1_555
F39 Fe6 2.006590 1_555
F40 Fe11 1.773626 1_555
F41 Fe9 1.751506 1_555
F42 Fe12 1.749620 1_555
F43 Fe4 1.873893 1_665
F43 Fe10 2.011262 1_555
F44 Fe2 1.752720 1_545
F45 Fe3 1.873651 1_555
F45 Fe9 2.011831 1_555
F46 Fe12 1.749692 1_555
F47 Fe10 1.774883 1_555
F48 Fe10 1.946527 1_555
F48 Fe0 1.952231 1_655
F49 Fe8 1.891601 1_545
F49 Fe11 2.002669 1_555
F50 Fe9 1.895437 1_555
F50 Fe13 2.015046 1_555
F51 Fe14 1.789105 1_555
F52 Fe4 1.748129 1_665
F53 Fe13 1.744052 1_555
F54 Fe12 1.882251 1_555
F54 Fe0 2.009123 1_655
F55 Fe12 1.882270 1_555
F55 Fe8 2.008609 1_545
F56 Fe13 1.790266 1_555
F57 Fe12 1.749888 1_555
F58 Fe15 1.775542 1_555
F59 Fe1 1.752921 1_655
F60 Fe0 1.891311 1_655
F60 Fe15 2.002966 1_555
F61 Fe1 1.896540 1_655
F61 Fe14 2.014460 1_555
F62 Fe15 1.945209 1_555
F62 Fe8 1.952031 1_545
F63 Fe14 1.742004 1_555
F64 Fe4 1.748393 1_655
F65 Fe3 1.873482 1_545
F65 Fe1 2.011353 1_655
