# generated using pymatgen
data_Sc2NiIr
_symmetry_space_group_name_H-M   'P 1'
_cell_length_a   4.51241962
_cell_length_b   4.51241966
_cell_length_c   4.51241964
_cell_angle_alpha   60.00042993
_cell_angle_beta   60.00042973
_cell_angle_gamma   60.00042900
_symmetry_Int_Tables_number   1
_chemical_formula_structural   Sc2NiIr
_chemical_formula_sum   'Sc2 Ni1 Ir1'
_cell_volume   64.97071916
_cell_formula_units_Z   1
loop_
 _symmetry_equiv_pos_site_id
 _symmetry_equiv_pos_as_xyz
  1  'x, y, z'
loop_
 _atom_site_type_symbol
 _atom_site_label
 _atom_site_symmetry_multiplicity
 _atom_site_fract_x
 _atom_site_fract_y
 _atom_site_fract_z
 _atom_site_occupancy
  Sc  Sc0  1  -0.00000018  -0.00000017  -0.00000018  1
  Sc  Sc1  1  0.50000097  0.50000097  0.50000098  1
  Ni  Ni0  1  0.74999913  0.74999913  0.74999913  1
  Ir  Ir0  1  0.25000008  0.25000007  0.25000007  1
loop_
_geom_bond_atom_site_label_1
_geom_bond_atom_site_label_2
_geom_bond_distance
_geom_bond_site_symmetry_2
Ni0 Sc1 2.763252 1_555
Ni0 Sc0 2.763280 1_666
Ni0 Sc0 2.763294 1_656
Ni0 Sc0 2.763294 1_566
Ni0 Sc0 2.763294 1_665
Ni0 Sc1 2.763303 1_655
Ni0 Sc1 2.763303 1_565
Ni0 Sc1 2.763303 1_556
Ir0 Sc0 2.763275 1_555
Ir0 Sc1 2.763282 1_555
Ir0 Sc1 2.763293 1_554
Ir0 Sc1 2.763293 1_545
Ir0 Sc1 2.763293 1_455
Ir0 Sc0 2.763295 1_655
Ir0 Sc0 2.763295 1_556
Ir0 Sc0 2.763295 1_565
