# generated using pymatgen
data_Tm(Al2Cu)4
_symmetry_space_group_name_H-M   'P 1'
_cell_length_a   5.07246395
_cell_length_b   6.65980502
_cell_length_c   6.65980502
_cell_angle_alpha   98.37870072
_cell_angle_beta   67.61509649
_cell_angle_gamma   112.38490351
_symmetry_Int_Tables_number   1
_chemical_formula_structural   Tm(Al2Cu)4
_chemical_formula_sum   'Tm1 Al8 Cu4'
_cell_volume   192.35046073
_cell_formula_units_Z   1
loop_
 _symmetry_equiv_pos_site_id
 _symmetry_equiv_pos_as_xyz
  1  'x, y, z'
loop_
 _atom_site_type_symbol
 _atom_site_label
 _atom_site_symmetry_multiplicity
 _atom_site_fract_x
 _atom_site_fract_y
 _atom_site_fract_z
 _atom_site_occupancy
  Tm  Tm0  1  -0.00000000  -0.00000000  0.00000000  1
  Al  Al0  1  0.50000000  0.21776821  0.21776821  1
  Al  Al1  1  0.28209343  0.78209343  0.21790557  1
  Al  Al2  1  0.65215532  0.65215432  0.34784468  1
  Al  Al3  1  0.00000000  0.34796964  0.34796964  1
  Al  Al4  1  0.34784568  0.34784468  0.65215432  1
  Al  Al5  1  -0.00000000  0.65203036  0.65203036  1
  Al  Al6  1  0.71790757  0.21790557  0.78209343  1
  Al  Al7  1  0.50000000  0.78223079  0.78223079  1
  Cu  Cu0  1  0.00000100  0.50000100  0.00000000  1
  Cu  Cu1  1  0.50000000  0.50000100  0.00000000  1
  Cu  Cu2  1  -0.00000000  -0.00000000  0.50000100  1
  Cu  Cu3  1  0.49999900  -0.00000000  0.50000100  1
loop_
_geom_bond_atom_site_label_1
_geom_bond_atom_site_label_2
_geom_bond_distance
_geom_bond_site_symmetry_2
Al0 Cu3 2.535889 1_555
Al0 Cu2 2.535889 1_555
Al0 Cu1 2.535891 1_555
Al0 Cu0 2.535891 1_655
Al0 Al3 2.777972 1_655
Al0 Al3 2.777972 1_555
Al0 Al4 2.791674 1_555
Al0 Al2 2.791674 1_555
Al0 Tm0 3.166417 1_555
Al0 Tm0 3.166417 1_655
Al1 Cu0 2.534267 1_555
Al1 Cu1 2.534269 1_555
Al1 Cu2 2.534283 1_565
Al1 Cu3 2.534285 1_565
Al1 Al2 2.777407 1_455
Al1 Al2 2.777416 1_555
Al1 Al3 2.791337 1_555
Al1 Al5 2.791341 1_555
Al1 Tm0 3.168046 1_565
Al1 Tm0 3.168050 1_665
Al2 Al4 2.651198 1_555
Al2 Cu0 2.659137 1_655
Al2 Cu1 2.659140 1_555
Al2 Cu2 2.659149 1_665
Al2 Cu3 2.659151 1_565
Al2 Al7 2.791674 1_555
Al2 Tm0 3.030487 1_665
Al3 Al5 2.646904 1_555
Al3 Cu0 2.660702 1_555
Al3 Cu1 2.660702 1_555
Al3 Cu2 2.660705 1_555
Al3 Cu3 2.660705 1_455
Al3 Al6 2.791337 1_455
Al3 Tm0 3.029139 1_555
Al4 Cu3 2.659135 1_555
Al4 Cu2 2.659137 1_555
Al4 Cu1 2.659146 1_556
Al4 Cu0 2.659149 1_556
Al4 Al6 2.777407 1_455
Al4 Al6 2.777416 1_555
Al4 Al7 2.791674 1_555
Al4 Tm0 3.030487 1_556
Al5 Cu2 2.660698 1_565
Al5 Cu3 2.660698 1_565
Al5 Cu0 2.660700 1_556
Al5 Cu1 2.660700 1_456
Al5 Al7 2.777969 1_555
Al5 Al7 2.777969 1_455
Al5 Al6 2.791341 1_455
Al5 Tm0 3.029139 1_566
Al6 Cu2 2.534267 1_655
Al6 Cu3 2.534274 1_555
Al6 Cu0 2.534283 1_656
Al6 Cu1 2.534290 1_556
Al6 Tm0 3.168042 1_656
Al6 Tm0 3.168054 1_556
Al7 Cu1 2.535879 1_556
Al7 Cu0 2.535879 1_556
Al7 Cu3 2.535882 1_565
Al7 Cu2 2.535882 1_665
Al7 Tm0 3.166422 1_566
Al7 Tm0 3.166422 1_666
Cu0 Cu1 2.536227 1_555
Cu0 Cu1 2.536237 1_455
Cu0 Tm0 3.329898 1_565
Cu0 Tm0 3.329907 1_555
Cu1 Tm0 3.329898 1_665
Cu1 Tm0 3.329907 1_555
Cu2 Cu3 2.536227 1_555
Cu2 Cu3 2.536237 1_455
Cu2 Tm0 3.329896 1_556
Cu2 Tm0 3.329909 1_555
Cu3 Tm0 3.329896 1_556
Cu3 Tm0 3.329909 1_655
