# generated using pymatgen
data_RbTh3F13
_symmetry_space_group_name_H-M   'P 1'
_cell_length_a   7.13203100
_cell_length_b   8.04958100
_cell_length_c   8.86991400
_cell_angle_alpha   90.00000000
_cell_angle_beta   90.00000000
_cell_angle_gamma   90.00000000
_symmetry_Int_Tables_number   1
_chemical_formula_structural   RbTh3F13
_chemical_formula_sum   'Rb2 Th6 F26'
_cell_volume   509.22053185
_cell_formula_units_Z   2
loop_
 _symmetry_equiv_pos_site_id
 _symmetry_equiv_pos_as_xyz
  1  'x, y, z'
loop_
 _atom_site_type_symbol
 _atom_site_label
 _atom_site_symmetry_multiplicity
 _atom_site_fract_x
 _atom_site_fract_y
 _atom_site_fract_z
 _atom_site_occupancy
  Rb  Rb0  1  0.97825900  0.50000000  0.69283200  1
  Rb  Rb1  1  0.02174100  0.50000000  0.19283200  1
  Th  Th0  1  0.47766700  0.75596200  0.92479100  1
  Th  Th1  1  0.52233300  0.24403800  0.42479100  1
  Th  Th2  1  0.47766700  0.24403800  0.92479100  1
  Th  Th3  1  0.52233300  0.75596200  0.42479100  1
  Th  Th4  1  0.98639900  0.00000000  0.04759100  1
  Th  Th5  1  0.01360100  0.00000000  0.54759100  1
  F  F0  1  0.65286700  0.50000000  0.93805100  1
  F  F1  1  0.34713300  0.50000000  0.43805100  1
  F  F2  1  0.56767400  0.68684400  0.67975200  1
  F  F3  1  0.43232600  0.31315600  0.17975200  1
  F  F4  1  0.56767400  0.31315600  0.67975200  1
  F  F5  1  0.43232600  0.68684400  0.17975200  1
  F  F6  1  0.76594000  0.22307400  0.06080100  1
  F  F7  1  0.23406000  0.77692600  0.56080100  1
  F  F8  1  0.76594000  0.77692600  0.06080100  1
  F  F9  1  0.23406000  0.22307400  0.56080100  1
  F  F10  1  0.84179100  0.24032300  0.47325300  1
  F  F11  1  0.15820900  0.75967700  0.97325300  1
  F  F12  1  0.84179100  0.75967700  0.47325300  1
  F  F13  1  0.15820900  0.24032300  0.97325300  1
  F  F14  1  0.95094300  0.84617100  0.75244300  1
  F  F15  1  0.04905700  0.15382900  0.25244300  1
  F  F16  1  0.95094300  0.15382900  0.75244300  1
  F  F17  1  0.04905700  0.84617100  0.25244300  1
  F  F18  1  0.68008100  0.50000000  0.36786200  1
  F  F19  1  0.31991900  0.50000000  0.86786200  1
  F  F20  1  0.33524200  0.00000000  0.78908300  1
  F  F21  1  0.66475800  0.00000000  0.28908300  1
  F  F22  1  0.66396100  0.00000000  0.89229300  1
  F  F23  1  0.33603900  0.00000000  0.39229300  1
  F  F24  1  0.63496900  0.00000000  0.56870700  1
  F  F25  1  0.36503100  0.00000000  0.06870700  1
loop_
_geom_bond_atom_site_label_1
_geom_bond_atom_site_label_2
_geom_bond_distance
_geom_bond_site_symmetry_2
F0 Th0 2.412542 1_555
F0 Th2 2.412542 1_555
F0 Rb0 3.180662 1_555
F1 Th1 2.412542 1_555
F1 Th3 2.412542 1_555
F1 Rb1 3.180662 1_555
F2 Th0 2.333585 1_555
F2 Th3 2.351259 1_555
F2 Rb0 3.294009 1_555
F3 Th1 2.333585 1_555
F3 Th2 2.351259 1_554
F3 Rb1 3.294009 1_555
F4 Th2 2.333585 1_555
F4 Th1 2.351259 1_555
F4 Rb0 3.294009 1_555
F5 Th3 2.333585 1_555
F5 Th0 2.351259 1_554
F5 Rb1 3.294009 1_555
F6 Th4 2.389621 1_555
F6 Th2 2.389747 1_554
F6 Rb1 3.109486 1_655
F7 Th5 2.389621 1_565
F7 Th3 2.389747 1_555
F7 Rb0 3.109486 1_455
F8 Th4 2.389621 1_565
F8 Th0 2.389747 1_554
F8 Rb1 3.109486 1_655
F9 Th5 2.389621 1_555
F9 Th1 2.389747 1_555
F9 Rb0 3.109486 1_455
F10 Th1 2.318772 1_555
F10 Th5 2.382971 1_655
F10 Rb0 3.018269 1_555
F11 Th0 2.318772 1_555
F11 Th4 2.382971 1_466
F11 Rb1 3.018269 1_556
F12 Th3 2.318772 1_555
F12 Th5 2.382971 1_665
F12 Rb0 3.018269 1_555
F13 Th2 2.318772 1_555
F13 Th4 2.382971 1_456
F13 Rb1 3.018269 1_556
F14 Th5 2.243779 1_665
F14 Rb0 2.842936 1_555
F14 Th4 2.907031 1_566
F15 Th4 2.243779 1_455
F15 Rb1 2.842936 1_555
F15 Th5 2.907031 1_555
F16 Th5 2.243779 1_655
F16 Rb0 2.842936 1_555
F16 Th4 2.907031 1_556
F17 Th4 2.243779 1_465
F17 Rb1 2.842936 1_555
F17 Th5 2.907031 1_565
F18 Th1 2.401238 1_555
F18 Th3 2.401238 1_555
F18 Rb1 2.889275 1_655
F19 Th0 2.401238 1_555
F19 Th2 2.401238 1_555
F19 Rb0 2.889275 1_455
F20 Th2 2.517862 1_555
F20 Th0 2.517862 1_545
F21 Th3 2.517862 1_545
F21 Th1 2.517862 1_555
F22 Th0 2.388995 1_545
F22 Th2 2.388995 1_555
F22 Th4 2.680631 1_556
F23 Th3 2.388995 1_545
F23 Th1 2.388995 1_555
F23 Th5 2.680631 1_555
F24 Th3 2.476635 1_545
F24 Th1 2.476635 1_555
F24 Th5 2.706903 1_655
F25 Th2 2.476635 1_554
F25 Th0 2.476635 1_544
F25 Th4 2.706903 1_455
