# generated using pymatgen
data_Cr
_symmetry_space_group_name_H-M   'P 1'
_cell_length_a   4.88718288
_cell_length_b   4.88718294
_cell_length_c   8.96330318
_cell_angle_alpha   90.00000000
_cell_angle_beta   90.00000000
_cell_angle_gamma   119.99998657
_symmetry_Int_Tables_number   1
_chemical_formula_structural   Cr
_chemical_formula_sum   Cr16
_cell_volume   185.40266125
_cell_formula_units_Z   16
loop_
 _symmetry_equiv_pos_site_id
 _symmetry_equiv_pos_as_xyz
  1  'x, y, z'
loop_
 _atom_site_type_symbol
 _atom_site_label
 _atom_site_symmetry_multiplicity
 _atom_site_fract_x
 _atom_site_fract_y
 _atom_site_fract_z
 _atom_site_occupancy
  Cr  Cr0_0  1  0.16666650  0.33333350  0.12500000  1
  Cr  Cr0_1  1  0.16666650  0.33333350  0.62500000  1
  Cr  Cr0_2  1  0.16666650  0.83333350  0.12500000  1
  Cr  Cr0_3  1  0.16666650  0.83333350  0.62500000  1
  Cr  Cr0_4  1  0.66666650  0.33333350  0.12500000  1
  Cr  Cr0_5  1  0.66666650  0.33333350  0.62500000  1
  Cr  Cr0_6  1  0.66666650  0.83333350  0.12500000  1
  Cr  Cr0_7  1  0.66666650  0.83333350  0.62500000  1
  Cr  Cr1_0  1  0.33333350  0.16666650  0.37500000  1
  Cr  Cr1_1  1  0.33333350  0.16666650  0.87500000  1
  Cr  Cr1_2  1  0.33333350  0.66666650  0.37500000  1
  Cr  Cr1_3  1  0.33333350  0.66666650  0.87500000  1
  Cr  Cr1_4  1  0.83333350  0.16666650  0.37500000  1
  Cr  Cr1_5  1  0.83333350  0.16666650  0.87500000  1
  Cr  Cr1_6  1  0.83333350  0.66666650  0.37500000  1
  Cr  Cr1_7  1  0.83333350  0.66666650  0.87500000  1
loop_
_geom_bond_atom_site_label_1
_geom_bond_atom_site_label_2
_geom_bond_distance
_geom_bond_site_symmetry_2
Cr0_0 Cr0_4 2.443591 1_455
Cr0_0 Cr0_4 2.443591 1_555
Cr0_0 Cr0_2 2.443591 1_555
Cr0_0 Cr0_2 2.443591 1_545
Cr0_0 Cr0_6 2.443592 1_555
Cr0_0 Cr0_6 2.443592 1_445
Cr0_0 Cr1_5 2.647957 1_454
Cr0_0 Cr1_4 2.647957 1_455
Cr0_0 Cr1_3 2.647957 1_554
Cr0_0 Cr1_2 2.647957 1_555
Cr0_0 Cr1_1 2.647959 1_554
Cr0_0 Cr1_0 2.647959 1_555
Cr0_1 Cr0_5 2.443591 1_455
Cr0_1 Cr0_5 2.443591 1_555
Cr0_1 Cr0_3 2.443591 1_545
Cr0_1 Cr0_3 2.443591 1_555
Cr0_1 Cr0_7 2.443592 1_555
Cr0_1 Cr0_7 2.443592 1_445
Cr0_1 Cr1_4 2.647957 1_455
Cr0_1 Cr1_5 2.647957 1_455
Cr0_1 Cr1_2 2.647957 1_555
Cr0_1 Cr1_3 2.647957 1_555
Cr0_1 Cr1_0 2.647959 1_555
Cr0_1 Cr1_1 2.647959 1_555
Cr0_2 Cr0_6 2.443591 1_555
Cr0_2 Cr0_6 2.443591 1_455
Cr0_2 Cr0_4 2.443592 1_455
Cr0_2 Cr0_4 2.443592 1_565
Cr0_2 Cr1_7 2.647957 1_454
Cr0_2 Cr1_6 2.647957 1_455
Cr0_2 Cr1_1 2.647957 1_564
Cr0_2 Cr1_0 2.647957 1_565
Cr0_2 Cr1_3 2.647959 1_554
Cr0_2 Cr1_2 2.647959 1_555
Cr0_3 Cr0_7 2.443591 1_455
Cr0_3 Cr0_7 2.443591 1_555
Cr0_3 Cr0_5 2.443592 1_455
Cr0_3 Cr0_5 2.443592 1_565
Cr0_3 Cr1_6 2.647957 1_455
Cr0_3 Cr1_7 2.647957 1_455
Cr0_3 Cr1_0 2.647957 1_565
Cr0_3 Cr1_1 2.647957 1_565
Cr0_3 Cr1_2 2.647959 1_555
Cr0_3 Cr1_3 2.647959 1_555
Cr0_4 Cr0_6 2.443591 1_545
Cr0_4 Cr0_6 2.443591 1_555
Cr0_4 Cr1_1 2.647957 1_554
Cr0_4 Cr1_0 2.647957 1_555
Cr0_4 Cr1_7 2.647957 1_554
Cr0_4 Cr1_6 2.647957 1_555
Cr0_4 Cr1_5 2.647959 1_554
Cr0_4 Cr1_4 2.647959 1_555
Cr0_5 Cr0_7 2.443591 1_555
Cr0_5 Cr0_7 2.443591 1_545
Cr0_5 Cr1_0 2.647957 1_555
Cr0_5 Cr1_1 2.647957 1_555
Cr0_5 Cr1_6 2.647957 1_555
Cr0_5 Cr1_7 2.647957 1_555
Cr0_5 Cr1_4 2.647959 1_555
Cr0_5 Cr1_5 2.647959 1_555
Cr0_6 Cr1_3 2.647957 1_554
Cr0_6 Cr1_2 2.647957 1_555
Cr0_6 Cr1_5 2.647957 1_564
Cr0_6 Cr1_4 2.647957 1_565
Cr0_6 Cr1_7 2.647959 1_554
Cr0_6 Cr1_6 2.647959 1_555
Cr0_7 Cr1_2 2.647957 1_555
Cr0_7 Cr1_3 2.647957 1_555
Cr0_7 Cr1_4 2.647957 1_565
Cr0_7 Cr1_5 2.647957 1_565
Cr0_7 Cr1_6 2.647959 1_555
Cr0_7 Cr1_7 2.647959 1_555
Cr1_0 Cr1_4 2.443591 1_455
Cr1_0 Cr1_4 2.443591 1_555
Cr1_0 Cr1_2 2.443591 1_545
Cr1_0 Cr1_2 2.443591 1_555
Cr1_0 Cr1_6 2.443592 1_555
Cr1_0 Cr1_6 2.443592 1_445
Cr1_1 Cr1_5 2.443591 1_455
Cr1_1 Cr1_5 2.443591 1_555
Cr1_1 Cr1_3 2.443591 1_545
Cr1_1 Cr1_3 2.443591 1_555
Cr1_1 Cr1_7 2.443592 1_555
Cr1_1 Cr1_7 2.443592 1_445
Cr1_2 Cr1_6 2.443591 1_455
Cr1_2 Cr1_6 2.443591 1_555
Cr1_2 Cr1_4 2.443592 1_455
Cr1_2 Cr1_4 2.443592 1_565
Cr1_3 Cr1_7 2.443591 1_455
Cr1_3 Cr1_7 2.443591 1_555
Cr1_3 Cr1_5 2.443592 1_565
Cr1_3 Cr1_5 2.443592 1_455
Cr1_4 Cr1_6 2.443591 1_545
Cr1_4 Cr1_6 2.443591 1_555
Cr1_5 Cr1_7 2.443591 1_545
Cr1_5 Cr1_7 2.443591 1_555
