# generated using pymatgen
data_CuH10SeO9
_symmetry_space_group_name_H-M   'P 1'
_cell_length_a   6.12881815
_cell_length_b   6.19740182
_cell_length_c   11.01871914
_cell_angle_alpha   77.12220633
_cell_angle_beta   82.00333656
_cell_angle_gamma   72.32933256
_symmetry_Int_Tables_number   1
_chemical_formula_structural   CuH10SeO9
_chemical_formula_sum   'Cu2 H20 Se2 O18'
_cell_volume   387.59177510
_cell_formula_units_Z   2
loop_
 _symmetry_equiv_pos_site_id
 _symmetry_equiv_pos_as_xyz
  1  'x, y, z'
loop_
 _atom_site_type_symbol
 _atom_site_label
 _atom_site_symmetry_multiplicity
 _atom_site_fract_x
 _atom_site_fract_y
 _atom_site_fract_z
 _atom_site_occupancy
  Cu  Cu0  1  0.50000000  0.00000000  0.50000000  1
  Cu  Cu1  1  0.50000000  0.50000000  0.00000000  1
  H  H0  1  0.07557900  0.59834800  0.10463400  1
  H  H1  1  0.17465300  0.31433800  0.12423300  1
  H  H2  1  0.18134200  0.32573600  0.37721000  1
  H  H3  1  0.16096900  0.41034100  0.62001500  1
  H  H4  1  0.18538400  0.59571400  0.69154100  1
  H  H5  1  0.43204600  0.31100000  0.30197600  1
  H  H6  1  0.26341700  0.72888700  0.49042200  1
  H  H7  1  0.26534900  0.90101600  0.35568700  1
  H  H8  1  0.34374600  0.85799200  0.11597300  1
  H  H9  1  0.37788300  0.20615200  0.90659300  1
  H  H10  1  0.62211700  0.79384800  0.09340700  1
  H  H11  1  0.65625400  0.14200800  0.88402700  1
  H  H12  1  0.73465100  0.09898400  0.64431300  1
  H  H13  1  0.73658300  0.27111300  0.50957800  1
  H  H14  1  0.56795400  0.68900000  0.69802400  1
  H  H15  1  0.81461600  0.40428600  0.30845900  1
  H  H16  1  0.83903100  0.58965900  0.37998500  1
  H  H17  1  0.81865800  0.67426500  0.62279000  1
  H  H18  1  0.82534700  0.68566200  0.87576700  1
  H  H19  1  0.92442100  0.40165200  0.89536600  1
  Se  Se0  1  0.11847200  0.99712200  0.78445200  1
  Se  Se1  1  0.88152800  0.00287800  0.21554800  1
  O  O0  1  0.15064000  0.03265500  0.19867200  1
  O  O1  1  0.17033600  0.12331000  0.63734800  1
  O  O2  1  0.21389800  0.46304800  0.09893900  1
  O  O3  1  0.13215800  0.16083900  0.88424800  1
  O  O4  1  0.12168700  0.58034500  0.61773300  1
  O  O5  1  0.34966200  0.29330500  0.38550600  1
  O  O6  1  0.35519100  0.81803600  0.42859600  1
  O  O7  1  0.30204300  0.73184100  0.81186800  1
  O  O8  1  0.48231700  0.76312500  0.07281100  1
  O  O9  1  0.51768300  0.23687500  0.92718900  1
  O  O10  1  0.69795700  0.26815900  0.18813200  1
  O  O11  1  0.64480900  0.18196400  0.57140400  1
  O  O12  1  0.65033800  0.70669500  0.61449400  1
  O  O13  1  0.87831300  0.41965500  0.38226700  1
  O  O14  1  0.86784200  0.83916100  0.11575100  1
  O  O15  1  0.78610200  0.53695200  0.90106100  1
  O  O16  1  0.82966400  0.87669000  0.36265200  1
  O  O17  1  0.84936000  0.96734500  0.80132800  1
loop_
_geom_bond_atom_site_label_1
_geom_bond_atom_site_label_2
_geom_bond_distance
_geom_bond_site_symmetry_2
Cu0 O11 1.968702 1_555
Cu0 O6 1.968702 1_545
Cu0 O5 2.007270 1_555
Cu0 O12 2.007270 1_545
Cu0 O16 2.384113 1_545
Cu0 O1 2.384113 1_555
Cu1 O9 1.940679 1_554
Cu1 O8 1.940679 1_555
Cu1 O2 1.978943 1_555
Cu1 O15 1.978943 1_554
Cu1 O10 2.479404 1_555
Cu1 O7 2.479404 1_554
H0 O2 1.001398 1_555
H0 O14 1.657665 1_455
H1 O2 0.993144 1_555
H2 O5 1.002562 1_555
H3 O4 1.002256 1_555
H3 O1 1.730227 1_555
H4 O4 0.984032 1_555
H5 O5 0.986618 1_555
H6 O6 0.999993 1_555
H7 O6 0.989980 1_555
H8 O8 1.001122 1_555
H8 O0 1.662718 1_565
H9 O9 0.997135 1_555
H9 O3 1.672803 1_555
H10 O8 0.997135 1_555
H10 O14 1.672799 1_555
H11 O9 1.001122 1_555
H11 O17 1.662718 1_545
H12 O11 0.989980 1_555
H13 O11 0.999993 1_555
H14 O12 0.986618 1_555
H15 O13 0.984032 1_555
H16 O13 1.002256 1_555
H16 O16 1.730227 1_555
H17 O12 1.002563 1_555
H18 O15 0.993144 1_555
H19 O15 1.001398 1_555
H19 O3 1.657667 1_655
O0 Se1 1.695023 1_455
O1 Se0 1.668072 1_545
O3 Se0 1.679378 1_545
O7 Se0 1.676371 1_555
O10 Se1 1.676371 1_555
O14 Se1 1.679387 1_565
O16 Se1 1.668072 1_565
O17 Se0 1.695023 1_655
