# generated using pymatgen
data_CoPO4
_symmetry_space_group_name_H-M   'P 1'
_cell_length_a   5.21375900
_cell_length_b   10.38731000
_cell_length_c   13.71204900
_cell_angle_alpha   90.00000000
_cell_angle_beta   90.00000000
_cell_angle_gamma   90.00000000
_symmetry_Int_Tables_number   1
_chemical_formula_structural   CoPO4
_chemical_formula_sum   'Co8 P8 O32'
_cell_volume   742.60249154
_cell_formula_units_Z   8
loop_
 _symmetry_equiv_pos_site_id
 _symmetry_equiv_pos_as_xyz
  1  'x, y, z'
loop_
 _atom_site_type_symbol
 _atom_site_label
 _atom_site_symmetry_multiplicity
 _atom_site_fract_x
 _atom_site_fract_y
 _atom_site_fract_z
 _atom_site_occupancy
  Co  Co0  1  0.06903200  0.04004300  0.24790900  1
  Co  Co1  1  0.55328800  0.22154600  0.99978400  1
  Co  Co2  1  0.55328800  0.27845400  0.49978400  1
  Co  Co3  1  0.06903200  0.45995700  0.74790900  1
  Co  Co4  1  0.93096800  0.54004300  0.24790900  1
  Co  Co5  1  0.44671200  0.72154600  0.99978400  1
  Co  Co6  1  0.44671200  0.77845400  0.49978400  1
  Co  Co7  1  0.93096800  0.95995700  0.74790900  1
  P  P0  1  0.42966100  0.02758300  0.62370600  1
  P  P1  1  0.04995600  0.21301400  0.87214900  1
  P  P2  1  0.04995600  0.28698600  0.37214900  1
  P  P3  1  0.42966100  0.47241700  0.12370600  1
  P  P4  1  0.57033900  0.52758300  0.62370600  1
  P  P5  1  0.95004400  0.71301400  0.87214900  1
  P  P6  1  0.95004400  0.78698600  0.37214900  1
  P  P7  1  0.57033900  0.97241700  0.12370600  1
  O  O0  1  0.85870200  0.99702800  0.14383200  1
  O  O1  1  0.49465300  0.04856300  0.03066900  1
  O  O2  1  0.41185300  0.01545000  0.21381400  1
  O  O3  1  0.00559100  0.06829600  0.85189900  1
  O  O4  1  0.46956900  0.17307200  0.60456500  1
  O  O5  1  0.97330900  0.20822700  0.28053800  1
  O  O6  1  0.89140800  0.25074900  0.46420800  1
  O  O7  1  0.33514000  0.24429900  0.89356100  1
  O  O8  1  0.33514000  0.25570100  0.39356100  1
  O  O9  1  0.89140800  0.24925100  0.96420800  1
  O  O10  1  0.97330900  0.29177300  0.78053800  1
  O  O11  1  0.46956900  0.32692800  0.10456500  1
  O  O12  1  0.00559100  0.43170400  0.35189900  1
  O  O13  1  0.41185300  0.48455000  0.71381400  1
  O  O14  1  0.49465300  0.45143700  0.53066900  1
  O  O15  1  0.85870200  0.50297200  0.64383200  1
  O  O16  1  0.14129800  0.49702800  0.14383200  1
  O  O17  1  0.50534700  0.54856300  0.03066900  1
  O  O18  1  0.58814700  0.51545000  0.21381400  1
  O  O19  1  0.99440900  0.56829600  0.85189900  1
  O  O20  1  0.53043100  0.67307200  0.60456500  1
  O  O21  1  0.02669100  0.70822700  0.28053800  1
  O  O22  1  0.10859200  0.75074900  0.46420800  1
  O  O23  1  0.66486000  0.74429900  0.89356100  1
  O  O24  1  0.66486000  0.75570100  0.39356100  1
  O  O25  1  0.10859200  0.74925100  0.96420800  1
  O  O26  1  0.02669100  0.79177300  0.78053800  1
  O  O27  1  0.53043100  0.82692800  0.10456500  1
  O  O28  1  0.99440900  0.93170400  0.35189900  1
  O  O29  1  0.58814700  0.98455000  0.71381400  1
  O  O30  1  0.50534700  0.95143700  0.53066900  1
  O  O31  1  0.14129800  0.00297200  0.64383200  1
loop_
_geom_bond_atom_site_label_1
_geom_bond_atom_site_label_2
_geom_bond_distance
_geom_bond_site_symmetry_2
Co0 O0 1.854409 1_445
Co0 O28 1.857693 1_445
Co0 O2 1.865094 1_555
Co0 O5 1.871147 1_455
Co1 O9 1.851626 1_555
Co1 O11 1.858235 1_556
Co1 O7 1.863053 1_555
Co1 O1 1.871202 1_556
Co2 O6 1.851626 1_555
Co2 O4 1.858235 1_555
Co2 O8 1.863053 1_555
Co2 O14 1.871202 1_555
Co3 O15 1.854409 1_455
Co3 O19 1.857693 1_455
Co3 O13 1.865094 1_555
Co3 O10 1.871147 1_455
Co4 O16 1.854409 1_655
Co4 O12 1.857693 1_655
Co4 O18 1.865094 1_555
Co4 O21 1.871147 1_655
Co5 O25 1.851626 1_555
Co5 O27 1.858235 1_556
Co5 O23 1.863053 1_555
Co5 O17 1.871202 1_556
Co6 O22 1.851626 1_555
Co6 O20 1.858235 1_555
Co6 O24 1.863053 1_555
Co6 O30 1.871202 1_555
Co7 O31 1.854409 1_665
Co7 O3 1.857693 1_665
Co7 O29 1.865094 1_555
Co7 O26 1.871147 1_655
O0 P7 1.549803 1_555
O1 P7 1.552032 1_545
O2 P7 1.552164 1_545
O3 P1 1.546062 1_555
O4 P0 1.547910 1_555
O5 P2 1.551434 1_655
O6 P2 1.555135 1_655
O7 P1 1.550039 1_555
O8 P2 1.550039 1_555
O9 P1 1.555135 1_655
O10 P1 1.551434 1_655
O11 P3 1.547910 1_555
O12 P2 1.546062 1_555
O13 P4 1.552164 1_555
O14 P4 1.552032 1_555
O15 P4 1.549803 1_555
O16 P3 1.549803 1_555
O17 P3 1.552032 1_555
O18 P3 1.552164 1_555
O19 P5 1.546062 1_555
O20 P4 1.547910 1_555
O21 P6 1.551434 1_455
O22 P6 1.555135 1_455
O23 P5 1.550039 1_555
O24 P6 1.550039 1_555
O25 P5 1.555135 1_455
O26 P5 1.551434 1_455
O27 P7 1.547910 1_555
O28 P6 1.546062 1_555
O29 P0 1.552164 1_565
O30 P0 1.552032 1_565
O31 P0 1.549803 1_555
