# generated using pymatgen
data_CuH12N2(OF2)2
_symmetry_space_group_name_H-M   'P 1'
_cell_length_a   7.32458254
_cell_length_b   6.78958116
_cell_length_c   28.29020111
_cell_angle_alpha   90.00000000
_cell_angle_beta   93.80609904
_cell_angle_gamma   90.00000000
_symmetry_Int_Tables_number   1
_chemical_formula_structural   CuH12N2(OF2)2
_chemical_formula_sum   'Cu8 H96 N16 O16 F32'
_cell_volume   1403.79264197
_cell_formula_units_Z   8
loop_
 _symmetry_equiv_pos_site_id
 _symmetry_equiv_pos_as_xyz
  1  'x, y, z'
loop_
 _atom_site_type_symbol
 _atom_site_label
 _atom_site_symmetry_multiplicity
 _atom_site_fract_x
 _atom_site_fract_y
 _atom_site_fract_z
 _atom_site_occupancy
  Cu  Cu0  1  0.13031689  0.25351287  0.93815037  1
  Cu  Cu1  1  0.14448423  0.92706166  0.31089767  1
  Cu  Cu2  1  0.36968311  0.75351287  0.56184963  1
  Cu  Cu3  1  0.35551577  0.42706166  0.18910233  1
  Cu  Cu4  1  0.64448423  0.57293834  0.81089767  1
  Cu  Cu5  1  0.63031689  0.24648713  0.43815037  1
  Cu  Cu6  1  0.85551577  0.07293834  0.68910233  1
  Cu  Cu7  1  0.86968311  0.74648713  0.06184963  1
  H  H0  1  0.99119492  0.77921618  0.85100006  1
  H  H1  1  0.97027018  0.51008279  0.77030521  1
  H  H2  1  0.99757856  0.55604205  0.60283541  1
  H  H3  1  0.00597269  0.28508982  0.85009639  1
  H  H4  1  0.01957630  0.26382353  0.47880903  1
  H  H5  1  0.08213709  0.66597226  0.73278126  1
  H  H6  1  0.13435098  0.88277099  0.89437323  1
  H  H7  1  0.02399095  0.93777955  0.40103116  1
  H  H8  1  0.09600523  0.63851924  0.89498089  1
  H  H9  1  0.10526757  0.41120895  0.72817434  1
  H  H10  1  0.10621707  0.41324668  0.34532679  1
  H  H11  1  0.16068185  0.37487151  0.52062853  1
  H  H12  1  0.14285214  0.12850469  0.51934558  1
  H  H13  1  0.21674038  0.73877396  0.85177075  1
  H  H14  1  0.34076640  0.52489247  0.80783985  1
  H  H15  1  0.22743252  0.28514285  0.85239523  1
  H  H16  1  0.12159181  0.63133399  0.37520405  1
  H  H17  1  0.13291508  0.05330427  0.22465377  1
  H  H18  1  0.13284025  0.81847957  0.22359963  1
  H  H19  1  0.13571815  0.13953025  0.02488055  1
  H  H20  1  0.11607828  0.37605370  0.02420546  1
  H  H21  1  0.23523097  0.43771900  0.39793496  1
  H  H22  1  0.25024365  0.92206777  0.39631186  1
  H  H23  1  0.27256748  0.78514285  0.64760477  1
  H  H24  1  0.15923360  0.02489247  0.69216015  1
  H  H25  1  0.28325962  0.23877396  0.64822925  1
  H  H26  1  0.35714786  0.62850469  0.98065442  1
  H  H27  1  0.24775441  0.25470236  0.47497039  1
  H  H28  1  0.33931815  0.87487151  0.97937147  1
  H  H29  1  0.25224559  0.75470236  0.02502961  1
  H  H30  1  0.24975635  0.42206777  0.10368814  1
  H  H31  1  0.26476903  0.93771900  0.10206504  1
  H  H32  1  0.39473243  0.91120895  0.77182566  1
  H  H33  1  0.40399477  0.13851924  0.60501911  1
  H  H34  1  0.36564902  0.38277099  0.60562677  1
  H  H35  1  0.41786291  0.16597226  0.76721874  1
  H  H36  1  0.38392172  0.87605370  0.47579454  1
  H  H37  1  0.36428185  0.63953025  0.47511945  1
  H  H38  1  0.36715975  0.31847957  0.27640037  1
  H  H39  1  0.49402731  0.78508982  0.64990361  1
  H  H40  1  0.36708492  0.55330427  0.27534623  1
  H  H41  1  0.37840819  0.13133399  0.12479595  1
  H  H42  1  0.50242144  0.05604205  0.89716459  1
  H  H43  1  0.51957630  0.23617647  0.97880903  1
  H  H44  1  0.52972982  0.01008279  0.72969479  1
  H  H45  1  0.39378293  0.91324668  0.15467321  1
  H  H46  1  0.50880508  0.27921618  0.64899994  1
  H  H47  1  0.52399095  0.56222045  0.90103116  1
  H  H48  1  0.47600905  0.43777955  0.09896884  1
  H  H49  1  0.49119492  0.72078382  0.35100006  1
  H  H50  1  0.60621707  0.08675332  0.84532679  1
  H  H51  1  0.47027018  0.98991721  0.27030521  1
  H  H52  1  0.48042370  0.76382353  0.02119097  1
  H  H53  1  0.49757856  0.94395795  0.10283541  1
  H  H54  1  0.62159181  0.86866601  0.87520405  1
  H  H55  1  0.63291508  0.44669573  0.72465377  1
  H  H56  1  0.50597269  0.21491018  0.35009639  1
  H  H57  1  0.63284025  0.68152043  0.72359963  1
  H  H58  1  0.63571815  0.36046975  0.52488055  1
  H  H59  1  0.61607828  0.12394630  0.52420546  1
  H  H60  1  0.58213709  0.83402774  0.23278126  1
  H  H61  1  0.63435098  0.61722901  0.39437323  1
  H  H62  1  0.59600523  0.86148076  0.39498089  1
  H  H63  1  0.60526757  0.08879105  0.22817434  1
  H  H64  1  0.73523097  0.06228100  0.89793496  1
  H  H65  1  0.75024365  0.57793223  0.89631186  1
  H  H66  1  0.74775441  0.24529764  0.97497039  1
  H  H67  1  0.66068185  0.12512849  0.02062853  1
  H  H68  1  0.75224559  0.74529764  0.52502961  1
  H  H69  1  0.64285214  0.37149531  0.01934558  1
  H  H70  1  0.71674038  0.76122604  0.35177075  1
  H  H71  1  0.84076640  0.97510753  0.30783985  1
  H  H72  1  0.72743252  0.21485715  0.35239523  1
  H  H73  1  0.74975635  0.07793223  0.60368814  1
  H  H74  1  0.76476903  0.56228100  0.60206504  1
  H  H75  1  0.88392172  0.62394630  0.97579454  1
  H  H76  1  0.86428185  0.86046975  0.97511945  1
  H  H77  1  0.86715975  0.18152043  0.77640037  1
  H  H78  1  0.86708492  0.94669573  0.77534623  1
  H  H79  1  0.87840819  0.36866601  0.62479595  1
  H  H80  1  0.77256748  0.71485715  0.14760477  1
  H  H81  1  0.65923360  0.47510753  0.19216015  1
  H  H82  1  0.78325962  0.26122604  0.14822925  1
  H  H83  1  0.85714786  0.87149531  0.48065442  1
  H  H84  1  0.83931815  0.62512849  0.47937147  1
  H  H85  1  0.89378293  0.58675332  0.65467321  1
  H  H86  1  0.89473243  0.58879105  0.27182566  1
  H  H87  1  0.90399477  0.36148076  0.10501811  1
  H  H88  1  0.97600905  0.06222045  0.59896884  1
  H  H89  1  0.86564902  0.11722901  0.10562677  1
  H  H90  1  0.91786291  0.33402774  0.26721874  1
  H  H91  1  0.98042370  0.73617647  0.52119097  1
  H  H92  1  0.99402731  0.71491018  0.14990361  1
  H  H93  1  0.00242144  0.44395795  0.39716459  1
  H  H94  1  0.02972982  0.48991721  0.22969479  1
  H  H95  1  0.00880508  0.22078382  0.14899994  1
  N  N0  1  0.10973505  0.76008353  0.87382825  1
  N  N1  1  0.05623486  0.52972199  0.74431869  1
  N  N2  1  0.11502622  0.47757272  0.37829138  1
  N  N3  1  0.14365061  0.25334008  0.49780797  1
  N  N4  1  0.44376514  0.02972199  0.75568131  1
  N  N5  1  0.39026495  0.26008353  0.62617175  1
  N  N6  1  0.35634939  0.75334008  0.00219203  1
  N  N7  1  0.38497378  0.97757272  0.12170862  1
  N  N8  1  0.61502622  0.02242728  0.87829138  1
  N  N9  1  0.64365061  0.24665992  0.99780797  1
  N  N10  1  0.60973505  0.73991647  0.37382825  1
  N  N11  1  0.55623486  0.97027801  0.24431869  1
  N  N12  1  0.85634939  0.74665992  0.50219203  1
  N  N13  1  0.88497378  0.52242728  0.62170862  1
  N  N14  1  0.94376514  0.47027801  0.25568131  1
  N  N15  1  0.89026495  0.23991647  0.12617175  1
  O  O0  1  0.12027671  0.23717626  0.86897732  1
  O  O1  1  0.13360955  0.88360028  0.37951385  1
  O  O2  1  0.09820566  0.93344913  0.24341979  1
  O  O3  1  0.17094930  0.26448730  0.00696570  1
  O  O4  1  0.37972329  0.73717626  0.63102268  1
  O  O5  1  0.32905070  0.76448730  0.49303430  1
  O  O6  1  0.40179534  0.43344913  0.25658021  1
  O  O7  1  0.36639045  0.38360028  0.12048615  1
  O  O8  1  0.63360955  0.61639972  0.87951385  1
  O  O9  1  0.59820566  0.56655087  0.74341979  1
  O  O10  1  0.67094930  0.23551270  0.50696570  1
  O  O11  1  0.62027671  0.26282374  0.36897732  1
  O  O12  1  0.82905070  0.73551270  0.99303430  1
  O  O13  1  0.90179434  0.06655087  0.75658021  1
  O  O14  1  0.86639045  0.11639972  0.62048615  1
  O  O15  1  0.87972329  0.76282374  0.13102268  1
  F  F0  1  0.12397679  0.86371522  0.68532735  1
  F  F1  1  0.15383884  0.19691747  0.69066448  1
  F  F2  1  0.05443537  0.52934584  0.06404243  1
  F  F3  1  0.09888393  0.00237420  0.57092942  1
  F  F4  1  0.09960156  0.97052100  0.05649548  1
  F  F5  1  0.17055925  0.55002368  0.56075682  1
  F  F6  1  0.16600740  0.66424713  0.18135139  1
  F  F7  1  0.32944075  0.05002368  0.93924318  1
  F  F8  1  0.16655706  0.20833805  0.18896514  1
  F  F9  1  0.40111607  0.50237420  0.92907058  1
  F  F10  1  0.33344294  0.70833805  0.31103486  1
  F  F11  1  0.34616116  0.69691747  0.80933552  1
  F  F12  1  0.33399260  0.16424713  0.31864861  1
  F  F13  1  0.37602321  0.36371522  0.81467265  1
  F  F14  1  0.40039844  0.47052100  0.44350452  1
  F  F15  1  0.44556463  0.02934584  0.43595757  1
  F  F16  1  0.55443537  0.97065416  0.56404243  1
  F  F17  1  0.59960156  0.52947900  0.55649548  1
  F  F18  1  0.62397679  0.63628478  0.18532735  1
  F  F19  1  0.66600740  0.83575287  0.68135139  1
  F  F20  1  0.65383884  0.30308253  0.19066448  1
  F  F21  1  0.66655706  0.29166195  0.68896514  1
  F  F22  1  0.59888393  0.49762580  0.07092942  1
  F  F23  1  0.83344294  0.79166195  0.81103486  1
  F  F24  1  0.67055925  0.94997632  0.06075682  1
  F  F25  1  0.83399260  0.33575287  0.81864861  1
  F  F26  1  0.82944075  0.44997632  0.43924318  1
  F  F27  1  0.90039844  0.02947900  0.94350452  1
  F  F28  1  0.90111607  0.99762580  0.42907058  1
  F  F29  1  0.94556463  0.47065416  0.93595757  1
  F  F30  1  0.84616116  0.80308253  0.30933552  1
  F  F31  1  0.87602321  0.13628478  0.31467265  1
loop_
_geom_bond_atom_site_label_1
_geom_bond_atom_site_label_2
_geom_bond_distance
_geom_bond_site_symmetry_2
Cu0 O3 1.951214 1_556
Cu0 O0 1.956563 1_555
Cu0 F29 1.999375 1_455
Cu0 F7 2.007741 1_555
Cu0 F27 2.281795 1_455
Cu1 O2 1.917033 1_555
Cu1 O1 1.970297 1_555
Cu1 F10 2.029834 1_555
Cu1 F12 2.127855 1_565
Cu2 O5 1.951214 1_555
Cu2 O4 1.956563 1_555
Cu2 F16 1.999375 1_555
Cu2 F5 2.007741 1_555
Cu2 F17 2.281795 1_555
Cu3 O6 1.917033 1_555
Cu3 O7 1.970297 1_555
Cu3 F8 2.029834 1_555
Cu3 F6 2.127855 1_555
Cu4 O9 1.917033 1_555
Cu4 O8 1.970297 1_555
Cu4 F23 2.029834 1_555
Cu4 F25 2.127855 1_555
Cu5 O10 1.951214 1_555
Cu5 O11 1.956563 1_555
Cu5 F15 1.999375 1_555
Cu5 F26 2.007741 1_555
Cu5 F14 2.281795 1_555
Cu6 O13 1.917033 1_555
Cu6 O14 1.970297 1_555
Cu6 F21 2.029834 1_555
Cu6 F19 2.127855 1_545
Cu7 O12 1.951214 1_554
Cu7 O15 1.956563 1_555
Cu7 F2 1.999375 1_655
Cu7 F24 2.007741 1_555
Cu7 F4 2.281795 1_655
H0 N0 1.055167 1_655
H1 N1 1.008051 1_655
H2 N13 1.037255 1_555
H3 O0 1.016229 1_555
H4 N3 1.027137 1_555
H5 N1 1.003259 1_555
H6 N0 1.024840 1_555
H7 O1 1.102461 1_555
H8 N0 1.028318 1_555
H9 N1 1.003409 1_555
H10 N2 1.027919 1_555
H11 N3 1.050017 1_555
H12 N3 1.044102 1_555
H13 N0 1.043814 1_555
H15 O0 0.995506 1_555
H16 N2 1.048991 1_555
H17 O2 1.013221 1_545
H18 O2 1.003480 1_555
H19 O3 1.029859 1_555
H20 O3 0.999605 1_555
H21 N2 1.045121 1_555
H22 O1 0.984871 1_555
H23 O4 0.995506 1_555
H25 N5 1.043814 1_555
H26 N6 1.044102 1_556
H27 N3 1.031669 1_555
H28 N6 1.050017 1_556
H29 N6 1.031669 1_555
H30 O7 0.984871 1_555
H31 N7 1.045121 1_555
H32 N4 1.003409 1_565
H33 N5 1.028318 1_555
H34 N5 1.024840 1_555
H35 N4 1.003259 1_555
H36 O5 0.999605 1_555
H37 O5 1.029859 1_555
H38 O6 1.003482 1_555
H39 O4 1.016229 1_555
H40 O6 1.013223 1_555
H41 N7 1.048991 1_545
H42 N8 1.037255 1_555
H43 N9 1.027137 1_555
H44 N4 1.008051 1_555
H45 N7 1.027919 1_555
H46 N5 1.055167 1_555
H47 O8 1.102461 1_555
H48 O7 1.102461 1_555
H49 N10 1.055167 1_555
H50 N8 1.027919 1_555
H51 N11 1.008051 1_555
H52 N6 1.027137 1_555
H53 N7 1.037255 1_555
H54 N8 1.048991 1_565
H55 O9 1.013221 1_555
H56 O11 1.016229 1_555
H57 O9 1.003480 1_555
H58 O10 1.029859 1_555
H59 O10 0.999605 1_555
H60 N11 1.003259 1_555
H61 N10 1.024840 1_555
H62 N10 1.028318 1_555
H63 N11 1.003409 1_545
H64 N8 1.045121 1_555
H65 O8 0.984871 1_555
H66 N9 1.031669 1_555
H67 N9 1.050017 1_554
H68 N12 1.031669 1_555
H69 N9 1.044102 1_554
H70 N10 1.043814 1_555
H72 O11 0.995506 1_555
H73 O14 0.984871 1_555
H74 N13 1.045121 1_555
H75 O12 0.999605 1_555
H76 O12 1.029859 1_555
H77 O13 1.003480 1_555
H78 O13 1.013221 1_565
H79 N13 1.048991 1_555
H80 O15 0.995506 1_555
H82 N15 1.043814 1_555
H83 N12 1.044102 1_555
H84 N12 1.050017 1_555
H85 N13 1.027919 1_555
H86 N14 1.003409 1_555
H87 N15 1.028334 1_555
H88 O14 1.102461 1_555
H89 N15 1.024840 1_555
H90 N14 1.003259 1_555
H91 N12 1.027137 1_555
H92 O15 1.016229 1_555
H93 N2 1.037255 1_555
H94 N14 1.008051 1_455
H95 N15 1.055167 1_455
F0 H24 1.137970 1_565
F1 H24 1.169317 1_555
F2 H20 1.620116 1_555
F3 H88 1.303507 1_455
F4 H19 1.489326 1_565
F5 H11 1.642350 1_555
F6 H92 1.532267 1_455
F6 H18 1.619465 1_555
F7 H28 1.642350 1_545
F8 H17 1.490341 1_555
F8 H95 1.564326 1_555
F9 H47 1.303507 1_555
F10 H40 1.490341 1_555
F10 H49 1.564326 1_555
F11 H14 1.169317 1_555
F12 H56 1.532267 1_555
F12 H38 1.619465 1_555
F13 H14 1.137970 1_555
F14 H37 1.489326 1_555
F15 H36 1.620116 1_545
F16 H59 1.620116 1_565
F17 H58 1.489326 1_555
F18 H81 1.137970 1_555
F19 H39 1.532267 1_555
F19 H57 1.619465 1_555
F20 H81 1.169317 1_555
F21 H55 1.490341 1_555
F21 H46 1.564326 1_555
F22 H48 1.303507 1_555
F23 H78 1.490341 1_555
F23 H0 1.564326 1_555
F24 H67 1.642350 1_565
F25 H3 1.532267 1_655
F25 H77 1.619465 1_555
F26 H84 1.642350 1_555
F27 H76 1.489326 1_545
F28 H7 1.303507 1_655
F29 H75 1.620116 1_555
F30 H71 1.169317 1_555
F31 H71 1.137970 1_545
