# generated using pymatgen
data_PuCo2
_symmetry_space_group_name_H-M   'P 1'
_cell_length_a   5.03778325
_cell_length_b   5.03778325
_cell_length_c   5.03778325
_cell_angle_alpha   60.00000000
_cell_angle_beta   60.00000000
_cell_angle_gamma   60.00000000
_symmetry_Int_Tables_number   1
_chemical_formula_structural   PuCo2
_chemical_formula_sum   'Pu2 Co4'
_cell_volume   90.40728705
_cell_formula_units_Z   2
loop_
 _symmetry_equiv_pos_site_id
 _symmetry_equiv_pos_as_xyz
  1  'x, y, z'
loop_
 _atom_site_type_symbol
 _atom_site_label
 _atom_site_symmetry_multiplicity
 _atom_site_fract_x
 _atom_site_fract_y
 _atom_site_fract_z
 _atom_site_occupancy
  Pu  Pu0  1  0.50000000  0.50000000  0.50000000  1
  Pu  Pu1  1  0.75000000  0.75000000  0.75000000  1
  Co  Co0  1  0.12500000  0.12500000  0.12500000  1
  Co  Co1  1  0.62500000  0.12500000  0.12500000  1
  Co  Co2  1  0.12500000  0.62500000  0.12500000  1
  Co  Co3  1  0.12500000  0.12500000  0.62500000  1
loop_
_geom_bond_atom_site_label_1
_geom_bond_atom_site_label_2
_geom_bond_distance
_geom_bond_site_symmetry_2
Co0 Co3 2.518892 1_555
Co0 Co3 2.518892 1_554
Co0 Co1 2.518892 1_455
Co0 Co2 2.518892 1_545
Co0 Co1 2.518892 1_555
Co0 Co2 2.518892 1_555
Co0 Pu1 2.953662 1_544
Co0 Pu1 2.953662 1_445
Co0 Pu0 2.953662 1_455
Co0 Pu0 2.953662 1_554
Co0 Pu0 2.953662 1_545
Co0 Pu1 2.953662 1_454
Co1 Co3 2.518892 1_555
Co1 Co2 2.518892 1_645
Co1 Co3 2.518892 1_654
Co1 Co2 2.518892 1_555
Co1 Pu1 2.953662 1_545
Co1 Pu1 2.953662 1_544
Co1 Pu1 2.953662 1_554
Co1 Pu0 2.953662 1_545
Co1 Pu0 2.953662 1_555
Co1 Pu0 2.953662 1_554
Co2 Co3 2.518892 1_555
Co2 Co3 2.518892 1_564
Co2 Pu0 2.953662 1_455
Co2 Pu1 2.953662 1_554
Co2 Pu0 2.953662 1_555
Co2 Pu0 2.953662 1_554
Co2 Pu1 2.953662 1_455
Co2 Pu1 2.953662 1_454
Co3 Pu1 2.953662 1_545
Co3 Pu1 2.953662 1_445
Co3 Pu0 2.953662 1_455
Co3 Pu0 2.953662 1_545
Co3 Pu1 2.953662 1_455
Co3 Pu0 2.953662 1_555
