# generated using pymatgen
data_Ca2SnS4
_symmetry_space_group_name_H-M   'P 1'
_cell_length_a   8.32653900
_cell_length_b   7.91522400
_cell_length_c   11.06532605
_cell_angle_alpha   68.12478403
_cell_angle_beta   90.00000000
_cell_angle_gamma   90.00000000
_symmetry_Int_Tables_number   1
_chemical_formula_structural   Ca2SnS4
_chemical_formula_sum   'Ca8 Sn4 S16'
_cell_volume   676.76634853
_cell_formula_units_Z   4
loop_
 _symmetry_equiv_pos_site_id
 _symmetry_equiv_pos_as_xyz
  1  'x, y, z'
loop_
 _atom_site_type_symbol
 _atom_site_label
 _atom_site_symmetry_multiplicity
 _atom_site_fract_x
 _atom_site_fract_y
 _atom_site_fract_z
 _atom_site_occupancy
  Ca  Ca0  1  0.18756500  0.03365500  0.64729300  1
  Ca  Ca1  1  0.68756500  0.96634500  0.85270700  1
  Ca  Ca2  1  0.81243500  0.96634500  0.35270700  1
  Ca  Ca3  1  0.31243500  0.03365500  0.14729300  1
  Ca  Ca4  1  0.12639600  0.43813500  0.82766300  1
  Ca  Ca5  1  0.62639600  0.56186500  0.67233700  1
  Ca  Ca6  1  0.87360400  0.56186500  0.17233700  1
  Ca  Ca7  1  0.37360400  0.43813500  0.32766300  1
  Sn  Sn0  1  0.18138100  0.69731200  0.48453400  1
  Sn  Sn1  1  0.68138100  0.30268800  0.01546600  1
  Sn  Sn2  1  0.81861900  0.30268800  0.51546600  1
  Sn  Sn3  1  0.31861900  0.69731200  0.98453400  1
  S  S0  1  0.02798800  0.24044600  0.38867500  1
  S  S1  1  0.52798800  0.75955400  0.11132500  1
  S  S2  1  0.97201200  0.75955400  0.61132500  1
  S  S3  1  0.47201200  0.24044600  0.88867500  1
  S  S4  1  0.10717100  0.73166700  0.26598900  1
  S  S5  1  0.60717100  0.26833300  0.23401100  1
  S  S6  1  0.89282900  0.26833300  0.73401100  1
  S  S7  1  0.39282900  0.73166700  0.76598900  1
  S  S8  1  0.12646400  0.93479600  0.92592500  1
  S  S9  1  0.62646400  0.06520400  0.57407500  1
  S  S10  1  0.87353600  0.06520400  0.07407500  1
  S  S11  1  0.37353600  0.93479600  0.42592500  1
  S  S12  1  0.18728800  0.40646400  0.09517100  1
  S  S13  1  0.68728800  0.59353600  0.40482900  1
  S  S14  1  0.81271200  0.59353600  0.90482900  1
  S  S15  1  0.31271200  0.40646400  0.59517100  1
loop_
_geom_bond_atom_site_label_1
_geom_bond_atom_site_label_2
_geom_bond_distance
_geom_bond_site_symmetry_2
Ca0 S7 2.832016 1_545
Ca0 S8 2.929028 1_545
Ca0 S2 2.954696 1_445
Ca0 S15 2.976221 1_555
Ca0 S0 3.023822 1_555
Ca0 S11 3.230868 1_545
Ca0 S6 3.423761 1_455
Ca1 S6 2.832016 1_565
Ca1 S9 2.929028 1_565
Ca1 S3 2.954696 1_565
Ca1 S14 2.976221 1_555
Ca1 S1 3.023822 1_556
Ca1 S10 3.230868 1_566
Ca1 S7 3.423761 1_555
Ca2 S5 2.832016 1_565
Ca2 S10 2.929028 1_565
Ca2 S0 2.954696 1_665
Ca2 S13 2.976221 1_555
Ca2 S2 3.023822 1_555
Ca2 S9 3.230868 1_565
Ca2 S4 3.423761 1_655
Ca3 S4 2.832016 1_545
Ca3 S11 2.929028 1_545
Ca3 S1 2.954696 1_545
Ca3 S12 2.976221 1_555
Ca3 S3 3.023822 1_554
Ca3 S8 3.230868 1_544
Ca3 S5 3.423761 1_555
Ca4 S6 2.774964 1_455
Ca4 S12 2.920435 1_556
Ca4 S2 3.052409 1_455
Ca4 S15 3.093286 1_555
Ca4 S7 3.099007 1_555
Ca4 S14 3.137953 1_455
Ca4 S3 3.224700 1_555
Ca5 S7 2.774964 1_555
Ca5 S13 2.920435 1_555
Ca5 S3 3.052409 1_555
Ca5 S14 3.093286 1_555
Ca5 S6 3.099007 1_555
Ca5 S15 3.137953 1_555
Ca5 S2 3.224700 1_555
Ca6 S4 2.774964 1_655
Ca6 S14 2.920435 1_554
Ca6 S0 3.052409 1_655
Ca6 S13 3.093286 1_555
Ca6 S5 3.099007 1_555
Ca6 S12 3.137953 1_655
Ca6 S1 3.224700 1_555
Ca7 S5 2.774964 1_555
Ca7 S15 2.920435 1_555
Ca7 S1 3.052409 1_555
Ca7 S12 3.093286 1_555
Ca7 S4 3.099007 1_555
Ca7 S13 3.137953 1_555
Ca7 S0 3.224700 1_555
S0 Sn2 2.401103 1_455
S1 Sn3 2.401103 1_554
S2 Sn0 2.401103 1_655
S3 Sn1 2.401103 1_556
S4 Sn0 2.411177 1_555
S5 Sn1 2.411177 1_555
S6 Sn2 2.411177 1_555
S7 Sn3 2.411177 1_555
S8 Sn3 2.367604 1_555
S9 Sn2 2.367604 1_555
S10 Sn1 2.367604 1_555
S11 Sn0 2.367604 1_555
S12 Sn3 2.427797 1_554
S13 Sn2 2.427797 1_555
S14 Sn1 2.427797 1_556
S15 Sn0 2.427797 1_555
