# generated using pymatgen
data_CaCuP
_symmetry_space_group_name_H-M   'P 1'
_cell_length_a   4.01401832
_cell_length_b   4.01401770
_cell_length_c   7.89378467
_cell_angle_alpha   90.00000000
_cell_angle_beta   90.00000000
_cell_angle_gamma   120.00000511
_symmetry_Int_Tables_number   1
_chemical_formula_structural   CaCuP
_chemical_formula_sum   'Ca2 Cu2 P2'
_cell_volume   110.14746795
_cell_formula_units_Z   2
loop_
 _symmetry_equiv_pos_site_id
 _symmetry_equiv_pos_as_xyz
  1  'x, y, z'
loop_
 _atom_site_type_symbol
 _atom_site_label
 _atom_site_symmetry_multiplicity
 _atom_site_fract_x
 _atom_site_fract_y
 _atom_site_fract_z
 _atom_site_occupancy
  Ca  Ca0  1  -0.00000000  -0.00000000  0.50000000  1
  Ca  Ca1  1  -0.00000000  -0.00000000  0.00000000  1
  Cu  Cu0  1  0.33333300  0.66666700  0.75000000  1
  Cu  Cu1  1  0.66666700  0.33333300  0.25000000  1
  P  P0  1  0.66666700  0.33333300  0.75000000  1
  P  P1  1  0.33333300  0.66666700  0.25000000  1
loop_
_geom_bond_atom_site_label_1
_geom_bond_atom_site_label_2
_geom_bond_distance
_geom_bond_site_symmetry_2
Ca0 Cu0 3.043889 1_545
Ca0 Cu1 3.043889 1_455
Ca0 P1 3.043889 1_545
Ca0 P0 3.043889 1_455
Ca0 P1 3.043891 1_555
Ca0 Cu1 3.043891 1_445
Ca0 Cu0 3.043891 1_555
Ca0 P0 3.043891 1_445
Ca0 P1 3.043892 1_445
Ca0 Cu0 3.043892 1_445
Ca0 Cu1 3.043892 1_555
Ca0 P0 3.043892 1_555
Ca1 Cu0 3.043889 1_544
Ca1 Cu1 3.043889 1_455
Ca1 P1 3.043889 1_545
Ca1 P0 3.043889 1_454
Ca1 P1 3.043891 1_555
Ca1 Cu1 3.043891 1_445
Ca1 P0 3.043891 1_444
Ca1 Cu0 3.043891 1_554
Ca1 P1 3.043892 1_445
Ca1 P0 3.043892 1_554
Ca1 Cu0 3.043892 1_444
Ca1 Cu1 3.043892 1_555
Cu0 P0 2.317492 1_565
Cu0 P0 2.317492 1_455
Cu0 P0 2.317499 1_555
Cu1 P1 2.317492 1_545
Cu1 P1 2.317492 1_655
Cu1 P1 2.317499 1_555
