# generated using pymatgen
data_Li3Mn2(PO4)3
_symmetry_space_group_name_H-M   'P 1'
_cell_length_a   10.25347404
_cell_length_b   10.25347404
_cell_length_c   10.25347404
_cell_angle_alpha   109.47122063
_cell_angle_beta   109.47122063
_cell_angle_gamma   109.47122063
_symmetry_Int_Tables_number   1
_chemical_formula_structural   Li3Mn2(PO4)3
_chemical_formula_sum   'Li12 Mn8 P12 O48'
_cell_volume   829.83398794
_cell_formula_units_Z   4
loop_
 _symmetry_equiv_pos_site_id
 _symmetry_equiv_pos_as_xyz
  1  'x, y, z'
loop_
 _atom_site_type_symbol
 _atom_site_label
 _atom_site_symmetry_multiplicity
 _atom_site_fract_x
 _atom_site_fract_y
 _atom_site_fract_z
 _atom_site_occupancy
  Li  Li0  1  0.75000000  0.12500000  0.37500000  1
  Li  Li1  1  0.37500000  0.12500000  0.25000000  1
  Li  Li2  1  0.87500000  0.62500000  0.25000000  1
  Li  Li3  1  0.25000000  0.37500000  0.12500000  1
  Li  Li4  1  0.62500000  0.25000000  0.87500000  1
  Li  Li5  1  0.12500000  0.25000000  0.37500000  1
  Li  Li6  1  0.37500000  0.75000000  0.12500000  1
  Li  Li7  1  0.87500000  0.75000000  0.62500000  1
  Li  Li8  1  0.75000000  0.62500000  0.87500000  1
  Li  Li9  1  0.12500000  0.37500000  0.75000000  1
  Li  Li10  1  0.62500000  0.87500000  0.75000000  1
  Li  Li11  1  0.25000000  0.87500000  0.62500000  1
  Mn  Mn0  1  0.50000000  0.00000000  0.00000000  1
  Mn  Mn1  1  0.00000000  0.00000000  0.00000000  1
  Mn  Mn2  1  0.50000000  0.00000000  0.50000000  1
  Mn  Mn3  1  0.50000000  0.50000000  0.00000000  1
  Mn  Mn4  1  0.00000000  0.50000000  0.00000000  1
  Mn  Mn5  1  0.50000000  0.50000000  0.50000000  1
  Mn  Mn6  1  0.00000000  0.00000000  0.50000000  1
  Mn  Mn7  1  0.00000000  0.50000000  0.50000000  1
  P  P0  1  0.87500000  0.25000000  0.12500000  1
  P  P1  1  0.62500000  0.37500000  0.25000000  1
  P  P2  1  0.87500000  0.12500000  0.75000000  1
  P  P3  1  0.75000000  0.87500000  0.12500000  1
  P  P4  1  0.75000000  0.37500000  0.62500000  1
  P  P5  1  0.62500000  0.75000000  0.37500000  1
  P  P6  1  0.37500000  0.25000000  0.62500000  1
  P  P7  1  0.25000000  0.62500000  0.37500000  1
  P  P8  1  0.25000000  0.12500000  0.87500000  1
  P  P9  1  0.12500000  0.87500000  0.25000000  1
  P  P10  1  0.37500000  0.62500000  0.75000000  1
  P  P11  1  0.12500000  0.75000000  0.87500000  1
  O  O0  1  0.88939900  0.00733900  0.29762300  1
  O  O1  1  0.88206000  0.38939900  0.09177500  1
  O  O2  1  0.90822500  0.29028500  0.29762300  1
  O  O3  1  0.99266100  0.70237700  0.11060100  1
  O  O4  1  0.90822500  0.11794000  0.61060100  1
  O  O5  1  0.59177500  0.20237700  0.20971500  1
  O  O6  1  0.61794000  0.40822500  0.11060100  1
  O  O7  1  0.20971500  0.11794000  0.00733900  1
  O  O8  1  0.70971500  0.70237700  0.09177500  1
  O  O9  1  0.61060100  0.20237700  0.49266100  1
  O  O10  1  0.88939900  0.38206000  0.59177500  1
  O  O11  1  0.79762300  0.50733900  0.38939900  1
  O  O12  1  0.70237700  0.09177500  0.70971500  1
  O  O13  1  0.11794000  0.00733900  0.20971500  1
  O  O14  1  0.49266100  0.38206000  0.29028500  1
  O  O15  1  0.00733900  0.20971500  0.11794000  1
  O  O16  1  0.40822500  0.11060100  0.61794000  1
  O  O17  1  0.49266100  0.61060100  0.20237700  1
  O  O18  1  0.38206000  0.29028500  0.49266100  1
  O  O19  1  0.79762300  0.79028500  0.40822500  1
  O  O20  1  0.70237700  0.11060100  0.99266100  1
  O  O21  1  0.79028500  0.40822500  0.79762300  1
  O  O22  1  0.70971500  0.50733900  0.61794000  1
  O  O23  1  0.61060100  0.90822500  0.11794000  1
  O  O24  1  0.29028500  0.49266100  0.38206000  1
  O  O25  1  0.20971500  0.59177500  0.20237700  1
  O  O26  1  0.38939900  0.09177500  0.88206000  1
  O  O27  1  0.20237700  0.20971500  0.59177500  1
  O  O28  1  0.29762300  0.88939900  0.00733900  1
  O  O29  1  0.61794000  0.70971500  0.50733900  1
  O  O30  1  0.99266100  0.79028500  0.88206000  1
  O  O31  1  0.59177500  0.88939900  0.38206000  1
  O  O32  1  0.50733900  0.38939900  0.79762300  1
  O  O33  1  0.50733900  0.61794000  0.70971500  1
  O  O34  1  0.20237700  0.49266100  0.61060100  1
  O  O35  1  0.29762300  0.90822500  0.29028500  1
  O  O36  1  0.88206000  0.99266100  0.79028500  1
  O  O37  1  0.11060100  0.61794000  0.40822500  1
  O  O38  1  0.29028500  0.29762300  0.90822500  1
  O  O39  1  0.38939900  0.79762300  0.50733900  1
  O  O40  1  0.79028500  0.88206000  0.99266100  1
  O  O41  1  0.38206000  0.59177500  0.88939900  1
  O  O42  1  0.09177500  0.88206000  0.38939900  1
  O  O43  1  0.40822500  0.79762300  0.79028500  1
  O  O44  1  0.00733900  0.29762300  0.88939900  1
  O  O45  1  0.09177500  0.70971500  0.70237700  1
  O  O46  1  0.11794000  0.61060100  0.90822500  1
  O  O47  1  0.11060100  0.99266100  0.70237700  1
loop_
_geom_bond_atom_site_label_1
_geom_bond_atom_site_label_2
_geom_bond_distance
_geom_bond_site_symmetry_2
Li0 O10 2.322794 1_555
Li0 O23 2.322794 1_545
Li0 O0 2.322798 1_555
Li0 O9 2.322798 1_555
Li0 O4 2.460715 1_555
Li0 O31 2.460715 1_545
Li0 O2 2.460723 1_555
Li0 O5 2.460723 1_555
Li1 O14 2.322794 1_555
Li1 O13 2.322794 1_555
Li1 O5 2.322795 1_555
Li1 O35 2.322795 1_545
Li1 O28 2.460712 1_545
Li1 O9 2.460712 1_555
Li1 O18 2.460715 1_555
Li1 O7 2.460715 1_555
Li2 O6 2.322794 1_555
Li2 O42 2.322794 1_655
Li2 O3 2.322798 1_555
Li2 O11 2.322798 1_555
Li2 O37 2.460715 1_655
Li2 O1 2.460715 1_555
Li2 O19 2.460723 1_555
Li2 O8 2.460723 1_555
Li3 O24 2.322794 1_555
Li3 O7 2.322794 1_555
Li3 O25 2.322795 1_555
Li3 O38 2.322795 1_554
Li3 O44 2.460712 1_554
Li3 O17 2.460712 1_555
Li3 O15 2.460715 1_555
Li3 O14 2.460715 1_555
Li4 O1 2.322794 1_556
Li4 O16 2.322794 1_555
Li4 O20 2.322798 1_555
Li4 O32 2.322798 1_555
Li4 O6 2.460715 1_556
Li4 O26 2.460715 1_555
Li4 O21 2.460723 1_555
Li4 O12 2.460723 1_555
Li5 O18 2.322794 1_555
Li5 O15 2.322794 1_555
Li5 O27 2.322795 1_555
Li5 O2 2.322795 1_455
Li5 O34 2.460712 1_555
Li5 O0 2.460712 1_455
Li5 O24 2.460715 1_555
Li5 O13 2.460715 1_555
Li6 O46 2.322794 1_554
Li6 O31 2.322794 1_555
Li6 O28 2.322798 1_555
Li6 O17 2.322798 1_555
Li6 O23 2.460715 1_555
Li6 O41 2.460715 1_554
Li6 O35 2.460723 1_555
Li6 O25 2.460723 1_555
Li7 O29 2.322794 1_555
Li7 O30 2.322794 1_555
Li7 O45 2.322795 1_655
Li7 O19 2.322795 1_555
Li7 O47 2.460712 1_655
Li7 O11 2.460712 1_555
Li7 O22 2.460715 1_555
Li7 O36 2.460715 1_555
Li8 O40 2.322794 1_555
Li8 O22 2.322794 1_555
Li8 O8 2.322795 1_556
Li8 O21 2.322795 1_555
Li8 O3 2.460712 1_556
Li8 O32 2.460712 1_555
Li8 O33 2.460715 1_555
Li8 O30 2.460715 1_555
Li9 O41 2.322794 1_555
Li9 O4 2.322794 1_455
Li9 O44 2.322798 1_555
Li9 O34 2.322798 1_555
Li9 O46 2.460715 1_555
Li9 O10 2.460715 1_455
Li9 O38 2.460723 1_555
Li9 O27 2.460723 1_555
Li10 O36 2.322794 1_555
Li10 O33 2.322794 1_555
Li10 O12 2.322795 1_565
Li10 O43 2.322795 1_555
Li10 O20 2.460712 1_565
Li10 O39 2.460712 1_555
Li10 O40 2.460715 1_555
Li10 O29 2.460715 1_555
Li11 O26 2.322794 1_565
Li11 O37 2.322794 1_555
Li11 O39 2.322798 1_555
Li11 O47 2.322798 1_555
Li11 O16 2.460715 1_565
Li11 O42 2.460715 1_555
Li11 O45 2.460723 1_555
Li11 O43 2.460723 1_555
Mn0 O26 2.046892 1_554
Mn0 O23 2.046892 1_545
Mn0 O43 2.046897 1_544
Mn0 O5 2.046897 1_555
Mn0 O28 2.046901 1_545
Mn0 O20 2.046901 1_554
Mn1 O36 2.046892 1_444
Mn1 O15 2.046892 1_555
Mn1 O13 2.046892 1_555
Mn1 O30 2.046892 1_444
Mn1 O7 2.046892 1_555
Mn1 O40 2.046892 1_444
Mn2 O31 2.046892 1_545
Mn2 O16 2.046892 1_555
Mn2 O35 2.046897 1_545
Mn2 O12 2.046897 1_555
Mn2 O39 2.046901 1_545
Mn2 O9 2.046901 1_555
Mn3 O6 2.046892 1_555
Mn3 O41 2.046892 1_554
Mn3 O8 2.046897 1_555
Mn3 O38 2.046897 1_554
Mn3 O17 2.046901 1_555
Mn3 O32 2.046901 1_554
Mn4 O46 2.046892 1_554
Mn4 O1 2.046892 1_455
Mn4 O25 2.046897 1_555
Mn4 O21 2.046897 1_454
Mn4 O44 2.046901 1_554
Mn4 O3 2.046901 1_455
Mn5 O29 2.046892 1_555
Mn5 O14 2.046892 1_555
Mn5 O18 2.046892 1_555
Mn5 O24 2.046892 1_555
Mn5 O22 2.046892 1_555
Mn5 O33 2.046892 1_555
Mn6 O42 2.046892 1_545
Mn6 O4 2.046892 1_455
Mn6 O27 2.046897 1_555
Mn6 O19 2.046897 1_445
Mn6 O0 2.046901 1_455
Mn6 O47 2.046901 1_545
Mn7 O10 2.046892 1_455
Mn7 O37 2.046892 1_555
Mn7 O2 2.046897 1_455
Mn7 O45 2.046897 1_555
Mn7 O11 2.046901 1_455
Mn7 O34 2.046901 1_555
O0 P3 1.560875 1_545
O1 P0 1.560880 1_555
O2 P0 1.560870 1_555
O3 P9 1.560875 1_655
O4 P2 1.560880 1_555
O5 P1 1.560870 1_555
O6 P1 1.560880 1_555
O7 P8 1.560880 1_554
O8 P3 1.560870 1_555
O9 P4 1.560875 1_555
O10 P4 1.560880 1_555
O11 P1 1.560875 1_555
O12 P2 1.560870 1_555
O13 P9 1.560880 1_545
O14 P1 1.560880 1_555
O15 P0 1.560880 1_455
O16 P6 1.560880 1_555
O17 P5 1.560875 1_555
O18 P6 1.560880 1_555
O19 P5 1.560870 1_555
O20 P0 1.560875 1_556
O21 P4 1.560870 1_555
O22 P4 1.560880 1_555
O23 P3 1.560880 1_555
O24 P7 1.560880 1_555
O25 P7 1.560870 1_555
O26 P8 1.560880 1_555
O27 P6 1.560870 1_555
O28 P11 1.560875 1_554
O29 P5 1.560880 1_555
O30 P11 1.560880 1_655
O31 P5 1.560880 1_555
O32 P6 1.560875 1_555
O33 P10 1.560880 1_555
O34 P10 1.560875 1_555
O35 P9 1.560870 1_555
O36 P2 1.560880 1_565
O37 P7 1.560880 1_555
O38 P8 1.560870 1_555
O39 P7 1.560875 1_555
O40 P3 1.560880 1_556
O41 P10 1.560880 1_555
O42 P9 1.560880 1_555
O43 P10 1.560870 1_555
O44 P2 1.560875 1_455
O45 P11 1.560870 1_555
O46 P11 1.560880 1_555
O47 P8 1.560875 1_565
