# generated using pymatgen
data_Li2Fe4OF8
_symmetry_space_group_name_H-M   'P 1'
_cell_length_a   5.38110757
_cell_length_b   5.38110757
_cell_length_c   14.35168058
_cell_angle_alpha   88.88036741
_cell_angle_beta   88.88036741
_cell_angle_gamma   58.67034861
_symmetry_Int_Tables_number   1
_chemical_formula_structural   Li2Fe4OF8
_chemical_formula_sum   'Li4 Fe8 O2 F16'
_cell_volume   354.88806599
_cell_formula_units_Z   2
loop_
 _symmetry_equiv_pos_site_id
 _symmetry_equiv_pos_as_xyz
  1  'x, y, z'
loop_
 _atom_site_type_symbol
 _atom_site_label
 _atom_site_symmetry_multiplicity
 _atom_site_fract_x
 _atom_site_fract_y
 _atom_site_fract_z
 _atom_site_occupancy
  Li  Li0  1  0.00003500  0.99796100  0.84634700  1
  Li  Li1  1  0.99796100  0.00003500  0.34634700  1
  Li  Li2  1  0.98865100  0.02072400  0.63968100  1
  Li  Li3  1  0.02072400  0.98865100  0.13968100  1
  Fe  Fe0  1  0.69061100  0.65284000  0.68245500  1
  Fe  Fe1  1  0.65226700  0.66979300  0.98507900  1
  Fe  Fe2  1  0.65284000  0.69061100  0.18245500  1
  Fe  Fe3  1  0.66979300  0.65226700  0.48507900  1
  Fe  Fe4  1  0.33465300  0.32696100  0.81432800  1
  Fe  Fe5  1  0.32696100  0.33465300  0.31432800  1
  Fe  Fe6  1  0.33988100  0.30793500  0.02619800  1
  Fe  Fe7  1  0.30793500  0.33988100  0.52619800  1
  O  O0  1  0.38133300  0.95334700  0.08183100  1
  O  O1  1  0.95334700  0.38133300  0.58183100  1
  F  F0  1  0.29675900  0.70394000  0.25233600  1
  F  F1  1  0.34216200  0.68266900  0.58430900  1
  F  F2  1  0.70394000  0.29675900  0.75233600  1
  F  F3  1  0.68266900  0.34216200  0.08430900  1
  F  F4  1  0.97856300  0.33619000  0.25565800  1
  F  F5  1  0.67070400  0.98616600  0.58537200  1
  F  F6  1  0.00818000  0.34472200  0.91418800  1
  F  F7  1  0.33619000  0.97856300  0.75565800  1
  F  F8  1  0.98616600  0.67070400  0.08537200  1
  F  F9  1  0.34472200  0.00818000  0.41418800  1
  F  F10  1  0.01140800  0.69783400  0.75351500  1
  F  F11  1  0.02462300  0.64668500  0.41120900  1
  F  F12  1  0.32596900  0.61989400  0.91755700  1
  F  F13  1  0.64668500  0.02462300  0.91120900  1
  F  F14  1  0.69783400  0.01140800  0.25351500  1
  F  F15  1  0.61989400  0.32596900  0.41755700  1
loop_
_geom_bond_atom_site_label_1
_geom_bond_atom_site_label_2
_geom_bond_distance
_geom_bond_site_symmetry_2
Li2 O1 2.012632 1_555
Li3 O0 2.012632 1_555
Fe0 O1 2.018294 1_555
Fe1 O0 2.017950 1_556
Fe2 O0 2.018294 1_555
Fe3 O1 2.017950 1_555
Fe6 O0 1.957758 1_545
Fe7 O1 1.957758 1_455
F0 Li1 2.068670 1_465
F0 Fe5 2.089863 1_555
F0 Fe2 2.113585 1_555
F0 Li3 2.190449 1_555
F1 Li2 1.989513 1_465
F1 Fe7 2.133390 1_555
F1 Fe3 2.184983 1_555
F1 Fe0 2.303689 1_555
F2 Li0 2.068670 1_645
F2 Fe4 2.089863 1_555
F2 Fe0 2.113585 1_555
F2 Li2 2.190449 1_555
F3 Li3 1.989513 1_645
F3 Fe6 2.133390 1_555
F3 Fe1 2.184983 1_554
F3 Fe2 2.303689 1_555
F4 Fe5 2.066180 1_655
F4 Fe2 2.081007 1_555
F4 Li1 2.166545 1_555
F4 Li3 2.446431 1_645
F5 Li2 1.989454 1_565
F5 Fe7 2.071825 1_565
F5 Fe0 2.208700 1_555
F5 Fe3 2.326074 1_555
F6 Fe1 2.066996 1_455
F6 Li0 2.142288 1_545
F6 Fe4 2.209464 1_555
F6 Fe6 2.354047 1_556
F7 Fe4 2.066180 1_565
F7 Fe0 2.081007 1_555
F7 Li0 2.166545 1_555
F7 Li2 2.446431 1_465
F8 Li3 1.989454 1_655
F8 Fe6 2.071825 1_655
F8 Fe2 2.208700 1_555
F8 Fe1 2.326074 1_554
F9 Fe3 2.066996 1_545
F9 Li1 2.142288 1_455
F9 Fe5 2.209464 1_555
F9 Fe7 2.354047 1_555
F10 Fe4 2.037511 1_555
F10 Li0 2.089294 1_555
F10 Fe0 2.142820 1_455
F10 Li2 2.319170 1_465
F11 Li1 2.038346 1_465
F11 Fe5 2.135753 1_555
F11 Fe3 2.152454 1_455
F11 Fe7 2.268856 1_555
F12 Li0 2.130172 1_555
F12 Fe1 2.158959 1_555
F12 Fe4 2.166506 1_555
F12 Fe6 2.241923 1_556
F13 Li0 2.038346 1_645
F13 Fe4 2.135753 1_555
F13 Fe1 2.152454 1_545
F13 Fe6 2.268856 1_556
F14 Fe5 2.037511 1_555
F14 Li1 2.089294 1_555
F14 Fe2 2.142820 1_545
F14 Li3 2.319170 1_645
F15 Li1 2.130172 1_555
F15 Fe3 2.158959 1_555
F15 Fe5 2.166506 1_555
F15 Fe7 2.241923 1_555
