# generated using pymatgen
data_MnSbRu2
_symmetry_space_group_name_H-M   'P 1'
_cell_length_a   4.38976077
_cell_length_b   4.38976077
_cell_length_c   4.38976077
_cell_angle_alpha   60.00000000
_cell_angle_beta   60.00000000
_cell_angle_gamma   60.00000000
_symmetry_Int_Tables_number   1
_chemical_formula_structural   MnSbRu2
_chemical_formula_sum   'Mn1 Sb1 Ru2'
_cell_volume   59.81464947
_cell_formula_units_Z   1
loop_
 _symmetry_equiv_pos_site_id
 _symmetry_equiv_pos_as_xyz
  1  'x, y, z'
loop_
 _atom_site_type_symbol
 _atom_site_label
 _atom_site_symmetry_multiplicity
 _atom_site_fract_x
 _atom_site_fract_y
 _atom_site_fract_z
 _atom_site_occupancy
  Mn  Mn0  1  0.25000000  0.25000000  0.25000000  1
  Sb  Sb0  1  0.75000000  0.75000000  0.75000000  1
  Ru  Ru0  1  0.00000000  0.00000000  0.00000000  1
  Ru  Ru1  1  0.49999900  0.49999900  0.49999900  1
loop_
_geom_bond_atom_site_label_1
_geom_bond_atom_site_label_2
_geom_bond_distance
_geom_bond_site_symmetry_2
Mn0 Ru1 2.688158 1_555
Mn0 Ru0 2.688168 1_655
Mn0 Ru0 2.688168 1_556
Mn0 Ru0 2.688168 1_555
Mn0 Ru0 2.688168 1_565
Mn0 Ru1 2.688172 1_455
Mn0 Ru1 2.688172 1_545
Mn0 Ru1 2.688172 1_554
Mn0 Sb0 3.104030 1_554
Mn0 Sb0 3.104030 1_455
Mn0 Sb0 3.104030 1_545
Mn0 Sb0 3.104030 1_544
Mn0 Sb0 3.104030 1_445
Mn0 Sb0 3.104030 1_454
Ru0 Sb0 2.688168 1_444
Ru0 Sb0 2.688168 1_445
Ru0 Sb0 2.688168 1_544
Ru0 Sb0 2.688168 1_454
Ru1 Sb0 2.688165 1_554
Ru1 Sb0 2.688165 1_455
Ru1 Sb0 2.688165 1_545
Ru1 Sb0 2.688179 1_555
