# generated using pymatgen
data_Li3V3Cr2O10
_symmetry_space_group_name_H-M   'P 1'
_cell_length_a   5.11546296
_cell_length_b   7.82862141
_cell_length_c   10.33565708
_cell_angle_alpha   106.58594910
_cell_angle_beta   100.80451566
_cell_angle_gamma   73.88202671
_symmetry_Int_Tables_number   1
_chemical_formula_structural   Li3V3Cr2O10
_chemical_formula_sum   'Li6 V6 Cr4 O20'
_cell_volume   378.45615731
_cell_formula_units_Z   2
loop_
 _symmetry_equiv_pos_site_id
 _symmetry_equiv_pos_as_xyz
  1  'x, y, z'
loop_
 _atom_site_type_symbol
 _atom_site_label
 _atom_site_symmetry_multiplicity
 _atom_site_fract_x
 _atom_site_fract_y
 _atom_site_fract_z
 _atom_site_occupancy
  Li  Li0  1  0.99999700  0.49999900  0.24999800  1
  Li  Li1  1  0.00000200  0.50000300  0.75000400  1
  Li  Li2  1  0.50805800  0.42689200  0.10540500  1
  Li  Li3  1  0.50806700  0.42686600  0.60540300  1
  Li  Li4  1  0.49193200  0.57313300  0.39460000  1
  Li  Li5  1  0.49194000  0.57310800  0.89459700  1
  V  V0  1  0.50000100  0.00000000  0.50000000  1
  V  V1  1  0.99447400  0.88196900  0.34084200  1
  V  V2  1  0.00553000  0.11803300  0.65915700  1
  V  V3  1  0.50000300  0.99999400  0.99999900  1
  V  V4  1  0.99445700  0.88192200  0.84085000  1
  V  V5  1  0.00554300  0.11808300  0.15914700  1
  Cr  Cr0  1  0.01225900  0.69103100  0.05253200  1
  Cr  Cr1  1  0.98773400  0.30896900  0.94747200  1
  Cr  Cr2  1  0.01225200  0.69104200  0.55248500  1
  Cr  Cr3  1  0.98774800  0.30895800  0.44750600  1
  O  O0  1  0.23371000  0.86291900  0.01536000  1
  O  O1  1  0.23368600  0.86292000  0.51537500  1
  O  O2  1  0.76631100  0.13708000  0.48462500  1
  O  O3  1  0.76628700  0.13708000  0.98464200  1
  O  O4  1  0.80170800  0.94002300  0.16313300  1
  O  O5  1  0.80167700  0.94001900  0.66312600  1
  O  O6  1  0.19832500  0.05998000  0.33687500  1
  O  O7  1  0.19829300  0.05997900  0.83687000  1
  O  O8  1  0.77914600  0.53230800  0.05748300  1
  O  O9  1  0.77914400  0.53232600  0.55749300  1
  O  O10  1  0.22086200  0.46767100  0.44250200  1
  O  O11  1  0.22085000  0.46769300  0.94252000  1
  O  O12  1  0.24738900  0.22101500  0.11203500  1
  O  O13  1  0.24737200  0.22100000  0.61204700  1
  O  O14  1  0.75263200  0.77899900  0.38795100  1
  O  O15  1  0.75261500  0.77898300  0.88796500  1
  O  O16  1  0.20586400  0.67235100  0.23601700  1
  O  O17  1  0.20585200  0.67236200  0.73601000  1
  O  O18  1  0.79414400  0.32764200  0.26398900  1
  O  O19  1  0.79413500  0.32764900  0.76398400  1
loop_
_geom_bond_atom_site_label_1
_geom_bond_atom_site_label_2
_geom_bond_distance
_geom_bond_site_symmetry_2
Li0 O16 1.976810 1_655
Li0 O18 1.976828 1_555
Li0 O10 2.141309 1_655
Li0 O8 2.141349 1_555
Li0 O14 2.401827 1_555
Li0 O12 2.401851 1_655
Li1 O19 1.976819 1_455
Li1 O17 1.976842 1_555
Li1 O9 2.141350 1_455
Li1 O11 2.141355 1_555
Li1 O15 2.401813 1_455
Li1 O13 2.401869 1_555
Li2 O8 1.993924 1_555
Li2 O11 2.052787 1_554
Li2 O18 2.151369 1_555
Li2 O16 2.357271 1_555
Li2 O12 2.381394 1_555
Li2 O3 2.405786 1_554
Li3 O9 1.994048 1_555
Li3 O10 2.052906 1_555
Li3 O19 2.151205 1_555
Li3 O17 2.357441 1_555
Li3 O13 2.381469 1_555
Li3 O2 2.405740 1_555
Li4 O10 1.993987 1_555
Li4 O9 2.052867 1_555
Li4 O16 2.151223 1_555
Li4 O18 2.357434 1_555
Li4 O14 2.381506 1_555
Li4 O1 2.405738 1_555
Li5 O11 1.993933 1_555
Li5 O8 2.052788 1_556
Li5 O17 2.151408 1_555
Li5 O19 2.357279 1_555
Li5 O15 2.381411 1_555
Li5 O0 2.405783 1_556
Cr0 O11 1.942286 1_554
Cr0 O8 1.962279 1_455
Cr0 O16 1.993104 1_555
Cr0 O4 2.071287 1_455
Cr0 O15 2.108351 1_454
Cr0 O0 2.132223 1_555
Cr1 O8 1.942280 1_556
Cr1 O11 1.962300 1_655
Cr1 O19 1.993122 1_555
Cr1 O7 2.071296 1_655
Cr1 O12 2.108347 1_656
Cr1 O3 2.132205 1_555
Cr2 O10 1.942347 1_555
Cr2 O9 1.962403 1_455
Cr2 O17 1.993460 1_555
Cr2 O5 2.071414 1_455
Cr2 O14 2.108052 1_455
Cr2 O1 2.131799 1_555
Cr3 O9 1.942338 1_555
Cr3 O10 1.962395 1_655
Cr3 O18 1.993400 1_555
Cr3 O6 2.071383 1_655
Cr3 O13 2.108119 1_655
Cr3 O2 2.131853 1_555
O0 V4 1.999437 1_454
O0 V3 2.005587 1_554
O0 V5 2.285209 1_565
O1 V1 1.999599 1_455
O1 V0 2.005763 1_565
O1 V2 2.284943 1_565
O2 V2 1.999604 1_655
O2 V0 2.005742 1_555
O2 V1 2.284954 1_545
O3 V5 1.999394 1_656
O3 V3 2.005598 1_545
O3 V4 2.285215 1_545
O4 V5 1.971801 1_665
O4 V1 2.025149 1_555
O4 V3 2.125863 1_554
O5 V2 1.971502 1_665
O5 V4 2.025421 1_555
O5 V0 2.125746 1_565
O6 V1 1.971468 1_445
O6 V5 2.025477 1_555
O6 V0 2.125736 1_555
O7 V4 1.971765 1_445
O7 V2 2.025182 1_555
O7 V3 2.125866 1_545
O12 V5 1.849427 1_555
O12 V3 2.044586 1_544
O13 V2 1.849590 1_555
O13 V0 2.044591 1_555
O14 V1 1.849601 1_555
O14 V0 2.044610 1_565
O15 V4 1.849464 1_555
O15 V3 2.044532 1_555
O16 V1 1.864148 1_455
O17 V4 1.863976 1_455
O18 V5 1.863990 1_655
O19 V2 1.864159 1_655
