# generated using pymatgen
data_Rb2Pu2O5
_symmetry_space_group_name_H-M   'P 1'
_cell_length_a   4.30550125
_cell_length_b   4.30548284
_cell_length_c   9.01984544
_cell_angle_alpha   90.00000000
_cell_angle_beta   90.00000000
_cell_angle_gamma   90.00000000
_symmetry_Int_Tables_number   1
_chemical_formula_structural   Rb2Pu2O5
_chemical_formula_sum   'Rb2 Pu2 O5'
_cell_volume   167.20323586
_cell_formula_units_Z   1
loop_
 _symmetry_equiv_pos_site_id
 _symmetry_equiv_pos_as_xyz
  1  'x, y, z'
loop_
 _atom_site_type_symbol
 _atom_site_label
 _atom_site_symmetry_multiplicity
 _atom_site_fract_x
 _atom_site_fract_y
 _atom_site_fract_z
 _atom_site_occupancy
  Rb  Rb0  1  0.50000000  0.50000000  -0.00000000  1
  Rb  Rb1  1  0.50000000  0.50000000  0.50000000  1
  Pu  Pu0  1  -0.00000000  0.00000000  0.26288405  1
  Pu  Pu1  1  0.00000000  -0.00000000  0.73711595  1
  O  O0  1  0.00000000  0.50000000  0.22991110  1
  O  O1  1  -0.00000000  0.50000000  0.77008890  1
  O  O2  1  0.00000000  0.00000000  0.50000000  1
  O  O3  1  0.50000000  -0.00000000  0.22991110  1
  O  O4  1  0.50000000  0.00000000  0.77008890  1
loop_
_geom_bond_atom_site_label_1
_geom_bond_atom_site_label_2
_geom_bond_distance
_geom_bond_site_symmetry_2
O0 Pu0 2.173189 1_555
O0 Pu0 2.173189 1_565
O0 Rb0 2.989118 1_455
O0 Rb0 2.989118 1_555
O0 Rb1 3.251032 1_555
O0 Rb1 3.251032 1_455
O1 Pu1 2.173189 1_565
O1 Pu1 2.173189 1_555
O1 Rb0 2.989118 1_556
O1 Rb0 2.989118 1_456
O1 Rb1 3.251032 1_555
O1 Rb1 3.251032 1_455
O2 Pu1 2.138749 1_555
O2 Pu0 2.138749 1_555
O2 Rb1 3.044443 1_545
O2 Rb1 3.044443 1_445
O2 Rb1 3.044443 1_455
O2 Rb1 3.044443 1_555
O3 Pu0 2.173198 1_555
O3 Pu0 2.173198 1_655
O3 Rb0 2.989111 1_555
O3 Rb0 2.989111 1_545
O3 Rb1 3.251026 1_545
O3 Rb1 3.251026 1_555
O4 Pu1 2.173198 1_555
O4 Pu1 2.173198 1_655
O4 Rb0 2.989111 1_546
O4 Rb0 2.989111 1_556
O4 Rb1 3.251026 1_545
O4 Rb1 3.251026 1_555
