# generated using pymatgen
data_Mn6O7F5
_symmetry_space_group_name_H-M   'P 1'
_cell_length_a   5.67591600
_cell_length_b   4.55869900
_cell_length_c   15.37155958
_cell_angle_alpha   89.86997738
_cell_angle_beta   90.00000000
_cell_angle_gamma   90.00000000
_symmetry_Int_Tables_number   1
_chemical_formula_structural   Mn6O7F5
_chemical_formula_sum   'Mn12 O14 F10'
_cell_volume   397.73489184
_cell_formula_units_Z   2
loop_
 _symmetry_equiv_pos_site_id
 _symmetry_equiv_pos_as_xyz
  1  'x, y, z'
loop_
 _atom_site_type_symbol
 _atom_site_label
 _atom_site_symmetry_multiplicity
 _atom_site_fract_x
 _atom_site_fract_y
 _atom_site_fract_z
 _atom_site_occupancy
  Mn  Mn0  1  0.15074200  0.01440800  0.40741100  1
  Mn  Mn1  1  0.83947900  0.02973800  0.24370800  1
  Mn  Mn2  1  0.16052100  0.02973800  0.74370800  1
  Mn  Mn3  1  0.84635400  0.00166500  0.57626000  1
  Mn  Mn4  1  0.84925800  0.01440800  0.90741100  1
  Mn  Mn5  1  0.15364600  0.00166500  0.07626000  1
  Mn  Mn6  1  0.35110300  0.51251000  0.59112300  1
  Mn  Mn7  1  0.34891100  0.49926600  0.92091200  1
  Mn  Mn8  1  0.65108900  0.49926600  0.42091200  1
  Mn  Mn9  1  0.36430400  0.50553400  0.26074100  1
  Mn  Mn10  1  0.64889700  0.51251000  0.09112300  1
  Mn  Mn11  1  0.63569600  0.50553400  0.76074100  1
  O  O0  1  0.11329500  0.24069000  0.30188700  1
  O  O1  1  0.11741900  0.22104200  0.63465600  1
  O  O2  1  0.11248700  0.21912700  0.96751800  1
  O  O3  1  0.88258100  0.22104200  0.13465600  1
  O  O4  1  0.88751300  0.21912700  0.46751800  1
  O  O5  1  0.88670500  0.24069000  0.80188700  1
  O  O6  1  0.60208000  0.28151200  0.31335200  1
  O  O7  1  0.39792000  0.28151200  0.81335200  1
  O  O8  1  0.38133500  0.72686400  0.36320700  1
  O  O9  1  0.61888600  0.71734300  0.53052500  1
  O  O10  1  0.61866500  0.72686400  0.86320700  1
  O  O11  1  0.38111400  0.71734300  0.03052500  1
  O  O12  1  0.61054400  0.73287900  0.19722600  1
  O  O13  1  0.38945600  0.73287900  0.69722600  1
  F  F0  1  0.37940600  0.26001500  0.15388400  1
  F  F1  1  0.38302600  0.25356800  0.48699900  1
  F  F2  1  0.61697400  0.25356800  0.98699900  1
  F  F3  1  0.62059400  0.26001500  0.65388400  1
  F  F4  1  0.11822000  0.75471800  0.51321700  1
  F  F5  1  0.87557400  0.77444800  0.34740700  1
  F  F6  1  0.88178000  0.75471800  0.01321700  1
  F  F7  1  0.12748800  0.75467100  0.18996700  1
  F  F8  1  0.12442600  0.77444800  0.84740700  1
  F  F9  1  0.87251200  0.75467100  0.68996700  1
loop_
_geom_bond_atom_site_label_1
_geom_bond_atom_site_label_2
_geom_bond_distance
_geom_bond_site_symmetry_2
Mn0 O0 1.932042 1_555
Mn0 O8 1.974091 1_545
Mn0 O4 1.990168 1_455
Mn1 O3 1.903615 1_555
Mn1 O12 2.008676 1_545
Mn1 O0 2.035653 1_655
Mn1 O6 2.069933 1_555
Mn2 O1 1.903615 1_555
Mn2 O13 2.008676 1_545
Mn2 O5 2.035653 1_455
Mn2 O7 2.069933 1_555
Mn3 O4 1.955465 1_555
Mn3 O9 1.960933 1_545
Mn3 O1 2.043792 1_655
Mn4 O5 1.932042 1_555
Mn4 O10 1.974091 1_545
Mn4 O2 1.990168 1_655
Mn5 O2 1.955465 1_554
Mn5 O11 1.960933 1_545
Mn5 O3 2.043792 1_455
Mn6 O13 1.929792 1_555
Mn6 O1 1.992108 1_555
Mn6 O9 2.011414 1_555
Mn7 O7 1.950345 1_555
Mn7 O11 1.966801 1_556
Mn7 O2 1.985132 1_555
Mn7 O10 2.050220 1_555
Mn8 O6 1.950345 1_555
Mn8 O9 1.966801 1_555
Mn8 O4 1.985132 1_555
Mn8 O8 2.050220 1_555
Mn9 O6 1.874734 1_555
Mn9 O8 1.874943 1_555
Mn9 O0 1.970794 1_555
Mn9 O12 1.994023 1_555
Mn10 O12 1.929792 1_555
Mn10 O3 1.992108 1_555
Mn10 O11 2.011414 1_555
Mn11 O7 1.874734 1_555
Mn11 O10 1.874943 1_555
Mn11 O5 1.970794 1_555
Mn11 O13 1.994023 1_555
F0 Mn9 1.991584 1_555
F0 Mn5 2.111671 1_555
F0 Mn10 2.142496 1_555
F1 Mn6 1.999149 1_555
F1 Mn0 2.104673 1_555
F1 Mn8 2.143903 1_555
F2 Mn10 1.999149 1_556
F2 Mn4 2.104673 1_555
F2 Mn7 2.143903 1_555
F3 Mn11 1.991584 1_555
F3 Mn3 2.111671 1_555
F3 Mn6 2.142496 1_555
F4 Mn0 2.017925 1_565
F4 Mn6 2.096298 1_555
F4 Mn3 2.143011 1_465
F5 Mn1 1.982132 1_565
F5 Mn8 2.113620 1_555
F5 Mn0 2.119260 1_665
F6 Mn4 2.017925 1_564
F6 Mn10 2.096298 1_555
F6 Mn5 2.143011 1_665
F7 Mn9 2.067504 1_555
F7 Mn5 2.082286 1_565
F7 Mn1 2.220764 1_465
F8 Mn2 1.982132 1_565
F8 Mn7 2.113620 1_555
F8 Mn4 2.119260 1_465
F9 Mn11 2.067504 1_555
F9 Mn3 2.082286 1_565
F9 Mn2 2.220764 1_665
