# generated using pymatgen
data_Li3Fe9O5F11
_symmetry_space_group_name_H-M   'P 1'
_cell_length_a   6.14335600
_cell_length_b   6.22469325
_cell_length_c   10.33002774
_cell_angle_alpha   75.36299506
_cell_angle_beta   74.34078784
_cell_angle_gamma   61.35659837
_symmetry_Int_Tables_number   1
_chemical_formula_structural   Li3Fe9O5F11
_chemical_formula_sum   'Li3 Fe9 O5 F11'
_cell_volume   330.24191127
_cell_formula_units_Z   1
loop_
 _symmetry_equiv_pos_site_id
 _symmetry_equiv_pos_as_xyz
  1  'x, y, z'
loop_
 _atom_site_type_symbol
 _atom_site_label
 _atom_site_symmetry_multiplicity
 _atom_site_fract_x
 _atom_site_fract_y
 _atom_site_fract_z
 _atom_site_occupancy
  Li  Li0  1  0.19815400  0.17401900  0.42721000  1
  Li  Li1  1  0.99863500  0.00367200  0.99444400  1
  Li  Li2  1  0.81674200  0.81706500  0.57674100  1
  Fe  Fe0  1  0.99876500  0.49987200  0.99677400  1
  Fe  Fe1  1  0.25113400  0.72787900  0.25195900  1
  Fe  Fe2  1  0.24219600  0.25218100  0.75067300  1
  Fe  Fe3  1  0.73460800  0.26037800  0.26134300  1
  Fe  Fe4  1  0.27592900  0.74735200  0.74521200  1
  Fe  Fe5  1  0.49333100  0.99127600  0.99079900  1
  Fe  Fe6  1  0.75147000  0.27417600  0.74498300  1
  Fe  Fe7  1  0.76777200  0.72939200  0.25425500  1
  Fe  Fe8  1  0.48979000  0.52546700  0.99040000  1
  O  O0  1  0.11401200  0.65062000  0.11771200  1
  O  O1  1  0.62598100  0.62282500  0.12630700  1
  O  O2  1  0.37459500  0.37003300  0.87883900  1
  O  O3  1  0.34024900  0.90304700  0.87489500  1
  O  O4  1  0.86465200  0.36073600  0.88792500  1
  F  F0  1  0.09428600  0.12259400  0.13197400  1
  F  F1  1  0.12542500  0.11234000  0.62357800  1
  F  F2  1  0.13098700  0.61319800  0.64560700  1
  F  F3  1  0.38449100  0.36481400  0.36487600  1
  F  F4  1  0.63789400  0.10025100  0.12195800  1
  F  F5  1  0.38716900  0.86702300  0.35449400  1
  F  F6  1  0.62706500  0.12954400  0.64087000  1
  F  F7  1  0.88823500  0.37805600  0.36615300  1
  F  F8  1  0.63454800  0.62772600  0.62848300  1
  F  F9  1  0.87763100  0.88915000  0.37336700  1
  F  F10  1  0.87425500  0.88531300  0.87816900  1
loop_
_geom_bond_atom_site_label_1
_geom_bond_atom_site_label_2
_geom_bond_distance
_geom_bond_site_symmetry_2
Li1 O3 2.013298 1_645
Li1 O4 2.080212 1_555
Li1 O0 2.129096 1_646
Fe0 O4 2.090356 1_555
Fe0 O0 2.156246 1_656
Fe0 O2 2.158329 1_655
Fe0 O1 2.191780 1_556
Fe1 O0 2.054293 1_555
Fe1 O1 2.187936 1_555
Fe2 O3 2.117861 1_545
Fe2 O2 2.144024 1_555
Fe2 O4 2.247839 1_455
Fe3 O1 2.224816 1_555
Fe4 O3 2.049157 1_555
Fe4 O2 2.288560 1_555
Fe5 O3 2.013670 1_555
Fe5 O2 2.203812 1_565
Fe5 O1 2.255013 1_556
Fe6 O4 2.066307 1_555
Fe6 O2 2.234458 1_555
Fe7 O0 2.117634 1_655
Fe7 O1 2.136417 1_555
Fe8 O2 2.103623 1_555
Fe8 O4 2.108100 1_555
Fe8 O1 2.142072 1_556
Fe8 O0 2.195561 1_556
Fe8 O3 2.212699 1_555
F0 Li1 2.076251 1_454
F0 Fe3 2.138291 1_455
F0 Fe0 2.296448 1_454
F0 Fe1 2.310277 1_545
F0 Fe5 2.357125 1_544
F1 Li0 1.934785 1_555
F1 Fe2 2.163489 1_555
F1 Fe6 2.174814 1_455
F1 Fe4 2.183087 1_545
F2 Li2 1.944168 1_455
F2 Fe4 2.047090 1_555
F2 Fe2 2.095339 1_555
F3 Li0 1.911683 1_555
F3 Fe3 1.990430 1_555
F3 Fe1 2.132549 1_555
F4 Li1 2.134223 1_554
F4 Fe5 2.185442 1_544
F4 Fe7 2.249835 1_545
F4 Fe3 2.274768 1_555
F4 Fe8 2.494242 1_554
F5 Li0 1.921347 1_565
F5 Fe1 2.050831 1_555
F5 Fe7 2.119938 1_555
F6 Li2 1.908292 1_545
F6 Fe6 2.035685 1_555
F6 Fe2 2.172348 1_555
F7 Li0 1.887059 1_655
F7 Fe3 2.052982 1_555
F7 Fe7 2.073440 1_555
F8 Li2 1.884383 1_555
F8 Fe4 2.075844 1_555
F8 Fe6 2.102406 1_555
F9 Li2 2.003782 1_555
F9 Fe7 2.160670 1_555
F9 Fe3 2.168358 1_565
F9 Fe1 2.172583 1_655
F10 Li1 2.012898 1_565
F10 Fe5 2.168702 1_555
F10 Fe0 2.259081 1_555
F10 Fe6 2.334016 1_565
F10 Fe4 2.334078 1_655
