# generated using pymatgen
data_LiMnH8(SO6)2
_symmetry_space_group_name_H-M   'P 1'
_cell_length_a   9.31911300
_cell_length_b   11.60569487
_cell_length_c   11.73788302
_cell_angle_alpha   114.78192499
_cell_angle_beta   113.27090604
_cell_angle_gamma   89.88380087
_symmetry_Int_Tables_number   1
_chemical_formula_structural   LiMnH8(SO6)2
_chemical_formula_sum   'Li4 Mn4 H32 S8 O48'
_cell_volume   1038.26852131
_cell_formula_units_Z   4
loop_
 _symmetry_equiv_pos_site_id
 _symmetry_equiv_pos_as_xyz
  1  'x, y, z'
loop_
 _atom_site_type_symbol
 _atom_site_label
 _atom_site_symmetry_multiplicity
 _atom_site_fract_x
 _atom_site_fract_y
 _atom_site_fract_z
 _atom_site_occupancy
  Li  Li0  1  0.24588400  0.21339400  0.27566500  1
  Li  Li1  1  0.42997300  0.79128400  0.72971700  1
  Li  Li2  1  0.97342600  0.28692500  0.72506600  1
  Li  Li3  1  0.69423600  0.69990800  0.26373500  1
  Mn  Mn0  1  0.00266800  0.99975600  0.49844200  1
  Mn  Mn1  1  0.24883300  0.75004300  0.00012100  1
  Mn  Mn2  1  0.50326500  0.50193900  0.50217800  1
  Mn  Mn3  1  0.74653200  0.24956600  0.00042600  1
  H  H0  1  0.99832700  0.16802000  0.96223300  1
  H  H1  1  0.09162400  0.53943300  0.72964800  1
  H  H2  1  0.11133800  0.67542800  0.72601000  1
  H  H3  1  0.25875900  0.04443000  0.73767600  1
  H  H4  1  0.02087200  0.96962100  0.25769500  1
  H  H5  1  0.46479400  0.16978400  0.97284900  1
  H  H6  1  0.28946800  0.95984800  0.60554500  1
  H  H7  1  0.19224600  0.52625900  0.38913400  1
  H  H8  1  0.19210400  0.04020100  0.38762500  1
  H  H9  1  0.31143900  0.47296100  0.60781800  1
  H  H10  1  0.49869300  0.66731900  0.95810300  1
  H  H11  1  0.03615300  0.33173200  0.03877200  1
  H  H12  1  0.23999500  0.47176300  0.26434000  1
  H  H13  1  0.47788600  0.53944600  0.73631100  1
  H  H14  1  0.36278600  0.96268300  0.26980000  1
  H  H15  1  0.59224300  0.17318900  0.72785500  1
  H  H16  1  0.38728800  0.82761500  0.27518600  1
  H  H17  1  0.64175600  0.03985500  0.73077500  1
  H  H18  1  0.52212200  0.45567400  0.26182200  1
  H  H19  1  0.76217600  0.52970400  0.74151200  1
  H  H20  1  0.96815400  0.67093800  0.97703700  1
  H  H21  1  0.49338100  0.32921200  0.02808000  1
  H  H22  1  0.68398300  0.54032100  0.39387700  1
  H  H23  1  0.80583300  0.97545400  0.61256900  1
  H  H24  1  0.80335800  0.45971400  0.61106800  1
  H  H25  1  0.70657800  0.03300400  0.39488600  1
  H  H26  1  0.54141200  0.83165600  0.04268100  1
  H  H27  1  0.97691300  0.02906300  0.73730800  1
  H  H28  1  0.74312700  0.96386000  0.26509300  1
  H  H29  1  0.86529300  0.32688400  0.27358600  1
  H  H30  1  0.91256800  0.46005300  0.27037200  1
  H  H31  1  0.98947900  0.82800600  0.02229700  1
  S  S0  1  0.22385800  0.03223600  0.96910400  1
  S  S1  1  0.01838800  0.28977100  0.51498500  1
  S  S2  1  0.50655600  0.79019700  0.52333800  1
  S  S3  1  0.25620000  0.46863300  0.03222700  1
  S  S4  1  0.72214500  0.53210900  0.97157100  1
  S  S5  1  0.50216200  0.21181000  0.48585800  1
  S  S6  1  0.98261700  0.71131300  0.47653700  1
  S  S7  1  0.74965900  0.96565100  0.02710200  1
  O  O0  1  0.05675700  0.04392300  0.89134600  1
  O  O1  1  0.17043800  0.37515600  0.88492700  1
  O  O2  1  0.01889300  0.18416600  0.56450400  1
  O  O3  1  0.22090500  0.89688400  0.94953100  1
  O  O4  1  0.15536900  0.62931300  0.78309100  1
  O  O5  1  0.08218900  0.76225300  0.62642900  1
  O  O6  1  0.03826400  0.60249200  0.39300400  1
  O  O7  1  0.32482300  0.05343600  0.90439700  1
  O  O8  1  0.18038100  0.33220300  0.54059300  1
  O  O9  1  0.23644000  0.03227000  0.64250300  1
  O  O10  1  0.09004800  0.98313900  0.35372000  1
  O  O11  1  0.04158600  0.74923300  0.99822000  1
  O  O12  1  0.26106100  0.46901200  0.35450000  1
  O  O13  1  0.40525800  0.54284100  0.64704400  1
  O  O14  1  0.37611000  0.82938700  0.56637400  1
  O  O15  1  0.16807800  0.45596600  0.11059400  1
  O  O16  1  0.55864200  0.54508600  0.88699500  1
  O  O17  1  0.35307900  0.10867200  0.38527600  1
  O  O18  1  0.53119500  0.25915200  0.63033300  1
  O  O19  1  0.28432900  0.12558600  0.11620400  1
  O  O20  1  0.45178700  0.31809400  0.43770000  1
  O  O21  1  0.62976400  0.12831600  0.78723100  1
  O  O22  1  0.27005500  0.60389100  0.05144700  1
  O  O23  1  0.71573200  0.39538300  0.94806700  1
  O  O24  1  0.37188600  0.87216100  0.21636900  1
  O  O25  1  0.55891600  0.68528000  0.57057800  1
  O  O26  1  0.65241300  0.87520700  0.88007300  1
  O  O27  1  0.45716100  0.73953000  0.37387000  1
  O  O28  1  0.64599600  0.89812400  0.60755100  1
  O  O29  1  0.42252500  0.44847900  0.09613500  1
  O  O30  1  0.83238800  0.55549500  0.91565600  1
  O  O31  1  0.63880200  0.17016800  0.45891100  1
  O  O32  1  0.59346400  0.46942800  0.35782700  1
  O  O33  1  0.73493600  0.51675200  0.64543500  1
  O  O34  1  0.45996700  0.74974400  0.00234800  1
  O  O35  1  0.54139300  0.24944200  0.00232900  1
  O  O36  1  0.90857100  0.03304600  0.64788500  1
  O  O37  1  0.76217400  0.96321100  0.35619000  1
  O  O38  1  0.80963800  0.67258000  0.43366500  1
  O  O39  1  0.67086500  0.95505800  0.11290200  1
  O  O40  1  0.96814800  0.39274600  0.61543500  1
  O  O41  1  0.90286600  0.24093500  0.37047900  1
  O  O42  1  0.84539300  0.37134100  0.21386600  1
  O  O43  1  0.76883700  0.10210300  0.04994600  1
  O  O44  1  0.98931200  0.81617800  0.43000600  1
  O  O45  1  0.77258200  0.62229000  0.11914800  1
  O  O46  1  0.91528900  0.94098700  0.08291000  1
  O  O47  1  0.95530900  0.25001600  0.99876900  1
loop_
_geom_bond_atom_site_label_1
_geom_bond_atom_site_label_2
_geom_bond_distance
_geom_bond_site_symmetry_2
Li0 O19 1.897259 1_555
Li0 O20 1.991014 1_555
Li0 O17 2.102571 1_555
Li1 O26 2.009193 1_555
Li1 O14 2.018164 1_555
Li1 O25 2.507540 1_555
Li1 O13 2.605548 1_555
Li2 O1 1.901318 1_655
Li2 O2 1.974441 1_655
Li2 O40 2.107439 1_555
Li3 O45 1.979801 1_555
Li3 O38 2.017340 1_555
Mn0 O44 1.920240 1_455
Mn0 O2 1.929256 1_565
Mn0 O9 2.074951 1_565
Mn0 O10 2.098500 1_555
Mn0 O37 2.108098 1_455
Mn0 O36 2.154332 1_465
Mn1 O11 1.922648 1_554
Mn1 O34 1.957417 1_555
Mn1 O22 2.010055 1_555
Mn1 O3 2.012234 1_554
Mn1 O24 2.111250 1_555
Mn1 O4 2.114441 1_554
Mn2 O25 1.919480 1_555
Mn2 O20 1.928447 1_555
Mn2 O32 2.075567 1_555
Mn2 O33 2.099724 1_555
Mn2 O13 2.121242 1_555
Mn2 O12 2.145240 1_555
Mn3 O35 1.920659 1_555
Mn3 O47 1.953422 1_554
Mn3 O43 2.011724 1_555
Mn3 O23 2.013595 1_554
Mn3 O21 2.080624 1_554
Mn3 O42 2.082309 1_555
H0 O47 1.020971 1_555
H0 O0 1.553475 1_655
H1 O4 0.996995 1_555
H1 O40 1.701540 1_455
H2 O4 0.993081 1_555
H3 O9 0.997753 1_555
H4 O10 0.994308 1_555
H5 O35 1.011578 1_556
H5 O7 1.561996 1_555
H6 O9 1.000443 1_565
H6 O14 1.691326 1_555
H7 O12 0.997889 1_555
H7 O6 1.690160 1_555
H8 O10 0.991977 1_545
H8 O17 1.714221 1_555
H9 O13 1.002942 1_555
H9 O8 1.717238 1_555
H10 O34 1.022376 1_556
H10 O16 1.547192 1_555
H11 O47 1.018600 1_454
H11 O15 1.571711 1_555
H12 O12 1.011766 1_555
H12 O15 1.583352 1_555
H13 O13 1.015717 1_555
H13 O16 1.596987 1_555
H14 O24 0.996760 1_555
H14 O17 1.699142 1_565
H15 O21 0.995087 1_555
H16 O24 0.992537 1_555
H17 O21 0.996666 1_555
H17 O28 1.688087 1_545
H18 O32 0.997511 1_555
H19 O33 0.995324 1_555
H20 O11 1.017086 1_655
H20 O30 1.546699 1_555
H21 O35 1.009568 1_555
H21 O29 1.573596 1_555
H22 O32 0.998240 1_555
H22 O38 1.708692 1_555
H23 O36 0.995977 1_565
H23 O28 1.708633 1_555
H24 O33 0.992557 1_555
H24 O40 1.712134 1_555
H25 O37 1.003319 1_545
H25 O31 1.692888 1_555
H26 O34 1.022563 1_555
H26 O39 1.554845 1_555
H27 O36 1.010858 1_555
H27 O0 1.590162 1_655
H28 O37 1.015732 1_555
H28 O39 1.597464 1_555
H29 O42 0.996032 1_555
H30 O42 0.996931 1_555
H30 O6 1.690433 1_655
H31 O11 1.020537 1_654
H31 O46 1.518694 1_555
O0 S0 1.502094 1_555
O1 S3 1.464329 1_556
O2 S1 1.560464 1_555
O3 S0 1.487868 1_565
O5 S6 1.465028 1_455
O6 S6 1.478624 1_455
O7 S0 1.498329 1_555
O8 S1 1.460212 1_555
O14 S2 1.493384 1_555
O15 S3 1.500969 1_555
O16 S4 1.503022 1_555
O17 S5 1.510900 1_555
O18 S5 1.451849 1_555
O19 S0 1.462200 1_554
O20 S5 1.560111 1_555
O22 S3 1.487495 1_555
O23 S4 1.489286 1_555
O25 S2 1.542082 1_555
O26 S7 1.466590 1_556
O27 S2 1.460759 1_555
O28 S2 1.479287 1_555
O29 S3 1.498939 1_555
O30 S4 1.497720 1_555
O31 S5 1.463785 1_555
O38 S6 1.492047 1_555
O39 S7 1.502352 1_555
O40 S1 1.513372 1_655
O41 S1 1.452913 1_655
O43 S7 1.489628 1_545
O44 S6 1.538782 1_555
O45 S4 1.468247 1_554
O46 S7 1.499993 1_555
