# generated using pymatgen
data_Li4Mn3OF8
_symmetry_space_group_name_H-M   'P 1'
_cell_length_a   5.17256321
_cell_length_b   5.17256321
_cell_length_c   11.66797594
_cell_angle_alpha   78.37232709
_cell_angle_beta   78.37232709
_cell_angle_gamma   33.65021469
_symmetry_Int_Tables_number   1
_chemical_formula_structural   Li4Mn3OF8
_chemical_formula_sum   'Li4 Mn3 O1 F8'
_cell_volume   169.10804507
_cell_formula_units_Z   1
loop_
 _symmetry_equiv_pos_site_id
 _symmetry_equiv_pos_as_xyz
  1  'x, y, z'
loop_
 _atom_site_type_symbol
 _atom_site_label
 _atom_site_symmetry_multiplicity
 _atom_site_fract_x
 _atom_site_fract_y
 _atom_site_fract_z
 _atom_site_occupancy
  Li  Li0  1  0.14047400  0.14047400  0.45117500  1
  Li  Li1  1  0.76857800  0.76857800  0.87385700  1
  Li  Li2  1  0.86168500  0.86168500  0.55567100  1
  Li  Li3  1  0.00006300  0.00006300  0.99707500  1
  Mn  Mn0  1  0.55715500  0.55715500  0.71228200  1
  Mn  Mn1  1  0.24791800  0.24791800  0.11947800  1
  Mn  Mn2  1  0.42940000  0.42940000  0.28202600  1
  O  O0  1  0.87541200  0.87541200  0.16404000  1
  F  F0  1  0.63145600  0.63145600  0.03968900  1
  F  F1  1  0.09344500  0.09344500  0.28948900  1
  F  F2  1  0.12418200  0.12418200  0.83425300  1
  F  F3  1  0.19204700  0.19204700  0.60735000  1
  F  F4  1  0.80374500  0.80374500  0.40557600  1
  F  F5  1  0.89924900  0.89924900  0.71953300  1
  F  F6  1  0.37428600  0.37428600  0.93637900  1
  F  F7  1  0.50089800  0.50089800  0.51212500  1
loop_
_geom_bond_atom_site_label_1
_geom_bond_atom_site_label_2
_geom_bond_distance
_geom_bond_site_symmetry_2
Li3 O0 2.075130 1_446
Mn1 O0 2.093387 1_545
Mn1 O0 2.093387 1_455
Mn2 O0 2.175442 1_545
Mn2 O0 2.175442 1_455
F0 Li3 2.110480 1_654
F0 Li3 2.110480 1_564
F0 Li1 2.116880 1_554
F0 Mn1 2.211434 1_655
F0 Mn1 2.211434 1_565
F1 Li0 2.036154 1_555
F1 Mn2 2.224301 1_455
F1 Mn2 2.224301 1_545
F1 Mn1 2.235385 1_555
F2 Li3 2.033843 1_555
F2 Li1 2.185837 1_545
F2 Li1 2.185837 1_455
F2 Mn0 2.259492 1_455
F2 Mn0 2.259492 1_545
F3 Li0 1.993311 1_555
F3 Mn0 2.199118 1_545
F3 Mn0 2.199118 1_455
F3 Li2 2.236156 1_455
F3 Li2 2.236156 1_545
F4 Li2 1.954326 1_555
F4 Li0 2.185485 1_565
F4 Li0 2.185485 1_655
F4 Mn2 2.261105 1_565
F4 Mn2 2.261105 1_655
F5 Li1 1.983788 1_555
F5 Li2 2.023207 1_555
F5 Mn0 2.153603 1_565
F5 Mn0 2.153603 1_655
F6 Li1 2.047209 1_455
F6 Li1 2.047209 1_545
F6 Li3 2.160056 1_565
F6 Li3 2.160056 1_655
F6 Mn1 2.237005 1_556
F7 Li2 2.026117 1_545
F7 Li2 2.026117 1_455
F7 Li0 2.060024 1_565
F7 Li0 2.060024 1_655
F7 Mn0 2.512457 1_555
