# generated using pymatgen
data_HfScOs2
_symmetry_space_group_name_H-M   'P 1'
_cell_length_a   4.55422740
_cell_length_b   4.55422740
_cell_length_c   4.55422740
_cell_angle_alpha   60.00000000
_cell_angle_beta   60.00000000
_cell_angle_gamma   60.00000000
_symmetry_Int_Tables_number   1
_chemical_formula_structural   HfScOs2
_chemical_formula_sum   'Hf1 Sc1 Os2'
_cell_volume   66.79272140
_cell_formula_units_Z   1
loop_
 _symmetry_equiv_pos_site_id
 _symmetry_equiv_pos_as_xyz
  1  'x, y, z'
loop_
 _atom_site_type_symbol
 _atom_site_label
 _atom_site_symmetry_multiplicity
 _atom_site_fract_x
 _atom_site_fract_y
 _atom_site_fract_z
 _atom_site_occupancy
  Hf  Hf0  1  0.25000000  0.25000000  0.25000000  1
  Sc  Sc0  1  0.75000100  0.75000100  0.75000100  1
  Os  Os0  1  0.00000000  -0.00000000  0.00000000  1
  Os  Os1  1  0.50000000  0.50000000  0.50000000  1
loop_
_geom_bond_atom_site_label_1
_geom_bond_atom_site_label_2
_geom_bond_distance
_geom_bond_site_symmetry_2
Hf0 Os0 2.788883 1_655
Hf0 Os1 2.788883 1_455
Hf0 Os1 2.788883 1_545
Hf0 Os0 2.788883 1_556
Hf0 Os0 2.788883 1_565
Hf0 Os0 2.788883 1_555
Hf0 Os1 2.788883 1_554
Hf0 Os1 2.788883 1_555
Os0 Sc0 2.788872 1_444
Os0 Sc0 2.788887 1_544
Os0 Sc0 2.788887 1_454
Os0 Sc0 2.788887 1_445
Os1 Sc0 2.788880 1_545
Os1 Sc0 2.788880 1_455
Os1 Sc0 2.788880 1_554
Os1 Sc0 2.788894 1_555
