# generated using pymatgen
data_Sc2GaCu
_symmetry_space_group_name_H-M   'P 1'
_cell_length_a   4.66622486
_cell_length_b   4.66622486
_cell_length_c   4.66622486
_cell_angle_alpha   60.00000000
_cell_angle_beta   60.00000000
_cell_angle_gamma   60.00000000
_symmetry_Int_Tables_number   1
_chemical_formula_structural   Sc2GaCu
_chemical_formula_sum   'Sc2 Ga1 Cu1'
_cell_volume   71.84259172
_cell_formula_units_Z   1
loop_
 _symmetry_equiv_pos_site_id
 _symmetry_equiv_pos_as_xyz
  1  'x, y, z'
loop_
 _atom_site_type_symbol
 _atom_site_label
 _atom_site_symmetry_multiplicity
 _atom_site_fract_x
 _atom_site_fract_y
 _atom_site_fract_z
 _atom_site_occupancy
  Sc  Sc0  1  0.00000000  -0.00000000  0.00000000  1
  Sc  Sc1  1  0.50000000  0.50000000  0.50000000  1
  Ga  Ga0  1  0.74999900  0.74999900  0.74999900  1
  Cu  Cu0  1  0.25000000  0.25000000  0.25000000  1
loop_
_geom_bond_atom_site_label_1
_geom_bond_atom_site_label_2
_geom_bond_distance
_geom_bond_site_symmetry_2
Ga0 Sc1 2.857456 1_555
Ga0 Sc0 2.857464 1_566
Ga0 Sc0 2.857464 1_656
Ga0 Sc0 2.857464 1_665
Ga0 Sc1 2.857471 1_556
Ga0 Sc1 2.857471 1_565
Ga0 Sc1 2.857471 1_655
Ga0 Sc0 2.857479 1_666
Cu0 Sc0 2.857467 1_655
Cu0 Sc1 2.857467 1_455
Cu0 Sc1 2.857467 1_554
Cu0 Sc1 2.857467 1_555
Cu0 Sc0 2.857467 1_565
Cu0 Sc1 2.857467 1_545
Cu0 Sc0 2.857467 1_555
Cu0 Sc0 2.857467 1_556
