# generated using pymatgen
data_CaSnS3
_symmetry_space_group_name_H-M   'P 1'
_cell_length_a   7.03301900
_cell_length_b   8.87926400
_cell_length_c   25.01870130
_cell_angle_alpha   76.81606831
_cell_angle_beta   90.00000000
_cell_angle_gamma   90.00000000
_symmetry_Int_Tables_number   1
_chemical_formula_structural   CaSnS3
_chemical_formula_sum   'Ca12 Sn12 S36'
_cell_volume   1521.18916957
_cell_formula_units_Z   12
loop_
 _symmetry_equiv_pos_site_id
 _symmetry_equiv_pos_as_xyz
  1  'x, y, z'
loop_
 _atom_site_type_symbol
 _atom_site_label
 _atom_site_symmetry_multiplicity
 _atom_site_fract_x
 _atom_site_fract_y
 _atom_site_fract_z
 _atom_site_occupancy
  Ca  Ca0  1  0.24064900  0.94202200  0.54744400  1
  Ca  Ca1  1  0.74064900  0.05797800  0.95255600  1
  Ca  Ca2  1  0.75935100  0.05797800  0.45255600  1
  Ca  Ca3  1  0.25935100  0.94202200  0.04744400  1
  Ca  Ca4  1  0.84900900  0.64879700  0.67405400  1
  Ca  Ca5  1  0.34900900  0.35120300  0.82594600  1
  Ca  Ca6  1  0.15099100  0.35120300  0.32594600  1
  Ca  Ca7  1  0.65099100  0.64879700  0.17405400  1
  Ca  Ca8  1  0.32791100  0.86041900  0.71285300  1
  Ca  Ca9  1  0.82791100  0.13958100  0.78714700  1
  Ca  Ca10  1  0.67208900  0.13958100  0.28714700  1
  Ca  Ca11  1  0.17208900  0.86041900  0.21285300  1
  Sn  Sn0  1  0.78186800  0.17983000  0.60048700  1
  Sn  Sn1  1  0.28186800  0.82017000  0.89951300  1
  Sn  Sn2  1  0.21813200  0.82017000  0.39951300  1
  Sn  Sn3  1  0.71813200  0.17983000  0.10048700  1
  Sn  Sn4  1  0.72362900  0.58094500  0.48474000  1
  Sn  Sn5  1  0.22362900  0.41905500  0.01526000  1
  Sn  Sn6  1  0.27637100  0.41905500  0.51526000  1
  Sn  Sn7  1  0.77637100  0.58094500  0.98474000  1
  Sn  Sn8  1  0.37916400  0.37334300  0.65075500  1
  Sn  Sn9  1  0.87916400  0.62665700  0.84924500  1
  Sn  Sn10  1  0.62083600  0.62665700  0.34924500  1
  Sn  Sn11  1  0.12083600  0.37334300  0.15075500  1
  S  S0  1  0.75001200  0.46510000  0.59620900  1
  S  S1  1  0.25001200  0.53490000  0.90379100  1
  S  S2  1  0.24998800  0.53490000  0.40379100  1
  S  S3  1  0.74998800  0.46510000  0.09620900  1
  S  S4  1  0.47428500  0.82564700  0.46890700  1
  S  S5  1  0.97428500  0.17435300  0.03109300  1
  S  S6  1  0.52571500  0.17435300  0.53109300  1
  S  S7  1  0.02571500  0.82564700  0.96890700  1
  S  S8  1  0.98914100  0.77646600  0.48867500  1
  S  S9  1  0.48914100  0.22353400  0.01132500  1
  S  S10  1  0.01085900  0.22353400  0.51132500  1
  S  S11  1  0.51085900  0.77646600  0.98867500  1
  S  S12  1  0.53191400  0.81459100  0.62183600  1
  S  S13  1  0.03191400  0.18540900  0.87816400  1
  S  S14  1  0.46808600  0.18540900  0.37816400  1
  S  S15  1  0.96808600  0.81459100  0.12183600  1
  S  S16  1  0.99884600  0.95999200  0.63853800  1
  S  S17  1  0.49884600  0.04000800  0.86146200  1
  S  S18  1  0.00115400  0.04000800  0.36146200  1
  S  S19  1  0.50115400  0.95999200  0.13853800  1
  S  S20  1  0.59804400  0.11805400  0.69470000  1
  S  S21  1  0.09804400  0.88194600  0.80530000  1
  S  S22  1  0.40195600  0.88194600  0.30530000  1
  S  S23  1  0.90195600  0.11805400  0.19470000  1
  S  S24  1  0.08635800  0.37691600  0.72997500  1
  S  S25  1  0.58635800  0.62308400  0.77002500  1
  S  S26  1  0.91364200  0.62308400  0.27002500  1
  S  S27  1  0.41364200  0.37691600  0.22997500  1
  S  S28  1  0.59555800  0.42247600  0.73554900  1
  S  S29  1  0.09555800  0.57752400  0.76445100  1
  S  S30  1  0.40444200  0.57752400  0.26445100  1
  S  S31  1  0.90444200  0.42247600  0.23554900  1
  S  S32  1  0.28914600  0.67459000  0.63268000  1
  S  S33  1  0.78914600  0.32541000  0.86732000  1
  S  S34  1  0.71085400  0.32541000  0.36732000  1
  S  S35  1  0.21085400  0.67459000  0.13268000  1
loop_
_geom_bond_atom_site_label_1
_geom_bond_atom_site_label_2
_geom_bond_distance
_geom_bond_site_symmetry_2
Ca0 S12 2.824875 1_555
Ca0 S32 2.827136 1_555
Ca0 S6 2.838590 1_565
Ca0 S16 2.877061 1_455
Ca0 S8 2.904755 1_455
Ca0 S4 2.924847 1_555
Ca0 S10 2.940435 1_565
Ca1 S13 2.824875 1_655
Ca1 S33 2.827136 1_555
Ca1 S7 2.838590 1_645
Ca1 S17 2.877061 1_555
Ca1 S9 2.904755 1_556
Ca1 S5 2.924847 1_556
Ca1 S11 2.940435 1_545
Ca2 S14 2.824875 1_555
Ca2 S34 2.827136 1_555
Ca2 S4 2.838590 1_545
Ca2 S18 2.877061 1_655
Ca2 S10 2.904755 1_655
Ca2 S6 2.924847 1_555
Ca2 S8 2.940435 1_545
Ca3 S15 2.824875 1_455
Ca3 S35 2.827136 1_555
Ca3 S5 2.838590 1_465
Ca3 S19 2.877061 1_555
Ca3 S11 2.904755 1_554
Ca3 S7 2.924847 1_554
Ca3 S9 2.940435 1_565
Ca4 S29 2.805214 1_655
Ca4 S12 2.823141 1_555
Ca4 S28 2.858755 1_555
Ca4 S0 2.896095 1_555
Ca4 S16 2.900905 1_555
Ca4 S25 2.996574 1_555
Ca4 S24 3.005183 1_655
Ca4 S32 3.255436 1_655
Ca5 S28 2.805214 1_555
Ca5 S13 2.823141 1_555
Ca5 S29 2.858755 1_555
Ca5 S1 2.896095 1_555
Ca5 S17 2.900905 1_555
Ca5 S24 2.996574 1_555
Ca5 S25 3.005183 1_555
Ca5 S33 3.255436 1_555
Ca6 S31 2.805214 1_455
Ca6 S14 2.823141 1_555
Ca6 S30 2.858755 1_555
Ca6 S2 2.896095 1_555
Ca6 S18 2.900905 1_555
Ca6 S27 2.996574 1_555
Ca6 S26 3.005183 1_455
Ca6 S34 3.255436 1_455
Ca7 S30 2.805214 1_555
Ca7 S15 2.823141 1_555
Ca7 S31 2.858755 1_555
Ca7 S3 2.896095 1_555
Ca7 S19 2.900905 1_555
Ca7 S26 2.996574 1_555
Ca7 S27 3.005183 1_555
Ca7 S35 3.255436 1_555
Ca8 S12 2.798588 1_555
Ca8 S21 2.863793 1_555
Ca8 S32 2.886167 1_555
Ca8 S25 2.901005 1_555
Ca8 S20 2.928298 1_565
Ca8 S16 2.974019 1_455
Ca8 S29 3.027767 1_555
Ca9 S13 2.798588 1_655
Ca9 S20 2.863793 1_555
Ca9 S33 2.886167 1_555
Ca9 S24 2.901005 1_655
Ca9 S21 2.928298 1_645
Ca9 S17 2.974019 1_555
Ca9 S28 3.027767 1_555
Ca10 S14 2.798588 1_555
Ca10 S23 2.863793 1_555
Ca10 S34 2.886167 1_555
Ca10 S27 2.901005 1_555
Ca10 S22 2.928298 1_545
Ca10 S18 2.974019 1_655
Ca10 S31 3.027767 1_555
Ca11 S15 2.798588 1_455
Ca11 S22 2.863793 1_555
Ca11 S35 2.886167 1_555
Ca11 S26 2.901005 1_455
Ca11 S23 2.928298 1_465
Ca11 S19 2.974019 1_555
Ca11 S30 3.027767 1_555
S0 Sn0 2.520716 1_555
S0 Sn4 2.749801 1_555
S0 Sn8 2.970110 1_555
S1 Sn1 2.520716 1_555
S1 Sn5 2.749801 1_556
S1 Sn9 2.970110 1_455
S2 Sn2 2.520716 1_555
S2 Sn6 2.749801 1_555
S2 Sn10 2.970110 1_555
S3 Sn3 2.520716 1_555
S3 Sn7 2.749801 1_554
S3 Sn11 2.970110 1_655
S4 Sn2 2.510099 1_555
S4 Sn4 2.749638 1_555
S5 Sn3 2.510099 1_555
S5 Sn5 2.749638 1_655
S6 Sn0 2.510099 1_555
S6 Sn6 2.749638 1_555
S7 Sn1 2.510099 1_555
S7 Sn7 2.749638 1_455
S8 Sn4 2.566834 1_555
S8 Sn2 2.706570 1_655
S9 Sn5 2.566834 1_555
S9 Sn3 2.706570 1_555
S10 Sn6 2.566834 1_555
S10 Sn0 2.706570 1_455
S11 Sn7 2.566834 1_555
S11 Sn1 2.706570 1_555
S12 S32 2.092908 1_555
S13 S33 2.092908 1_455
S14 S34 2.092908 1_555
S15 S35 2.092908 1_655
S16 Sn0 2.489503 1_565
S17 Sn1 2.489503 1_545
S18 Sn2 2.489503 1_545
S19 Sn3 2.489503 1_565
S20 Sn0 2.634083 1_555
S20 Sn8 2.753171 1_555
S21 Sn1 2.634083 1_555
S21 Sn9 2.753171 1_455
S22 Sn2 2.634083 1_555
S22 Sn10 2.753171 1_555
S23 Sn3 2.634083 1_555
S23 Sn11 2.753171 1_655
S24 S29 2.149853 1_555
S24 Sn8 2.863337 1_555
S25 S28 2.149853 1_555
S25 Sn9 2.863337 1_555
S26 S31 2.149853 1_555
S26 Sn10 2.863337 1_555
S27 S30 2.149853 1_555
S27 Sn11 2.863337 1_555
S28 Sn8 2.725652 1_555
S29 Sn9 2.725652 1_455
S30 Sn10 2.725652 1_555
S31 Sn11 2.725652 1_655
S32 Sn8 2.684842 1_555
S33 Sn9 2.684842 1_555
S34 Sn10 2.684842 1_555
S35 Sn11 2.684842 1_555
