# generated using pymatgen
data_CaPrAg2
_symmetry_space_group_name_H-M   'P 1'
_cell_length_a   5.26215292
_cell_length_b   5.26215292
_cell_length_c   5.26215292
_cell_angle_alpha   60.00000000
_cell_angle_beta   60.00000000
_cell_angle_gamma   60.00000000
_symmetry_Int_Tables_number   1
_chemical_formula_structural   CaPrAg2
_chemical_formula_sum   'Ca1 Pr1 Ag2'
_cell_volume   103.03277455
_cell_formula_units_Z   1
loop_
 _symmetry_equiv_pos_site_id
 _symmetry_equiv_pos_as_xyz
  1  'x, y, z'
loop_
 _atom_site_type_symbol
 _atom_site_label
 _atom_site_symmetry_multiplicity
 _atom_site_fract_x
 _atom_site_fract_y
 _atom_site_fract_z
 _atom_site_occupancy
  Ca  Ca0  1  0.25000000  0.25000000  0.25000000  1
  Pr  Pr0  1  0.74999900  0.74999900  0.74999900  1
  Ag  Ag0  1  -0.00000000  0.00000000  -0.00000000  1
  Ag  Ag1  1  0.49999900  0.49999900  0.49999900  1
loop_
_geom_bond_atom_site_label_1
_geom_bond_atom_site_label_2
_geom_bond_distance
_geom_bond_site_symmetry_2
Ag0 Pr0 3.222393 1_544
Ag0 Pr0 3.222393 1_445
Ag0 Pr0 3.222393 1_454
Ag0 Ca0 3.222397 1_455
Ag0 Ca0 3.222397 1_555
Ag0 Ca0 3.222397 1_545
Ag0 Ca0 3.222397 1_554
Ag0 Pr0 3.222410 1_444
Ag1 Ca0 3.222385 1_555
Ag1 Pr0 3.222397 1_555
Ag1 Pr0 3.222397 1_545
Ag1 Pr0 3.222397 1_455
Ag1 Pr0 3.222397 1_554
Ag1 Ca0 3.222402 1_655
Ag1 Ca0 3.222402 1_556
Ag1 Ca0 3.222402 1_565
