# generated using pymatgen
data_MnNbRu2
_symmetry_space_group_name_H-M   'P 1'
_cell_length_a   4.38456868
_cell_length_b   4.38466136
_cell_length_c   4.38437151
_cell_angle_alpha   60.00244744
_cell_angle_beta   60.00488753
_cell_angle_gamma   59.99455311
_symmetry_Int_Tables_number   1
_chemical_formula_structural   MnNbRu2
_chemical_formula_sum   'Mn1 Nb1 Ru2'
_cell_volume   59.60208779
_cell_formula_units_Z   1
loop_
 _symmetry_equiv_pos_site_id
 _symmetry_equiv_pos_as_xyz
  1  'x, y, z'
loop_
 _atom_site_type_symbol
 _atom_site_label
 _atom_site_symmetry_multiplicity
 _atom_site_fract_x
 _atom_site_fract_y
 _atom_site_fract_z
 _atom_site_occupancy
  Mn  Mn0  1  0.25000075  0.24999927  0.24999916  1
  Nb  Nb0  1  0.74999753  0.75000247  0.75000152  1
  Ru  Ru0  1  0.99998020  0.99994268  -0.00000161  1
  Ru  Ru1  1  0.50002052  0.50005659  0.49999992  1
loop_
_geom_bond_atom_site_label_1
_geom_bond_atom_site_label_2
_geom_bond_distance
_geom_bond_site_symmetry_2
Mn0 Ru1 2.684747 1_545
Mn0 Ru0 2.684749 1_455
Mn0 Ru0 2.684888 1_545
Mn0 Ru1 2.684890 1_455
Mn0 Ru0 2.685051 1_446
Mn0 Ru1 2.685051 1_554
Mn0 Ru1 2.685234 1_555
Mn0 Ru0 2.685234 1_445
Nb0 Ru0 2.684668 1_556
Nb0 Ru1 2.684685 1_555
Nb0 Ru0 2.685023 1_456
Nb0 Ru1 2.685043 1_655
Nb0 Ru1 2.685048 1_556
Nb0 Ru0 2.685065 1_555
Nb0 Ru1 2.685146 1_565
Nb0 Ru0 2.685166 1_546
