# generated using pymatgen
data_Li3Mn4(BO3)4
_symmetry_space_group_name_H-M   'P 1'
_cell_length_a   5.90507000
_cell_length_b   8.28502063
_cell_length_c   10.57297749
_cell_angle_alpha   90.36800959
_cell_angle_beta   90.65972218
_cell_angle_gamma   102.00246289
_symmetry_Int_Tables_number   1
_chemical_formula_structural   Li3Mn4(BO3)4
_chemical_formula_sum   'Li6 Mn8 B8 O24'
_cell_volume   505.90612698
_cell_formula_units_Z   2
loop_
 _symmetry_equiv_pos_site_id
 _symmetry_equiv_pos_as_xyz
  1  'x, y, z'
loop_
 _atom_site_type_symbol
 _atom_site_label
 _atom_site_symmetry_multiplicity
 _atom_site_fract_x
 _atom_site_fract_y
 _atom_site_fract_z
 _atom_site_occupancy
  Li  Li0  1  0.93509800  0.26767500  0.08037700  1
  Li  Li1  1  0.96247900  0.27374800  0.57973400  1
  Li  Li2  1  0.54181200  0.22344000  0.67050300  1
  Li  Li3  1  0.45818800  0.77656000  0.32949700  1
  Li  Li4  1  0.06490200  0.73232500  0.91962300  1
  Li  Li5  1  0.03752100  0.72625200  0.42026600  1
  Mn  Mn0  1  0.80564700  0.56611900  0.16328800  1
  Mn  Mn1  1  0.82727000  0.58145300  0.65887800  1
  Mn  Mn2  1  0.66195100  0.91395700  0.09001400  1
  Mn  Mn3  1  0.67074800  0.92044900  0.59573700  1
  Mn  Mn4  1  0.33804900  0.08604300  0.90998600  1
  Mn  Mn5  1  0.32925200  0.07955100  0.40426300  1
  Mn  Mn6  1  0.19435300  0.43388100  0.83671200  1
  Mn  Mn7  1  0.17273000  0.41854700  0.34112200  1
  B  B0  1  0.84538700  0.10740800  0.84102700  1
  B  B1  1  0.83659300  0.08730700  0.33573700  1
  B  B2  1  0.67713700  0.41076700  0.90814100  1
  B  B3  1  0.66431000  0.40629400  0.41849000  1
  B  B4  1  0.32286300  0.58923300  0.09185900  1
  B  B5  1  0.33569000  0.59370600  0.58151000  1
  B  B6  1  0.15461300  0.89259200  0.15897300  1
  B  B7  1  0.16340700  0.91269300  0.66426300  1
  O  O0  1  0.84332700  0.10072400  0.20723000  1
  O  O1  1  0.82512400  0.12470300  0.71224900  1
  O  O2  1  0.95690400  0.81000200  0.09029500  1
  O  O3  1  0.98641700  0.81641900  0.58854000  1
  O  O4  1  0.85874800  0.51520400  0.84587800  1
  O  O5  1  0.84156400  0.51503900  0.35627600  1
  O  O6  1  0.68252000  0.38481300  0.03445000  1
  O  O7  1  0.68636400  0.37699600  0.54602100  1
  O  O8  1  0.49001800  0.32181700  0.83390700  1
  O  O9  1  0.47211200  0.32341100  0.35146700  1
  O  O10  1  0.33848500  0.97700300  0.08783000  1
  O  O11  1  0.66151500  0.02299700  0.91217000  1
  O  O12  1  0.34398800  0.01887200  0.60219100  1
  O  O13  1  0.65601200  0.98112800  0.39780900  1
  O  O14  1  0.50998200  0.67818300  0.16609300  1
  O  O15  1  0.52788800  0.67658900  0.64853300  1
  O  O16  1  0.31748000  0.61518700  0.96555000  1
  O  O17  1  0.31363600  0.62300400  0.45397900  1
  O  O18  1  0.14125200  0.48479600  0.15412200  1
  O  O19  1  0.15843600  0.48496100  0.64372400  1
  O  O20  1  0.04309600  0.18999800  0.90970500  1
  O  O21  1  0.01358300  0.18358100  0.41146000  1
  O  O22  1  0.15667300  0.89927600  0.79277000  1
  O  O23  1  0.17487600  0.87529700  0.28775100  1
loop_
_geom_bond_atom_site_label_1
_geom_bond_atom_site_label_2
_geom_bond_distance
_geom_bond_site_symmetry_2
Li0 O0 1.932502 1_555
Li0 O6 1.998395 1_555
Li0 O20 2.063834 1_654
Li0 O18 2.091677 1_655
Li1 O1 1.943593 1_555
Li1 O21 1.975748 1_655
Li1 O19 1.995865 1_655
Li1 O7 2.021845 1_555
Li2 O7 1.917058 1_555
Li2 O8 1.959706 1_555
Li2 O12 1.974890 1_555
Li2 O1 2.054187 1_555
Li3 O17 1.917058 1_555
Li3 O14 1.959706 1_555
Li3 O13 1.974890 1_555
Li3 O23 2.054187 1_555
Li4 O22 1.932502 1_555
Li4 O16 1.998395 1_555
Li4 O2 2.063834 1_456
Li4 O4 2.091677 1_455
Li5 O23 1.943593 1_555
Li5 O3 1.975748 1_455
Li5 O5 1.995865 1_455
Li5 O17 2.021845 1_555
Mn0 O6 2.034030 1_555
Mn0 O5 2.103807 1_555
Mn0 O14 2.141536 1_555
Mn0 O2 2.182064 1_555
Mn0 O18 2.224789 1_655
Mn1 O4 2.071916 1_555
Mn1 O15 2.082017 1_555
Mn1 O7 2.085786 1_555
Mn1 O3 2.121245 1_555
Mn1 O19 2.268206 1_655
Mn2 O0 2.081564 1_565
Mn2 O10 2.082284 1_555
Mn2 O11 2.091529 1_564
Mn2 O2 2.097424 1_555
Mn2 O14 2.139116 1_555
Mn3 O15 2.102778 1_555
Mn3 O1 2.125560 1_565
Mn3 O13 2.160362 1_555
Mn3 O3 2.212226 1_555
Mn3 O12 2.247095 1_565
Mn4 O22 2.081564 1_545
Mn4 O11 2.082284 1_555
Mn4 O10 2.091529 1_546
Mn4 O20 2.097424 1_555
Mn4 O8 2.139116 1_555
Mn5 O9 2.102778 1_555
Mn5 O23 2.125560 1_545
Mn5 O12 2.160362 1_555
Mn5 O21 2.212226 1_555
Mn5 O13 2.247095 1_545
Mn6 O16 2.034030 1_555
Mn6 O19 2.103807 1_555
Mn6 O8 2.141536 1_555
Mn6 O20 2.182064 1_555
Mn6 O4 2.224789 1_455
Mn7 O18 2.071916 1_555
Mn7 O9 2.082017 1_555
Mn7 O17 2.085786 1_555
Mn7 O21 2.121245 1_555
Mn7 O5 2.268206 1_455
B0 O1 1.376444 1_555
B0 O11 1.394111 1_555
B0 O20 1.414335 1_655
B1 O0 1.364314 1_555
B1 O13 1.405365 1_545
B1 O21 1.412562 1_655
B2 O6 1.355087 1_556
B2 O4 1.403490 1_555
B2 O8 1.419144 1_555
B3 O7 1.381059 1_555
B3 O9 1.383071 1_555
B3 O5 1.404007 1_555
B4 O16 1.355087 1_554
B4 O18 1.403490 1_555
B4 O14 1.419144 1_555
B5 O17 1.381059 1_555
B5 O15 1.383071 1_555
B5 O19 1.404007 1_555
B6 O23 1.376444 1_555
B6 O10 1.394111 1_555
B6 O2 1.414335 1_455
B7 O22 1.364314 1_555
B7 O12 1.405365 1_565
B7 O3 1.412562 1_455
