# generated using pymatgen
data_Li15Cr15SiO32
_symmetry_space_group_name_H-M   'P 1'
_cell_length_a   8.08231400
_cell_length_b   8.08575517
_cell_length_c   8.87385348
_cell_angle_alpha   90.10663054
_cell_angle_beta   90.00921371
_cell_angle_gamma   90.01159981
_symmetry_Int_Tables_number   1
_chemical_formula_structural   Li15Cr15SiO32
_chemical_formula_sum   'Li15 Cr15 Si1 O32'
_cell_volume   579.91960761
_cell_formula_units_Z   1
loop_
 _symmetry_equiv_pos_site_id
 _symmetry_equiv_pos_as_xyz
  1  'x, y, z'
loop_
 _atom_site_type_symbol
 _atom_site_label
 _atom_site_symmetry_multiplicity
 _atom_site_fract_x
 _atom_site_fract_y
 _atom_site_fract_z
 _atom_site_occupancy
  Li  Li0  1  0.87508700  0.87455000  0.77009600  1
  Li  Li1  1  0.87520400  0.62179800  0.50997800  1
  Li  Li2  1  0.87577300  0.12846200  0.51583700  1
  Li  Li3  1  0.62486100  0.62301800  0.25133300  1
  Li  Li4  1  0.62276200  0.12496400  0.25623900  1
  Li  Li5  1  0.62390700  0.37749100  0.98358200  1
  Li  Li6  1  0.62565500  0.87313200  0.00005000  1
  Li  Li7  1  0.37306400  0.12503200  0.50337100  1
  Li  Li8  1  0.37400900  0.62471700  0.50197600  1
  Li  Li9  1  0.37480600  0.87383500  0.74965000  1
  Li  Li10  1  0.37485700  0.37661200  0.74501900  1
  Li  Li11  1  0.12295400  0.87450200  0.99608100  1
  Li  Li12  1  0.12439400  0.37627800  0.98673000  1
  Li  Li13  1  0.12557400  0.12516500  0.23320100  1
  Li  Li14  1  0.12402800  0.62320200  0.24904800  1
  Cr  Cr0  1  0.87458300  0.87408800  0.24535700  1
  Cr  Cr1  1  0.87444000  0.62215400  0.99577600  1
  Cr  Cr2  1  0.87431300  0.37353000  0.24732800  1
  Cr  Cr3  1  0.62811100  0.62204900  0.74927400  1
  Cr  Cr4  1  0.62624500  0.87477600  0.50123000  1
  Cr  Cr5  1  0.62799200  0.12812100  0.75248300  1
  Cr  Cr6  1  0.62644800  0.37473200  0.50203700  1
  Cr  Cr7  1  0.37452500  0.62474500  0.99861600  1
  Cr  Cr8  1  0.37432800  0.87437200  0.25074300  1
  Cr  Cr9  1  0.37630400  0.12515400  0.00136400  1
  Cr  Cr10  1  0.37469600  0.37489400  0.25054800  1
  Cr  Cr11  1  0.12300200  0.87573300  0.50145200  1
  Cr  Cr12  1  0.12131600  0.62155900  0.74935800  1
  Cr  Cr13  1  0.12296200  0.37381500  0.50173000  1
  Cr  Cr14  1  0.12213900  0.12847200  0.75465400  1
  Si  Si0  1  0.87187900  0.13446900  0.99812100  1
  O  O0  1  0.87475000  0.37068400  0.47109900  1
  O  O1  1  0.87517700  0.11941700  0.79989900  1
  O  O2  1  0.87254800  0.12323300  0.19914000  1
  O  O3  1  0.87374600  0.35824000  0.01908700  1
  O  O4  1  0.87418100  0.88409300  0.01665800  1
  O  O5  1  0.87461300  0.62329800  0.22327600  1
  O  O6  1  0.87466400  0.63452100  0.77243800  1
  O  O7  1  0.87463800  0.87971200  0.47280200  1
  O  O8  1  0.62501900  0.37293100  0.27313700  1
  O  O9  1  0.64062100  0.12613300  0.98220700  1
  O  O10  1  0.62772400  0.12483700  0.52465600  1
  O  O11  1  0.61419800  0.37439600  0.72867600  1
  O  O12  1  0.62645500  0.87642200  0.72905000  1
  O  O13  1  0.62677900  0.62488700  0.52135700  1
  O  O14  1  0.62551100  0.62378800  0.97806300  1
  O  O15  1  0.62495100  0.87529200  0.27136100  1
  O  O16  1  0.37527800  0.12276300  0.77618600  1
  O  O17  1  0.37462600  0.37391200  0.47767300  1
  O  O18  1  0.37521200  0.37335700  0.02134400  1
  O  O19  1  0.37565800  0.12453800  0.22765300  1
  O  O20  1  0.37427200  0.62479500  0.22741800  1
  O  O21  1  0.37496800  0.87634300  0.02179900  1
  O  O22  1  0.37453800  0.87581400  0.47882600  1
  O  O23  1  0.37469700  0.62745100  0.77181900  1
  O  O24  1  0.10924500  0.12625100  0.98580800  1
  O  O25  1  0.12403400  0.37154600  0.27187200  1
  O  O26  1  0.13558300  0.37443000  0.72875600  1
  O  O27  1  0.12171700  0.12484100  0.52851100  1
  O  O28  1  0.12258900  0.62491800  0.52123400  1
  O  O29  1  0.12350900  0.87623100  0.73038200  1
  O  O30  1  0.12397000  0.87700400  0.27123900  1
  O  O31  1  0.12351000  0.62329800  0.97851200  1
loop_
_geom_bond_atom_site_label_1
_geom_bond_atom_site_label_2
_geom_bond_distance
_geom_bond_site_symmetry_2
Li0 O6 1.940968 1_555
Li0 O1 1.997032 1_565
Li0 O29 2.038621 1_655
Li0 O12 2.042271 1_555
Li0 O4 2.189185 1_556
Li1 O28 2.002072 1_655
Li1 O13 2.010560 1_555
Li1 O0 2.058918 1_555
Li1 O7 2.111973 1_555
Li1 O6 2.331116 1_555
Li1 O5 2.544207 1_555
Li2 O27 1.991182 1_655
Li2 O0 1.999121 1_555
Li2 O10 2.006560 1_555
Li2 O7 2.046585 1_545
Li2 O1 2.521927 1_555
Li3 O8 2.031737 1_555
Li3 O5 2.033912 1_555
Li3 O20 2.036449 1_555
Li3 O15 2.047224 1_555
Li3 O13 2.396221 1_555
Li3 O14 2.424984 1_554
Li4 O8 2.010400 1_555
Li4 O19 2.013178 1_555
Li4 O15 2.023572 1_545
Li4 O2 2.081584 1_555
Li4 O10 2.382226 1_555
Li4 O9 2.436059 1_554
Li5 O14 1.992230 1_555
Li5 O9 2.036945 1_555
Li5 O18 2.038102 1_556
Li5 O3 2.049654 1_556
Li5 O11 2.263438 1_555
Li5 O8 2.569816 1_556
Li6 O4 2.015960 1_555
Li6 O14 2.025192 1_554
Li6 O21 2.035499 1_555
Li6 O9 2.055655 1_564
Li6 O12 2.405021 1_554
Li6 O15 2.407613 1_555
Li7 O17 2.025721 1_555
Li7 O22 2.026487 1_545
Li7 O27 2.043714 1_555
Li7 O10 2.066861 1_555
Li7 O16 2.421087 1_555
Li7 O19 2.446770 1_555
Li8 O17 2.038991 1_555
Li8 O28 2.039257 1_555
Li8 O22 2.041059 1_555
Li8 O13 2.050165 1_555
Li8 O23 2.394614 1_555
Li8 O20 2.436390 1_555
Li9 O23 2.002254 1_555
Li9 O16 2.026066 1_565
Li9 O29 2.038317 1_555
Li9 O12 2.042240 1_555
Li9 O22 2.403336 1_555
Li9 O21 2.415058 1_556
Li10 O26 1.939316 1_555
Li10 O11 1.939965 1_555
Li10 O23 2.041679 1_555
Li10 O16 2.071624 1_555
Li10 O17 2.372449 1_555
Li10 O18 2.452259 1_556
Li11 O4 2.020456 1_456
Li11 O31 2.036865 1_555
Li11 O24 2.040822 1_565
Li11 O21 2.049613 1_556
Li11 O29 2.357846 1_555
Li11 O30 2.441770 1_556
Li12 O31 1.998824 1_555
Li12 O24 2.025338 1_555
Li12 O18 2.050427 1_556
Li12 O3 2.051309 1_456
Li12 O26 2.291045 1_555
Li12 O25 2.530671 1_556
Li13 O25 2.020928 1_555
Li13 O19 2.021872 1_555
Li13 O30 2.035420 1_545
Li13 O2 2.067255 1_455
Li13 O24 2.199305 1_554
Li14 O5 2.028746 1_455
Li14 O20 2.031709 1_555
Li14 O25 2.045259 1_555
Li14 O30 2.061242 1_555
Li14 O31 2.400701 1_554
Li14 O28 2.415383 1_555
Cr0 O7 2.018741 1_555
Cr0 O30 2.028758 1_655
Cr0 O15 2.030817 1_555
Cr0 O4 2.031206 1_555
Cr0 O5 2.036908 1_555
Cr0 O2 2.056665 1_565
Cr1 O6 1.984577 1_555
Cr1 O14 2.018076 1_555
Cr1 O5 2.018806 1_556
Cr1 O31 2.018928 1_655
Cr1 O4 2.125723 1_556
Cr1 O3 2.144336 1_556
Cr2 O0 1.985890 1_555
Cr2 O8 2.027889 1_555
Cr2 O3 2.028922 1_555
Cr2 O25 2.030076 1_655
Cr2 O5 2.031206 1_555
Cr2 O2 2.067789 1_555
Cr3 O6 2.005757 1_555
Cr3 O11 2.013566 1_555
Cr3 O13 2.022702 1_555
Cr3 O14 2.030375 1_555
Cr3 O23 2.058415 1_555
Cr3 O12 2.064991 1_555
Cr4 O12 2.021661 1_555
Cr4 O7 2.023813 1_555
Cr4 O13 2.028756 1_555
Cr4 O10 2.032238 1_565
Cr4 O15 2.039861 1_555
Cr4 O22 2.044055 1_555
Cr5 O11 2.006006 1_555
Cr5 O10 2.021829 1_555
Cr5 O9 2.041168 1_555
Cr5 O1 2.042842 1_555
Cr5 O12 2.045422 1_545
Cr5 O16 2.053806 1_555
Cr6 O11 2.013620 1_555
Cr6 O0 2.025853 1_555
Cr6 O13 2.029628 1_555
Cr6 O10 2.030934 1_555
Cr6 O8 2.031281 1_555
Cr6 O17 2.046729 1_555
Cr7 O23 2.012724 1_555
Cr7 O20 2.030356 1_556
Cr7 O31 2.036611 1_555
Cr7 O14 2.036774 1_555
Cr7 O18 2.043025 1_556
Cr7 O21 2.044357 1_556
Cr8 O22 2.023987 1_555
Cr8 O20 2.028222 1_555
Cr8 O21 2.031715 1_555
Cr8 O30 2.031771 1_555
Cr8 O19 2.033538 1_565
Cr8 O15 2.033841 1_555
Cr9 O16 1.998270 1_554
Cr9 O19 2.008079 1_555
Cr9 O18 2.014418 1_555
Cr9 O21 2.020344 1_545
Cr9 O9 2.143088 1_554
Cr9 O24 2.162863 1_554
Cr10 O17 2.015505 1_555
Cr10 O20 2.031420 1_555
Cr10 O8 2.033131 1_555
Cr10 O18 2.033943 1_555
Cr10 O19 2.034127 1_555
Cr10 O25 2.034956 1_555
Cr11 O7 2.023621 1_455
Cr11 O27 2.028073 1_565
Cr11 O29 2.031491 1_555
Cr11 O28 2.035939 1_555
Cr11 O22 2.042916 1_555
Cr11 O30 2.042938 1_555
Cr12 O6 2.006785 1_455
Cr12 O26 2.009567 1_555
Cr12 O28 2.024599 1_555
Cr12 O31 2.033576 1_555
Cr12 O23 2.058083 1_555
Cr12 O29 2.066474 1_555
Cr13 O26 2.017157 1_555
Cr13 O0 2.024562 1_455
Cr13 O27 2.027584 1_555
Cr13 O28 2.037403 1_555
Cr13 O25 2.039794 1_555
Cr13 O17 2.045234 1_555
Cr14 O26 2.005341 1_555
Cr14 O27 2.006922 1_555
Cr14 O1 2.037396 1_455
Cr14 O29 2.050534 1_545
Cr14 O24 2.054001 1_555
Cr14 O16 2.055357 1_555
O1 Si0 1.763179 1_555
O2 Si0 1.786301 1_554
O3 Si0 1.818613 1_554
O4 Si0 2.031545 1_564
O9 Si0 1.875593 1_555
O24 Si0 1.922748 1_455
