# generated using pymatgen
data_Li2Cr2(PO4)3
_symmetry_space_group_name_H-M   'P 1'
_cell_length_a   8.31952000
_cell_length_b   8.36566171
_cell_length_c   8.90464345
_cell_angle_alpha   62.19180908
_cell_angle_beta   62.38856400
_cell_angle_gamma   60.34550516
_symmetry_Int_Tables_number   1
_chemical_formula_structural   Li2Cr2(PO4)3
_chemical_formula_sum   'Li4 Cr4 P6 O24'
_cell_volume   454.03310725
_cell_formula_units_Z   2
loop_
 _symmetry_equiv_pos_site_id
 _symmetry_equiv_pos_as_xyz
  1  'x, y, z'
loop_
 _atom_site_type_symbol
 _atom_site_label
 _atom_site_symmetry_multiplicity
 _atom_site_fract_x
 _atom_site_fract_y
 _atom_site_fract_z
 _atom_site_occupancy
  Li  Li0  1  0.33090800  0.07633900  0.85613100  1
  Li  Li1  1  0.08082600  0.73705700  0.86521700  1
  Li  Li2  1  0.91917400  0.26294300  0.13478300  1
  Li  Li3  1  0.66909200  0.92366100  0.14386900  1
  Cr  Cr0  1  0.35359200  0.35100500  0.94990700  1
  Cr  Cr1  1  0.14369100  0.14766200  0.56862500  1
  Cr  Cr2  1  0.85630900  0.85233800  0.43137500  1
  Cr  Cr3  1  0.64640800  0.64899500  0.05009300  1
  P  P0  1  0.75225500  0.03616400  0.75059400  1
  P  P1  1  0.03544600  0.46347700  0.75043500  1
  P  P2  1  0.46687000  0.74724500  0.74804500  1
  P  P3  1  0.53313000  0.25275500  0.25195500  1
  P  P4  1  0.96455400  0.53652300  0.24956500  1
  P  P5  1  0.24774500  0.96383600  0.24940600  1
  O  O0  1  0.53783500  0.17060200  0.79979700  1
  O  O1  1  0.89431800  0.11866800  0.72604800  1
  O  O2  1  0.84421700  0.46703900  0.90913300  1
  O  O3  1  0.13225800  0.25588700  0.73514400  1
  O  O4  1  0.80139900  0.99593400  0.58035000  1
  O  O5  1  0.17181700  0.49513800  0.80141500  1
  O  O6  1  0.49023800  0.53621800  0.80463600  1
  O  O7  1  0.48617300  0.79468200  0.88949500  1
  O  O8  1  0.78688000  0.84224100  0.91193800  1
  O  O9  1  0.38367900  0.19751500  0.43010100  1
  O  O10  1  0.74170300  0.11627200  0.26397100  1
  O  O11  1  0.00492500  0.61435500  0.57627100  1
  O  O12  1  0.99507500  0.38564500  0.42372900  1
  O  O13  1  0.25829700  0.88372800  0.73602900  1
  O  O14  1  0.61632100  0.80248500  0.56989900  1
  O  O15  1  0.21312000  0.15775900  0.08806200  1
  O  O16  1  0.51382700  0.20531800  0.11050500  1
  O  O17  1  0.50976200  0.46378200  0.19536400  1
  O  O18  1  0.82818300  0.50486200  0.19858500  1
  O  O19  1  0.19860100  0.00406600  0.41965000  1
  O  O20  1  0.86774200  0.74411300  0.26485600  1
  O  O21  1  0.15578300  0.53296100  0.09086700  1
  O  O22  1  0.10568200  0.88133200  0.27395200  1
  O  O23  1  0.46216500  0.82939800  0.20020300  1
loop_
_geom_bond_atom_site_label_1
_geom_bond_atom_site_label_2
_geom_bond_distance
_geom_bond_site_symmetry_2
Li0 O3 1.957628 1_555
Li0 O7 1.999882 1_545
Li0 O0 2.002732 1_555
Li0 O15 2.113189 1_556
Li1 O13 1.977411 1_555
Li1 O5 2.037100 1_555
Li1 O8 2.048638 1_455
Li1 O21 2.061174 1_556
Li2 O10 1.977411 1_555
Li2 O18 2.037100 1_555
Li2 O15 2.048638 1_655
Li2 O2 2.061174 1_554
Li3 O20 1.957628 1_555
Li3 O16 1.999882 1_565
Li3 O23 2.002732 1_555
Li3 O8 2.113189 1_554
Cr0 O16 1.959797 1_556
Cr0 O6 1.968819 1_555
Cr0 O21 1.997482 1_556
Cr0 O5 2.012678 1_555
Cr0 O0 2.026763 1_555
Cr0 O15 2.043021 1_556
Cr1 O9 1.934665 1_555
Cr1 O19 1.947721 1_555
Cr1 O12 1.950210 1_455
Cr1 O1 1.952694 1_455
Cr1 O3 2.015947 1_555
Cr1 O13 2.041987 1_545
Cr2 O14 1.934665 1_555
Cr2 O4 1.947721 1_555
Cr2 O11 1.950210 1_655
Cr2 O22 1.952694 1_655
Cr2 O20 2.015947 1_555
Cr2 O10 2.041987 1_565
Cr3 O7 1.959797 1_554
Cr3 O17 1.968819 1_555
Cr3 O2 1.997482 1_554
Cr3 O18 2.012678 1_555
Cr3 O23 2.026763 1_555
Cr3 O8 2.043021 1_554
O0 P0 1.545651 1_555
O1 P0 1.532327 1_555
O2 P1 1.561199 1_655
O3 P1 1.554993 1_555
O4 P0 1.530983 1_565
O5 P1 1.565365 1_555
O6 P2 1.526257 1_555
O7 P2 1.576927 1_555
O8 P0 1.589177 1_565
O9 P3 1.527167 1_555
O10 P3 1.556829 1_555
O11 P1 1.511387 1_555
O12 P4 1.511387 1_555
O13 P2 1.556829 1_555
O14 P2 1.527167 1_555
O15 P5 1.589177 1_545
O16 P3 1.576927 1_555
O17 P3 1.526257 1_555
O18 P4 1.565365 1_555
O19 P5 1.530983 1_545
O20 P4 1.554993 1_555
O21 P4 1.561199 1_455
O22 P5 1.532327 1_555
O23 P5 1.545651 1_555
