# generated using pymatgen
data_Cr3B4
_symmetry_space_group_name_H-M   'P 1'
_cell_length_a   2.92450459
_cell_length_b   2.89811874
_cell_length_c   6.80563144
_cell_angle_alpha   102.29691338
_cell_angle_beta   102.40726952
_cell_angle_gamma   90.00000299
_symmetry_Int_Tables_number   1
_chemical_formula_structural   Cr3B4
_chemical_formula_sum   'Cr3 B4'
_cell_volume   54.97859453
_cell_formula_units_Z   1
loop_
 _symmetry_equiv_pos_site_id
 _symmetry_equiv_pos_as_xyz
  1  'x, y, z'
loop_
 _atom_site_type_symbol
 _atom_site_label
 _atom_site_symmetry_multiplicity
 _atom_site_fract_x
 _atom_site_fract_y
 _atom_site_fract_z
 _atom_site_occupancy
  Cr  Cr0  1  0.18578468  0.18592222  0.37156835  1
  Cr  Cr1  1  0.81421532  0.81407778  0.62843165  1
  Cr  Cr2  1  0.50000000  0.00000000  -0.00000000  1
  B  B0  1  0.93359505  0.43345906  0.86718909  1
  B  B1  1  0.06640495  0.56654094  0.13281091  1
  B  B2  1  0.35961505  0.35937432  0.71923111  1
  B  B3  1  0.64038495  0.64062568  0.28076889  1
loop_
_geom_bond_atom_site_label_1
_geom_bond_atom_site_label_2
_geom_bond_distance
_geom_bond_site_symmetry_2
B0 B1 1.723015 1_656
B0 B2 1.749090 1_655
B0 B2 1.749095 1_555
B0 Cr1 2.120887 1_545
B0 Cr1 2.121003 1_555
B0 Cr2 2.231402 1_656
B0 Cr2 2.231404 1_556
B0 Cr2 2.231845 1_666
B0 Cr2 2.231847 1_566
B1 B3 1.749090 1_455
B1 B3 1.749095 1_555
B1 Cr0 2.120887 1_565
B1 Cr0 2.121003 1_555
B1 Cr2 2.231402 1_465
B1 Cr2 2.231404 1_565
B1 Cr2 2.231845 1_455
B1 Cr2 2.231847 1_555
B2 Cr1 2.141003 1_445
B2 Cr1 2.141004 1_545
B2 Cr1 2.141456 1_555
B2 Cr1 2.141456 1_455
B2 Cr0 2.255191 1_555
B2 Cr2 2.327034 1_556
B2 Cr2 2.327768 1_566
B3 Cr0 2.141003 1_665
B3 Cr0 2.141004 1_565
B3 Cr0 2.141456 1_555
B3 Cr0 2.141456 1_655
B3 Cr1 2.255191 1_555
B3 Cr2 2.327034 1_565
B3 Cr2 2.327768 1_555
