# generated using pymatgen
data_TmSnRh2
_symmetry_space_group_name_H-M   'P 1'
_cell_length_a   4.63473588
_cell_length_b   4.63473588
_cell_length_c   4.63473588
_cell_angle_alpha   59.95939950
_cell_angle_beta   59.95939950
_cell_angle_gamma   59.95939950
_symmetry_Int_Tables_number   1
_chemical_formula_structural   TmSnRh2
_chemical_formula_sum   'Tm1 Sn1 Rh2'
_cell_volume   70.33312450
_cell_formula_units_Z   1
loop_
 _symmetry_equiv_pos_site_id
 _symmetry_equiv_pos_as_xyz
  1  'x, y, z'
loop_
 _atom_site_type_symbol
 _atom_site_label
 _atom_site_symmetry_multiplicity
 _atom_site_fract_x
 _atom_site_fract_y
 _atom_site_fract_z
 _atom_site_occupancy
  Tm  Tm0  1  0.74999900  0.74999900  0.74999900  1
  Sn  Sn0  1  0.25000000  0.25000000  0.25000000  1
  Rh  Rh0  1  0.99980019  0.99980019  0.99980019  1
  Rh  Rh1  1  0.50020081  0.50020081  0.50020081  1
loop_
_geom_bond_atom_site_label_1
_geom_bond_atom_site_label_2
_geom_bond_distance
_geom_bond_site_symmetry_2
Sn0 Tm0 3.276241 1_545
Sn0 Tm0 3.276241 1_455
Sn0 Tm0 3.276241 1_554
Sn0 Tm0 3.276254 1_454
Sn0 Tm0 3.276254 1_544
Sn0 Tm0 3.276254 1_445
Rh0 Sn0 2.835977 1_656
Rh0 Sn0 2.835977 1_665
Rh0 Sn0 2.835977 1_566
Rh0 Tm0 2.836797 1_555
Rh0 Tm0 2.837487 1_556
Rh0 Tm0 2.837487 1_655
Rh0 Tm0 2.837487 1_565
Rh0 Sn0 2.841324 1_666
Rh1 Sn0 2.835973 1_556
Rh1 Sn0 2.835973 1_565
Rh1 Sn0 2.835973 1_655
Rh1 Tm0 2.836763 1_555
Rh1 Tm0 2.837498 1_545
Rh1 Tm0 2.837498 1_455
Rh1 Tm0 2.837498 1_554
Rh1 Sn0 2.841335 1_555
