# generated using pymatgen
data_LaAgAu2
_symmetry_space_group_name_H-M   'P 1'
_cell_length_a   5.03922325
_cell_length_b   5.03922386
_cell_length_c   5.03922386
_cell_angle_alpha   60.00003941
_cell_angle_beta   60.00005384
_cell_angle_gamma   60.00005658
_symmetry_Int_Tables_number   1
_chemical_formula_structural   LaAgAu2
_chemical_formula_sum   'La1 Ag1 Au2'
_cell_volume   90.48495954
_cell_formula_units_Z   1
loop_
 _symmetry_equiv_pos_site_id
 _symmetry_equiv_pos_as_xyz
  1  'x, y, z'
loop_
 _atom_site_type_symbol
 _atom_site_label
 _atom_site_symmetry_multiplicity
 _atom_site_fract_x
 _atom_site_fract_y
 _atom_site_fract_z
 _atom_site_occupancy
  La  La0  1  0.75000070  0.75000069  0.75000067  1
  Ag  Ag0  1  0.24999996  0.24999996  0.24999997  1
  Au  Au0  1  0.49999930  0.49999931  0.49999933  1
  Au  Au1  1  0.00000004  0.00000005  0.00000003  1
loop_
_geom_bond_atom_site_label_1
_geom_bond_atom_site_label_2
_geom_bond_distance
_geom_bond_site_symmetry_2
Ag0 Au0 3.085872 1_555
Ag0 Au1 3.085880 1_555
Ag0 Au1 3.085884 1_556
Ag0 Au1 3.085884 1_565
Ag0 Au1 3.085884 1_655
Ag0 Au0 3.085886 1_554
Ag0 Au0 3.085886 1_545
Ag0 Au0 3.085886 1_455
Au0 La0 3.085878 1_455
Au0 La0 3.085878 1_545
Au0 La0 3.085878 1_554
Au0 La0 3.085897 1_555
Au1 La0 3.085873 1_444
Au1 La0 3.085886 1_445
Au1 La0 3.085886 1_454
Au1 La0 3.085886 1_544
