# generated using pymatgen
data_YbGa2Ir
_symmetry_space_group_name_H-M   'P 1'
_cell_length_a   4.53986737
_cell_length_b   4.53986737
_cell_length_c   4.53986807
_cell_angle_alpha   59.99999485
_cell_angle_beta   60.00000515
_cell_angle_gamma   60.00000000
_symmetry_Int_Tables_number   1
_chemical_formula_structural   YbGa2Ir
_chemical_formula_sum   'Yb1 Ga2 Ir1'
_cell_volume   66.16290487
_cell_formula_units_Z   1
loop_
 _symmetry_equiv_pos_site_id
 _symmetry_equiv_pos_as_xyz
  1  'x, y, z'
loop_
 _atom_site_type_symbol
 _atom_site_label
 _atom_site_symmetry_multiplicity
 _atom_site_fract_x
 _atom_site_fract_y
 _atom_site_fract_z
 _atom_site_occupancy
  Yb  Yb0  1  0.00000000  0.00000000  0.00000000  1
  Ga  Ga0  1  0.25000000  0.25000000  0.25000000  1
  Ga  Ga1  1  0.75000000  0.75000000  0.75000000  1
  Ir  Ir0  1  0.50000000  0.50000000  0.50000000  1
loop_
_geom_bond_atom_site_label_1
_geom_bond_atom_site_label_2
_geom_bond_distance
_geom_bond_site_symmetry_2
Ga0 Ir0 2.780089 1_545
Ga0 Yb0 2.780089 1_565
Ga0 Yb0 2.780090 1_655
Ga0 Ir0 2.780090 1_555
Ga0 Yb0 2.780090 1_555
Ga0 Ir0 2.780090 1_455
Ga0 Ir0 2.780090 1_554
Ga0 Yb0 2.780090 1_556
Ga1 Ir0 2.780089 1_565
Ga1 Yb0 2.780089 1_656
Ga1 Yb0 2.780090 1_566
Ga1 Yb0 2.780090 1_666
Ga1 Ir0 2.780090 1_555
Ga1 Ir0 2.780090 1_655
Ga1 Yb0 2.780090 1_665
Ga1 Ir0 2.780090 1_556
Ir0 Yb0 3.210171 1_565
Ir0 Yb0 3.210171 1_656
Ir0 Yb0 3.210171 1_556
Ir0 Yb0 3.210171 1_665
Ir0 Yb0 3.210171 1_566
Ir0 Yb0 3.210171 1_655
