# generated using pymatgen
data_Ca2BiAu
_symmetry_space_group_name_H-M   'P 1'
_cell_length_a   5.36832554
_cell_length_b   5.36832554
_cell_length_c   5.36832554
_cell_angle_alpha   60.00000000
_cell_angle_beta   60.00000000
_cell_angle_gamma   60.00000000
_symmetry_Int_Tables_number   1
_chemical_formula_structural   Ca2BiAu
_chemical_formula_sum   'Ca2 Bi1 Au1'
_cell_volume   109.39602279
_cell_formula_units_Z   1
loop_
 _symmetry_equiv_pos_site_id
 _symmetry_equiv_pos_as_xyz
  1  'x, y, z'
loop_
 _atom_site_type_symbol
 _atom_site_label
 _atom_site_symmetry_multiplicity
 _atom_site_fract_x
 _atom_site_fract_y
 _atom_site_fract_z
 _atom_site_occupancy
  Ca  Ca0  1  0.50000000  0.50000000  0.50000000  1
  Ca  Ca1  1  -0.00000000  0.00000000  0.00000000  1
  Bi  Bi0  1  0.74999900  0.74999900  0.74999900  1
  Au  Au0  1  0.24999900  0.24999900  0.24999900  1
loop_
_geom_bond_atom_site_label_1
_geom_bond_atom_site_label_2
_geom_bond_distance
_geom_bond_site_symmetry_2
Bi0 Ca0 3.287401 1_555
Bi0 Ca1 3.287410 1_566
Bi0 Ca1 3.287410 1_656
Bi0 Ca1 3.287410 1_665
Bi0 Ca0 3.287419 1_655
Bi0 Ca0 3.287419 1_556
Bi0 Ca0 3.287419 1_565
Bi0 Ca1 3.287428 1_666
Au0 Ca1 3.287401 1_555
Au0 Ca0 3.287410 1_545
Au0 Ca0 3.287410 1_554
Au0 Ca0 3.287410 1_455
Au0 Ca1 3.287419 1_556
Au0 Ca1 3.287419 1_565
Au0 Ca1 3.287419 1_655
Au0 Ca0 3.287428 1_555
