# generated using pymatgen
data_W2O7
_symmetry_space_group_name_H-M   'P 1'
_cell_length_a   7.21225724
_cell_length_b   7.21225724
_cell_length_c   7.21225724
_cell_angle_alpha   60.00000000
_cell_angle_beta   60.00000000
_cell_angle_gamma   60.00000000
_symmetry_Int_Tables_number   1
_chemical_formula_structural   W2O7
_chemical_formula_sum   'W4 O14'
_cell_volume   265.27640698
_cell_formula_units_Z   2
loop_
 _symmetry_equiv_pos_site_id
 _symmetry_equiv_pos_as_xyz
  1  'x, y, z'
loop_
 _atom_site_type_symbol
 _atom_site_label
 _atom_site_symmetry_multiplicity
 _atom_site_fract_x
 _atom_site_fract_y
 _atom_site_fract_z
 _atom_site_occupancy
  W  W0  1  0.12500000  0.62500000  0.62500000  1
  W  W1  1  0.62500000  0.12500000  0.62500000  1
  W  W2  1  0.62500000  0.62500000  0.12500000  1
  W  W3  1  0.62500000  0.62500000  0.62500000  1
  O  O0  1  0.71299900  0.71299900  0.28700100  1
  O  O1  1  0.28700100  0.28700100  0.71299900  1
  O  O2  1  0.71299900  0.28700100  0.71299900  1
  O  O3  1  0.28700100  0.71299900  0.28700100  1
  O  O4  1  0.28700100  0.71299900  0.71299900  1
  O  O5  1  0.71299900  0.28700100  0.28700100  1
  O  O6  1  0.53700100  0.53700100  0.96299900  1
  O  O7  1  0.96299900  0.96299900  0.53700100  1
  O  O8  1  0.53700100  0.96299900  0.53700100  1
  O  O9  1  0.96299900  0.53700100  0.96299900  1
  O  O10  1  0.96299900  0.53700100  0.53700100  1
  O  O11  1  0.53700100  0.96299900  0.96299900  1
  O  O12  1  0.50000000  0.50000000  0.50000000  1
  O  O13  1  0.75000000  0.75000000  0.75000000  1
loop_
_geom_bond_atom_site_label_1
_geom_bond_atom_site_label_2
_geom_bond_distance
_geom_bond_site_symmetry_2
O0 W3 2.014114 1_555
O0 W2 2.014114 1_555
O1 W1 2.014114 1_555
O1 W0 2.014114 1_555
O2 W3 2.014114 1_555
O2 W1 2.014114 1_555
O3 W0 2.014114 1_555
O3 W2 2.014114 1_555
O4 W3 2.014114 1_555
O4 W0 2.014114 1_555
O5 W1 2.014114 1_555
O5 W2 2.014114 1_555
O6 W3 2.014114 1_555
O6 W2 2.014114 1_556
O7 W0 2.014114 1_655
O7 W1 2.014114 1_565
O8 W3 2.014114 1_555
O8 W1 2.014114 1_565
O9 W0 2.014114 1_655
O9 W2 2.014114 1_556
O10 W3 2.014114 1_555
O10 W0 2.014114 1_655
O11 W2 2.014114 1_556
O11 W1 2.014114 1_565
O12 W1 2.208294 1_555
O12 W0 2.208294 1_555
O12 W2 2.208294 1_555
O12 W3 2.208294 1_555
O13 W3 2.208294 1_555
O13 W2 2.208294 1_556
O13 W0 2.208294 1_655
O13 W1 2.208294 1_565
