# generated using pymatgen
data_CaSnS3
_symmetry_space_group_name_H-M   'P 1'
_cell_length_a   6.99394100
_cell_length_b   10.74142788
_cell_length_c   12.55781037
_cell_angle_alpha   110.22866317
_cell_angle_beta   90.25348304
_cell_angle_gamma   92.72687907
_symmetry_Int_Tables_number   1
_chemical_formula_structural   CaSnS3
_chemical_formula_sum   'Ca6 Sn6 S18'
_cell_volume   883.99370331
_cell_formula_units_Z   6
loop_
 _symmetry_equiv_pos_site_id
 _symmetry_equiv_pos_as_xyz
  1  'x, y, z'
loop_
 _atom_site_type_symbol
 _atom_site_label
 _atom_site_symmetry_multiplicity
 _atom_site_fract_x
 _atom_site_fract_y
 _atom_site_fract_z
 _atom_site_occupancy
  Ca  Ca0  1  0.85650400  0.45472900  0.88379700  1
  Ca  Ca1  1  0.04087800  0.46400300  0.21289300  1
  Ca  Ca2  1  0.54039800  0.64773700  0.43690700  1
  Ca  Ca3  1  0.03383600  0.94895700  0.70284600  1
  Ca  Ca4  1  0.45451800  0.64979900  0.75331600  1
  Ca  Ca5  1  0.38039700  0.26886700  0.98827700  1
  Sn  Sn0  1  0.17645400  0.05422700  0.11128700  1
  Sn  Sn1  1  0.52338100  0.25319200  0.37784100  1
  Sn  Sn2  1  0.09777300  0.86440300  0.35484300  1
  Sn  Sn3  1  0.49995800  0.63945200  0.08867900  1
  Sn  Sn4  1  0.01811600  0.56165600  0.54550800  1
  Sn  Sn5  1  0.28288500  0.26419600  0.67167600  1
  S  S0  1  0.52093100  0.94999800  0.87044000  1
  S  S1  1  0.23255100  0.90385800  0.89850400  1
  S  S2  1  0.01056800  0.21627700  0.06445100  1
  S  S3  1  0.79824900  0.45047600  0.38122000  1
  S  S4  1  0.50375800  0.13466600  0.15524500  1
  S  S5  1  0.27739200  0.43178200  0.38724100  1
  S  S6  1  0.44623300  0.78169500  0.28615800  1
  S  S7  1  0.28266900  0.04998500  0.51944600  1
  S  S8  1  0.96694700  0.96592000  0.22024100  1
  S  S9  1  0.67131600  0.70767600  0.95345600  1
  S  S10  1  0.19550000  0.52242100  0.02787500  1
  S  S11  1  0.68544000  0.45449600  0.09251200  1
  S  S12  1  0.26132600  0.74601000  0.59075600  1
  S  S13  1  0.09460900  0.47197000  0.69587500  1
  S  S14  1  0.77080300  0.72490600  0.64028700  1
  S  S15  1  0.56586600  0.09346200  0.79818700  1
  S  S16  1  0.08820200  0.21906400  0.81250300  1
  S  S17  1  0.58834200  0.37961500  0.69333300  1
loop_
_geom_bond_atom_site_label_1
_geom_bond_atom_site_label_2
_geom_bond_distance
_geom_bond_site_symmetry_2
Ca0 S10 2.883015 1_656
Ca0 S11 2.886705 1_556
Ca0 S17 2.893282 1_555
Ca0 S9 2.919958 1_555
Ca0 S16 2.944706 1_655
Ca0 S13 2.946901 1_655
Ca1 S2 2.667025 1_555
Ca1 S3 2.754922 1_455
Ca1 S10 2.815559 1_555
Ca1 S5 2.862882 1_555
Ca1 S11 2.882938 1_455
Ca2 S12 2.734151 1_555
Ca2 S3 2.753347 1_555
Ca2 S5 2.781506 1_555
Ca2 S6 2.837385 1_555
Ca2 S14 2.859941 1_555
Ca3 S12 2.737298 1_555
Ca3 S16 2.754289 1_565
Ca3 S14 2.837568 1_455
Ca3 S1 3.010015 1_555
Ca3 S7 3.330878 1_565
Ca4 S9 2.792566 1_555
Ca4 S14 2.865082 1_555
Ca4 S17 2.935797 1_555
Ca4 S12 2.937405 1_555
Ca4 S13 3.013098 1_555
Ca4 S0 3.057539 1_555
Ca4 S1 3.188858 1_555
Ca5 S11 2.829552 1_556
Ca5 S15 2.842620 1_555
Ca5 S2 2.860244 1_556
Ca5 S16 2.893834 1_555
Ca5 S10 2.956587 1_556
Ca5 S4 3.067768 1_556
S0 S15 2.054288 1_565
S0 S1 2.114174 1_555
S1 Sn0 2.643438 1_566
S2 Sn0 2.369797 1_555
S3 Sn4 2.478018 1_655
S3 Sn1 2.781649 1_555
S4 Sn0 2.400467 1_555
S4 Sn1 2.640539 1_555
S5 Sn1 2.610167 1_555
S5 Sn4 2.745857 1_555
S6 Sn3 2.463370 1_555
S6 Sn2 2.677205 1_555
S7 Sn5 2.430355 1_555
S7 Sn2 2.607731 1_545
S8 Sn0 2.387843 1_665
S8 Sn2 2.497852 1_655
S9 Sn3 2.377374 1_556
S10 Sn3 2.400958 1_555
S11 Sn3 2.437810 1_555
S12 Sn4 2.455684 1_555
S13 Sn4 2.465346 1_555
S13 Sn5 2.573195 1_555
S14 Sn4 2.519299 1_655
S16 Sn5 2.401637 1_555
S17 Sn5 2.384250 1_555
