# generated using pymatgen
data_Li3Ni5OF11
_symmetry_space_group_name_H-M   'P 1'
_cell_length_a   5.10352100
_cell_length_b   5.49247078
_cell_length_c   8.90479539
_cell_angle_alpha   106.27489283
_cell_angle_beta   89.43500480
_cell_angle_gamma   116.93064639
_symmetry_Int_Tables_number   1
_chemical_formula_structural   Li3Ni5OF11
_chemical_formula_sum   'Li3 Ni5 O1 F11'
_cell_volume   211.61539287
_cell_formula_units_Z   1
loop_
 _symmetry_equiv_pos_site_id
 _symmetry_equiv_pos_as_xyz
  1  'x, y, z'
loop_
 _atom_site_type_symbol
 _atom_site_label
 _atom_site_symmetry_multiplicity
 _atom_site_fract_x
 _atom_site_fract_y
 _atom_site_fract_z
 _atom_site_occupancy
  Li  Li0  1  0.52001600  0.03252200  0.50051600  1
  Li  Li1  1  0.76226000  0.00661300  0.25858400  1
  Li  Li2  1  0.29542600  0.02583200  0.76742000  1
  Ni  Ni0  1  0.45792900  0.59868200  0.14908500  1
  Ni  Ni1  1  0.97948200  0.99513000  0.99669700  1
  Ni  Ni2  1  0.96104300  0.62865400  0.64771000  1
  Ni  Ni3  1  0.21716700  0.60723400  0.40715400  1
  Ni  Ni4  1  0.68176700  0.60699000  0.90349700  1
  O  O0  1  0.55984100  0.79852300  0.95716800  1
  F  F0  1  0.43638100  0.49352200  0.34883400  1
  F  F1  1  0.50313500  0.10022300  0.29916500  1
  F  F2  1  0.00519500  0.12731600  0.78943700  1
  F  F3  1  0.43059800  0.10447700  0.04344800  1
  F  F4  1  0.94859500  0.11881900  0.53901200  1
  F  F5  1  0.93328300  0.49826000  0.85183000  1
  F  F6  1  0.00855900  0.48454600  0.10470400  1
  F  F7  1  0.03770700  0.78947100  0.45223200  1
  F  F8  1  0.91720500  0.79718900  0.20679500  1
  F  F9  1  0.40331900  0.79329600  0.69894700  1
  F  F10  1  0.51573200  0.49222400  0.60264200  1
loop_
_geom_bond_atom_site_label_1
_geom_bond_atom_site_label_2
_geom_bond_distance
_geom_bond_site_symmetry_2
Li0 Ni3 2.050108 1_545
Li1 Ni0 2.009051 1_545
Li2 Ni2 2.041515 1_445
Ni0 O0 2.216446 1_554
Ni1 O0 1.893038 1_555
Ni4 O0 1.423932 1_555
F0 Ni3 1.533324 1_555
F0 Ni0 2.005991 1_555
F1 Li1 1.626699 1_555
F1 Li0 1.940685 1_555
F2 Li2 1.795541 1_555
F2 Ni1 2.147223 1_445
F3 Ni1 2.112055 1_444
F3 Li2 2.423332 1_554
F4 Li0 2.027539 1_555
F5 Ni4 1.656721 1_555
F5 Ni2 2.114114 1_555
F6 Ni0 2.094144 1_555
F7 Ni3 1.612382 1_555
F7 Ni2 2.120984 1_455
F7 Li0 2.179103 1_565
F8 Li1 1.637218 1_565
F8 Ni0 2.083659 1_555
F9 Li2 1.581183 1_565
F9 Ni2 2.015156 1_455
F9 Li0 2.403143 1_565
F10 Ni2 2.048012 1_555
F10 Li0 2.442386 1_555
