# generated using pymatgen
data_Na3Np(HO3)2
_symmetry_space_group_name_H-M   'P 1'
_cell_length_a   11.36091755
_cell_length_b   10.51377386
_cell_length_c   6.03729548
_cell_angle_alpha   81.88605627
_cell_angle_beta   66.37233449
_cell_angle_gamma   31.74160924
_symmetry_Int_Tables_number   1
_chemical_formula_structural   Na3Np(HO3)2
_chemical_formula_sum   'Na6 Np2 H4 O12'
_cell_volume   316.33786653
_cell_formula_units_Z   2
loop_
 _symmetry_equiv_pos_site_id
 _symmetry_equiv_pos_as_xyz
  1  'x, y, z'
loop_
 _atom_site_type_symbol
 _atom_site_label
 _atom_site_symmetry_multiplicity
 _atom_site_fract_x
 _atom_site_fract_y
 _atom_site_fract_z
 _atom_site_occupancy
  Na  Na0  1  0.63085000  0.86915000  0.63085000  1
  Na  Na1  1  0.23085100  0.09405700  0.35796100  1
  Na  Na2  1  0.15594300  0.01914900  0.93286900  1
  Na  Na3  1  0.38085000  0.61915000  0.38085000  1
  Na  Na4  1  0.93286900  0.89203900  0.15594300  1
  Na  Na5  1  0.35796100  0.31713100  0.23085100  1
  Np  Np0  1  0.97060000  0.52940000  0.97060000  1
  Np  Np1  1  0.72060000  0.27940000  0.72060000  1
  H  H0  1  0.77302100  0.51623000  0.81704500  1
  H  H1  1  0.73377000  0.47697900  0.35629600  1
  H  H2  1  0.35629600  0.43295500  0.73377000  1
  H  H3  1  0.81704500  0.89370400  0.77302100  1
  O  O0  1  0.20198100  0.18636500  0.99610100  1
  O  O1  1  0.65695000  0.72623700  0.28275600  1
  O  O2  1  0.89733200  0.48065000  0.72810600  1
  O  O3  1  0.76935000  0.35266800  0.35608800  1
  O  O4  1  0.52376300  0.59305000  0.91594200  1
  O  O5  1  0.06363500  0.04801900  0.63444700  1
  O  O6  1  0.63444700  0.25389900  0.06363500  1
  O  O7  1  0.91594200  0.96724400  0.52376300  1
  O  O8  1  0.35608800  0.52189400  0.76935000  1
  O  O9  1  0.72810600  0.89391200  0.89733200  1
  O  O10  1  0.28275600  0.33405800  0.65695000  1
  O  O11  1  0.99610100  0.61555300  0.20198100  1
loop_
_geom_bond_atom_site_label_1
_geom_bond_atom_site_label_2
_geom_bond_distance
_geom_bond_site_symmetry_2
Na0 O11 2.355918 1_555
Na0 O0 2.355918 1_565
Na0 O9 2.430919 1_555
Na0 O2 2.430919 1_555
Na0 O1 2.529062 1_555
Na0 O10 2.529069 1_565
Na1 O0 2.292735 1_554
Na1 O5 2.328864 1_555
Na1 O2 2.335249 1_455
Na1 O1 2.342679 1_545
Na2 O5 2.292735 1_555
Na2 O0 2.328864 1_555
Na2 O3 2.335249 1_456
Na2 O4 2.342677 1_545
Na3 O5 2.355918 1_565
Na3 O6 2.355918 1_555
Na3 O3 2.430919 1_555
Na3 O8 2.430919 1_555
Na3 O4 2.529067 1_554
Na3 O7 2.529070 1_455
Na4 O6 2.292735 1_565
Na4 O11 2.328864 1_555
Na4 O8 2.335249 1_654
Na4 O7 2.342672 1_555
Na5 O11 2.292735 1_455
Na5 O6 2.328864 1_555
Na5 O9 2.335249 1_544
Na5 O10 2.342678 1_555
Np0 O1 1.925406 1_556
Np0 O10 1.925410 1_655
Np0 O11 1.995920 1_556
Np0 O0 1.995920 1_655
Np0 O9 2.239018 1_555
Np0 O2 2.239018 1_555
Np1 O4 1.925404 1_555
Np1 O7 1.925412 1_545
Np1 O5 1.995920 1_655
Np1 O6 1.995920 1_556
Np1 O3 2.239018 1_555
Np1 O8 2.239018 1_555
H0 O2 0.986441 1_555
H1 O3 0.986441 1_555
H2 O8 0.986441 1_555
H3 O9 0.986441 1_555
