# generated using pymatgen
data_PmInAg2
_symmetry_space_group_name_H-M   'P 1'
_cell_length_a   4.98805056
_cell_length_b   4.98804250
_cell_length_c   4.98804178
_cell_angle_alpha   60.00011165
_cell_angle_beta   60.00002907
_cell_angle_gamma   60.00001458
_symmetry_Int_Tables_number   1
_chemical_formula_structural   PmInAg2
_chemical_formula_sum   'Pm1 In1 Ag2'
_cell_volume   87.75595293
_cell_formula_units_Z   1
loop_
 _symmetry_equiv_pos_site_id
 _symmetry_equiv_pos_as_xyz
  1  'x, y, z'
loop_
 _atom_site_type_symbol
 _atom_site_label
 _atom_site_symmetry_multiplicity
 _atom_site_fract_x
 _atom_site_fract_y
 _atom_site_fract_z
 _atom_site_occupancy
  Pm  Pm0  1  0.75000100  0.75000000  0.75000100  1
  In  In0  1  0.25000000  0.25000000  0.25000000  1
  Ag  Ag0  1  -0.00000000  0.00000000  0.00000000  1
  Ag  Ag1  1  0.50000100  0.50000100  0.50000100  1
loop_
_geom_bond_atom_site_label_1
_geom_bond_atom_site_label_2
_geom_bond_distance
_geom_bond_site_symmetry_2
Ag0 Pm0 3.054532 1_444
Ag0 In0 3.054540 1_555
Ag0 Pm0 3.054542 1_454
Ag0 In0 3.054542 1_545
Ag0 In0 3.054542 1_554
Ag0 In0 3.054545 1_455
Ag0 Pm0 3.054547 1_445
Ag0 Pm0 3.054549 1_544
Ag1 Pm0 3.054536 1_555
Ag1 In0 3.054538 1_565
Ag1 In0 3.054538 1_556
Ag1 In0 3.054541 1_655
Ag1 Pm0 3.054542 1_554
Ag1 Pm0 3.054545 1_455
Ag1 Pm0 3.054547 1_545
Ag1 In0 3.054552 1_555
