# generated using pymatgen
data_ZrSO
_symmetry_space_group_name_H-M   'P 1'
_cell_length_a   3.59664283
_cell_length_b   3.59664283
_cell_length_c   6.36714842
_cell_angle_alpha   90.00000000
_cell_angle_beta   90.00000000
_cell_angle_gamma   90.00000000
_symmetry_Int_Tables_number   1
_chemical_formula_structural   ZrSO
_chemical_formula_sum   'Zr2 S2 O2'
_cell_volume   82.36441097
_cell_formula_units_Z   2
loop_
 _symmetry_equiv_pos_site_id
 _symmetry_equiv_pos_as_xyz
  1  'x, y, z'
loop_
 _atom_site_type_symbol
 _atom_site_label
 _atom_site_symmetry_multiplicity
 _atom_site_fract_x
 _atom_site_fract_y
 _atom_site_fract_z
 _atom_site_occupancy
  Zr  Zr0  1  0.75000000  0.75000000  0.80364861  1
  Zr  Zr1  1  0.25000000  0.25000000  0.19635139  1
  S  S0  1  0.25000000  0.25000000  0.62848430  1
  S  S1  1  0.75000000  0.75000000  0.37151570  1
  O  O0  1  0.75000000  0.25000000  -0.00000000  1
  O  O1  1  0.25000000  0.75000000  -0.00000000  1
loop_
_geom_bond_atom_site_label_1
_geom_bond_atom_site_label_2
_geom_bond_distance
_geom_bond_site_symmetry_2
S0 Zr1 2.751454 1_555
S0 Zr0 2.777014 1_555
S0 Zr0 2.777014 1_455
S0 Zr0 2.777014 1_445
S0 Zr0 2.777014 1_545
S1 Zr0 2.751454 1_555
S1 Zr1 2.777014 1_655
S1 Zr1 2.777014 1_665
S1 Zr1 2.777014 1_555
S1 Zr1 2.777014 1_565
O0 Zr1 2.190195 1_655
O0 Zr1 2.190195 1_555
O0 Zr0 2.190195 1_554
O0 Zr0 2.190195 1_544
O1 Zr1 2.190195 1_565
O1 Zr1 2.190195 1_555
O1 Zr0 2.190195 1_454
O1 Zr0 2.190195 1_554
