# generated using pymatgen
data_Ac2ZnGe
_symmetry_space_group_name_H-M   'P 1'
_cell_length_a   5.50422709
_cell_length_b   5.50422709
_cell_length_c   5.50422709
_cell_angle_alpha   60.00000000
_cell_angle_beta   60.00000000
_cell_angle_gamma   60.00000000
_symmetry_Int_Tables_number   1
_chemical_formula_structural   Ac2ZnGe
_chemical_formula_sum   'Ac2 Zn1 Ge1'
_cell_volume   117.91635131
_cell_formula_units_Z   1
loop_
 _symmetry_equiv_pos_site_id
 _symmetry_equiv_pos_as_xyz
  1  'x, y, z'
loop_
 _atom_site_type_symbol
 _atom_site_label
 _atom_site_symmetry_multiplicity
 _atom_site_fract_x
 _atom_site_fract_y
 _atom_site_fract_z
 _atom_site_occupancy
  Ac  Ac0  1  0.50000000  0.50000000  0.50000000  1
  Ac  Ac1  1  0.00000000  0.00000000  0.00000000  1
  Zn  Zn0  1  0.75000000  0.75000000  0.75000000  1
  Ge  Ge0  1  0.25000100  0.25000100  0.25000100  1
loop_
_geom_bond_atom_site_label_1
_geom_bond_atom_site_label_2
_geom_bond_distance
_geom_bond_site_symmetry_2
Ac0 Ge0 3.370623 1_555
Ac0 Zn0 3.370637 1_455
Ac0 Zn0 3.370637 1_555
Ac0 Zn0 3.370637 1_545
Ac0 Zn0 3.370637 1_554
Ac0 Ge0 3.370641 1_565
Ac0 Ge0 3.370641 1_556
Ac0 Ge0 3.370641 1_655
Ac1 Ge0 3.370632 1_545
Ac1 Ge0 3.370632 1_554
Ac1 Ge0 3.370632 1_455
Ac1 Zn0 3.370637 1_454
Ac1 Zn0 3.370637 1_445
Ac1 Zn0 3.370637 1_544
Ac1 Zn0 3.370637 1_444
Ac1 Ge0 3.370650 1_555
