# generated using pymatgen
data_TaAl3
_symmetry_space_group_name_H-M   'P 1'
_cell_length_a   3.83420145
_cell_length_b   3.83420199
_cell_length_c   5.04222874
_cell_angle_alpha   112.34663242
_cell_angle_beta   112.34663627
_cell_angle_gamma   89.99999299
_symmetry_Int_Tables_number   1
_chemical_formula_structural   TaAl3
_chemical_formula_sum   'Ta1 Al3'
_cell_volume   62.49873981
_cell_formula_units_Z   1
loop_
 _symmetry_equiv_pos_site_id
 _symmetry_equiv_pos_as_xyz
  1  'x, y, z'
loop_
 _atom_site_type_symbol
 _atom_site_label
 _atom_site_symmetry_multiplicity
 _atom_site_fract_x
 _atom_site_fract_y
 _atom_site_fract_z
 _atom_site_occupancy
  Ta  Ta0  1  -0.00000000  -0.00000000  -0.00000000  1
  Al  Al0  1  0.50000000  0.50000000  -0.00000000  1
  Al  Al1  1  0.25000000  0.75000000  0.50000000  1
  Al  Al2  1  0.75000000  0.25000000  0.50000000  1
loop_
_geom_bond_atom_site_label_1
_geom_bond_atom_site_label_2
_geom_bond_distance
_geom_bond_site_symmetry_2
Al0 Ta0 2.711190 1_655
Al0 Ta0 2.711190 1_565
Al0 Ta0 2.711190 1_555
Al0 Ta0 2.711190 1_665
Al0 Al2 2.862456 1_454
Al0 Al1 2.862456 1_655
Al0 Al1 2.862456 1_554
Al0 Al2 2.862456 1_555
Al0 Al2 2.862456 1_554
Al0 Al1 2.862456 1_555
Al0 Al2 2.862456 1_565
Al0 Al1 2.862456 1_544
Al1 Al2 2.711190 1_555
Al1 Al2 2.711190 1_465
Al1 Al2 2.711190 1_455
Al1 Al2 2.711190 1_565
Al1 Ta0 2.862456 1_666
Al1 Ta0 2.862456 1_565
Al1 Ta0 2.862456 1_566
Al1 Ta0 2.862456 1_555
Al2 Ta0 2.862456 1_555
Al2 Ta0 2.862456 1_656
Al2 Ta0 2.862456 1_655
Al2 Ta0 2.862456 1_666
