# generated using pymatgen
data_Li4Co(OF)2
_symmetry_space_group_name_H-M   'P 1'
_cell_length_a   6.49257940
_cell_length_b   7.79064032
_cell_length_c   7.42102100
_cell_angle_alpha   89.99991182
_cell_angle_beta   89.99987861
_cell_angle_gamma   94.65579330
_symmetry_Int_Tables_number   1
_chemical_formula_structural   Li4Co(OF)2
_chemical_formula_sum   'Li16 Co4 O8 F8'
_cell_volume   374.12667771
_cell_formula_units_Z   4
loop_
 _symmetry_equiv_pos_site_id
 _symmetry_equiv_pos_as_xyz
  1  'x, y, z'
loop_
 _atom_site_type_symbol
 _atom_site_label
 _atom_site_symmetry_multiplicity
 _atom_site_fract_x
 _atom_site_fract_y
 _atom_site_fract_z
 _atom_site_occupancy
  Li  Li0  1  0.88218900  0.35364700  0.25002700  1
  Li  Li1  1  0.38219400  0.85364000  0.49996900  1
  Li  Li2  1  0.88219800  0.35363900  0.75003100  1
  Li  Li3  1  0.38219400  0.85364500  0.99997200  1
  Li  Li4  1  0.11780500  0.64635500  0.25002700  1
  Li  Li5  1  0.61780200  0.14636200  0.49997000  1
  Li  Li6  1  0.11780300  0.64636000  0.75003000  1
  Li  Li7  1  0.61780300  0.14635500  0.99997300  1
  Li  Li8  1  0.19024100  0.34053800  0.50000000  1
  Li  Li9  1  0.69023900  0.84053900  0.75000200  1
  Li  Li10  1  0.19024100  0.34052900  0.99999400  1
  Li  Li11  1  0.69024100  0.84053000  0.25000300  1
  Li  Li12  1  0.80975900  0.65947000  0.00000000  1
  Li  Li13  1  0.30975900  0.15946500  0.25000300  1
  Li  Li14  1  0.80976000  0.65946000  0.49999600  1
  Li  Li15  1  0.30975900  0.15946100  0.75000200  1
  Co  Co0  1  0.00003600  0.00001200  0.50006300  1
  Co  Co1  1  0.49997400  0.49999100  0.74993700  1
  Co  Co2  1  0.00001200  0.00000300  0.00006600  1
  Co  Co3  1  0.50006100  0.50001800  0.24993300  1
  O  O0  1  0.23002700  0.41409900  0.24998400  1
  O  O1  1  0.73002500  0.91409400  0.49999100  1
  O  O2  1  0.23005000  0.41410200  0.75001000  1
  O  O3  1  0.73004400  0.91410600  0.00001400  1
  O  O4  1  0.76992300  0.58588500  0.24998500  1
  O  O5  1  0.26994500  0.08589700  0.49999000  1
  O  O6  1  0.76997000  0.58590700  0.75001100  1
  O  O7  1  0.26994400  0.08589100  0.00001500  1
  F  F0  1  0.90419200  0.26789300  0.00004400  1
  F  F1  1  0.40419300  0.76789600  0.24995900  1
  F  F2  1  0.90419300  0.26789700  0.50000300  1
  F  F3  1  0.40419300  0.76789300  0.74999400  1
  F  F4  1  0.09580700  0.73210400  0.50000400  1
  F  F5  1  0.59581100  0.23210600  0.74999700  1
  F  F6  1  0.09580700  0.73210700  0.00004200  1
  F  F7  1  0.59580600  0.23210400  0.24995900  1
loop_
_geom_bond_atom_site_label_1
_geom_bond_atom_site_label_2
_geom_bond_distance
_geom_bond_site_symmetry_2
Li0 O4 2.004715 1_555
Li0 O0 2.269219 1_655
Li1 O5 2.004805 1_565
Li1 O1 2.269177 1_555
Li2 O6 2.004825 1_555
Li2 O2 2.269319 1_655
Li3 O7 2.004728 1_566
Li3 O3 2.269304 1_556
Li4 O0 2.004721 1_555
Li4 O4 2.269516 1_455
Li5 O1 2.004811 1_545
Li5 O5 2.269353 1_555
Li6 O2 2.004806 1_555
Li6 O6 2.269188 1_455
Li7 O3 2.004724 1_546
Li7 O7 2.269364 1_556
Li8 O2 1.952809 1_555
Li8 O0 1.952826 1_555
Li8 O5 2.090448 1_555
Li9 O1 1.952778 1_555
Li9 O3 1.952827 1_556
Li9 O6 2.090437 1_555
Li10 O2 1.952643 1_555
Li10 O0 1.952665 1_556
Li10 O7 2.090424 1_556
Li11 O1 1.952637 1_555
Li11 O3 1.952681 1_555
Li11 O4 2.090432 1_555
Li12 O6 1.952645 1_554
Li12 O4 1.952696 1_555
Li12 O3 2.090434 1_555
Li13 O5 1.952657 1_555
Li13 O7 1.952681 1_555
Li13 O0 2.090455 1_555
Li14 O6 1.952804 1_555
Li14 O4 1.952860 1_555
Li14 O1 2.090461 1_555
Li15 O5 1.952827 1_555
Li15 O7 1.952845 1_556
Li15 O2 2.090459 1_555
Co0 O5 1.824355 1_555
Co0 O1 1.825046 1_445
Co0 F2 2.225667 1_455
Co0 F4 2.225673 1_545
Co1 O2 1.824455 1_555
Co1 O6 1.824951 1_555
Co1 F3 2.225651 1_555
Co1 F5 2.225653 1_555
Co2 O7 1.824501 1_555
Co2 O3 1.824739 1_445
Co2 F6 2.225639 1_545
Co2 F0 2.225651 1_455
Co3 O4 1.824031 1_555
Co3 O0 1.825187 1_555
Co3 F7 2.225658 1_555
Co3 F1 2.225672 1_555
F0 Li10 1.897047 1_654
F0 Li0 1.980843 1_555
F0 Li2 1.981022 1_554
F0 Li7 2.016956 1_554
F1 Li11 1.897037 1_555
F1 Li3 1.980853 1_554
F1 Li1 1.981001 1_555
F1 Li4 2.016959 1_555
F2 Li8 1.897049 1_655
F2 Li0 1.980782 1_555
F2 Li2 1.981118 1_555
F2 Li5 2.016958 1_555
F3 Li9 1.897045 1_555
F3 Li3 1.980800 1_555
F3 Li1 1.981112 1_555
F3 Li6 2.016946 1_555
F4 Li14 1.897048 1_455
F4 Li4 1.980784 1_555
F4 Li6 1.981109 1_555
F4 Li1 2.016938 1_555
F5 Li15 1.897081 1_555
F5 Li7 1.980777 1_555
F5 Li5 1.981114 1_555
F5 Li2 2.016929 1_555
F6 Li12 1.897042 1_455
F6 Li4 1.980846 1_555
F6 Li6 1.981021 1_554
F6 Li3 2.016944 1_554
F7 Li13 1.897040 1_555
F7 Li7 1.980846 1_554
F7 Li5 1.980999 1_555
F7 Li0 2.016937 1_555
