# generated using pymatgen
data_Er8Ga3Co
_symmetry_space_group_name_H-M   'P 1'
_cell_length_a   9.84465591
_cell_length_b   9.84516726
_cell_length_c   6.83584734
_cell_angle_alpha   90.00262076
_cell_angle_beta   90.00003485
_cell_angle_gamma   119.99889077
_symmetry_Int_Tables_number   1
_chemical_formula_structural   Er8Ga3Co
_chemical_formula_sum   'Er16 Ga6 Co2'
_cell_volume   573.78802608
_cell_formula_units_Z   2
loop_
 _symmetry_equiv_pos_site_id
 _symmetry_equiv_pos_as_xyz
  1  'x, y, z'
loop_
 _atom_site_type_symbol
 _atom_site_label
 _atom_site_symmetry_multiplicity
 _atom_site_fract_x
 _atom_site_fract_y
 _atom_site_fract_z
 _atom_site_occupancy
  Er  Er0  1  -0.00000502  -0.00000129  0.27006607  1
  Er  Er1  1  -0.00000719  -0.00000096  0.77005647  1
  Er  Er2  1  0.17311563  0.82689697  0.99092223  1
  Er  Er3  1  0.82691385  0.17311950  0.49091807  1
  Er  Er4  1  0.17310878  0.34622473  0.99092758  1
  Er  Er5  1  0.65377890  0.82688041  0.99091905  1
  Er  Er6  1  0.34620460  0.17310249  0.49091358  1
  Er  Er7  1  0.82689215  0.65379355  0.49092140  1
  Er  Er8  1  0.33333767  0.66667397  0.67215088  1
  Er  Er9  1  0.66666547  0.33333136  0.17213414  1
  Er  Er10  1  0.46313082  0.53685683  0.29185200  1
  Er  Er11  1  0.53685991  0.46313034  0.79184145  1
  Er  Er12  1  0.46314338  0.92627271  0.29184489  1
  Er  Er13  1  0.07373001  0.53687467  0.29184928  1
  Er  Er14  1  0.92627646  0.46314531  0.79184409  1
  Er  Er15  1  0.53687426  0.07373316  0.79184062  1
  Ga  Ga0  1  0.16367061  0.83629829  0.54150525  1
  Ga  Ga1  1  0.83633140  0.16365655  0.04146189  1
  Ga  Ga2  1  0.16368497  0.32736954  0.54150455  1
  Ga  Ga3  1  0.67262603  0.83631553  0.54150550  1
  Ga  Ga4  1  0.32732843  0.16366723  0.04146803  1
  Ga  Ga5  1  0.83633951  0.67265909  0.04147454  1
  Co  Co0  1  0.33333513  0.66667071  0.05810821  1
  Co  Co1  1  0.66666324  0.33333031  0.55808723  1
loop_
_geom_bond_atom_site_label_1
_geom_bond_atom_site_label_2
_geom_bond_distance
_geom_bond_site_symmetry_2
Er0 Ga1 3.198487 1_455
Er0 Ga4 3.198535 1_555
Er0 Ga5 3.198577 1_445
Er0 Ga3 3.351627 1_445
Er0 Ga2 3.351633 1_555
Er0 Ga0 3.351696 1_545
Er1 Ga3 3.198552 1_445
Er1 Ga0 3.198665 1_545
Er1 Ga2 3.198819 1_555
Er1 Ga1 3.351082 1_456
Er1 Ga4 3.351201 1_556
Er1 Ga5 3.351501 1_446
Er2 Ga5 2.895367 1_456
Er2 Ga4 2.895452 1_566
Er2 Ga0 3.076349 1_555
Er2 Ga0 3.767126 1_556
Er3 Ga2 2.895329 1_655
Er3 Ga3 2.895780 1_545
Er3 Ga1 3.076624 1_555
Er3 Ga1 3.766879 1_556
Er4 Ga1 2.895392 1_456
Er4 Ga4 2.895417 1_556
Er4 Ga2 3.076382 1_555
Er4 Ga2 3.767101 1_556
Er5 Ga5 2.895452 1_556
Er5 Ga1 2.895492 1_566
Er5 Ga3 3.076326 1_555
Er5 Ga3 3.767149 1_556
Er6 Ga2 2.895485 1_555
Er6 Ga0 2.895791 1_545
Er6 Ga4 3.076549 1_555
Er6 Ga4 3.766950 1_556
Er7 Ga0 2.895391 1_655
Er7 Ga3 2.895507 1_555
Er7 Ga5 3.076566 1_555
Er7 Ga5 3.766925 1_556
Er8 Ga3 3.027456 1_555
Er8 Ga0 3.027506 1_555
Er8 Ga2 3.027664 1_555
Er9 Ga4 3.027848 1_555
Er9 Ga1 3.027917 1_555
Er9 Ga5 3.027972 1_555
Er10 Ga2 3.126825 1_555
Er10 Ga3 3.126867 1_555
Er10 Ga4 3.647407 1_555
Er10 Ga5 3.647484 1_555
Er11 Ga5 3.126928 1_556
Er11 Ga4 3.127009 1_556
Er11 Ga2 3.647076 1_555
Er11 Ga3 3.647425 1_555
Er12 Ga3 3.126744 1_555
Er12 Ga0 3.126960 1_555
Er12 Ga1 3.647396 1_565
Er12 Ga4 3.647564 1_565
Er13 Ga0 3.126653 1_555
Er13 Ga2 3.126976 1_555
Er13 Ga5 3.647244 1_455
Er13 Ga1 3.647617 1_455
Er14 Ga5 3.126740 1_556
Er14 Ga1 3.127164 1_556
Er14 Ga2 3.647162 1_655
Er14 Ga0 3.647174 1_655
Er15 Ga1 3.126739 1_556
Er15 Ga4 3.126937 1_556
Er15 Ga3 3.647090 1_545
Er15 Ga0 3.647315 1_545
Co0 Er8 2.638345 1_554
Co0 Er12 2.729806 1_555
Co0 Er13 2.729856 1_555
Co0 Er10 2.729913 1_555
Co0 Er5 2.770395 1_554
Co0 Er2 2.770433 1_554
Co0 Er4 2.770508 1_554
Co1 Er9 2.638316 1_555
Co1 Er11 2.729844 1_555
Co1 Er14 2.729905 1_555
Co1 Er15 2.729977 1_555
Co1 Er6 2.770478 1_555
Co1 Er3 2.770522 1_555
Co1 Er7 2.770684 1_555
