# generated using pymatgen
data_Na3MnO3
_symmetry_space_group_name_H-M   'P 1'
_cell_length_a   6.00075224
_cell_length_b   12.47696300
_cell_length_c   5.90946931
_cell_angle_alpha   90.00000557
_cell_angle_beta   115.46558121
_cell_angle_gamma   90.00067106
_symmetry_Int_Tables_number   1
_chemical_formula_structural   Na3MnO3
_chemical_formula_sum   'Na12 Mn4 O12'
_cell_volume   399.46216827
_cell_formula_units_Z   4
loop_
 _symmetry_equiv_pos_site_id
 _symmetry_equiv_pos_as_xyz
  1  'x, y, z'
loop_
 _atom_site_type_symbol
 _atom_site_label
 _atom_site_symmetry_multiplicity
 _atom_site_fract_x
 _atom_site_fract_y
 _atom_site_fract_z
 _atom_site_occupancy
  Na  Na0  1  0.13919700  0.22136400  0.70078200  1
  Na  Na1  1  0.24598500  0.48365200  0.77945800  1
  Na  Na2  1  0.25401600  0.98365000  0.72054000  1
  Na  Na3  1  0.36080800  0.72136500  0.79922200  1
  Na  Na4  1  0.28932800  0.59946800  0.35134900  1
  Na  Na5  1  0.21067200  0.09946400  0.14865600  1
  Na  Na6  1  0.78933100  0.90053900  0.85134600  1
  Na  Na7  1  0.71066900  0.40053700  0.64865000  1
  Na  Na8  1  0.63919500  0.27864400  0.20078000  1
  Na  Na9  1  0.74598400  0.01635600  0.27945900  1
  Na  Na10  1  0.75402000  0.51635500  0.22054100  1
  Na  Na11  1  0.86080800  0.77864400  0.29921800  1
  Mn  Mn0  1  0.17202200  0.34070300  0.26259900  1
  Mn  Mn1  1  0.32797300  0.84071300  0.23739800  1
  Mn  Mn2  1  0.67201700  0.15926100  0.76260400  1
  Mn  Mn3  1  0.82797600  0.65926800  0.73740100  1
  O  O0  1  0.99481500  0.36942000  0.45209200  1
  O  O1  1  0.11417000  0.93409000  0.30640400  1
  O  O2  1  0.06874500  0.73155000  0.02409600  1
  O  O3  1  0.49480300  0.13058600  0.95210800  1
  O  O4  1  0.43126100  0.23154600  0.47590800  1
  O  O5  1  0.61415200  0.56591000  0.80640800  1
  O  O6  1  0.38582700  0.43408700  0.19359900  1
  O  O7  1  0.56874800  0.76845800  0.52409900  1
  O  O8  1  0.50518800  0.86942200  0.04790300  1
  O  O9  1  0.93124700  0.26845200  0.97589000  1
  O  O10  1  0.88584500  0.06591200  0.69359300  1
  O  O11  1  0.00519700  0.63058500  0.54789800  1
loop_
_geom_bond_atom_site_label_1
_geom_bond_atom_site_label_2
_geom_bond_distance
_geom_bond_site_symmetry_2
Na0 O0 2.286486 1_455
Na0 O3 2.305842 1_555
Na0 O10 2.453455 1_455
Na0 O9 2.507972 1_455
Na0 O4 2.618491 1_555
Na1 O6 2.304369 1_556
Na1 O0 2.353326 1_455
Na1 O11 2.370857 1_555
Na1 O5 2.378447 1_555
Na2 O1 2.304317 1_555
Na2 O8 2.353311 1_556
Na2 O3 2.370873 1_565
Na2 O10 2.378518 1_465
Na3 O8 2.286453 1_556
Na3 O11 2.305846 1_555
Na3 O5 2.453488 1_555
Na3 O7 2.508010 1_555
Na3 O2 2.618490 1_556
Na4 O6 2.434425 1_555
Na4 O2 2.450843 1_555
Na4 O11 2.471809 1_555
Na4 O5 2.588188 1_555
Na4 O7 2.612897 1_555
Na5 O1 2.434341 1_545
Na5 O4 2.450826 1_555
Na5 O3 2.471808 1_554
Na5 O10 2.588191 1_454
Na5 O9 2.612934 1_454
Na6 O10 2.434373 1_565
Na6 O7 2.450794 1_555
Na6 O8 2.471904 1_556
Na6 O1 2.588190 1_656
Na6 O2 2.612902 1_656
Na7 O5 2.434406 1_555
Na7 O9 2.450820 1_555
Na7 O0 2.471930 1_555
Na7 O6 2.588172 1_555
Na7 O4 2.612868 1_555
Na8 O3 2.286445 1_554
Na8 O0 2.305839 1_555
Na8 O6 2.453465 1_555
Na8 O4 2.508022 1_555
Na8 O9 2.618510 1_554
Na9 O10 2.304285 1_555
Na9 O3 2.353303 1_554
Na9 O8 2.370851 1_545
Na9 O1 2.378624 1_645
Na10 O5 2.304278 1_554
Na10 O11 2.353294 1_655
Na10 O0 2.370875 1_555
Na10 O6 2.378657 1_555
Na11 O11 2.286493 1_655
Na11 O8 2.305880 1_555
Na11 O1 2.453437 1_655
Na11 O2 2.508000 1_655
Na11 O7 2.618505 1_555
Mn0 O0 1.880719 1_455
Mn0 O6 1.902560 1_555
Mn0 O9 1.914602 1_454
Mn0 O4 2.043922 1_555
Mn1 O8 1.880744 1_555
Mn1 O1 1.902534 1_555
Mn1 O7 1.914615 1_555
Mn1 O2 2.043903 1_555
Mn2 O3 1.880703 1_555
Mn2 O10 1.902450 1_555
Mn2 O4 1.914732 1_555
Mn2 O9 2.044114 1_555
Mn3 O11 1.880757 1_655
Mn3 O5 1.902470 1_555
Mn3 O2 1.914724 1_656
Mn3 O7 2.044152 1_555
