# generated using pymatgen
data_Zn5Co19O32
_symmetry_space_group_name_H-M   'P 1'
_cell_length_a   19.15135436
_cell_length_b   19.15135436
_cell_length_c   19.15135439
_cell_angle_alpha   17.34289316
_cell_angle_beta   17.34289316
_cell_angle_gamma   17.34289361
_symmetry_Int_Tables_number   1
_chemical_formula_structural   Zn5Co19O32
_chemical_formula_sum   'Zn5 Co19 O32'
_cell_volume   544.65991016
_cell_formula_units_Z   1
loop_
 _symmetry_equiv_pos_site_id
 _symmetry_equiv_pos_as_xyz
  1  'x, y, z'
loop_
 _atom_site_type_symbol
 _atom_site_label
 _atom_site_symmetry_multiplicity
 _atom_site_fract_x
 _atom_site_fract_y
 _atom_site_fract_z
 _atom_site_occupancy
  Zn  Zn0  1  0.00002200  0.00002200  0.00002200  1
  Zn  Zn1  1  0.68749400  0.68749400  0.68749400  1
  Zn  Zn2  1  0.74999600  0.74999600  0.74999600  1
  Zn  Zn3  1  0.18751500  0.18751500  0.18751500  1
  Zn  Zn4  1  0.24996600  0.24996600  0.24996600  1
  Co  Co0  1  0.34375400  0.34375400  0.34375400  1
  Co  Co1  1  0.21889500  0.21889500  0.71858900  1
  Co  Co2  1  0.21889500  0.71858900  0.21889500  1
  Co  Co3  1  0.71858900  0.21889500  0.21889500  1
  Co  Co4  1  0.43747200  0.43747200  0.43747200  1
  Co  Co5  1  0.09378400  0.09378400  0.09378400  1
  Co  Co6  1  0.21874300  0.71875600  0.71875600  1
  Co  Co7  1  0.96874400  0.46876300  0.96874400  1
  Co  Co8  1  0.46876300  0.96874400  0.96874400  1
  Co  Co9  1  0.71875600  0.71875600  0.21874300  1
  Co  Co10  1  0.84373200  0.84373200  0.84373200  1
  Co  Co11  1  0.96874400  0.96874400  0.46876300  1
  Co  Co12  1  0.50002900  0.50002900  0.50002900  1
  Co  Co13  1  0.71875600  0.21874300  0.71875600  1
  Co  Co14  1  0.46873600  0.96861700  0.46873600  1
  Co  Co15  1  0.93750100  0.93750100  0.93750100  1
  Co  Co16  1  0.59375900  0.59375900  0.59375900  1
  Co  Co17  1  0.46873600  0.46873600  0.96861700  1
  Co  Co18  1  0.96861700  0.46873600  0.46873600  1
  O  O0  1  0.07074600  0.51333500  0.51333500  1
  O  O1  1  0.40284100  0.40284100  0.40284100  1
  O  O2  1  0.51333500  0.51333500  0.07074600  1
  O  O3  1  0.03485500  0.03485500  0.03485500  1
  O  O4  1  0.36701400  0.92411000  0.92411000  1
  O  O5  1  0.92411000  0.36701400  0.92411000  1
  O  O6  1  0.11836000  0.67349800  0.67349800  1
  O  O7  1  0.26401800  0.81911000  0.26401800  1
  O  O8  1  0.51333500  0.07074600  0.51333500  1
  O  O9  1  0.15264400  0.15264400  0.15264400  1
  O  O10  1  0.26401800  0.26401800  0.81911000  1
  O  O11  1  0.01335700  0.01335700  0.57067100  1
  O  O12  1  0.67349800  0.67349800  0.11836000  1
  O  O13  1  0.78485900  0.78485900  0.78485900  1
  O  O14  1  0.92411000  0.92411000  0.36701400  1
  O  O15  1  0.67349800  0.11836000  0.67349800  1
  O  O16  1  0.42414400  0.86682900  0.42414400  1
  O  O17  1  0.57067100  0.01335700  0.01335700  1
  O  O18  1  0.01335700  0.57067100  0.01335700  1
  O  O19  1  0.81911000  0.26401800  0.26401800  1
  O  O20  1  0.90283700  0.90283700  0.90283700  1
  O  O21  1  0.17412300  0.17412300  0.61688500  1
  O  O22  1  0.53467300  0.53467300  0.53467300  1
  O  O23  1  0.42414400  0.42414400  0.86682900  1
  O  O24  1  0.28478800  0.28478800  0.28478800  1
  O  O25  1  0.61688500  0.17412300  0.17412300  1
  O  O26  1  0.17412300  0.61688500  0.17412300  1
  O  O27  1  0.86682900  0.42414400  0.42414400  1
  O  O28  1  0.31915500  0.76397800  0.76397800  1
  O  O29  1  0.76397800  0.31915500  0.76397800  1
  O  O30  1  0.65261000  0.65261000  0.65261000  1
  O  O31  1  0.76397800  0.76397800  0.31915500  1
loop_
_geom_bond_atom_site_label_1
_geom_bond_atom_site_label_2
_geom_bond_distance
_geom_bond_site_symmetry_2
Co0 O2 1.932352 1_555
Co0 O8 1.932353 1_555
Co0 O0 1.932353 1_555
Co0 O21 1.932513 1_555
Co0 O25 1.932513 1_555
Co0 O26 1.932513 1_555
Co1 O0 1.931631 1_555
Co1 O8 1.931631 1_555
Co1 O5 1.931790 1_455
Co1 O4 1.931790 1_545
Co1 O3 1.933207 1_556
Co1 O1 1.934603 1_555
Co2 O0 1.931630 1_555
Co2 O2 1.931631 1_555
Co2 O4 1.931790 1_554
Co2 O14 1.931790 1_455
Co2 O3 1.933207 1_565
Co2 O1 1.934603 1_555
Co3 O8 1.931630 1_555
Co3 O2 1.931631 1_555
Co3 O5 1.931790 1_554
Co3 O14 1.931790 1_545
Co3 O3 1.933207 1_655
Co3 O1 1.934603 1_555
Co4 O1 1.959308 1_555
Co4 O10 1.963210 1_555
Co4 O7 1.963210 1_555
Co4 O19 1.963210 1_555
Co5 O14 1.932717 1_445
Co5 O5 1.932717 1_454
Co5 O4 1.932717 1_544
Co5 O10 1.933900 1_554
Co5 O7 1.933900 1_545
Co5 O19 1.933900 1_455
Co6 O16 1.931153 1_555
Co6 O23 1.931153 1_555
Co6 O18 1.931199 1_556
Co6 O11 1.931199 1_565
Co6 O22 1.936401 1_555
Co6 O20 1.936518 1_455
Co7 O13 1.930938 1_555
Co7 O9 1.931114 1_656
Co7 O6 1.936163 1_655
Co7 O12 1.936163 1_556
Co7 O19 1.936275 1_556
Co7 O10 1.936275 1_655
Co8 O13 1.930938 1_555
Co8 O9 1.931114 1_566
Co8 O15 1.936163 1_565
Co8 O12 1.936163 1_556
Co8 O7 1.936275 1_556
Co8 O10 1.936275 1_565
Co9 O16 1.931153 1_555
Co9 O27 1.931153 1_555
Co9 O17 1.931199 1_565
Co9 O18 1.931199 1_655
Co9 O22 1.936401 1_555
Co9 O20 1.936518 1_554
Co10 O11 1.933026 1_665
Co10 O18 1.933026 1_656
Co10 O17 1.933026 1_566
Co10 O12 1.934339 1_556
Co10 O15 1.934339 1_565
Co10 O6 1.934339 1_655
Co11 O13 1.930938 1_555
Co11 O9 1.931114 1_665
Co11 O15 1.936163 1_565
Co11 O6 1.936163 1_655
Co11 O19 1.936275 1_565
Co11 O7 1.936275 1_655
Co12 O22 1.960043 1_555
Co12 O12 1.963361 1_555
Co12 O6 1.963361 1_555
Co12 O15 1.963361 1_555
Co13 O27 1.931153 1_555
Co13 O23 1.931153 1_555
Co13 O17 1.931199 1_556
Co13 O11 1.931199 1_655
Co13 O22 1.936401 1_555
Co13 O20 1.936518 1_545
Co14 O30 1.931289 1_555
Co14 O24 1.931821 1_565
Co14 O25 1.933361 1_565
Co14 O21 1.933361 1_565
Co14 O28 1.934582 1_555
Co14 O31 1.934582 1_555
Co15 O20 1.961175 1_555
Co15 O31 1.962711 1_556
Co15 O28 1.962711 1_655
Co15 O29 1.962711 1_565
Co16 O23 1.932670 1_555
Co16 O16 1.932670 1_555
Co16 O27 1.932670 1_555
Co16 O31 1.934167 1_555
Co16 O28 1.934167 1_555
Co16 O29 1.934167 1_555
Co17 O30 1.931289 1_555
Co17 O24 1.931821 1_556
Co17 O25 1.933361 1_556
Co17 O26 1.933361 1_556
Co17 O29 1.934582 1_555
Co17 O28 1.934582 1_555
Co18 O30 1.931289 1_555
Co18 O24 1.931821 1_655
Co18 O26 1.933361 1_655
Co18 O21 1.933361 1_655
Co18 O29 1.934582 1_555
Co18 O31 1.934582 1_555
O0 Zn1 1.971783 1_455
O2 Zn1 1.971783 1_554
O3 Zn0 1.970736 1_555
O4 Zn2 1.969661 1_555
O5 Zn2 1.969661 1_555
O8 Zn1 1.971783 1_545
O9 Zn3 1.972886 1_555
O11 Zn3 1.970886 1_555
O13 Zn2 1.972434 1_555
O14 Zn2 1.969661 1_555
O16 Zn4 1.970519 1_565
O17 Zn3 1.970886 1_555
O18 Zn3 1.970886 1_555
O21 Zn0 1.971245 1_556
O23 Zn4 1.970519 1_556
O24 Zn4 1.970114 1_555
O25 Zn0 1.971245 1_655
O26 Zn0 1.971245 1_565
O27 Zn4 1.970519 1_655
O30 Zn1 1.973622 1_555
