# generated using pymatgen
data_Pr2Fe17
_symmetry_space_group_name_H-M   'P 1'
_cell_length_a   6.48556275
_cell_length_b   6.48556275
_cell_length_c   6.48556346
_cell_angle_alpha   83.02989838
_cell_angle_beta   83.02989838
_cell_angle_gamma   83.02989568
_symmetry_Int_Tables_number   1
_chemical_formula_structural   Pr2Fe17
_chemical_formula_sum   'Pr2 Fe17'
_cell_volume   267.20335308
_cell_formula_units_Z   1
loop_
 _symmetry_equiv_pos_site_id
 _symmetry_equiv_pos_as_xyz
  1  'x, y, z'
loop_
 _atom_site_type_symbol
 _atom_site_label
 _atom_site_symmetry_multiplicity
 _atom_site_fract_x
 _atom_site_fract_y
 _atom_site_fract_z
 _atom_site_occupancy
  Pr  Pr0  1  0.65897100  0.65897100  0.65897100  1
  Pr  Pr1  1  0.34102900  0.34102900  0.34102900  1
  Fe  Fe0  1  0.34113300  0.34113300  0.84620600  1
  Fe  Fe1  1  0.84620600  0.34113300  0.34113300  1
  Fe  Fe2  1  0.09611300  0.09611300  0.09611300  1
  Fe  Fe3  1  0.90388700  0.90388700  0.90388700  1
  Fe  Fe4  1  0.00000000  0.00000000  0.50000000  1
  Fe  Fe5  1  0.00000000  0.50000000  0.00000000  1
  Fe  Fe6  1  0.50000000  0.00000000  0.00000000  1
  Fe  Fe7  1  0.71154800  0.28845200  0.00000000  1
  Fe  Fe8  1  0.28845200  0.00000000  0.71154800  1
  Fe  Fe9  1  0.00000000  0.71154800  0.28845200  1
  Fe  Fe10  1  0.28845200  0.71154800  0.00000000  1
  Fe  Fe11  1  0.71154800  0.00000000  0.28845200  1
  Fe  Fe12  1  0.00000000  0.28845200  0.71154800  1
  Fe  Fe13  1  0.15379400  0.65886700  0.65886700  1
  Fe  Fe14  1  0.65886700  0.65886700  0.15379400  1
  Fe  Fe15  1  0.65886700  0.15379400  0.65886700  1
  Fe  Fe16  1  0.34113300  0.84620600  0.34113300  1
loop_
_geom_bond_atom_site_label_1
_geom_bond_atom_site_label_2
_geom_bond_distance
_geom_bond_site_symmetry_2
Fe0 Fe5 2.472238 1_556
Fe0 Fe6 2.472238 1_556
Fe0 Fe13 2.518297 1_555
Fe0 Fe15 2.518297 1_555
Fe0 Fe12 2.549346 1_555
Fe0 Fe8 2.549346 1_555
Fe0 Fe2 2.653311 1_556
Fe0 Fe7 2.680028 1_556
Fe0 Fe10 2.680028 1_556
Fe0 Pr0 3.128774 1_555
Fe0 Pr1 3.209042 1_556
Fe0 Pr1 3.276521 1_555
Fe1 Fe4 2.472238 1_655
Fe1 Fe5 2.472238 1_655
Fe1 Fe14 2.518297 1_555
Fe1 Fe15 2.518298 1_555
Fe1 Fe11 2.549346 1_555
Fe1 Fe7 2.549346 1_555
Fe1 Fe2 2.653311 1_655
Fe1 Fe9 2.680028 1_655
Fe1 Fe12 2.680028 1_655
Fe1 Pr0 3.128774 1_555
Fe1 Pr1 3.209042 1_655
Fe1 Pr1 3.276521 1_555
Fe2 Fe3 2.407155 1_444
Fe2 Fe6 2.634442 1_555
Fe2 Fe5 2.634442 1_555
Fe2 Fe4 2.634443 1_555
Fe2 Fe7 2.756588 1_455
Fe2 Fe9 2.756588 1_545
Fe2 Fe8 2.756588 1_554
Fe2 Pr1 3.066967 1_555
Fe3 Fe5 2.634442 1_656
Fe3 Fe6 2.634442 1_566
Fe3 Fe4 2.634443 1_665
Fe3 Fe7 2.756588 1_566
Fe3 Fe8 2.756588 1_665
Fe3 Fe9 2.756588 1_656
Fe3 Pr0 3.066967 1_555
Fe4 Fe8 2.450540 1_555
Fe4 Fe9 2.450540 1_545
Fe4 Pr0 3.305629 1_445
Fe4 Pr1 3.305629 1_555
Fe5 Fe7 2.450540 1_455
Fe5 Fe9 2.450541 1_555
Fe5 Pr0 3.305629 1_454
Fe5 Pr1 3.305629 1_555
Fe6 Fe7 2.450540 1_555
Fe6 Fe8 2.450541 1_554
Fe6 Pr0 3.305629 1_544
Fe6 Pr1 3.305629 1_555
Fe7 Pr0 3.078462 1_554
Fe7 Pr1 3.078462 1_555
Fe8 Pr0 3.078462 1_545
Fe8 Pr1 3.078462 1_555
Fe9 Pr1 3.078462 1_555
Fe9 Pr0 3.078462 1_455
Fe10 Fe5 2.450540 1_555
Fe10 Fe6 2.450540 1_565
Fe10 Fe9 2.479955 1_555
Fe10 Fe8 2.479955 1_564
Fe10 Fe13 2.549346 1_554
Fe10 Fe16 2.549346 1_555
Fe10 Fe14 2.680028 1_555
Fe10 Fe2 2.756588 1_565
Fe10 Fe3 2.756588 1_454
Fe10 Pr0 3.078462 1_554
Fe10 Pr1 3.078462 1_555
Fe11 Fe4 2.450540 1_655
Fe11 Fe6 2.450541 1_555
Fe11 Fe9 2.479955 1_645
Fe11 Fe7 2.479955 1_555
Fe11 Fe14 2.549346 1_545
Fe11 Fe16 2.680028 1_545
Fe11 Fe15 2.680028 1_555
Fe11 Fe2 2.756588 1_655
Fe11 Fe3 2.756588 1_544
Fe11 Pr1 3.078462 1_555
Fe11 Pr0 3.078462 1_545
Fe12 Fe4 2.450540 1_555
Fe12 Fe5 2.450541 1_556
Fe12 Fe8 2.479955 1_555
Fe12 Fe7 2.479955 1_456
Fe12 Fe15 2.549346 1_455
Fe12 Fe13 2.680028 1_555
Fe12 Fe3 2.756588 1_445
Fe12 Fe2 2.756588 1_556
Fe12 Pr0 3.078462 1_455
Fe12 Pr1 3.078462 1_555
Fe13 Fe4 2.472238 1_565
Fe13 Fe5 2.472238 1_556
Fe13 Fe16 2.518298 1_555
Fe13 Fe8 2.549346 1_565
Fe13 Fe3 2.653311 1_455
Fe13 Fe9 2.680028 1_555
Fe13 Pr1 3.128774 1_555
Fe13 Pr0 3.209042 1_455
Fe13 Pr0 3.276521 1_555
Fe14 Fe5 2.472238 1_655
Fe14 Fe6 2.472238 1_565
Fe14 Fe16 2.518297 1_555
Fe14 Fe9 2.549346 1_655
Fe14 Fe3 2.653311 1_554
Fe14 Fe7 2.680028 1_555
Fe14 Pr1 3.128774 1_555
Fe14 Pr0 3.209042 1_554
Fe14 Pr0 3.276521 1_555
Fe15 Fe4 2.472238 1_655
Fe15 Fe6 2.472238 1_556
Fe15 Fe7 2.549346 1_556
Fe15 Fe3 2.653311 1_545
Fe15 Fe8 2.680028 1_555
Fe15 Pr1 3.128774 1_555
Fe15 Pr0 3.209042 1_545
Fe15 Pr0 3.276521 1_555
Fe16 Fe4 2.472238 1_565
Fe16 Fe6 2.472238 1_565
Fe16 Fe9 2.549346 1_555
Fe16 Fe2 2.653311 1_565
Fe16 Fe8 2.680028 1_565
Fe16 Pr0 3.128774 1_555
Fe16 Pr1 3.209042 1_565
Fe16 Pr1 3.276521 1_555
