# generated using pymatgen
data_LiFe2(BO3)2
_symmetry_space_group_name_H-M   'P 1'
_cell_length_a   5.24859000
_cell_length_b   9.14136416
_cell_length_c   11.30782167
_cell_angle_alpha   112.71046396
_cell_angle_beta   103.35783930
_cell_angle_gamma   90.05467985
_symmetry_Int_Tables_number   1
_chemical_formula_structural   LiFe2(BO3)2
_chemical_formula_sum   'Li4 Fe8 B8 O24'
_cell_volume   484.47413019
_cell_formula_units_Z   4
loop_
 _symmetry_equiv_pos_site_id
 _symmetry_equiv_pos_as_xyz
  1  'x, y, z'
loop_
 _atom_site_type_symbol
 _atom_site_label
 _atom_site_symmetry_multiplicity
 _atom_site_fract_x
 _atom_site_fract_y
 _atom_site_fract_z
 _atom_site_occupancy
  Li  Li0  1  0.38158800  0.72491400  0.08748000  1
  Li  Li1  1  0.82703600  0.49487300  0.34597900  1
  Li  Li2  1  0.32213100  0.99683300  0.34289600  1
  Li  Li3  1  0.60478400  0.24372800  0.83328500  1
  Fe  Fe0  1  0.64948600  0.64786300  0.62801600  1
  Fe  Fe1  1  0.38685600  0.07367300  0.11832000  1
  Fe  Fe2  1  0.84090100  0.84456000  0.37905500  1
  Fe  Fe3  1  0.11154500  0.44298200  0.85902000  1
  Fe  Fe4  1  0.89554800  0.55949300  0.11950300  1
  Fe  Fe5  1  0.13103900  0.14665900  0.61956500  1
  Fe  Fe6  1  0.33484100  0.34887800  0.37363700  1
  Fe  Fe7  1  0.62177400  0.92901800  0.87069600  1
  B  B0  1  0.63870400  0.31690700  0.62147800  1
  B  B1  1  0.39426700  0.40536400  0.12812600  1
  B  B2  1  0.84312500  0.18130700  0.36836100  1
  B  B3  1  0.10700800  0.10999800  0.87295500  1
  B  B4  1  0.14935700  0.81063300  0.62247500  1
  B  B5  1  0.88977300  0.89370000  0.12358100  1
  B  B6  1  0.34678000  0.68180600  0.36860300  1
  B  B7  1  0.60841000  0.60087900  0.87649100  1
  O  O0  1  0.15809200  0.91527600  0.13839600  1
  O  O1  1  0.29027900  0.29122600  0.16101900  1
  O  O2  1  0.23508800  0.50705400  0.08560200  1
  O  O3  1  0.45955800  0.81219100  0.36197200  1
  O  O4  1  0.49851600  0.57894400  0.41298100  1
  O  O5  1  0.56636500  0.14605300  0.32430000  1
  O  O6  1  0.91138800  0.32049300  0.65316800  1
  O  O7  1  0.65971900  0.42367200  0.14238600  1
  O  O8  1  0.78592600  0.77433000  0.15427700  1
  O  O9  1  0.03732700  0.92704700  0.58087600  1
  O  O10  1  0.99083700  0.68941600  0.61684600  1
  O  O11  1  0.71573500  0.98626800  0.08170900  1
  O  O12  1  0.27732600  0.02172600  0.92728400  1
  O  O13  1  0.96080100  0.31145800  0.36655200  1
  O  O14  1  0.99526100  0.07572100  0.41292700  1
  O  O15  1  0.22266100  0.20866500  0.82447500  1
  O  O16  1  0.36451800  0.62113900  0.89710500  1
  O  O17  1  0.06945200  0.64706500  0.32502000  1
  O  O18  1  0.42195800  0.81873800  0.66193800  1
  O  O19  1  0.52193100  0.42686100  0.57612900  1
  O  O20  1  0.49109300  0.20650100  0.63863700  1
  O  O21  1  0.75788000  0.48901800  0.91583900  1
  O  O22  1  0.72500200  0.69074500  0.82435400  1
  O  O23  1  0.84725700  0.10346900  0.86780900  1
loop_
_geom_bond_atom_site_label_1
_geom_bond_atom_site_label_2
_geom_bond_distance
_geom_bond_site_symmetry_2
Li0 O16 1.968767 1_554
Li0 O8 2.066971 1_555
Li0 O0 2.068342 1_555
Li0 O2 2.124802 1_555
Li1 O13 1.893724 1_555
Li1 O17 2.000283 1_655
Li1 O4 2.072273 1_555
Li1 O7 2.098249 1_555
Li2 O3 1.904548 1_555
Li2 O5 1.972521 1_565
Li2 O14 2.068724 1_465
Li2 O0 2.095745 1_555
Li3 O23 1.891030 1_555
Li3 O15 2.004224 1_555
Li3 O20 2.032450 1_555
Li3 O21 2.139781 1_555
Fe0 O10 1.873612 1_555
Fe0 O18 1.940558 1_555
Fe0 O19 1.942824 1_555
Fe0 O22 2.039841 1_555
Fe0 O4 2.205278 1_555
Fe1 O1 1.954148 1_555
Fe1 O12 1.963680 1_554
Fe1 O11 1.966420 1_545
Fe1 O0 1.991540 1_545
Fe1 O5 2.131999 1_555
Fe2 O3 1.976616 1_555
Fe2 O9 2.102930 1_655
Fe2 O14 2.120562 1_565
Fe2 O17 2.136053 1_655
Fe2 O8 2.314451 1_555
Fe3 O16 1.947003 1_555
Fe3 O21 2.092685 1_455
Fe3 O15 2.131281 1_555
Fe3 O6 2.151990 1_455
Fe3 O2 2.324004 1_556
Fe4 O7 1.879813 1_555
Fe4 O2 1.930816 1_655
Fe4 O8 1.962902 1_555
Fe4 O21 2.079789 1_554
Fe4 O17 2.111086 1_655
Fe5 O20 1.906733 1_555
Fe5 O9 1.919404 1_545
Fe5 O6 1.933472 1_455
Fe5 O15 2.095693 1_555
Fe5 O14 2.109006 1_455
Fe6 O13 1.970380 1_455
Fe6 O19 2.101124 1_555
Fe6 O4 2.111043 1_555
Fe6 O5 2.178169 1_555
Fe6 O1 2.207807 1_555
Fe7 O23 1.999811 1_565
Fe7 O12 2.124801 1_565
Fe7 O22 2.136482 1_555
Fe7 O11 2.168437 1_556
Fe7 O18 2.169132 1_555
B0 O20 1.369551 1_555
B0 O19 1.379430 1_555
B0 O6 1.389857 1_555
B1 O7 1.367502 1_555
B1 O1 1.384644 1_555
B1 O2 1.397982 1_555
B2 O13 1.349311 1_555
B2 O5 1.415223 1_555
B2 O14 1.419256 1_555
B3 O23 1.351338 1_455
B3 O12 1.399305 1_555
B3 O15 1.420217 1_555
B4 O10 1.357739 1_455
B4 O18 1.389597 1_555
B4 O9 1.399792 1_555
B5 O11 1.373183 1_555
B5 O0 1.383911 1_655
B5 O8 1.409622 1_555
B6 O3 1.365571 1_555
B6 O4 1.396907 1_555
B6 O17 1.417483 1_555
B7 O16 1.353609 1_555
B7 O22 1.391624 1_555
B7 O21 1.431996 1_555
