# generated using pymatgen
data_Fe2B3H7(CO)6
_symmetry_space_group_name_H-M   'P 1'
_cell_length_a   9.06637300
_cell_length_b   11.09440900
_cell_length_c   12.52569501
_cell_angle_alpha   90.00000000
_cell_angle_beta   99.60103242
_cell_angle_gamma   90.00000000
_symmetry_Int_Tables_number   1
_chemical_formula_structural   Fe2B3H7(CO)6
_chemical_formula_sum   'Fe8 B12 H28 C24 O24'
_cell_volume   1242.26266542
_cell_formula_units_Z   4
loop_
 _symmetry_equiv_pos_site_id
 _symmetry_equiv_pos_as_xyz
  1  'x, y, z'
loop_
 _atom_site_type_symbol
 _atom_site_label
 _atom_site_symmetry_multiplicity
 _atom_site_fract_x
 _atom_site_fract_y
 _atom_site_fract_z
 _atom_site_occupancy
  Fe  Fe0  1  0.36162400  0.54953800  0.74209800  1
  Fe  Fe1  1  0.63837600  0.04953800  0.75790200  1
  Fe  Fe2  1  0.63837600  0.45046200  0.25790200  1
  Fe  Fe3  1  0.36162400  0.95046200  0.24209800  1
  Fe  Fe4  1  0.11806400  0.51392000  0.81972600  1
  Fe  Fe5  1  0.88193600  0.01392000  0.68027400  1
  Fe  Fe6  1  0.88193600  0.48608000  0.18027400  1
  Fe  Fe7  1  0.11806400  0.98608000  0.31972600  1
  B  B0  1  0.18360100  0.40501800  0.70119900  1
  B  B1  1  0.81639900  0.90501800  0.79880100  1
  B  B2  1  0.81639900  0.59498200  0.29880100  1
  B  B3  1  0.18360100  0.09498200  0.20119900  1
  B  B4  1  0.02780500  0.49970800  0.65810800  1
  B  B5  1  0.97219500  0.99970800  0.84189200  1
  B  B6  1  0.97219500  0.50029200  0.34189200  1
  B  B7  1  0.02780500  0.00029200  0.15810800  1
  B  B8  1  0.13562400  0.63296800  0.69412800  1
  B  B9  1  0.86437600  0.13296800  0.80587200  1
  B  B10  1  0.86437600  0.36703200  0.30587200  1
  B  B11  1  0.13562400  0.86703200  0.19412800  1
  H  H0  1  0.30806100  0.43497100  0.66314200  1
  H  H1  1  0.69193900  0.93497100  0.83685800  1
  H  H2  1  0.69193900  0.56502900  0.33685800  1
  H  H3  1  0.30806100  0.06502900  0.16314200  1
  H  H4  1  0.26321900  0.63712100  0.65323200  1
  H  H5  1  0.73678100  0.13712100  0.84676800  1
  H  H6  1  0.73678100  0.36287900  0.34676800  1
  H  H7  1  0.26321900  0.86287900  0.15323200  1
  H  H8  1  0.10082300  0.42233100  0.60412700  1
  H  H9  1  0.89917700  0.92233100  0.89587300  1
  H  H10  1  0.89917700  0.57766900  0.39587300  1
  H  H11  1  0.10082300  0.07766900  0.10412700  1
  H  H12  1  0.05858700  0.59486600  0.60018400  1
  H  H13  1  0.94141300  0.09486600  0.89981600  1
  H  H14  1  0.94141300  0.40513400  0.39981600  1
  H  H15  1  0.05858700  0.90513400  0.10018400  1
  H  H16  1  0.18793500  0.29719300  0.70582200  1
  H  H17  1  0.81206500  0.79719300  0.79417800  1
  H  H18  1  0.81206500  0.70280700  0.29417800  1
  H  H19  1  0.18793500  0.20280700  0.20582200  1
  H  H20  1  0.89869600  0.47779600  0.62526000  1
  H  H21  1  0.10130400  0.97779600  0.87474000  1
  H  H22  1  0.10130400  0.52220400  0.37474000  1
  H  H23  1  0.89869600  0.02220400  0.12526000  1
  H  H24  1  0.09757200  0.73607500  0.69500300  1
  H  H25  1  0.90242800  0.23607500  0.80499700  1
  H  H26  1  0.90242800  0.26392500  0.30499700  1
  H  H27  1  0.09757200  0.76392500  0.19500300  1
  C  C0  1  0.41993900  0.67891600  0.82193600  1
  C  C1  1  0.58006100  0.17891600  0.67806400  1
  C  C2  1  0.58006100  0.32108400  0.17806400  1
  C  C3  1  0.41993900  0.82108400  0.32193600  1
  C  C4  1  0.45918300  0.44945500  0.83923500  1
  C  C5  1  0.54081700  0.94945500  0.66076500  1
  C  C6  1  0.54081700  0.55054500  0.16076500  1
  C  C7  1  0.45918300  0.05054500  0.33923500  1
  C  C8  1  0.50084200  0.56377500  0.65780800  1
  C  C9  1  0.49915800  0.06377500  0.84219200  1
  C  C10  1  0.49915800  0.43622500  0.34219200  1
  C  C11  1  0.50084200  0.93622500  0.15780800  1
  C  C12  1  0.14376600  0.64115000  0.90722700  1
  C  C13  1  0.85623400  0.14115000  0.59277300  1
  C  C14  1  0.85623400  0.35885000  0.09277300  1
  C  C15  1  0.14376600  0.85885000  0.40722700  1
  C  C16  1  0.92852100  0.50153100  0.82836200  1
  C  C17  1  0.07147900  0.00153100  0.67163800  1
  C  C18  1  0.07147900  0.49846900  0.17163800  1
  C  C19  1  0.92852100  0.99846900  0.32836200  1
  C  C20  1  0.17354200  0.39080800  0.90905500  1
  C  C21  1  0.82645800  0.89080800  0.59094500  1
  C  C22  1  0.82645800  0.60919200  0.09094500  1
  C  C23  1  0.17354200  0.10919200  0.40905500  1
  O  O0  1  0.45859800  0.76461900  0.87191100  1
  O  O1  1  0.54140200  0.26461900  0.62808900  1
  O  O2  1  0.54140200  0.23538100  0.12808900  1
  O  O3  1  0.45859800  0.73538100  0.37191100  1
  O  O4  1  0.52269800  0.38210700  0.90150900  1
  O  O5  1  0.47730200  0.88210700  0.59849100  1
  O  O6  1  0.47730200  0.61789300  0.09849100  1
  O  O7  1  0.52269800  0.11789300  0.40150900  1
  O  O8  1  0.59023600  0.57377000  0.60205500  1
  O  O9  1  0.40976400  0.07377000  0.89794500  1
  O  O10  1  0.40976400  0.42623000  0.39794500  1
  O  O11  1  0.59023600  0.92623000  0.10205500  1
  O  O12  1  0.15616500  0.72729000  0.96127300  1
  O  O13  1  0.84383500  0.22729000  0.53872700  1
  O  O14  1  0.84383500  0.27271000  0.03872700  1
  O  O15  1  0.15616500  0.77271000  0.46127300  1
  O  O16  1  0.80152200  0.49485900  0.83365100  1
  O  O17  1  0.19847800  0.99485900  0.66634900  1
  O  O18  1  0.19847800  0.50514100  0.16634900  1
  O  O19  1  0.80152200  0.00514100  0.33365100  1
  O  O20  1  0.20572100  0.30762400  0.96483400  1
  O  O21  1  0.79427900  0.80762400  0.53516600  1
  O  O22  1  0.79427900  0.69237600  0.03516600  1
  O  O23  1  0.20572100  0.19237600  0.46483400  1
loop_
_geom_bond_atom_site_label_1
_geom_bond_atom_site_label_2
_geom_bond_distance
_geom_bond_site_symmetry_2
Fe0 H4 1.627233 1_555
Fe0 H0 1.633793 1_555
Fe1 H5 1.627233 1_555
Fe1 H1 1.633793 1_545
Fe2 H6 1.627233 1_555
Fe2 H2 1.633793 1_555
Fe3 H7 1.627233 1_555
Fe3 H3 1.633793 1_565
B0 H16 1.197983 1_555
B0 H8 1.331970 1_555
B0 H0 1.338051 1_555
B1 H17 1.197983 1_555
B1 H9 1.331970 1_555
B1 H1 1.338051 1_555
B2 H18 1.197983 1_555
B2 H10 1.331970 1_555
B2 H2 1.338051 1_555
B3 H19 1.197983 1_555
B3 H11 1.331970 1_555
B3 H3 1.338051 1_555
B4 H20 1.199132 1_455
B4 H8 1.334798 1_555
B4 H12 1.336557 1_555
B5 H21 1.199132 1_655
B5 H9 1.334798 1_555
B5 H13 1.336557 1_565
B6 H22 1.199132 1_655
B6 H10 1.334798 1_555
B6 H14 1.336557 1_555
B7 H23 1.199132 1_455
B7 H11 1.334798 1_555
B7 H15 1.336557 1_545
B8 H24 1.195381 1_555
B8 H12 1.333049 1_555
B8 H4 1.341803 1_555
B9 H25 1.195381 1_555
B9 H13 1.333049 1_555
B9 H5 1.341803 1_555
B10 H26 1.195381 1_555
B10 H14 1.333049 1_555
B10 H6 1.341803 1_555
B11 H27 1.195381 1_555
B11 H15 1.333049 1_555
B11 H7 1.341803 1_555
C0 O0 1.159987 1_555
C0 Fe0 1.778626 1_555
C1 O1 1.159987 1_555
C1 Fe1 1.778626 1_555
C2 O2 1.159987 1_555
C2 Fe2 1.778626 1_555
C3 O3 1.159987 1_555
C3 Fe3 1.778626 1_555
C4 O4 1.161248 1_555
C4 Fe0 1.771058 1_555
C5 O5 1.161248 1_555
C5 Fe1 1.771058 1_565
C6 O6 1.161248 1_555
C6 Fe2 1.771058 1_555
C7 O7 1.161248 1_555
C7 Fe3 1.771058 1_545
C8 O8 1.160026 1_555
C8 Fe0 1.782505 1_555
C9 O9 1.160026 1_555
C9 Fe1 1.782505 1_555
C10 O10 1.160026 1_555
C10 Fe2 1.782505 1_555
C11 O11 1.160026 1_555
C11 Fe3 1.782505 1_555
C12 O12 1.165694 1_555
C12 Fe4 1.778425 1_555
C13 O13 1.165694 1_555
C13 Fe5 1.778425 1_555
C14 O14 1.165694 1_555
C14 Fe6 1.778425 1_555
C15 O15 1.165694 1_555
C15 Fe7 1.778425 1_555
C16 O16 1.166654 1_555
C16 Fe4 1.745203 1_655
C17 O17 1.166654 1_545
C17 Fe5 1.745203 1_455
C18 O18 1.166654 1_555
C18 Fe6 1.745203 1_455
C19 O19 1.166654 1_565
C19 Fe7 1.745203 1_655
C20 O20 1.164889 1_555
C20 Fe4 1.784033 1_555
C21 O21 1.164889 1_555
C21 Fe5 1.784033 1_565
C22 O22 1.164889 1_555
C22 Fe6 1.784033 1_555
C23 O23 1.164889 1_555
C23 Fe7 1.784033 1_545
