# generated using pymatgen
data_Mn11ZnO16
_symmetry_space_group_name_H-M   'P 1'
_cell_length_a   6.21644766
_cell_length_b   6.21644766
_cell_length_c   8.16875485
_cell_angle_alpha   90.00000000
_cell_angle_beta   90.00000000
_cell_angle_gamma   97.86949501
_symmetry_Int_Tables_number   1
_chemical_formula_structural   Mn11ZnO16
_chemical_formula_sum   'Mn11 Zn1 O16'
_cell_volume   312.70230087
_cell_formula_units_Z   1
loop_
 _symmetry_equiv_pos_site_id
 _symmetry_equiv_pos_as_xyz
  1  'x, y, z'
loop_
 _atom_site_type_symbol
 _atom_site_label
 _atom_site_symmetry_multiplicity
 _atom_site_fract_x
 _atom_site_fract_y
 _atom_site_fract_z
 _atom_site_occupancy
  Mn  Mn0  1  0.75168354  0.00046044  0.62685046  1
  Mn  Mn1  1  0.24831646  0.99953956  0.62685046  1
  Mn  Mn2  1  0.49828574  0.24865561  0.87642202  1
  Mn  Mn3  1  0.50171426  0.75134439  0.87642202  1
  Mn  Mn4  1  0.75134439  0.50171426  0.12357798  1
  Mn  Mn5  1  -0.00000000  0.50000000  0.75063686  1
  Mn  Mn6  1  0.50000000  0.00000000  0.24936314  1
  Mn  Mn7  1  0.24865561  0.49828574  0.12357798  1
  Mn  Mn8  1  0.99953956  0.24831646  0.37314954  1
  Mn  Mn9  1  0.00046044  0.75168354  0.37314954  1
  Mn  Mn10  1  0.50000000  0.50000000  0.50000000  1
  Zn  Zn0  1  -0.00000000  0.00000000  -0.00000000  1
  O  O0  1  0.49254925  0.22908657  0.63966022  1
  O  O1  1  0.72880283  0.49280853  0.88773386  1
  O  O2  1  0.50745075  0.77091343  0.63966022  1
  O  O3  1  0.73421999  0.99362242  0.86443825  1
  O  O4  1  0.26578001  0.00637758  0.86443825  1
  O  O5  1  0.50719147  0.27119717  0.11226614  1
  O  O6  1  0.27119717  0.50719147  0.88773386  1
  O  O7  1  0.00637758  0.26578001  0.13556175  1
  O  O8  1  0.49280853  0.72880283  0.11226614  1
  O  O9  1  0.22908657  0.49254925  0.36033978  1
  O  O10  1  0.99362242  0.73421999  0.13556175  1
  O  O11  1  0.23038822  0.99389374  0.38923114  1
  O  O12  1  0.99389374  0.23038822  0.61076886  1
  O  O13  1  0.76961178  0.00610626  0.38923114  1
  O  O14  1  0.77091343  0.50745075  0.36033978  1
  O  O15  1  0.00610626  0.76961178  0.61076886  1
loop_
_geom_bond_atom_site_label_1
_geom_bond_atom_site_label_2
_geom_bond_distance
_geom_bond_site_symmetry_2
Mn0 O12 1.933396 1_555
Mn0 O2 1.938823 1_545
Mn0 O3 1.943970 1_545
Mn0 O13 1.944292 1_555
Mn0 O15 2.280274 1_645
Mn0 O0 2.291898 1_555
Mn1 O15 1.933396 1_555
Mn1 O0 1.938823 1_565
Mn1 O4 1.943970 1_565
Mn1 O11 1.944292 1_555
Mn1 O12 2.280274 1_465
Mn1 O2 2.291898 1_555
Mn2 O5 1.931886 1_556
Mn2 O0 1.937893 1_555
Mn2 O1 1.941662 1_555
Mn2 O4 1.941883 1_555
Mn2 O6 2.281597 1_555
Mn2 O3 2.304549 1_545
Mn3 O8 1.931886 1_556
Mn3 O2 1.937893 1_555
Mn3 O6 1.941662 1_555
Mn3 O3 1.941883 1_555
Mn3 O1 2.281597 1_555
Mn3 O4 2.304549 1_565
Mn4 O1 1.931886 1_554
Mn4 O14 1.937893 1_555
Mn4 O5 1.941662 1_555
Mn4 O10 1.941883 1_555
Mn4 O8 2.281597 1_555
Mn4 O7 2.304549 1_655
Mn5 O6 2.019347 1_555
Mn5 O1 2.019347 1_455
Mn5 O12 2.024476 1_455
Mn5 O15 2.024476 1_555
Mn6 O8 2.019347 1_545
Mn6 O5 2.019347 1_555
Mn6 O13 2.024476 1_555
Mn6 O11 2.024476 1_545
Mn7 O6 1.931886 1_554
Mn7 O9 1.937893 1_555
Mn7 O8 1.941662 1_555
Mn7 O7 1.941883 1_555
Mn7 O5 2.281597 1_555
Mn7 O10 2.304549 1_455
Mn8 O13 1.933396 1_555
Mn8 O9 1.938823 1_655
Mn8 O7 1.943970 1_655
Mn8 O12 1.944292 1_555
Mn8 O11 2.280274 1_645
Mn8 O14 2.291898 1_555
Mn9 O11 1.933396 1_555
Mn9 O14 1.938823 1_455
Mn9 O10 1.943970 1_455
Mn9 O15 1.944292 1_555
Mn9 O13 2.280274 1_465
Mn9 O9 2.291898 1_555
Mn10 O9 2.029429 1_555
Mn10 O14 2.029429 1_555
Mn10 O2 2.029429 1_555
Mn10 O0 2.029429 1_555
O3 Zn0 1.984866 1_666
O4 Zn0 1.984866 1_556
O7 Zn0 1.984866 1_555
O10 Zn0 1.984866 1_665
