# generated using pymatgen
data_Na14Co2O9
_symmetry_space_group_name_H-M   'P 1'
_cell_length_a   6.65965701
_cell_length_b   11.50578659
_cell_length_c   11.50474963
_cell_angle_alpha   70.73604600
_cell_angle_beta   73.17727698
_cell_angle_gamma   106.81848734
_symmetry_Int_Tables_number   1
_chemical_formula_structural   Na14Co2O9
_chemical_formula_sum   'Na28 Co4 O18'
_cell_volume   720.72650150
_cell_formula_units_Z   2
loop_
 _symmetry_equiv_pos_site_id
 _symmetry_equiv_pos_as_xyz
  1  'x, y, z'
loop_
 _atom_site_type_symbol
 _atom_site_label
 _atom_site_symmetry_multiplicity
 _atom_site_fract_x
 _atom_site_fract_y
 _atom_site_fract_z
 _atom_site_occupancy
  Na  Na0  1  0.99998800  0.62547300  0.62547900  1
  Na  Na1  1  0.99998800  0.12547300  0.12547900  1
  Na  Na2  1  0.00000000  0.87452100  0.87452600  1
  Na  Na3  1  0.00000000  0.37452100  0.37452600  1
  Na  Na4  1  0.03642900  0.79169900  0.11603600  1
  Na  Na5  1  0.03642900  0.29169900  0.61603600  1
  Na  Na6  1  0.32433900  0.63426100  0.27347300  1
  Na  Na7  1  0.32433900  0.13426100  0.77347300  1
  Na  Na8  1  0.63922200  0.93565500  0.97207400  1
  Na  Na9  1  0.63922200  0.43565500  0.47207400  1
  Na  Na10  1  0.36075700  0.06433800  0.02795200  1
  Na  Na11  1  0.36075700  0.56433800  0.52795200  1
  Na  Na12  1  0.67558900  0.36576100  0.72653500  1
  Na  Na13  1  0.67558900  0.86576100  0.22653500  1
  Na  Na14  1  0.96360300  0.20833800  0.88395400  1
  Na  Na15  1  0.96360300  0.70833800  0.38395400  1
  Na  Na16  1  0.31232000  0.76402800  0.82914700  1
  Na  Na17  1  0.31232000  0.26402800  0.32914700  1
  Na  Na18  1  0.06510400  0.48531500  0.10786700  1
  Na  Na19  1  0.06510400  0.98531500  0.60786700  1
  Na  Na20  1  0.37743300  0.35958000  0.04720600  1
  Na  Na21  1  0.37743300  0.85958000  0.54720600  1
  Na  Na22  1  0.62255700  0.64042200  0.95276700  1
  Na  Na23  1  0.62255700  0.14042200  0.45276700  1
  Na  Na24  1  0.93492900  0.51467400  0.89211400  1
  Na  Na25  1  0.93492900  0.01467400  0.39211400  1
  Na  Na26  1  0.68763000  0.23592900  0.17085600  1
  Na  Na27  1  0.68763000  0.73592900  0.67085600  1
  Co  Co0  1  0.33332800  0.96427400  0.29760400  1
  Co  Co1  1  0.66664900  0.03572400  0.70240200  1
  Co  Co2  1  0.33332800  0.46427400  0.79760400  1
  Co  Co3  1  0.66664900  0.53572400  0.20240200  1
  O  O0  1  0.99999100  0.00000100  0.99999800  1
  O  O1  1  0.99999100  0.50000100  0.49999800  1
  O  O2  1  0.33331500  0.35564300  0.68897400  1
  O  O3  1  0.33331500  0.85564300  0.18897400  1
  O  O4  1  0.66666300  0.64437300  0.31102700  1
  O  O5  1  0.66666300  0.14437300  0.81102700  1
  O  O6  1  0.30445200  0.63881400  0.69741400  1
  O  O7  1  0.30445200  0.13881400  0.19741400  1
  O  O8  1  0.05860700  0.34964200  0.98658400  1
  O  O9  1  0.05860700  0.84964200  0.48658400  1
  O  O10  1  0.36304400  0.48411000  0.17965800  1
  O  O11  1  0.36304400  0.98411000  0.67965800  1
  O  O12  1  0.63692700  0.51588700  0.82034600  1
  O  O13  1  0.63692700  0.01588700  0.32034600  1
  O  O14  1  0.94140000  0.65036200  0.01341600  1
  O  O15  1  0.94140000  0.15036200  0.51341600  1
  O  O16  1  0.69552500  0.36117500  0.30258900  1
  O  O17  1  0.69552500  0.86117500  0.80258900  1
loop_
_geom_bond_atom_site_label_1
_geom_bond_atom_site_label_2
_geom_bond_distance
_geom_bond_site_symmetry_2
Na0 O1 2.354437 1_555
Na0 O6 2.386368 1_655
Na0 O12 2.386422 1_555
Na0 O9 2.386430 1_655
Na1 O0 2.354437 1_554
Na1 O7 2.386368 1_655
Na1 O13 2.386422 1_555
Na1 O8 2.386430 1_654
Na2 O0 2.354427 1_465
Na2 O11 2.386358 1_555
Na2 O14 2.386365 1_456
Na2 O17 2.386446 1_455
Na3 O1 2.354427 1_455
Na3 O10 2.386358 1_555
Na3 O15 2.386365 1_455
Na3 O16 2.386446 1_455
Na4 O14 2.354280 1_455
Na4 O3 2.383382 1_555
Na4 O4 2.418184 1_455
Na4 O0 2.449087 1_464
Na5 O15 2.354280 1_455
Na5 O2 2.383382 1_555
Na5 O5 2.418184 1_455
Na5 O1 2.449087 1_455
Na6 O10 2.354360 1_555
Na6 O3 2.383500 1_555
Na6 O4 2.418121 1_555
Na6 O1 2.449125 1_455
Na7 O11 2.354360 1_545
Na7 O2 2.383500 1_555
Na7 O5 2.418121 1_555
Na7 O0 2.449125 1_455
Na8 O17 2.354212 1_555
Na8 O3 2.383502 1_556
Na8 O5 2.418148 1_565
Na8 O0 2.449116 1_565
Na9 O16 2.354212 1_555
Na9 O2 2.383502 1_555
Na9 O4 2.418148 1_555
Na9 O1 2.449116 1_555
Na10 O7 2.353942 1_555
Na10 O5 2.383638 1_554
Na10 O3 2.417835 1_545
Na10 O0 2.449269 1_454
Na11 O6 2.353942 1_555
Na11 O4 2.383638 1_555
Na11 O2 2.417835 1_555
Na11 O1 2.449269 1_455
Na12 O12 2.354012 1_555
Na12 O5 2.383694 1_555
Na12 O2 2.417821 1_555
Na12 O1 2.449343 1_555
Na13 O13 2.354012 1_565
Na13 O4 2.383694 1_555
Na13 O3 2.417821 1_555
Na13 O0 2.449343 1_564
Na14 O8 2.354042 1_655
Na14 O5 2.383642 1_555
Na14 O2 2.417912 1_655
Na14 O0 2.449258 1_555
Na15 O9 2.354042 1_655
Na15 O4 2.383642 1_555
Na15 O3 2.417912 1_655
Na15 O1 2.449258 1_555
Na16 O17 2.351194 1_555
Na16 O14 2.361460 1_456
Na16 O11 2.403992 1_555
Na16 O6 2.412101 1_555
Na17 O16 2.351194 1_555
Na17 O15 2.361460 1_455
Na17 O10 2.403992 1_555
Na17 O7 2.412101 1_555
Na18 O14 2.351070 1_455
Na18 O10 2.361413 1_555
Na18 O16 2.404032 1_455
Na18 O8 2.412200 1_554
Na19 O15 2.351070 1_465
Na19 O11 2.361413 1_555
Na19 O17 2.404032 1_455
Na19 O9 2.412200 1_555
Na20 O12 2.350817 1_554
Na20 O7 2.361703 1_555
Na20 O8 2.403552 1_554
Na20 O10 2.412426 1_555
Na21 O13 2.350817 1_565
Na21 O6 2.361703 1_555
Na21 O9 2.403552 1_555
Na21 O11 2.412426 1_555
Na22 O10 2.351082 1_556
Na22 O17 2.361505 1_555
Na22 O14 2.403832 1_556
Na22 O12 2.412178 1_555
Na23 O11 2.351082 1_545
Na23 O16 2.361505 1_555
Na23 O15 2.403832 1_555
Na23 O13 2.412178 1_555
Na24 O8 2.350881 1_655
Na24 O12 2.361658 1_555
Na24 O6 2.403704 1_655
Na24 O14 2.412518 1_556
Na25 O9 2.350881 1_645
Na25 O13 2.361658 1_555
Na25 O7 2.403704 1_655
Na25 O15 2.412518 1_555
Na26 O7 2.350987 1_555
Na26 O8 2.361687 1_654
Na26 O13 2.403691 1_555
Na26 O16 2.412401 1_555
Na27 O6 2.350987 1_555
Na27 O9 2.361687 1_655
Na27 O12 2.403691 1_555
Na27 O17 2.412401 1_555
Co0 O3 2.038339 1_555
Co0 O9 2.054967 1_555
Co0 O7 2.054980 1_565
Co0 O13 2.054984 1_565
Co1 O5 2.038461 1_555
Co1 O11 2.055034 1_545
Co1 O17 2.055055 1_545
Co1 O15 2.055090 1_555
Co2 O2 2.038339 1_555
Co2 O8 2.054967 1_555
Co2 O6 2.054980 1_555
Co2 O12 2.054984 1_555
Co3 O4 2.038461 1_555
Co3 O10 2.055034 1_555
Co3 O16 2.055055 1_555
Co3 O14 2.055090 1_555
