# generated using pymatgen
data_Li2MnV(P2O7)2
_symmetry_space_group_name_H-M   'P 1'
_cell_length_a   7.15811400
_cell_length_b   9.61145194
_cell_length_c   9.61491806
_cell_angle_alpha   119.31362704
_cell_angle_beta   100.48998425
_cell_angle_gamma   100.45772757
_symmetry_Int_Tables_number   1
_chemical_formula_structural   Li2MnV(P2O7)2
_chemical_formula_sum   'Li4 Mn2 V2 P8 O28'
_cell_volume   538.16209636
_cell_formula_units_Z   2
loop_
 _symmetry_equiv_pos_site_id
 _symmetry_equiv_pos_as_xyz
  1  'x, y, z'
loop_
 _atom_site_type_symbol
 _atom_site_label
 _atom_site_symmetry_multiplicity
 _atom_site_fract_x
 _atom_site_fract_y
 _atom_site_fract_z
 _atom_site_occupancy
  Li  Li0  1  0.32504100  0.79311600  0.56818000  1
  Li  Li1  1  0.67427000  0.04210900  0.81931000  1
  Li  Li2  1  0.32572800  0.28975000  0.07156000  1
  Li  Li3  1  0.67592400  0.54153700  0.31914400  1
  Mn  Mn0  1  0.26994500  0.25671500  0.74278400  1
  Mn  Mn1  1  0.73071200  0.98821800  0.50993500  1
  V  V0  1  0.27178600  0.75624400  0.24304200  1
  V  V1  1  0.72752000  0.49451500  0.00575300  1
  P  P0  1  0.51845100  0.70874600  0.47033500  1
  P  P1  1  0.52176000  0.20938700  0.96982100  1
  P  P2  1  0.08709700  0.24288600  0.54507100  1
  P  P3  1  0.08844700  0.73843700  0.04456900  1
  P  P4  1  0.91092000  0.86646700  0.41974900  1
  P  P5  1  0.91365000  0.36373200  0.92049600  1
  P  P6  1  0.48336700  0.57625900  0.10231800  1
  P  P7  1  0.47699100  0.08145700  0.59850000  1
  O  O0  1  0.08462800  0.05827100  0.87532700  1
  O  O1  1  0.39185900  0.37011600  0.80639100  1
  O  O2  1  0.50521400  0.88473100  0.95667900  1
  O  O3  1  0.11237900  0.68421100  0.51843100  1
  O  O4  1  0.15013100  0.13707800  0.69008600  1
  O  O5  1  0.48091600  0.40525500  0.62889700  1
  O  O6  1  0.49491900  0.88610800  0.45438400  1
  O  O7  1  0.50667200  0.38626300  0.95678200  1
  O  O8  1  0.60443200  0.91198000  0.76526800  1
  O  O9  1  0.60929700  0.40172000  0.27137100  1
  O  O10  1  0.91612000  0.49303500  0.93972600  1
  O  O11  1  0.91123200  0.99821800  0.43829100  1
  O  O12  1  0.75092100  0.65418400  0.50076800  1
  O  O13  1  0.24623100  0.05936100  0.59526000  1
  O  O14  1  0.25056600  0.55828000  0.09561000  1
  O  O15  1  0.08757100  0.56065600  0.37643000  1
  O  O16  1  0.39571000  0.86758300  0.30627700  1
  O  O17  1  0.49229900  0.39412000  0.44868600  1
  O  O18  1  0.51797600  0.95290500  0.58416400  1
  O  O19  1  0.51782900  0.45196900  0.08452400  1
  O  O20  1  0.85570000  0.58761600  0.73674700  1
  O  O21  1  0.84625700  0.09124300  0.23538800  1
  O  O22  1  0.88825200  0.66460200  0.02930000  1
  O  O23  1  0.88581700  0.17593500  0.52883500  1
  O  O24  1  0.11353100  0.17040600  0.02541700  1
  O  O25  1  0.14705400  0.64006400  0.18541700  1
  O  O26  1  0.48254200  0.90953200  0.12853600  1
  O  O27  1  0.75233300  0.15172600  0.00085900  1
loop_
_geom_bond_atom_site_label_1
_geom_bond_atom_site_label_2
_geom_bond_distance
_geom_bond_site_symmetry_2
Li0 O3 1.519174 1_555
Li0 O18 1.791993 1_555
Li0 P0 1.895825 1_555
Li0 O6 2.126535 1_555
Li0 O8 2.136951 1_555
Li0 O15 2.174208 1_555
Li1 O8 1.061274 1_545
Li1 O27 1.449003 1_556
Li2 O24 1.563189 1_555
Li2 O19 1.818337 1_555
Li2 P1 1.917281 1_554
Li2 O9 2.175263 1_555
Li2 O0 2.190516 1_554
Li3 O9 1.152175 1_555
Li3 O12 1.451304 1_555
Mn0 O1 1.063595 1_555
Mn0 O4 1.108051 1_555
Mn1 O11 1.580301 1_555
Mn1 O6 1.629226 1_555
Mn1 O18 1.840861 1_555
Mn1 O23 1.843707 1_565
O0 O24 1.254724 1_556
O2 O26 1.593600 1_556
O6 P7 1.751157 1_565
O6 P0 1.818999 1_555
O6 V0 1.961923 1_555
O7 V1 1.567009 1_556
O7 P1 1.785474 1_555
O10 P5 1.159679 1_555
O10 O22 1.513970 1_556
O10 V1 1.592479 1_556
O11 P4 1.188748 1_555
O11 O23 1.556617 1_565
O12 P0 1.849172 1_555
O13 P7 1.619251 1_555
O14 P6 1.629840 1_555
O15 O3 1.246373 1_555
O16 V0 1.060018 1_555
O16 O6 1.378944 1_555
O17 O5 1.700995 1_555
O18 O6 1.048136 1_555
O18 P7 1.269352 1_565
O19 O7 1.048911 1_554
O19 P6 1.199762 1_555
O22 P3 1.425102 1_655
O22 V1 1.705125 1_555
O23 P2 1.413325 1_655
O25 V0 1.096907 1_555
O27 P1 1.853348 1_554
