# generated using pymatgen
data_Tl
_symmetry_space_group_name_H-M   'P 1'
_cell_length_a   6.99468136
_cell_length_b   6.99467672
_cell_length_c   11.29312336
_cell_angle_alpha   90.00000000
_cell_angle_beta   90.00000000
_cell_angle_gamma   119.99999214
_symmetry_Int_Tables_number   1
_chemical_formula_structural   Tl
_chemical_formula_sum   Tl16
_cell_volume   478.49821327
_cell_formula_units_Z   16
loop_
 _symmetry_equiv_pos_site_id
 _symmetry_equiv_pos_as_xyz
  1  'x, y, z'
loop_
 _atom_site_type_symbol
 _atom_site_label
 _atom_site_symmetry_multiplicity
 _atom_site_fract_x
 _atom_site_fract_y
 _atom_site_fract_z
 _atom_site_occupancy
  Tl  Tl0_0  1  0.16666650  0.33333350  0.12500000  1
  Tl  Tl0_1  1  0.16666650  0.33333350  0.62500000  1
  Tl  Tl0_2  1  0.16666650  0.83333350  0.12500000  1
  Tl  Tl0_3  1  0.16666650  0.83333350  0.62500000  1
  Tl  Tl0_4  1  0.66666650  0.33333350  0.12500000  1
  Tl  Tl0_5  1  0.66666650  0.33333350  0.62500000  1
  Tl  Tl0_6  1  0.66666650  0.83333350  0.12500000  1
  Tl  Tl0_7  1  0.66666650  0.83333350  0.62500000  1
  Tl  Tl1_0  1  0.33333350  0.16666650  0.37500000  1
  Tl  Tl1_1  1  0.33333350  0.16666650  0.87500000  1
  Tl  Tl1_2  1  0.33333350  0.66666650  0.37500000  1
  Tl  Tl1_3  1  0.33333350  0.66666650  0.87500000  1
  Tl  Tl1_4  1  0.83333350  0.16666650  0.37500000  1
  Tl  Tl1_5  1  0.83333350  0.16666650  0.87500000  1
  Tl  Tl1_6  1  0.83333350  0.66666650  0.37500000  1
  Tl  Tl1_7  1  0.83333350  0.66666650  0.87500000  1
loop_
_geom_bond_atom_site_label_1
_geom_bond_atom_site_label_2
_geom_bond_distance
_geom_bond_site_symmetry_2
Tl0_0 Tl1_3 3.471028 1_554
Tl0_0 Tl1_2 3.471028 1_555
Tl0_0 Tl1_4 3.471028 1_455
Tl0_0 Tl1_5 3.471028 1_454
Tl0_0 Tl1_1 3.471031 1_554
Tl0_0 Tl1_0 3.471031 1_555
Tl0_0 Tl0_2 3.497338 1_545
Tl0_0 Tl0_2 3.497338 1_555
Tl0_0 Tl0_6 3.497340 1_445
Tl0_0 Tl0_6 3.497340 1_555
Tl0_0 Tl0_4 3.497341 1_455
Tl0_0 Tl0_4 3.497341 1_555
Tl0_1 Tl1_2 3.471028 1_555
Tl0_1 Tl1_3 3.471028 1_555
Tl0_1 Tl1_4 3.471028 1_455
Tl0_1 Tl1_5 3.471028 1_455
Tl0_1 Tl1_0 3.471031 1_555
Tl0_1 Tl1_1 3.471031 1_555
Tl0_1 Tl0_3 3.497338 1_555
Tl0_1 Tl0_3 3.497338 1_545
Tl0_1 Tl0_7 3.497340 1_555
Tl0_1 Tl0_7 3.497340 1_445
Tl0_1 Tl0_5 3.497341 1_455
Tl0_1 Tl0_5 3.497341 1_555
Tl0_2 Tl1_1 3.471028 1_564
Tl0_2 Tl1_0 3.471028 1_565
Tl0_2 Tl1_7 3.471028 1_454
Tl0_2 Tl1_6 3.471028 1_455
Tl0_2 Tl1_3 3.471031 1_554
Tl0_2 Tl1_2 3.471031 1_555
Tl0_2 Tl0_4 3.497340 1_455
Tl0_2 Tl0_4 3.497340 1_565
Tl0_2 Tl0_6 3.497341 1_455
Tl0_2 Tl0_6 3.497341 1_555
Tl0_3 Tl1_0 3.471028 1_565
Tl0_3 Tl1_1 3.471028 1_565
Tl0_3 Tl1_7 3.471028 1_455
Tl0_3 Tl1_6 3.471028 1_455
Tl0_3 Tl1_2 3.471031 1_555
Tl0_3 Tl1_3 3.471031 1_555
Tl0_3 Tl0_5 3.497340 1_455
Tl0_3 Tl0_5 3.497340 1_565
Tl0_3 Tl0_7 3.497341 1_455
Tl0_3 Tl0_7 3.497341 1_555
Tl0_4 Tl1_7 3.471028 1_554
Tl0_4 Tl1_6 3.471028 1_555
Tl0_4 Tl1_1 3.471028 1_554
Tl0_4 Tl1_0 3.471028 1_555
Tl0_4 Tl1_5 3.471031 1_554
Tl0_4 Tl1_4 3.471031 1_555
Tl0_4 Tl0_6 3.497338 1_545
Tl0_4 Tl0_6 3.497338 1_555
Tl0_5 Tl1_6 3.471028 1_555
Tl0_5 Tl1_7 3.471028 1_555
Tl0_5 Tl1_0 3.471028 1_555
Tl0_5 Tl1_1 3.471028 1_555
Tl0_5 Tl1_4 3.471031 1_555
Tl0_5 Tl1_5 3.471031 1_555
Tl0_5 Tl0_7 3.497338 1_545
Tl0_5 Tl0_7 3.497338 1_555
Tl0_6 Tl1_5 3.471028 1_564
Tl0_6 Tl1_4 3.471028 1_565
Tl0_6 Tl1_3 3.471028 1_554
Tl0_6 Tl1_2 3.471028 1_555
Tl0_6 Tl1_7 3.471031 1_554
Tl0_6 Tl1_6 3.471031 1_555
Tl0_7 Tl1_4 3.471028 1_565
Tl0_7 Tl1_5 3.471028 1_565
Tl0_7 Tl1_2 3.471028 1_555
Tl0_7 Tl1_3 3.471028 1_555
Tl0_7 Tl1_6 3.471031 1_555
Tl0_7 Tl1_7 3.471031 1_555
Tl1_0 Tl1_2 3.497338 1_545
Tl1_0 Tl1_2 3.497338 1_555
Tl1_0 Tl1_6 3.497340 1_555
Tl1_0 Tl1_6 3.497340 1_445
Tl1_0 Tl1_4 3.497341 1_455
Tl1_0 Tl1_4 3.497341 1_555
Tl1_1 Tl1_3 3.497338 1_555
Tl1_1 Tl1_3 3.497338 1_545
Tl1_1 Tl1_7 3.497340 1_445
Tl1_1 Tl1_7 3.497340 1_555
Tl1_1 Tl1_5 3.497341 1_455
Tl1_1 Tl1_5 3.497341 1_555
Tl1_2 Tl1_4 3.497340 1_455
Tl1_2 Tl1_4 3.497340 1_565
Tl1_2 Tl1_6 3.497341 1_555
Tl1_2 Tl1_6 3.497341 1_455
Tl1_3 Tl1_5 3.497340 1_455
Tl1_3 Tl1_5 3.497340 1_565
Tl1_3 Tl1_7 3.497341 1_555
Tl1_3 Tl1_7 3.497341 1_455
Tl1_4 Tl1_6 3.497338 1_555
Tl1_4 Tl1_6 3.497338 1_545
Tl1_5 Tl1_7 3.497338 1_555
Tl1_5 Tl1_7 3.497338 1_545
