# generated using pymatgen
data_LiGaGeO4
_symmetry_space_group_name_H-M   'P 1'
_cell_length_a   8.76076146
_cell_length_b   8.76076146
_cell_length_c   8.76076192
_cell_angle_alpha   107.84939263
_cell_angle_beta   107.84939263
_cell_angle_gamma   107.84939517
_symmetry_Int_Tables_number   1
_chemical_formula_structural   LiGaGeO4
_chemical_formula_sum   'Li6 Ga6 Ge6 O24'
_cell_volume   546.48449837
_cell_formula_units_Z   6
loop_
 _symmetry_equiv_pos_site_id
 _symmetry_equiv_pos_as_xyz
  1  'x, y, z'
loop_
 _atom_site_type_symbol
 _atom_site_label
 _atom_site_symmetry_multiplicity
 _atom_site_fract_x
 _atom_site_fract_y
 _atom_site_fract_z
 _atom_site_occupancy
  Li  Li0  1  0.93623500  0.53535100  0.76675300  1
  Li  Li1  1  0.76675300  0.93623500  0.53535100  1
  Li  Li2  1  0.53535100  0.76675300  0.93623500  1
  Li  Li3  1  0.06376500  0.46464900  0.23324700  1
  Li  Li4  1  0.23324700  0.06376500  0.46464900  1
  Li  Li5  1  0.46464900  0.23324700  0.06376500  1
  Ga  Ga0  1  0.61460900  0.20839500  0.43216300  1
  Ga  Ga1  1  0.20839500  0.43216300  0.61460900  1
  Ga  Ga2  1  0.38539100  0.79160500  0.56783700  1
  Ga  Ga3  1  0.56783700  0.38539100  0.79160500  1
  Ga  Ga4  1  0.79160500  0.56783700  0.38539100  1
  Ga  Ga5  1  0.43216300  0.61460900  0.20839500  1
  Ge  Ge0  1  0.10438900  0.27509800  0.86662700  1
  Ge  Ge1  1  0.86662700  0.10438900  0.27509800  1
  Ge  Ge2  1  0.72490200  0.13337300  0.89561100  1
  Ge  Ge3  1  0.89561100  0.72490200  0.13337300  1
  Ge  Ge4  1  0.13337300  0.89561100  0.72490200  1
  Ge  Ge5  1  0.27509800  0.86662700  0.10438900  1
  O  O0  1  0.33239900  0.30105500  0.64673500  1
  O  O1  1  0.96074200  0.67812500  0.62951600  1
  O  O2  1  0.67812500  0.62951600  0.96074200  1
  O  O3  1  0.62951600  0.96074200  0.67812500  1
  O  O4  1  0.03925800  0.32187500  0.37048400  1
  O  O5  1  0.32187500  0.37048400  0.03925800  1
  O  O6  1  0.37048400  0.03925800  0.32187500  1
  O  O7  1  0.64673500  0.33239900  0.30105500  1
  O  O8  1  0.92745100  0.60432800  0.25724600  1
  O  O9  1  0.30105500  0.64673500  0.33239900  1
  O  O10  1  0.35326500  0.66760100  0.69894500  1
  O  O11  1  0.66760100  0.69894500  0.35326500  1
  O  O12  1  0.07254900  0.39567200  0.74275400  1
  O  O13  1  0.74275400  0.07254900  0.39567200  1
  O  O14  1  0.39567200  0.74275400  0.07254900  1
  O  O15  1  0.04275100  0.72323800  0.02560200  1
  O  O16  1  0.25724600  0.92745100  0.60432800  1
  O  O17  1  0.60432800  0.25724600  0.92745100  1
  O  O18  1  0.27676200  0.97439800  0.95724900  1
  O  O19  1  0.02560200  0.04275100  0.72323800  1
  O  O20  1  0.72323800  0.02560200  0.04275100  1
  O  O21  1  0.95724900  0.27676200  0.97439800  1
  O  O22  1  0.97439800  0.95724900  0.27676200  1
  O  O23  1  0.69894500  0.35326500  0.66760100  1
loop_
_geom_bond_atom_site_label_1
_geom_bond_atom_site_label_2
_geom_bond_distance
_geom_bond_site_symmetry_2
Li0 O23 1.905632 1_555
Li0 O12 1.964647 1_655
Li0 O1 1.992905 1_555
Li0 O15 2.048309 1_656
Li1 O11 1.905632 1_555
Li1 O13 1.964647 1_565
Li1 O3 1.992905 1_555
Li1 O19 2.048309 1_665
Li2 O10 1.905632 1_555
Li2 O14 1.964647 1_556
Li2 O2 1.992905 1_555
Li2 O20 2.048309 1_566
Li3 O9 1.905632 1_555
Li3 O8 1.964647 1_455
Li3 O4 1.992905 1_555
Li3 O21 2.048309 1_454
Li4 O0 1.905632 1_555
Li4 O16 1.964647 1_545
Li4 O6 1.992905 1_555
Li4 O22 2.048309 1_445
Li5 O7 1.905632 1_555
Li5 O17 1.964647 1_554
Li5 O5 1.992905 1_555
Li5 O18 2.048309 1_544
Ga0 O23 1.815815 1_555
Ga0 O7 1.831500 1_555
Ga0 O13 1.893343 1_555
Ga0 O6 1.901603 1_555
Ga1 O10 1.815815 1_555
Ga1 O0 1.831500 1_555
Ga1 O12 1.893343 1_555
Ga1 O4 1.901603 1_555
Ga2 O9 1.815815 1_555
Ga2 O10 1.831500 1_555
Ga2 O16 1.893343 1_555
Ga2 O3 1.901603 1_555
Ga3 O0 1.815815 1_555
Ga3 O23 1.831500 1_555
Ga3 O17 1.893343 1_555
Ga3 O2 1.901603 1_555
Ga4 O7 1.815815 1_555
Ga4 O11 1.831500 1_555
Ga4 O8 1.893343 1_555
Ga4 O1 1.901603 1_555
Ga5 O11 1.815815 1_555
Ga5 O9 1.831500 1_555
Ga5 O14 1.893343 1_555
Ga5 O5 1.901603 1_555
Ge0 O12 1.751893 1_555
Ge0 O5 1.760280 1_556
Ge0 O19 1.799297 1_555
Ge0 O21 1.817279 1_455
Ge1 O13 1.751893 1_555
Ge1 O4 1.760280 1_655
Ge1 O20 1.799297 1_555
Ge1 O22 1.817279 1_545
Ge2 O17 1.751893 1_555
Ge2 O3 1.760280 1_545
Ge2 O21 1.799297 1_555
Ge2 O20 1.817279 1_556
Ge3 O8 1.751893 1_555
Ge3 O2 1.760280 1_554
Ge3 O22 1.799297 1_555
Ge3 O15 1.817279 1_655
Ge4 O16 1.751893 1_555
Ge4 O1 1.760280 1_455
Ge4 O18 1.799297 1_555
Ge4 O19 1.817279 1_565
Ge5 O14 1.751893 1_555
Ge5 O6 1.760280 1_565
Ge5 O15 1.799297 1_555
Ge5 O18 1.817279 1_554
