# generated using pymatgen
data_Mn12O7F17
_symmetry_space_group_name_H-M   'P 1'
_cell_length_a   4.80947600
_cell_length_b   5.77529617
_cell_length_c   15.96347639
_cell_angle_alpha   89.46061006
_cell_angle_beta   89.41575762
_cell_angle_gamma   84.77168775
_symmetry_Int_Tables_number   1
_chemical_formula_structural   Mn12O7F17
_chemical_formula_sum   'Mn12 O7 F17'
_cell_volume   441.52011766
_cell_formula_units_Z   1
loop_
 _symmetry_equiv_pos_site_id
 _symmetry_equiv_pos_as_xyz
  1  'x, y, z'
loop_
 _atom_site_type_symbol
 _atom_site_label
 _atom_site_symmetry_multiplicity
 _atom_site_fract_x
 _atom_site_fract_y
 _atom_site_fract_z
 _atom_site_occupancy
  Mn  Mn0  1  0.99606000  0.84998800  0.41264000  1
  Mn  Mn1  1  0.96616600  0.17075200  0.24484800  1
  Mn  Mn2  1  0.99972100  0.84601200  0.08579400  1
  Mn  Mn3  1  0.99331400  0.84365900  0.74818000  1
  Mn  Mn4  1  0.99030700  0.17377400  0.57101500  1
  Mn  Mn5  1  0.98154700  0.16800100  0.90669800  1
  Mn  Mn6  1  0.48800200  0.67058900  0.59170300  1
  Mn  Mn7  1  0.48639800  0.67223000  0.92752200  1
  Mn  Mn8  1  0.48749300  0.64602600  0.26114700  1
  Mn  Mn9  1  0.49141100  0.34132300  0.08573000  1
  Mn  Mn10  1  0.51221500  0.34845600  0.41227600  1
  Mn  Mn11  1  0.49221000  0.34235200  0.75098100  1
  O  O0  1  0.77398300  0.11586300  0.13457300  1
  O  O1  1  0.77287700  0.11039600  0.46161100  1
  O  O2  1  0.76610300  0.10869500  0.79697400  1
  O  O3  1  0.70856000  0.39085300  0.30835000  1
  O  O4  1  0.27078800  0.60919900  0.03800400  1
  O  O5  1  0.26948500  0.61302700  0.36387500  1
  O  O6  1  0.26844100  0.61017300  0.70211300  1
  F  F0  1  0.77049200  0.88248000  0.30608500  1
  F  F1  1  0.78899800  0.88485600  0.63850900  1
  F  F2  1  0.78723500  0.88411000  0.97492500  1
  F  F3  1  0.72653400  0.61898600  0.15296700  1
  F  F4  1  0.75408400  0.61547800  0.48178800  1
  F  F5  1  0.73020900  0.38474600  0.64690800  1
  F  F6  1  0.74251400  0.60734300  0.81485000  1
  F  F7  1  0.73064100  0.38420800  0.98316300  1
  F  F8  1  0.26865000  0.37811500  0.19106200  1
  F  F9  1  0.30186700  0.38018200  0.52188900  1
  F  F10  1  0.28927400  0.38248000  0.86225900  1
  F  F11  1  0.23121300  0.87646700  0.19695400  1
  F  F12  1  0.23107100  0.88410700  0.51725000  1
  F  F13  1  0.22051800  0.10848800  0.35026100  1
  F  F14  1  0.24165700  0.10241400  0.02072500  1
  F  F15  1  0.22777600  0.88421500  0.85178800  1
  F  F16  1  0.24218300  0.10995700  0.68458400  1
loop_
_geom_bond_atom_site_label_1
_geom_bond_atom_site_label_2
_geom_bond_distance
_geom_bond_site_symmetry_2
Mn0 O1 1.932856 1_565
Mn0 O5 1.969606 1_655
Mn1 O3 1.972322 1_555
Mn1 O0 2.037356 1_555
Mn2 O4 1.956153 1_655
Mn2 O0 1.977655 1_565
Mn3 O6 1.945163 1_655
Mn3 O2 1.960620 1_565
Mn4 O1 2.096832 1_555
Mn5 O2 2.090927 1_555
Mn6 O6 2.088287 1_555
Mn7 O4 2.082736 1_556
Mn8 O3 1.892060 1_555
Mn8 O5 1.954586 1_555
Mn9 O4 1.948042 1_555
Mn9 O0 1.957123 1_555
Mn10 O3 1.925248 1_555
Mn10 O1 1.941073 1_555
Mn10 O5 1.991383 1_555
Mn11 O2 1.942262 1_555
Mn11 O6 1.962203 1_555
F0 Mn0 2.024852 1_555
F0 Mn8 2.146878 1_555
F0 Mn1 2.202079 1_565
F1 Mn3 2.017896 1_555
F1 Mn6 2.133347 1_555
F1 Mn4 2.263129 1_565
F2 Mn2 2.052741 1_556
F2 Mn7 2.127404 1_555
F2 Mn5 2.229932 1_565
F3 Mn8 2.064040 1_555
F3 Mn2 2.203181 1_555
F3 Mn9 2.321623 1_555
F4 Mn0 2.154080 1_555
F4 Mn6 2.169833 1_555
F4 Mn10 2.312609 1_555
F5 Mn11 2.033457 1_555
F5 Mn4 2.058222 1_555
F5 Mn6 2.121768 1_555
F6 Mn3 2.167216 1_555
F6 Mn7 2.185452 1_555
F6 Mn11 2.284959 1_555
F7 Mn9 2.017888 1_556
F7 Mn5 2.056542 1_555
F7 Mn7 2.138482 1_555
F8 Mn9 1.987157 1_555
F8 Mn1 2.135537 1_455
F8 Mn8 2.259856 1_555
F9 Mn10 2.013704 1_555
F9 Mn4 2.136663 1_455
F9 Mn6 2.277188 1_555
F10 Mn11 2.023122 1_555
F10 Mn5 2.127004 1_455
F10 Mn7 2.264192 1_555
F11 Mn8 2.010387 1_555
F11 Mn2 2.121604 1_455
F11 Mn1 2.169752 1_465
F12 Mn6 2.045683 1_555
F12 Mn0 2.047031 1_455
F12 Mn4 2.128343 1_465
F13 Mn1 2.099491 1_455
F13 Mn0 2.151642 1_445
F13 Mn10 2.297256 1_555
F14 Mn9 2.185836 1_555
F14 Mn2 2.210443 1_445
F14 Mn5 2.229110 1_454
F15 Mn3 2.038486 1_455
F15 Mn7 2.057396 1_555
F15 Mn5 2.123454 1_465
F16 Mn11 2.172034 1_555
F16 Mn4 2.200217 1_455
F16 Mn3 2.260508 1_445
