# generated using pymatgen
data_Tm2IrRh
_symmetry_space_group_name_H-M   'P 1'
_cell_length_a   4.74485647
_cell_length_b   4.74485616
_cell_length_c   4.74485650
_cell_angle_alpha   60.00001094
_cell_angle_beta   60.00000818
_cell_angle_gamma   60.00001163
_symmetry_Int_Tables_number   1
_chemical_formula_structural   Tm2IrRh
_chemical_formula_sum   'Tm2 Ir1 Rh1'
_cell_volume   75.53605793
_cell_formula_units_Z   1
loop_
 _symmetry_equiv_pos_site_id
 _symmetry_equiv_pos_as_xyz
  1  'x, y, z'
loop_
 _atom_site_type_symbol
 _atom_site_label
 _atom_site_symmetry_multiplicity
 _atom_site_fract_x
 _atom_site_fract_y
 _atom_site_fract_z
 _atom_site_occupancy
  Tm  Tm0  1  -0.00000000  0.00000003  0.00000002  1
  Tm  Tm1  1  0.50000077  0.50000078  0.50000077  1
  Ir  Ir0  1  0.24999918  0.24999921  0.24999919  1
  Rh  Rh0  1  0.75000005  0.74999998  0.75000002  1
loop_
_geom_bond_atom_site_label_1
_geom_bond_atom_site_label_2
_geom_bond_distance
_geom_bond_site_symmetry_2
Ir0 Tm0 2.905609 1_555
Ir0 Tm1 2.905613 1_545
Ir0 Tm1 2.905614 1_455
Ir0 Tm1 2.905614 1_554
Ir0 Tm0 2.905623 1_565
Ir0 Tm0 2.905623 1_655
Ir0 Tm0 2.905623 1_556
Ir0 Tm1 2.905637 1_555
Rh0 Tm1 2.905610 1_555
Rh0 Tm0 2.905619 1_666
Rh0 Tm0 2.905619 1_656
Rh0 Tm0 2.905620 1_665
Rh0 Tm0 2.905620 1_566
Rh0 Tm1 2.905622 1_655
Rh0 Tm1 2.905623 1_556
Rh0 Tm1 2.905623 1_565
