# generated using pymatgen
data_YCuPbS3
_symmetry_space_group_name_H-M   'P 1'
_cell_length_a   6.81594639
_cell_length_b   6.81594639
_cell_length_c   10.27778900
_cell_angle_alpha   90.00000000
_cell_angle_beta   90.00000000
_cell_angle_gamma   146.49031382
_symmetry_Int_Tables_number   1
_chemical_formula_structural   YCuPbS3
_chemical_formula_sum   'Y2 Cu2 Pb2 S6'
_cell_volume   263.60426458
_cell_formula_units_Z   2
loop_
 _symmetry_equiv_pos_site_id
 _symmetry_equiv_pos_as_xyz
  1  'x, y, z'
loop_
 _atom_site_type_symbol
 _atom_site_label
 _atom_site_symmetry_multiplicity
 _atom_site_fract_x
 _atom_site_fract_y
 _atom_site_fract_z
 _atom_site_occupancy
  Y  Y0  1  0.50000000  0.50000000  0.50000000  1
  Y  Y1  1  0.50000000  0.50000000  0.00000000  1
  Cu  Cu0  1  0.96581200  0.03418800  0.25000000  1
  Cu  Cu1  1  0.03418800  0.96581200  0.75000000  1
  Pb  Pb0  1  0.25149300  0.74850700  0.25000000  1
  Pb  Pb1  1  0.74850700  0.25149300  0.75000000  1
  S  S0  1  0.42604900  0.57395100  0.75000000  1
  S  S1  1  0.57395100  0.42604900  0.25000000  1
  S  S2  1  0.13838200  0.86161800  0.93178500  1
  S  S3  1  0.13838200  0.86161800  0.56821500  1
  S  S4  1  0.86161800  0.13838200  0.06821500  1
  S  S5  1  0.86161800  0.13838200  0.43178500  1
loop_
_geom_bond_atom_site_label_1
_geom_bond_atom_site_label_2
_geom_bond_distance
_geom_bond_site_symmetry_2
Cu0 S5 2.310951 1_555
Cu0 S4 2.310951 1_555
Cu0 S1 2.419350 1_545
Cu0 S1 2.419350 1_655
Cu1 S3 2.310951 1_555
Cu1 S2 2.310951 1_555
Cu1 S0 2.419350 1_455
Cu1 S0 2.419350 1_565
Pb0 S1 3.038340 1_565
Pb0 S1 3.038340 1_455
Pb0 S4 3.068850 1_455
Pb0 S5 3.068850 1_455
Pb0 S5 3.068850 1_565
Pb0 S4 3.068850 1_565
Pb1 S0 3.038340 1_655
Pb1 S0 3.038340 1_545
Pb1 S2 3.068850 1_545
Pb1 S3 3.068850 1_545
Pb1 S3 3.068850 1_655
Pb1 S2 3.068850 1_655
S0 Y0 2.744787 1_555
S0 Y1 2.744787 1_556
S1 Y1 2.744787 1_555
S1 Y0 2.744787 1_555
S2 Y1 2.759549 1_566
S2 Y1 2.759549 1_456
S3 Y0 2.759549 1_455
S3 Y0 2.759549 1_565
S4 Y1 2.759549 1_545
S4 Y1 2.759549 1_655
S5 Y0 2.759549 1_545
S5 Y0 2.759549 1_655
