# generated using pymatgen
data_K5Ti3F14
_symmetry_space_group_name_H-M   'P 1'
_cell_length_a   7.70996034
_cell_length_b   7.70996034
_cell_length_c   11.59634331
_cell_angle_alpha   90.00000000
_cell_angle_beta   90.00000000
_cell_angle_gamma   90.00000000
_symmetry_Int_Tables_number   1
_chemical_formula_structural   K5Ti3F14
_chemical_formula_sum   'K10 Ti6 F28'
_cell_volume   689.32709954
_cell_formula_units_Z   2
loop_
 _symmetry_equiv_pos_site_id
 _symmetry_equiv_pos_as_xyz
  1  'x, y, z'
loop_
 _atom_site_type_symbol
 _atom_site_label
 _atom_site_symmetry_multiplicity
 _atom_site_fract_x
 _atom_site_fract_y
 _atom_site_fract_z
 _atom_site_occupancy
  K  K0  1  0.28718281  0.78718281  0.75000000  1
  K  K1  1  0.21281719  0.28718281  0.75000000  1
  K  K2  1  0.78718281  0.71281719  0.75000000  1
  K  K3  1  0.71281719  0.21281719  0.75000000  1
  K  K4  1  0.71281719  0.21281719  0.25000000  1
  K  K5  1  0.78718281  0.71281719  0.25000000  1
  K  K6  1  0.21281719  0.28718281  0.25000000  1
  K  K7  1  0.28718281  0.78718281  0.25000000  1
  K  K8  1  0.50000000  0.50000000  0.00000000  1
  K  K9  1  -0.00000000  -0.00000000  0.50000000  1
  Ti  Ti0  1  -0.00000000  0.50000000  0.50000000  1
  Ti  Ti1  1  0.50000000  -0.00000000  0.50000000  1
  Ti  Ti2  1  0.50000000  -0.00000000  0.00000000  1
  Ti  Ti3  1  -0.00000000  0.50000000  0.00000000  1
  Ti  Ti4  1  0.50000000  0.50000000  0.50000000  1
  Ti  Ti5  1  -0.00000000  -0.00000000  0.00000000  1
  F  F0  1  0.04799421  0.67933057  0.61457913  1
  F  F1  1  0.95200579  0.32066943  0.61457913  1
  F  F2  1  0.17933057  0.54799421  0.88542087  1
  F  F3  1  0.67933057  0.95200579  0.61457913  1
  F  F4  1  0.32066943  0.04799421  0.61457913  1
  F  F5  1  0.45200579  0.17933057  0.88542087  1
  F  F6  1  0.54799421  0.82066943  0.88542087  1
  F  F7  1  0.82066943  0.45200579  0.88542087  1
  F  F8  1  0.95200579  0.32066943  0.38542087  1
  F  F9  1  0.04799421  0.67933057  0.38542087  1
  F  F10  1  0.82066943  0.45200579  0.11457913  1
  F  F11  1  0.32066943  0.04799421  0.38542087  1
  F  F12  1  0.67933057  0.95200579  0.38542087  1
  F  F13  1  0.54799421  0.82066943  0.11457913  1
  F  F14  1  0.45200579  0.17933057  0.11457913  1
  F  F15  1  0.17933057  0.54799421  0.11457913  1
  F  F16  1  -0.00000000  -0.00000000  0.16744668  1
  F  F17  1  0.50000000  0.50000000  0.33255332  1
  F  F18  1  -0.00000000  -0.00000000  0.83255332  1
  F  F19  1  0.50000000  0.50000000  0.66744668  1
  F  F20  1  0.07716231  0.24936078  0.00000000  1
  F  F21  1  0.75063922  0.07716231  0.00000000  1
  F  F22  1  0.24936078  0.92283769  0.00000000  1
  F  F23  1  0.57716231  0.25063922  0.50000000  1
  F  F24  1  0.42283769  0.74936078  0.50000000  1
  F  F25  1  0.92283769  0.75063922  0.00000000  1
  F  F26  1  0.74936078  0.57716231  0.50000000  1
  F  F27  1  0.25063922  0.42283769  0.50000000  1
loop_
_geom_bond_atom_site_label_1
_geom_bond_atom_site_label_2
_geom_bond_distance
_geom_bond_site_symmetry_2
F0 Ti0 1.952956 1_555
F0 K0 2.560937 1_555
F0 K2 2.564424 1_455
F0 K9 2.831055 1_565
F1 Ti0 1.952956 1_655
F1 K3 2.560937 1_555
F1 K1 2.564424 1_655
F1 K9 2.831055 1_655
F2 Ti3 1.952956 1_556
F2 K0 2.560937 1_555
F2 K1 2.564424 1_555
F2 K8 2.831055 1_556
F3 Ti1 1.952956 1_565
F3 K2 2.560937 1_555
F3 K3 2.564424 1_565
F3 K9 2.831055 1_665
F4 Ti1 1.952956 1_555
F4 K1 2.560937 1_555
F4 K0 2.564424 1_545
F4 K9 2.831055 1_555
F5 Ti2 1.952956 1_556
F5 K1 2.560937 1_555
F5 K3 2.564424 1_555
F5 K8 2.831055 1_556
F6 Ti2 1.952956 1_566
F6 K2 2.560937 1_555
F6 K0 2.564424 1_555
F6 K8 2.831055 1_556
F7 Ti3 1.952956 1_656
F7 K3 2.560937 1_555
F7 K2 2.564424 1_555
F7 K8 2.831055 1_556
F8 Ti0 1.952956 1_655
F8 K4 2.560937 1_555
F8 K6 2.564424 1_655
F8 K9 2.831055 1_655
F9 Ti0 1.952956 1_555
F9 K7 2.560937 1_555
F9 K5 2.564424 1_455
F9 K9 2.831055 1_565
F10 Ti3 1.952956 1_655
F10 K4 2.560937 1_555
F10 K5 2.564424 1_555
F10 K8 2.831055 1_555
F11 Ti1 1.952956 1_555
F11 K6 2.560937 1_555
F11 K7 2.564424 1_545
F11 K9 2.831055 1_555
F12 Ti1 1.952956 1_565
F12 K5 2.560937 1_555
F12 K4 2.564424 1_565
F12 K9 2.831055 1_665
F13 Ti2 1.952956 1_565
F13 K5 2.560937 1_555
F13 K7 2.564424 1_555
F13 K8 2.831055 1_555
F14 Ti2 1.952956 1_555
F14 K6 2.560937 1_555
F14 K4 2.564424 1_555
F14 K8 2.831055 1_555
F15 Ti3 1.952956 1_555
F15 K7 2.560937 1_555
F15 K6 2.564424 1_555
F15 K8 2.831055 1_555
F16 Ti5 1.941769 1_555
F16 K6 2.917406 1_555
F16 K4 2.917406 1_455
F16 K7 2.917406 1_545
F16 K5 2.917406 1_445
F17 Ti4 1.941769 1_555
F17 K7 2.917406 1_555
F17 K4 2.917406 1_555
F17 K6 2.917406 1_555
F17 K5 2.917406 1_555
F18 Ti5 1.941769 1_556
F18 K2 2.917406 1_445
F18 K1 2.917406 1_555
F18 K0 2.917406 1_545
F18 K3 2.917406 1_455
F19 Ti4 1.941769 1_555
F19 K3 2.917406 1_555
F19 K0 2.917406 1_555
F19 K1 2.917406 1_555
F19 K2 2.917406 1_555
F20 Ti5 2.012504 1_555
F20 Ti3 2.021922 1_555
F20 K6 3.095743 1_555
F20 K1 3.095743 1_554
F21 Ti5 2.012504 1_655
F21 Ti2 2.021922 1_555
F21 K4 3.095743 1_555
F21 K3 3.095743 1_554
F22 Ti5 2.012504 1_565
F22 Ti2 2.021922 1_565
F22 K7 3.095743 1_555
F22 K0 3.095743 1_554
F23 Ti4 2.012504 1_555
F23 Ti1 2.021922 1_555
F23 K3 3.095743 1_555
F23 K4 3.095743 1_555
F24 Ti4 2.012504 1_555
F24 Ti1 2.021922 1_565
F24 K0 3.095743 1_555
F24 K7 3.095743 1_555
F25 Ti5 2.012504 1_665
F25 Ti3 2.021922 1_655
F25 K5 3.095743 1_555
F25 K2 3.095743 1_554
F26 Ti4 2.012504 1_555
F26 Ti0 2.021922 1_655
F26 K2 3.095743 1_555
F26 K5 3.095743 1_555
F27 Ti4 2.012504 1_555
F27 Ti0 2.021922 1_555
F27 K6 3.095743 1_555
F27 K1 3.095743 1_555
