# generated using pymatgen
data_Ge7H8N2O15
_symmetry_space_group_name_H-M   'P 1'
_cell_length_a   7.47349182
_cell_length_b   7.47349182
_cell_length_c   15.19116779
_cell_angle_alpha   78.39148509
_cell_angle_beta   78.39148509
_cell_angle_gamma   58.25541537
_symmetry_Int_Tables_number   1
_chemical_formula_structural   Ge7H8N2O15
_chemical_formula_sum   'Ge14 H16 N4 O30'
_cell_volume   702.13883829
_cell_formula_units_Z   2
loop_
 _symmetry_equiv_pos_site_id
 _symmetry_equiv_pos_as_xyz
  1  'x, y, z'
loop_
 _atom_site_type_symbol
 _atom_site_label
 _atom_site_symmetry_multiplicity
 _atom_site_fract_x
 _atom_site_fract_y
 _atom_site_fract_z
 _atom_site_occupancy
  Ge  Ge0  1  0.55974826  0.35030805  0.35301584  1
  Ge  Ge1  1  0.35030805  0.55974826  0.85301584  1
  Ge  Ge2  1  0.36651563  0.26642990  0.12316185  1
  Ge  Ge3  1  0.21598409  0.26259331  0.33616946  1
  Ge  Ge4  1  0.73740669  0.78401591  0.16383054  1
  Ge  Ge5  1  0.73357010  0.63348437  0.37683815  1
  Ge  Ge6  1  0.00000000  0.50000000  -0.00000000  1
  Ge  Ge7  1  0.26642990  0.36651563  0.62316185  1
  Ge  Ge8  1  0.26259331  0.21598409  0.83616946  1
  Ge  Ge9  1  0.78401591  0.73740669  0.66383054  1
  Ge  Ge10  1  0.63348437  0.73357010  0.87683815  1
  Ge  Ge11  1  0.50000000  0.00000000  0.50000000  1
  Ge  Ge12  1  0.64969195  0.44025174  0.14698416  1
  Ge  Ge13  1  0.44025174  0.64969195  0.64698416  1
  H  H0  1  0.92653353  0.94865570  0.41941271  1
  H  H1  1  0.13351759  0.71661444  0.38385130  1
  H  H2  1  0.07614293  0.75032216  0.49275975  1
  H  H3  1  0.12422254  0.81133940  0.07889932  1
  H  H4  1  0.94865570  0.92653353  0.91941271  1
  H  H5  1  0.71661444  0.13351759  0.88385130  1
  H  H6  1  0.75032216  0.07614293  0.99275975  1
  H  H7  1  0.81133940  0.12422254  0.57889932  1
  H  H8  1  0.18866060  0.87577746  0.42110068  1
  H  H9  1  0.24967784  0.92385707  0.00724025  1
  H  H10  1  0.28338556  0.86648241  0.11614870  1
  H  H11  1  0.05134430  0.07346647  0.08058729  1
  H  H12  1  0.87577746  0.18866060  0.92110068  1
  H  H13  1  0.92385707  0.24967784  0.50724025  1
  H  H14  1  0.86648241  0.28338556  0.61614870  1
  H  H15  1  0.07346647  0.05134430  0.58058729  1
  N  N0  1  0.08120062  0.82586122  0.42834297  1
  N  N1  1  0.82586122  0.08120062  0.92834297  1
  N  N2  1  0.17413878  0.91879938  0.07165703  1
  N  N3  1  0.91879938  0.17413878  0.57165703  1
  O  O0  1  0.65714261  0.12930686  0.43143752  1
  O  O1  1  0.41796777  0.47284242  0.11714662  1
  O  O2  1  0.29520126  0.44928116  0.33238404  1
  O  O3  1  0.12930686  0.65714261  0.93143752  1
  O  O4  1  0.63404941  0.04880949  0.11548248  1
  O  O5  1  0.72668834  0.73654571  0.47011826  1
  O  O6  1  0.78627482  0.76582744  0.27473356  1
  O  O7  1  0.47284242  0.41796777  0.61714662  1
  O  O8  1  0.97544059  0.62999673  0.10081830  1
  O  O9  1  0.44928116  0.29520126  0.83238404  1
  O  O10  1  0.37000327  0.02455941  0.39918170  1
  O  O11  1  0.23417256  0.21372518  0.22526644  1
  O  O12  1  0.26345429  0.27331166  0.02988174  1
  O  O13  1  0.95119051  0.36595059  0.38451752  1
  O  O14  1  0.04880949  0.63404941  0.61548248  1
  O  O15  1  0.73654571  0.72668834  0.97011826  1
  O  O16  1  0.76582744  0.78627482  0.77473356  1
  O  O17  1  0.62999673  0.97544059  0.60081830  1
  O  O18  1  0.55071884  0.70479874  0.16761596  1
  O  O19  1  0.02455941  0.37000327  0.89918170  1
  O  O20  1  0.52715758  0.58203223  0.38285338  1
  O  O21  1  0.21372518  0.23417256  0.72526644  1
  O  O22  1  0.27331166  0.26345429  0.52988174  1
  O  O23  1  0.36595059  0.95119051  0.88451752  1
  O  O24  1  0.87069314  0.34285739  0.06856248  1
  O  O25  1  0.72212684  0.27787316  0.25000000  1
  O  O26  1  0.70479874  0.55071884  0.66761596  1
  O  O27  1  0.58203223  0.52715758  0.88285338  1
  O  O28  1  0.34285739  0.87069314  0.56856248  1
  O  O29  1  0.27787316  0.72212684  0.75000000  1
loop_
_geom_bond_atom_site_label_1
_geom_bond_atom_site_label_2
_geom_bond_distance
_geom_bond_site_symmetry_2
Ge0 O0 1.723096 1_555
Ge0 O20 1.758264 1_555
Ge0 O25 1.760711 1_555
Ge0 O2 1.780865 1_555
Ge1 O3 1.723096 1_555
Ge1 O27 1.758264 1_555
Ge1 O29 1.760711 1_555
Ge1 O9 1.780865 1_555
Ge2 O12 1.723982 1_555
Ge2 O11 1.756682 1_555
Ge2 O1 1.757614 1_555
Ge2 O4 1.793626 1_555
Ge3 O10 1.734731 1_555
Ge3 O13 1.757030 1_455
Ge3 O11 1.758821 1_555
Ge3 O2 1.767372 1_555
Ge4 O8 1.734731 1_555
Ge4 O4 1.757030 1_565
Ge4 O6 1.758821 1_555
Ge4 O18 1.767372 1_555
Ge5 O5 1.723982 1_555
Ge5 O6 1.756682 1_555
Ge5 O20 1.757614 1_555
Ge5 O13 1.793626 1_555
Ge6 O15 1.868975 1_454
Ge6 O12 1.868975 1_555
Ge6 O8 1.902957 1_455
Ge6 O19 1.902957 1_554
Ge6 O3 1.922188 1_554
Ge6 O24 1.922188 1_455
Ge7 O22 1.723982 1_555
Ge7 O21 1.756682 1_555
Ge7 O7 1.757614 1_555
Ge7 O14 1.793626 1_555
Ge8 O19 1.734731 1_555
Ge8 O23 1.757030 1_545
Ge8 O21 1.758821 1_555
Ge8 O9 1.767372 1_555
Ge9 O17 1.734731 1_555
Ge9 O14 1.757030 1_655
Ge9 O16 1.758821 1_555
Ge9 O26 1.767372 1_555
Ge10 O15 1.723982 1_555
Ge10 O16 1.756682 1_555
Ge10 O27 1.757614 1_555
Ge10 O23 1.793626 1_555
Ge11 O5 1.868975 1_545
Ge11 O22 1.868975 1_555
Ge11 O10 1.902957 1_555
Ge11 O17 1.902957 1_545
Ge11 O0 1.922188 1_555
Ge11 O28 1.922188 1_545
Ge12 O24 1.723096 1_555
Ge12 O1 1.758264 1_555
Ge12 O25 1.760711 1_555
Ge12 O18 1.780865 1_555
Ge13 O28 1.723096 1_555
Ge13 O7 1.758264 1_555
Ge13 O29 1.760711 1_555
Ge13 O26 1.780865 1_555
H0 N0 1.045696 1_655
H0 O0 1.732197 1_565
H1 N0 1.027669 1_555
H2 N0 1.031003 1_555
H3 N2 1.029281 1_555
H4 N1 1.045696 1_565
H4 O3 1.732197 1_655
H5 N1 1.027669 1_555
H6 N1 1.031003 1_555
H7 N3 1.029281 1_555
H8 N0 1.029281 1_555
H9 N2 1.031003 1_555
H10 N2 1.027669 1_555
H11 N2 1.045696 1_545
H11 O24 1.732197 1_455
H12 N1 1.029281 1_555
H13 N3 1.031003 1_555
H14 N3 1.027669 1_555
H15 N3 1.045696 1_455
H15 O28 1.732197 1_545
