# generated using pymatgen
data_Ba5Ru2O11
_symmetry_space_group_name_H-M   'P 1'
_cell_length_a   6.05832181
_cell_length_b   6.05832181
_cell_length_c   18.27009757
_cell_angle_alpha   89.76551574
_cell_angle_beta   89.76551574
_cell_angle_gamma   119.81306131
_symmetry_Int_Tables_number   1
_chemical_formula_structural   Ba5Ru2O11
_chemical_formula_sum   'Ba10 Ru4 O22'
_cell_volume   581.80402312
_cell_formula_units_Z   2
loop_
 _symmetry_equiv_pos_site_id
 _symmetry_equiv_pos_as_xyz
  1  'x, y, z'
loop_
 _atom_site_type_symbol
 _atom_site_label
 _atom_site_symmetry_multiplicity
 _atom_site_fract_x
 _atom_site_fract_y
 _atom_site_fract_z
 _atom_site_occupancy
  Ba  Ba0  1  0.67090800  0.34031400  0.01663300  1
  Ba  Ba1  1  0.66624700  0.33375300  0.25000000  1
  Ba  Ba2  1  0.99864000  0.99741500  0.13945500  1
  Ba  Ba3  1  0.00258500  0.00136000  0.36054500  1
  Ba  Ba4  1  0.99741500  0.99864000  0.63945500  1
  Ba  Ba5  1  0.00136000  0.00258500  0.86054500  1
  Ba  Ba6  1  0.65968600  0.32909200  0.48336700  1
  Ba  Ba7  1  0.34031400  0.67090800  0.51663300  1
  Ba  Ba8  1  0.32909200  0.65968600  0.98336700  1
  Ba  Ba9  1  0.33375300  0.66624700  0.75000000  1
  Ru  Ru0  1  0.66642900  0.33253800  0.67317300  1
  Ru  Ru1  1  0.66746200  0.33357100  0.82682700  1
  Ru  Ru2  1  0.33253800  0.66642900  0.17317300  1
  Ru  Ru3  1  0.33357100  0.66746200  0.32682700  1
  O  O0  1  0.14268900  0.07128600  0.50073200  1
  O  O1  1  0.51102400  0.48917900  0.88083600  1
  O  O2  1  0.51082100  0.48897600  0.61916400  1
  O  O3  1  0.37237300  0.18554300  0.75051600  1
  O  O4  1  0.51264900  0.02489200  0.88461100  1
  O  O5  1  0.81445700  0.62762700  0.74948400  1
  O  O6  1  0.92871400  0.85731100  0.99926800  1
  O  O7  1  0.51193100  0.02249500  0.61929900  1
  O  O8  1  0.81494700  0.18505300  0.75000000  1
  O  O9  1  0.97510800  0.48735100  0.61538900  1
  O  O10  1  0.97750500  0.48806900  0.88070100  1
  O  O11  1  0.02249500  0.51193100  0.11929900  1
  O  O12  1  0.02489200  0.51264900  0.38461100  1
  O  O13  1  0.18505300  0.81494700  0.25000000  1
  O  O14  1  0.18554300  0.37237300  0.25051600  1
  O  O15  1  0.07128600  0.14268900  0.00073200  1
  O  O16  1  0.48735100  0.97510800  0.11538900  1
  O  O17  1  0.48806900  0.97750500  0.38070100  1
  O  O18  1  0.62762700  0.81445700  0.24948400  1
  O  O19  1  0.48917900  0.51102400  0.38083600  1
  O  O20  1  0.48897600  0.51082100  0.11916400  1
  O  O21  1  0.85731100  0.92871400  0.49926800  1
loop_
_geom_bond_atom_site_label_1
_geom_bond_atom_site_label_2
_geom_bond_distance
_geom_bond_site_symmetry_2
Ba0 O16 2.625218 1_545
Ba0 O20 2.630977 1_555
Ba0 O11 2.642520 1_655
Ba0 O6 2.733835 1_554
Ba0 O4 2.936626 1_554
Ba0 O10 2.951260 1_554
Ba0 O1 2.962615 1_554
Ba0 O15 3.207223 1_655
Ba0 O15 3.225080 1_555
Ba1 O11 3.024176 1_655
Ba1 O17 3.024176 1_545
Ba1 O20 3.027160 1_555
Ba1 O19 3.027160 1_555
Ba1 O18 3.035361 1_555
Ba1 O14 3.035361 1_555
Ba1 O18 3.036589 1_545
Ba1 O14 3.036589 1_655
Ba1 O13 3.044107 1_655
Ba1 O13 3.044107 1_545
Ba1 O12 3.109351 1_655
Ba1 O16 3.109351 1_545
Ba2 O15 2.641848 1_665
Ba2 O6 2.670009 1_554
Ba2 O18 2.790940 1_555
Ba2 O13 2.796119 1_655
Ba2 O14 2.838750 1_665
Ba2 O11 3.039466 1_655
Ba2 O20 3.054367 1_555
Ba2 O16 3.060300 1_655
Ba2 O16 3.066238 1_555
Ba2 O11 3.068397 1_665
Ba2 O20 3.070914 1_665
Ba3 O21 2.641848 1_445
Ba3 O0 2.670009 1_555
Ba3 O14 2.790940 1_555
Ba3 O13 2.796119 1_545
Ba3 O18 2.838750 1_445
Ba3 O17 3.039466 1_545
Ba3 O19 3.054367 1_555
Ba3 O12 3.060300 1_545
Ba3 O12 3.066238 1_555
Ba3 O17 3.068397 1_445
Ba3 O19 3.070914 1_445
Ba4 O0 2.641848 1_665
Ba4 O21 2.670009 1_555
Ba4 O5 2.790940 1_555
Ba4 O8 2.796119 1_565
Ba4 O3 2.838750 1_665
Ba4 O7 3.039466 1_565
Ba4 O2 3.054367 1_555
Ba4 O9 3.060300 1_565
Ba4 O9 3.066238 1_555
Ba4 O7 3.068397 1_665
Ba4 O2 3.070914 1_665
Ba5 O6 2.641848 1_445
Ba5 O15 2.670009 1_556
Ba5 O3 2.790940 1_555
Ba5 O8 2.796119 1_455
Ba5 O5 2.838750 1_445
Ba5 O10 3.039466 1_455
Ba5 O1 3.054367 1_555
Ba5 O4 3.060300 1_455
Ba5 O4 3.066238 1_555
Ba5 O10 3.068397 1_445
Ba5 O1 3.070914 1_445
Ba6 O12 2.625218 1_655
Ba6 O19 2.630977 1_555
Ba6 O17 2.642520 1_545
Ba6 O0 2.733835 1_555
Ba6 O9 2.936626 1_555
Ba6 O7 2.951260 1_555
Ba6 O2 2.962615 1_555
Ba6 O21 3.207223 1_545
Ba6 O21 3.225080 1_555
Ba7 O9 2.625218 1_455
Ba7 O2 2.630977 1_555
Ba7 O7 2.642520 1_565
Ba7 O21 2.733835 1_555
Ba7 O12 2.936626 1_555
Ba7 O17 2.951260 1_555
Ba7 O19 2.962615 1_555
Ba7 O0 3.207223 1_565
Ba7 O0 3.225080 1_555
Ba8 O4 2.625218 1_565
Ba8 O1 2.630977 1_555
Ba8 O10 2.642520 1_455
Ba8 O15 2.733835 1_556
Ba8 O16 2.936626 1_556
Ba8 O11 2.951260 1_556
Ba8 O20 2.962615 1_556
Ba8 O6 3.207223 1_455
Ba8 O6 3.225080 1_555
Ba9 O7 3.024176 1_565
Ba9 O10 3.024176 1_455
Ba9 O1 3.027160 1_555
Ba9 O2 3.027160 1_555
Ba9 O5 3.035361 1_555
Ba9 O3 3.035361 1_555
Ba9 O3 3.036589 1_565
Ba9 O5 3.036589 1_455
Ba9 O8 3.044107 1_565
Ba9 O8 3.044107 1_455
Ba9 O4 3.109351 1_565
Ba9 O9 3.109351 1_455
O0 O21 1.500527 1_445
O1 Ru1 1.910238 1_555
O2 Ru0 1.910238 1_555
O3 Ru0 2.086885 1_555
O3 Ru1 2.092977 1_555
O4 Ru1 1.929533 1_555
O5 Ru1 2.086885 1_555
O5 Ru0 2.092977 1_555
O7 Ru0 1.909860 1_555
O8 Ru0 2.092277 1_555
O8 Ru1 2.092277 1_555
O9 Ru0 1.929533 1_555
O10 Ru1 1.909860 1_555
O11 Ru2 1.909860 1_555
O12 Ru3 1.929533 1_555
O13 Ru2 2.092277 1_555
O13 Ru3 2.092277 1_555
O14 Ru2 2.086885 1_555
O14 Ru3 2.092977 1_555
O15 O6 1.500527 1_444
O16 Ru2 1.929533 1_555
O17 Ru3 1.909860 1_555
O18 Ru3 2.086885 1_555
O18 Ru2 2.092977 1_555
O19 Ru3 1.910238 1_555
O20 Ru2 1.910238 1_555
