# generated using pymatgen
data_BaHg3
_symmetry_space_group_name_H-M   'P 1'
_cell_length_a   7.38497762
_cell_length_b   7.38498027
_cell_length_c   5.20529973
_cell_angle_alpha   90.00000000
_cell_angle_beta   90.00000000
_cell_angle_gamma   119.99999741
_symmetry_Int_Tables_number   1
_chemical_formula_structural   BaHg3
_chemical_formula_sum   'Ba2 Hg6'
_cell_volume   245.85265808
_cell_formula_units_Z   2
loop_
 _symmetry_equiv_pos_site_id
 _symmetry_equiv_pos_as_xyz
  1  'x, y, z'
loop_
 _atom_site_type_symbol
 _atom_site_label
 _atom_site_symmetry_multiplicity
 _atom_site_fract_x
 _atom_site_fract_y
 _atom_site_fract_z
 _atom_site_occupancy
  Ba  Ba0  1  0.33333300  0.66666600  0.75000000  1
  Ba  Ba1  1  0.66666600  0.33333200  0.25000200  1
  Hg  Hg0  1  0.14617784  0.29235667  0.25000200  1
  Hg  Hg1  1  0.70764333  0.85382216  0.25000200  1
  Hg  Hg2  1  0.14617884  0.85382216  0.25000200  1
  Hg  Hg3  1  0.85382116  0.70764233  0.75000000  1
  Hg  Hg4  1  0.29235667  0.14617784  0.75000000  1
  Hg  Hg5  1  0.85382116  0.14617784  0.75000000  1
loop_
_geom_bond_atom_site_label_1
_geom_bond_atom_site_label_2
_geom_bond_distance
_geom_bond_site_symmetry_2
Ba0 Hg0 3.536186 1_555
Ba0 Hg1 3.536190 1_555
Ba0 Hg2 3.536190 1_555
Ba0 Hg0 3.536201 1_556
Ba0 Hg1 3.536205 1_556
Ba0 Hg2 3.536205 1_556
Ba0 Hg3 3.701777 1_555
Ba0 Hg3 3.701777 1_455
Ba0 Hg5 3.701778 1_565
Ba0 Hg5 3.701778 1_455
Ba0 Hg4 3.701778 1_565
Ba0 Hg4 3.701778 1_555
Ba1 Hg4 3.536185 1_555
Ba1 Hg5 3.536186 1_555
Ba1 Hg3 3.536190 1_555
Ba1 Hg4 3.536201 1_554
Ba1 Hg5 3.536201 1_554
Ba1 Hg3 3.536206 1_554
Ba1 Hg2 3.701767 1_545
Ba1 Hg1 3.701768 1_545
Ba1 Hg0 3.701773 1_655
Ba1 Hg0 3.701780 1_555
Ba1 Hg2 3.701789 1_655
Ba1 Hg1 3.701790 1_555
Hg0 Hg5 3.204660 1_455
Hg0 Hg4 3.204664 1_555
Hg0 Hg5 3.204677 1_454
Hg0 Hg4 3.204681 1_554
Hg0 Hg1 3.238568 1_445
Hg0 Hg2 3.238572 1_545
Hg1 Hg5 3.204657 1_565
Hg1 Hg3 3.204664 1_555
Hg1 Hg5 3.204674 1_564
Hg1 Hg3 3.204681 1_554
Hg1 Hg2 3.238575 1_655
Hg2 Hg4 3.204657 1_565
Hg2 Hg3 3.204664 1_455
Hg2 Hg4 3.204674 1_564
Hg2 Hg3 3.204681 1_454
Hg3 Hg4 3.238576 1_665
Hg3 Hg5 3.238576 1_565
Hg4 Hg5 3.238575 1_455
