# generated using pymatgen
data_YbCl2
_symmetry_space_group_name_H-M   'P 1'
_cell_length_a   6.38917700
_cell_length_b   6.38917700
_cell_length_c   4.15802100
_cell_angle_alpha   90.00000000
_cell_angle_beta   90.00000000
_cell_angle_gamma   90.00000000
_symmetry_Int_Tables_number   1
_chemical_formula_structural   YbCl2
_chemical_formula_sum   'Yb2 Cl4'
_cell_volume   169.73699828
_cell_formula_units_Z   2
loop_
 _symmetry_equiv_pos_site_id
 _symmetry_equiv_pos_as_xyz
  1  'x, y, z'
loop_
 _atom_site_type_symbol
 _atom_site_label
 _atom_site_symmetry_multiplicity
 _atom_site_fract_x
 _atom_site_fract_y
 _atom_site_fract_z
 _atom_site_occupancy
  Yb  Yb0  1  0.00000000  0.00000000  0.00000000  1
  Yb  Yb1  1  0.50000000  0.50000000  0.50000000  1
  Cl  Cl0  1  0.30327500  0.30327500  0.00000000  1
  Cl  Cl1  1  0.69672500  0.69672500  0.00000000  1
  Cl  Cl2  1  0.19672500  0.80327500  0.50000000  1
  Cl  Cl3  1  0.80327500  0.19672500  0.50000000  1
loop_
_geom_bond_atom_site_label_1
_geom_bond_atom_site_label_2
_geom_bond_distance
_geom_bond_site_symmetry_2
Cl0 Yb1 2.735312 1_554
Cl0 Yb1 2.735312 1_555
Cl0 Yb0 2.740290 1_555
Cl1 Yb1 2.735312 1_554
Cl1 Yb1 2.735312 1_555
Cl1 Yb0 2.740290 1_665
Cl2 Yb0 2.735312 1_565
Cl2 Yb0 2.735312 1_566
Cl2 Yb1 2.740290 1_555
Cl3 Yb0 2.735312 1_656
Cl3 Yb0 2.735312 1_655
Cl3 Yb1 2.740290 1_555
