# generated using pymatgen
data_Li5Ti3V2(PO4)6
_symmetry_space_group_name_H-M   'P 1'
_cell_length_a   8.50057309
_cell_length_b   8.94753587
_cell_length_c   8.95735391
_cell_angle_alpha   59.79207275
_cell_angle_beta   58.71883275
_cell_angle_gamma   58.55384183
_symmetry_Int_Tables_number   1
_chemical_formula_structural   Li5Ti3V2(PO4)6
_chemical_formula_sum   'Li5 Ti3 V2 P6 O24'
_cell_volume   470.85914247
_cell_formula_units_Z   1
loop_
 _symmetry_equiv_pos_site_id
 _symmetry_equiv_pos_as_xyz
  1  'x, y, z'
loop_
 _atom_site_type_symbol
 _atom_site_label
 _atom_site_symmetry_multiplicity
 _atom_site_fract_x
 _atom_site_fract_y
 _atom_site_fract_z
 _atom_site_occupancy
  Li  Li0  1  0.52381700  0.16123000  0.15727900  1
  Li  Li1  1  0.25362300  0.85753700  0.64298900  1
  Li  Li2  1  0.71522400  0.14666100  0.33305100  1
  Li  Li3  1  0.71576200  0.80522800  0.14501100  1
  Li  Li4  1  0.71432600  0.33576900  0.80557100  1
  Ti  Ti0  1  0.06887200  0.64153500  0.64438300  1
  Ti  Ti1  1  0.43898200  0.85209100  0.85752400  1
  Ti  Ti2  1  0.95230200  0.34999100  0.34726400  1
  V  V0  1  0.99783300  0.00105200  0.00481800  1
  V  V1  1  0.49327700  0.49846400  0.50104300  1
  P  P0  1  0.25638300  0.24763700  0.55107300  1
  P  P1  1  0.25851400  0.94589800  0.24364000  1
  P  P2  1  0.25707500  0.55152900  0.94524500  1
  P  P3  1  0.75551100  0.45251800  0.04564600  1
  P  P4  1  0.76287000  0.04467000  0.74534600  1
  P  P5  1  0.74509600  0.74816500  0.45442300  1
  O  O0  1  0.07302900  0.10690600  0.30836300  1
  O  O1  1  0.07052000  0.51403800  0.10326900  1
  O  O2  1  0.07073700  0.31338500  0.50860100  1
  O  O3  1  0.22849500  0.08670000  0.74160500  1
  O  O4  1  0.44639600  0.18484100  0.40003100  1
  O  O5  1  0.26394800  0.40221600  0.57947000  1
  O  O6  1  0.23039400  0.92867800  0.09429500  1
  O  O7  1  0.26741000  0.75830200  0.40915600  1
  O  O8  1  0.56750300  0.60960300  0.00639800  1
  O  O9  1  0.27169700  0.58153200  0.74866500  1
  O  O10  1  0.78144700  0.26347100  0.05453400  1
  O  O11  1  0.58568900  0.99756300  0.80470700  1
  O  O12  1  0.44915400  0.97187900  0.18006300  1
  O  O13  1  0.22619400  0.75039900  0.92412700  1
  O  O14  1  0.72953800  0.42700400  0.24392100  1
  O  O15  1  0.44754100  0.40015800  0.97058000  1
  O  O16  1  0.73438300  0.24256300  0.59485300  1
  O  O17  1  0.77932500  0.05996000  0.90201700  1
  O  O18  1  0.73160900  0.59752100  0.42172400  1
  O  O19  1  0.54791800  0.80927100  0.60699200  1
  O  O20  1  0.77684800  0.90347800  0.26550100  1
  O  O21  1  0.91797700  0.67517500  0.51463700  1
  O  O22  1  0.93555900  0.50348300  0.89551400  1
  O  O23  1  0.95722100  0.89490200  0.67366700  1
loop_
_geom_bond_atom_site_label_1
_geom_bond_atom_site_label_2
_geom_bond_distance
_geom_bond_site_symmetry_2
Li0 O15 1.967111 1_554
Li0 O12 1.988559 1_545
Li0 O4 2.009211 1_555
Li0 O20 2.371646 1_545
Li0 O10 2.372778 1_555
Li0 O17 2.374991 1_554
Li1 O9 2.102663 1_555
Li1 O13 2.123480 1_555
Li1 O19 2.173487 1_555
Li1 O23 2.242795 1_455
Li1 O3 2.489963 1_565
Li1 O7 2.587872 1_555
Li2 O4 1.914859 1_555
Li2 O10 2.040785 1_555
Li2 O14 2.268602 1_555
Li2 O20 2.276270 1_545
Li3 O12 1.914260 1_555
Li3 O20 2.054337 1_555
Li3 O18 2.250723 1_555
Li3 O17 2.301283 1_564
Li4 O15 1.916321 1_555
Li4 O17 2.017266 1_555
Li4 O10 2.280728 1_556
Li4 O16 2.321326 1_555
O0 P1 1.555218 1_545
O0 Ti2 1.991884 1_455
O1 P2 1.541792 1_554
O1 Ti2 1.992758 1_455
O2 P0 1.552676 1_555
O2 Ti2 1.974807 1_455
O3 P0 1.582873 1_555
O3 Ti1 2.122064 1_545
O3 V0 2.222499 1_456
O4 P0 1.517801 1_555
O5 P0 1.563845 1_555
O5 Ti0 2.054212 1_555
O5 V1 2.180856 1_555
O6 P1 1.564712 1_555
O6 Ti1 2.097854 1_554
O6 V0 2.181113 1_465
O7 P1 1.581463 1_555
O7 Ti0 2.076328 1_555
O7 V1 2.197050 1_555
O8 P3 1.547821 1_555
O8 Ti1 1.951290 1_554
O9 P2 1.587426 1_555
O9 Ti0 2.082159 1_555
O9 V1 2.208973 1_555
O10 P3 1.552334 1_555
O10 V0 2.188615 1_555
O11 P4 1.527754 1_565
O11 Ti1 1.983578 1_555
O12 P1 1.518552 1_555
O13 P2 1.580010 1_555
O13 Ti1 2.122740 1_555
O13 V0 2.225335 1_466
O14 P3 1.578766 1_555
O14 Ti2 2.175891 1_555
O14 V1 2.255050 1_555
O15 P2 1.513780 1_555
O16 P4 1.581379 1_555
O16 Ti2 2.172622 1_555
O16 V1 2.259492 1_555
O17 P4 1.557147 1_555
O17 V0 2.200480 1_556
O18 P5 1.584023 1_555
O18 Ti2 2.172867 1_555
O18 V1 2.267144 1_555
O19 P5 1.546905 1_555
O19 Ti1 2.092193 1_555
O20 P5 1.555096 1_555
O20 V0 2.201819 1_565
O21 P5 1.531136 1_555
O21 Ti0 1.969721 1_655
O22 P3 1.527280 1_556
O22 Ti0 1.971637 1_655
O23 P4 1.546503 1_565
O23 Ti0 2.050317 1_655
