# generated using pymatgen
data_Cr
_symmetry_space_group_name_H-M   'P 1'
_cell_length_a   5.06727903
_cell_length_b   5.06728031
_cell_length_c   5.06728108
_cell_angle_alpha   59.99999498
_cell_angle_beta   59.99998664
_cell_angle_gamma   59.99999197
_symmetry_Int_Tables_number   1
_chemical_formula_structural   Cr
_chemical_formula_sum   Cr8
_cell_volume   92.00462499
_cell_formula_units_Z   8
loop_
 _symmetry_equiv_pos_site_id
 _symmetry_equiv_pos_as_xyz
  1  'x, y, z'
loop_
 _atom_site_type_symbol
 _atom_site_label
 _atom_site_symmetry_multiplicity
 _atom_site_fract_x
 _atom_site_fract_y
 _atom_site_fract_z
 _atom_site_occupancy
  Cr  Cr0_0  1  0.00000000  0.00000000  0.00000000  1
  Cr  Cr0_1  1  0.00000000  0.00000000  0.50000000  1
  Cr  Cr0_2  1  0.00000000  0.50000000  0.00000000  1
  Cr  Cr0_3  1  0.00000000  0.50000000  0.50000000  1
  Cr  Cr0_4  1  0.50000000  0.00000000  0.00000000  1
  Cr  Cr0_5  1  0.50000000  0.00000000  0.50000000  1
  Cr  Cr0_6  1  0.50000000  0.50000000  0.00000000  1
  Cr  Cr0_7  1  0.50000000  0.50000000  0.50000000  1
loop_
_geom_bond_atom_site_label_1
_geom_bond_atom_site_label_2
_geom_bond_distance
_geom_bond_site_symmetry_2
Cr0_0 Cr0_5 2.533640 1_455
Cr0_0 Cr0_4 2.533640 1_555
Cr0_0 Cr0_5 2.533640 1_554
Cr0_0 Cr0_4 2.533640 1_455
Cr0_0 Cr0_6 2.533640 1_545
Cr0_0 Cr0_6 2.533640 1_455
Cr0_0 Cr0_2 2.533640 1_545
Cr0_0 Cr0_3 2.533640 1_545
Cr0_0 Cr0_2 2.533640 1_555
Cr0_0 Cr0_3 2.533640 1_554
Cr0_0 Cr0_1 2.533641 1_555
Cr0_0 Cr0_1 2.533641 1_554
Cr0_1 Cr0_4 2.533640 1_555
Cr0_1 Cr0_5 2.533640 1_555
Cr0_1 Cr0_4 2.533640 1_456
Cr0_1 Cr0_5 2.533640 1_455
Cr0_1 Cr0_7 2.533640 1_455
Cr0_1 Cr0_7 2.533640 1_545
Cr0_1 Cr0_2 2.533640 1_555
Cr0_1 Cr0_2 2.533640 1_546
Cr0_1 Cr0_3 2.533640 1_555
Cr0_1 Cr0_3 2.533640 1_545
Cr0_2 Cr0_6 2.533640 1_455
Cr0_2 Cr0_7 2.533640 1_455
Cr0_2 Cr0_6 2.533640 1_555
Cr0_2 Cr0_7 2.533640 1_554
Cr0_2 Cr0_4 2.533640 1_465
Cr0_2 Cr0_4 2.533640 1_555
Cr0_2 Cr0_3 2.533641 1_555
Cr0_2 Cr0_3 2.533641 1_554
Cr0_3 Cr0_7 2.533640 1_455
Cr0_3 Cr0_6 2.533640 1_555
Cr0_3 Cr0_6 2.533640 1_456
Cr0_3 Cr0_7 2.533640 1_555
Cr0_3 Cr0_5 2.533640 1_465
Cr0_3 Cr0_5 2.533640 1_555
Cr0_4 Cr0_6 2.533640 1_545
Cr0_4 Cr0_7 2.533640 1_554
Cr0_4 Cr0_7 2.533640 1_545
Cr0_4 Cr0_6 2.533640 1_555
Cr0_4 Cr0_5 2.533641 1_555
Cr0_4 Cr0_5 2.533641 1_554
Cr0_5 Cr0_6 2.533640 1_555
Cr0_5 Cr0_7 2.533640 1_555
Cr0_5 Cr0_6 2.533640 1_546
Cr0_5 Cr0_7 2.533640 1_545
Cr0_6 Cr0_7 2.533641 1_555
Cr0_6 Cr0_7 2.533641 1_554
