# generated using pymatgen
data_TiZnRh2
_symmetry_space_group_name_H-M   'P 1'
_cell_length_a   4.28016057
_cell_length_b   4.28022660
_cell_length_c   4.28081012
_cell_angle_alpha   60.00235304
_cell_angle_beta   60.00336573
_cell_angle_gamma   60.01204321
_symmetry_Int_Tables_number   1
_chemical_formula_structural   TiZnRh2
_chemical_formula_sum   'Ti1 Zn1 Rh2'
_cell_volume   55.46207003
_cell_formula_units_Z   1
loop_
 _symmetry_equiv_pos_site_id
 _symmetry_equiv_pos_as_xyz
  1  'x, y, z'
loop_
 _atom_site_type_symbol
 _atom_site_label
 _atom_site_symmetry_multiplicity
 _atom_site_fract_x
 _atom_site_fract_y
 _atom_site_fract_z
 _atom_site_occupancy
  Ti  Ti0  1  0.25000410  0.24999613  0.24999759  1
  Zn  Zn0  1  0.74999759  0.75000181  0.75000253  1
  Rh  Rh0  1  -0.00000122  0.00000120  -0.00000625  1
  Rh  Rh1  1  0.50000053  0.50000187  0.50000713  1
loop_
_geom_bond_atom_site_label_1
_geom_bond_atom_site_label_2
_geom_bond_distance
_geom_bond_site_symmetry_2
Rh0 Zn0 2.621052 1_444
Rh0 Ti0 2.621095 1_555
Rh0 Ti0 2.621323 1_455
Rh0 Zn0 2.621338 1_544
Rh0 Zn0 2.621358 1_454
Rh0 Ti0 2.621373 1_545
Rh0 Ti0 2.621470 1_554
Rh0 Zn0 2.621515 1_445
Rh1 Zn0 2.621055 1_555
Rh1 Ti0 2.621122 1_555
Rh1 Ti0 2.621336 1_565
Rh1 Zn0 2.621352 1_455
Rh1 Ti0 2.621355 1_655
Rh1 Zn0 2.621356 1_545
Rh1 Ti0 2.621451 1_556
Rh1 Zn0 2.621500 1_554
