# generated using pymatgen
data_Li2FePO5
_symmetry_space_group_name_H-M   'P 1'
_cell_length_a   5.12431600
_cell_length_b   12.84521700
_cell_length_c   13.21197484
_cell_angle_alpha   61.87728566
_cell_angle_beta   90.00000000
_cell_angle_gamma   90.00000000
_symmetry_Int_Tables_number   1
_chemical_formula_structural   Li2FePO5
_chemical_formula_sum   'Li16 Fe8 P8 O40'
_cell_volume   766.98021491
_cell_formula_units_Z   8
loop_
 _symmetry_equiv_pos_site_id
 _symmetry_equiv_pos_as_xyz
  1  'x, y, z'
loop_
 _atom_site_type_symbol
 _atom_site_label
 _atom_site_symmetry_multiplicity
 _atom_site_fract_x
 _atom_site_fract_y
 _atom_site_fract_z
 _atom_site_occupancy
  Li  Li0  1  0.72126300  0.82086900  0.36266000  1
  Li  Li1  1  0.76054400  0.34342300  0.08077800  1
  Li  Li2  1  0.21381900  0.18150800  0.14401800  1
  Li  Li3  1  0.72375600  0.58699500  0.57856700  1
  Li  Li4  1  0.22375600  0.91300500  0.42143300  1
  Li  Li5  1  0.71381900  0.31849200  0.85598200  1
  Li  Li6  1  0.77873700  0.32086900  0.36266000  1
  Li  Li7  1  0.73945600  0.84342300  0.08077800  1
  Li  Li8  1  0.26054400  0.15657700  0.91922200  1
  Li  Li9  1  0.22126300  0.67913100  0.63734000  1
  Li  Li10  1  0.28618100  0.68150800  0.14401800  1
  Li  Li11  1  0.77624400  0.08699500  0.57856700  1
  Li  Li12  1  0.27624400  0.41300500  0.42143300  1
  Li  Li13  1  0.78618100  0.81849200  0.85598200  1
  Li  Li14  1  0.23945600  0.65657700  0.91922200  1
  Li  Li15  1  0.27873700  0.17913100  0.63734000  1
  Fe  Fe0  1  0.72902700  0.12936700  0.06246700  1
  Fe  Fe1  1  0.25739000  0.69005000  0.43424900  1
  Fe  Fe2  1  0.77097300  0.62936700  0.06246700  1
  Fe  Fe3  1  0.75739000  0.80995000  0.56575100  1
  Fe  Fe4  1  0.24261000  0.19005000  0.43424900  1
  Fe  Fe5  1  0.22902700  0.37063300  0.93753300  1
  Fe  Fe6  1  0.74261000  0.30995000  0.56575100  1
  Fe  Fe7  1  0.27097300  0.87063300  0.93753300  1
  P  P0  1  0.22597800  0.92902700  0.16168100  1
  P  P1  1  0.23225200  0.41311300  0.66240500  1
  P  P2  1  0.27402200  0.42902700  0.16168100  1
  P  P3  1  0.73225200  0.08688700  0.33759500  1
  P  P4  1  0.26774800  0.91311300  0.66240500  1
  P  P5  1  0.72597800  0.57097300  0.83831900  1
  P  P6  1  0.76774800  0.58688700  0.33759500  1
  P  P7  1  0.77402200  0.07097300  0.83831900  1
  O  O0  1  0.92841100  0.95376900  0.13351800  1
  O  O1  1  0.02646200  0.22347100  0.99133500  1
  O  O2  1  0.37524900  0.04731800  0.12011800  1
  O  O3  1  0.61627500  0.65322400  0.39113700  1
  O  O4  1  0.26824100  0.85634200  0.29285900  1
  O  O5  1  0.15416700  0.36088000  0.10126000  1
  O  O6  1  0.80490200  0.14546900  0.20826800  1
  O  O7  1  0.93156100  0.40534100  0.64366900  1
  O  O8  1  0.96508800  0.72561000  0.49698000  1
  O  O9  1  0.57158900  0.45376900  0.13351800  1
  O  O10  1  0.47353800  0.72347100  0.99133500  1
  O  O11  1  0.32357600  0.54386500  0.60385500  1
  O  O12  1  0.82357600  0.95613500  0.39614500  1
  O  O13  1  0.12475100  0.54731800  0.12011800  1
  O  O14  1  0.46508800  0.77439000  0.50302000  1
  O  O15  1  0.43156100  0.09465900  0.35633100  1
  O  O16  1  0.88372500  0.15322400  0.39113700  1
  O  O17  1  0.23175900  0.35634200  0.29285900  1
  O  O18  1  0.30490200  0.35453100  0.79173200  1
  O  O19  1  0.65416700  0.13912000  0.89874000  1
  O  O20  1  0.34583300  0.86088000  0.10126000  1
  O  O21  1  0.69509800  0.64546900  0.20826800  1
  O  O22  1  0.76824100  0.64365800  0.70714100  1
  O  O23  1  0.11627500  0.84677600  0.60886300  1
  O  O24  1  0.56843900  0.90534100  0.64366900  1
  O  O25  1  0.53491200  0.22561000  0.49698000  1
  O  O26  1  0.87524900  0.45268200  0.87988200  1
  O  O27  1  0.17642400  0.04386500  0.60385500  1
  O  O28  1  0.67642400  0.45613500  0.39614500  1
  O  O29  1  0.52646200  0.27652900  0.00866500  1
  O  O30  1  0.42841100  0.54623100  0.86648200  1
  O  O31  1  0.03491200  0.27439000  0.50302000  1
  O  O32  1  0.06843900  0.59465900  0.35633100  1
  O  O33  1  0.19509800  0.85453100  0.79173200  1
  O  O34  1  0.84583300  0.63912000  0.89874000  1
  O  O35  1  0.73175900  0.14365800  0.70714100  1
  O  O36  1  0.38372500  0.34677600  0.60886300  1
  O  O37  1  0.62475100  0.95268200  0.87988200  1
  O  O38  1  0.97353800  0.77652900  0.00866500  1
  O  O39  1  0.07158900  0.04623100  0.86648200  1
loop_
_geom_bond_atom_site_label_1
_geom_bond_atom_site_label_2
_geom_bond_distance
_geom_bond_site_symmetry_2
Li0 O8 2.039745 1_555
Li0 O12 2.052859 1_555
Li0 O3 2.074724 1_555
Li0 O14 2.115388 1_555
Li0 O4 2.459874 1_555
Li1 O29 1.963846 1_555
Li1 O5 2.061359 1_655
Li1 O9 2.088834 1_555
Li1 O6 2.305818 1_555
Li1 O26 2.418345 1_554
Li2 O1 2.063130 1_554
Li2 O2 2.065974 1_555
Li2 O5 2.119967 1_555
Li2 O6 2.226030 1_455
Li2 O29 2.279627 1_555
Li3 O8 2.013012 1_555
Li3 O11 2.109318 1_555
Li3 O22 2.152430 1_555
Li3 O3 2.274475 1_555
Li3 O7 2.329458 1_555
Li3 O14 2.506485 1_555
Li4 O14 2.013012 1_555
Li4 O12 2.109318 1_455
Li4 O4 2.152430 1_555
Li4 O23 2.274475 1_555
Li4 O15 2.329458 1_565
Li4 O8 2.506485 1_455
Li5 O29 2.063130 1_556
Li5 O26 2.065974 1_555
Li5 O19 2.119967 1_555
Li5 O18 2.226030 1_555
Li5 O1 2.279627 1_655
Li6 O25 2.039745 1_555
Li6 O28 2.052859 1_555
Li6 O16 2.074724 1_555
Li6 O31 2.115388 1_655
Li6 O17 2.459874 1_655
Li7 O38 1.963846 1_555
Li7 O20 2.061359 1_555
Li7 O0 2.088834 1_555
Li7 O21 2.305818 1_555
Li7 O37 2.418345 1_554
Li8 O1 1.963846 1_555
Li8 O19 2.061359 1_555
Li8 O39 2.088834 1_555
Li8 O18 2.305818 1_555
Li8 O2 2.418345 1_556
Li9 O14 2.039745 1_555
Li9 O11 2.052859 1_555
Li9 O23 2.074724 1_555
Li9 O8 2.115388 1_455
Li9 O22 2.459874 1_455
Li10 O10 2.063130 1_554
Li10 O13 2.065974 1_555
Li10 O20 2.119967 1_555
Li10 O21 2.226030 1_555
Li10 O38 2.279627 1_455
Li11 O25 2.013012 1_555
Li11 O27 2.109318 1_655
Li11 O35 2.152430 1_555
Li11 O16 2.274475 1_555
Li11 O24 2.329458 1_545
Li11 O31 2.506485 1_655
Li12 O31 2.013012 1_555
Li12 O28 2.109318 1_555
Li12 O17 2.152430 1_555
Li12 O36 2.274475 1_555
Li12 O32 2.329458 1_555
Li12 O25 2.506485 1_555
Li13 O38 2.063130 1_556
Li13 O37 2.065974 1_555
Li13 O34 2.119967 1_555
Li13 O33 2.226030 1_655
Li13 O10 2.279627 1_555
Li14 O10 1.963846 1_555
Li14 O34 2.061359 1_455
Li14 O30 2.088834 1_555
Li14 O33 2.305818 1_555
Li14 O13 2.418345 1_556
Li15 O31 2.039745 1_555
Li15 O27 2.052859 1_555
Li15 O36 2.074724 1_555
Li15 O25 2.115388 1_555
Li15 O35 2.459874 1_555
Fe0 O1 1.896436 1_654
Fe0 O29 1.972141 1_555
Fe0 O2 2.054424 1_555
Fe0 O6 2.068880 1_555
Fe0 O19 2.141640 1_554
Fe0 O0 2.239797 1_545
Fe1 O8 1.869758 1_455
Fe1 O14 2.014934 1_555
Fe1 O3 2.045551 1_555
Fe1 O4 2.072128 1_555
Fe1 O32 2.165139 1_555
Fe1 O11 2.166939 1_555
Fe2 O10 1.896436 1_554
Fe2 O38 1.972141 1_555
Fe2 O13 2.054424 1_655
Fe2 O21 2.068880 1_555
Fe2 O34 2.141640 1_554
Fe2 O9 2.239797 1_555
Fe3 O14 1.869758 1_555
Fe3 O8 2.014934 1_555
Fe3 O23 2.045551 1_655
Fe3 O22 2.072128 1_555
Fe3 O24 2.165139 1_555
Fe3 O12 2.166939 1_555
Fe4 O25 1.869758 1_555
Fe4 O31 2.014934 1_555
Fe4 O16 2.045551 1_455
Fe4 O17 2.072128 1_555
Fe4 O15 2.165139 1_555
Fe4 O27 2.166939 1_555
Fe5 O29 1.896436 1_556
Fe5 O1 1.972141 1_555
Fe5 O26 2.054424 1_455
Fe5 O18 2.068880 1_555
Fe5 O5 2.141640 1_556
Fe5 O30 2.239797 1_555
Fe6 O31 1.869758 1_655
Fe6 O25 2.014934 1_555
Fe6 O36 2.045551 1_555
Fe6 O35 2.072128 1_555
Fe6 O7 2.165139 1_555
Fe6 O28 2.166939 1_555
Fe7 O38 1.896436 1_456
Fe7 O10 1.972141 1_555
Fe7 O37 2.054424 1_555
Fe7 O33 2.068880 1_555
Fe7 O20 2.141640 1_556
Fe7 O39 2.239797 1_565
O0 P0 1.566229 1_655
O2 P0 1.552043 1_545
O3 P6 1.548302 1_555
O4 P0 1.548181 1_555
O5 P2 1.561885 1_555
O6 P3 1.553145 1_555
O7 P1 1.571214 1_655
O9 P2 1.566229 1_555
O11 P1 1.553523 1_555
O12 P3 1.553523 1_565
O13 P2 1.552043 1_555
O15 P3 1.571214 1_555
O16 P3 1.548302 1_555
O17 P2 1.548181 1_555
O18 P1 1.553145 1_555
O19 P7 1.561885 1_555
O20 P0 1.561885 1_555
O21 P6 1.553145 1_555
O22 P5 1.548181 1_555
O23 P4 1.548302 1_555
O24 P4 1.571214 1_555
O26 P5 1.552043 1_555
O27 P4 1.553523 1_545
O28 P6 1.553523 1_555
O30 P5 1.566229 1_555
O32 P6 1.571214 1_455
O33 P4 1.553145 1_555
O34 P5 1.561885 1_555
O35 P7 1.548181 1_555
O36 P1 1.548302 1_555
O37 P7 1.552043 1_565
O39 P7 1.566229 1_455
