# generated using pymatgen
data_AgBr
_symmetry_space_group_name_H-M   'P 1'
_cell_length_a   4.41219972
_cell_length_b   4.41219972
_cell_length_c   4.41219972
_cell_angle_alpha   60.00000000
_cell_angle_beta   60.00000000
_cell_angle_gamma   60.00000000
_symmetry_Int_Tables_number   1
_chemical_formula_structural   AgBr
_chemical_formula_sum   'Ag1 Br1'
_cell_volume   60.73660179
_cell_formula_units_Z   1
loop_
 _symmetry_equiv_pos_site_id
 _symmetry_equiv_pos_as_xyz
  1  'x, y, z'
loop_
 _atom_site_type_symbol
 _atom_site_label
 _atom_site_symmetry_multiplicity
 _atom_site_fract_x
 _atom_site_fract_y
 _atom_site_fract_z
 _atom_site_occupancy
  Ag  Ag0  1  0.00000000  -0.00000000  0.00000000  1
  Br  Br0  1  0.25000000  0.25000000  0.25000000  1
loop_
_geom_bond_atom_site_label_1
_geom_bond_atom_site_label_2
_geom_bond_distance
_geom_bond_site_symmetry_2
Ag0 Br0 2.701909 1_455
Ag0 Br0 2.701909 1_545
Ag0 Br0 2.701909 1_555
Ag0 Br0 2.701909 1_554
