# generated using pymatgen
data_Nb3Fe(PO4)6
_symmetry_space_group_name_H-M   'P 1'
_cell_length_a   8.98225683
_cell_length_b   8.98225683
_cell_length_c   8.98225713
_cell_angle_alpha   58.55029566
_cell_angle_beta   58.55029566
_cell_angle_gamma   58.55029847
_symmetry_Int_Tables_number   1
_chemical_formula_structural   Nb3Fe(PO4)6
_chemical_formula_sum   'Nb3 Fe1 P6 O24'
_cell_volume   495.44882512
_cell_formula_units_Z   1
loop_
 _symmetry_equiv_pos_site_id
 _symmetry_equiv_pos_as_xyz
  1  'x, y, z'
loop_
 _atom_site_type_symbol
 _atom_site_label
 _atom_site_symmetry_multiplicity
 _atom_site_fract_x
 _atom_site_fract_y
 _atom_site_fract_z
 _atom_site_occupancy
  Nb  Nb0  1  0.85936400  0.85936400  0.85936400  1
  Nb  Nb1  1  0.64144500  0.64144500  0.64144500  1
  Nb  Nb2  1  0.36014400  0.36014400  0.36014400  1
  Fe  Fe0  1  0.14190700  0.14190700  0.14190700  1
  P  P0  1  0.52918300  0.96739400  0.24936800  1
  P  P1  1  0.24936800  0.52918300  0.96739400  1
  P  P2  1  0.96739400  0.24936800  0.52918300  1
  P  P3  1  0.03483200  0.75712300  0.45983000  1
  P  P4  1  0.75712300  0.45983000  0.03483200  1
  P  P5  1  0.45983000  0.03483200  0.75712300  1
  O  O0  1  0.49924900  0.86699000  0.71658600  1
  O  O1  1  0.86699000  0.71658600  0.49924900  1
  O  O2  1  0.71152900  0.93728800  0.08011600  1
  O  O3  1  0.71658600  0.49924900  0.86699000  1
  O  O4  1  0.56569700  0.78938800  0.41973600  1
  O  O5  1  0.36557100  0.99175600  0.22158100  1
  O  O6  1  0.08011600  0.71152900  0.93728800  1
  O  O7  1  0.41973600  0.56569700  0.78938800  1
  O  O8  1  0.78938800  0.41973600  0.56569700  1
  O  O9  1  0.00337500  0.77961300  0.63541800  1
  O  O10  1  0.06094400  0.92179300  0.28581500  1
  O  O11  1  0.77961300  0.63541800  0.00337500  1
  O  O12  1  0.22158100  0.36557100  0.99175600  1
  O  O13  1  0.93728800  0.08011600  0.71152900  1
  O  O14  1  0.99175600  0.22158100  0.36557100  1
  O  O15  1  0.21001100  0.57891200  0.43906500  1
  O  O16  1  0.57891200  0.43906500  0.21001100  1
  O  O17  1  0.92179300  0.28581500  0.06094400  1
  O  O18  1  0.63541800  0.00337500  0.77961300  1
  O  O19  1  0.43906500  0.21001100  0.57891200  1
  O  O20  1  0.28093800  0.50363000  0.13440600  1
  O  O21  1  0.28581500  0.06094400  0.92179300  1
  O  O22  1  0.13440600  0.28093800  0.50363000  1
  O  O23  1  0.50363000  0.13440600  0.28093800  1
loop_
_geom_bond_atom_site_label_1
_geom_bond_atom_site_label_2
_geom_bond_distance
_geom_bond_site_symmetry_2
Nb0 O13 1.978819 1_565
Nb0 O6 1.978819 1_655
Nb0 O2 1.978819 1_556
Nb0 O11 2.013505 1_556
Nb0 O18 2.013505 1_565
Nb0 O9 2.013505 1_655
Nb1 O7 1.975757 1_555
Nb1 O8 1.975757 1_555
Nb1 O4 1.975757 1_555
Nb1 O1 2.004575 1_555
Nb1 O0 2.004575 1_555
Nb1 O3 2.004575 1_555
Nb2 O16 1.968062 1_555
Nb2 O15 1.968062 1_555
Nb2 O19 1.968062 1_555
Nb2 O22 2.024866 1_555
Nb2 O23 2.024867 1_555
Nb2 O20 2.024867 1_555
Fe0 O10 1.990312 1_545
Fe0 O17 1.990312 1_455
Fe0 O21 1.990312 1_554
Fe0 O12 2.008222 1_554
Fe0 O5 2.008222 1_545
Fe0 O14 2.008222 1_455
O0 P5 1.553084 1_565
O1 P3 1.553084 1_655
O2 P0 1.560598 1_555
O3 P4 1.553084 1_556
O4 P0 1.558568 1_555
O5 P0 1.503364 1_555
O6 P1 1.560598 1_555
O7 P1 1.558568 1_555
O8 P2 1.558568 1_555
O9 P3 1.554352 1_555
O10 P3 1.500954 1_555
O11 P4 1.554352 1_555
O12 P1 1.503364 1_555
O13 P2 1.560598 1_555
O14 P2 1.503364 1_555
O15 P3 1.565257 1_555
O16 P4 1.565257 1_555
O17 P4 1.500954 1_555
O18 P5 1.554352 1_555
O19 P5 1.565257 1_555
O20 P1 1.549262 1_554
O21 P5 1.500954 1_555
O22 P2 1.549262 1_455
O23 P0 1.549262 1_545
