# generated using pymatgen
data_LuAlB4
_symmetry_space_group_name_H-M   'P 1'
_cell_length_a   3.49296710
_cell_length_b   5.88374911
_cell_length_c   11.40621195
_cell_angle_alpha   90.00000000
_cell_angle_beta   90.00000000
_cell_angle_gamma   90.00000000
_symmetry_Int_Tables_number   1
_chemical_formula_structural   LuAlB4
_chemical_formula_sum   'Lu4 Al4 B16'
_cell_volume   234.41752595
_cell_formula_units_Z   4
loop_
 _symmetry_equiv_pos_site_id
 _symmetry_equiv_pos_as_xyz
  1  'x, y, z'
loop_
 _atom_site_type_symbol
 _atom_site_label
 _atom_site_symmetry_multiplicity
 _atom_site_fract_x
 _atom_site_fract_y
 _atom_site_fract_z
 _atom_site_occupancy
  Lu  Lu0  1  -0.00000000  0.37031982  0.65017970  1
  Lu  Lu1  1  0.00000000  0.62968018  0.34982030  1
  Lu  Lu2  1  -0.00000000  0.87031982  0.84982030  1
  Lu  Lu3  1  0.00000000  0.12968018  0.15017970  1
  Al  Al0  1  -0.00000000  0.36186820  0.91003176  1
  Al  Al1  1  -0.00000000  0.63813180  0.08996824  1
  Al  Al2  1  0.00000000  0.86186820  0.58996824  1
  Al  Al3  1  -0.00000000  0.13813180  0.41003176  1
  B  B0  1  0.50000000  0.02538752  0.69324345  1
  B  B1  1  0.50000000  0.97461248  0.30675655  1
  B  B2  1  0.50000000  0.52538752  0.80675655  1
  B  B3  1  0.50000000  0.47461248  0.19324345  1
  B  B4  1  0.50000000  0.11454434  0.54761189  1
  B  B5  1  0.50000000  0.88545566  0.45238811  1
  B  B6  1  0.50000000  0.61454434  0.95238811  1
  B  B7  1  0.50000000  0.38545566  0.04761189  1
  B  B8  1  0.50000000  0.29121247  0.31269129  1
  B  B9  1  0.50000000  0.70878753  0.68730871  1
  B  B10  1  0.50000000  0.79121247  0.18730871  1
  B  B11  1  0.50000000  0.20878753  0.81269129  1
  B  B12  1  0.50000000  0.36738657  0.46942396  1
  B  B13  1  0.50000000  0.63261343  0.53057604  1
  B  B14  1  0.50000000  0.86738657  0.03057604  1
  B  B15  1  0.50000000  0.13261343  0.96942396  1
loop_
_geom_bond_atom_site_label_1
_geom_bond_atom_site_label_2
_geom_bond_distance
_geom_bond_site_symmetry_2
Al0 B11 2.257029 1_455
Al0 B11 2.257029 1_555
Al0 B15 2.308376 1_455
Al0 B15 2.308376 1_555
Al0 B2 2.315921 1_455
Al0 B2 2.315921 1_555
Al0 B6 2.343895 1_555
Al0 B6 2.343895 1_455
Al0 B7 2.352035 1_456
Al0 B7 2.352035 1_556
Al1 B10 2.257029 1_455
Al1 B10 2.257029 1_555
Al1 B14 2.308376 1_455
Al1 B14 2.308376 1_555
Al1 B3 2.315921 1_555
Al1 B3 2.315921 1_455
Al1 B7 2.343895 1_555
Al1 B7 2.343895 1_455
Al1 B6 2.352035 1_454
Al1 B6 2.352035 1_554
Al2 B9 2.257029 1_555
Al2 B9 2.257029 1_455
Al2 B13 2.308376 1_555
Al2 B13 2.308376 1_455
Al2 B0 2.315921 1_565
Al2 B0 2.315921 1_465
Al2 B4 2.343895 1_565
Al2 B4 2.343895 1_465
Al2 B5 2.352035 1_555
Al2 B5 2.352035 1_455
Al3 B8 2.257029 1_555
Al3 B8 2.257029 1_455
Al3 B12 2.308376 1_555
Al3 B12 2.308376 1_455
Al3 B1 2.315921 1_545
Al3 B1 2.315921 1_445
Al3 B5 2.343895 1_445
Al3 B5 2.343895 1_545
Al3 B4 2.352035 1_455
Al3 B4 2.352035 1_555
B0 B11 1.738009 1_555
B0 B4 1.741967 1_555
B0 B9 1.864024 1_545
B0 Lu2 2.659371 1_545
B0 Lu2 2.659371 1_645
B0 Lu0 2.722192 1_555
B0 Lu0 2.722192 1_655
B1 B10 1.738009 1_555
B1 B5 1.741967 1_555
B1 B8 1.864024 1_565
B1 Lu3 2.659371 1_665
B1 Lu3 2.659371 1_565
B1 Lu1 2.722192 1_555
B1 Lu1 2.722192 1_655
B2 B9 1.738009 1_555
B2 B6 1.741967 1_555
B2 Lu0 2.659371 1_555
B2 Lu0 2.659371 1_655
B2 Lu2 2.722192 1_555
B2 Lu2 2.722192 1_655
B3 B8 1.738009 1_555
B3 B7 1.741967 1_555
B3 Lu1 2.659371 1_655
B3 Lu1 2.659371 1_555
B3 Lu3 2.722192 1_655
B3 Lu3 2.722192 1_555
B4 B5 1.731052 1_545
B4 Lu0 2.585280 1_555
B4 Lu0 2.585280 1_655
B5 Lu1 2.585280 1_555
B5 Lu1 2.585280 1_655
B6 B7 1.731052 1_556
B6 Lu2 2.585280 1_555
B6 Lu2 2.585280 1_655
B7 Lu3 2.585280 1_655
B7 Lu3 2.585280 1_555
B8 Lu1 2.682437 1_555
B8 Lu1 2.682437 1_655
B8 Lu3 2.718360 1_555
B8 Lu3 2.718360 1_655
B9 Lu0 2.682437 1_555
B9 Lu0 2.682437 1_655
B9 Lu2 2.718360 1_555
B9 Lu2 2.718360 1_655
B10 B14 1.843051 1_555
B10 B3 1.864024 1_555
B10 Lu3 2.682437 1_665
B10 Lu3 2.682437 1_565
B10 Lu1 2.718360 1_655
B10 Lu1 2.718360 1_555
B11 B15 1.843051 1_555
B11 B2 1.864024 1_555
B11 Lu2 2.682437 1_545
B11 Lu2 2.682437 1_645
B11 Lu0 2.718360 1_555
B11 Lu0 2.718360 1_655
B12 B13 1.709320 1_555
B12 B4 1.734500 1_555
B12 B8 1.843051 1_555
B12 Lu1 2.700555 1_555
B12 Lu1 2.700555 1_655
B12 Lu0 2.702086 1_555
B12 Lu0 2.702086 1_655
B13 B5 1.734500 1_555
B13 B9 1.843051 1_555
B13 Lu0 2.700555 1_555
B13 Lu0 2.700555 1_655
B13 Lu1 2.702086 1_655
B13 Lu1 2.702086 1_555
B14 B15 1.709320 1_564
B14 B6 1.734500 1_554
B14 Lu3 2.700555 1_565
B14 Lu3 2.700555 1_665
B14 Lu2 2.702086 1_654
B14 Lu2 2.702086 1_554
B15 B7 1.734500 1_556
B15 Lu2 2.700555 1_645
B15 Lu2 2.700555 1_545
B15 Lu3 2.702086 1_656
B15 Lu3 2.702086 1_556
