# generated using pymatgen
data_Ac2CuIr
_symmetry_space_group_name_H-M   'P 1'
_cell_length_a   5.28018337
_cell_length_b   5.28018337
_cell_length_c   5.28018337
_cell_angle_alpha   60.00000000
_cell_angle_beta   60.00000000
_cell_angle_gamma   60.00000000
_symmetry_Int_Tables_number   1
_chemical_formula_structural   Ac2CuIr
_chemical_formula_sum   'Ac2 Cu1 Ir1'
_cell_volume   104.09551500
_cell_formula_units_Z   1
loop_
 _symmetry_equiv_pos_site_id
 _symmetry_equiv_pos_as_xyz
  1  'x, y, z'
loop_
 _atom_site_type_symbol
 _atom_site_label
 _atom_site_symmetry_multiplicity
 _atom_site_fract_x
 _atom_site_fract_y
 _atom_site_fract_z
 _atom_site_occupancy
  Ac  Ac0  1  0.50000000  0.50000000  0.50000000  1
  Ac  Ac1  1  0.00000000  -0.00000000  0.00000000  1
  Cu  Cu0  1  0.25000000  0.25000000  0.25000000  1
  Ir  Ir0  1  0.74999900  0.74999900  0.74999900  1
loop_
_geom_bond_atom_site_label_1
_geom_bond_atom_site_label_2
_geom_bond_distance
_geom_bond_site_symmetry_2
Ac0 Ir0 3.233426 1_555
Ac0 Cu0 3.233439 1_556
Ac0 Cu0 3.233439 1_555
Ac0 Cu0 3.233439 1_565
Ac0 Cu0 3.233439 1_655
Ac0 Ir0 3.233443 1_455
Ac0 Ir0 3.233443 1_554
Ac0 Ir0 3.233443 1_545
Ac1 Ir0 3.233434 1_445
Ac1 Ir0 3.233434 1_454
Ac1 Ir0 3.233434 1_544
Ac1 Cu0 3.233439 1_455
Ac1 Cu0 3.233439 1_554
Ac1 Cu0 3.233439 1_545
Ac1 Cu0 3.233439 1_555
Ac1 Ir0 3.233452 1_444
