# generated using pymatgen
data_Li4Mn3Cu3(WO8)2
_symmetry_space_group_name_H-M   'P 1'
_cell_length_a   5.96484568
_cell_length_b   5.96484568
_cell_length_c   9.90704677
_cell_angle_alpha   86.01170638
_cell_angle_beta   86.01170638
_cell_angle_gamma   59.32562467
_symmetry_Int_Tables_number   1
_chemical_formula_structural   Li4Mn3Cu3(WO8)2
_chemical_formula_sum   'Li4 Mn3 Cu3 W2 O16'
_cell_volume   302.19416497
_cell_formula_units_Z   1
loop_
 _symmetry_equiv_pos_site_id
 _symmetry_equiv_pos_as_xyz
  1  'x, y, z'
loop_
 _atom_site_type_symbol
 _atom_site_label
 _atom_site_symmetry_multiplicity
 _atom_site_fract_x
 _atom_site_fract_y
 _atom_site_fract_z
 _atom_site_occupancy
  Li  Li0  1  0.32937400  0.32937400  0.08587100  1
  Li  Li1  1  0.00294400  0.00294400  0.01343900  1
  Li  Li2  1  0.00102100  0.00102100  0.52028500  1
  Li  Li3  1  0.65430200  0.65430200  0.59219100  1
  Mn  Mn0  1  0.17177900  0.17177900  0.78341000  1
  Mn  Mn1  1  0.83323000  0.33762300  0.28676100  1
  Mn  Mn2  1  0.33762300  0.83323000  0.28676100  1
  Cu  Cu0  1  0.66541500  0.16872500  0.79023900  1
  Cu  Cu1  1  0.16872500  0.66541500  0.79023900  1
  Cu  Cu2  1  0.83173300  0.83173300  0.28711900  1
  W  W0  1  0.32903000  0.32903000  0.51569900  1
  W  W1  1  0.66701100  0.66701100  0.01194000  1
  O  O0  1  0.66319100  0.17814200  0.42021400  1
  O  O1  1  0.46883100  0.46883100  0.64657300  1
  O  O2  1  0.32624400  0.32624400  0.87640300  1
  O  O3  1  0.00762100  0.00762100  0.70745500  1
  O  O4  1  0.00528200  0.00528200  0.20313600  1
  O  O5  1  0.17814200  0.66319100  0.42021400  1
  O  O6  1  0.45231700  0.02408000  0.64825000  1
  O  O7  1  0.02408000  0.45231700  0.64825000  1
  O  O8  1  0.83971400  0.83971400  0.92123500  1
  O  O9  1  0.18036400  0.18036400  0.41174500  1
  O  O10  1  0.95922300  0.50332800  0.14563400  1
  O  O11  1  0.50332800  0.95922300  0.14563400  1
  O  O12  1  0.66113600  0.66113600  0.37964800  1
  O  O13  1  0.85907300  0.35406200  0.90927000  1
  O  O14  1  0.51174400  0.51174400  0.13420600  1
  O  O15  1  0.35406200  0.85907300  0.90927000  1
loop_
_geom_bond_atom_site_label_1
_geom_bond_atom_site_label_2
_geom_bond_distance
_geom_bond_site_symmetry_2
Li0 O10 1.966754 1_455
Li0 O11 1.966754 1_545
Li0 O14 1.987021 1_555
Li0 O2 2.078058 1_554
Li1 O4 1.881432 1_555
Li1 O8 1.986217 1_444
Li1 O13 2.043663 1_454
Li1 O15 2.043663 1_544
Li2 O3 1.861028 1_555
Li2 O0 2.029708 1_455
Li2 O5 2.029708 1_545
Li2 O9 2.071866 1_555
Li3 O1 1.954750 1_555
Li3 O6 1.997726 1_565
Li3 O7 1.997726 1_655
Li3 O12 2.101190 1_555
Mn0 O2 1.910205 1_555
Mn0 O3 1.914961 1_555
Mn0 O6 1.928096 1_555
Mn0 O7 1.928096 1_555
Mn0 O15 2.002971 1_545
Mn0 O13 2.002971 1_455
Mn1 O4 1.924521 1_655
Mn1 O12 1.928427 1_555
Mn1 O10 1.978907 1_555
Mn1 O0 2.074757 1_555
Mn1 O9 2.216713 1_655
Mn1 O14 2.278789 1_555
Mn2 O4 1.924521 1_565
Mn2 O12 1.928427 1_555
Mn2 O11 1.978907 1_555
Mn2 O5 2.074757 1_555
Mn2 O9 2.216713 1_565
Mn2 O14 2.278789 1_555
Cu0 O2 1.906906 1_555
Cu0 O3 1.907352 1_655
Cu0 O1 2.083564 1_555
Cu0 O8 2.090014 1_545
Cu0 O13 2.370846 1_555
Cu0 O6 2.423919 1_555
Cu1 O2 1.906906 1_555
Cu1 O3 1.907352 1_565
Cu1 O1 2.083564 1_555
Cu1 O8 2.090014 1_455
Cu1 O15 2.370846 1_555
Cu1 O7 2.423919 1_555
Cu2 O4 1.920751 1_665
Cu2 O12 1.925688 1_555
Cu2 O5 2.256976 1_655
Cu2 O0 2.256976 1_565
Cu2 O10 2.256999 1_555
Cu2 O11 2.256999 1_555
O0 W0 1.924470 1_555
O1 W0 2.020436 1_555
O5 W0 1.924470 1_555
O6 W0 2.002792 1_555
O7 W0 2.002792 1_555
O8 W1 1.937818 1_556
O9 W0 1.920881 1_555
O10 W1 2.037288 1_555
O11 W1 2.037288 1_555
O13 W1 1.936918 1_556
O14 W1 1.935402 1_555
O15 W1 1.936918 1_556
