# generated using pymatgen
data_Pm2NiIr
_symmetry_space_group_name_H-M   'P 1'
_cell_length_a   4.92058663
_cell_length_b   4.92058663
_cell_length_c   4.92058663
_cell_angle_alpha   60.00000000
_cell_angle_beta   60.00000000
_cell_angle_gamma   60.00000000
_symmetry_Int_Tables_number   1
_chemical_formula_structural   Pm2NiIr
_chemical_formula_sum   'Pm2 Ni1 Ir1'
_cell_volume   84.24335369
_cell_formula_units_Z   1
loop_
 _symmetry_equiv_pos_site_id
 _symmetry_equiv_pos_as_xyz
  1  'x, y, z'
loop_
 _atom_site_type_symbol
 _atom_site_label
 _atom_site_symmetry_multiplicity
 _atom_site_fract_x
 _atom_site_fract_y
 _atom_site_fract_z
 _atom_site_occupancy
  Pm  Pm0  1  0.00000000  0.00000000  -0.00000000  1
  Pm  Pm1  1  0.50000000  0.50000000  0.50000000  1
  Ni  Ni0  1  0.75000100  0.75000100  0.75000100  1
  Ir  Ir0  1  0.25000100  0.25000100  0.25000100  1
loop_
_geom_bond_atom_site_label_1
_geom_bond_atom_site_label_2
_geom_bond_distance
_geom_bond_site_symmetry_2
Ni0 Pm0 3.013220 1_666
Ni0 Pm1 3.013228 1_565
Ni0 Pm1 3.013228 1_655
Ni0 Pm1 3.013228 1_556
Ni0 Pm0 3.013236 1_656
Ni0 Pm0 3.013236 1_566
Ni0 Pm0 3.013236 1_665
Ni0 Pm1 3.013244 1_555
Ir0 Pm1 3.013220 1_555
Ir0 Pm0 3.013228 1_556
Ir0 Pm0 3.013228 1_565
Ir0 Pm0 3.013228 1_655
Ir0 Pm1 3.013236 1_554
Ir0 Pm1 3.013236 1_545
Ir0 Pm1 3.013236 1_455
Ir0 Pm0 3.013244 1_555
