# generated using pymatgen
data_NaFe11O17
_symmetry_space_group_name_H-M   'P 1'
_cell_length_a   6.00646900
_cell_length_b   6.00722024
_cell_length_c   23.77253250
_cell_angle_alpha   90.01789015
_cell_angle_beta   90.17571111
_cell_angle_gamma   119.92745840
_symmetry_Int_Tables_number   1
_chemical_formula_structural   NaFe11O17
_chemical_formula_sum   'Na2 Fe22 O34'
_cell_volume   743.38338096
_cell_formula_units_Z   2
loop_
 _symmetry_equiv_pos_site_id
 _symmetry_equiv_pos_as_xyz
  1  'x, y, z'
loop_
 _atom_site_type_symbol
 _atom_site_label
 _atom_site_symmetry_multiplicity
 _atom_site_fract_x
 _atom_site_fract_y
 _atom_site_fract_z
 _atom_site_occupancy
  Na  Na0  1  0.33311100  0.66650200  0.74916800  1
  Na  Na1  1  0.66619500  0.33352900  0.25005100  1
  Fe  Fe0  1  0.66594800  0.83354600  0.60680100  1
  Fe  Fe1  1  0.66510100  0.83217300  0.89452000  1
  Fe  Fe2  1  0.33202300  0.66688800  0.17446600  1
  Fe  Fe3  1  0.33468700  0.66704600  0.02552400  1
  Fe  Fe4  1  0.00260900  0.00134400  0.00038300  1
  Fe  Fe5  1  0.00017100  0.00031300  0.50002800  1
  Fe  Fe6  1  0.33395600  0.66701900  0.32478200  1
  Fe  Fe7  1  0.33419000  0.66668400  0.47412300  1
  Fe  Fe8  1  0.16756000  0.83323800  0.60657900  1
  Fe  Fe9  1  0.16733900  0.83219600  0.89445500  1
  Fe  Fe10  1  0.82859700  0.66322800  0.10295100  1
  Fe  Fe11  1  0.83323000  0.66605100  0.39320100  1
  Fe  Fe12  1  0.16755400  0.33443500  0.60685100  1
  Fe  Fe13  1  0.16642700  0.33269700  0.89462100  1
  Fe  Fe14  1  0.83342000  0.16749300  0.39349600  1
  Fe  Fe15  1  0.83593800  0.16778100  0.10624300  1
  Fe  Fe16  1  0.66787300  0.33508800  0.67426700  1
  Fe  Fe17  1  0.66613300  0.33285300  0.82501100  1
  Fe  Fe18  1  0.66588500  0.33384700  0.52581500  1
  Fe  Fe19  1  0.66736500  0.33473500  0.97471100  1
  Fe  Fe20  1  0.33442300  0.16739200  0.39308400  1
  Fe  Fe21  1  0.33152900  0.16406700  0.10615200  1
  O  O0  1  0.69568600  0.84533800  0.05016600  1
  O  O1  1  0.50373900  0.00917700  0.35240300  1
  O  O2  1  0.49285900  0.98471200  0.64912200  1
  O  O3  1  0.50934700  0.01365600  0.14718700  1
  O  O4  1  0.69281900  0.84680100  0.45018700  1
  O  O5  1  0.49306800  0.98724000  0.85290900  1
  O  O6  1  0.15397400  0.84589400  0.45025200  1
  O  O7  1  0.33210600  0.66597200  0.25037700  1
  O  O8  1  0.99553300  0.98792800  0.14274600  1
  O  O9  1  0.99853400  0.99920300  0.35515000  1
  O  O10  1  0.00071200  0.00035300  0.64482400  1
  O  O11  1  0.99857700  0.99811500  0.85646600  1
  O  O12  1  0.33235600  0.66563800  0.55557400  1
  O  O13  1  0.33474100  0.66839100  0.94539500  1
  O  O14  1  0.16293200  0.85082500  0.04855900  1
  O  O15  1  0.84649900  0.69261900  0.54981500  1
  O  O16  1  0.84668000  0.69340900  0.95106600  1
  O  O17  1  0.98653200  0.49922000  0.14648800  1
  O  O18  1  0.99206900  0.49637500  0.35148400  1
  O  O19  1  0.00938900  0.50536800  0.64852700  1
  O  O20  1  0.01174800  0.50503400  0.85278200  1
  O  O21  1  0.15404500  0.30893900  0.04959200  1
  O  O22  1  0.15357800  0.30783600  0.45024600  1
  O  O23  1  0.49612900  0.48721600  0.14793200  1
  O  O24  1  0.50380700  0.49405600  0.35080200  1
  O  O25  1  0.49609500  0.50809300  0.64882000  1
  O  O26  1  0.66719500  0.33462900  0.44438400  1
  O  O27  1  0.49270600  0.50462300  0.85274300  1
  O  O28  1  0.66539200  0.33170300  0.74928700  1
  O  O29  1  0.67160200  0.34124000  0.05557900  1
  O  O30  1  0.84695800  0.15516000  0.95107400  1
  O  O31  1  0.84578500  0.15465000  0.54988600  1
  O  O32  1  0.30806700  0.15659800  0.95097000  1
  O  O33  1  0.30757500  0.15374500  0.54992100  1
loop_
_geom_bond_atom_site_label_1
_geom_bond_atom_site_label_2
_geom_bond_distance
_geom_bond_site_symmetry_2
Na0 O2 2.901370 1_555
Na0 O25 2.914973 1_555
Na0 O19 2.921263 1_555
Na0 O27 2.973945 1_555
Na0 O5 2.975382 1_555
Na0 O20 2.982683 1_555
Na1 O24 2.927322 1_555
Na1 O18 2.943070 1_555
Na1 O23 2.952352 1_555
Na1 O3 2.955705 1_555
Na1 O1 2.964684 1_555
Na1 O17 2.978879 1_555
Fe0 O10 1.960126 1_665
Fe0 O2 1.966104 1_555
Fe0 O25 1.969310 1_555
Fe0 O12 2.117289 1_555
Fe0 O31 2.156343 1_565
Fe0 O15 2.156936 1_555
Fe1 O11 1.960484 1_555
Fe1 O5 1.966907 1_555
Fe1 O27 1.972239 1_555
Fe1 O13 2.106088 1_555
Fe1 O16 2.142482 1_555
Fe1 O30 2.154038 1_565
Fe2 O7 1.804606 1_555
Fe2 O23 1.897204 1_555
Fe2 O17 1.915405 1_455
Fe2 O3 1.919781 1_565
Fe3 O13 1.904889 1_554
Fe3 O14 1.929375 1_555
Fe3 O21 1.951406 1_555
Fe3 O0 1.966339 1_555
Fe4 O14 1.979704 1_545
Fe4 O32 1.980506 1_554
Fe4 O21 1.981224 1_555
Fe4 O16 1.984127 1_444
Fe4 O30 1.989429 1_454
Fe4 O0 1.991892 1_445
Fe5 O4 1.987351 1_445
Fe5 O33 1.988302 1_555
Fe5 O22 1.992958 1_555
Fe5 O15 1.993748 1_445
Fe5 O6 1.993796 1_545
Fe5 O31 1.997055 1_455
Fe6 O7 1.768786 1_555
Fe6 O24 1.886064 1_555
Fe6 O18 1.891748 1_455
Fe6 O1 1.897214 1_565
Fe7 O12 1.936356 1_555
Fe7 O22 1.951420 1_555
Fe7 O6 1.952461 1_555
Fe7 O4 1.953692 1_555
Fe8 O10 1.961540 1_565
Fe8 O2 1.970234 1_555
Fe8 O19 1.978948 1_555
Fe8 O12 2.112972 1_555
Fe8 O15 2.147392 1_455
Fe8 O33 2.149726 1_565
Fe9 O11 1.959487 1_455
Fe9 O5 1.965946 1_555
Fe9 O20 1.969210 1_555
Fe9 O13 2.103873 1_555
Fe9 O16 2.151783 1_455
Fe9 O32 2.159842 1_565
Fe10 O8 1.935590 1_555
Fe10 O17 1.966968 1_555
Fe10 O29 2.017655 1_555
Fe10 O23 2.038679 1_555
Fe10 O0 2.067573 1_555
Fe10 O14 2.175638 1_655
Fe11 O9 1.957870 1_555
Fe11 O18 1.976909 1_555
Fe11 O24 1.986404 1_555
Fe11 O26 2.113440 1_555
Fe11 O6 2.150443 1_655
Fe11 O4 2.155293 1_555
Fe12 O10 1.961310 1_555
Fe12 O25 1.977639 1_555
Fe12 O19 1.979137 1_555
Fe12 O12 2.113786 1_555
Fe12 O33 2.152694 1_555
Fe12 O31 2.153109 1_455
Fe13 O11 1.962200 1_445
Fe13 O20 1.969499 1_555
Fe13 O27 1.972695 1_555
Fe13 O13 2.121876 1_555
Fe13 O32 2.128189 1_555
Fe13 O30 2.143657 1_455
Fe14 O9 1.960094 1_545
Fe14 O1 1.971919 1_555
Fe14 O18 1.984270 1_555
Fe14 O26 2.115483 1_555
Fe14 O22 2.143481 1_655
Fe14 O4 2.150811 1_545
Fe15 O3 1.962843 1_555
Fe15 O8 1.966759 1_545
Fe15 O17 1.973372 1_555
Fe15 O29 2.128494 1_555
Fe15 O21 2.140879 1_655
Fe15 O0 2.145238 1_545
Fe16 O28 1.783561 1_555
Fe16 O19 1.882291 1_655
Fe16 O25 1.891333 1_555
Fe16 O2 1.918365 1_545
Fe17 O28 1.800146 1_555
Fe17 O27 1.913313 1_555
Fe17 O20 1.914116 1_655
Fe17 O5 1.918994 1_545
Fe18 O26 1.935859 1_555
Fe18 O15 1.951889 1_555
Fe18 O31 1.952205 1_555
Fe18 O33 1.953303 1_555
Fe19 O29 1.922654 1_556
Fe19 O16 1.951244 1_555
Fe19 O30 1.951288 1_555
Fe19 O32 1.951644 1_555
Fe20 O1 1.960300 1_555
Fe20 O9 1.964362 1_445
Fe20 O24 1.977780 1_555
Fe20 O26 2.114788 1_555
Fe20 O22 2.158945 1_555
Fe20 O6 2.161866 1_545
Fe21 O23 1.951938 1_555
Fe21 O8 1.957015 1_445
Fe21 O3 1.966178 1_555
Fe21 O14 2.128234 1_545
Fe21 O29 2.144098 1_555
Fe21 O21 2.149278 1_555
