# generated using pymatgen
data_LiMn2(BO3)2
_symmetry_space_group_name_H-M   'P 1'
_cell_length_a   5.30960959
_cell_length_b   6.18441930
_cell_length_c   7.67336851
_cell_angle_alpha   81.47720303
_cell_angle_beta   87.88566152
_cell_angle_gamma   87.76594405
_symmetry_Int_Tables_number   1
_chemical_formula_structural   LiMn2(BO3)2
_chemical_formula_sum   'Li2 Mn4 B4 O12'
_cell_volume   248.87389227
_cell_formula_units_Z   2
loop_
 _symmetry_equiv_pos_site_id
 _symmetry_equiv_pos_as_xyz
  1  'x, y, z'
loop_
 _atom_site_type_symbol
 _atom_site_label
 _atom_site_symmetry_multiplicity
 _atom_site_fract_x
 _atom_site_fract_y
 _atom_site_fract_z
 _atom_site_occupancy
  Li  Li0  1  0.90465400  0.63857100  0.69613800  1
  Li  Li1  1  0.09534900  0.36142900  0.30386100  1
  Mn  Mn0  1  0.59466900  0.56508100  0.17738700  1
  Mn  Mn1  1  0.90714800  0.93141800  0.31735300  1
  Mn  Mn2  1  0.40533500  0.43492100  0.82263600  1
  Mn  Mn3  1  0.09284200  0.06858200  0.68264600  1
  B  B0  1  0.41409600  0.73863600  0.49177400  1
  B  B1  1  0.58590700  0.26136000  0.50822800  1
  B  B2  1  0.92698000  0.28162700  0.99501400  1
  B  B3  1  0.07301600  0.71837500  0.00498000  1
  O  O0  1  0.32568600  0.64459300  0.98609000  1
  O  O1  1  0.67430900  0.35541100  0.01390600  1
  O  O2  1  0.94717100  0.83341800  0.87162100  1
  O  O3  1  0.05282000  0.16658500  0.12837700  1
  O  O4  1  0.04257300  0.35058300  0.82861400  1
  O  O5  1  0.95742700  0.64941800  0.17138200  1
  O  O6  1  0.16257900  0.79741500  0.51847300  1
  O  O7  1  0.83742700  0.20258000  0.48152700  1
  O  O8  1  0.56134000  0.64295000  0.62823900  1
  O  O9  1  0.43866800  0.35704700  0.37175600  1
  O  O10  1  0.53273300  0.79319600  0.32300200  1
  O  O11  1  0.46727000  0.20680500  0.67699700  1
loop_
_geom_bond_atom_site_label_1
_geom_bond_atom_site_label_2
_geom_bond_distance
_geom_bond_site_symmetry_2
Li0 O8 1.912346 1_555
Li0 O2 1.959796 1_555
Li0 O4 2.039193 1_655
Li0 O6 2.066211 1_655
Li1 O9 1.912361 1_555
Li1 O3 1.959799 1_555
Li1 O5 2.039212 1_455
Li1 O7 2.066218 1_455
Mn0 O10 1.936704 1_555
Mn0 O1 1.958087 1_555
Mn0 O9 1.997243 1_555
Mn0 O5 2.012135 1_555
Mn0 O0 2.079000 1_554
Mn1 O3 2.048417 1_665
Mn1 O6 2.143730 1_655
Mn1 O10 2.190864 1_555
Mn1 O5 2.210899 1_555
Mn1 O7 2.253818 1_565
Mn2 O11 1.936833 1_555
Mn2 O0 1.957953 1_555
Mn2 O8 1.997371 1_555
Mn2 O4 2.012168 1_555
Mn2 O1 2.078820 1_556
Mn3 O2 2.048399 1_445
Mn3 O7 2.143662 1_455
Mn3 O11 2.190930 1_555
Mn3 O4 2.210887 1_555
Mn3 O6 2.253848 1_545
B0 O8 1.377893 1_555
B0 O6 1.386217 1_555
B0 O10 1.419386 1_555
B1 O9 1.377918 1_555
B1 O7 1.386236 1_555
B1 O11 1.419362 1_555
B2 O3 1.340687 1_656
B2 O1 1.409472 1_556
B2 O4 1.410702 1_655
B3 O2 1.340682 1_454
B3 O0 1.409462 1_554
B3 O5 1.410708 1_455
