# generated using pymatgen
data_GaFeO3
_symmetry_space_group_name_H-M   'P 1'
_cell_length_a   5.16462200
_cell_length_b   8.85977321
_cell_length_c   9.53169730
_cell_angle_alpha   89.96400447
_cell_angle_beta   89.88732827
_cell_angle_gamma   89.93213573
_symmetry_Int_Tables_number   1
_chemical_formula_structural   GaFeO3
_chemical_formula_sum   'Ga8 Fe8 O24'
_cell_volume   436.14425735
_cell_formula_units_Z   8
loop_
 _symmetry_equiv_pos_site_id
 _symmetry_equiv_pos_as_xyz
  1  'x, y, z'
loop_
 _atom_site_type_symbol
 _atom_site_label
 _atom_site_symmetry_multiplicity
 _atom_site_fract_x
 _atom_site_fract_y
 _atom_site_fract_z
 _atom_site_occupancy
  Ga  Ga0  1  0.32298300  0.96630800  0.79675400  1
  Ga  Ga1  1  0.82440100  0.84694900  0.99890600  1
  Ga  Ga2  1  0.18574100  0.83905400  0.30598600  1
  Ga  Ga3  1  0.68529100  0.66143700  0.30596100  1
  Ga  Ga4  1  0.32361100  0.65364800  0.99881300  1
  Ga  Ga5  1  0.67532800  0.34819500  0.49914400  1
  Ga  Ga6  1  0.31307800  0.33930400  0.80650400  1
  Ga  Ga7  1  0.17694400  0.15264800  0.50000700  1
  Fe  Fe0  1  0.81205700  0.84816800  0.58278300  1
  Fe  Fe1  1  0.31006600  0.65316400  0.58317500  1
  Fe  Fe2  1  0.82358200  0.53092100  0.79764300  1
  Fe  Fe3  1  0.17555000  0.46938800  0.29780100  1
  Fe  Fe4  1  0.69006300  0.34844800  0.08233300  1
  Fe  Fe5  1  0.81238700  0.16044600  0.80731000  1
  Fe  Fe6  1  0.19109700  0.15157300  0.08279000  1
  Fe  Fe7  1  0.67552700  0.03037600  0.29821600  1
  O  O0  1  0.64783400  0.99793300  0.70314100  1
  O  O1  1  0.98631700  0.98917800  0.43229800  1
  O  O2  1  0.84615700  0.83944500  0.19662800  1
  O  O3  1  0.15375300  0.83072100  0.67309500  1
  O  O4  1  0.48471700  0.83204200  0.93845900  1
  O  O5  1  0.52522600  0.82353700  0.42239100  1
  O  O6  1  0.02495200  0.67859600  0.42381700  1
  O  O7  1  0.98442800  0.66877200  0.93972000  1
  O  O8  1  0.65380900  0.67017500  0.67106700  1
  O  O9  1  0.34600900  0.66110900  0.19648600  1
  O  O10  1  0.48589100  0.51219200  0.43139600  1
  O  O11  1  0.15488300  0.49767100  0.70148800  1
  O  O12  1  0.84401700  0.50210000  0.20298600  1
  O  O13  1  0.51288100  0.48910100  0.93178300  1
  O  O14  1  0.65234600  0.34107900  0.69643500  1
  O  O15  1  0.34667900  0.33022000  0.17213600  1
  O  O16  1  0.01514400  0.33052100  0.44021500  1
  O  O17  1  0.97871100  0.32566300  0.92540300  1
  O  O18  1  0.47383700  0.17751600  0.92406900  1
  O  O19  1  0.51562600  0.16964400  0.43990000  1
  O  O20  1  0.84537400  0.16848800  0.17001400  1
  O  O21  1  0.15689300  0.15828800  0.69765600  1
  O  O22  1  0.02280200  0.00792600  0.93078300  1
  O  O23  1  0.34400800  0.99805300  0.20290900  1
loop_
_geom_bond_atom_site_label_1
_geom_bond_atom_site_label_2
_geom_bond_distance
_geom_bond_site_symmetry_2
Ga0 O3 1.898564 1_555
Ga0 O0 1.919476 1_555
Ga0 O4 1.984241 1_555
Ga0 O22 2.040336 1_565
Ga0 O21 2.125745 1_565
Ga0 O18 2.364587 1_565
Ga1 O4 1.852494 1_555
Ga1 O7 1.868026 1_555
Ga1 O22 1.872258 1_665
Ga1 O2 1.889317 1_556
Ga2 O23 1.901494 1_555
Ga2 O6 1.992269 1_555
Ga2 O2 2.041962 1_455
Ga2 O9 2.062905 1_555
Ga2 O1 2.067195 1_455
Ga2 O5 2.081097 1_555
Ga3 O12 1.903708 1_555
Ga3 O5 1.993278 1_555
Ga3 O9 2.041200 1_555
Ga3 O10 2.057871 1_555
Ga3 O2 2.064266 1_555
Ga3 O6 2.090683 1_655
Ga4 O7 1.845827 1_455
Ga4 O13 1.866652 1_555
Ga4 O4 1.876544 1_555
Ga4 O9 1.889137 1_556
Ga5 O16 1.848162 1_655
Ga5 O10 1.866356 1_555
Ga5 O19 1.872885 1_555
Ga5 O14 1.885047 1_555
Ga6 O11 1.907064 1_555
Ga6 O18 1.999633 1_555
Ga6 O14 2.040573 1_555
Ga6 O13 2.064513 1_555
Ga6 O17 2.067301 1_455
Ga6 O21 2.075470 1_555
Ga7 O19 1.845824 1_555
Ga7 O1 1.868271 1_445
Ga7 O16 1.871958 1_555
Ga7 O21 1.887261 1_555
Fe0 O0 1.947178 1_555
Fe0 O8 1.965101 1_555
Fe0 O3 1.970876 1_655
Fe0 O1 2.103222 1_555
Fe0 O5 2.142297 1_555
Fe0 O6 2.398820 1_655
Fe1 O11 1.951687 1_555
Fe1 O3 1.963921 1_555
Fe1 O8 1.970507 1_555
Fe1 O10 2.114694 1_555
Fe1 O6 2.129282 1_555
Fe1 O5 2.419992 1_555
Fe2 O8 1.935535 1_555
Fe2 O11 1.961490 1_655
Fe2 O7 2.006135 1_555
Fe2 O13 2.083197 1_555
Fe2 O14 2.133219 1_555
Fe2 O17 2.330138 1_555
Fe3 O15 1.931644 1_555
Fe3 O12 1.958855 1_455
Fe3 O16 2.009621 1_555
Fe3 O10 2.084312 1_555
Fe3 O9 2.142663 1_555
Fe3 O6 2.340726 1_555
Fe4 O12 1.953483 1_555
Fe4 O20 1.970263 1_555
Fe4 O15 1.974444 1_555
Fe4 O13 2.109431 1_554
Fe4 O17 2.119305 1_554
Fe4 O18 2.414475 1_554
Fe5 O0 1.946596 1_545
Fe5 O17 2.038734 1_555
Fe5 O21 2.061825 1_655
Fe5 O18 2.076191 1_555
Fe5 O14 2.087923 1_555
Fe5 O22 2.095615 1_655
Fe6 O23 1.945153 1_545
Fe6 O15 1.970652 1_555
Fe6 O20 1.973694 1_455
Fe6 O18 2.113202 1_554
Fe6 O22 2.117627 1_554
Fe6 O17 2.414999 1_454
Fe7 O20 1.938159 1_555
Fe7 O23 1.961225 1_545
Fe7 O19 2.005885 1_555
Fe7 O1 2.085442 1_545
Fe7 O2 2.137966 1_545
Fe7 O5 2.314892 1_545
