# generated using pymatgen
data_Pm2IrAu
_symmetry_space_group_name_H-M   'P 1'
_cell_length_a   5.06646079
_cell_length_b   5.06646005
_cell_length_c   5.06646299
_cell_angle_alpha   59.99997142
_cell_angle_beta   60.00002387
_cell_angle_gamma   59.99996667
_symmetry_Int_Tables_number   1
_chemical_formula_structural   Pm2IrAu
_chemical_formula_sum   'Pm2 Ir1 Au1'
_cell_volume   91.96002066
_cell_formula_units_Z   1
loop_
 _symmetry_equiv_pos_site_id
 _symmetry_equiv_pos_as_xyz
  1  'x, y, z'
loop_
 _atom_site_type_symbol
 _atom_site_label
 _atom_site_symmetry_multiplicity
 _atom_site_fract_x
 _atom_site_fract_y
 _atom_site_fract_z
 _atom_site_occupancy
  Pm  Pm0  1  0.00000000  0.00000000  0.00000000  1
  Pm  Pm1  1  0.50000000  0.50000000  0.50000000  1
  Ir  Ir0  1  0.75000000  0.75000000  0.75000000  1
  Au  Au0  1  0.25000000  0.25000000  0.25000000  1
loop_
_geom_bond_atom_site_label_1
_geom_bond_atom_site_label_2
_geom_bond_distance
_geom_bond_site_symmetry_2
Ir0 Pm0 3.102559 1_656
Ir0 Pm1 3.102559 1_565
Ir0 Pm1 3.102561 1_655
Ir0 Pm0 3.102561 1_566
Ir0 Pm0 3.102562 1_666
Ir0 Pm1 3.102562 1_555
Ir0 Pm1 3.102562 1_556
Ir0 Pm0 3.102562 1_665
Au0 Pm0 3.102559 1_565
Au0 Pm1 3.102559 1_545
Au0 Pm0 3.102561 1_655
Au0 Pm1 3.102561 1_455
Au0 Pm0 3.102562 1_555
Au0 Pm1 3.102562 1_555
Au0 Pm1 3.102562 1_554
Au0 Pm0 3.102562 1_556
