# generated using pymatgen
data_CsAgPSe3
_symmetry_space_group_name_H-M   'P 1'
_cell_length_a   12.74327400
_cell_length_b   6.96519500
_cell_length_c   10.56677539
_cell_angle_alpha   56.01246389
_cell_angle_beta   90.00000000
_cell_angle_gamma   90.00000000
_symmetry_Int_Tables_number   1
_chemical_formula_structural   CsAgPSe3
_chemical_formula_sum   'Cs4 Ag4 P4 Se12'
_cell_volume   777.66884263
_cell_formula_units_Z   4
loop_
 _symmetry_equiv_pos_site_id
 _symmetry_equiv_pos_as_xyz
  1  'x, y, z'
loop_
 _atom_site_type_symbol
 _atom_site_label
 _atom_site_symmetry_multiplicity
 _atom_site_fract_x
 _atom_site_fract_y
 _atom_site_fract_z
 _atom_site_occupancy
  Cs  Cs0  1  0.16876600  0.26352800  0.48465100  1
  Cs  Cs1  1  0.66876600  0.73647200  0.01534900  1
  Cs  Cs2  1  0.83123400  0.73647200  0.51534900  1
  Cs  Cs3  1  0.33123400  0.26352800  0.98465100  1
  Ag  Ag0  1  0.05895400  0.68223600  0.86151800  1
  Ag  Ag1  1  0.55895400  0.31776400  0.63848200  1
  Ag  Ag2  1  0.94104600  0.31776400  0.13848200  1
  Ag  Ag3  1  0.44104600  0.68223600  0.36151800  1
  P  P0  1  0.46010800  0.85008900  0.61226400  1
  P  P1  1  0.96010800  0.14991100  0.88773600  1
  P  P2  1  0.53989200  0.14991100  0.38773600  1
  P  P3  1  0.03989200  0.85008900  0.11226400  1
  Se  Se0  1  0.32219700  0.74108400  0.54104800  1
  Se  Se1  1  0.82219700  0.25891600  0.95895200  1
  Se  Se2  1  0.67780300  0.25891600  0.45895200  1
  Se  Se3  1  0.17780300  0.74108400  0.04104800  1
  Se  Se4  1  0.41117800  0.99265900  0.74350100  1
  Se  Se5  1  0.91117800  0.00734100  0.75649900  1
  Se  Se6  1  0.58882200  0.00734100  0.25649900  1
  Se  Se7  1  0.08882200  0.99265900  0.24350100  1
  Se  Se8  1  0.57959600  0.57287700  0.74504800  1
  Se  Se9  1  0.07959600  0.42712300  0.75495200  1
  Se  Se10  1  0.42040400  0.42712300  0.25495200  1
  Se  Se11  1  0.92040400  0.57287700  0.24504800  1
loop_
_geom_bond_atom_site_label_1
_geom_bond_atom_site_label_2
_geom_bond_distance
_geom_bond_site_symmetry_2
Cs0 Se10 3.792142 1_555
Cs0 Se9 3.792919 1_555
Cs0 Se4 3.848904 1_545
Cs0 Se11 3.869178 1_455
Cs0 Se0 3.872372 1_545
Cs0 Se3 3.951911 1_555
Cs0 Se7 4.057767 1_545
Cs0 Se5 4.059532 1_455
Cs0 Se0 4.178309 1_555
Cs1 Se11 3.792142 1_555
Cs1 Se8 3.792919 1_554
Cs1 Se5 3.848904 1_564
Cs1 Se10 3.869178 1_555
Cs1 Se1 3.872372 1_564
Cs1 Se2 3.951911 1_555
Cs1 Se6 4.057767 1_565
Cs1 Se4 4.059532 1_554
Cs1 Se1 4.178309 1_554
Cs2 Se8 3.792142 1_555
Cs2 Se11 3.792919 1_555
Cs2 Se6 3.848904 1_565
Cs2 Se9 3.869178 1_655
Cs2 Se2 3.872372 1_565
Cs2 Se1 3.951911 1_555
Cs2 Se5 4.057767 1_565
Cs2 Se7 4.059532 1_655
Cs2 Se2 4.178309 1_555
Cs3 Se9 3.792142 1_555
Cs3 Se10 3.792919 1_556
Cs3 Se7 3.848904 1_546
Cs3 Se8 3.869178 1_555
Cs3 Se3 3.872372 1_546
Cs3 Se0 3.951911 1_555
Cs3 Se4 4.057767 1_545
Cs3 Se6 4.059532 1_556
Cs3 Se3 4.178309 1_556
Ag0 Se9 2.594549 1_555
Ag0 Se3 2.632481 1_556
Ag0 Se5 2.663809 1_465
Ag0 Cs0 4.022827 1_565
Ag1 Se8 2.594549 1_555
Ag1 Se2 2.632481 1_555
Ag1 Se4 2.663809 1_545
Ag1 Cs1 4.022827 1_546
Ag2 Se11 2.594549 1_555
Ag2 Se1 2.632481 1_554
Ag2 Se7 2.663809 1_645
Ag2 Cs2 4.022827 1_545
Ag3 Se10 2.594549 1_555
Ag3 Se0 2.632481 1_555
Ag3 Se6 2.663809 1_565
Ag3 Cs3 4.022827 1_564
P0 Se4 2.199451 1_555
P0 Se0 2.206832 1_555
P0 Se8 2.233032 1_555
P0 P2 2.341863 1_565
P1 Se5 2.199451 1_555
P1 Se1 2.206832 1_555
P1 Se9 2.233032 1_655
P1 P3 2.341863 1_646
P2 Se6 2.199451 1_555
P2 Se2 2.206832 1_555
P2 Se10 2.233032 1_555
P3 Se7 2.199451 1_555
P3 Se3 2.206832 1_555
P3 Se11 2.233032 1_455
