# generated using pymatgen
data_PbCl2
_symmetry_space_group_name_H-M   'P 1'
_cell_length_a   6.74784753
_cell_length_b   6.74784753
_cell_length_c   4.43477120
_cell_angle_alpha   90.00000000
_cell_angle_beta   90.00000000
_cell_angle_gamma   90.00000000
_symmetry_Int_Tables_number   1
_chemical_formula_structural   PbCl2
_chemical_formula_sum   'Pb2 Cl4'
_cell_volume   201.93041624
_cell_formula_units_Z   2
loop_
 _symmetry_equiv_pos_site_id
 _symmetry_equiv_pos_as_xyz
  1  'x, y, z'
loop_
 _atom_site_type_symbol
 _atom_site_label
 _atom_site_symmetry_multiplicity
 _atom_site_fract_x
 _atom_site_fract_y
 _atom_site_fract_z
 _atom_site_occupancy
  Pb  Pb0  1  -0.00000000  0.00000000  -0.00000000  1
  Pb  Pb1  1  0.50000000  0.50000000  0.50000100  1
  Cl  Cl0  1  0.30290689  0.30290689  0.00000000  1
  Cl  Cl1  1  0.69709311  0.69709311  0.00000000  1
  Cl  Cl2  1  0.80290689  0.19709111  0.50000100  1
  Cl  Cl3  1  0.19709111  0.80290689  0.50000100  1
loop_
_geom_bond_atom_site_label_1
_geom_bond_atom_site_label_2
_geom_bond_distance
_geom_bond_site_symmetry_2
Cl0 Pb0 2.890609 1_555
Cl0 Pb1 2.907634 1_554
Cl0 Pb1 2.907641 1_555
Cl1 Pb0 2.890609 1_665
Cl1 Pb1 2.907634 1_554
Cl1 Pb1 2.907641 1_555
Cl2 Pb1 2.890619 1_555
Cl2 Pb0 2.907628 1_656
Cl2 Pb0 2.907635 1_655
Cl3 Pb1 2.890619 1_555
Cl3 Pb0 2.907628 1_566
Cl3 Pb0 2.907635 1_565
