# generated using pymatgen
data_YbErPd2
_symmetry_space_group_name_H-M   'P 1'
_cell_length_a   4.90367522
_cell_length_b   4.90367522
_cell_length_c   4.90367522
_cell_angle_alpha   60.00000000
_cell_angle_beta   60.00000000
_cell_angle_gamma   60.00000000
_symmetry_Int_Tables_number   1
_chemical_formula_structural   YbErPd2
_chemical_formula_sum   'Yb1 Er1 Pd2'
_cell_volume   83.37773570
_cell_formula_units_Z   1
loop_
 _symmetry_equiv_pos_site_id
 _symmetry_equiv_pos_as_xyz
  1  'x, y, z'
loop_
 _atom_site_type_symbol
 _atom_site_label
 _atom_site_symmetry_multiplicity
 _atom_site_fract_x
 _atom_site_fract_y
 _atom_site_fract_z
 _atom_site_occupancy
  Yb  Yb0  1  0.00000000  0.00000000  0.00000000  1
  Er  Er0  1  0.50000000  0.50000000  0.50000000  1
  Pd  Pd0  1  0.25000000  0.25000000  0.25000000  1
  Pd  Pd1  1  0.75000000  0.75000000  0.75000000  1
loop_
_geom_bond_atom_site_label_1
_geom_bond_atom_site_label_2
_geom_bond_distance
_geom_bond_site_symmetry_2
Er0 Pd1 3.002876 1_554
Er0 Pd0 3.002876 1_555
Er0 Pd1 3.002876 1_555
Er0 Pd0 3.002876 1_556
Er0 Pd0 3.002876 1_655
Er0 Pd1 3.002876 1_545
Er0 Pd1 3.002876 1_455
Er0 Pd0 3.002876 1_565
Pd0 Yb0 3.002876 1_555
Pd0 Yb0 3.002876 1_556
Pd0 Yb0 3.002876 1_655
Pd0 Yb0 3.002876 1_565
Pd1 Yb0 3.002876 1_666
Pd1 Yb0 3.002876 1_665
Pd1 Yb0 3.002876 1_566
Pd1 Yb0 3.002876 1_656
