# generated using pymatgen
data_Na2Hf2O5
_symmetry_space_group_name_H-M   'P 1'
_cell_length_a   7.94834719
_cell_length_b   3.94986172
_cell_length_c   3.94986172
_cell_angle_alpha   90.00000000
_cell_angle_beta   90.00000000
_cell_angle_gamma   90.00000000
_symmetry_Int_Tables_number   1
_chemical_formula_structural   Na2Hf2O5
_chemical_formula_sum   'Na2 Hf2 O5'
_cell_volume   124.00540431
_cell_formula_units_Z   1
loop_
 _symmetry_equiv_pos_site_id
 _symmetry_equiv_pos_as_xyz
  1  'x, y, z'
loop_
 _atom_site_type_symbol
 _atom_site_label
 _atom_site_symmetry_multiplicity
 _atom_site_fract_x
 _atom_site_fract_y
 _atom_site_fract_z
 _atom_site_occupancy
  Na  Na0  1  0.00000000  -0.00000000  -0.00000000  1
  Na  Na1  1  0.50000000  -0.00000000  -0.00000000  1
  Hf  Hf0  1  0.25163683  0.50000000  0.50000000  1
  Hf  Hf1  1  0.74836417  0.50000000  0.50000000  1
  O  O0  1  0.19948253  0.50000000  0.00000000  1
  O  O1  1  0.80051647  0.50000000  0.00000000  1
  O  O2  1  0.50000000  0.50000000  0.50000000  1
  O  O3  1  0.19948253  -0.00000000  0.50000000  1
  O  O4  1  0.80051647  0.00000000  0.50000000  1
loop_
_geom_bond_atom_site_label_1
_geom_bond_atom_site_label_2
_geom_bond_distance
_geom_bond_site_symmetry_2
Na0 O0 2.532655 1_545
Na0 O3 2.532655 1_555
Na0 O0 2.532655 1_555
Na0 O3 2.532655 1_554
Na0 O4 2.532660 1_454
Na0 O1 2.532660 1_445
Na0 O4 2.532660 1_455
Na0 O1 2.532660 1_455
Na1 O2 2.792974 1_544
Na1 O2 2.792974 1_545
Na1 O2 2.792974 1_555
Na1 O2 2.792974 1_554
Hf0 O2 1.974077 1_555
Hf0 O3 2.017968 1_555
Hf0 O0 2.017968 1_555
Hf0 O0 2.017968 1_556
Hf0 O3 2.017968 1_565
Hf1 O2 1.974085 1_555
Hf1 O4 2.017965 1_555
Hf1 O1 2.017965 1_555
Hf1 O1 2.017965 1_556
Hf1 O4 2.017965 1_565
