# generated using pymatgen
data_H7SIO10
_symmetry_space_group_name_H-M   'P 1'
_cell_length_a   14.05958937
_cell_length_b   14.05958937
_cell_length_c   14.05958937
_cell_angle_alpha   96.16732564
_cell_angle_beta   96.16732564
_cell_angle_gamma   141.73318461
_symmetry_Int_Tables_number   1
_chemical_formula_structural   H7SIO10
_chemical_formula_sum   'H56 S8 I8 O80'
_cell_volume   1626.13523599
_cell_formula_units_Z   8
loop_
 _symmetry_equiv_pos_site_id
 _symmetry_equiv_pos_as_xyz
  1  'x, y, z'
loop_
 _atom_site_type_symbol
 _atom_site_label
 _atom_site_symmetry_multiplicity
 _atom_site_fract_x
 _atom_site_fract_y
 _atom_site_fract_z
 _atom_site_occupancy
  H  H0  1  0.58555700  0.73456200  0.26174300  1
  H  H1  1  0.04532400  0.17010100  0.27356800  1
  H  H2  1  0.04625100  0.17097200  0.44164700  1
  H  H3  1  0.56549600  0.69767300  0.44968200  1
  H  H4  1  0.42010100  0.64653300  0.62477800  1
  H  H5  1  0.36581400  0.31549600  0.36782400  1
  H  H6  1  0.98456200  0.22282000  0.64900500  1
  H  H7  1  0.85460400  0.79625100  0.37528000  1
  H  H8  1  0.42097200  0.47932500  0.62472000  1
  H  H9  1  0.57381500  0.33555700  0.35099500  1
  H  H10  1  0.94767300  0.99799100  0.63217600  1
  H  H11  1  0.02175600  0.79532400  0.37522200  1
  H  H12  1  0.24799100  0.11581400  0.55031800  1
  H  H13  1  0.72932500  0.60460400  0.55835300  1
  H  H14  1  0.23121800  0.85527800  0.30292100  1
  H  H15  1  0.69764300  0.82170300  0.80292100  1
  H  H16  1  0.63266800  0.16880500  0.31608000  1
  H  H17  1  0.39727500  0.43341300  0.81608000  1
  H  H18  1  0.12551000  0.19982300  0.87570200  1
  H  H19  1  0.92587900  0.50019200  0.37570200  1
  H  H20  1  0.89653300  0.77175600  0.72643200  1
  H  H21  1  0.68341300  0.36733200  0.53613700  1
  H  H22  1  0.41880500  0.60272500  0.03613700  1
  H  H23  1  0.47282000  0.32381500  0.73825700  1
  H  H24  1  0.07170300  0.76878200  0.62406000  1
  H  H25  1  0.10527800  0.30235700  0.12406000  1
  H  H26  1  0.75019200  0.87449000  0.07431300  1
  H  H27  1  0.44982300  0.07412100  0.57431300  1
  H  H28  1  0.80017700  0.67587900  0.92568700  1
  H  H29  1  0.49980800  0.87551000  0.42568700  1
  H  H30  1  0.17829700  0.98121800  0.87594000  1
  H  H31  1  0.14472200  0.44764300  0.37594000  1
  H  H32  1  0.77718000  0.42618500  0.76174300  1
  H  H33  1  0.83119500  0.14727500  0.46386300  1
  H  H34  1  0.56658700  0.38266800  0.96386300  1
  H  H35  1  0.35346700  0.97824400  0.77356800  1
  H  H36  1  0.12449000  0.55017700  0.62429800  1
  H  H37  1  0.32412100  0.24980800  0.12429800  1
  H  H38  1  0.61733200  0.58119500  0.18392000  1
  H  H39  1  0.85272500  0.31658700  0.68392000  1
  H  H40  1  0.01878200  0.89472200  0.19707900  1
  H  H41  1  0.55235700  0.92829700  0.69707900  1
  H  H42  1  0.52067500  0.14539600  0.94164700  1
  H  H43  1  0.00200900  0.63418600  0.94968200  1
  H  H44  1  0.22824400  0.95467600  0.12477800  1
  H  H45  1  0.30232700  0.75200900  0.86782400  1
  H  H46  1  0.67618500  0.41444300  0.14900500  1
  H  H47  1  0.82902800  0.27067500  0.87528000  1
  H  H48  1  0.39539600  0.95374900  0.12472000  1
  H  H49  1  0.26543800  0.52718000  0.85099500  1
  H  H50  1  0.88418600  0.43450400  0.13217600  1
  H  H51  1  0.82989900  0.10346700  0.87522200  1
  H  H52  1  0.68450400  0.05232700  0.05031800  1
  H  H53  1  0.20374900  0.57902800  0.05835300  1
  H  H54  1  0.20467600  0.57989900  0.22643200  1
  H  H55  1  0.66444300  0.01543800  0.23825700  1
  S  S0  1  0.36190700  0.43159600  0.28045000  1
  S  S1  1  0.68159600  0.90114600  0.56968800  1
  S  S2  1  0.33145700  0.11190700  0.43031200  1
  S  S3  1  0.15114600  0.08145700  0.71955000  1
  S  S4  1  0.09885400  0.66854300  0.78045000  1
  S  S5  1  0.91854300  0.63809300  0.06968800  1
  S  S6  1  0.56840400  0.84885400  0.93031200  1
  S  S7  1  0.88809300  0.31840400  0.21955000  1
  I  I0  1  0.12391500  0.35892200  0.96222100  1
  I  I1  1  0.85329900  0.58830600  0.46222100  1
  I  I2  1  0.41169400  0.87391500  0.26499200  1
  I  I3  1  0.64107800  0.60329900  0.76499200  1
  I  I4  1  0.60892200  0.14670100  0.73500800  1
  I  I5  1  0.83830600  0.87608500  0.23500800  1
  I  I6  1  0.12608500  0.39107800  0.53777900  1
  I  I7  1  0.39670100  0.16169400  0.03777900  1
  O  O0  1  0.45704000  0.59663700  0.32195900  1
  O  O1  1  0.96748200  0.08891200  0.30908300  1
  O  O2  1  0.82390600  0.83978500  0.36336700  1
  O  O3  1  0.36453000  0.38633900  0.37740800  1
  O  O4  1  0.08978500  0.22641800  0.51587900  1
  O  O5  1  0.63633900  0.75893100  0.52180900  1
  O  O6  1  0.33891200  0.52982900  0.62143100  1
  O  O7  1  0.84663700  0.02467900  0.63959800  1
  O  O8  1  0.38508100  0.20704000  0.36040200  1
  O  O9  1  0.90839800  0.71748200  0.37856900  1
  O  O10  1  0.23712200  0.11453000  0.47819100  1
  O  O11  1  0.71053900  0.57390600  0.48412100  1
  O  O12  1  0.20320500  0.41774000  0.85032400  1
  O  O13  1  0.68258400  0.39711900  0.35032400  1
  O  O14  1  0.00893100  0.98712200  0.62259200  1
  O  O15  1  0.47641800  0.46053900  0.63663300  1
  O  O16  1  0.68624200  0.91292500  0.87742400  1
  O  O17  1  0.21449900  0.94118200  0.37742400  1
  O  O18  1  0.21737800  0.78753500  0.25002200  1
  O  O19  1  0.71248700  0.78264400  0.75002200  1
  O  O20  1  0.20485100  0.21631800  0.78081200  1
  O  O21  1  0.81449400  0.32596100  0.28081200  1
  O  O22  1  0.49927100  0.55320000  0.83188500  1
  O  O23  1  0.52868500  0.08261400  0.33188500  1
  O  O24  1  0.46631800  0.18550600  0.51146700  1
  O  O25  1  0.57596100  0.79514900  0.01146700  1
  O  O26  1  0.77982900  0.65839800  0.69091700  1
  O  O27  1  0.27467900  0.13508100  0.67804100  1
  O  O28  1  0.99067400  0.60259700  0.42808100  1
  O  O29  1  0.07548400  0.18740800  0.92808100  1
  O  O30  1  0.03753500  0.28751300  0.07015700  1
  O  O31  1  0.03264400  0.78262200  0.57015700  1
  O  O32  1  0.33261400  0.50072900  0.05392800  1
  O  O33  1  0.80320000  0.47131500  0.55392800  1
  O  O34  1  0.08707500  0.96449900  0.77331700  1
  O  O35  1  0.05881800  0.43624200  0.27331700  1
  O  O36  1  0.58226000  0.43258400  0.78546500  1
  O  O37  1  0.60288100  0.95320500  0.28546500  1
  O  O38  1  0.39740300  0.82548400  0.38807600  1
  O  O39  1  0.81259200  0.74067400  0.88807600  1
  O  O40  1  0.43740800  0.00932600  0.61192400  1
  O  O41  1  0.85259700  0.92451600  0.11192400  1
  O  O42  1  0.66774000  0.31741600  0.71453500  1
  O  O43  1  0.64711900  0.79679500  0.21453500  1
  O  O44  1  0.16292500  0.78550100  0.72668300  1
  O  O45  1  0.19118200  0.31375800  0.22668300  1
  O  O46  1  0.91738600  0.24927100  0.44607200  1
  O  O47  1  0.44680000  0.27868500  0.94607200  1
  O  O48  1  0.21246500  0.46248700  0.42984300  1
  O  O49  1  0.21735600  0.96737800  0.92984300  1
  O  O50  1  0.17451600  0.56259200  0.57191900  1
  O  O51  1  0.25932600  0.14740300  0.07191900  1
  O  O52  1  0.97532100  0.61491900  0.82195900  1
  O  O53  1  0.47017100  0.09160200  0.80908300  1
  O  O54  1  0.67403900  0.95485100  0.48853300  1
  O  O55  1  0.78368200  0.56449400  0.98853300  1
  O  O56  1  0.75072900  0.19680000  0.66811500  1
  O  O57  1  0.72131500  0.66738600  0.16811500  1
  O  O58  1  0.04514900  0.53368200  0.71918800  1
  O  O59  1  0.43550600  0.42403900  0.21918800  1
  O  O60  1  0.03262200  0.96246500  0.24997800  1
  O  O61  1  0.53751300  0.96735600  0.74997800  1
  O  O62  1  0.56375800  0.83707500  0.62257600  1
  O  O63  1  0.03550100  0.80881800  0.12257600  1
  O  O64  1  0.77358200  0.28946100  0.86336700  1
  O  O65  1  0.24106900  0.76287800  0.87740800  1
  O  O66  1  0.04679500  0.33226000  0.64967600  1
  O  O67  1  0.56741600  0.35288100  0.14967600  1
  O  O68  1  0.53946100  0.17609400  0.01587900  1
  O  O69  1  0.01287800  0.63547000  0.02180900  1
  O  O70  1  0.34160200  0.03251800  0.12143100  1
  O  O71  1  0.86491900  0.54296000  0.13959800  1
  O  O72  1  0.40336300  0.72532100  0.86040200  1
  O  O73  1  0.91108800  0.22017100  0.87856900  1
  O  O74  1  0.61366100  0.99106900  0.97819100  1
  O  O75  1  0.16021500  0.52358200  0.98412100  1
  O  O76  1  0.88547000  0.36366100  0.12259200  1
  O  O77  1  0.42609400  0.91021500  0.13663300  1
  O  O78  1  0.28251800  0.66108800  0.19091700  1
  O  O79  1  0.79296000  0.15336300  0.17804100  1
loop_
_geom_bond_atom_site_label_1
_geom_bond_atom_site_label_2
_geom_bond_distance
_geom_bond_site_symmetry_2
H0 O43 1.007114 1_555
H0 O0 1.709212 1_555
H1 O1 1.014039 1_455
H1 O45 1.670901 1_555
H2 O4 1.005123 1_555
H3 O5 1.005220 1_555
H3 O0 1.740669 1_555
H4 O6 1.014039 1_555
H4 O62 1.670906 1_555
H5 O3 1.005219 1_555
H5 O8 1.740668 1_555
H6 O66 1.007102 1_655
H6 O7 1.709215 1_555
H7 O2 1.005125 1_555
H8 O15 1.005124 1_555
H9 O13 1.007102 1_555
H9 O8 1.709217 1_555
H10 O14 1.005217 1_655
H10 O7 1.740684 1_565
H11 O9 1.014049 1_455
H11 O17 1.670897 1_555
H12 O10 1.005220 1_555
H12 O27 1.740669 1_555
H13 O11 1.005123 1_555
H14 O18 1.011846 1_555
H14 O17 1.684657 1_555
H15 O19 1.011846 1_555
H15 O16 1.684657 1_555
H16 O23 1.000464 1_555
H17 O22 1.000457 1_555
H18 O29 1.006786 1_555
H19 O28 1.006782 1_555
H20 O26 1.014043 1_555
H20 O34 1.670901 1_655
H21 O33 1.000458 1_555
H22 O32 1.000457 1_555
H23 O36 1.007106 1_555
H23 O27 1.709215 1_555
H24 O31 1.011846 1_555
H24 O44 1.684657 1_555
H25 O30 1.011846 1_555
H25 O45 1.684657 1_555
H26 O41 1.006786 1_555
H27 O40 1.006798 1_555
H28 O39 1.006798 1_555
H29 O38 1.006786 1_555
H30 O49 1.011846 1_555
H30 O34 1.684657 1_555
H31 O48 1.011846 1_555
H31 O35 1.684657 1_555
H32 O42 1.007106 1_555
H32 O52 1.709215 1_555
H33 O46 1.000457 1_555
H34 O47 1.000458 1_555
H35 O53 1.014043 1_565
H35 O44 1.670901 1_555
H36 O50 1.006786 1_555
H37 O51 1.006782 1_555
H38 O57 1.000464 1_555
H39 O56 1.000457 1_555
H40 O60 1.011846 1_555
H40 O63 1.684657 1_555
H41 O61 1.011846 1_555
H41 O62 1.684657 1_555
H42 O68 1.005123 1_556
H43 O69 1.005220 1_556
H43 O52 1.740669 1_455
H44 O70 1.014049 1_565
H44 O63 1.670897 1_555
H45 O65 1.005217 1_555
H45 O72 1.740684 1_555
H46 O67 1.007102 1_555
H46 O71 1.709217 1_555
H47 O64 1.005124 1_555
H48 O77 1.005125 1_555
H49 O12 1.007102 1_555
H49 O72 1.709215 1_555
H50 O76 1.005219 1_555
H50 O71 1.740668 1_555
H51 O73 1.014039 1_555
H51 O16 1.670906 1_545
H52 O74 1.005220 1_544
H52 O79 1.740669 1_555
H53 O75 1.005123 1_554
H54 O78 1.014039 1_555
H54 O35 1.670901 1_555
H55 O37 1.007114 1_545
H55 O79 1.709212 1_555
I0 O30 1.895929 1_556
I0 O12 1.900108 1_555
I0 O29 1.900446 1_555
I0 O75 1.916381 1_555
I0 O32 1.922413 1_556
I0 O73 1.930602 1_455
I1 O31 1.895929 1_655
I1 O13 1.900108 1_555
I1 O28 1.900460 1_555
I1 O11 1.916381 1_555
I1 O33 1.922407 1_555
I1 O9 1.930612 1_555
I2 O18 1.895931 1_555
I2 O37 1.900107 1_555
I2 O38 1.900460 1_555
I2 O77 1.916367 1_555
I2 O23 1.922422 1_565
I2 O78 1.930593 1_555
I3 O19 1.895925 1_555
I3 O36 1.900113 1_555
I3 O39 1.900454 1_555
I3 O15 1.916371 1_555
I3 O22 1.922427 1_555
I3 O26 1.930592 1_555
I4 O61 1.895925 1_545
I4 O42 1.900113 1_555
I4 O40 1.900454 1_555
I4 O64 1.916371 1_555
I4 O56 1.922427 1_555
I4 O53 1.930592 1_555
I5 O60 1.895931 1_655
I5 O43 1.900107 1_555
I5 O41 1.900460 1_555
I5 O2 1.916367 1_555
I5 O57 1.922422 1_555
I5 O1 1.930593 1_565
I6 O48 1.895929 1_555
I6 O66 1.900108 1_555
I6 O50 1.900446 1_555
I6 O4 1.916381 1_555
I6 O46 1.922413 1_455
I6 O6 1.930602 1_555
I7 O49 1.895929 1_544
I7 O67 1.900108 1_555
I7 O51 1.900460 1_555
I7 O68 1.916381 1_555
I7 O47 1.922407 1_554
I7 O70 1.930612 1_555
O0 S0 1.477047 1_555
O3 S0 1.573828 1_555
O5 S1 1.573824 1_555
O7 S1 1.477055 1_545
O8 S2 1.477070 1_555
O10 S2 1.573821 1_555
O14 S3 1.573828 1_565
O16 S6 1.474559 1_555
O17 S2 1.474553 1_565
O20 S3 1.472545 1_555
O21 S7 1.472545 1_555
O24 S2 1.472537 1_555
O25 S6 1.472534 1_554
O27 S3 1.477058 1_555
O34 S3 1.474550 1_565
O35 S7 1.474550 1_455
O44 S4 1.474550 1_555
O45 S0 1.474550 1_555
O52 S4 1.477058 1_655
O54 S1 1.472534 1_555
O55 S5 1.472537 1_556
O58 S4 1.472545 1_555
O59 S0 1.472545 1_555
O62 S1 1.474559 1_555
O63 S5 1.474553 1_455
O65 S4 1.573828 1_555
O69 S5 1.573821 1_455
O71 S5 1.477070 1_555
O72 S6 1.477055 1_555
O74 S6 1.573824 1_555
O76 S7 1.573828 1_555
O79 S7 1.477047 1_555
