# generated using pymatgen
data_DyMgSn
_symmetry_space_group_name_H-M   'P 1'
_cell_length_a   4.38113052
_cell_length_b   4.38489304
_cell_length_c   8.48864567
_cell_angle_alpha   104.80579529
_cell_angle_beta   104.80943510
_cell_angle_gamma   89.97990422
_symmetry_Int_Tables_number   1
_chemical_formula_structural   DyMgSn
_chemical_formula_sum   'Dy2 Mg2 Sn2'
_cell_volume   152.05326156
_cell_formula_units_Z   2
loop_
 _symmetry_equiv_pos_site_id
 _symmetry_equiv_pos_as_xyz
  1  'x, y, z'
loop_
 _atom_site_type_symbol
 _atom_site_label
 _atom_site_symmetry_multiplicity
 _atom_site_fract_x
 _atom_site_fract_y
 _atom_site_fract_z
 _atom_site_occupancy
  Dy  Dy0  1  0.66643787  0.66632616  0.33367580  1
  Dy  Dy1  1  0.33356257  0.33369414  0.66635500  1
  Mg  Mg0  1  0.50006268  -0.00018780  0.99989770  1
  Mg  Mg1  1  0.00006213  0.50023681  0.00007278  1
  Sn  Sn0  1  0.13620783  0.13641561  0.27194466  1
  Sn  Sn1  1  0.86366892  0.86351807  0.72805406  1
loop_
_geom_bond_atom_site_label_1
_geom_bond_atom_site_label_2
_geom_bond_distance
_geom_bond_site_symmetry_2
Dy0 Sn1 3.121528 1_555
Dy0 Sn0 3.135167 1_555
Dy0 Sn0 3.136122 1_655
Dy0 Sn0 3.137878 1_565
Dy0 Sn0 3.140978 1_665
Dy0 Mg1 3.427434 1_655
Dy0 Mg0 3.429047 1_564
Dy0 Mg1 3.434250 1_555
Dy0 Mg0 3.437175 1_554
Dy1 Sn0 3.121784 1_555
Dy1 Sn1 3.134581 1_555
Dy1 Sn1 3.136196 1_455
Dy1 Sn1 3.137726 1_545
Dy1 Sn1 3.141485 1_445
Dy1 Mg1 3.427949 1_556
Dy1 Mg0 3.428395 1_555
Dy1 Mg0 3.434961 1_565
Dy1 Mg1 3.435139 1_656
Mg0 Sn1 3.064879 1_545
Mg0 Sn0 3.067101 1_556
Mg0 Sn1 3.076206 1_445
Mg0 Sn0 3.076242 1_656
Mg0 Mg1 3.097396 1_646
Mg0 Mg1 3.099023 1_546
Mg0 Mg1 3.100033 1_556
Mg0 Mg1 3.100580 1_656
Mg1 Sn1 3.065980 1_454
Mg1 Sn0 3.066622 1_555
Mg1 Sn0 3.077454 1_565
Mg1 Sn1 3.079734 1_444
