# generated using pymatgen
data_Mn3Si3O10
_symmetry_space_group_name_H-M   'P 1'
_cell_length_a   8.23496582
_cell_length_b   8.23496582
_cell_length_c   10.21690058
_cell_angle_alpha   88.51339908
_cell_angle_beta   88.51339908
_cell_angle_gamma   34.99234032
_symmetry_Int_Tables_number   1
_chemical_formula_structural   Mn3Si3O10
_chemical_formula_sum   'Mn6 Si6 O20'
_cell_volume   397.18277792
_cell_formula_units_Z   2
loop_
 _symmetry_equiv_pos_site_id
 _symmetry_equiv_pos_as_xyz
  1  'x, y, z'
loop_
 _atom_site_type_symbol
 _atom_site_label
 _atom_site_symmetry_multiplicity
 _atom_site_fract_x
 _atom_site_fract_y
 _atom_site_fract_z
 _atom_site_occupancy
  Mn  Mn0  1  0.62739300  0.06535500  0.77342400  1
  Mn  Mn1  1  0.50000000  0.00000000  0.50000000  1
  Mn  Mn2  1  0.93464500  0.37260700  0.72657600  1
  Mn  Mn3  1  0.00000000  0.50000000  0.00000000  1
  Mn  Mn4  1  0.06535500  0.62739300  0.27342400  1
  Mn  Mn5  1  0.37260700  0.93464500  0.22657600  1
  Si  Si0  1  0.81279600  0.18720400  0.25000000  1
  Si  Si1  1  0.55205600  0.15735800  0.08936000  1
  Si  Si2  1  0.15735800  0.55205600  0.58936000  1
  Si  Si3  1  0.18720400  0.81279600  0.75000000  1
  Si  Si4  1  0.84264200  0.44794400  0.41064000  1
  Si  Si5  1  0.44794400  0.84264200  0.91064000  1
  O  O0  1  0.55461800  0.33773500  0.15210600  1
  O  O1  1  0.42878100  0.24838400  0.94025900  1
  O  O2  1  0.29637300  0.26841500  0.17513600  1
  O  O3  1  0.18202100  0.13527400  0.39284800  1
  O  O4  1  0.07868400  0.05892200  0.66423800  1
  O  O5  1  0.05892200  0.07868400  0.16423800  1
  O  O6  1  0.13527400  0.18202100  0.89284800  1
  O  O7  1  0.26841500  0.29637300  0.67513600  1
  O  O8  1  0.24838400  0.42878100  0.44025900  1
  O  O9  1  0.33773500  0.55461800  0.65210600  1
  O  O10  1  0.66226500  0.44538200  0.34789400  1
  O  O11  1  0.75161600  0.57121900  0.55974100  1
  O  O12  1  0.73158500  0.70362700  0.32486400  1
  O  O13  1  0.86472600  0.81797900  0.10715200  1
  O  O14  1  0.94107800  0.92131600  0.83576200  1
  O  O15  1  0.92131600  0.94107800  0.33576200  1
  O  O16  1  0.81797900  0.86472600  0.60715200  1
  O  O17  1  0.70362700  0.73158500  0.82486400  1
  O  O18  1  0.57121900  0.75161600  0.05974100  1
  O  O19  1  0.44538200  0.66226500  0.84789400  1
loop_
_geom_bond_atom_site_label_1
_geom_bond_atom_site_label_2
_geom_bond_distance
_geom_bond_site_symmetry_2
Mn0 O14 1.873843 1_545
Mn0 O1 1.949829 1_555
Mn0 O16 1.958951 1_545
Mn0 O7 2.051092 1_555
Mn0 O17 2.310848 1_545
Mn0 O9 2.758109 1_555
Mn1 O3 2.145301 1_555
Mn1 O16 2.145301 1_545
Mn1 O11 2.258332 1_545
Mn1 O8 2.258332 1_555
Mn1 O7 2.284458 1_555
Mn1 O12 2.284458 1_545
Mn2 O4 1.873843 1_655
Mn2 O11 1.949829 1_555
Mn2 O6 1.958951 1_655
Mn2 O17 2.051092 1_555
Mn2 O7 2.310848 1_655
Mn2 O19 2.758109 1_555
Mn3 O6 2.145301 1_554
Mn3 O13 2.145301 1_455
Mn3 O18 2.258332 1_455
Mn3 O1 2.258332 1_554
Mn3 O17 2.284458 1_454
Mn3 O2 2.284458 1_555
Mn4 O15 1.873843 1_455
Mn4 O8 1.949829 1_555
Mn4 O13 1.958951 1_455
Mn4 O2 2.051092 1_555
Mn4 O12 2.310848 1_455
Mn4 O0 2.758109 1_555
Mn5 O5 1.873843 1_565
Mn5 O18 1.949829 1_555
Mn5 O3 1.958951 1_565
Mn5 O12 2.051092 1_555
Mn5 O2 2.310848 1_565
Mn5 O10 2.758109 1_555
O0 Si1 1.649024 1_555
O0 Si0 1.668843 1_555
O1 Si1 1.639279 1_556
O2 Si1 1.681818 1_555
O3 Si4 1.637385 1_455
O4 Si3 1.629481 1_545
O5 Si0 1.629481 1_455
O6 Si5 1.637385 1_545
O7 Si2 1.681818 1_555
O8 Si2 1.639279 1_555
O9 Si2 1.649024 1_555
O9 Si3 1.668843 1_555
O10 Si4 1.649024 1_555
O10 Si0 1.668843 1_555
O11 Si4 1.639279 1_555
O12 Si4 1.681818 1_555
O13 Si1 1.637385 1_565
O14 Si3 1.629481 1_655
O15 Si0 1.629481 1_565
O16 Si2 1.637385 1_655
O17 Si5 1.681818 1_555
O18 Si5 1.639279 1_554
O19 Si5 1.649024 1_555
O19 Si3 1.668843 1_555
