# generated using pymatgen
data_Li3V(BO3)2
_symmetry_space_group_name_H-M   'P 1'
_cell_length_a   8.10091600
_cell_length_b   8.25562921
_cell_length_c   8.19355034
_cell_angle_alpha   75.56442775
_cell_angle_beta   76.92991857
_cell_angle_gamma   76.52258426
_symmetry_Int_Tables_number   1
_chemical_formula_structural   Li3V(BO3)2
_chemical_formula_sum   'Li12 V4 B8 O24'
_cell_volume   507.77397192
_cell_formula_units_Z   4
loop_
 _symmetry_equiv_pos_site_id
 _symmetry_equiv_pos_as_xyz
  1  'x, y, z'
loop_
 _atom_site_type_symbol
 _atom_site_label
 _atom_site_symmetry_multiplicity
 _atom_site_fract_x
 _atom_site_fract_y
 _atom_site_fract_z
 _atom_site_occupancy
  Li  Li0  1  0.92651400  0.54371100  0.36425100  1
  Li  Li1  1  0.92658700  0.04372900  0.86408300  1
  Li  Li2  1  0.07350400  0.45631900  0.63573400  1
  Li  Li3  1  0.07340400  0.95624500  0.13592400  1
  Li  Li4  1  0.26123700  0.17946800  0.85942800  1
  Li  Li5  1  0.26127500  0.67958000  0.35949800  1
  Li  Li6  1  0.73879900  0.82050000  0.14054200  1
  Li  Li7  1  0.73875000  0.32042000  0.64049400  1
  Li  Li8  1  0.61486700  0.53659200  0.20795300  1
  Li  Li9  1  0.61497100  0.03634200  0.70790100  1
  Li  Li10  1  0.38506600  0.46344200  0.79207500  1
  Li  Li11  1  0.38505200  0.96355900  0.29211600  1
  V  V0  1  0.27389400  0.85449600  0.70418400  1
  V  V1  1  0.72620000  0.64527500  0.79597300  1
  V  V2  1  0.27365800  0.35474900  0.20412900  1
  V  V3  1  0.72622300  0.14559400  0.29569300  1
  B  B0  1  0.57058500  0.16602000  0.00019200  1
  B  B1  1  0.57061000  0.66599600  0.50040500  1
  B  B2  1  0.42949600  0.83396300  0.99966200  1
  B  B3  1  0.42934700  0.33400700  0.49965900  1
  B  B4  1  0.91157200  0.32755100  0.99132700  1
  B  B5  1  0.91139300  0.82728600  0.49164100  1
  B  B6  1  0.08842300  0.67266200  0.00845300  1
  B  B7  1  0.08851700  0.17257600  0.50858200  1
  O  O0  1  0.40103600  0.43711500  0.33665900  1
  O  O1  1  0.40117900  0.93698400  0.83671000  1
  O  O2  1  0.59901700  0.56308400  0.66349900  1
  O  O3  1  0.59903100  0.06294400  0.16325000  1
  O  O4  1  0.78041500  0.34718200  0.13400900  1
  O  O5  1  0.78037700  0.84645800  0.63447500  1
  O  O6  1  0.21960800  0.65308600  0.86577500  1
  O  O7  1  0.21953700  0.15311400  0.36575700  1
  O  O8  1  0.02742800  0.18000100  0.98499900  1
  O  O9  1  0.02743900  0.67993400  0.48505500  1
  O  O10  1  0.97255800  0.82013300  0.01485000  1
  O  O11  1  0.97255600  0.31999200  0.51511400  1
  O  O12  1  0.41063700  0.27834600  0.99771800  1
  O  O13  1  0.41063400  0.77822100  0.49784600  1
  O  O14  1  0.58945000  0.72162500  0.00211300  1
  O  O15  1  0.58934700  0.22166900  0.50217000  1
  O  O16  1  0.68560700  0.15075800  0.85498800  1
  O  O17  1  0.68562800  0.65072600  0.35517900  1
  O  O18  1  0.31448800  0.84917200  0.14495500  1
  O  O19  1  0.31437600  0.34924300  0.64491100  1
  O  O20  1  0.08681300  0.53391500  0.14750600  1
  O  O21  1  0.08721200  0.03375800  0.64759100  1
  O  O22  1  0.91294800  0.46632800  0.85233100  1
  O  O23  1  0.91273700  0.96613100  0.35264400  1
loop_
_geom_bond_atom_site_label_1
_geom_bond_atom_site_label_2
_geom_bond_distance
_geom_bond_site_symmetry_2
Li0 O17 1.955317 1_555
Li0 O20 1.956094 1_655
Li0 O11 1.956377 1_555
Li0 O9 2.064585 1_655
Li1 O10 1.955213 1_546
Li1 O21 1.955853 1_655
Li1 O16 1.956056 1_555
Li1 O8 2.065109 1_655
Li2 O9 1.955099 1_555
Li2 O19 1.955451 1_555
Li2 O22 1.956297 1_455
Li2 O11 2.064290 1_455
Li3 O8 1.956767 1_564
Li3 O18 1.956812 1_555
Li3 O23 1.957360 1_455
Li3 O10 2.065048 1_455
Li4 O8 1.939863 1_555
Li4 O19 1.987435 1_555
Li4 O1 2.088008 1_545
Li4 O12 2.226411 1_555
Li5 O9 1.940153 1_555
Li5 O18 1.986876 1_555
Li5 O0 2.087639 1_555
Li5 O13 2.225295 1_555
Li6 O10 1.939952 1_555
Li6 O17 1.988126 1_555
Li6 O3 2.087287 1_565
Li6 O14 2.226912 1_555
Li7 O11 1.939438 1_555
Li7 O16 1.986817 1_555
Li7 O2 2.089257 1_555
Li7 O15 2.225980 1_555
Li8 O4 1.933421 1_555
Li8 O17 1.950080 1_555
Li8 O14 1.986523 1_555
Li8 O0 2.047497 1_555
Li9 O5 1.934246 1_545
Li9 O16 1.950254 1_555
Li9 O15 1.987406 1_555
Li9 O1 2.046965 1_545
Li10 O6 1.933791 1_555
Li10 O19 1.949736 1_555
Li10 O12 1.985848 1_555
Li10 O2 2.048700 1_555
Li11 O7 1.933286 1_565
Li11 O18 1.950255 1_555
Li11 O13 1.987410 1_555
Li11 O3 2.048421 1_565
B0 O16 1.348403 1_554
B0 O12 1.407720 1_554
B0 O3 1.429403 1_555
B1 O17 1.348533 1_555
B1 O13 1.407568 1_555
B1 O2 1.429133 1_555
B2 O18 1.348830 1_556
B2 O14 1.407790 1_556
B2 O1 1.428297 1_555
B3 O19 1.348471 1_555
B3 O15 1.408105 1_555
B3 O0 1.428843 1_555
B4 O8 1.357917 1_655
B4 O22 1.399794 1_555
B4 O4 1.405094 1_556
B5 O9 1.357653 1_655
B5 O23 1.400142 1_555
B5 O5 1.404784 1_555
B6 O10 1.357525 1_455
B6 O20 1.399954 1_555
B6 O6 1.405127 1_554
B7 O11 1.357673 1_455
B7 O21 1.400059 1_555
B7 O7 1.405098 1_555
O0 V2 1.976944 1_555
O1 V0 1.976979 1_555
O2 V1 1.974581 1_555
O3 V3 1.976727 1_555
O4 V3 1.922418 1_555
O5 V1 1.919244 1_555
O6 V0 1.921207 1_555
O7 V2 1.922356 1_555
O12 V2 1.961197 1_556
O13 V0 1.959709 1_555
O14 V1 1.958662 1_554
O15 V3 1.960296 1_555
O20 V2 1.904203 1_555
O21 V0 1.903684 1_545
O22 V1 1.902219 1_555
O23 V3 1.904332 1_565
