# generated using pymatgen
data_LiMnPO4
_symmetry_space_group_name_H-M   'P 1'
_cell_length_a   5.97221000
_cell_length_b   7.81737400
_cell_length_c   13.67815300
_cell_angle_alpha   90.00000000
_cell_angle_beta   90.00000000
_cell_angle_gamma   90.00000000
_symmetry_Int_Tables_number   1
_chemical_formula_structural   LiMnPO4
_chemical_formula_sum   'Li8 Mn8 P8 O32'
_cell_volume   638.59191785
_cell_formula_units_Z   8
loop_
 _symmetry_equiv_pos_site_id
 _symmetry_equiv_pos_as_xyz
  1  'x, y, z'
loop_
 _atom_site_type_symbol
 _atom_site_label
 _atom_site_symmetry_multiplicity
 _atom_site_fract_x
 _atom_site_fract_y
 _atom_site_fract_z
 _atom_site_occupancy
  Li  Li0  1  0.15165900  0.19463400  0.22410500  1
  Li  Li1  1  0.65165900  0.19463400  0.27589500  1
  Li  Li2  1  0.65165900  0.30536600  0.77589500  1
  Li  Li3  1  0.15165900  0.30536600  0.72410500  1
  Li  Li4  1  0.34834100  0.69463400  0.22410500  1
  Li  Li5  1  0.84834100  0.69463400  0.27589500  1
  Li  Li6  1  0.34834100  0.80536600  0.72410500  1
  Li  Li7  1  0.84834100  0.80536600  0.77589500  1
  Mn  Mn0  1  0.39723500  0.17891600  0.54053600  1
  Mn  Mn1  1  0.89723500  0.17891600  0.95946400  1
  Mn  Mn2  1  0.39723500  0.32108400  0.04053600  1
  Mn  Mn3  1  0.89723500  0.32108400  0.45946400  1
  Mn  Mn4  1  0.10276500  0.67891600  0.54053600  1
  Mn  Mn5  1  0.60276500  0.67891600  0.95946400  1
  Mn  Mn6  1  0.10276500  0.82108400  0.04053600  1
  Mn  Mn7  1  0.60276500  0.82108400  0.45946400  1
  P  P0  1  0.90006000  0.05106100  0.63285800  1
  P  P1  1  0.40006000  0.05106100  0.86714200  1
  P  P2  1  0.90006000  0.44893900  0.13285800  1
  P  P3  1  0.40006000  0.44893900  0.36714200  1
  P  P4  1  0.59994000  0.55106100  0.63285800  1
  P  P5  1  0.09994000  0.55106100  0.86714200  1
  P  P6  1  0.59994000  0.94893900  0.13285800  1
  P  P7  1  0.09994000  0.94893900  0.36714200  1
  O  O0  1  0.80864800  0.97019700  0.06354600  1
  O  O1  1  0.30864800  0.97019700  0.43645400  1
  O  O2  1  0.33524700  0.11088900  0.76491000  1
  O  O3  1  0.83524700  0.11088900  0.73509000  1
  O  O4  1  0.47376400  0.12162500  0.14038200  1
  O  O5  1  0.97376400  0.12162500  0.35961800  1
  O  O6  1  0.05430800  0.19312300  0.58478900  1
  O  O7  1  0.55430800  0.19312300  0.91521100  1
  O  O8  1  0.05430800  0.30687700  0.08478900  1
  O  O9  1  0.55430800  0.30687700  0.41521100  1
  O  O10  1  0.47376400  0.37837500  0.64038200  1
  O  O11  1  0.97376400  0.37837500  0.85961800  1
  O  O12  1  0.83524700  0.38911100  0.23509000  1
  O  O13  1  0.33524700  0.38911100  0.26491000  1
  O  O14  1  0.80864800  0.52980300  0.56354600  1
  O  O15  1  0.30864800  0.52980300  0.93645400  1
  O  O16  1  0.19135200  0.47019700  0.43645400  1
  O  O17  1  0.69135200  0.47019700  0.06354600  1
  O  O18  1  0.66475300  0.61088900  0.73509000  1
  O  O19  1  0.16475300  0.61088900  0.76491000  1
  O  O20  1  0.02623600  0.62162500  0.14038200  1
  O  O21  1  0.52623600  0.62162500  0.35961800  1
  O  O22  1  0.44569200  0.69312300  0.58478900  1
  O  O23  1  0.94569200  0.69312300  0.91521100  1
  O  O24  1  0.44569200  0.80687700  0.08478900  1
  O  O25  1  0.94569200  0.80687700  0.41521100  1
  O  O26  1  0.02623600  0.87837500  0.64038200  1
  O  O27  1  0.52623600  0.87837500  0.85961800  1
  O  O28  1  0.66475300  0.88911100  0.23509000  1
  O  O29  1  0.16475300  0.88911100  0.26491000  1
  O  O30  1  0.69135200  0.02980300  0.56354600  1
  O  O31  1  0.19135200  0.02980300  0.93645400  1
loop_
_geom_bond_atom_site_label_1
_geom_bond_atom_site_label_2
_geom_bond_distance
_geom_bond_site_symmetry_2
Li0 O13 1.955755 1_555
Li0 O8 2.176969 1_555
Li0 O5 2.211381 1_455
Li0 O4 2.310349 1_555
Li0 O12 2.429974 1_455
Li0 O29 2.453982 1_545
Li1 O12 1.955755 1_555
Li1 O9 2.176969 1_555
Li1 O4 2.211381 1_555
Li1 O5 2.310349 1_555
Li1 O13 2.429974 1_555
Li1 O28 2.453982 1_545
Li2 O3 1.955755 1_555
Li2 O7 2.176969 1_555
Li2 O10 2.211381 1_555
Li2 O11 2.310349 1_555
Li2 O2 2.429974 1_555
Li2 O18 2.453982 1_555
Li3 O2 1.955755 1_555
Li3 O6 2.176969 1_555
Li3 O11 2.211381 1_455
Li3 O10 2.310349 1_555
Li3 O3 2.429974 1_455
Li3 O19 2.453982 1_555
Li4 O29 1.955755 1_555
Li4 O24 2.176969 1_555
Li4 O21 2.211381 1_555
Li4 O20 2.310349 1_555
Li4 O28 2.429974 1_555
Li4 O13 2.453982 1_555
Li5 O28 1.955755 1_555
Li5 O25 2.176969 1_555
Li5 O20 2.211381 1_655
Li5 O21 2.310349 1_555
Li5 O29 2.429974 1_655
Li5 O12 2.453982 1_555
Li6 O19 1.955755 1_555
Li6 O22 2.176969 1_555
Li6 O27 2.211381 1_555
Li6 O26 2.310349 1_555
Li6 O18 2.429974 1_555
Li6 O2 2.453982 1_565
Li7 O18 1.955755 1_555
Li7 O23 2.176969 1_555
Li7 O26 2.211381 1_655
Li7 O27 2.310349 1_555
Li7 O19 2.429974 1_655
Li7 O3 2.453982 1_565
Mn0 O10 2.122569 1_555
Mn0 O30 2.131488 1_555
Mn0 O6 2.138494 1_555
Mn0 O9 2.195256 1_555
Mn0 O1 2.229106 1_545
Mn1 O11 2.122569 1_555
Mn1 O31 2.131488 1_655
Mn1 O7 2.138494 1_555
Mn1 O8 2.195256 1_656
Mn1 O0 2.229106 1_546
Mn2 O4 2.122569 1_555
Mn2 O17 2.131488 1_555
Mn2 O8 2.138494 1_555
Mn2 O7 2.195256 1_554
Mn2 O15 2.229106 1_554
Mn3 O5 2.122569 1_555
Mn3 O16 2.131488 1_655
Mn3 O9 2.138494 1_555
Mn3 O6 2.195256 1_655
Mn3 O14 2.229106 1_555
Mn4 O26 2.122569 1_555
Mn4 O14 2.131488 1_455
Mn4 O22 2.138494 1_555
Mn4 O25 2.195256 1_455
Mn4 O16 2.229106 1_555
Mn5 O27 2.122569 1_555
Mn5 O15 2.131488 1_555
Mn5 O23 2.138494 1_555
Mn5 O24 2.195256 1_556
Mn5 O17 2.229106 1_556
Mn6 O20 2.122569 1_555
Mn6 O0 2.131488 1_455
Mn6 O24 2.138494 1_555
Mn6 O23 2.195256 1_454
Mn6 O31 2.229106 1_564
Mn7 O21 2.122569 1_555
Mn7 O1 2.131488 1_555
Mn7 O25 2.138494 1_555
Mn7 O22 2.195256 1_555
Mn7 O30 2.229106 1_565
O0 P6 1.574823 1_555
O1 P7 1.574823 1_555
O2 P1 1.524447 1_555
O3 P0 1.524447 1_555
O4 P6 1.549450 1_545
O5 P7 1.549450 1_645
O6 P0 1.585635 1_455
O7 P1 1.585635 1_555
O8 P2 1.585635 1_455
O9 P3 1.585635 1_555
O10 P4 1.549450 1_555
O11 P5 1.549450 1_655
O12 P2 1.524447 1_555
O13 P3 1.524447 1_555
O14 P4 1.574823 1_555
O15 P5 1.574823 1_555
O16 P3 1.574823 1_555
O17 P2 1.574823 1_555
O18 P4 1.524447 1_555
O19 P5 1.524447 1_555
O20 P2 1.549450 1_455
O21 P3 1.549450 1_555
O22 P4 1.585635 1_555
O23 P5 1.585635 1_655
O24 P6 1.585635 1_555
O25 P7 1.585635 1_655
O26 P0 1.549450 1_465
O27 P1 1.549450 1_565
O28 P6 1.524447 1_555
O29 P7 1.524447 1_555
O30 P0 1.574823 1_555
O31 P1 1.574823 1_555
