# generated using pymatgen
data_Li2Mn3(BO3)3
_symmetry_space_group_name_H-M   'P 1'
_cell_length_a   5.29808300
_cell_length_b   7.85410312
_cell_length_c   9.61347419
_cell_angle_alpha   104.76332210
_cell_angle_beta   104.22425911
_cell_angle_gamma   87.42198471
_symmetry_Int_Tables_number   1
_chemical_formula_structural   Li2Mn3(BO3)3
_chemical_formula_sum   'Li4 Mn6 B6 O18'
_cell_volume   374.90057572
_cell_formula_units_Z   2
loop_
 _symmetry_equiv_pos_site_id
 _symmetry_equiv_pos_as_xyz
  1  'x, y, z'
loop_
 _atom_site_type_symbol
 _atom_site_label
 _atom_site_symmetry_multiplicity
 _atom_site_fract_x
 _atom_site_fract_y
 _atom_site_fract_z
 _atom_site_occupancy
  Li  Li0  1  0.46715200  0.23028800  0.08227500  1
  Li  Li1  1  0.87340200  0.08696000  0.57347800  1
  Li  Li2  1  0.19128600  0.43858100  0.24806300  1
  Li  Li3  1  0.54126900  0.75213400  0.90630900  1
  Mn  Mn0  1  0.76939300  0.36670500  0.38823900  1
  Mn  Mn1  1  0.43377400  0.03134100  0.70772400  1
  Mn  Mn2  1  0.88520600  0.30042800  0.94030100  1
  Mn  Mn3  1  0.10742800  0.70674000  0.04506300  1
  Mn  Mn4  1  0.55581800  0.96067500  0.28416600  1
  Mn  Mn5  1  0.22216600  0.62539500  0.61728300  1
  B  B0  1  0.00548000  0.08086800  0.16482700  1
  B  B1  1  0.65025000  0.58218100  0.15780400  1
  B  B2  1  0.32156400  0.25203700  0.49413900  1
  B  B3  1  0.68456500  0.75152400  0.51372200  1
  B  B4  1  0.34965300  0.41874100  0.84841700  1
  B  B5  1  0.98659800  0.91668300  0.82572700  1
  O  O0  1  0.76793900  0.12097000  0.20138900  1
  O  O1  1  0.12132700  0.19233900  0.10792400  1
  O  O2  1  0.85128300  0.05318400  0.77121800  1
  O  O3  1  0.89589800  0.54995700  0.13016800  1
  O  O4  1  0.56000800  0.20101300  0.46083100  1
  O  O5  1  0.53793900  0.47734500  0.22088000  1
  O  O6  1  0.20707900  0.16614600  0.57016700  1
  O  O7  1  0.50751800  0.71939800  0.10653600  1
  O  O8  1  0.19236800  0.39267800  0.44220400  1
  O  O9  1  0.82413100  0.60806600  0.54856300  1
  O  O10  1  0.47044800  0.26508600  0.88408100  1
  O  O11  1  0.77767400  0.85305000  0.44206000  1
  O  O12  1  0.45381100  0.51399000  0.77759300  1
  O  O13  1  0.45608900  0.79093700  0.56263700  1
  O  O14  1  0.12813800  0.47377900  0.90318100  1
  O  O15  1  0.14223900  0.93160600  0.19691900  1
  O  O16  1  0.87705600  0.83111500  0.90519800  1
  O  O17  1  0.22868000  0.87025900  0.79574500  1
loop_
_geom_bond_atom_site_label_1
_geom_bond_atom_site_label_2
_geom_bond_distance
_geom_bond_site_symmetry_2
Li0 O1 1.953262 1_555
Li0 O10 1.996866 1_554
Li0 O0 2.017223 1_555
Li0 O5 2.045357 1_555
Li1 O6 1.910434 1_655
Li1 O11 1.953076 1_545
Li1 O2 2.016699 1_555
Li1 O4 2.051587 1_555
Li2 O5 1.964887 1_555
Li2 O8 1.987671 1_555
Li2 O3 2.002351 1_455
Li2 O1 2.045471 1_555
Li3 O16 1.913595 1_555
Li3 O12 1.964924 1_555
Li3 O7 2.056393 1_556
Li3 O17 2.057315 1_555
Mn0 O4 2.093887 1_555
Mn0 O9 2.096167 1_555
Mn0 O5 2.120029 1_555
Mn0 O8 2.179104 1_655
Mn0 O0 2.275811 1_555
Mn1 O6 2.032464 1_555
Mn1 O13 2.059927 1_545
Mn1 O10 2.136917 1_555
Mn1 O2 2.147599 1_555
Mn1 O17 2.149071 1_545
Mn2 O14 2.066061 1_655
Mn2 O1 2.119766 1_656
Mn2 O10 2.143032 1_555
Mn2 O2 2.173588 1_555
Mn2 O3 2.304735 1_556
Mn3 O15 1.966557 1_555
Mn3 O14 2.000959 1_554
Mn3 O16 2.001877 1_454
Mn3 O7 2.055651 1_555
Mn3 O3 2.128352 1_455
Mn4 O11 2.021859 1_555
Mn4 O0 2.135102 1_565
Mn4 O15 2.145018 1_555
Mn4 O7 2.179963 1_555
Mn4 O4 2.190767 1_565
Mn5 O9 2.048766 1_455
Mn5 O12 2.075586 1_555
Mn5 O13 2.077369 1_555
Mn5 O8 2.127461 1_555
Mn5 O17 2.222281 1_555
B0 O1 1.378367 1_555
B0 O0 1.389930 1_455
B0 O15 1.411583 1_545
B1 O5 1.369523 1_555
B1 O3 1.390852 1_555
B1 O7 1.410840 1_555
B2 O6 1.364974 1_555
B2 O4 1.395313 1_555
B2 O8 1.408217 1_555
B3 O11 1.355053 1_555
B3 O9 1.387139 1_555
B3 O13 1.397879 1_555
B4 O12 1.345037 1_555
B4 O14 1.408333 1_555
B4 O10 1.420251 1_555
B5 O16 1.373622 1_555
B5 O17 1.395368 1_655
B5 O2 1.403745 1_565
