# generated using pymatgen
data_LiMn3(BO3)3
_symmetry_space_group_name_H-M   'P 1'
_cell_length_a   5.34574800
_cell_length_b   5.94514815
_cell_length_c   12.84466946
_cell_angle_alpha   93.64937485
_cell_angle_beta   89.88362561
_cell_angle_gamma   114.71594835
_symmetry_Int_Tables_number   1
_chemical_formula_structural   LiMn3(BO3)3
_chemical_formula_sum   'Li2 Mn6 B6 O18'
_cell_volume   369.93553624
_cell_formula_units_Z   2
loop_
 _symmetry_equiv_pos_site_id
 _symmetry_equiv_pos_as_xyz
  1  'x, y, z'
loop_
 _atom_site_type_symbol
 _atom_site_label
 _atom_site_symmetry_multiplicity
 _atom_site_fract_x
 _atom_site_fract_y
 _atom_site_fract_z
 _atom_site_occupancy
  Li  Li0  1  0.80334600  0.93224400  0.26171900  1
  Li  Li1  1  0.19665400  0.06775600  0.73828100  1
  Mn  Mn0  1  0.24465500  0.85706400  0.12441100  1
  Mn  Mn1  1  0.41648600  0.43450700  0.19302100  1
  Mn  Mn2  1  0.10207000  0.78243800  0.52798100  1
  Mn  Mn3  1  0.89793000  0.21756200  0.47201900  1
  Mn  Mn4  1  0.58351400  0.56549300  0.80697900  1
  Mn  Mn5  1  0.75534500  0.14293600  0.87558900  1
  B  B0  1  0.71854300  0.79766800  0.02929200  1
  B  B1  1  0.95681200  0.56537500  0.30502500  1
  B  B2  1  0.63217800  0.91506000  0.64502000  1
  B  B3  1  0.36782200  0.08494000  0.35498000  1
  B  B4  1  0.04318800  0.43462500  0.69497500  1
  B  B5  1  0.28145700  0.20233200  0.97070800  1
  O  O0  1  0.94434200  0.74708700  0.02602500  1
  O  O1  1  0.59390800  0.80681500  0.12393300  1
  O  O2  1  0.40554700  0.18464400  0.06396600  1
  O  O3  1  0.11697400  0.57487000  0.21811000  1
  O  O4  1  0.72577600  0.60180100  0.30313100  1
  O  O5  1  0.06342900  0.53316400  0.40308000  1
  O  O6  1  0.77938200  0.92566200  0.55365800  1
  O  O7  1  0.23525700  0.08700400  0.26256000  1
  O  O8  1  0.37516300  0.91818300  0.64381100  1
  O  O9  1  0.62483700  0.08181700  0.35618900  1
  O  O10  1  0.76474300  0.91299600  0.73744000  1
  O  O11  1  0.22061800  0.07433800  0.44634200  1
  O  O12  1  0.93657100  0.46683600  0.59692000  1
  O  O13  1  0.27422400  0.39819900  0.69686900  1
  O  O14  1  0.88302600  0.42513000  0.78189000  1
  O  O15  1  0.59445300  0.81535600  0.93603400  1
  O  O16  1  0.40609200  0.19318500  0.87606700  1
  O  O17  1  0.05565800  0.25291300  0.97397500  1
loop_
_geom_bond_atom_site_label_1
_geom_bond_atom_site_label_2
_geom_bond_distance
_geom_bond_site_symmetry_2
Li0 O9 1.934249 1_565
Li0 O4 1.940409 1_555
Li0 O1 2.020817 1_555
Li0 O7 2.097614 1_665
Li1 O8 1.934249 1_545
Li1 O13 1.940409 1_555
Li1 O16 2.020817 1_555
Li1 O10 2.097614 1_445
Mn0 O0 1.904498 1_455
Mn0 O2 1.981007 1_565
Mn0 O3 2.006269 1_555
Mn0 O1 2.010267 1_555
Mn0 O7 2.183650 1_565
Mn1 O4 2.044137 1_555
Mn1 O3 2.108257 1_555
Mn1 O7 2.135938 1_555
Mn1 O2 2.138270 1_555
Mn1 O1 2.253310 1_555
Mn2 O11 1.955018 1_565
Mn2 O8 1.966430 1_555
Mn2 O12 1.976741 1_455
Mn2 O5 2.062865 1_555
Mn2 O6 2.235999 1_455
Mn3 O6 1.955018 1_545
Mn3 O9 1.966430 1_555
Mn3 O5 1.976741 1_655
Mn3 O12 2.062865 1_555
Mn3 O11 2.235999 1_655
Mn4 O13 2.044137 1_555
Mn4 O14 2.108257 1_555
Mn4 O10 2.135938 1_555
Mn4 O15 2.138270 1_555
Mn4 O16 2.253310 1_555
Mn5 O17 1.904498 1_655
Mn5 O15 1.981007 1_545
Mn5 O14 2.006269 1_555
Mn5 O16 2.010267 1_555
Mn5 O10 2.183650 1_545
B0 O0 1.360484 1_555
B0 O1 1.393996 1_555
B0 O15 1.401279 1_554
B1 O4 1.340641 1_555
B1 O3 1.395099 1_655
B1 O5 1.439689 1_655
B2 O8 1.381935 1_555
B2 O10 1.387122 1_555
B2 O6 1.401618 1_555
B3 O9 1.381935 1_555
B3 O7 1.387122 1_555
B3 O11 1.401618 1_555
B4 O13 1.340641 1_555
B4 O14 1.395099 1_455
B4 O12 1.439689 1_455
B5 O17 1.360484 1_555
B5 O16 1.393996 1_555
B5 O2 1.401279 1_556
