# generated using pymatgen
data_Co2(SnTe)3
_symmetry_space_group_name_H-M   'P 1'
_cell_length_a   9.13219958
_cell_length_b   9.13219958
_cell_length_c   9.13219941
_cell_angle_alpha   90.06679560
_cell_angle_beta   90.06679562
_cell_angle_gamma   90.06678631
_symmetry_Int_Tables_number   1
_chemical_formula_structural   Co2(SnTe)3
_chemical_formula_sum   'Co8 Sn12 Te12'
_cell_volume   761.59711137
_cell_formula_units_Z   4
loop_
 _symmetry_equiv_pos_site_id
 _symmetry_equiv_pos_as_xyz
  1  'x, y, z'
loop_
 _atom_site_type_symbol
 _atom_site_label
 _atom_site_symmetry_multiplicity
 _atom_site_fract_x
 _atom_site_fract_y
 _atom_site_fract_z
 _atom_site_occupancy
  Co  Co0  1  0.24831096  0.24448437  0.74464985  1
  Co  Co1  1  0.74464985  0.24831096  0.24448437  1
  Co  Co2  1  0.24448437  0.74464985  0.24831096  1
  Co  Co3  1  0.75168904  0.75551563  0.25535015  1
  Co  Co4  1  0.25535015  0.75168904  0.75551563  1
  Co  Co5  1  0.75551563  0.25535015  0.75168904  1
  Co  Co6  1  0.74816291  0.74816291  0.74816291  1
  Co  Co7  1  0.25183709  0.25183709  0.25183709  1
  Sn  Sn0  1  0.83481500  0.68049923  0.00314618  1
  Sn  Sn1  1  0.00314618  0.83481500  0.68049923  1
  Sn  Sn2  1  0.68049923  0.00314618  0.83481500  1
  Sn  Sn3  1  0.16518500  0.31950077  0.99685382  1
  Sn  Sn4  1  0.99685382  0.16518500  0.31950077  1
  Sn  Sn5  1  0.31950077  0.99685382  0.16518500  1
  Sn  Sn6  1  0.66576176  0.18014076  0.49923819  1
  Sn  Sn7  1  0.49923819  0.66576176  0.18014076  1
  Sn  Sn8  1  0.18014076  0.49923819  0.66576176  1
  Sn  Sn9  1  0.33423824  0.81985924  0.50076181  1
  Sn  Sn10  1  0.50076181  0.33423824  0.81985924  1
  Sn  Sn11  1  0.81985924  0.50076181  0.33423824  1
  Te  Te0  1  0.34510347  0.15956669  0.49580061  1
  Te  Te1  1  0.49580061  0.34510347  0.15956669  1
  Te  Te2  1  0.15956669  0.49580061  0.34510347  1
  Te  Te3  1  0.65489653  0.84043331  0.50419939  1
  Te  Te4  1  0.50419939  0.65489653  0.84043331  1
  Te  Te5  1  0.84043331  0.50419939  0.65489653  1
  Te  Te6  1  0.15510999  0.66057186  0.99934509  1
  Te  Te7  1  0.99934509  0.15510999  0.66057186  1
  Te  Te8  1  0.66057186  0.99934509  0.15510999  1
  Te  Te9  1  0.84489001  0.33942814  0.00065491  1
  Te  Te10  1  0.00065491  0.84489001  0.33942814  1
  Te  Te11  1  0.33942814  0.00065491  0.84489001  1
loop_
_geom_bond_atom_site_label_1
_geom_bond_atom_site_label_2
_geom_bond_distance
_geom_bond_site_symmetry_2
Co0 Sn8 2.515002 1_555
Co0 Sn3 2.520281 1_555
Co0 Te7 2.532810 1_455
Co0 Sn10 2.539520 1_555
Co0 Te11 2.548697 1_555
Co0 Te0 2.559164 1_555
Co1 Sn6 2.515002 1_555
Co1 Sn4 2.520281 1_555
Co1 Te8 2.532810 1_545
Co1 Sn11 2.539520 1_555
Co1 Te9 2.548697 1_555
Co1 Te1 2.559164 1_555
Co2 Sn7 2.515002 1_555
Co2 Sn5 2.520281 1_555
Co2 Te6 2.532810 1_554
Co2 Sn9 2.539520 1_555
Co2 Te10 2.548697 1_555
Co2 Te2 2.559164 1_555
Co3 Sn11 2.515002 1_555
Co3 Sn0 2.520281 1_555
Co3 Te10 2.532810 1_655
Co3 Sn7 2.539520 1_555
Co3 Te8 2.548697 1_555
Co3 Te3 2.559164 1_555
Co4 Sn9 2.515002 1_555
Co4 Sn1 2.520281 1_555
Co4 Te11 2.532810 1_565
Co4 Sn8 2.539520 1_555
Co4 Te6 2.548697 1_555
Co4 Te4 2.559164 1_555
Co5 Sn10 2.515002 1_555
Co5 Sn2 2.520281 1_555
Co5 Te9 2.532810 1_556
Co5 Sn6 2.539520 1_555
Co5 Te7 2.548697 1_555
Co5 Te5 2.559164 1_555
Co6 Te5 2.529968 1_555
Co6 Te3 2.529968 1_555
Co6 Te4 2.529968 1_555
Co6 Sn2 2.535823 1_565
Co6 Sn0 2.535823 1_556
Co6 Sn1 2.535823 1_655
Co7 Te2 2.529968 1_555
Co7 Te0 2.529968 1_555
Co7 Te1 2.529968 1_555
Co7 Sn5 2.535823 1_545
Co7 Sn3 2.535823 1_554
Co7 Sn4 2.535823 1_455
Sn0 Te6 2.931108 1_654
Sn0 Te9 3.116252 1_555
Sn1 Te7 2.931108 1_465
Sn1 Te10 3.116252 1_555
Sn2 Te8 2.931108 1_546
Sn2 Te11 3.116252 1_555
Sn3 Te9 2.931108 1_456
Sn3 Te6 3.116252 1_555
Sn4 Te10 2.931108 1_645
Sn4 Te7 3.116252 1_555
Sn5 Te11 2.931108 1_564
Sn5 Te8 3.116252 1_555
Sn6 Te0 2.934247 1_555
Sn6 Te3 3.104132 1_545
Sn7 Te1 2.934247 1_555
Sn7 Te4 3.104132 1_554
Sn8 Te2 2.934247 1_555
Sn8 Te5 3.104132 1_455
Sn9 Te3 2.934247 1_555
Sn9 Te0 3.104132 1_565
Sn10 Te4 2.934247 1_555
Sn10 Te1 3.104132 1_556
Sn11 Te5 2.934247 1_555
Sn11 Te2 3.104132 1_655
