# generated using pymatgen
data_Ca2SnS4
_symmetry_space_group_name_H-M   'P 1'
_cell_length_a   7.91639055
_cell_length_b   7.91639055
_cell_length_c   7.91639055
_cell_angle_alpha   143.21531661
_cell_angle_beta   143.21531661
_cell_angle_gamma   53.00230074
_symmetry_Int_Tables_number   1
_chemical_formula_structural   Ca2SnS4
_chemical_formula_sum   'Ca2 Sn1 S4'
_cell_volume   176.80246598
_cell_formula_units_Z   1
loop_
 _symmetry_equiv_pos_site_id
 _symmetry_equiv_pos_as_xyz
  1  'x, y, z'
loop_
 _atom_site_type_symbol
 _atom_site_label
 _atom_site_symmetry_multiplicity
 _atom_site_fract_x
 _atom_site_fract_y
 _atom_site_fract_z
 _atom_site_occupancy
  Ca  Ca0  1  0.36440100  0.36440100  0.00000000  1
  Ca  Ca1  1  0.63559900  0.63559900  0.00000000  1
  Sn  Sn0  1  0.00000000  0.00000000  0.00000000  1
  S  S0  1  0.00000000  0.50000000  0.50000000  1
  S  S1  1  0.50000000  0.00000000  0.50000000  1
  S  S2  1  0.17519000  0.17519000  0.00000000  1
  S  S3  1  0.82481000  0.82481000  0.00000000  1
loop_
_geom_bond_atom_site_label_1
_geom_bond_atom_site_label_2
_geom_bond_distance
_geom_bond_site_symmetry_2
Ca0 S2 2.680961 1_555
Ca0 S0 3.151266 1_554
Ca0 S1 3.151266 1_554
Ca0 S0 3.151266 1_655
Ca0 S1 3.151266 1_565
Ca1 S3 2.680961 1_555
Ca1 S0 3.151266 1_554
Ca1 S1 3.151266 1_554
Ca1 S0 3.151266 1_655
Ca1 S1 3.151266 1_565
S0 Sn0 2.497797 1_566
S0 Sn0 2.497797 1_555
S1 Sn0 2.497797 1_656
S1 Sn0 2.497797 1_555
S2 Sn0 2.482295 1_555
S3 Sn0 2.482295 1_665
