# generated using pymatgen
data_AcAg2Sn
_symmetry_space_group_name_H-M   'P 1'
_cell_length_a   5.22462505
_cell_length_b   5.22462505
_cell_length_c   5.22462505
_cell_angle_alpha   60.00000000
_cell_angle_beta   60.00000000
_cell_angle_gamma   60.00000000
_symmetry_Int_Tables_number   1
_chemical_formula_structural   AcAg2Sn
_chemical_formula_sum   'Ac1 Ag2 Sn1'
_cell_volume   100.84407496
_cell_formula_units_Z   1
loop_
 _symmetry_equiv_pos_site_id
 _symmetry_equiv_pos_as_xyz
  1  'x, y, z'
loop_
 _atom_site_type_symbol
 _atom_site_label
 _atom_site_symmetry_multiplicity
 _atom_site_fract_x
 _atom_site_fract_y
 _atom_site_fract_z
 _atom_site_occupancy
  Ac  Ac0  1  0.24999900  0.24999900  0.24999900  1
  Ag  Ag0  1  0.00000000  0.00000000  0.00000000  1
  Ag  Ag1  1  0.50000000  0.50000000  0.50000000  1
  Sn  Sn0  1  0.74999900  0.74999900  0.74999900  1
loop_
_geom_bond_atom_site_label_1
_geom_bond_atom_site_label_2
_geom_bond_distance
_geom_bond_site_symmetry_2
Ac0 Ag0 3.199404 1_555
Ac0 Ag1 3.199412 1_455
Ac0 Ag1 3.199412 1_545
Ac0 Ag1 3.199412 1_554
Ac0 Ag0 3.199421 1_565
Ac0 Ag0 3.199421 1_556
Ac0 Ag0 3.199421 1_655
Ac0 Ag1 3.199429 1_555
Ac0 Sn0 3.694368 1_544
Ac0 Sn0 3.694368 1_545
Ac0 Sn0 3.694368 1_445
Ac0 Sn0 3.694368 1_455
Ac0 Sn0 3.694368 1_454
Ac0 Sn0 3.694368 1_554
Ag0 Sn0 3.199412 1_544
Ag0 Sn0 3.199412 1_445
Ag0 Sn0 3.199412 1_454
Ag0 Sn0 3.199429 1_444
Ag1 Sn0 3.199404 1_555
Ag1 Sn0 3.199421 1_545
Ag1 Sn0 3.199421 1_455
Ag1 Sn0 3.199421 1_554
