# generated using pymatgen
data_Cd2AgRh
_symmetry_space_group_name_H-M   'P 1'
_cell_length_a   4.62058283
_cell_length_b   4.62058573
_cell_length_c   4.62058573
_cell_angle_alpha   60.00008333
_cell_angle_beta   60.00007295
_cell_angle_gamma   60.00003123
_symmetry_Int_Tables_number   1
_chemical_formula_structural   Cd2AgRh
_chemical_formula_sum   'Cd2 Ag1 Rh1'
_cell_volume   69.75517666
_cell_formula_units_Z   1
loop_
 _symmetry_equiv_pos_site_id
 _symmetry_equiv_pos_as_xyz
  1  'x, y, z'
loop_
 _atom_site_type_symbol
 _atom_site_label
 _atom_site_symmetry_multiplicity
 _atom_site_fract_x
 _atom_site_fract_y
 _atom_site_fract_z
 _atom_site_occupancy
  Cd  Cd0  1  0.50000000  0.50000000  0.50000000  1
  Cd  Cd1  1  0.00000000  -0.00000000  0.00000000  1
  Ag  Ag0  1  0.25000000  0.25000000  0.25000000  1
  Rh  Rh0  1  0.75000000  0.75000000  0.75000000  1
loop_
_geom_bond_atom_site_label_1
_geom_bond_atom_site_label_2
_geom_bond_distance
_geom_bond_site_symmetry_2
Cd0 Rh0 2.829517 1_555
Cd0 Rh0 2.829519 1_455
Cd0 Rh0 2.829521 1_545
Cd0 Rh0 2.829522 1_554
Cd1 Rh0 2.829517 1_444
Cd1 Rh0 2.829519 1_544
Cd1 Rh0 2.829521 1_454
Cd1 Rh0 2.829522 1_445
Ag0 Cd0 2.829517 1_555
Ag0 Cd1 2.829517 1_555
Ag0 Cd0 2.829519 1_455
Ag0 Cd1 2.829519 1_655
Ag0 Cd1 2.829521 1_565
Ag0 Cd0 2.829521 1_545
Ag0 Cd1 2.829522 1_556
Ag0 Cd0 2.829522 1_554
