# generated using pymatgen
data_La(NiP)2
_symmetry_space_group_name_H-M   'P 1'
_cell_length_a   3.99707561
_cell_length_b   3.99707647
_cell_length_c   5.58544866
_cell_angle_alpha   110.96587547
_cell_angle_beta   110.96587344
_cell_angle_gamma   89.99997988
_symmetry_Int_Tables_number   1
_chemical_formula_structural   La(NiP)2
_chemical_formula_sum   'La1 Ni2 P2'
_cell_volume   76.96836588
_cell_formula_units_Z   1
loop_
 _symmetry_equiv_pos_site_id
 _symmetry_equiv_pos_as_xyz
  1  'x, y, z'
loop_
 _atom_site_type_symbol
 _atom_site_label
 _atom_site_symmetry_multiplicity
 _atom_site_fract_x
 _atom_site_fract_y
 _atom_site_fract_z
 _atom_site_occupancy
  La  La0  1  0.00000000  0.00000000  0.00000000  1
  Ni  Ni0  1  0.75000000  0.25000000  0.50000000  1
  Ni  Ni1  1  0.25000000  0.75000000  0.50000000  1
  P  P0  1  0.63433858  0.63433858  0.26867615  1
  P  P1  1  0.36566142  0.36566142  0.73132385  1
loop_
_geom_bond_atom_site_label_1
_geom_bond_atom_site_label_2
_geom_bond_distance
_geom_bond_site_symmetry_2
La0 P1 3.108645 1_554
La0 P0 3.108645 1_445
La0 P0 3.108647 1_545
La0 P1 3.108647 1_454
La0 P1 3.108647 1_544
La0 P0 3.108647 1_455
La0 P1 3.108650 1_444
La0 P0 3.108650 1_555
La0 Ni0 3.129917 1_555
La0 Ni1 3.129917 1_444
La0 Ni1 3.129917 1_555
La0 Ni0 3.129917 1_444
La0 Ni1 3.129918 1_544
La0 Ni0 3.129918 1_455
La0 Ni1 3.129918 1_545
La0 Ni0 3.129918 1_454
Ni0 P1 2.288246 1_655
Ni0 P0 2.288247 1_545
Ni0 P1 2.288250 1_555
Ni0 P0 2.288250 1_555
Ni1 P0 2.288246 1_455
Ni1 P1 2.288247 1_565
Ni1 P0 2.288250 1_555
Ni1 P1 2.288250 1_555
