# generated using pymatgen
data_Rb2NbF6
_symmetry_space_group_name_H-M   'P 1'
_cell_length_a   6.14929722
_cell_length_b   6.14929789
_cell_length_c   4.60483653
_cell_angle_alpha   90.00000000
_cell_angle_beta   90.00000000
_cell_angle_gamma   120.00000179
_symmetry_Int_Tables_number   1
_chemical_formula_structural   Rb2NbF6
_chemical_formula_sum   'Rb2 Nb1 F6'
_cell_volume   150.79809596
_cell_formula_units_Z   1
loop_
 _symmetry_equiv_pos_site_id
 _symmetry_equiv_pos_as_xyz
  1  'x, y, z'
loop_
 _atom_site_type_symbol
 _atom_site_label
 _atom_site_symmetry_multiplicity
 _atom_site_fract_x
 _atom_site_fract_y
 _atom_site_fract_z
 _atom_site_occupancy
  Rb  Rb0  1  0.33333300  0.66666700  0.70418164  1
  Rb  Rb1  1  0.66666700  0.33333300  0.29581836  1
  Nb  Nb0  1  0.00000000  -0.00000000  -0.00000000  1
  F  F0  1  0.83780843  0.16219157  0.77754459  1
  F  F1  1  0.83780843  0.67561786  0.77754459  1
  F  F2  1  0.32438214  0.16219157  0.77754459  1
  F  F3  1  0.16219157  0.83780843  0.22245541  1
  F  F4  1  0.16219157  0.32438214  0.22245541  1
  F  F5  1  0.67561786  0.83780843  0.22245541  1
loop_
_geom_bond_atom_site_label_1
_geom_bond_atom_site_label_2
_geom_bond_distance
_geom_bond_site_symmetry_2
F0 Nb0 2.008368 1_656
F0 Rb1 2.871125 1_555
F0 Rb1 3.003054 1_556
F0 Rb0 3.093519 1_545
F0 Rb0 3.093519 1_655
F1 Nb0 2.008363 1_666
F1 Rb1 2.871132 1_555
F1 Rb1 3.003060 1_556
F1 Rb0 3.093519 1_555
F1 Rb0 3.093519 1_655
F2 Nb0 2.008363 1_556
F2 Rb1 2.871132 1_555
F2 Rb1 3.003060 1_556
F2 Rb0 3.093520 1_545
F2 Rb0 3.093520 1_555
F3 Nb0 2.008368 1_565
F3 Rb0 2.871125 1_555
F3 Rb0 3.003054 1_554
F3 Rb1 3.093519 1_565
F3 Rb1 3.093519 1_455
F4 Nb0 2.008363 1_555
F4 Rb0 2.871132 1_555
F4 Rb0 3.003060 1_554
F4 Rb1 3.093519 1_555
F4 Rb1 3.093519 1_455
F5 Nb0 2.008363 1_665
F5 Rb0 2.871132 1_555
F5 Rb0 3.003060 1_554
F5 Rb1 3.093520 1_565
F5 Rb1 3.093520 1_555
