# generated using pymatgen
data_Li3MnV(P2O7)2
_symmetry_space_group_name_H-M   'P 1'
_cell_length_a   7.23680024
_cell_length_b   9.79590371
_cell_length_c   9.76933262
_cell_angle_alpha   62.11008017
_cell_angle_beta   101.84729866
_cell_angle_gamma   79.43603611
_symmetry_Int_Tables_number   1
_chemical_formula_structural   Li3MnV(P2O7)2
_chemical_formula_sum   'Li6 Mn2 V2 P8 O28'
_cell_volume   566.97315563
_cell_formula_units_Z   2
loop_
 _symmetry_equiv_pos_site_id
 _symmetry_equiv_pos_as_xyz
  1  'x, y, z'
loop_
 _atom_site_type_symbol
 _atom_site_label
 _atom_site_symmetry_multiplicity
 _atom_site_fract_x
 _atom_site_fract_y
 _atom_site_fract_z
 _atom_site_occupancy
  Li  Li0  1  0.33785800  0.16722200  0.68428300  1
  Li  Li1  1  0.33896500  0.66689700  0.18458300  1
  Li  Li2  1  0.90476300  0.49212700  0.66962000  1
  Li  Li3  1  0.90406200  0.99128000  0.16985400  1
  Li  Li4  1  0.65703300  0.44060200  0.91650300  1
  Li  Li5  1  0.65662800  0.94093100  0.41573700  1
  Mn  Mn0  1  0.72999500  0.22544300  0.75825700  1
  Mn  Mn1  1  0.73013700  0.72556600  0.25822900  1
  V  V0  1  0.27619700  0.00691500  0.49754000  1
  V  V1  1  0.27521400  0.50686600  0.99796200  1
  P  P0  1  0.47553500  0.65926600  0.52660900  1
  P  P1  1  0.47453500  0.15944400  0.02638500  1
  P  P2  1  0.91955700  0.81938900  0.96225100  1
  P  P3  1  0.91935800  0.31933600  0.46247900  1
  P  P4  1  0.08835800  0.70943200  0.58794900  1
  P  P5  1  0.08782700  0.20848400  0.08819900  1
  P  P6  1  0.52197100  0.77581300  0.90265500  1
  P  P7  1  0.52177200  0.27567400  0.40331800  1
  O  O0  1  0.12189100  0.07029800  0.26467400  1
  O  O1  1  0.12091500  0.57097600  0.76382700  1
  O  O2  1  0.11735800  0.20359000  0.49061300  1
  O  O3  1  0.11784600  0.70347500  0.99091900  1
  O  O4  1  0.49557000  0.66907500  0.37071200  1
  O  O5  1  0.49431400  0.17015000  0.87010600  1
  O  O6  1  0.47990100  0.81857600  0.52193500  1
  O  O7  1  0.47866800  0.31832000  0.02272800  1
  O  O8  1  0.41565500  0.93625800  0.73454800  1
  O  O9  1  0.41498300  0.43610200  0.23547700  1
  O  O10  1  0.09433100  0.87089300  0.56884500  1
  O  O11  1  0.09257300  0.37077500  0.06751800  1
  O  O12  1  0.25645400  0.64346500  0.52672400  1
  O  O13  1  0.25574100  0.14284500  0.02673800  1
  O  O14  1  0.75796100  0.73273700  0.92747700  1
  O  O15  1  0.75761700  0.23252000  0.42830800  1
  O  O16  1  0.92599800  0.81776000  0.12205500  1
  O  O17  1  0.92606200  0.31825100  0.62210900  1
  O  O18  1  0.63102600  0.51020800  0.68495300  1
  O  O19  1  0.63026100  0.01036700  0.18449600  1
  O  O20  1  0.49026800  0.79326900  0.04382300  1
  O  O21  1  0.49005700  0.29268000  0.54473500  1
  O  O22  1  0.47515200  0.62690500  0.90699000  1
  O  O23  1  0.47529600  0.12673800  0.40727300  1
  O  O24  1  0.88901200  0.22188500  0.98079200  1
  O  O25  1  0.88952400  0.72433300  0.47901200  1
  O  O26  1  0.86173000  0.48911700  0.31507700  1
  O  O27  1  0.86303100  0.98913200  0.81512100  1
loop_
_geom_bond_atom_site_label_1
_geom_bond_atom_site_label_2
_geom_bond_distance
_geom_bond_site_symmetry_2
Li0 O5 1.948074 1_555
Li0 O8 2.014208 1_545
Li0 O21 2.031630 1_555
Li0 O2 2.043100 1_555
Li1 O4 1.946863 1_555
Li1 O9 2.010292 1_555
Li1 O20 2.035934 1_555
Li1 O3 2.044741 1_554
Li2 O17 1.952707 1_555
Li2 O18 1.999025 1_555
Li2 O1 2.099389 1_655
Li2 O25 2.124793 1_555
Li3 O16 1.951053 1_555
Li3 O19 1.996771 1_565
Li3 O24 2.109515 1_564
Li3 O0 2.112075 1_665
Li4 O18 1.988095 1_555
Li4 O22 1.995514 1_555
Li4 O7 2.032715 1_556
Li4 O24 2.189184 1_555
Li5 O19 1.985024 1_565
Li5 O23 1.995160 1_565
Li5 O6 2.022913 1_555
Li5 O25 2.181424 1_555
Mn0 O27 2.086697 1_545
Mn0 O21 2.146662 1_555
Mn0 O17 2.173827 1_555
Mn0 O24 2.222385 1_555
Mn0 O5 2.224097 1_555
Mn0 O18 2.448511 1_555
Mn1 O26 2.085872 1_555
Mn1 O20 2.150763 1_555
Mn1 O16 2.171186 1_555
Mn1 O25 2.220766 1_555
Mn1 O4 2.221890 1_555
Mn1 O19 2.447750 1_565
O0 P5 1.544431 1_555
O0 V0 2.046722 1_555
O1 P4 1.543925 1_555
O1 V1 2.055099 1_555
O2 P3 1.537961 1_455
O2 V0 2.017866 1_555
O3 P2 1.538487 1_455
O3 V1 2.012621 1_555
O4 P0 1.519434 1_555
O5 P1 1.519166 1_556
O6 P0 1.546129 1_555
O6 V0 2.020135 1_565
O7 P1 1.545909 1_555
O7 V1 2.018971 1_554
O8 P6 1.543464 1_555
O8 V0 2.035630 1_565
O9 P7 1.542458 1_555
O9 V1 2.040125 1_554
O10 P4 1.513458 1_555
O10 V0 2.035680 1_565
O11 P5 1.513867 1_555
O11 V1 2.037976 1_554
O12 P4 1.620890 1_555
O12 P0 1.621156 1_555
O13 P5 1.620143 1_555
O13 P1 1.621612 1_555
O14 P6 1.619713 1_555
O14 P2 1.635280 1_555
O15 P7 1.618378 1_555
O15 P3 1.635507 1_555
O16 P2 1.544748 1_554
O17 P3 1.545211 1_555
O18 P0 1.536510 1_555
O19 P1 1.536237 1_555
O20 P6 1.523155 1_554
O21 P7 1.523353 1_555
O22 P6 1.540675 1_555
O22 V1 2.107197 1_555
O23 P7 1.541334 1_555
O23 V0 2.098780 1_555
O24 P5 1.539588 1_656
O25 P4 1.540544 1_655
O26 P3 1.507363 1_555
O27 P2 1.507112 1_555
