# generated using pymatgen
data_SrZn2(PO4)2
_symmetry_space_group_name_H-M   'P 1'
_cell_length_a   9.64712700
_cell_length_b   8.44752400
_cell_length_c   9.14225605
_cell_angle_alpha   87.89623196
_cell_angle_beta   90.00000000
_cell_angle_gamma   90.00000000
_symmetry_Int_Tables_number   1
_chemical_formula_structural   SrZn2(PO4)2
_chemical_formula_sum   'Sr4 Zn8 P8 O32'
_cell_volume   744.53992205
_cell_formula_units_Z   4
loop_
 _symmetry_equiv_pos_site_id
 _symmetry_equiv_pos_as_xyz
  1  'x, y, z'
loop_
 _atom_site_type_symbol
 _atom_site_label
 _atom_site_symmetry_multiplicity
 _atom_site_fract_x
 _atom_site_fract_y
 _atom_site_fract_z
 _atom_site_occupancy
  Sr  Sr0  1  0.58157900  0.24665000  0.88993000  1
  Sr  Sr1  1  0.08157900  0.75335000  0.61007000  1
  Sr  Sr2  1  0.41842100  0.75335000  0.11007000  1
  Sr  Sr3  1  0.91842100  0.24665000  0.38993000  1
  Zn  Zn0  1  0.81892400  0.91933000  0.05033900  1
  Zn  Zn1  1  0.31892400  0.08067000  0.44966100  1
  Zn  Zn2  1  0.18107600  0.08067000  0.94966100  1
  Zn  Zn3  1  0.68107600  0.91933000  0.55033900  1
  Zn  Zn4  1  0.07278500  0.57518500  0.21054200  1
  Zn  Zn5  1  0.57278500  0.42481500  0.28945800  1
  Zn  Zn6  1  0.92721500  0.42481500  0.78945800  1
  Zn  Zn7  1  0.42721500  0.57518500  0.71054200  1
  P  P0  1  0.58481000  0.05763700  0.24997500  1
  P  P1  1  0.08481000  0.94236300  0.25002500  1
  P  P2  1  0.41519000  0.94236300  0.75002500  1
  P  P3  1  0.91519000  0.05763700  0.74997500  1
  P  P4  1  0.79399500  0.54433800  0.06912700  1
  P  P5  1  0.29399500  0.45566200  0.43087300  1
  P  P6  1  0.20600500  0.45566200  0.93087300  1
  P  P7  1  0.70600500  0.54433800  0.56912700  1
  O  O0  1  0.87285000  0.94866600  0.62312300  1
  O  O1  1  0.37285000  0.05133400  0.87687700  1
  O  O2  1  0.12715000  0.05133400  0.37687700  1
  O  O3  1  0.62715000  0.94866600  0.12312300  1
  O  O4  1  0.64358300  0.70108700  0.50759100  1
  O  O5  1  0.14358300  0.29891300  0.99240900  1
  O  O6  1  0.35641700  0.29891300  0.49240900  1
  O  O7  1  0.85641700  0.70108700  0.00759100  1
  O  O8  1  0.64232200  0.56630400  0.12320500  1
  O  O9  1  0.14232200  0.43369600  0.37679500  1
  O  O10  1  0.35767800  0.43369600  0.87679500  1
  O  O11  1  0.85767800  0.56630400  0.62320500  1
  O  O12  1  0.80465500  0.06408600  0.87267800  1
  O  O13  1  0.30465500  0.93591400  0.62732200  1
  O  O14  1  0.19534500  0.93591400  0.12732200  1
  O  O15  1  0.69534500  0.06408600  0.37267800  1
  O  O16  1  0.94790000  0.01578300  0.18951300  1
  O  O17  1  0.44790000  0.98421700  0.31048700  1
  O  O18  1  0.05210000  0.98421700  0.81048700  1
  O  O19  1  0.55210000  0.01578300  0.68951300  1
  O  O20  1  0.61168700  0.47702700  0.69618300  1
  O  O21  1  0.11168700  0.52297300  0.80381700  1
  O  O22  1  0.38831300  0.52297300  0.30381700  1
  O  O23  1  0.88831300  0.47702700  0.19618300  1
  O  O24  1  0.79192100  0.41913500  0.94784200  1
  O  O25  1  0.29192100  0.58086500  0.55215800  1
  O  O26  1  0.20807900  0.58086500  0.05215800  1
  O  O27  1  0.70807900  0.41913500  0.44784200  1
  O  O28  1  0.93467400  0.22678600  0.67933800  1
  O  O29  1  0.43467400  0.77321400  0.82066200  1
  O  O30  1  0.06532600  0.77321400  0.32066200  1
  O  O31  1  0.56532600  0.22678600  0.17933800  1
loop_
_geom_bond_atom_site_label_1
_geom_bond_atom_site_label_2
_geom_bond_distance
_geom_bond_site_symmetry_2
O0 P3 1.561262 1_565
O0 Zn3 1.984702 1_555
O0 Sr1 2.608776 1_655
O1 P2 1.561262 1_545
O1 Zn2 1.984702 1_555
O1 Sr0 2.608776 1_555
O2 P1 1.561262 1_545
O2 Zn1 1.984702 1_555
O2 Sr3 2.608776 1_455
O3 P0 1.561262 1_565
O3 Zn0 1.984702 1_555
O3 Sr2 2.608776 1_555
O4 P7 1.542008 1_555
O4 Zn3 1.932710 1_555
O5 P6 1.542008 1_555
O5 Zn2 1.932710 1_555
O6 P5 1.542008 1_555
O6 Zn1 1.932710 1_555
O7 P4 1.542008 1_555
O7 Zn0 1.932710 1_555
O8 P4 1.557746 1_555
O8 Zn5 2.013802 1_555
O8 Sr2 2.676329 1_555
O9 P5 1.557746 1_555
O9 Zn4 2.013802 1_555
O9 Sr3 2.676329 1_455
O10 P6 1.557746 1_555
O10 Zn7 2.013802 1_555
O10 Sr0 2.676329 1_555
O11 P7 1.557746 1_555
O11 Zn6 2.013802 1_555
O11 Sr1 2.676329 1_655
O12 P3 1.550143 1_555
O12 Zn0 2.001634 1_546
O12 Sr0 2.655644 1_555
O13 P2 1.550143 1_555
O13 Zn1 2.001634 1_565
O13 Sr1 2.655644 1_555
O14 P1 1.550143 1_555
O14 Zn2 2.001634 1_564
O14 Sr2 2.655644 1_555
O15 P0 1.550143 1_555
O15 Zn3 2.001634 1_545
O15 Sr3 2.655644 1_555
O16 P1 1.552420 1_645
O16 Zn0 1.976628 1_545
O16 Sr3 2.739327 1_555
O17 P0 1.552420 1_565
O17 Zn1 1.976628 1_565
O17 Sr2 2.739327 1_555
O18 P3 1.552420 1_465
O18 Zn2 1.976628 1_565
O18 Sr1 2.739327 1_555
O19 P2 1.552420 1_545
O19 Zn3 1.976628 1_545
O19 Sr0 2.739327 1_555
O20 P7 1.565888 1_555
O20 Zn7 1.969733 1_555
O20 Sr0 2.599249 1_555
O21 P6 1.565888 1_555
O21 Zn6 1.969733 1_455
O21 Sr1 2.599249 1_555
O22 P5 1.565888 1_555
O22 Zn5 1.969733 1_555
O22 Sr2 2.599249 1_555
O23 P4 1.565888 1_555
O23 Zn4 1.969733 1_655
O23 Sr3 2.599249 1_555
O24 P4 1.560325 1_556
O24 Zn6 1.948695 1_555
O24 Sr0 2.564692 1_555
O25 P5 1.560325 1_555
O25 Zn7 1.948695 1_555
O25 Sr1 2.564692 1_555
O26 P6 1.560325 1_554
O26 Zn4 1.948695 1_555
O26 Sr2 2.564692 1_555
O27 P7 1.560325 1_555
O27 Zn5 1.948695 1_555
O27 Sr3 2.564692 1_555
O28 P3 1.557673 1_555
O28 Zn6 1.985146 1_555
O28 Sr3 2.649646 1_555
O29 P2 1.557673 1_555
O29 Zn7 1.985146 1_555
O29 Sr2 2.649646 1_556
O30 P1 1.557673 1_555
O30 Zn4 1.985146 1_555
O30 Sr1 2.649646 1_555
O31 P0 1.557673 1_555
O31 Zn5 1.985146 1_555
O31 Sr0 2.649646 1_554
