# generated using pymatgen
data_LiVF5
_symmetry_space_group_name_H-M   'P 1'
_cell_length_a   10.05734300
_cell_length_b   5.22578000
_cell_length_c   6.64566273
_cell_angle_alpha   73.48450819
_cell_angle_beta   90.00000000
_cell_angle_gamma   90.00000000
_symmetry_Int_Tables_number   1
_chemical_formula_structural   LiVF5
_chemical_formula_sum   'Li4 V4 F20'
_cell_volume   334.86892248
_cell_formula_units_Z   4
loop_
 _symmetry_equiv_pos_site_id
 _symmetry_equiv_pos_as_xyz
  1  'x, y, z'
loop_
 _atom_site_type_symbol
 _atom_site_label
 _atom_site_symmetry_multiplicity
 _atom_site_fract_x
 _atom_site_fract_y
 _atom_site_fract_z
 _atom_site_occupancy
  Li  Li0  1  0.74346600  0.94498000  0.88426700  1
  Li  Li1  1  0.75653400  0.94498000  0.38426700  1
  Li  Li2  1  0.24346600  0.05502000  0.61573300  1
  Li  Li3  1  0.25653400  0.05502000  0.11573300  1
  V  V0  1  0.96884100  0.55433500  0.74386100  1
  V  V1  1  0.46884100  0.44566500  0.75613900  1
  V  V2  1  0.53115900  0.55433500  0.24386100  1
  V  V3  1  0.03115900  0.44566500  0.25613900  1
  F  F0  1  0.08427500  0.84334100  0.69510800  1
  F  F1  1  0.82426900  0.78295500  0.67510000  1
  F  F2  1  0.36507600  0.75203400  0.68905400  1
  F  F3  1  0.59171300  0.60289600  0.90318700  1
  F  F4  1  0.41572500  0.84334100  0.19510800  1
  F  F5  1  0.67573100  0.78295500  0.17510000  1
  F  F6  1  0.13492400  0.75203400  0.18905400  1
  F  F7  1  0.58895300  0.62843600  0.52116900  1
  F  F8  1  0.08895300  0.37156400  0.97883100  1
  F  F9  1  0.90828700  0.60289600  0.40318700  1
  F  F10  1  0.09171300  0.39710400  0.59681300  1
  F  F11  1  0.91104700  0.62843600  0.02116900  1
  F  F12  1  0.41104700  0.37156400  0.47883100  1
  F  F13  1  0.86507600  0.24796600  0.81094600  1
  F  F14  1  0.32426900  0.21704500  0.82490000  1
  F  F15  1  0.58427500  0.15665900  0.80489200  1
  F  F16  1  0.40828700  0.39710400  0.09681300  1
  F  F17  1  0.63492400  0.24796600  0.31094600  1
  F  F18  1  0.17573100  0.21704500  0.32490000  1
  F  F19  1  0.91572500  0.15665900  0.30489200  1
loop_
_geom_bond_atom_site_label_1
_geom_bond_atom_site_label_2
_geom_bond_distance
_geom_bond_site_symmetry_2
F0 V0 1.858910 1_455
F0 Li2 1.932220 1_565
F1 V0 1.854701 1_555
F1 Li0 1.994680 1_555
F1 Li1 1.996546 1_555
F2 V1 1.856152 1_555
F2 Li2 1.949784 1_565
F3 V1 1.900981 1_555
F3 V2 2.287872 1_556
F3 Li0 2.326610 1_555
F4 V2 1.858910 1_555
F4 Li3 1.932220 1_565
F5 V2 1.854701 1_555
F5 Li1 1.994680 1_555
F5 Li0 1.996546 1_554
F6 V3 1.856152 1_555
F6 Li3 1.949784 1_565
F7 V1 1.990466 1_555
F7 V2 2.071185 1_555
F7 Li1 2.355645 1_555
F8 V0 1.990466 1_455
F8 V3 2.071185 1_556
F8 Li3 2.355645 1_556
F9 V3 1.900981 1_655
F9 V0 2.287872 1_555
F9 Li1 2.326610 1_555
F10 V0 1.900981 1_455
F10 V3 2.287872 1_555
F10 Li2 2.326610 1_555
F11 V3 1.990466 1_655
F11 V0 2.071185 1_554
F11 Li0 2.355645 1_554
F12 V2 1.990466 1_555
F12 V1 2.071185 1_555
F12 Li2 2.355645 1_555
F13 V0 1.856152 1_555
F13 Li0 1.949784 1_545
F14 V1 1.854701 1_555
F14 Li2 1.994680 1_555
F14 Li3 1.996546 1_556
F15 V1 1.858910 1_555
F15 Li0 1.932220 1_545
F16 V2 1.900981 1_555
F16 V1 2.287872 1_554
F16 Li3 2.326610 1_555
F17 V2 1.856152 1_555
F17 Li1 1.949784 1_545
F18 V3 1.854701 1_555
F18 Li3 1.994680 1_555
F18 Li2 1.996546 1_555
F19 V3 1.858910 1_655
F19 Li1 1.932220 1_545
