# generated using pymatgen
data_Li4MnCo3O8
_symmetry_space_group_name_H-M   'P 1'
_cell_length_a   5.98546464
_cell_length_b   5.98546464
_cell_length_c   5.86697648
_cell_angle_alpha   60.71371819
_cell_angle_beta   60.71371819
_cell_angle_gamma   58.21868584
_symmetry_Int_Tables_number   1
_chemical_formula_structural   Li4MnCo3O8
_chemical_formula_sum   'Li4 Mn1 Co3 O8'
_cell_volume   148.04334042
_cell_formula_units_Z   1
loop_
 _symmetry_equiv_pos_site_id
 _symmetry_equiv_pos_as_xyz
  1  'x, y, z'
loop_
 _atom_site_type_symbol
 _atom_site_label
 _atom_site_symmetry_multiplicity
 _atom_site_fract_x
 _atom_site_fract_y
 _atom_site_fract_z
 _atom_site_occupancy
  Li  Li0  1  0.50000000  0.50000000  0.00000000  1
  Li  Li1  1  0.00000000  0.50000000  0.00000000  1
  Li  Li2  1  0.00000000  0.00000000  0.00000000  1
  Li  Li3  1  0.50000000  0.00000000  0.00000000  1
  Mn  Mn0  1  0.00000000  0.00000000  0.50000000  1
  Co  Co0  1  0.50000000  0.50000000  0.50000000  1
  Co  Co1  1  0.00000000  0.50000000  0.50000000  1
  Co  Co2  1  0.50000000  0.00000000  0.50000000  1
  O  O0  1  0.25077000  0.76317000  0.72437800  1
  O  O1  1  0.74182300  0.74182300  0.73572400  1
  O  O2  1  0.74007200  0.74007200  0.26896200  1
  O  O3  1  0.76317000  0.25077000  0.72437800  1
  O  O4  1  0.23683000  0.74923000  0.27562200  1
  O  O5  1  0.25992800  0.25992800  0.73103800  1
  O  O6  1  0.25817700  0.25817700  0.26427600  1
  O  O7  1  0.74923000  0.23683000  0.27562200  1
loop_
_geom_bond_atom_site_label_1
_geom_bond_atom_site_label_2
_geom_bond_distance
_geom_bond_site_symmetry_2
Li0 O6 2.099920 1_555
Li0 O1 2.099920 1_554
Li0 O0 2.171243 1_554
Li0 O3 2.171243 1_554
Li0 O7 2.171243 1_555
Li0 O4 2.171243 1_555
Li1 O2 2.106420 1_455
Li1 O5 2.106420 1_554
Li1 O6 2.163214 1_555
Li1 O1 2.163214 1_454
Li1 O0 2.229997 1_554
Li1 O7 2.229997 1_455
Li2 O7 2.122270 1_455
Li2 O3 2.122270 1_454
Li2 O0 2.122270 1_544
Li2 O4 2.122270 1_545
Li2 O5 2.253203 1_554
Li2 O2 2.253203 1_445
Li3 O2 2.106420 1_545
Li3 O5 2.106420 1_554
Li3 O6 2.163214 1_555
Li3 O1 2.163214 1_544
Li3 O4 2.229997 1_545
Li3 O3 2.229997 1_554
Mn0 O3 1.965082 1_455
Mn0 O0 1.965082 1_545
Mn0 O7 1.965082 1_455
Mn0 O4 1.965082 1_545
Mn0 O6 2.241044 1_555
Mn0 O1 2.241044 1_445
Co0 O3 2.017874 1_555
Co0 O0 2.017874 1_555
Co0 O4 2.017874 1_555
Co0 O7 2.017874 1_555
Co0 O2 2.081048 1_555
Co0 O5 2.081048 1_555
Co1 O1 1.976654 1_455
Co1 O6 1.976654 1_555
Co1 O5 2.031107 1_555
Co1 O2 2.031107 1_455
Co1 O3 2.109085 1_455
Co1 O4 2.109085 1_555
Co2 O1 1.976654 1_545
Co2 O6 1.976654 1_555
Co2 O5 2.031107 1_555
Co2 O2 2.031107 1_545
Co2 O0 2.109085 1_545
Co2 O7 2.109085 1_555
