# generated using pymatgen
data_Sc2TcHg
_symmetry_space_group_name_H-M   'P 1'
_cell_length_a   4.74086837
_cell_length_b   4.74086830
_cell_length_c   4.74086896
_cell_angle_alpha   59.99984513
_cell_angle_beta   59.99984369
_cell_angle_gamma   59.99985568
_symmetry_Int_Tables_number   1
_chemical_formula_structural   Sc2TcHg
_chemical_formula_sum   'Sc2 Tc1 Hg1'
_cell_volume   75.34548737
_cell_formula_units_Z   1
loop_
 _symmetry_equiv_pos_site_id
 _symmetry_equiv_pos_as_xyz
  1  'x, y, z'
loop_
 _atom_site_type_symbol
 _atom_site_label
 _atom_site_symmetry_multiplicity
 _atom_site_fract_x
 _atom_site_fract_y
 _atom_site_fract_z
 _atom_site_occupancy
  Sc  Sc0  1  0.00000006  0.00000005  0.00000003  1
  Sc  Sc1  1  0.49999930  0.49999930  0.49999932  1
  Tc  Tc0  1  0.75000083  0.75000085  0.75000085  1
  Hg  Hg0  1  0.25000080  0.25000080  0.25000080  1
loop_
_geom_bond_atom_site_label_1
_geom_bond_atom_site_label_2
_geom_bond_distance
_geom_bond_site_symmetry_2
Sc0 Tc0 2.903171 1_444
Sc0 Tc0 2.903175 1_544
Sc0 Tc0 2.903175 1_454
Sc0 Tc0 2.903175 1_445
Sc1 Tc0 2.903166 1_545
Sc1 Tc0 2.903166 1_455
Sc1 Tc0 2.903166 1_554
Sc1 Tc0 2.903198 1_555
Hg0 Sc1 2.903163 1_555
Hg0 Sc0 2.903169 1_556
Hg0 Sc0 2.903169 1_565
Hg0 Sc0 2.903169 1_655
Hg0 Sc1 2.903177 1_554
Hg0 Sc1 2.903177 1_455
Hg0 Sc1 2.903177 1_545
Hg0 Sc0 2.903189 1_555
