# generated using pymatgen
data_Tc3Os
_symmetry_space_group_name_H-M   'P 1'
_cell_length_a   5.48769627
_cell_length_b   5.48769501
_cell_length_c   4.35114367
_cell_angle_alpha   90.00000000
_cell_angle_beta   90.00000000
_cell_angle_gamma   120.00000148
_symmetry_Int_Tables_number   1
_chemical_formula_structural   Tc3Os
_chemical_formula_sum   'Tc6 Os2'
_cell_volume   113.47862944
_cell_formula_units_Z   2
loop_
 _symmetry_equiv_pos_site_id
 _symmetry_equiv_pos_as_xyz
  1  'x, y, z'
loop_
 _atom_site_type_symbol
 _atom_site_label
 _atom_site_symmetry_multiplicity
 _atom_site_fract_x
 _atom_site_fract_y
 _atom_site_fract_z
 _atom_site_occupancy
  Tc  Tc0  1  0.83433240  0.16566660  0.74999900  1
  Tc  Tc1  1  0.33133321  0.16566660  0.74999900  1
  Tc  Tc2  1  0.83433240  0.66866479  0.74999900  1
  Tc  Tc3  1  0.16566660  0.83433240  0.24999800  1
  Tc  Tc4  1  0.66866779  0.83433240  0.24999800  1
  Tc  Tc5  1  0.16566660  0.33133121  0.24999800  1
  Os  Os0  1  0.66666500  0.33333100  0.24999800  1
  Os  Os1  1  0.33333300  0.66666600  0.74999900  1
loop_
_geom_bond_atom_site_label_1
_geom_bond_atom_site_label_2
_geom_bond_distance
_geom_bond_site_symmetry_2
Tc0 Tc4 2.685637 1_546
Tc0 Tc5 2.685638 1_656
Tc0 Tc4 2.685645 1_545
Tc0 Tc5 2.685645 1_655
Tc0 Tc1 2.727389 1_655
Tc0 Tc2 2.727394 1_545
Tc0 Tc2 2.760301 1_555
Tc0 Tc1 2.760307 1_555
Tc1 Tc5 2.685629 1_556
Tc1 Tc5 2.685636 1_555
Tc1 Tc3 2.685637 1_546
Tc1 Tc3 2.685645 1_545
Tc1 Tc2 2.727392 1_445
Tc1 Tc2 2.760304 1_555
Tc2 Tc4 2.685632 1_556
Tc2 Tc3 2.685638 1_656
Tc2 Tc4 2.685639 1_555
Tc2 Tc3 2.685645 1_655
Tc3 Tc5 2.727378 1_565
Tc3 Tc4 2.727379 1_455
Tc3 Tc5 2.760317 1_555
Tc3 Tc4 2.760318 1_555
Tc4 Tc5 2.727378 1_665
Tc4 Tc5 2.760317 1_555
Os0 Tc0 2.696821 1_554
Os0 Tc1 2.696821 1_554
Os0 Tc2 2.696826 1_554
Os0 Tc0 2.696828 1_555
Os0 Tc1 2.696828 1_555
Os0 Tc2 2.696833 1_555
Os0 Tc3 2.743856 1_545
Os0 Tc5 2.743856 1_555
Os0 Tc4 2.743864 1_545
Os0 Tc4 2.743864 1_555
Os0 Tc3 2.743872 1_655
Os0 Tc5 2.743873 1_655
Os1 Tc3 2.696824 1_556
Os1 Tc5 2.696829 1_556
Os1 Tc4 2.696829 1_556
Os1 Tc3 2.696831 1_555
Os1 Tc5 2.696836 1_555
Os1 Tc4 2.696836 1_555
Os1 Tc1 2.743861 1_555
Os1 Tc0 2.743864 1_455
Os1 Tc0 2.743864 1_565
Os1 Tc2 2.743865 1_455
Os1 Tc2 2.743865 1_555
Os1 Tc1 2.743867 1_565
