# generated using pymatgen
data_BaTbF6
_symmetry_space_group_name_H-M   'P 1'
_cell_length_a   7.28030671
_cell_length_b   7.28030671
_cell_length_c   5.50927600
_cell_angle_alpha   90.00000000
_cell_angle_beta   90.00000000
_cell_angle_gamma   113.54104199
_symmetry_Int_Tables_number   1
_chemical_formula_structural   BaTbF6
_chemical_formula_sum   'Ba2 Tb2 F12'
_cell_volume   267.70486796
_cell_formula_units_Z   2
loop_
 _symmetry_equiv_pos_site_id
 _symmetry_equiv_pos_as_xyz
  1  'x, y, z'
loop_
 _atom_site_type_symbol
 _atom_site_label
 _atom_site_symmetry_multiplicity
 _atom_site_fract_x
 _atom_site_fract_y
 _atom_site_fract_z
 _atom_site_occupancy
  Ba  Ba0  1  0.75000000  0.25000000  0.41977300  1
  Ba  Ba1  1  0.25000000  0.75000000  0.58022700  1
  Tb  Tb0  1  0.25000000  0.25000000  0.00000000  1
  Tb  Tb1  1  0.75000000  0.75000000  0.00000000  1
  F  F0  1  0.16048500  0.44432500  0.25550700  1
  F  F1  1  0.33951500  0.05567500  0.25550700  1
  F  F2  1  0.44432500  0.16048500  0.74449300  1
  F  F3  1  0.05567500  0.33951500  0.74449300  1
  F  F4  1  0.55636100  0.44363900  0.18461700  1
  F  F5  1  0.94363900  0.05636100  0.18461700  1
  F  F6  1  0.44363900  0.55636100  0.81538300  1
  F  F7  1  0.05636100  0.94363900  0.81538300  1
  F  F8  1  0.94432500  0.66048500  0.25550700  1
  F  F9  1  0.55567500  0.83951500  0.25550700  1
  F  F10  1  0.66048500  0.94432500  0.74449300  1
  F  F11  1  0.83951500  0.55567500  0.74449300  1
loop_
_geom_bond_atom_site_label_1
_geom_bond_atom_site_label_2
_geom_bond_distance
_geom_bond_site_symmetry_2
Ba0 F4 2.690869 1_555
Ba0 F5 2.690869 1_555
Ba0 F3 2.723795 1_655
Ba0 F10 2.723795 1_545
Ba0 F11 2.723795 1_555
Ba0 F2 2.723795 1_555
Ba0 F0 2.893800 1_655
Ba0 F8 2.893800 1_555
Ba0 F9 2.893800 1_545
Ba0 F1 2.893800 1_555
Ba1 F6 2.690869 1_555
Ba1 F7 2.690869 1_555
Ba1 F1 2.723795 1_565
Ba1 F8 2.723795 1_455
Ba1 F9 2.723795 1_555
Ba1 F0 2.723795 1_555
Ba1 F2 2.893800 1_565
Ba1 F10 2.893800 1_555
Ba1 F11 2.893800 1_455
Ba1 F3 2.893800 1_555
F0 Tb0 2.268085 1_555
F1 Tb0 2.268085 1_555
F2 Tb0 2.268085 1_556
F3 Tb0 2.268085 1_556
F4 Tb1 2.341983 1_555
F4 Tb0 2.341983 1_555
F5 Tb1 2.341983 1_545
F5 Tb0 2.341983 1_655
F6 Tb1 2.341983 1_556
F6 Tb0 2.341983 1_556
F7 Tb1 2.341983 1_456
F7 Tb0 2.341983 1_566
F8 Tb1 2.268085 1_555
F9 Tb1 2.268085 1_555
F10 Tb1 2.268085 1_556
F11 Tb1 2.268085 1_556
