# generated using pymatgen
data_Mn12O7F17
_symmetry_space_group_name_H-M   'P 1'
_cell_length_a   4.80268100
_cell_length_b   5.80475084
_cell_length_c   15.89755769
_cell_angle_alpha   89.53750262
_cell_angle_beta   89.48066201
_cell_angle_gamma   86.08411910
_symmetry_Int_Tables_number   1
_chemical_formula_structural   Mn12O7F17
_chemical_formula_sum   'Mn12 O7 F17'
_cell_volume   442.13274313
_cell_formula_units_Z   1
loop_
 _symmetry_equiv_pos_site_id
 _symmetry_equiv_pos_as_xyz
  1  'x, y, z'
loop_
 _atom_site_type_symbol
 _atom_site_label
 _atom_site_symmetry_multiplicity
 _atom_site_fract_x
 _atom_site_fract_y
 _atom_site_fract_z
 _atom_site_occupancy
  Mn  Mn0  1  0.99641000  0.84660900  0.41404300  1
  Mn  Mn1  1  0.98118500  0.17307400  0.25168000  1
  Mn  Mn2  1  0.99590100  0.82959900  0.07639500  1
  Mn  Mn3  1  0.00055000  0.84519600  0.74841300  1
  Mn  Mn4  1  0.98656500  0.17182300  0.57216200  1
  Mn  Mn5  1  0.97191500  0.14324300  0.91015100  1
  Mn  Mn6  1  0.48400100  0.66567800  0.59350600  1
  Mn  Mn7  1  0.51617700  0.68514400  0.92696600  1
  Mn  Mn8  1  0.48212100  0.64435200  0.26063000  1
  Mn  Mn9  1  0.47838000  0.34844500  0.07944700  1
  Mn  Mn10  1  0.51573500  0.34931700  0.41305000  1
  Mn  Mn11  1  0.48886500  0.34046600  0.75435800  1
  O  O0  1  0.78713300  0.88787600  0.97226400  1
  O  O1  1  0.77876500  0.11325000  0.46207800  1
  O  O2  1  0.77542000  0.10819200  0.80017500  1
  O  O3  1  0.70718300  0.39535400  0.30831000  1
  O  O4  1  0.28842400  0.63032900  0.02745200  1
  O  O5  1  0.26842700  0.60944200  0.36466300  1
  O  O6  1  0.26781000  0.61034500  0.70284000  1
  F  F0  1  0.77221600  0.88754500  0.30423600  1
  F  F1  1  0.78522300  0.88437500  0.64032000  1
  F  F2  1  0.76311500  0.10377100  0.13526900  1
  F  F3  1  0.71991300  0.61229100  0.15132500  1
  F  F4  1  0.75059000  0.61951100  0.48350400  1
  F  F5  1  0.72819900  0.38396900  0.64699400  1
  F  F6  1  0.73442900  0.61247300  0.81613500  1
  F  F7  1  0.74825200  0.39104600  0.97941400  1
  F  F8  1  0.25204300  0.38390400  0.18991900  1
  F  F9  1  0.29983700  0.37990000  0.52264700  1
  F  F10  1  0.27523700  0.37543600  0.86574000  1
  F  F11  1  0.22565700  0.87526200  0.19274000  1
  F  F12  1  0.22993000  0.88341100  0.52184800  1
  F  F13  1  0.23823300  0.09834400  0.35662100  1
  F  F14  1  0.22487400  0.11993800  0.01932100  1
  F  F15  1  0.24037100  0.87930000  0.85092100  1
  F  F16  1  0.24091000  0.11178800  0.68445900  1
loop_
_geom_bond_atom_site_label_1
_geom_bond_atom_site_label_2
_geom_bond_distance
_geom_bond_site_symmetry_2
Mn0 O1 1.963423 1_565
Mn0 O5 1.992853 1_655
Mn1 O3 1.993088 1_555
Mn2 O4 1.920903 1_655
Mn2 O0 1.958290 1_554
Mn3 O6 1.947044 1_555
Mn3 O2 1.988841 1_465
Mn4 O1 2.064448 1_555
Mn5 O2 2.012604 1_555
Mn5 O0 2.024873 1_545
Mn6 O6 2.050900 1_555
Mn7 O0 1.958754 1_555
Mn7 O4 1.964001 1_556
Mn8 O3 1.901521 1_555
Mn8 O5 1.954962 1_555
Mn9 O4 1.995209 1_555
Mn10 O3 1.920427 1_555
Mn10 O1 1.960925 1_555
Mn10 O5 2.008803 1_555
Mn11 O2 1.997829 1_555
Mn11 O6 2.004982 1_555
F0 Mn0 2.062908 1_555
F0 Mn1 2.154533 1_565
F0 Mn8 2.171735 1_555
F1 Mn3 2.016907 1_655
F1 Mn6 2.131650 1_555
F1 Mn4 2.250649 1_565
F2 Mn9 2.100267 1_555
F2 Mn2 2.102583 1_545
F2 Mn1 2.188224 1_555
F3 Mn8 2.073318 1_555
F3 Mn2 2.223181 1_555
F3 Mn9 2.300426 1_555
F4 Mn0 2.125183 1_555
F4 Mn6 2.165497 1_555
F4 Mn10 2.297723 1_555
F5 Mn4 2.063887 1_555
F5 Mn11 2.072526 1_555
F5 Mn6 2.122796 1_555
F6 Mn7 2.073457 1_555
F6 Mn3 2.192019 1_655
F6 Mn11 2.269103 1_555
F7 Mn5 2.056331 1_555
F7 Mn9 2.066423 1_556
F7 Mn7 2.141472 1_555
F8 Mn9 2.061315 1_555
F8 Mn1 2.080586 1_455
F8 Mn8 2.246876 1_555
F9 Mn10 2.022239 1_555
F9 Mn4 2.133903 1_455
F9 Mn6 2.247611 1_555
F10 Mn11 2.042955 1_555
F10 Mn5 2.161345 1_455
F10 Mn7 2.418930 1_555
F11 Mn8 2.062482 1_555
F11 Mn2 2.189460 1_455
F11 Mn1 2.230247 1_465
F12 Mn6 2.043382 1_555
F12 Mn0 2.077056 1_455
F12 Mn4 2.132162 1_465
F13 Mn1 2.109020 1_455
F13 Mn0 2.123322 1_445
F13 Mn10 2.238599 1_555
F14 Mn9 2.101793 1_555
F14 Mn5 2.125631 1_454
F14 Mn2 2.254621 1_445
F15 Mn3 2.022834 1_555
F15 Mn7 2.071092 1_555
F15 Mn5 2.151239 1_465
F16 Mn11 2.163027 1_555
F16 Mn4 2.184504 1_455
F16 Mn3 2.226736 1_545
