# generated using pymatgen
data_LiLaNb2O7
_symmetry_space_group_name_H-M   'P 1'
_cell_length_a   10.69014744
_cell_length_b   10.69014744
_cell_length_c   10.69014744
_cell_angle_alpha   158.87364080
_cell_angle_beta   158.87364080
_cell_angle_gamma   30.05149955
_symmetry_Int_Tables_number   1
_chemical_formula_structural   LiLaNb2O7
_chemical_formula_sum   'Li1 La1 Nb2 O7'
_cell_volume   158.60632764
_cell_formula_units_Z   1
loop_
 _symmetry_equiv_pos_site_id
 _symmetry_equiv_pos_as_xyz
  1  'x, y, z'
loop_
 _atom_site_type_symbol
 _atom_site_label
 _atom_site_symmetry_multiplicity
 _atom_site_fract_x
 _atom_site_fract_y
 _atom_site_fract_z
 _atom_site_occupancy
  Li  Li0  1  0.75000000  0.25000000  0.50000000  1
  La  La0  1  0.00000000  0.00000000  0.00000000  1
  Nb  Nb0  1  0.61134000  0.61134000  0.00000000  1
  Nb  Nb1  1  0.38866000  0.38866000  0.00000000  1
  O  O0  1  0.91008800  0.41008800  0.50000000  1
  O  O1  1  0.50000000  0.50000000  0.00000000  1
  O  O2  1  0.58991200  0.08991200  0.50000000  1
  O  O3  1  0.69913900  0.69913900  0.00000000  1
  O  O4  1  0.41117300  0.91117300  0.50000000  1
  O  O5  1  0.30086100  0.30086100  0.00000000  1
  O  O6  1  0.08882700  0.58882700  0.50000000  1
loop_
_geom_bond_atom_site_label_1
_geom_bond_atom_site_label_2
_geom_bond_distance
_geom_bond_site_symmetry_2
Li0 O5 2.223396 1_555
Li0 O5 2.223396 1_656
Li0 O3 2.223396 1_545
Li0 O3 2.223396 1_556
La0 O6 2.684180 1_544
La0 O6 2.684180 1_555
La0 O4 2.684180 1_545
La0 O4 2.684180 1_444
La0 O2 2.699539 1_454
La0 O2 2.699539 1_555
La0 O0 2.699539 1_455
La0 O0 2.699539 1_444
La0 O1 2.771454 1_545
La0 O1 2.771454 1_455
La0 O1 2.771454 1_556
La0 O1 2.771454 1_444
Nb0 O3 1.812987 1_555
Nb0 O2 2.009045 1_565
Nb0 O2 2.009045 1_554
Nb0 O6 2.014098 1_655
Nb0 O6 2.014098 1_554
Nb0 O1 2.299092 1_555
Nb1 O5 1.812987 1_555
Nb1 O0 2.009045 1_555
Nb1 O0 2.009045 1_454
Nb1 O4 2.014098 1_544
Nb1 O4 2.014098 1_555
Nb1 O1 2.299092 1_555
