# generated using pymatgen
data_LiV2OF5
_symmetry_space_group_name_H-M   'P 1'
_cell_length_a   4.66180800
_cell_length_b   5.20234789
_cell_length_c   17.08588123
_cell_angle_alpha   90.23482185
_cell_angle_beta   90.21150942
_cell_angle_gamma   90.07005655
_symmetry_Int_Tables_number   1
_chemical_formula_structural   LiV2OF5
_chemical_formula_sum   'Li4 V8 O4 F20'
_cell_volume   414.36609958
_cell_formula_units_Z   4
loop_
 _symmetry_equiv_pos_site_id
 _symmetry_equiv_pos_as_xyz
  1  'x, y, z'
loop_
 _atom_site_type_symbol
 _atom_site_label
 _atom_site_symmetry_multiplicity
 _atom_site_fract_x
 _atom_site_fract_y
 _atom_site_fract_z
 _atom_site_occupancy
  Li  Li0  1  0.01832600  0.75151600  0.62048400  1
  Li  Li1  1  0.99419600  0.24510600  0.38238100  1
  Li  Li2  1  0.49948000  0.74953100  0.12008800  1
  Li  Li3  1  0.50883800  0.23214000  0.88206500  1
  V  V0  1  0.02052000  0.27595000  0.71665500  1
  V  V1  1  0.97495900  0.75346500  0.94301300  1
  V  V2  1  0.99613600  0.25076100  0.04828900  1
  V  V3  1  0.96962900  0.76671300  0.28423600  1
  V  V4  1  0.50130200  0.75083000  0.78413500  1
  V  V5  1  0.51899000  0.75745400  0.44350000  1
  V  V6  1  0.51015100  0.23021700  0.21642300  1
  V  V7  1  0.50402800  0.25560000  0.54904900  1
  O  O0  1  0.73262200  0.93432700  0.20949300  1
  O  O1  1  0.77196600  0.89866400  0.37325100  1
  O  O2  1  0.72635800  0.88096200  0.87066200  1
  O  O3  1  0.24406200  0.56858100  0.71472000  1
  F  F0  1  0.77258500  0.91935900  0.03757200  1
  F  F1  1  0.76562700  0.40616400  0.96341000  1
  F  F2  1  0.73591900  0.41045600  0.79272300  1
  F  F3  1  0.76751500  0.41751300  0.62459200  1
  F  F4  1  0.73290700  0.40731100  0.12534200  1
  F  F5  1  0.76981600  0.93669700  0.70700700  1
  F  F6  1  0.76121100  0.41865200  0.29314900  1
  F  F7  1  0.72449100  0.92155500  0.53842300  1
  F  F8  1  0.72810500  0.41118100  0.46303700  1
  F  F9  1  0.28400300  0.58659300  0.53642900  1
  F  F10  1  0.28107800  0.09189900  0.46304700  1
  F  F11  1  0.23319500  0.08675800  0.29375600  1
  F  F12  1  0.25818900  0.09373100  0.12457800  1
  F  F13  1  0.25906700  0.58285300  0.87465300  1
  F  F14  1  0.24246300  0.09956800  0.62580800  1
  F  F15  1  0.23876000  0.59095400  0.37206600  1
  F  F16  1  0.26058400  0.56706100  0.21159800  1
  F  F17  1  0.26720100  0.07918400  0.79422000  1
  F  F18  1  0.21347100  0.08885500  0.96207600  1
  F  F19  1  0.21225300  0.58183900  0.03807000  1
loop_
_geom_bond_atom_site_label_1
_geom_bond_atom_site_label_2
_geom_bond_distance
_geom_bond_site_symmetry_2
Li0 O3 2.146642 1_555
Li1 O1 2.082758 1_545
Li2 O0 2.100502 1_555
Li3 O2 2.099297 1_545
O0 V6 1.860769 1_565
O0 V3 1.900801 1_555
O1 V5 1.840293 1_555
O1 V3 1.907038 1_555
O2 V1 1.819129 1_555
O2 V4 1.929590 1_555
O3 V0 1.844310 1_555
O3 V4 1.929031 1_555
F0 V2 2.020800 1_565
F0 V1 2.060813 1_554
F0 Li2 2.099985 1_555
F1 V2 1.977815 1_556
F1 Li3 2.039391 1_555
F1 V1 2.083647 1_555
F2 V0 1.986621 1_655
F2 Li3 2.081467 1_555
F2 V4 2.087825 1_555
F3 V7 1.964970 1_555
F3 Li0 2.094737 1_655
F3 V0 2.098971 1_655
F4 V2 1.976848 1_555
F4 Li2 2.089781 1_555
F4 V6 2.090519 1_555
F5 V4 2.063528 1_555
F5 Li0 2.111721 1_655
F5 V0 2.121126 1_665
F6 V6 2.006163 1_555
F6 V3 2.060344 1_555
F6 Li1 2.078628 1_555
F7 V7 2.027909 1_565
F7 V5 2.062075 1_555
F7 Li0 2.150272 1_655
F8 V7 1.981166 1_555
F8 Li1 2.046900 1_555
F8 V5 2.076956 1_555
F9 V7 2.017274 1_555
F9 Li0 2.082854 1_555
F9 V5 2.129132 1_555
F10 V7 1.985200 1_555
F10 Li1 2.078810 1_455
F10 V5 2.090833 1_545
F11 V6 1.997033 1_555
F11 Li1 2.053624 1_455
F11 V3 2.073554 1_445
F12 V2 1.964231 1_455
F12 V6 2.078851 1_555
F12 Li2 2.117082 1_545
F13 V1 1.977875 1_455
F13 V4 2.110056 1_555
F13 Li3 2.169503 1_555
F14 V7 1.970760 1_555
F14 V0 2.079504 1_555
F14 Li0 2.090925 1_545
F15 V5 1.980747 1_555
F15 Li1 2.137096 1_455
F15 V3 2.159231 1_455
F16 V6 2.106340 1_555
F16 V3 2.112858 1_455
F16 Li2 2.146736 1_555
F17 V0 2.032088 1_555
F17 Li3 2.032332 1_555
F17 V4 2.035245 1_545
F18 V2 1.977047 1_456
F18 Li3 2.083318 1_555
F18 V1 2.091580 1_445
F19 V2 2.002912 1_455
F19 Li2 2.119205 1_555
F19 V1 2.158648 1_454
