# generated using pymatgen
data_Pb13(N2O13)2
_symmetry_space_group_name_H-M   'P 1'
_cell_length_a   10.26175802
_cell_length_b   10.26175802
_cell_length_c   10.26175754
_cell_angle_alpha   61.50883963
_cell_angle_beta   61.50883963
_cell_angle_gamma   61.50883686
_symmetry_Int_Tables_number   1
_chemical_formula_structural   Pb13(N2O13)2
_chemical_formula_sum   'Pb13 N4 O26'
_cell_volume   789.97829154
_cell_formula_units_Z   1
loop_
 _symmetry_equiv_pos_site_id
 _symmetry_equiv_pos_as_xyz
  1  'x, y, z'
loop_
 _atom_site_type_symbol
 _atom_site_label
 _atom_site_symmetry_multiplicity
 _atom_site_fract_x
 _atom_site_fract_y
 _atom_site_fract_z
 _atom_site_occupancy
  Pb  Pb0  1  0.66114800  0.81933000  0.38252400  1
  Pb  Pb1  1  0.38252400  0.66114800  0.81933000  1
  Pb  Pb2  1  0.81933000  0.38252400  0.66114800  1
  Pb  Pb3  1  0.33885200  0.18067000  0.61747600  1
  Pb  Pb4  1  0.61747600  0.33885200  0.18067000  1
  Pb  Pb5  1  0.18067000  0.61747600  0.33885200  1
  Pb  Pb6  1  0.50000000  0.50000000  0.50000000  1
  Pb  Pb7  1  0.92116200  0.42459200  0.24314200  1
  Pb  Pb8  1  0.24314200  0.92116200  0.42459200  1
  Pb  Pb9  1  0.42459200  0.24314200  0.92116200  1
  Pb  Pb10  1  0.07883800  0.57540800  0.75685800  1
  Pb  Pb11  1  0.75685800  0.07883800  0.57540800  1
  Pb  Pb12  1  0.57540800  0.75685800  0.07883800  1
  N  N0  1  0.06917000  0.06917000  0.06917000  1
  N  N1  1  0.93083000  0.93083000  0.93083000  1
  N  N2  1  0.27833700  0.27833700  0.27833700  1
  N  N3  1  0.72166300  0.72166300  0.72166300  1
  O  O0  1  0.77014300  0.32603100  0.49290500  1
  O  O1  1  0.49290500  0.77014300  0.32603100  1
  O  O2  1  0.32603100  0.49290500  0.77014300  1
  O  O3  1  0.22985700  0.67396900  0.50709500  1
  O  O4  1  0.50709500  0.22985700  0.67396900  1
  O  O5  1  0.67396900  0.50709500  0.22985700  1
  O  O6  1  0.59610100  0.59610100  0.59610100  1
  O  O7  1  0.40389900  0.40389900  0.40389900  1
  O  O8  1  0.16136400  0.26954900  0.40335800  1
  O  O9  1  0.40335800  0.16136400  0.26954900  1
  O  O10  1  0.26954900  0.40335800  0.16136400  1
  O  O11  1  0.83863600  0.73045100  0.59664200  1
  O  O12  1  0.59664200  0.83863600  0.73045100  1
  O  O13  1  0.73045100  0.59664200  0.83863600  1
  O  O14  1  0.85975100  0.60136300  0.34216000  1
  O  O15  1  0.34216000  0.85975100  0.60136300  1
  O  O16  1  0.60136300  0.34216000  0.85975100  1
  O  O17  1  0.14024900  0.39863700  0.65784000  1
  O  O18  1  0.65784000  0.14024900  0.39863700  1
  O  O19  1  0.39863700  0.65784000  0.14024900  1
  O  O20  1  0.79421600  0.97595600  0.02273500  1
  O  O21  1  0.02273500  0.79421600  0.97595600  1
  O  O22  1  0.97595600  0.02273500  0.79421600  1
  O  O23  1  0.20578400  0.02404400  0.97726500  1
  O  O24  1  0.97726500  0.20578400  0.02404400  1
  O  O25  1  0.02404400  0.97726500  0.20578400  1
loop_
_geom_bond_atom_site_label_1
_geom_bond_atom_site_label_2
_geom_bond_distance
_geom_bond_site_symmetry_2
N0 O24 1.266939 1_455
N0 O23 1.266939 1_554
N0 O25 1.266939 1_545
N1 O21 1.266939 1_655
N1 O20 1.266939 1_556
N1 O22 1.266939 1_565
N2 O9 1.272236 1_555
N2 O10 1.272236 1_555
N2 O8 1.272236 1_555
N3 O12 1.272236 1_555
N3 O13 1.272236 1_555
N3 O11 1.272236 1_555
O0 Pb7 2.286136 1_555
O0 Pb11 2.311015 1_555
O0 Pb2 2.374226 1_555
O0 Pb6 2.467199 1_555
O1 Pb8 2.286136 1_555
O1 Pb12 2.311015 1_555
O1 Pb0 2.374226 1_555
O1 Pb6 2.467200 1_555
O2 Pb9 2.286136 1_555
O2 Pb10 2.311015 1_555
O2 Pb1 2.374226 1_555
O2 Pb6 2.467199 1_555
O3 Pb10 2.286136 1_555
O3 Pb8 2.311015 1_555
O3 Pb5 2.374226 1_555
O3 Pb6 2.467199 1_555
O4 Pb11 2.286136 1_555
O4 Pb9 2.311015 1_555
O4 Pb3 2.374226 1_555
O4 Pb6 2.467200 1_555
O5 Pb12 2.286136 1_555
O5 Pb7 2.311015 1_555
O5 Pb4 2.374226 1_555
O5 Pb6 2.467199 1_555
O6 Pb6 2.387689 1_555
O6 Pb2 2.402013 1_555
O6 Pb1 2.402013 1_555
O6 Pb0 2.402013 1_555
O7 Pb6 2.387689 1_555
O7 Pb5 2.402013 1_555
O7 Pb4 2.402013 1_555
O7 Pb3 2.402013 1_555
O14 Pb7 2.185654 1_555
O14 Pb0 2.248896 1_555
O15 Pb8 2.185654 1_555
O15 Pb1 2.248896 1_555
O16 Pb9 2.185654 1_555
O16 Pb2 2.248896 1_555
O17 Pb10 2.185654 1_555
O17 Pb3 2.248896 1_555
O18 Pb11 2.185654 1_555
O18 Pb4 2.248896 1_555
O19 Pb12 2.185654 1_555
O19 Pb5 2.248896 1_555
