# generated using pymatgen
data_Li5V3P8O29
_symmetry_space_group_name_H-M   'P 1'
_cell_length_a   9.80488506
_cell_length_b   9.80488506
_cell_length_c   13.91527978
_cell_angle_alpha   89.93020332
_cell_angle_beta   89.93020332
_cell_angle_gamma   60.08389681
_symmetry_Int_Tables_number   1
_chemical_formula_structural   Li5V3P8O29
_chemical_formula_sum   'Li10 V6 P16 O58'
_cell_volume   1159.50784088
_cell_formula_units_Z   2
loop_
 _symmetry_equiv_pos_site_id
 _symmetry_equiv_pos_as_xyz
  1  'x, y, z'
loop_
 _atom_site_type_symbol
 _atom_site_label
 _atom_site_symmetry_multiplicity
 _atom_site_fract_x
 _atom_site_fract_y
 _atom_site_fract_z
 _atom_site_occupancy
  Li  Li0  1  0.09681200  0.67683000  0.19295800  1
  Li  Li1  1  0.67688500  0.22869300  0.19185600  1
  Li  Li2  1  0.67529000  0.09510500  0.68738200  1
  Li  Li3  1  0.09656800  0.22682600  0.68739400  1
  Li  Li4  1  0.77317400  0.90343200  0.31260600  1
  Li  Li5  1  0.22815800  0.08976300  0.19094200  1
  Li  Li6  1  0.91023700  0.77184200  0.80905800  1
  Li  Li7  1  0.32317000  0.90318800  0.80704200  1
  Li  Li8  1  0.90489500  0.32471000  0.31261800  1
  Li  Li9  1  0.77130700  0.32311500  0.80814400  1
  V  V0  1  0.56633500  0.99994400  0.49802700  1
  V  V1  1  0.43180600  0.99964400  0.00060600  1
  V  V2  1  0.00035600  0.56819400  0.99939400  1
  V  V3  1  0.00005600  0.43366500  0.50197300  1
  V  V4  1  0.42710100  0.57289900  0.50000000  1
  V  V5  1  0.56277100  0.43722900  0.00000000  1
  P  P0  1  0.22990700  0.68617800  0.90570900  1
  P  P1  1  0.08830200  0.68137000  0.40898600  1
  P  P2  1  0.68013700  0.23344900  0.40757200  1
  P  P3  1  0.33623200  0.33295800  0.62290700  1
  P  P4  1  0.33252900  0.33380100  0.12292500  1
  P  P5  1  0.67968000  0.08925400  0.90789100  1
  P  P6  1  0.76828300  0.91244500  0.09191200  1
  P  P7  1  0.08755500  0.23171700  0.90808800  1
  P  P8  1  0.91181500  0.77049200  0.59281000  1
  P  P9  1  0.22950800  0.08818500  0.40719000  1
  P  P10  1  0.31863000  0.91169800  0.59101400  1
  P  P11  1  0.66704200  0.66376800  0.37709300  1
  P  P12  1  0.66619900  0.66747100  0.87707500  1
  P  P13  1  0.31382200  0.77009300  0.09429100  1
  P  P14  1  0.91074600  0.32032000  0.09210900  1
  P  P15  1  0.76655100  0.31986300  0.59242800  1
  O  O0  1  0.23512600  0.75749100  0.18112800  1
  O  O1  1  0.25513400  0.66163200  0.41374300  1
  O  O2  1  0.99244300  0.76298900  0.68417000  1
  O  O3  1  0.08462200  0.66364300  0.90840200  1
  O  O4  1  0.38196700  0.52342000  0.92681200  1
  O  O5  1  0.33480700  0.48110700  0.57517900  1
  O  O6  1  0.52170400  0.38354000  0.42550500  1
  O  O7  1  0.75634700  0.24086500  0.68215300  1
  O  O8  1  0.66354400  0.25562200  0.91024800  1
  O  O9  1  0.18807400  0.48719700  0.08276100  1
  O  O10  1  0.09919100  0.52192500  0.42501400  1
  O  O11  1  0.48804300  0.32860600  0.07962500  1
  O  O12  1  0.33672500  0.33452500  0.72992400  1
  O  O13  1  0.34019400  0.33191000  0.23001800  1
  O  O14  1  0.48915700  0.18548800  0.58288500  1
  O  O15  1  0.09840500  0.38139600  0.92556600  1
  O  O16  1  0.18710700  0.32763800  0.58414200  1
  O  O17  1  0.66459900  0.08435600  0.40694700  1
  O  O18  1  0.79058100  0.00064900  0.99991400  1
  O  O19  1  0.75809100  0.00084600  0.18222800  1
  O  O20  1  0.75949200  0.00205400  0.81760100  1
  O  O21  1  0.52043400  0.10036600  0.92592900  1
  O  O22  1  0.32614900  0.18703200  0.08256400  1
  O  O23  1  0.74410600  0.91776900  0.58782300  1
  O  O24  1  0.38099700  0.09796300  0.42651200  1
  O  O25  1  0.08223100  0.25589400  0.41217700  1
  O  O26  1  0.99843300  0.79246100  0.50020700  1
  O  O27  1  0.00120400  0.76110800  0.31868800  1
  O  O28  1  0.99794600  0.24050800  0.18239900  1
  O  O29  1  0.91698400  0.74671500  0.09072400  1
  O  O30  1  0.61860400  0.90159500  0.07443400  1
  O  O31  1  0.25328500  0.08301600  0.90927600  1
  O  O32  1  0.67236200  0.81289300  0.41585800  1
  O  O33  1  0.47807500  0.90080900  0.57498600  1
  O  O34  1  0.23889200  0.99879600  0.68131200  1
  O  O35  1  0.23701100  0.00755700  0.31583000  1
  O  O36  1  0.20753900  0.00156700  0.49979300  1
  O  O37  1  0.33635700  0.91537800  0.09159800  1
  O  O38  1  0.81296800  0.67385100  0.91743600  1
  O  O39  1  0.90203700  0.61900300  0.57348800  1
  O  O40  1  0.51280300  0.81192600  0.91723900  1
  O  O41  1  0.66809000  0.65980600  0.76998200  1
  O  O42  1  0.66547500  0.66327500  0.27007600  1
  O  O43  1  0.51889300  0.66519300  0.42482100  1
  O  O44  1  0.89963400  0.47956600  0.07407100  1
  O  O45  1  0.81451200  0.51084300  0.41711500  1
  O  O46  1  0.33836800  0.74486600  0.58625700  1
  O  O47  1  0.20859000  0.79141000  0.00000000  1
  O  O48  1  0.24250900  0.76487400  0.81887200  1
  O  O49  1  0.47658000  0.61803300  0.07318800  1
  O  O50  1  0.67139400  0.51195700  0.92037500  1
  O  O51  1  0.61646000  0.47829600  0.57449500  1
  O  O52  1  0.91564400  0.33540100  0.59305300  1
  O  O53  1  0.99915400  0.24190900  0.81777200  1
  O  O54  1  0.99935100  0.20941900  0.00008600  1
  O  O55  1  0.74437800  0.33645600  0.08975200  1
  O  O56  1  0.75913500  0.24365300  0.31784700  1
  O  O57  1  0.79054700  0.20945300  0.50000000  1
loop_
_geom_bond_atom_site_label_1
_geom_bond_atom_site_label_2
_geom_bond_distance
_geom_bond_site_symmetry_2
Li0 O0 1.886979 1_555
Li0 O27 1.962001 1_555
Li0 O29 2.097817 1_455
Li0 O9 2.225591 1_555
Li1 O56 1.966635 1_555
Li1 O19 1.966965 1_555
Li1 O55 2.065073 1_555
Li1 O11 2.240770 1_555
Li2 O7 1.952430 1_555
Li2 O20 2.011406 1_555
Li2 O23 2.056995 1_545
Li2 O14 2.149546 1_555
Li3 O34 1.959955 1_545
Li3 O53 2.020193 1_455
Li3 O52 2.030306 1_455
Li3 O16 2.167511 1_555
Li4 O27 1.959955 1_655
Li4 O19 2.020193 1_565
Li4 O17 2.030306 1_565
Li4 O32 2.167511 1_555
Li5 O35 1.898552 1_555
Li5 O28 1.991519 1_455
Li5 O37 2.037858 1_545
Li5 O22 2.239205 1_555
Li6 O2 1.898552 1_555
Li6 O20 1.991519 1_565
Li6 O3 2.037858 1_655
Li6 O38 2.239205 1_555
Li7 O48 1.886979 1_555
Li7 O34 1.962001 1_555
Li7 O31 2.097817 1_565
Li7 O40 2.225591 1_555
Li8 O56 1.952430 1_555
Li8 O28 2.011406 1_555
Li8 O25 2.056995 1_655
Li8 O45 2.149546 1_555
Li9 O7 1.966635 1_555
Li9 O53 1.966965 1_555
Li9 O8 2.065073 1_555
Li9 O50 2.240770 1_555
O0 P13 1.470796 1_555
O1 P1 1.549852 1_555
O1 V4 1.892029 1_555
O2 P8 1.480133 1_555
O3 P0 1.547007 1_555
O3 V2 1.981798 1_555
O4 P0 1.575582 1_555
O4 V5 1.844458 1_556
O5 P3 1.590194 1_555
O5 V4 1.879123 1_555
O6 P2 1.536476 1_555
O6 V4 1.914847 1_555
O7 P15 1.497823 1_555
O8 P5 1.558742 1_555
O8 V5 1.988527 1_556
O9 P4 1.567032 1_555
O9 V2 1.977137 1_554
O10 P1 1.529018 1_555
O10 V3 1.916963 1_555
O11 P4 1.615862 1_555
O11 V5 1.916336 1_555
O12 P3 1.489308 1_555
O13 P4 1.491841 1_555
O14 P3 1.576859 1_555
O14 V0 1.976484 1_545
O15 P7 1.543029 1_555
O15 V2 1.892097 1_555
O16 P3 1.584190 1_555
O16 V3 1.962690 1_555
O17 P2 1.543515 1_555
O17 V0 2.002360 1_545
O18 P6 1.618581 1_546
O18 P5 1.623355 1_555
O19 P6 1.502228 1_545
O20 P5 1.501600 1_555
O21 P5 1.530436 1_555
O21 V1 1.913523 1_546
O22 P4 1.575458 1_555
O22 V1 1.962979 1_545
O23 P8 1.557411 1_555
O23 V0 1.962317 1_555
O24 P9 1.559093 1_555
O24 V0 1.864483 1_545
O25 P9 1.557411 1_555
O25 V3 1.962317 1_555
O26 P8 1.614710 1_555
O26 P1 1.617853 1_655
O27 P1 1.501211 1_555
O28 P14 1.501600 1_555
O29 P6 1.550277 1_555
O29 V2 1.980622 1_654
O30 P6 1.543029 1_555
O30 V1 1.892097 1_555
O31 P7 1.550277 1_555
O31 V1 1.980622 1_546
O32 P11 1.584190 1_555
O32 V0 1.962690 1_555
O33 P10 1.529018 1_555
O33 V0 1.916963 1_555
O34 P10 1.501211 1_555
O35 P9 1.480133 1_555
O36 P9 1.614710 1_555
O36 P10 1.617853 1_545
O37 P13 1.547007 1_555
O37 V1 1.981798 1_555
O38 P12 1.575458 1_555
O38 V2 1.962979 1_655
O39 P8 1.559093 1_555
O39 V3 1.864483 1_655
O40 P12 1.567032 1_555
O40 V1 1.977137 1_556
O41 P12 1.491841 1_555
O42 P11 1.489308 1_555
O43 P11 1.590194 1_555
O43 V4 1.879123 1_555
O44 P14 1.530436 1_555
O44 V2 1.913523 1_654
O45 P11 1.576859 1_555
O45 V3 1.976484 1_655
O46 P10 1.549852 1_555
O46 V4 1.892029 1_555
O47 P13 1.617827 1_555
O47 P0 1.617827 1_554
O48 P0 1.470796 1_555
O49 P13 1.575582 1_555
O49 V5 1.844458 1_555
O50 P12 1.615862 1_555
O50 V5 1.916336 1_556
O51 P15 1.536476 1_555
O51 V4 1.914847 1_555
O52 P15 1.543515 1_555
O52 V3 2.002360 1_655
O53 P7 1.502228 1_655
O54 P7 1.618581 1_654
O54 P14 1.623355 1_555
O55 P14 1.558742 1_555
O55 V5 1.988527 1_555
O56 P2 1.497823 1_555
O57 P15 1.621757 1_555
O57 P2 1.621757 1_555
