# generated using pymatgen
data_LiVP2(HO4)2
_symmetry_space_group_name_H-M   'P 1'
_cell_length_a   9.80926226
_cell_length_b   9.80926226
_cell_length_c   8.63062651
_cell_angle_alpha   73.16334637
_cell_angle_beta   73.16334637
_cell_angle_gamma   117.26634121
_symmetry_Int_Tables_number   1
_chemical_formula_structural   LiVP2(HO4)2
_chemical_formula_sum   'Li4 V4 P8 H8 O32'
_cell_volume   613.33527797
_cell_formula_units_Z   4
loop_
 _symmetry_equiv_pos_site_id
 _symmetry_equiv_pos_as_xyz
  1  'x, y, z'
loop_
 _atom_site_type_symbol
 _atom_site_label
 _atom_site_symmetry_multiplicity
 _atom_site_fract_x
 _atom_site_fract_y
 _atom_site_fract_z
 _atom_site_occupancy
  Li  Li0  1  0.35497400  0.56007300  0.03263000  1
  Li  Li1  1  0.56007300  0.35497300  0.53263000  1
  Li  Li2  1  0.16771000  0.87785200  0.50856300  1
  Li  Li3  1  0.87785200  0.16771000  0.00856300  1
  V  V0  1  0.87334200  0.19654800  0.37186800  1
  V  V1  1  0.41870000  0.78251400  0.27776900  1
  V  V2  1  0.19654800  0.87334200  0.87186800  1
  V  V3  1  0.78251400  0.41870000  0.77776900  1
  P  P0  1  0.17166300  0.13913500  0.16725800  1
  P  P1  1  0.02526400  0.57710900  0.31617300  1
  P  P2  1  0.13913500  0.17166300  0.66725800  1
  P  P3  1  0.58840600  0.18560900  0.24620900  1
  P  P4  1  0.57710900  0.02526400  0.81617300  1
  P  P5  1  0.18560900  0.58840600  0.74620900  1
  P  P6  1  0.64822500  0.70553500  0.18262300  1
  P  P7  1  0.70553500  0.64822500  0.68262300  1
  H  H0  1  0.45209300  0.31469100  0.09920600  1
  H  H1  1  0.24395000  0.33474900  0.37347000  1
  H  H2  1  0.31469100  0.45209300  0.59920600  1
  H  H3  1  0.33474900  0.24395000  0.87347000  1
  H  H4  1  0.81497400  0.63869400  0.24462100  1
  H  H5  1  0.91286300  0.86258700  0.41012000  1
  H  H6  1  0.63869400  0.81497400  0.74462100  1
  H  H7  1  0.86258700  0.91286300  0.91012000  1
  O  O0  1  0.02757900  0.16863500  0.19404300  1
  O  O1  1  0.23078000  0.12703300  0.98222800  1
  O  O2  1  0.10730100  0.96975300  0.32672800  1
  O  O3  1  0.44713500  0.99743700  0.29225100  1
  O  O4  1  0.34081900  0.31080600  0.12974300  1
  O  O5  1  0.16863500  0.02757900  0.69404300  1
  O  O6  1  0.12703300  0.23078000  0.48222800  1
  O  O7  1  0.02467700  0.69126100  0.14310700  1
  O  O8  1  0.96975300  0.10730100  0.82672800  1
  O  O9  1  0.05391300  0.44259800  0.27744400  1
  O  O10  1  0.63420900  0.32143400  0.05112500  1
  O  O11  1  0.76098400  0.19590500  0.22152300  1
  O  O12  1  0.52932500  0.23304000  0.39024300  1
  O  O13  1  0.99743700  0.44713500  0.79225100  1
  O  O14  1  0.17538900  0.69990200  0.33746900  1
  O  O15  1  0.31080600  0.34081900  0.62974300  1
  O  O16  1  0.45339200  0.58383700  0.23720400  1
  O  O17  1  0.69126100  0.02467700  0.64310700  1
  O  O18  1  0.44259800  0.05391300  0.77744400  1
  O  O19  1  0.32143400  0.63420900  0.55112500  1
  O  O20  1  0.79367400  0.77673500  0.98456700  1
  O  O21  1  0.19590500  0.76098400  0.72152300  1
  O  O22  1  0.68947000  0.59774500  0.31201800  1
  O  O23  1  0.23304000  0.52932500  0.89024300  1
  O  O24  1  0.69990200  0.17538900  0.83746900  1
  O  O25  1  0.84674700  0.47309600  0.49425200  1
  O  O26  1  0.58383700  0.45339200  0.73720400  1
  O  O27  1  0.66920700  0.86510500  0.20265100  1
  O  O28  1  0.77673500  0.79367400  0.48456700  1
  O  O29  1  0.59774500  0.68947000  0.81201800  1
  O  O30  1  0.47309600  0.84674700  0.99425200  1
  O  O31  1  0.86510500  0.66920700  0.70265100  1
loop_
_geom_bond_atom_site_label_1
_geom_bond_atom_site_label_2
_geom_bond_distance
_geom_bond_site_symmetry_2
Li0 O23 1.940977 1_554
Li0 O29 2.027631 1_554
Li0 O16 2.263479 1_555
Li0 O4 2.265996 1_555
Li0 O30 2.369099 1_554
Li0 O9 2.523960 1_555
Li1 O12 1.940970 1_555
Li1 O22 2.027637 1_555
Li1 O26 2.263485 1_555
Li1 O15 2.266002 1_555
Li1 O25 2.369098 1_555
Li1 O18 2.523953 1_555
Li2 O2 1.958388 1_555
Li2 O21 2.033042 1_555
Li2 O3 2.279322 1_555
Li2 O31 2.317971 1_455
Li2 O5 2.465353 1_565
Li2 O14 2.604292 1_555
Li3 O8 1.958388 1_554
Li3 O11 2.033042 1_555
Li3 O13 2.279322 1_554
Li3 O27 2.317971 1_545
Li3 O0 2.465353 1_655
Li3 O24 2.604292 1_554
H0 O4 1.025545 1_555
H0 O10 1.677583 1_555
H1 O6 0.993296 1_555
H2 O15 1.025545 1_555
H2 O19 1.677583 1_555
H3 O1 0.993296 1_555
H4 O22 1.005997 1_555
H4 O7 1.728378 1_655
H5 O28 1.037873 1_555
H5 O2 1.479956 1_655
H6 O29 1.005997 1_555
H6 O17 1.728378 1_565
H7 O20 1.037873 1_555
H7 O8 1.479956 1_565
O0 P0 1.535896 1_555
O0 V0 1.999328 1_455
O1 P0 1.592791 1_556
O2 P0 1.504754 1_565
O3 P3 1.548473 1_565
O3 V1 2.042578 1_555
O4 P0 1.583216 1_555
O5 P2 1.535896 1_555
O5 V2 1.999328 1_545
O6 P2 1.592791 1_555
O7 P1 1.589630 1_555
O7 V2 2.011255 1_554
O8 P2 1.504754 1_655
O9 P1 1.572412 1_555
O9 V0 1.932401 1_455
O10 P3 1.589228 1_555
O10 V3 2.007170 1_554
O11 P3 1.594780 1_555
O11 V0 1.930100 1_555
O12 P3 1.504131 1_555
O13 P5 1.548473 1_655
O13 V3 2.042578 1_555
O14 P1 1.520863 1_555
O14 V1 1.972850 1_555
O15 P2 1.583216 1_555
O16 P6 1.536826 1_555
O16 V1 2.229437 1_555
O17 P4 1.589630 1_555
O17 V0 2.011255 1_555
O18 P4 1.572412 1_555
O18 V2 1.932401 1_545
O19 P5 1.589228 1_555
O19 V1 2.007170 1_555
O20 P6 1.558171 1_556
O21 P5 1.594780 1_555
O21 V2 1.930100 1_555
O22 P6 1.580658 1_555
O23 P5 1.504131 1_555
O24 P4 1.520863 1_555
O24 V3 1.972850 1_555
O25 P1 1.537884 1_655
O25 V3 2.170637 1_555
O26 P7 1.536826 1_555
O26 V3 2.229437 1_555
O27 P6 1.550630 1_555
O27 V1 2.015872 1_555
O28 P7 1.558171 1_555
O29 P7 1.580658 1_555
O30 P4 1.537884 1_565
O30 V1 2.170637 1_556
O31 P7 1.550630 1_555
O31 V3 2.015872 1_555
