# generated using pymatgen
data_CsGe
_symmetry_space_group_name_H-M   'P 1'
_cell_length_a   12.43895312
_cell_length_b   12.43894436
_cell_length_c   12.43890362
_cell_angle_alpha   124.69317532
_cell_angle_beta   124.69317845
_cell_angle_gamma   82.04648403
_symmetry_Int_Tables_number   1
_chemical_formula_structural   CsGe
_chemical_formula_sum   'Cs16 Ge16'
_cell_volume   1251.12395907
_cell_formula_units_Z   16
loop_
 _symmetry_equiv_pos_site_id
 _symmetry_equiv_pos_as_xyz
  1  'x, y, z'
loop_
 _atom_site_type_symbol
 _atom_site_label
 _atom_site_symmetry_multiplicity
 _atom_site_fract_x
 _atom_site_fract_y
 _atom_site_fract_z
 _atom_site_occupancy
  Cs  Cs0  1  0.25000040  0.39175720  0.14175717  1
  Cs  Cs1  1  0.75000005  0.10824250  0.35824323  1
  Cs  Cs2  1  0.10824287  0.24999971  0.35824291  1
  Cs  Cs3  1  0.39175750  0.74999992  0.14175680  1
  Cs  Cs4  1  0.74999962  0.60824282  0.85824285  1
  Cs  Cs5  1  0.24999986  0.89175748  0.64175675  1
  Cs  Cs6  1  0.89175706  0.75000020  0.64175703  1
  Cs  Cs7  1  0.60824249  0.25000005  0.85824315  1
  Cs  Cs8  1  0.49494240  0.24494123  0.48988626  1
  Cs  Cs9  1  0.25505884  0.00505757  0.01011390  1
  Cs  Cs10  1  0.00505785  0.49494203  0.74999990  1
  Cs  Cs11  1  0.24494208  0.25505790  0.74999989  1
  Cs  Cs12  1  0.50505764  0.75505881  0.51011376  1
  Cs  Cs13  1  0.74494122  0.99494239  0.98988621  1
  Cs  Cs14  1  0.99494203  0.50505784  0.24999997  1
  Cs  Cs15  1  0.75505790  0.74494204  0.24999993  1
  Ge  Ge0  1  0.57806690  0.48109222  0.21262282  1
  Ge  Ge1  1  0.76846960  0.36544552  0.28737716  1
  Ge  Ge2  1  0.92193247  0.13455534  0.90302449  1
  Ge  Ge3  1  0.73153032  0.01890699  0.59697530  1
  Ge  Ge4  1  0.01890771  0.92193277  0.28737690  1
  Ge  Ge5  1  0.13455457  0.73153017  0.21262323  1
  Ge  Ge6  1  0.36544463  0.57806743  0.59697528  1
  Ge  Ge7  1  0.48109287  0.76846889  0.90302466  1
  Ge  Ge8  1  0.42193280  0.51890701  0.78737630  1
  Ge  Ge9  1  0.23153052  0.63455418  0.71262281  1
  Ge  Ge10  1  0.07806705  0.86544368  0.09697474  1
  Ge  Ge11  1  0.26846923  0.98109261  0.40302410  1
  Ge  Ge12  1  0.98109194  0.07806697  0.71262277  1
  Ge  Ge13  1  0.86544494  0.26846947  0.78737660  1
  Ge  Ge14  1  0.63455533  0.42193266  0.40302468  1
  Ge  Ge15  1  0.51890732  0.23153041  0.09697547  1
loop_
_geom_bond_atom_site_label_1
_geom_bond_atom_site_label_2
_geom_bond_distance
_geom_bond_site_symmetry_2
Cs0 Ge15 3.805701 1_555
Cs0 Ge12 3.805742 1_454
Cs0 Ge0 3.835333 1_555
Cs0 Ge2 3.835363 1_454
Cs0 Ge14 3.872433 1_555
Cs0 Ge13 3.872446 1_454
Cs0 Ge5 4.027673 1_555
Cs0 Ge6 4.027674 1_555
Cs1 Ge13 3.805696 1_555
Cs1 Ge14 3.805718 1_555
Cs1 Ge3 3.835326 1_555
Cs1 Ge1 3.835351 1_555
Cs1 Ge12 3.872416 1_555
Cs1 Ge15 3.872423 1_555
Cs1 Ge4 4.027671 1_645
Cs1 Ge7 4.027702 1_544
Cs2 Ge11 3.805697 1_545
Cs2 Ge8 3.805734 1_555
Cs2 Ge4 3.835334 1_545
Cs2 Ge6 3.835361 1_555
Cs2 Ge9 3.872434 1_555
Cs2 Ge10 3.872440 1_545
Cs2 Ge2 4.027677 1_454
Cs2 Ge1 4.027680 1_455
Cs3 Ge9 3.805699 1_554
Cs3 Ge10 3.805718 1_555
Cs3 Ge7 3.835321 1_554
Cs3 Ge5 3.835356 1_555
Cs3 Ge11 3.872423 1_555
Cs3 Ge8 3.872425 1_554
Cs3 Ge0 4.027667 1_555
Cs3 Ge3 4.027698 1_565
Cs4 Ge7 3.805697 1_555
Cs4 Ge4 3.805738 1_656
Cs4 Ge8 3.835333 1_555
Cs4 Ge10 3.835355 1_656
Cs4 Ge6 3.872433 1_555
Cs4 Ge5 3.872442 1_656
Cs4 Ge14 4.027675 1_555
Cs4 Ge13 4.027675 1_555
Cs5 Ge5 3.805695 1_555
Cs5 Ge6 3.805717 1_555
Cs5 Ge11 3.835327 1_555
Cs5 Ge9 3.835353 1_555
Cs5 Ge4 3.872417 1_555
Cs5 Ge7 3.872431 1_555
Cs5 Ge12 4.027672 1_465
Cs5 Ge15 4.027700 1_566
Cs6 Ge3 3.805698 1_565
Cs6 Ge0 3.805740 1_555
Cs6 Ge12 3.835332 1_565
Cs6 Ge14 3.835359 1_555
Cs6 Ge2 3.872432 1_565
Cs6 Ge1 3.872436 1_555
Cs6 Ge10 4.027674 1_656
Cs6 Ge9 4.027682 1_655
Cs7 Ge1 3.805700 1_556
Cs7 Ge2 3.805719 1_555
Cs7 Ge15 3.835326 1_556
Cs7 Ge13 3.835350 1_555
Cs7 Ge0 3.872418 1_556
Cs7 Ge3 3.872424 1_555
Cs7 Ge8 4.027664 1_555
Cs7 Ge11 4.027703 1_545
Cs8 Ge8 3.839951 1_555
Cs8 Ge13 3.839974 1_555
Cs8 Ge11 3.864180 1_545
Cs8 Ge14 3.864224 1_555
Cs8 Ge3 3.981388 1_555
Cs8 Ge6 3.981414 1_555
Cs9 Ge12 3.839962 1_454
Cs9 Ge9 3.839981 1_544
Cs9 Ge15 3.864180 1_555
Cs9 Ge10 3.864228 1_545
Cs9 Ge7 3.981391 1_544
Cs9 Ge2 3.981417 1_454
Cs10 Ge10 3.839979 1_556
Cs10 Ge14 3.839989 1_455
Cs10 Ge13 3.864189 1_455
Cs10 Ge9 3.864189 1_555
Cs10 Ge1 3.981409 1_455
Cs10 Ge5 3.981414 1_556
Cs11 Ge11 3.839975 1_545
Cs11 Ge15 3.839976 1_556
Cs11 Ge8 3.864205 1_555
Cs11 Ge12 3.864212 1_455
Cs11 Ge0 3.981423 1_556
Cs11 Ge4 3.981424 1_545
Cs12 Ge0 3.839958 1_555
Cs12 Ge5 3.839977 1_555
Cs12 Ge3 3.864176 1_565
Cs12 Ge6 3.864224 1_555
Cs12 Ge11 3.981388 1_555
Cs12 Ge14 3.981413 1_555
Cs13 Ge4 3.839959 1_656
Cs13 Ge1 3.839978 1_566
Cs13 Ge7 3.864185 1_555
Cs13 Ge2 3.864224 1_565
Cs13 Ge15 3.981386 1_566
Cs13 Ge10 3.981418 1_656
Cs14 Ge2 3.839987 1_554
Cs14 Ge6 3.839989 1_655
Cs14 Ge5 3.864184 1_655
Cs14 Ge1 3.864189 1_555
Cs14 Ge9 3.981411 1_655
Cs14 Ge13 3.981413 1_554
Cs15 Ge7 3.839968 1_554
Cs15 Ge3 3.839974 1_565
Cs15 Ge0 3.864208 1_555
Cs15 Ge4 3.864208 1_655
Cs15 Ge12 3.981422 1_565
Cs15 Ge8 3.981428 1_554
Ge0 Ge14 2.567296 1_555
Ge0 Ge15 2.567318 1_555
Ge0 Ge1 2.572197 1_555
Ge1 Ge14 2.567306 1_555
Ge1 Ge15 2.567335 1_555
Ge2 Ge3 2.572203 1_555
Ge4 Ge5 2.572196 1_555
Ge6 Ge8 2.567295 1_555
Ge6 Ge9 2.567305 1_555
Ge6 Ge7 2.572203 1_555
Ge7 Ge8 2.567316 1_555
Ge7 Ge9 2.567334 1_555
Ge8 Ge9 2.572196 1_555
Ge10 Ge4 2.567295 1_555
Ge10 Ge5 2.567305 1_555
Ge10 Ge11 2.572204 1_555
Ge11 Ge4 2.567318 1_555
Ge11 Ge5 2.567335 1_555
Ge12 Ge2 2.567294 1_555
Ge12 Ge3 2.567318 1_555
Ge12 Ge13 2.572197 1_555
Ge13 Ge2 2.567306 1_555
Ge13 Ge3 2.567334 1_555
Ge14 Ge15 2.572204 1_555
