# generated using pymatgen
data_Ho2ZnRu
_symmetry_space_group_name_H-M   'P 1'
_cell_length_a   4.85332456
_cell_length_b   4.85949259
_cell_length_c   4.85992250
_cell_angle_alpha   60.08176834
_cell_angle_beta   60.00289459
_cell_angle_gamma   60.00363931
_symmetry_Int_Tables_number   1
_chemical_formula_structural   Ho2ZnRu
_chemical_formula_sum   'Ho2 Zn1 Ru1'
_cell_volume   81.10240556
_cell_formula_units_Z   1
loop_
 _symmetry_equiv_pos_site_id
 _symmetry_equiv_pos_as_xyz
  1  'x, y, z'
loop_
 _atom_site_type_symbol
 _atom_site_label
 _atom_site_symmetry_multiplicity
 _atom_site_fract_x
 _atom_site_fract_y
 _atom_site_fract_z
 _atom_site_occupancy
  Ho  Ho0  1  0.99940016  0.00040414  0.00040777  1
  Ho  Ho1  1  0.50064157  0.49962014  0.49952301  1
  Zn  Zn0  1  0.74981297  0.75005336  0.74998229  1
  Ru  Ru0  1  0.25014830  0.24992336  0.25008793  1
loop_
_geom_bond_atom_site_label_1
_geom_bond_atom_site_label_2
_geom_bond_distance
_geom_bond_site_symmetry_2
Ho0 Ru0 2.968612 1_555
Ho0 Zn0 2.973214 1_644
Ho0 Ru0 2.973776 1_655
Ho0 Zn0 2.975430 1_544
Ho0 Zn0 2.976275 1_545
Ho0 Zn0 2.976331 1_554
Ho0 Ru0 2.979226 1_654
Ho0 Ru0 2.979625 1_645
Ho1 Ru0 2.969622 1_655
Ho1 Ru0 2.972498 1_555
Ho1 Zn0 2.974245 1_555
Ho1 Zn0 2.974860 1_455
Ho1 Zn0 2.976006 1_545
Ho1 Zn0 2.976143 1_554
Ho1 Ru0 2.978919 1_565
Ho1 Ru0 2.980200 1_556
