# generated using pymatgen
data_Y2IrPd
_symmetry_space_group_name_H-M   'P 1'
_cell_length_a   4.88231369
_cell_length_b   4.88231369
_cell_length_c   4.88231369
_cell_angle_alpha   60.00000000
_cell_angle_beta   60.00000000
_cell_angle_gamma   60.00000000
_symmetry_Int_Tables_number   1
_chemical_formula_structural   Y2IrPd
_chemical_formula_sum   'Y2 Ir1 Pd1'
_cell_volume   82.29283829
_cell_formula_units_Z   1
loop_
 _symmetry_equiv_pos_site_id
 _symmetry_equiv_pos_as_xyz
  1  'x, y, z'
loop_
 _atom_site_type_symbol
 _atom_site_label
 _atom_site_symmetry_multiplicity
 _atom_site_fract_x
 _atom_site_fract_y
 _atom_site_fract_z
 _atom_site_occupancy
  Y  Y0  1  0.50000100  0.50000100  0.50000100  1
  Y  Y1  1  0.00000000  -0.00000000  -0.00000000  1
  Ir  Ir0  1  0.25000000  0.25000000  0.25000000  1
  Pd  Pd0  1  0.75000100  0.75000100  0.75000100  1
loop_
_geom_bond_atom_site_label_1
_geom_bond_atom_site_label_2
_geom_bond_distance
_geom_bond_site_symmetry_2
Ir0 Y0 2.989790 1_455
Ir0 Y0 2.989790 1_545
Ir0 Y0 2.989790 1_554
Ir0 Y1 2.989794 1_556
Ir0 Y1 2.989794 1_565
Ir0 Y1 2.989794 1_555
Ir0 Y1 2.989794 1_655
Ir0 Y0 2.989806 1_555
Pd0 Y1 2.989782 1_666
Pd0 Y0 2.989794 1_555
Pd0 Y0 2.989794 1_565
Pd0 Y0 2.989794 1_655
Pd0 Y0 2.989794 1_556
Pd0 Y1 2.989798 1_656
Pd0 Y1 2.989798 1_566
Pd0 Y1 2.989798 1_665
