# generated using pymatgen
data_Li2Mn2Si2O7
_symmetry_space_group_name_H-M   'P 1'
_cell_length_a   5.01002525
_cell_length_b   13.36871800
_cell_length_c   5.01011531
_cell_angle_alpha   89.99933525
_cell_angle_beta   61.20898795
_cell_angle_gamma   90.00159768
_symmetry_Int_Tables_number   1
_chemical_formula_structural   Li2Mn2Si2O7
_chemical_formula_sum   'Li4 Mn4 Si4 O14'
_cell_volume   294.08370891
_cell_formula_units_Z   2
loop_
 _symmetry_equiv_pos_site_id
 _symmetry_equiv_pos_as_xyz
  1  'x, y, z'
loop_
 _atom_site_type_symbol
 _atom_site_label
 _atom_site_symmetry_multiplicity
 _atom_site_fract_x
 _atom_site_fract_y
 _atom_site_fract_z
 _atom_site_occupancy
  Li  Li0  1  0.24594400  0.58196500  0.34625100  1
  Li  Li1  1  0.24595100  0.91805500  0.34610200  1
  Li  Li2  1  0.65384000  0.41804900  0.75406600  1
  Li  Li3  1  0.65385100  0.08197800  0.75393700  1
  Mn  Mn0  1  0.97203600  0.99999400  0.02785400  1
  Mn  Mn1  1  0.97224000  0.50000600  0.02779600  1
  Mn  Mn2  1  0.99811300  0.24993100  0.03696200  1
  Mn  Mn3  1  0.96302200  0.74998400  0.00198400  1
  Si  Si0  1  0.30931000  0.36318700  0.40450600  1
  Si  Si1  1  0.30932400  0.13681600  0.40442000  1
  Si  Si2  1  0.59550600  0.63681400  0.69079200  1
  Si  Si3  1  0.59550600  0.86318600  0.69068400  1
  O  O0  1  0.16413600  0.24999800  0.38223300  1
  O  O1  1  0.61776000  0.75001500  0.83590200  1
  O  O2  1  0.66303100  0.13358800  0.13051800  1
  O  O3  1  0.66302200  0.36641800  0.13061700  1
  O  O4  1  0.86939100  0.86642800  0.33697000  1
  O  O5  1  0.86937500  0.63357200  0.33708900  1
  O  O6  1  0.25971600  0.87078800  0.70851000  1
  O  O7  1  0.25969900  0.62920600  0.70865000  1
  O  O8  1  0.29146900  0.37079300  0.74029800  1
  O  O9  1  0.29146100  0.12920400  0.74021500  1
  O  O10  1  0.07751600  0.05668900  0.38335100  1
  O  O11  1  0.07751600  0.44331600  0.38348600  1
  O  O12  1  0.61653000  0.55669000  0.92258100  1
  O  O13  1  0.61652600  0.94333200  0.92243700  1
loop_
_geom_bond_atom_site_label_1
_geom_bond_atom_site_label_2
_geom_bond_distance
_geom_bond_site_symmetry_2
Li0 O7 1.954681 1_555
Li0 O11 2.007687 1_555
Li0 O5 2.030005 1_455
Li0 O12 2.066605 1_554
Li1 O6 1.954847 1_555
Li1 O10 2.007554 1_565
Li1 O4 2.029947 1_455
Li1 O13 2.066547 1_554
Li2 O8 1.954592 1_555
Li2 O12 2.007754 1_555
Li2 O3 2.030083 1_556
Li2 O11 2.066558 1_655
Li3 O9 1.954473 1_555
Li3 O13 2.007752 1_545
Li3 O2 2.030138 1_556
Li3 O10 2.066612 1_655
Mn0 O13 2.220621 1_554
Mn0 O10 2.220950 1_665
Mn0 O4 2.254790 1_555
Mn0 O2 2.254803 1_565
Mn0 O6 2.323742 1_654
Mn0 O9 2.323787 1_664
Mn1 O12 2.221038 1_554
Mn1 O11 2.221171 1_655
Mn1 O3 2.255197 1_555
Mn1 O5 2.255240 1_555
Mn1 O7 2.322889 1_654
Mn1 O8 2.323322 1_654
Mn2 O2 2.167716 1_555
Mn2 O3 2.169125 1_555
Mn2 O9 2.206973 1_654
Mn2 O8 2.208075 1_654
Mn2 O0 2.251706 1_655
Mn3 O4 2.168386 1_555
Mn3 O5 2.168419 1_555
Mn3 O7 2.207324 1_654
Mn3 O6 2.207762 1_654
Mn3 O1 2.251863 1_554
O0 Si1 1.705541 1_555
O0 Si0 1.705674 1_555
O1 Si3 1.705554 1_555
O1 Si2 1.705671 1_555
O2 Si1 1.637960 1_555
O3 Si0 1.637954 1_555
O4 Si3 1.637972 1_555
O5 Si2 1.637912 1_555
O6 Si3 1.644317 1_555
O7 Si2 1.644331 1_555
O8 Si0 1.644327 1_555
O9 Si1 1.644296 1_555
O10 Si1 1.620304 1_555
O11 Si0 1.620210 1_555
O12 Si2 1.620142 1_555
O13 Si3 1.620208 1_555
