# generated using pymatgen
data_Hf2MnIr
_symmetry_space_group_name_H-M   'P 1'
_cell_length_a   4.52791540
_cell_length_b   4.52787885
_cell_length_c   4.52789424
_cell_angle_alpha   59.97707295
_cell_angle_beta   59.97664279
_cell_angle_gamma   59.97704813
_symmetry_Int_Tables_number   1
_chemical_formula_structural   Hf2MnIr
_chemical_formula_sum   'Hf2 Mn1 Ir1'
_cell_volume   65.60652590
_cell_formula_units_Z   1
loop_
 _symmetry_equiv_pos_site_id
 _symmetry_equiv_pos_as_xyz
  1  'x, y, z'
loop_
 _atom_site_type_symbol
 _atom_site_label
 _atom_site_symmetry_multiplicity
 _atom_site_fract_x
 _atom_site_fract_y
 _atom_site_fract_z
 _atom_site_occupancy
  Hf  Hf0  1  0.00000725  0.00002087  0.00002006  1
  Hf  Hf1  1  0.49997976  0.49999066  0.49999253  1
  Mn  Mn0  1  0.75001713  0.74998330  0.74998383  1
  Ir  Ir0  1  0.24999485  0.25000517  0.25000458  1
loop_
_geom_bond_atom_site_label_1
_geom_bond_atom_site_label_2
_geom_bond_distance
_geom_bond_site_symmetry_2
Hf0 Mn0 2.771811 1_454
Hf0 Mn0 2.771814 1_445
Hf0 Mn0 2.771997 1_544
Hf0 Ir0 2.772005 1_554
Hf0 Ir0 2.772006 1_455
Hf0 Ir0 2.772008 1_545
Hf0 Ir0 2.773081 1_555
Hf0 Mn0 2.773479 1_444
Hf1 Mn0 2.771822 1_455
Hf1 Mn0 2.771977 1_545
Hf1 Mn0 2.771980 1_554
Hf1 Ir0 2.771993 1_556
Hf1 Ir0 2.772004 1_565
Hf1 Ir0 2.772016 1_655
Hf1 Ir0 2.773088 1_555
Hf1 Mn0 2.773321 1_555
Ir0 Mn0 3.200997 1_455
Ir0 Mn0 3.201141 1_445
Ir0 Mn0 3.201143 1_554
Ir0 Mn0 3.201162 1_454
Ir0 Mn0 3.201172 1_545
Ir0 Mn0 3.201270 1_544
