# generated using pymatgen
data_CaSnS3
_symmetry_space_group_name_H-M   'P 1'
_cell_length_a   6.48447465
_cell_length_b   6.48447465
_cell_length_c   9.42174500
_cell_angle_alpha   90.00000000
_cell_angle_beta   90.00000000
_cell_angle_gamma   146.04445646
_symmetry_Int_Tables_number   1
_chemical_formula_structural   CaSnS3
_chemical_formula_sum   'Ca2 Sn2 S6'
_cell_volume   221.28021667
_cell_formula_units_Z   2
loop_
 _symmetry_equiv_pos_site_id
 _symmetry_equiv_pos_as_xyz
  1  'x, y, z'
loop_
 _atom_site_type_symbol
 _atom_site_label
 _atom_site_symmetry_multiplicity
 _atom_site_fract_x
 _atom_site_fract_y
 _atom_site_fract_z
 _atom_site_occupancy
  Ca  Ca0  1  0.25519500  0.74480500  0.75000000  1
  Ca  Ca1  1  0.74480500  0.25519500  0.25000000  1
  Sn  Sn0  1  0.00000000  0.00000000  0.50000000  1
  Sn  Sn1  1  0.00000000  0.00000000  0.00000000  1
  S  S0  1  0.91980000  0.08020000  0.75000000  1
  S  S1  1  0.08020000  0.91980000  0.25000000  1
  S  S2  1  0.64197600  0.35802400  0.54736100  1
  S  S3  1  0.35802400  0.64197600  0.45263900  1
  S  S4  1  0.64197600  0.35802400  0.95263900  1
  S  S5  1  0.35802400  0.64197600  0.04736100  1
loop_
_geom_bond_atom_site_label_1
_geom_bond_atom_site_label_2
_geom_bond_distance
_geom_bond_site_symmetry_2
Ca0 S0 2.784572 1_565
Ca0 S0 2.784572 1_455
Ca0 S4 3.033561 1_565
Ca0 S2 3.033561 1_565
Ca0 S4 3.033561 1_455
Ca0 S2 3.033561 1_455
Ca0 S3 3.078328 1_555
Ca0 S5 3.078328 1_556
Ca1 S1 2.784572 1_655
Ca1 S1 2.784572 1_545
Ca1 S5 3.033561 1_655
Ca1 S5 3.033561 1_545
Ca1 S3 3.033561 1_545
Ca1 S3 3.033561 1_655
Ca1 S4 3.078328 1_554
Ca1 S2 3.078328 1_555
S0 Sn0 2.556886 1_655
S0 Sn1 2.556886 1_656
S1 Sn1 2.556886 1_565
S1 Sn0 2.556886 1_565
S2 Sn0 2.624040 1_665
S2 Sn0 2.624040 1_555
S3 Sn0 2.624040 1_665
S3 Sn0 2.624040 1_555
S4 Sn1 2.624040 1_556
S4 Sn1 2.624040 1_666
S5 Sn1 2.624040 1_555
S5 Sn1 2.624040 1_665
