# generated using pymatgen
data_Al2NiRu
_symmetry_space_group_name_H-M   'P 1'
_cell_length_a   4.13251031
_cell_length_b   4.13251033
_cell_length_c   4.13251035
_cell_angle_alpha   60.00041846
_cell_angle_beta   60.00041744
_cell_angle_gamma   60.00041976
_symmetry_Int_Tables_number   1
_chemical_formula_structural   Al2NiRu
_chemical_formula_sum   'Al2 Ni1 Ru1'
_cell_volume   49.90349546
_cell_formula_units_Z   1
loop_
 _symmetry_equiv_pos_site_id
 _symmetry_equiv_pos_as_xyz
  1  'x, y, z'
loop_
 _atom_site_type_symbol
 _atom_site_label
 _atom_site_symmetry_multiplicity
 _atom_site_fract_x
 _atom_site_fract_y
 _atom_site_fract_z
 _atom_site_occupancy
  Al  Al0  1  0.50000065  0.50000065  0.50000065  1
  Al  Al1  1  0.00000014  0.00000014  0.00000014  1
  Ni  Ni0  1  0.24999920  0.24999919  0.24999919  1
  Ru  Ru0  1  0.75000001  0.75000001  0.75000001  1
loop_
_geom_bond_atom_site_label_1
_geom_bond_atom_site_label_2
_geom_bond_distance
_geom_bond_site_symmetry_2
Al0 Ru0 2.530621 1_555
Al0 Ni0 2.530642 1_555
Al0 Ni0 2.530644 1_556
Al0 Ni0 2.530644 1_655
Al0 Ni0 2.530644 1_565
Al0 Ru0 2.530651 1_554
Al0 Ru0 2.530651 1_455
Al0 Ru0 2.530651 1_545
Al1 Ni0 2.530618 1_555
Al1 Ru0 2.530629 1_444
Al1 Ru0 2.530648 1_445
Al1 Ru0 2.530648 1_544
Al1 Ru0 2.530648 1_454
Al1 Ni0 2.530652 1_455
Al1 Ni0 2.530652 1_554
Al1 Ni0 2.530652 1_545
