# generated using pymatgen
data_LiHfPt2
_symmetry_space_group_name_H-M   'P 1'
_cell_length_a   4.48088510
_cell_length_b   4.48088510
_cell_length_c   4.48088510
_cell_angle_alpha   60.00000000
_cell_angle_beta   60.00000000
_cell_angle_gamma   60.00000000
_symmetry_Int_Tables_number   1
_chemical_formula_structural   LiHfPt2
_chemical_formula_sum   'Li1 Hf1 Pt2'
_cell_volume   63.61747466
_cell_formula_units_Z   1
loop_
 _symmetry_equiv_pos_site_id
 _symmetry_equiv_pos_as_xyz
  1  'x, y, z'
loop_
 _atom_site_type_symbol
 _atom_site_label
 _atom_site_symmetry_multiplicity
 _atom_site_fract_x
 _atom_site_fract_y
 _atom_site_fract_z
 _atom_site_occupancy
  Li  Li0  1  0.74999900  0.74999900  0.74999900  1
  Hf  Hf0  1  0.25000000  0.25000000  0.25000000  1
  Pt  Pt0  1  0.00000000  0.00000000  0.00000000  1
  Pt  Pt1  1  0.49999900  0.49999900  0.49999900  1
loop_
_geom_bond_atom_site_label_1
_geom_bond_atom_site_label_2
_geom_bond_distance
_geom_bond_site_symmetry_2
Li0 Pt0 2.743967 1_665
Li0 Pt0 2.743967 1_566
Li0 Pt0 2.743967 1_656
Li0 Pt1 2.743971 1_556
Li0 Pt1 2.743971 1_655
Li0 Pt1 2.743971 1_565
Li0 Pt1 2.743971 1_555
Li0 Pt0 2.743981 1_666
Hf0 Pt1 2.743960 1_555
Hf0 Pt0 2.743971 1_655
Hf0 Pt0 2.743971 1_556
Hf0 Pt0 2.743971 1_565
Hf0 Pt0 2.743971 1_555
Hf0 Pt1 2.743974 1_545
Hf0 Pt1 2.743974 1_554
Hf0 Pt1 2.743974 1_455
