# generated using pymatgen
data_CdGeO3
_symmetry_space_group_name_H-M   'P 1'
_cell_length_a   5.90404287
_cell_length_b   5.90404287
_cell_length_c   5.90404356
_cell_angle_alpha   52.19537208
_cell_angle_beta   52.19537208
_cell_angle_gamma   52.19538096
_symmetry_Int_Tables_number   1
_chemical_formula_structural   CdGeO3
_chemical_formula_sum   'Cd2 Ge2 O6'
_cell_volume   118.83630559
_cell_formula_units_Z   2
loop_
 _symmetry_equiv_pos_site_id
 _symmetry_equiv_pos_as_xyz
  1  'x, y, z'
loop_
 _atom_site_type_symbol
 _atom_site_label
 _atom_site_symmetry_multiplicity
 _atom_site_fract_x
 _atom_site_fract_y
 _atom_site_fract_z
 _atom_site_occupancy
  Cd  Cd0  1  0.63257200  0.63257200  0.63257200  1
  Cd  Cd1  1  0.36742800  0.36742800  0.36742800  1
  Ge  Ge0  1  0.84046800  0.84046800  0.84046800  1
  Ge  Ge1  1  0.15953200  0.15953200  0.15953200  1
  O  O0  1  0.81224500  0.03495300  0.43968800  1
  O  O1  1  0.43968800  0.81224500  0.03495300  1
  O  O2  1  0.03495300  0.43968800  0.81224500  1
  O  O3  1  0.18775500  0.96504700  0.56031200  1
  O  O4  1  0.96504700  0.56031200  0.18775500  1
  O  O5  1  0.56031200  0.18775500  0.96504700  1
loop_
_geom_bond_atom_site_label_1
_geom_bond_atom_site_label_2
_geom_bond_distance
_geom_bond_site_symmetry_2
Cd0 O5 2.226929 1_555
Cd0 O4 2.226929 1_555
Cd0 O3 2.226929 1_555
Cd0 O0 2.521475 1_565
Cd0 O2 2.521475 1_655
Cd0 O1 2.521475 1_556
Cd1 O1 2.226929 1_555
Cd1 O2 2.226929 1_555
Cd1 O0 2.226929 1_555
Cd1 O3 2.521475 1_545
Cd1 O4 2.521475 1_455
Cd1 O5 2.521475 1_554
Ge0 O3 1.918503 1_655
Ge0 O5 1.918504 1_565
Ge0 O4 1.918504 1_556
Ge0 O1 1.965491 1_556
Ge0 O2 1.965492 1_655
Ge0 O0 1.965492 1_565
Ge1 O0 1.918503 1_455
Ge1 O1 1.918504 1_545
Ge1 O2 1.918504 1_554
Ge1 O5 1.965491 1_554
Ge1 O4 1.965492 1_455
Ge1 O3 1.965492 1_545
