# generated using pymatgen
data_Cd(PtO2)3
_symmetry_space_group_name_H-M   'P 1'
_cell_length_a   3.19592825
_cell_length_b   6.26257920
_cell_length_c   6.26258021
_cell_angle_alpha   109.37703835
_cell_angle_beta   90.00000000
_cell_angle_gamma   90.00000000
_symmetry_Int_Tables_number   1
_chemical_formula_structural   Cd(PtO2)3
_chemical_formula_sum   'Cd1 Pt3 O6'
_cell_volume   118.24397761
_cell_formula_units_Z   1
loop_
 _symmetry_equiv_pos_site_id
 _symmetry_equiv_pos_as_xyz
  1  'x, y, z'
loop_
 _atom_site_type_symbol
 _atom_site_label
 _atom_site_symmetry_multiplicity
 _atom_site_fract_x
 _atom_site_fract_y
 _atom_site_fract_z
 _atom_site_occupancy
  Cd  Cd0  1  0.00000000  0.50000000  0.50000000  1
  Pt  Pt0  1  0.50000000  0.50000000  0.00000000  1
  Pt  Pt1  1  0.00000000  0.00000000  0.00000000  1
  Pt  Pt2  1  0.50000000  0.00000000  0.50000000  1
  O  O0  1  0.00000000  0.92324067  0.66443010  1
  O  O1  1  0.00000000  0.07675933  0.33556990  1
  O  O2  1  -0.00000000  0.66443010  0.92324067  1
  O  O3  1  0.00000000  0.33556990  0.07675933  1
  O  O4  1  0.50000000  0.33758195  0.66241805  1
  O  O5  1  0.50000000  0.66241805  0.33758195  1
loop_
_geom_bond_atom_site_label_1
_geom_bond_atom_site_label_2
_geom_bond_distance
_geom_bond_site_symmetry_2
Cd0 O4 2.304177 1_555
Cd0 O5 2.304177 1_555
Cd0 O5 2.304177 1_455
Cd0 O4 2.304177 1_455
Cd0 O0 2.504954 1_555
Cd0 O1 2.504954 1_555
Cd0 O3 2.504954 1_555
Cd0 O2 2.504954 1_555
O0 Pt1 1.994285 1_566
O0 Pt2 2.042902 1_465
O0 Pt2 2.042902 1_565
O1 Pt1 1.994285 1_555
O1 Pt2 2.042902 1_555
O1 Pt2 2.042902 1_455
O2 Pt1 1.994284 1_566
O2 Pt0 2.042902 1_556
O2 Pt0 2.042902 1_456
O3 Pt1 1.994284 1_555
O3 Pt0 2.042902 1_455
O3 Pt0 2.042902 1_555
O4 Pt2 2.019216 1_555
O4 Pt0 2.019216 1_556
O5 Pt2 2.019216 1_565
O5 Pt0 2.019216 1_555
