# generated using pymatgen
data_Li2HgAu
_symmetry_space_group_name_H-M   'P 1'
_cell_length_a   4.48817348
_cell_length_b   4.48817348
_cell_length_c   4.48817348
_cell_angle_alpha   60.00000000
_cell_angle_beta   60.00000000
_cell_angle_gamma   60.00000000
_symmetry_Int_Tables_number   1
_chemical_formula_structural   Li2HgAu
_chemical_formula_sum   'Li2 Hg1 Au1'
_cell_volume   63.92841054
_cell_formula_units_Z   1
loop_
 _symmetry_equiv_pos_site_id
 _symmetry_equiv_pos_as_xyz
  1  'x, y, z'
loop_
 _atom_site_type_symbol
 _atom_site_label
 _atom_site_symmetry_multiplicity
 _atom_site_fract_x
 _atom_site_fract_y
 _atom_site_fract_z
 _atom_site_occupancy
  Li  Li0  1  -0.00000000  0.00000000  0.00000000  1
  Li  Li1  1  0.50000000  0.50000000  0.50000000  1
  Hg  Hg0  1  0.75000100  0.75000100  0.75000100  1
  Au  Au0  1  0.25000000  0.25000000  0.25000000  1
loop_
_geom_bond_atom_site_label_1
_geom_bond_atom_site_label_2
_geom_bond_distance
_geom_bond_site_symmetry_2
Hg0 Li0 2.748423 1_666
Hg0 Li1 2.748430 1_655
Hg0 Li1 2.748430 1_565
Hg0 Li1 2.748430 1_556
Hg0 Li0 2.748437 1_656
Hg0 Li0 2.748437 1_665
Hg0 Li0 2.748437 1_566
Hg0 Li1 2.748445 1_555
Au0 Li1 2.748434 1_455
Au0 Li1 2.748434 1_554
Au0 Li0 2.748434 1_555
Au0 Li0 2.748434 1_655
Au0 Li1 2.748434 1_555
Au0 Li0 2.748434 1_565
Au0 Li1 2.748434 1_545
Au0 Li0 2.748434 1_556
