# generated using pymatgen
data_PmZn2Ag
_symmetry_space_group_name_H-M   'P 1'
_cell_length_a   4.77368591
_cell_length_b   4.77367834
_cell_length_c   4.77438216
_cell_angle_alpha   59.99568488
_cell_angle_beta   59.99571233
_cell_angle_gamma   60.01046393
_symmetry_Int_Tables_number   1
_chemical_formula_structural   PmZn2Ag
_chemical_formula_sum   'Pm1 Zn2 Ag1'
_cell_volume   76.93345964
_cell_formula_units_Z   1
loop_
 _symmetry_equiv_pos_site_id
 _symmetry_equiv_pos_as_xyz
  1  'x, y, z'
loop_
 _atom_site_type_symbol
 _atom_site_label
 _atom_site_symmetry_multiplicity
 _atom_site_fract_x
 _atom_site_fract_y
 _atom_site_fract_z
 _atom_site_occupancy
  Pm  Pm0  1  0.75000643  0.74999251  0.75000059  1
  Zn  Zn0  1  0.99999929  0.00000008  -0.00000043  1
  Zn  Zn1  1  0.49999776  0.50000091  0.49999975  1
  Ag  Ag0  1  0.24999352  0.25000451  0.24999809  1
loop_
_geom_bond_atom_site_label_1
_geom_bond_atom_site_label_2
_geom_bond_distance
_geom_bond_site_symmetry_2
Pm0 Zn0 2.923398 1_566
Pm0 Zn1 2.923405 1_555
Pm0 Zn0 2.923407 1_556
Pm0 Zn1 2.923408 1_655
Pm0 Zn1 2.923430 1_556
Pm0 Zn0 2.923437 1_565
Pm0 Zn1 2.923469 1_565
Pm0 Zn0 2.923470 1_466
Ag0 Zn0 2.923390 1_455
Ag0 Zn1 2.923410 1_555
Ag0 Zn0 2.923419 1_465
Ag0 Zn1 2.923425 1_455
Ag0 Zn1 2.923426 1_554
Ag0 Zn0 2.923439 1_456
Ag0 Zn1 2.923450 1_545
Ag0 Zn0 2.923464 1_555
Ag0 Pm0 3.375013 1_445
Ag0 Pm0 3.375020 1_554
Ag0 Pm0 3.375966 1_454
Ag0 Pm0 3.375985 1_455
Ag0 Pm0 3.376049 1_544
Ag0 Pm0 3.376070 1_545
