# generated using pymatgen
data_Sm2MgAl
_symmetry_space_group_name_H-M   'P 1'
_cell_length_a   5.29682170
_cell_length_b   5.29682170
_cell_length_c   5.29682170
_cell_angle_alpha   60.00000000
_cell_angle_beta   60.00000000
_cell_angle_gamma   60.00000000
_symmetry_Int_Tables_number   1
_chemical_formula_structural   Sm2MgAl
_chemical_formula_sum   'Sm2 Mg1 Al1'
_cell_volume   105.08266139
_cell_formula_units_Z   1
loop_
 _symmetry_equiv_pos_site_id
 _symmetry_equiv_pos_as_xyz
  1  'x, y, z'
loop_
 _atom_site_type_symbol
 _atom_site_label
 _atom_site_symmetry_multiplicity
 _atom_site_fract_x
 _atom_site_fract_y
 _atom_site_fract_z
 _atom_site_occupancy
  Sm  Sm0  1  0.00000000  0.00000000  -0.00000000  1
  Sm  Sm1  1  0.50000000  0.50000000  0.50000000  1
  Mg  Mg0  1  0.75000000  0.75000000  0.75000000  1
  Al  Al0  1  0.25000000  0.25000000  0.25000000  1
loop_
_geom_bond_atom_site_label_1
_geom_bond_atom_site_label_2
_geom_bond_distance
_geom_bond_site_symmetry_2
Mg0 Sm0 3.243628 1_665
Mg0 Sm1 3.243628 1_556
Mg0 Sm0 3.243628 1_666
Mg0 Sm1 3.243628 1_555
Mg0 Sm0 3.243628 1_656
Mg0 Sm1 3.243628 1_565
Mg0 Sm0 3.243628 1_566
Mg0 Sm1 3.243628 1_655
Al0 Sm1 3.243628 1_554
Al0 Sm1 3.243628 1_555
Al0 Sm0 3.243628 1_556
Al0 Sm0 3.243628 1_555
Al0 Sm1 3.243628 1_545
Al0 Sm1 3.243628 1_455
Al0 Sm0 3.243628 1_565
Al0 Sm0 3.243628 1_655
