# generated using pymatgen
data_Li2Mn3(BO3)3
_symmetry_space_group_name_H-M   'P 1'
_cell_length_a   6.34770800
_cell_length_b   8.26135141
_cell_length_c   8.57343803
_cell_angle_alpha   117.33710819
_cell_angle_beta   107.57478609
_cell_angle_gamma   91.19952350
_symmetry_Int_Tables_number   1
_chemical_formula_structural   Li2Mn3(BO3)3
_chemical_formula_sum   'Li4 Mn6 B6 O18'
_cell_volume   373.92132187
_cell_formula_units_Z   2
loop_
 _symmetry_equiv_pos_site_id
 _symmetry_equiv_pos_as_xyz
  1  'x, y, z'
loop_
 _atom_site_type_symbol
 _atom_site_label
 _atom_site_symmetry_multiplicity
 _atom_site_fract_x
 _atom_site_fract_y
 _atom_site_fract_z
 _atom_site_occupancy
  Li  Li0  1  0.10214400  0.02093200  0.72313000  1
  Li  Li1  1  0.61518400  0.02937400  0.72465400  1
  Li  Li2  1  0.38690300  0.27310700  0.29703100  1
  Li  Li3  1  0.24090900  0.69978500  0.98289400  1
  Mn  Mn0  1  0.33354500  0.62931800  0.62180600  1
  Mn  Mn1  1  0.83508000  0.62923600  0.62619100  1
  Mn  Mn2  1  0.98710300  0.37356200  0.02687400  1
  Mn  Mn3  1  0.49556400  0.37549300  0.01905400  1
  Mn  Mn4  1  0.68681500  0.99109300  0.33696200  1
  Mn  Mn5  1  0.18796300  0.98912800  0.36912700  1
  B  B0  1  0.57969300  0.32102900  0.65655000  1
  B  B1  1  0.10395500  0.33991600  0.68030000  1
  B  B2  1  0.41259800  0.66838500  0.34329200  1
  B  B3  1  0.92268800  0.68531400  0.34053600  1
  B  B4  1  0.47604900  0.99649600  0.97899700  1
  B  B5  1  0.00220800  0.98945000  0.99927300  1
  O  O0  1  0.41974200  0.08539400  0.87247500  1
  O  O1  1  0.93198200  0.08517200  0.89883500  1
  O  O2  1  0.50000100  0.12925800  0.53142100  1
  O  O3  1  0.02827000  0.14964500  0.56470200  1
  O  O4  1  0.67498700  0.37582800  0.84178000  1
  O  O5  1  0.18368100  0.41849800  0.87343100  1
  O  O6  1  0.56172300  0.10092600  0.17080700  1
  O  O7  1  0.10726100  0.09093800  0.19350300  1
  O  O8  1  0.55777400  0.43724300  0.57833900  1
  O  O9  1  0.09711300  0.45734200  0.60345300  1
  O  O10  1  0.44091700  0.80360000  0.89317700  1
  O  O11  1  0.97984000  0.80045700  0.90595500  1
  O  O12  1  0.32314100  0.48008600  0.24179000  1
  O  O13  1  0.81172800  0.50511900  0.22805100  1
  O  O14  1  0.04344700  0.75326800  0.53005100  1
  O  O15  1  0.52441600  0.74960600  0.53921500  1
  O  O16  1  0.38952400  0.77857600  0.25927300  1
  O  O17  1  0.91423800  0.80373900  0.26344500  1
loop_
_geom_bond_atom_site_label_1
_geom_bond_atom_site_label_2
_geom_bond_distance
_geom_bond_site_symmetry_2
Li0 O0 1.938374 1_555
Li0 O1 1.997482 1_455
Li0 O14 1.999958 1_545
Li0 O3 2.039180 1_555
Li1 O0 1.947889 1_555
Li1 O1 2.000462 1_555
Li1 O15 2.053700 1_545
Li1 O2 2.123532 1_555
Li1 O4 2.535567 1_555
Li2 O6 1.950234 1_555
Li2 O7 1.978251 1_555
Li2 O12 1.992227 1_555
Li2 O8 2.046177 1_555
Li3 O11 1.942813 1_455
Li3 O10 2.022157 1_555
Li3 O16 2.033726 1_556
Li3 O5 2.041710 1_555
Mn0 O9 1.964306 1_555
Mn0 O10 1.968554 1_555
Mn0 O15 2.017630 1_555
Mn0 O8 2.134122 1_555
Mn0 O14 2.236591 1_555
Mn1 O11 2.024031 1_555
Mn1 O8 2.152195 1_555
Mn1 O14 2.203654 1_655
Mn1 O9 2.204919 1_655
Mn1 O15 2.304091 1_555
Mn2 O1 2.082017 1_554
Mn2 O4 2.138690 1_554
Mn2 O12 2.185887 1_655
Mn2 O5 2.201358 1_654
Mn2 O13 2.209946 1_555
Mn3 O13 2.088337 1_555
Mn3 O0 2.091629 1_554
Mn3 O5 2.132724 1_554
Mn3 O4 2.157817 1_554
Mn3 O12 2.318933 1_555
Mn4 O6 2.004324 1_565
Mn4 O17 2.150349 1_555
Mn4 O2 2.234140 1_565
Mn4 O16 2.261735 1_555
Mn4 O3 2.280874 1_665
Mn5 O17 1.961879 1_455
Mn5 O7 1.988058 1_565
Mn5 O2 1.989901 1_565
Mn5 O3 2.153623 1_565
Mn5 O16 2.205886 1_555
B0 O4 1.356795 1_555
B0 O8 1.389700 1_555
B0 O2 1.412251 1_555
B1 O5 1.382807 1_555
B1 O3 1.390652 1_555
B1 O9 1.395906 1_555
B2 O16 1.383168 1_555
B2 O12 1.385970 1_555
B2 O15 1.414361 1_555
B3 O13 1.367320 1_555
B3 O14 1.390966 1_655
B3 O17 1.404124 1_555
B4 O6 1.371708 1_566
B4 O0 1.389621 1_565
B4 O10 1.392743 1_555
B5 O11 1.368522 1_455
B5 O7 1.394376 1_566
B5 O1 1.404965 1_465
