# generated using pymatgen
data_EuBi3
_symmetry_space_group_name_H-M   'P 1'
_cell_length_a   4.99963672
_cell_length_b   4.99962071
_cell_length_c   4.99917216
_cell_angle_alpha   89.86021058
_cell_angle_beta   90.10366180
_cell_angle_gamma   89.86137992
_symmetry_Int_Tables_number   1
_chemical_formula_structural   EuBi3
_chemical_formula_sum   'Eu1 Bi3'
_cell_volume   124.95979996
_cell_formula_units_Z   1
loop_
 _symmetry_equiv_pos_site_id
 _symmetry_equiv_pos_as_xyz
  1  'x, y, z'
loop_
 _atom_site_type_symbol
 _atom_site_label
 _atom_site_symmetry_multiplicity
 _atom_site_fract_x
 _atom_site_fract_y
 _atom_site_fract_z
 _atom_site_occupancy
  Eu  Eu0  1  0.99999081  0.99999097  0.99999863  1
  Bi  Bi0  1  0.00000528  0.50000457  0.50000090  1
  Bi  Bi1  1  0.50000432  0.00000751  0.50000070  1
  Bi  Bi2  1  0.50000159  0.49999895  0.00000377  1
loop_
_geom_bond_atom_site_label_1
_geom_bond_atom_site_label_2
_geom_bond_distance
_geom_bond_site_symmetry_2
Bi0 Eu0 3.530752 1_454
Bi0 Eu0 3.530832 1_445
Bi0 Bi1 3.530978 1_555
Bi0 Bi1 3.531006 1_465
Bi0 Bi2 3.531910 1_556
Bi0 Bi2 3.531916 1_455
Bi0 Bi2 3.538286 1_555
Bi0 Bi2 3.538332 1_456
Bi0 Eu0 3.539361 1_455
Bi0 Eu0 3.539473 1_444
Bi0 Bi1 3.539538 1_455
Bi0 Bi1 3.539552 1_565
Bi1 Bi2 3.530751 1_555
Bi1 Bi2 3.530833 1_546
Bi1 Eu0 3.531858 1_545
Bi1 Eu0 3.531969 1_444
Bi1 Eu0 3.538269 1_544
Bi1 Eu0 3.538350 1_445
Bi1 Bi2 3.539398 1_556
Bi1 Bi2 3.539436 1_545
Bi2 Eu0 3.530982 1_544
Bi2 Eu0 3.531002 1_454
Bi2 Eu0 3.539479 1_554
Bi2 Eu0 3.539612 1_444
