# generated using pymatgen
data_Li2VO3F
_symmetry_space_group_name_H-M   'P 1'
_cell_length_a   7.14606200
_cell_length_b   7.14970390
_cell_length_c   7.15134409
_cell_angle_alpha   110.07957831
_cell_angle_beta   108.31915604
_cell_angle_gamma   109.33440843
_symmetry_Int_Tables_number   1
_chemical_formula_structural   Li2VO3F
_chemical_formula_sum   'Li8 V4 O12 F4'
_cell_volume   283.55514852
_cell_formula_units_Z   4
loop_
 _symmetry_equiv_pos_site_id
 _symmetry_equiv_pos_as_xyz
  1  'x, y, z'
loop_
 _atom_site_type_symbol
 _atom_site_label
 _atom_site_symmetry_multiplicity
 _atom_site_fract_x
 _atom_site_fract_y
 _atom_site_fract_z
 _atom_site_occupancy
  Li  Li0  1  0.99759700  0.98953200  0.25513700  1
  Li  Li1  1  0.03705900  0.76653000  0.48252700  1
  Li  Li2  1  0.76083500  0.04961400  0.47688400  1
  Li  Li3  1  0.53151700  0.02313100  0.73120700  1
  Li  Li4  1  0.05491200  0.58707800  0.71019000  1
  Li  Li5  1  0.24469000  0.48506100  0.51060100  1
  Li  Li6  1  0.45085300  0.71737600  0.00869600  1
  Li  Li7  1  0.75426800  0.50642600  0.99052400  1
  V  V0  1  0.95355600  0.23351700  0.01948400  1
  V  V1  1  0.44613200  0.45821700  0.27442700  1
  V  V2  1  0.21785800  0.22629200  0.75507100  1
  V  V3  1  0.31932600  0.06464900  0.97094300  1
  O  O0  1  0.47646300  0.22972400  0.99991400  1
  O  O1  1  0.52902900  0.00075300  0.23748500  1
  O  O2  1  0.28200200  0.28424700  0.24592600  1
  O  O3  1  0.47020700  0.68050500  0.54085200  1
  O  O4  1  0.78029600  0.78167600  0.21919700  1
  O  O5  1  0.05923400  0.28185300  0.47400700  1
  O  O6  1  0.45311400  0.44023700  0.78086100  1
  O  O7  1  0.22122300  0.67792000  0.78456700  1
  O  O8  1  0.76471200  0.98815300  0.00853600  1
  O  O9  1  0.71900200  0.23981000  0.76428100  1
  O  O10  1  0.98923300  0.00048900  0.77000500  1
  O  O11  1  0.01858700  0.79979500  0.98420600  1
  F  F0  1  0.22442700  0.46043600  0.01013900  1
  F  F1  1  0.02867200  0.54581800  0.21634800  1
  F  F2  1  0.28657900  0.04160800  0.46798800  1
  F  F3  1  0.72135700  0.48296100  0.52461900  1
loop_
_geom_bond_atom_site_label_1
_geom_bond_atom_site_label_2
_geom_bond_distance
_geom_bond_site_symmetry_2
Li0 O4 1.626247 1_555
Li0 O5 1.929468 1_665
Li0 O8 2.002997 1_555
Li0 O11 2.032094 1_654
Li0 O2 2.432825 1_665
Li1 O4 2.241473 1_455
Li1 O10 2.366496 1_465
Li2 O1 1.794564 1_555
Li2 O9 2.213373 1_555
Li2 O4 2.235751 1_545
Li2 O5 2.238537 1_655
Li2 O10 2.432238 1_555
Li3 O9 1.557489 1_555
Li3 O3 2.161156 1_545
Li3 O0 2.222657 1_555
Li3 O8 2.304743 1_546
Li4 O7 0.985647 1_555
Li4 O11 2.180631 1_555
Li4 O5 2.272125 1_555
Li5 O5 1.477037 1_555
Li5 O3 1.636665 1_555
Li5 O6 2.233447 1_555
Li6 O7 1.752421 1_554
Li6 O1 1.869155 1_565
Li6 O6 2.098116 1_554
Li6 O4 2.144800 1_555
Li6 O8 2.430299 1_555
Li7 O9 1.903362 1_555
Li7 O6 1.978251 1_555
Li7 O4 1.984524 1_556
Li7 O0 2.331057 1_555
Li7 O11 2.337650 1_655
O0 V3 1.226825 1_555
O0 V2 2.094750 1_555
O1 V3 2.311564 1_554
O2 V1 1.293814 1_555
O2 V0 2.215060 1_455
O3 V1 1.928542 1_555
O5 V2 2.212902 1_555
O6 V2 1.763146 1_555
O8 V0 1.782255 1_565
O9 V0 2.079809 1_556
O10 V2 1.941270 1_655
O10 V3 2.130646 1_655
O10 V0 2.133079 1_556
O11 V3 2.402121 1_565
F0 V2 1.982250 1_554
F0 Li6 2.012018 1_555
F0 V1 2.058488 1_555
F0 V0 2.111810 1_455
F1 V0 1.956689 1_455
F1 Li7 1.965664 1_454
F1 Li1 1.979972 1_555
F1 Li5 2.455491 1_555
F2 Li0 1.961098 1_445
F2 Li3 2.208428 1_555
F2 Li1 2.234518 1_545
F2 V2 2.324084 1_555
F3 Li4 2.038414 1_655
F3 V1 2.107352 1_555
