# generated using pymatgen
data_Ca2SnS4
_symmetry_space_group_name_H-M   'P 1'
_cell_length_a   3.97592600
_cell_length_b   7.08499200
_cell_length_c   11.51915400
_cell_angle_alpha   90.00000000
_cell_angle_beta   90.00000000
_cell_angle_gamma   90.00000000
_symmetry_Int_Tables_number   1
_chemical_formula_structural   Ca2SnS4
_chemical_formula_sum   'Ca4 Sn2 S8'
_cell_volume   324.48770164
_cell_formula_units_Z   2
loop_
 _symmetry_equiv_pos_site_id
 _symmetry_equiv_pos_as_xyz
  1  'x, y, z'
loop_
 _atom_site_type_symbol
 _atom_site_label
 _atom_site_symmetry_multiplicity
 _atom_site_fract_x
 _atom_site_fract_y
 _atom_site_fract_z
 _atom_site_occupancy
  Ca  Ca0  1  0.50000000  0.41463800  0.81489900  1
  Ca  Ca1  1  0.50000000  0.58536200  0.18510100  1
  Ca  Ca2  1  0.50000000  0.91463800  0.68510100  1
  Ca  Ca3  1  0.50000000  0.08536200  0.31489900  1
  Sn  Sn0  1  0.00000000  0.50000000  0.50000000  1
  Sn  Sn1  1  0.00000000  0.00000000  0.00000000  1
  S  S0  1  0.50000000  0.26477100  0.55236000  1
  S  S1  1  0.50000000  0.73522900  0.44764000  1
  S  S2  1  0.50000000  0.76477100  0.94764000  1
  S  S3  1  0.50000000  0.23522900  0.05236000  1
  S  S4  1  0.00000000  0.13228700  0.79795700  1
  S  S5  1  0.00000000  0.86771300  0.20204300  1
  S  S6  1  0.00000000  0.63228700  0.70204300  1
  S  S7  1  0.00000000  0.36771300  0.29795700  1
loop_
_geom_bond_atom_site_label_1
_geom_bond_atom_site_label_2
_geom_bond_distance
_geom_bond_site_symmetry_2
Ca0 S4 2.826995 1_555
Ca0 S4 2.826995 1_655
Ca0 S6 2.831943 1_555
Ca0 S6 2.831943 1_655
Ca0 S2 2.914079 1_555
Ca0 S3 3.016266 1_556
Ca0 S0 3.205212 1_555
Ca1 S5 2.826995 1_555
Ca1 S5 2.826995 1_655
Ca1 S7 2.831943 1_555
Ca1 S7 2.831943 1_655
Ca1 S3 2.914079 1_555
Ca1 S2 3.016266 1_554
Ca1 S1 3.205212 1_555
Ca2 S6 2.826995 1_555
Ca2 S6 2.826995 1_655
Ca2 S4 2.831943 1_565
Ca2 S4 2.831943 1_665
Ca2 S0 2.914079 1_565
Ca2 S1 3.016266 1_555
Ca2 S2 3.205212 1_555
Ca3 S7 2.826995 1_555
Ca3 S7 2.826995 1_655
Ca3 S5 2.831943 1_545
Ca3 S5 2.831943 1_645
Ca3 S1 2.914079 1_545
Ca3 S0 3.016266 1_555
Ca3 S3 3.205212 1_555
S0 Sn0 2.663329 1_655
S0 Sn0 2.663329 1_555
S1 Sn0 2.663329 1_555
S1 Sn0 2.663329 1_655
S2 Sn1 2.663329 1_566
S2 Sn1 2.663329 1_666
S3 Sn1 2.663329 1_555
S3 Sn1 2.663329 1_655
S4 Sn1 2.508997 1_556
S5 Sn1 2.508997 1_565
S6 Sn0 2.508997 1_555
S7 Sn0 2.508997 1_555
