# generated using pymatgen
data_Rb3InO3
_symmetry_space_group_name_H-M   'P 1'
_cell_length_a   7.09163270
_cell_length_b   7.75869261
_cell_length_c   11.35828284
_cell_angle_alpha   85.97981099
_cell_angle_beta   90.00000000
_cell_angle_gamma   90.00000000
_symmetry_Int_Tables_number   1
_chemical_formula_structural   Rb3InO3
_chemical_formula_sum   'Rb12 In4 O12'
_cell_volume   623.41539255
_cell_formula_units_Z   4
loop_
 _symmetry_equiv_pos_site_id
 _symmetry_equiv_pos_as_xyz
  1  'x, y, z'
loop_
 _atom_site_type_symbol
 _atom_site_label
 _atom_site_symmetry_multiplicity
 _atom_site_fract_x
 _atom_site_fract_y
 _atom_site_fract_z
 _atom_site_occupancy
  Rb  Rb0  1  0.32428979  0.36019999  0.07516150  1
  Rb  Rb1  1  0.62445186  0.94354686  0.15497418  1
  Rb  Rb2  1  0.80500505  0.36819271  0.19230847  1
  Rb  Rb3  1  0.30500505  0.63180729  0.30769153  1
  Rb  Rb4  1  0.12445186  0.05645314  0.34502582  1
  Rb  Rb5  1  0.82428979  0.63980001  0.42483850  1
  Rb  Rb6  1  0.17571021  0.36019999  0.57516150  1
  Rb  Rb7  1  0.87554814  0.94354686  0.65497418  1
  Rb  Rb8  1  0.69499495  0.36819271  0.69230847  1
  Rb  Rb9  1  0.19499495  0.63180729  0.80769153  1
  Rb  Rb10  1  0.37554814  0.05645314  0.84502582  1
  Rb  Rb11  1  0.67571021  0.63980001  0.92483850  1
  In  In0  1  0.08754735  0.83879787  0.06710652  1
  In  In1  1  0.58754735  0.16120213  0.43289348  1
  In  In2  1  0.41245265  0.83879787  0.56710652  1
  In  In3  1  0.91245265  0.16120213  0.93289348  1
  O  O0  1  0.35318408  0.74748332  0.03916185  1
  O  O1  1  0.04659705  0.10512859  0.09945954  1
  O  O2  1  0.93736375  0.69429461  0.19068822  1
  O  O3  1  0.43736375  0.30570539  0.30931178  1
  O  O4  1  0.54659705  0.89487141  0.40054046  1
  O  O5  1  0.85318408  0.25251668  0.46083815  1
  O  O6  1  0.14681592  0.74748332  0.53916185  1
  O  O7  1  0.45340295  0.10512859  0.59945954  1
  O  O8  1  0.56263625  0.69429461  0.69068822  1
  O  O9  1  0.06263625  0.30570539  0.80931178  1
  O  O10  1  0.95340295  0.89487141  0.90054046  1
  O  O11  1  0.64681592  0.25251668  0.96083815  1
loop_
_geom_bond_atom_site_label_1
_geom_bond_atom_site_label_2
_geom_bond_distance
_geom_bond_site_symmetry_2
In0 O2 2.034935 1_455
In0 O0 2.045218 1_555
In0 O10 2.134981 1_454
In0 O1 2.143773 1_565
In1 O3 2.034935 1_555
In1 O5 2.045218 1_555
In1 O7 2.134981 1_555
In1 O4 2.143773 1_545
In2 O8 2.034935 1_555
In2 O6 2.045218 1_555
In2 O4 2.134981 1_555
In2 O7 2.143773 1_565
In3 O9 2.034935 1_655
In3 O11 2.045218 1_555
In3 O1 2.134981 1_656
In3 O10 2.143773 1_545
O0 Rb11 2.787068 1_554
O0 Rb1 2.832969 1_555
O0 Rb0 3.010947 1_555
O0 Rb9 3.050742 1_554
O0 Rb3 3.137057 1_555
O0 Rb10 3.145284 1_564
O1 Rb0 2.791815 1_555
O1 Rb4 2.842439 1_555
O1 Rb2 2.918074 1_455
O1 Rb1 3.289477 1_445
O2 Rb2 2.697477 1_555
O2 Rb5 2.781598 1_555
O2 Rb3 2.950967 1_655
O2 Rb1 2.952732 1_555
O3 Rb3 2.697477 1_555
O3 Rb0 2.781598 1_555
O3 Rb2 2.950967 1_555
O3 Rb4 2.952732 1_555
O4 Rb5 2.791815 1_555
O4 Rb1 2.842439 1_555
O4 Rb3 2.918074 1_555
O4 Rb4 3.289477 1_565
O5 Rb6 2.787068 1_655
O5 Rb4 2.832969 1_655
O5 Rb5 3.010947 1_555
O5 Rb8 3.050742 1_555
O5 Rb2 3.137057 1_555
O5 Rb7 3.145284 1_545
O6 Rb5 2.787068 1_455
O6 Rb7 2.832969 1_455
O6 Rb6 3.010947 1_555
O6 Rb3 3.050742 1_555
O6 Rb9 3.137057 1_555
O6 Rb4 3.145284 1_565
O7 Rb6 2.791815 1_555
O7 Rb10 2.842439 1_555
O7 Rb8 2.918074 1_555
O7 Rb7 3.289477 1_545
O8 Rb8 2.697477 1_555
O8 Rb11 2.781598 1_555
O8 Rb9 2.950967 1_555
O8 Rb7 2.952732 1_555
O9 Rb9 2.697477 1_555
O9 Rb6 2.781598 1_555
O9 Rb8 2.950967 1_455
O9 Rb10 2.952732 1_555
O10 Rb11 2.791815 1_555
O10 Rb7 2.842439 1_555
O10 Rb9 2.918074 1_655
O10 Rb10 3.289477 1_665
O11 Rb0 2.787068 1_556
O11 Rb10 2.832969 1_555
O11 Rb11 3.010947 1_555
O11 Rb2 3.050742 1_556
O11 Rb8 3.137057 1_555
O11 Rb1 3.145284 1_546
