# generated using pymatgen
data_Li2Cr5(Si2O7)2
_symmetry_space_group_name_H-M   'P 1'
_cell_length_a   5.61526948
_cell_length_b   13.46428597
_cell_length_c   8.03815713
_cell_angle_alpha   82.54520228
_cell_angle_beta   91.20726620
_cell_angle_gamma   84.49134799
_symmetry_Int_Tables_number   1
_chemical_formula_structural   Li2Cr5(Si2O7)2
_chemical_formula_sum   'Li4 Cr10 Si8 O28'
_cell_volume   599.46376857
_cell_formula_units_Z   2
loop_
 _symmetry_equiv_pos_site_id
 _symmetry_equiv_pos_as_xyz
  1  'x, y, z'
loop_
 _atom_site_type_symbol
 _atom_site_label
 _atom_site_symmetry_multiplicity
 _atom_site_fract_x
 _atom_site_fract_y
 _atom_site_fract_z
 _atom_site_occupancy
  Li  Li0  1  0.17352800  0.05458000  0.40128200  1
  Li  Li1  1  0.67341800  0.55453500  0.90125700  1
  Li  Li2  1  0.32657300  0.44547300  0.09874400  1
  Li  Li3  1  0.82645900  0.94542300  0.59873600  1
  Cr  Cr0  1  0.49994800  0.49996000  0.50006700  1
  Cr  Cr1  1  0.88212800  0.19218800  0.61878600  1
  Cr  Cr2  1  0.38173300  0.69269100  0.11782600  1
  Cr  Cr3  1  0.61822300  0.30732700  0.88214200  1
  Cr  Cr4  1  0.11782900  0.80784200  0.38115600  1
  Cr  Cr5  1  0.00017600  0.99997800  0.99999700  1
  Cr  Cr6  1  0.38047500  0.28617100  0.42491200  1
  Cr  Cr7  1  0.88016000  0.78555700  0.92456400  1
  Cr  Cr8  1  0.11985300  0.21441000  0.07545900  1
  Cr  Cr9  1  0.61951000  0.71383100  0.57506300  1
  Si  Si0  1  0.37781300  0.11285200  0.74343400  1
  Si  Si1  1  0.87818900  0.61285500  0.24320000  1
  Si  Si2  1  0.12176700  0.38715200  0.75684100  1
  Si  Si3  1  0.62223600  0.88715800  0.25653400  1
  Si  Si4  1  0.68949000  0.10352000  0.29127200  1
  Si  Si5  1  0.18927400  0.60338500  0.79144900  1
  Si  Si6  1  0.81071600  0.39662100  0.20856400  1
  Si  Si7  1  0.31052400  0.89648400  0.70871100  1
  O  O0  1  0.80022800  0.08375000  0.48395700  1
  O  O1  1  0.29998900  0.58376500  0.98411900  1
  O  O2  1  0.69999200  0.41622700  0.01589300  1
  O  O3  1  0.19977900  0.91625800  0.51603700  1
  O  O4  1  0.60303100  0.17610700  0.77728800  1
  O  O5  1  0.10348000  0.67607600  0.27727400  1
  O  O6  1  0.89652100  0.32393300  0.72270900  1
  O  O7  1  0.39700400  0.82390700  0.22267600  1
  O  O8  1  0.53014200  0.00691000  0.26493100  1
  O  O9  1  0.02965900  0.50689800  0.76510700  1
  O  O10  1  0.97032200  0.49311000  0.23490100  1
  O  O11  1  0.46984800  0.99309300  0.73508400  1
  O  O12  1  0.24097000  0.16200300  0.56200500  1
  O  O13  1  0.74100900  0.66182000  0.06180900  1
  O  O14  1  0.25897700  0.33817600  0.93819500  1
  O  O15  1  0.75905200  0.83800900  0.43798900  1
  O  O16  1  0.93179700  0.09485800  0.17573600  1
  O  O17  1  0.43176400  0.59456500  0.67628100  1
  O  O18  1  0.56820400  0.40543600  0.32372700  1
  O  O19  1  0.06821700  0.90512000  0.82423500  1
  O  O20  1  0.49941400  0.20212400  0.24245900  1
  O  O21  1  0.99938700  0.70195500  0.74212700  1
  O  O22  1  0.00058900  0.29804300  0.25788600  1
  O  O23  1  0.50057400  0.79787800  0.75754500  1
  O  O24  1  0.18594900  0.11636800  0.89491500  1
  O  O25  1  0.68590700  0.61626600  0.39432800  1
  O  O26  1  0.31403400  0.38370800  0.60571700  1
  O  O27  1  0.81413800  0.88364300  0.10507100  1
loop_
_geom_bond_atom_site_label_1
_geom_bond_atom_site_label_2
_geom_bond_distance
_geom_bond_site_symmetry_2
Li0 O3 1.958808 1_545
Li0 O12 2.115157 1_555
Li0 O16 2.218854 1_455
Li0 O0 2.226707 1_455
Li0 O8 2.377268 1_555
Li1 O2 1.958265 1_556
Li1 O13 2.112945 1_556
Li1 O17 2.214805 1_555
Li1 O1 2.227995 1_555
Li1 O9 2.374597 1_655
Li2 O1 1.958042 1_554
Li2 O14 2.113061 1_554
Li2 O18 2.214782 1_555
Li2 O2 2.227940 1_555
Li2 O10 2.374672 1_455
Li3 O0 1.958937 1_565
Li3 O15 2.115151 1_555
Li3 O19 2.218676 1_655
Li3 O3 2.226869 1_655
Li3 O11 2.377242 1_555
Cr0 O17 2.042747 1_555
Cr0 O18 2.042835 1_555
Cr0 O26 2.065722 1_555
Cr0 O25 2.066649 1_555
Cr1 O0 2.009055 1_555
Cr1 O4 2.050355 1_555
Cr1 O6 2.063996 1_555
Cr1 O12 2.088864 1_655
Cr2 O1 2.008538 1_554
Cr2 O5 2.052099 1_555
Cr2 O7 2.061897 1_555
Cr2 O13 2.090788 1_555
Cr3 O2 2.008512 1_556
Cr3 O6 2.052210 1_555
Cr3 O4 2.061912 1_555
Cr3 O14 2.090664 1_555
Cr4 O3 2.009157 1_555
Cr4 O7 2.050569 1_555
Cr4 O5 2.064057 1_555
Cr4 O15 2.088596 1_455
Cr5 O19 2.042180 1_555
Cr5 O16 2.042513 1_466
Cr5 O24 2.065186 1_565
Cr5 O27 2.065480 1_456
Cr6 O20 2.050451 1_555
Cr6 O18 2.091320 1_555
Cr6 O26 2.097641 1_555
Cr6 O12 2.105418 1_555
Cr6 O22 2.477220 1_555
Cr7 O21 2.047146 1_555
Cr7 O19 2.093426 1_655
Cr7 O13 2.100611 1_556
Cr7 O27 2.100646 1_556
Cr7 O23 2.475243 1_555
Cr8 O22 2.047397 1_555
Cr8 O16 2.093185 1_455
Cr8 O24 2.100516 1_554
Cr8 O14 2.100904 1_554
Cr8 O20 2.475087 1_555
Cr9 O23 2.050631 1_555
Cr9 O17 2.091466 1_555
Cr9 O25 2.097434 1_555
Cr9 O15 2.105550 1_555
Cr9 O21 2.477330 1_555
O0 Si4 1.636172 1_555
O1 Si5 1.636011 1_555
O2 Si6 1.636035 1_555
O3 Si7 1.636104 1_555
O4 Si0 1.628254 1_555
O5 Si1 1.628696 1_455
O6 Si2 1.628573 1_655
O7 Si3 1.628292 1_555
O8 Si3 1.655706 1_545
O8 Si4 1.680611 1_555
O9 Si2 1.655464 1_555
O9 Si5 1.680126 1_555
O10 Si1 1.655528 1_555
O10 Si6 1.680110 1_555
O11 Si0 1.655657 1_565
O11 Si7 1.680574 1_555
O12 Si0 1.661301 1_555
O13 Si1 1.661222 1_555
O14 Si2 1.661083 1_555
O15 Si3 1.661404 1_555
O16 Si4 1.666808 1_555
O17 Si5 1.666066 1_555
O18 Si6 1.666139 1_555
O19 Si7 1.666729 1_555
O20 Si4 1.621997 1_555
O21 Si5 1.621560 1_655
O22 Si6 1.621593 1_455
O23 Si7 1.621953 1_555
O24 Si0 1.645000 1_555
O25 Si1 1.644335 1_555
O26 Si2 1.644281 1_555
O27 Si3 1.645032 1_555
