# generated using pymatgen
data_Li2FeP3O10
_symmetry_space_group_name_H-M   'P 1'
_cell_length_a   8.03206900
_cell_length_b   9.74047700
_cell_length_c   12.13953628
_cell_angle_alpha   83.60022392
_cell_angle_beta   90.00000000
_cell_angle_gamma   90.00000000
_symmetry_Int_Tables_number   1
_chemical_formula_structural   Li2FeP3O10
_chemical_formula_sum   'Li8 Fe4 P12 O40'
_cell_volume   943.83247533
_cell_formula_units_Z   4
loop_
 _symmetry_equiv_pos_site_id
 _symmetry_equiv_pos_as_xyz
  1  'x, y, z'
loop_
 _atom_site_type_symbol
 _atom_site_label
 _atom_site_symmetry_multiplicity
 _atom_site_fract_x
 _atom_site_fract_y
 _atom_site_fract_z
 _atom_site_occupancy
  Li  Li0  1  0.53970900  0.61419300  0.14878400  1
  Li  Li1  1  0.96029100  0.11419300  0.14878400  1
  Li  Li2  1  0.88717500  0.09135600  0.44736300  1
  Li  Li3  1  0.61282500  0.59135600  0.44736300  1
  Li  Li4  1  0.38717500  0.40864400  0.55263700  1
  Li  Li5  1  0.11282500  0.90864400  0.55263700  1
  Li  Li6  1  0.03970900  0.88580700  0.85121600  1
  Li  Li7  1  0.46029100  0.38580700  0.85121600  1
  Fe  Fe0  1  0.14352200  0.37208800  0.16931200  1
  Fe  Fe1  1  0.35647800  0.87208800  0.16931200  1
  Fe  Fe2  1  0.64352200  0.12791200  0.83068800  1
  Fe  Fe3  1  0.85647800  0.62791200  0.83068800  1
  P  P0  1  0.43197300  0.19598500  0.06298500  1
  P  P1  1  0.06802700  0.69598500  0.06298500  1
  P  P2  1  0.57627400  0.08692800  0.27212000  1
  P  P3  1  0.92372600  0.58692800  0.27212000  1
  P  P4  1  0.21604600  0.07377000  0.33241500  1
  P  P5  1  0.28395400  0.57377000  0.33241500  1
  P  P6  1  0.71604600  0.42623000  0.66758500  1
  P  P7  1  0.78395400  0.92623000  0.66758500  1
  P  P8  1  0.07627400  0.41307200  0.72788000  1
  P  P9  1  0.42372600  0.91307200  0.72788000  1
  P  P10  1  0.93197300  0.30401500  0.93701500  1
  P  P11  1  0.56802700  0.80401500  0.93701500  1
  O  O0  1  0.33517200  0.06129200  0.08329500  1
  O  O1  1  0.00541400  0.28075100  0.05385300  1
  O  O2  1  0.34131700  0.32861400  0.08261900  1
  O  O3  1  0.16482800  0.56129200  0.08329500  1
  O  O4  1  0.49458600  0.78075100  0.05385300  1
  O  O5  1  0.15868300  0.82861400  0.08261900  1
  O  O6  1  0.58373900  0.18548300  0.15425900  1
  O  O7  1  0.91626100  0.68548300  0.15425900  1
  O  O8  1  0.12120300  0.17629200  0.24850500  1
  O  O9  1  0.94022000  0.43890300  0.24513000  1
  O  O10  1  0.27906500  0.42969400  0.29319800  1
  O  O11  1  0.37879700  0.67629200  0.24850500  1
  O  O12  1  0.55978000  0.93890300  0.24513000  1
  O  O13  1  0.22093500  0.92969400  0.29319800  1
  O  O14  1  0.40912100  0.13090100  0.33425600  1
  O  O15  1  0.72638400  0.12384900  0.33473500  1
  O  O16  1  0.09087900  0.63090100  0.33425600  1
  O  O17  1  0.77361600  0.62384900  0.33473500  1
  O  O18  1  0.14145100  0.07153900  0.44709000  1
  O  O19  1  0.35854900  0.57153900  0.44709000  1
  O  O20  1  0.64145100  0.42846100  0.55291000  1
  O  O21  1  0.85854900  0.92846100  0.55291000  1
  O  O22  1  0.22638400  0.37615100  0.66526500  1
  O  O23  1  0.90912100  0.36909900  0.66574400  1
  O  O24  1  0.27361600  0.87615100  0.66526500  1
  O  O25  1  0.59087900  0.86909900  0.66574400  1
  O  O26  1  0.77906500  0.07030600  0.70680200  1
  O  O27  1  0.44022000  0.06109700  0.75487000  1
  O  O28  1  0.62120300  0.32370800  0.75149500  1
  O  O29  1  0.72093500  0.57030600  0.70680200  1
  O  O30  1  0.05978000  0.56109700  0.75487000  1
  O  O31  1  0.87879700  0.82370800  0.75149500  1
  O  O32  1  0.08373900  0.31451700  0.84574100  1
  O  O33  1  0.41626100  0.81451700  0.84574100  1
  O  O34  1  0.84131700  0.17138600  0.91738100  1
  O  O35  1  0.50541400  0.21924900  0.94614700  1
  O  O36  1  0.83517200  0.43870800  0.91670500  1
  O  O37  1  0.65868300  0.67138600  0.91738100  1
  O  O38  1  0.99458600  0.71924900  0.94614700  1
  O  O39  1  0.66482800  0.93870800  0.91670500  1
loop_
_geom_bond_atom_site_label_1
_geom_bond_atom_site_label_2
_geom_bond_distance
_geom_bond_site_symmetry_2
Li0 O11 1.914426 1_555
Li0 O4 1.916941 1_555
Li1 O8 1.914426 1_655
Li1 O1 1.916941 1_655
Li2 O15 1.881757 1_555
Li2 O21 1.938787 1_545
Li2 O18 2.051501 1_655
Li3 O17 1.881757 1_555
Li3 O20 1.938787 1_555
Li3 O19 2.051501 1_555
Li4 O22 1.881757 1_555
Li4 O19 1.938787 1_555
Li4 O20 2.051501 1_555
Li5 O24 1.881757 1_555
Li5 O18 1.938787 1_565
Li5 O21 2.051501 1_455
Li6 O31 1.914426 1_455
Li6 O38 1.916941 1_455
Li7 O28 1.914426 1_555
Li7 O35 1.916941 1_555
Fe0 O2 1.977427 1_555
Fe0 O10 1.987457 1_555
Fe0 O9 2.017597 1_455
Fe0 O3 2.021648 1_555
Fe0 O8 2.045687 1_555
Fe0 O1 2.065081 1_555
Fe1 O5 1.977427 1_555
Fe1 O13 1.987457 1_555
Fe1 O12 2.017597 1_555
Fe1 O0 2.021648 1_565
Fe1 O11 2.045687 1_555
Fe1 O4 2.065081 1_555
Fe2 O34 1.977427 1_555
Fe2 O26 1.987457 1_555
Fe2 O27 2.017597 1_555
Fe2 O39 2.021648 1_545
Fe2 O28 2.045687 1_555
Fe2 O35 2.065081 1_555
Fe3 O37 1.977427 1_555
Fe3 O29 1.987457 1_555
Fe3 O30 2.017597 1_655
Fe3 O36 2.021648 1_555
Fe3 O31 2.045687 1_555
Fe3 O38 2.065081 1_555
O0 P0 1.521341 1_555
O1 P10 1.529511 1_454
O2 P0 1.524661 1_555
O3 P1 1.521341 1_555
O4 P11 1.529511 1_554
O5 P1 1.524661 1_555
O6 P2 1.632811 1_555
O6 P0 1.642821 1_555
O7 P3 1.632811 1_555
O7 P1 1.642821 1_655
O8 P4 1.545439 1_555
O9 P3 1.519573 1_555
O10 P5 1.531854 1_555
O11 P5 1.545439 1_555
O12 P2 1.519573 1_565
O13 P4 1.531854 1_565
O14 P2 1.620798 1_555
O14 P4 1.648606 1_555
O15 P2 1.490553 1_555
O16 P3 1.620798 1_455
O16 P5 1.648606 1_555
O17 P3 1.490553 1_555
O18 P4 1.513492 1_555
O19 P5 1.513492 1_555
O20 P6 1.513492 1_555
O21 P7 1.513492 1_555
O22 P8 1.490553 1_555
O23 P8 1.620798 1_655
O23 P6 1.648606 1_555
O24 P9 1.490553 1_555
O25 P9 1.620798 1_555
O25 P7 1.648606 1_555
O26 P7 1.531854 1_545
O27 P9 1.519573 1_545
O28 P6 1.545439 1_555
O29 P6 1.531854 1_555
O30 P8 1.519573 1_555
O31 P7 1.545439 1_555
O32 P8 1.632811 1_555
O32 P10 1.642821 1_455
O33 P9 1.632811 1_555
O33 P11 1.642821 1_555
O34 P10 1.524661 1_555
O35 P0 1.529511 1_556
O36 P10 1.521341 1_555
O37 P11 1.524661 1_555
O38 P1 1.529511 1_656
O39 P11 1.521341 1_555
