# generated using pymatgen
data_V3(PO4)2
_symmetry_space_group_name_H-M   'P 1'
_cell_length_a   4.80763093
_cell_length_b   10.35266039
_cell_length_c   6.01154538
_cell_angle_alpha   91.47856572
_cell_angle_beta   89.95544653
_cell_angle_gamma   89.92666317
_symmetry_Int_Tables_number   1
_chemical_formula_structural   V3(PO4)2
_chemical_formula_sum   'V6 P4 O16'
_cell_volume   299.10529169
_cell_formula_units_Z   2
loop_
 _symmetry_equiv_pos_site_id
 _symmetry_equiv_pos_as_xyz
  1  'x, y, z'
loop_
 _atom_site_type_symbol
 _atom_site_label
 _atom_site_symmetry_multiplicity
 _atom_site_fract_x
 _atom_site_fract_y
 _atom_site_fract_z
 _atom_site_occupancy
  V  V0  1  0.98808245  0.27279444  0.24669072  1
  V  V1  1  0.01254102  0.72678431  0.75266280  1
  V  V2  1  0.48842427  0.22704011  0.75474046  1
  V  V3  1  0.49890286  0.49795365  0.50149003  1
  V  V4  1  0.00146323  0.00262936  0.50264467  1
  V  V5  1  0.51054897  0.77337534  0.24244547  1
  P  P0  1  0.07509072  0.59445026  0.24923839  1
  P  P1  1  0.42442455  0.09500693  0.24847368  1
  P  P2  1  0.57657849  0.90528725  0.74885558  1
  P  P3  1  0.92369899  0.40489297  0.75283435  1
  O  O0  1  0.18964413  0.66943924  0.05332008  1
  O  O1  1  0.30767463  0.17034565  0.05394417  1
  O  O2  1  0.69270576  0.82919837  0.94289713  1
  O  O3  1  0.80645463  0.33004746  0.94780130  1
  O  O4  1  0.31170209  0.95647194  0.25588026  1
  O  O5  1  0.18569326  0.45539168  0.25653830  1
  O  O6  1  0.81287724  0.54381569  0.74440673  1
  O  O7  1  0.68623963  0.04440549  0.74523271  1
  O  O8  1  0.75952634  0.60059400  0.27100814  1
  O  O9  1  0.73983410  0.10020417  0.26763527  1
  O  O10  1  0.26111325  0.89936961  0.73021237  1
  O  O11  1  0.23916716  0.39904435  0.73420211  1
  O  O12  1  0.22932938  0.66169078  0.45588094  1
  O  O13  1  0.27540325  0.16306344  0.45703858  1
  O  O14  1  0.72850323  0.83958256  0.53940007  1
  O  O15  1  0.77437639  0.33712294  0.54452469  1
loop_
_geom_bond_atom_site_label_1
_geom_bond_atom_site_label_2
_geom_bond_distance
_geom_bond_site_symmetry_2
O0 P0 1.529843 1_555
O0 V1 2.097768 1_554
O0 V5 2.185059 1_555
O1 P1 1.529019 1_555
O1 V2 2.094806 1_554
O1 V0 2.181266 1_455
O2 P2 1.529773 1_555
O2 V5 2.096701 1_556
O2 V1 2.174134 1_655
O3 P3 1.529307 1_555
O3 V0 2.097216 1_556
O3 V2 2.182890 1_555
O4 P1 1.535533 1_565
O4 V5 2.121515 1_555
O4 V4 2.147485 1_565
O5 P0 1.535751 1_555
O5 V0 2.116242 1_455
O5 V3 2.145136 1_555
O6 P3 1.535171 1_555
O6 V1 2.124101 1_655
O6 V3 2.146138 1_555
O7 P2 1.535015 1_545
O7 V2 2.114805 1_555
O7 V4 2.138407 1_655
O8 P0 1.523756 1_655
O8 V5 2.161614 1_555
O8 V3 2.166916 1_555
O9 P1 1.521746 1_555
O9 V0 2.156302 1_555
O9 V4 2.161388 1_655
O10 P2 1.522058 1_555
O10 V4 2.155753 1_565
O10 V1 2.157860 1_555
O11 P3 1.521711 1_455
O11 V2 2.151340 1_555
O11 V3 2.153921 1_555
O12 P0 1.592397 1_555
O12 V3 2.155724 1_555
O12 V1 2.157946 1_555
O12 V5 2.211092 1_555
O13 P1 1.591675 1_555
O13 V4 2.144027 1_555
O13 V2 2.152620 1_555
O13 V0 2.206904 1_455
O14 P2 1.592086 1_555
O14 V4 2.155141 1_665
O14 V5 2.167063 1_555
O14 V1 2.224391 1_655
O15 P3 1.591576 1_555
O15 V3 2.147167 1_555
O15 V0 2.153752 1_555
O15 V2 2.204852 1_555
