# generated using pymatgen
data_CoF3
_symmetry_space_group_name_H-M   'P 1'
_cell_length_a   5.11559815
_cell_length_b   5.11559815
_cell_length_c   6.78885900
_cell_angle_alpha   90.00000000
_cell_angle_beta   90.00000000
_cell_angle_gamma   120.00000198
_symmetry_Int_Tables_number   1
_chemical_formula_structural   CoF3
_chemical_formula_sum   'Co3 F9'
_cell_volume   153.85806122
_cell_formula_units_Z   3
loop_
 _symmetry_equiv_pos_site_id
 _symmetry_equiv_pos_as_xyz
  1  'x, y, z'
loop_
 _atom_site_type_symbol
 _atom_site_label
 _atom_site_symmetry_multiplicity
 _atom_site_fract_x
 _atom_site_fract_y
 _atom_site_fract_z
 _atom_site_occupancy
  Co  Co0  1  0.66666700  0.33333300  0.66189300  1
  Co  Co1  1  0.00000000  0.00000000  0.00000000  1
  Co  Co2  1  0.33333300  0.66666700  0.33810700  1
  F  F0  1  0.32781500  0.06337100  0.82284600  1
  F  F1  1  0.67218500  0.73555600  0.17715400  1
  F  F2  1  0.73555600  0.67218500  0.82284600  1
  F  F3  1  0.38529500  0.38529500  0.50000000  1
  F  F4  1  0.26444400  0.93662900  0.17715400  1
  F  F5  1  0.00000000  0.61470500  0.50000000  1
  F  F6  1  0.93662900  0.26444400  0.82284600  1
  F  F7  1  0.61470500  0.00000000  0.50000000  1
  F  F8  1  0.06337100  0.32781500  0.17715400  1
loop_
_geom_bond_atom_site_label_1
_geom_bond_atom_site_label_2
_geom_bond_distance
_geom_bond_site_symmetry_2
Co0 F6 1.926667 1_555
Co0 F0 1.926670 1_555
Co0 F2 1.926672 1_555
Co0 F7 1.932108 1_555
Co0 F5 1.932109 1_655
Co0 F3 1.932112 1_555
Co1 F2 1.954508 1_444
Co1 F1 1.954508 1_445
Co1 F8 1.954508 1_555
Co1 F0 1.954508 1_554
Co1 F4 1.954508 1_545
Co1 F6 1.954508 1_454
Co2 F4 1.926667 1_555
Co2 F8 1.926670 1_555
Co2 F1 1.926672 1_555
Co2 F5 1.932108 1_555
Co2 F7 1.932109 1_565
Co2 F3 1.932112 1_555
