# generated using pymatgen
data_Li7Cu(SiO4)2
_symmetry_space_group_name_H-M   'P 1'
_cell_length_a   8.37676245
_cell_length_b   8.37676245
_cell_length_c   7.81158153
_cell_angle_alpha   89.39140350
_cell_angle_beta   89.39140350
_cell_angle_gamma   44.52708578
_symmetry_Int_Tables_number   1
_chemical_formula_structural   Li7Cu(SiO4)2
_chemical_formula_sum   'Li14 Cu2 Si4 O16'
_cell_volume   384.35575287
_cell_formula_units_Z   2
loop_
 _symmetry_equiv_pos_site_id
 _symmetry_equiv_pos_as_xyz
  1  'x, y, z'
loop_
 _atom_site_type_symbol
 _atom_site_label
 _atom_site_symmetry_multiplicity
 _atom_site_fract_x
 _atom_site_fract_y
 _atom_site_fract_z
 _atom_site_occupancy
  Li  Li0  1  0.34189800  0.82739800  0.62596100  1
  Li  Li1  1  0.82739800  0.34189800  0.62596100  1
  Li  Li2  1  0.07283300  0.07283300  0.29578400  1
  Li  Li3  1  0.64810400  0.64810400  0.85331500  1
  Li  Li4  1  0.93876700  0.43026900  0.15803300  1
  Li  Li5  1  0.43026900  0.93876700  0.15803300  1
  Li  Li6  1  0.06123300  0.56973100  0.84196700  1
  Li  Li7  1  0.56973100  0.06123300  0.84196700  1
  Li  Li8  1  0.35189600  0.35189600  0.14668500  1
  Li  Li9  1  0.92716700  0.92716700  0.70421600  1
  Li  Li10  1  0.65810200  0.17260200  0.37403900  1
  Li  Li11  1  0.17260200  0.65810200  0.37403900  1
  Li  Li12  1  0.00000000  0.00000000  0.00000000  1
  Li  Li13  1  0.50000000  0.50000000  0.00000000  1
  Cu  Cu0  1  0.26754700  0.26754700  0.59849200  1
  Cu  Cu1  1  0.73245300  0.73245300  0.40150800  1
  Si  Si0  1  0.57265200  0.57265200  0.28800900  1
  Si  Si1  1  0.14485000  0.14485000  0.85064200  1
  Si  Si2  1  0.85515000  0.85515000  0.14935800  1
  Si  Si3  1  0.42734800  0.42734800  0.71199100  1
  O  O0  1  0.53224200  0.53224200  0.73720100  1
  O  O1  1  0.04839300  0.04839300  0.76297600  1
  O  O2  1  0.39511400  0.82391400  0.38484800  1
  O  O3  1  0.82391400  0.39511400  0.38484800  1
  O  O4  1  0.61649300  0.61649300  0.09235600  1
  O  O5  1  0.13242100  0.13242100  0.06000900  1
  O  O6  1  0.40958200  0.98145100  0.77973800  1
  O  O7  1  0.98145100  0.40958200  0.77973800  1
  O  O8  1  0.01854900  0.59041800  0.22026200  1
  O  O9  1  0.59041800  0.01854900  0.22026200  1
  O  O10  1  0.86757900  0.86757900  0.93999100  1
  O  O11  1  0.38350700  0.38350700  0.90764400  1
  O  O12  1  0.60488600  0.17608600  0.61515200  1
  O  O13  1  0.17608600  0.60488600  0.61515200  1
  O  O14  1  0.95160700  0.95160700  0.23702400  1
  O  O15  1  0.46775800  0.46775800  0.26279900  1
loop_
_geom_bond_atom_site_label_1
_geom_bond_atom_site_label_2
_geom_bond_distance
_geom_bond_site_symmetry_2
Li0 O2 1.926610 1_555
Li0 O0 1.942480 1_555
Li0 O1 2.028287 1_565
Li0 O6 2.126115 1_555
Li1 O3 1.926610 1_555
Li1 O0 1.942480 1_555
Li1 O1 2.028287 1_655
Li1 O7 2.126115 1_555
Li2 O14 1.939903 1_445
Li2 O3 2.025547 1_455
Li2 O2 2.025547 1_545
Li2 O5 2.051010 1_555
Li3 O4 1.925090 1_556
Li3 O0 2.021665 1_555
Li3 O6 2.038382 1_555
Li3 O7 2.038382 1_555
Li4 O5 1.919941 1_655
Li4 O8 1.944674 1_655
Li4 O4 1.998101 1_555
Li4 O3 2.123263 1_555
Li5 O5 1.919941 1_565
Li5 O9 1.944674 1_565
Li5 O4 1.998101 1_555
Li5 O2 2.123263 1_555
Li6 O10 1.919941 1_455
Li6 O7 1.944674 1_455
Li6 O11 1.998101 1_555
Li6 O13 2.123263 1_555
Li7 O10 1.919941 1_545
Li7 O6 1.944674 1_545
Li7 O11 1.998101 1_555
Li7 O12 2.123263 1_555
Li8 O11 1.925090 1_554
Li8 O15 2.021665 1_555
Li8 O9 2.038382 1_555
Li8 O8 2.038382 1_555
Li9 O1 1.939903 1_665
Li9 O13 2.025547 1_655
Li9 O12 2.025547 1_565
Li9 O10 2.051010 1_555
Li10 O12 1.926610 1_555
Li10 O15 1.942480 1_555
Li10 O14 2.028287 1_545
Li10 O9 2.126115 1_555
Li11 O13 1.926610 1_555
Li11 O15 1.942480 1_555
Li11 O14 2.028287 1_455
Li11 O8 2.126115 1_555
Li12 O14 1.989787 1_445
Li12 O1 1.989787 1_554
Li12 O5 2.111203 1_555
Li12 O10 2.111203 1_444
Li13 O4 1.952603 1_555
Li13 O11 1.952603 1_554
Li13 O0 2.107283 1_554
Li13 O15 2.107283 1_555
Cu0 O6 2.249821 1_545
Cu0 O7 2.249821 1_455
Cu0 O13 2.346889 1_555
Cu0 O12 2.346889 1_555
Cu1 O9 2.249821 1_565
Cu1 O8 2.249821 1_655
Cu1 O3 2.346889 1_555
Cu1 O2 2.346889 1_555
O0 Si3 1.640458 1_555
O1 Si1 1.651988 1_555
O2 Si0 1.661563 1_555
O3 Si0 1.661563 1_555
O4 Si0 1.665556 1_555
O5 Si1 1.644603 1_554
O6 Si1 1.661355 1_565
O7 Si1 1.661355 1_655
O8 Si2 1.661355 1_455
O9 Si2 1.661355 1_545
O10 Si2 1.644603 1_556
O11 Si3 1.665556 1_555
O12 Si3 1.661563 1_555
O13 Si3 1.661563 1_555
O14 Si2 1.651988 1_555
O15 Si0 1.640458 1_555
