# generated using pymatgen
data_PaTe2Au
_symmetry_space_group_name_H-M   'P 1'
_cell_length_a   5.24057127
_cell_length_b   5.24047436
_cell_length_c   5.24029363
_cell_angle_alpha   60.01688823
_cell_angle_beta   60.01469998
_cell_angle_gamma   60.01112186
_symmetry_Int_Tables_number   1
_chemical_formula_structural   PaTe2Au
_chemical_formula_sum   'Pa1 Te2 Au1'
_cell_volume   101.79583315
_cell_formula_units_Z   1
loop_
 _symmetry_equiv_pos_site_id
 _symmetry_equiv_pos_as_xyz
  1  'x, y, z'
loop_
 _atom_site_type_symbol
 _atom_site_label
 _atom_site_symmetry_multiplicity
 _atom_site_fract_x
 _atom_site_fract_y
 _atom_site_fract_z
 _atom_site_occupancy
  Pa  Pa0  1  0.75000064  0.75000091  0.75000008  1
  Te  Te0  1  0.00007080  0.00006919  0.00005553  1
  Te  Te1  1  0.49992923  0.49993005  0.49994544  1
  Au  Au0  1  0.24999834  0.25000085  0.24999995  1
loop_
_geom_bond_atom_site_label_1
_geom_bond_atom_site_label_2
_geom_bond_distance
_geom_bond_site_symmetry_2
Pa0 Te1 3.209366 1_655
Pa0 Te0 3.209371 1_566
Pa0 Te1 3.209380 1_565
Pa0 Te0 3.209391 1_656
Pa0 Te0 3.209451 1_665
Pa0 Te1 3.209454 1_556
Pa0 Te0 3.209589 1_666
Pa0 Te1 3.209602 1_555
Au0 Te0 3.207919 1_555
Au0 Te1 3.207928 1_555
Au0 Te1 3.209921 1_554
Au0 Te0 3.209925 1_556
Au0 Te1 3.209967 1_455
Au0 Te0 3.209975 1_565
Au0 Te0 3.209981 1_655
Au0 Te1 3.209985 1_545
Au0 Pa0 3.705761 1_544
Au0 Pa0 3.705762 1_455
Au0 Pa0 3.705909 1_454
Au0 Pa0 3.705927 1_545
Au0 Pa0 3.706174 1_445
Au0 Pa0 3.706191 1_554
