# generated using pymatgen
data_Cs2Mn(PSe3)2
_symmetry_space_group_name_H-M   'P 1'
_cell_length_a   13.28770400
_cell_length_b   6.53897800
_cell_length_c   10.22183957
_cell_angle_alpha   53.51074523
_cell_angle_beta   90.00000000
_cell_angle_gamma   90.00000000
_symmetry_Int_Tables_number   1
_chemical_formula_structural   Cs2Mn(PSe3)2
_chemical_formula_sum   'Cs4 Mn2 P4 Se12'
_cell_volume   714.04874588
_cell_formula_units_Z   2
loop_
 _symmetry_equiv_pos_site_id
 _symmetry_equiv_pos_as_xyz
  1  'x, y, z'
loop_
 _atom_site_type_symbol
 _atom_site_label
 _atom_site_symmetry_multiplicity
 _atom_site_fract_x
 _atom_site_fract_y
 _atom_site_fract_z
 _atom_site_occupancy
  Cs  Cs0  1  0.67042400  0.22272300  0.52408500  1
  Cs  Cs1  1  0.17042400  0.77727700  0.97591500  1
  Cs  Cs2  1  0.32957600  0.77727700  0.47591500  1
  Cs  Cs3  1  0.82957600  0.22272300  0.02408500  1
  Mn  Mn0  1  0.00000000  0.50000000  0.50000000  1
  Mn  Mn1  1  0.50000000  0.50000000  0.00000000  1
  P  P0  1  0.03906600  0.16021800  0.38356600  1
  P  P1  1  0.53906600  0.83978200  0.11643400  1
  P  P2  1  0.96093400  0.83978200  0.61643400  1
  P  P3  1  0.46093400  0.16021800  0.88356600  1
  Se  Se0  1  0.16683900  0.27649100  0.46437500  1
  Se  Se1  1  0.66683900  0.72350900  0.03562500  1
  Se  Se2  1  0.83316100  0.72350900  0.53562500  1
  Se  Se3  1  0.33316100  0.27649100  0.96437500  1
  Se  Se4  1  0.92726400  0.47413900  0.25894400  1
  Se  Se5  1  0.42726400  0.52586100  0.24105600  1
  Se  Se6  1  0.07273600  0.52586100  0.74105600  1
  Se  Se7  1  0.57273600  0.47413900  0.75894400  1
  Se  Se8  1  0.07757400  0.98598800  0.26103600  1
  Se  Se9  1  0.57757400  0.01401200  0.23896400  1
  Se  Se10  1  0.92242600  0.01401200  0.73896400  1
  Se  Se11  1  0.42242600  0.98598800  0.76103600  1
loop_
_geom_bond_atom_site_label_1
_geom_bond_atom_site_label_2
_geom_bond_distance
_geom_bond_site_symmetry_2
Cs0 Se10 3.786082 1_555
Cs0 Se11 3.829180 1_545
Cs0 Se7 3.852925 1_555
Cs0 Se2 3.858484 1_545
Cs0 Se2 3.984031 1_555
Cs0 Se5 3.989755 1_555
Cs0 Se1 4.026069 1_555
Cs0 Se4 4.049212 1_555
Cs0 Se9 4.075472 1_555
Cs0 Se7 4.175244 1_545
Cs0 Se1 4.206976 1_546
Cs1 Se11 3.786082 1_555
Cs1 Se10 3.829180 1_465
Cs1 Se6 3.852925 1_555
Cs1 Se3 3.858484 1_565
Cs1 Se3 3.984031 1_555
Cs1 Se4 3.989755 1_456
Cs1 Se0 4.026069 1_556
Cs1 Se5 4.049212 1_556
Cs1 Se8 4.075472 1_556
Cs1 Se6 4.175244 1_565
Cs1 Se0 4.206976 1_565
Cs2 Se8 3.786082 1_555
Cs2 Se9 3.829180 1_565
Cs2 Se5 3.852925 1_555
Cs2 Se0 3.858484 1_565
Cs2 Se0 3.984031 1_555
Cs2 Se7 3.989755 1_555
Cs2 Se3 4.026069 1_555
Cs2 Se6 4.049212 1_555
Cs2 Se11 4.075472 1_555
Cs2 Se5 4.175244 1_565
Cs2 Se3 4.206976 1_564
Cs3 Se9 3.786082 1_555
Cs3 Se8 3.829180 1_645
Cs3 Se4 3.852925 1_555
Cs3 Se1 3.858484 1_545
Cs3 Se1 3.984031 1_555
Cs3 Se6 3.989755 1_654
Cs3 Se2 4.026069 1_554
Cs3 Se7 4.049212 1_554
Cs3 Se10 4.075472 1_554
Cs3 Se4 4.175244 1_545
Cs3 Se2 4.206976 1_545
Mn0 Se6 2.744040 1_555
Mn0 Se4 2.744040 1_455
Mn0 Se0 2.795768 1_555
Mn0 Se2 2.795768 1_455
Mn0 Se8 2.809928 1_555
Mn0 Se10 2.809928 1_455
Mn1 Se5 2.744040 1_555
Mn1 Se7 2.744040 1_554
Mn1 Se1 2.795768 1_555
Mn1 Se3 2.795768 1_554
Mn1 Se9 2.809928 1_555
Mn1 Se11 2.809928 1_554
P0 Se8 2.196730 1_545
P0 Se0 2.211304 1_555
P0 Se4 2.221121 1_455
P1 Se9 2.196730 1_565
P1 Se1 2.211304 1_555
P1 Se5 2.221121 1_555
P2 Se10 2.196730 1_565
P2 Se2 2.211304 1_555
P2 Se6 2.221121 1_655
P3 Se11 2.196730 1_545
P3 Se3 2.211304 1_555
P3 Se7 2.221121 1_555
