# generated using pymatgen
data_Li6MnV3(PO4)6
_symmetry_space_group_name_H-M   'P 1'
_cell_length_a   9.81421800
_cell_length_b   9.87398196
_cell_length_c   9.88939374
_cell_angle_alpha   86.23928978
_cell_angle_beta   87.52781429
_cell_angle_gamma   87.42075615
_symmetry_Int_Tables_number   1
_chemical_formula_structural   Li6MnV3(PO4)6
_chemical_formula_sum   'Li12 Mn2 V6 P12 O48'
_cell_volume   954.52693986
_cell_formula_units_Z   2
loop_
 _symmetry_equiv_pos_site_id
 _symmetry_equiv_pos_as_xyz
  1  'x, y, z'
loop_
 _atom_site_type_symbol
 _atom_site_label
 _atom_site_symmetry_multiplicity
 _atom_site_fract_x
 _atom_site_fract_y
 _atom_site_fract_z
 _atom_site_occupancy
  Li  Li0  1  0.95039800  0.00097100  0.01833100  1
  Li  Li1  1  0.26565800  0.94654500  0.85789700  1
  Li  Li2  1  0.92972000  0.86752600  0.26758000  1
  Li  Li3  1  0.44495800  0.77247700  0.35449400  1
  Li  Li4  1  0.14951800  0.72870700  0.05274700  1
  Li  Li5  1  0.22956100  0.63100600  0.57076900  1
  Li  Li6  1  0.63774800  0.55620500  0.23880100  1
  Li  Li7  1  0.48208500  0.50141400  0.54921100  1
  Li  Li8  1  0.76983600  0.35629100  0.45325000  1
  Li  Li9  1  0.53004800  0.22484900  0.66695600  1
  Li  Li10  1  0.83932500  0.26889400  0.96424500  1
  Li  Li11  1  0.05193500  0.14592000  0.73285700  1
  Mn  Mn0  1  0.47060300  0.24324600  0.02898200  1
  Mn  Mn1  1  0.24559400  0.02949400  0.46974800  1
  V  V0  1  0.74381000  0.96763200  0.52227200  1
  V  V1  1  0.75059400  0.74865600  0.74746200  1
  V  V2  1  0.53352400  0.74922800  0.96434200  1
  V  V3  1  0.97625100  0.53186500  0.75807900  1
  V  V4  1  0.03634400  0.46747600  0.25212000  1
  V  V5  1  0.25411500  0.25062100  0.24957700  1
  P  P0  1  0.33225000  0.94946400  0.14190500  1
  P  P1  1  0.04828400  0.85414900  0.66677000  1
  P  P2  1  0.44702200  0.82501300  0.64502800  1
  P  P3  1  0.85370600  0.67505900  0.04976600  1
  P  P4  1  0.83393500  0.64561300  0.45253200  1
  P  P5  1  0.35339400  0.55189300  0.17397900  1
  P  P6  1  0.65294000  0.44902800  0.82446700  1
  P  P7  1  0.17732700  0.35422800  0.55053800  1
  P  P8  1  0.15179000  0.32524000  0.95218300  1
  P  P9  1  0.55002200  0.17334000  0.34770600  1
  P  P10  1  0.95371800  0.14764000  0.32512700  1
  P  P11  1  0.67568400  0.04692600  0.84019100  1
  O  O0  1  0.38119400  0.96541500  0.59678400  1
  O  O1  1  0.09467400  0.94398400  0.77434900  1
  O  O2  1  0.67103300  0.88539700  0.87389300  1
  O  O3  1  0.88771300  0.87764300  0.66163000  1
  O  O4  1  0.30975200  0.91128900  0.29415500  1
  O  O5  1  0.11288500  0.89260900  0.52404500  1
  O  O6  1  0.21814700  0.90939100  0.05278500  1
  O  O7  1  0.47130800  0.88556900  0.09475700  1
  O  O8  1  0.60726800  0.82856800  0.61875800  1
  O  O9  1  0.41029000  0.80921100  0.79956300  1
  O  O10  1  0.80687800  0.80105700  0.41676800  1
  O  O11  1  0.93718900  0.79219200  0.09252600  1
  O  O12  1  0.87995400  0.67280400  0.89014900  1
  O  O13  1  0.40270700  0.71189200  0.55988600  1
  O  O14  1  0.08491300  0.69979600  0.69432600  1
  O  O15  1  0.69813300  0.68636100  0.08697000  1
  O  O16  1  0.83698900  0.62116700  0.61361600  1
  O  O17  1  0.62111600  0.60941200  0.83032200  1
  O  O18  1  0.97388600  0.60708100  0.38769300  1
  O  O19  1  0.39254700  0.62177700  0.03360200  1
  O  O20  1  0.44282400  0.59882700  0.28350900  1
  O  O21  1  0.72139200  0.55706600  0.40875300  1
  O  O22  1  0.19722900  0.58795300  0.19728800  1
  O  O23  1  0.90782500  0.53752600  0.11420100  1
  O  O24  1  0.10509600  0.46988400  0.89373600  1
  O  O25  1  0.81101000  0.42071000  0.81745900  1
  O  O26  1  0.58513600  0.40452600  0.70083200  1
  O  O27  1  0.29494300  0.43983500  0.58462500  1
  O  O28  1  0.60675900  0.37778100  0.96253700  1
  O  O29  1  0.03936000  0.40460300  0.61479200  1
  O  O30  1  0.37742400  0.39425000  0.17149900  1
  O  O31  1  0.16748300  0.37523700  0.38793200  1
  O  O32  1  0.91940300  0.30436600  0.31029600  1
  O  O33  1  0.30498800  0.30142700  0.91719000  1
  O  O34  1  0.59693900  0.28150000  0.43665600  1
  O  O35  1  0.12321100  0.32742500  0.11305800  1
  O  O36  1  0.05890600  0.21752800  0.90692600  1
  O  O37  1  0.58314300  0.19979500  0.19455000  1
  O  O38  1  0.19355900  0.20047800  0.59094800  1
  O  O39  1  0.38782500  0.16804300  0.37892200  1
  O  O40  1  0.53679400  0.11428800  0.87906400  1
  O  O41  1  0.79800400  0.09226500  0.91208800  1
  O  O42  1  0.88567500  0.10000900  0.46175600  1
  O  O43  1  0.68871500  0.07633100  0.68280100  1
  O  O44  1  0.11622100  0.12093500  0.33730300  1
  O  O45  1  0.91695700  0.06649100  0.20765100  1
  O  O46  1  0.33791300  0.11272300  0.12088500  1
  O  O47  1  0.60825200  0.02896500  0.39299100  1
loop_
_geom_bond_atom_site_label_1
_geom_bond_atom_site_label_2
_geom_bond_distance
_geom_bond_site_symmetry_2
Li0 O41 2.010820 1_554
Li0 O45 2.029379 1_555
Li0 O11 2.149956 1_545
Li0 O36 2.591293 1_654
Li1 O1 1.904052 1_555
Li1 O6 1.977802 1_556
Li1 O9 2.011269 1_555
Li2 O11 1.925805 1_555
Li2 O10 1.962575 1_555
Li2 O45 2.014453 1_565
Li3 O20 1.896193 1_555
Li3 O4 1.947509 1_555
Li3 O13 2.108520 1_555
Li4 O6 1.935155 1_555
Li4 O22 1.983084 1_555
Li4 O11 2.175813 1_455
Li5 O13 1.905818 1_555
Li5 O14 1.960136 1_555
Li5 O27 1.964247 1_555
Li6 O21 1.902710 1_555
Li6 O20 1.977688 1_555
Li6 O15 1.999010 1_555
Li7 O27 1.970465 1_555
Li7 O26 2.010465 1_555
Li7 O13 2.193890 1_555
Li8 O34 1.898496 1_555
Li8 O21 2.041708 1_555
Li8 O32 2.065067 1_555
Li9 O26 1.931833 1_555
Li9 O43 2.094111 1_555
Li9 O40 2.302441 1_555
Li9 O34 2.380744 1_555
Li10 O41 1.916210 1_555
Li10 O25 2.035530 1_555
Li10 O36 2.248691 1_655
Li10 O28 2.479093 1_555
Li11 O36 1.908437 1_555
Li11 O38 1.997889 1_555
Li11 O1 2.037706 1_545
Mn0 O28 1.987845 1_554
Mn0 O46 2.019440 1_555
Mn0 O37 2.026366 1_555
Mn0 O33 2.044947 1_554
Mn0 O40 2.081243 1_554
Mn0 O30 2.255564 1_555
Mn1 O0 1.927140 1_545
Mn1 O5 1.953046 1_545
Mn1 O44 2.007004 1_555
Mn1 O39 2.128217 1_555
Mn1 O38 2.163979 1_555
Mn1 O4 2.208978 1_545
O0 P2 1.557603 1_555
O1 P1 1.525744 1_555
O2 P11 1.610121 1_565
O2 V1 2.009560 1_555
O2 V2 2.080995 1_555
O3 P1 1.585009 1_655
O3 V1 2.016792 1_555
O3 V0 2.139573 1_555
O4 P0 1.536948 1_555
O5 P1 1.553243 1_555
O6 P0 1.535617 1_555
O7 P0 1.544074 1_555
O7 V2 1.983532 1_554
O8 P2 1.584488 1_555
O8 V1 2.035697 1_555
O8 V0 2.115441 1_555
O9 P2 1.554390 1_555
O9 V2 2.109021 1_555
O10 P4 1.565753 1_555
O10 V0 2.062703 1_555
O11 P3 1.538535 1_555
O12 P3 1.589837 1_556
O12 V1 2.023424 1_555
O12 V3 2.132899 1_555
O13 P2 1.531141 1_555
O14 P1 1.559156 1_555
O14 V3 2.061127 1_455
O15 P3 1.555832 1_555
O15 V2 2.108527 1_554
O16 P4 1.596844 1_555
O16 V1 2.020230 1_555
O16 V3 2.140394 1_555
O17 P6 1.604598 1_555
O17 V1 2.023900 1_555
O17 V2 2.106283 1_555
O18 P4 1.533439 1_555
O18 V4 2.041800 1_655
O19 P5 1.550226 1_555
O19 V2 1.982173 1_554
O20 P5 1.530640 1_555
O21 P4 1.532859 1_555
O22 P5 1.568459 1_555
O22 V4 2.052522 1_555
O23 P3 1.543724 1_555
O23 V4 1.968700 1_655
O24 P8 1.561903 1_555
O24 V3 1.934510 1_455
O25 P6 1.563281 1_555
O25 V3 2.042763 1_555
O26 P6 1.515855 1_555
O27 P7 1.522935 1_555
O28 P6 1.553710 1_555
O29 P7 1.546358 1_555
O29 V3 2.014542 1_455
O30 P5 1.565433 1_555
O30 V5 2.000554 1_555
O31 P7 1.614345 1_555
O31 V5 2.033553 1_555
O31 V4 2.042794 1_555
O32 P10 1.567577 1_555
O32 V4 2.056668 1_655
O33 P8 1.539344 1_555
O34 P9 1.526047 1_555
O35 P8 1.604911 1_554
O35 V5 1.993990 1_555
O35 V4 2.138368 1_555
O36 P8 1.532099 1_555
O37 P9 1.543126 1_555
O38 P7 1.547232 1_555
O39 P9 1.610888 1_555
O39 V5 1.983622 1_555
O40 P11 1.534586 1_555
O41 P11 1.520152 1_555
O42 P10 1.536190 1_555
O42 V0 1.998604 1_545
O43 P11 1.565314 1_555
O43 V0 2.015396 1_545
O44 P10 1.613101 1_455
O44 V5 2.032932 1_555
O45 P10 1.518610 1_555
O46 P0 1.614932 1_545
O46 V5 2.046043 1_555
O47 P9 1.557039 1_555
O47 V0 1.934929 1_545
