# generated using pymatgen
data_Sc3RuC4
_symmetry_space_group_name_H-M   'P 1'
_cell_length_a   3.32094711
_cell_length_b   4.49582407
_cell_length_c   6.79831911
_cell_angle_alpha   109.30865287
_cell_angle_beta   104.13737455
_cell_angle_gamma   90.00000290
_symmetry_Int_Tables_number   1
_chemical_formula_structural   Sc3RuC4
_chemical_formula_sum   'Sc3 Ru1 C4'
_cell_volume   92.52853829
_cell_formula_units_Z   1
loop_
 _symmetry_equiv_pos_site_id
 _symmetry_equiv_pos_as_xyz
  1  'x, y, z'
loop_
 _atom_site_type_symbol
 _atom_site_label
 _atom_site_symmetry_multiplicity
 _atom_site_fract_x
 _atom_site_fract_y
 _atom_site_fract_z
 _atom_site_occupancy
  Sc  Sc0  1  0.81047109  0.81047109  0.62094118  1
  Sc  Sc1  1  0.18952891  0.18952891  0.37905882  1
  Sc  Sc2  1  -0.00000000  0.50000000  -0.00000000  1
  Ru  Ru0  1  0.50000000  -0.00000000  -0.00000000  1
  C  C0  1  0.62931727  0.78806408  0.25863355  1
  C  C1  1  0.37068273  0.21193592  0.74136645  1
  C  C2  1  0.37068273  0.52942953  0.74136645  1
  C  C3  1  0.62931727  0.47057047  0.25863355  1
loop_
_geom_bond_atom_site_label_1
_geom_bond_atom_site_label_2
_geom_bond_distance
_geom_bond_site_symmetry_2
Ru0 Sc2 2.794688 1_545
Ru0 Sc2 2.794688 1_655
Ru0 Sc2 2.794688 1_645
Ru0 Sc2 2.794688 1_555
C0 C3 1.427395 1_555
C0 Ru0 2.218759 1_565
C0 Sc0 2.356037 1_555
C0 Sc1 2.380745 1_665
C0 Sc1 2.380750 1_565
C0 Sc2 2.415703 1_655
C0 Sc2 2.415705 1_555
C1 C2 1.427395 1_555
C1 Ru0 2.218759 1_556
C1 Sc1 2.356037 1_555
C1 Sc0 2.380745 1_445
C1 Sc0 2.380750 1_545
C1 Sc2 2.415703 1_556
C1 Sc2 2.415705 1_656
C2 Ru0 2.218762 1_566
C2 Sc1 2.356037 1_555
C2 Sc0 2.380751 1_455
C2 Sc0 2.380755 1_555
C2 Sc2 2.415701 1_556
C2 Sc2 2.415704 1_656
C3 Ru0 2.218762 1_555
C3 Sc0 2.356037 1_555
C3 Sc1 2.380751 1_655
C3 Sc1 2.380755 1_555
C3 Sc2 2.415701 1_655
C3 Sc2 2.415704 1_555
