# generated using pymatgen
data_CsSi
_symmetry_space_group_name_H-M   'P 1'
_cell_length_a   12.31712188
_cell_length_b   12.31710572
_cell_length_c   12.31713297
_cell_angle_alpha   124.76082201
_cell_angle_beta   124.76068096
_cell_angle_gamma   81.93468385
_symmetry_Int_Tables_number   1
_chemical_formula_structural   CsSi
_chemical_formula_sum   'Cs16 Si16'
_cell_volume   1213.02135539
_cell_formula_units_Z   16
loop_
 _symmetry_equiv_pos_site_id
 _symmetry_equiv_pos_as_xyz
  1  'x, y, z'
loop_
 _atom_site_type_symbol
 _atom_site_label
 _atom_site_symmetry_multiplicity
 _atom_site_fract_x
 _atom_site_fract_y
 _atom_site_fract_z
 _atom_site_occupancy
  Cs  Cs0  1  0.39098039  0.74999834  0.14098071  1
  Cs  Cs1  1  0.10901544  0.25000258  0.35901231  1
  Cs  Cs2  1  0.75000129  0.10901696  0.35901721  1
  Cs  Cs3  1  0.24999750  0.39098567  0.14098526  1
  Cs  Cs4  1  0.75000198  0.60901340  0.85901184  1
  Cs  Cs5  1  0.24999775  0.89098293  0.64098184  1
  Cs  Cs6  1  0.89098786  0.75000101  0.64098956  1
  Cs  Cs7  1  0.60901685  0.25000055  0.85901684  1
  Cs  Cs8  1  0.49537767  0.24538090  0.49076238  1
  Cs  Cs9  1  0.25461237  0.00461762  0.00923495  1
  Cs  Cs10  1  0.00462100  0.49538492  0.75000077  1
  Cs  Cs11  1  0.24538556  0.25462048  0.75000303  1
  Cs  Cs12  1  0.50461809  0.75461821  0.50923386  1
  Cs  Cs13  1  0.74538553  0.99538607  0.99076336  1
  Cs  Cs14  1  0.99538113  0.50461569  0.25000088  1
  Cs  Cs15  1  0.75461569  0.74537874  0.25000087  1
  Si  Si0  1  0.58115181  0.47706476  0.21661387  1
  Si  Si1  1  0.76045125  0.36453983  0.28338802  1
  Si  Si2  1  0.91885102  0.13546607  0.89591768  1
  Si  Si3  1  0.73955204  0.02293592  0.60409026  1
  Si  Si4  1  0.02293707  0.91884902  0.28338433  1
  Si  Si5  1  0.13546420  0.73955118  0.21661238  1
  Si  Si6  1  0.36453207  0.58114826  0.60408295  1
  Si  Si7  1  0.47706177  0.76044736  0.89591014  1
  Si  Si8  1  0.41884565  0.52293464  0.78338318  1
  Si  Si9  1  0.23954680  0.63546031  0.71660900  1
  Si  Si10  1  0.08115240  0.86453577  0.10408574  1
  Si  Si11  1  0.26045064  0.97706614  0.39591338  1
  Si  Si12  1  0.97706442  0.08115145  0.71661667  1
  Si  Si13  1  0.86453891  0.26045084  0.78339061  1
  Si  Si14  1  0.63546629  0.41885158  0.39591469  1
  Si  Si15  1  0.52293657  0.23955180  0.10408739  1
loop_
_geom_bond_atom_site_label_1
_geom_bond_atom_site_label_2
_geom_bond_distance
_geom_bond_site_symmetry_2
Cs0 Si10 3.742045 1_555
Cs0 Si9 3.742114 1_554
Cs0 Si5 3.792480 1_555
Cs0 Si7 3.792536 1_554
Cs0 Si11 3.840254 1_555
Cs0 Si8 3.840255 1_554
Cs0 Si0 4.065610 1_555
Cs0 Si3 4.065665 1_565
Cs1 Si8 3.742073 1_555
Cs1 Si11 3.742116 1_545
Cs1 Si6 3.792452 1_555
Cs1 Si4 3.792564 1_545
Cs1 Si9 3.840209 1_555
Cs1 Si10 3.840290 1_545
Cs1 Si2 4.065530 1_454
Cs1 Si1 4.065601 1_455
Cs2 Si14 3.742096 1_555
Cs2 Si13 3.742132 1_555
Cs2 Si1 3.792545 1_555
Cs2 Si3 3.792564 1_555
Cs2 Si15 3.840279 1_555
Cs2 Si12 3.840283 1_555
Cs2 Si4 4.065619 1_645
Cs2 Si7 4.065645 1_544
Cs3 Si12 3.742083 1_454
Cs3 Si15 3.742129 1_555
Cs3 Si2 3.792493 1_454
Cs3 Si0 3.792578 1_555
Cs3 Si13 3.840220 1_454
Cs3 Si14 3.840317 1_555
Cs3 Si6 4.065573 1_555
Cs3 Si5 4.065586 1_555
Cs4 Si4 3.742110 1_656
Cs4 Si7 3.742143 1_555
Cs4 Si10 3.792524 1_656
Cs4 Si8 3.792601 1_555
Cs4 Si5 3.840261 1_656
Cs4 Si6 3.840329 1_555
Cs4 Si14 4.065564 1_555
Cs4 Si13 4.065581 1_555
Cs5 Si6 3.742090 1_555
Cs5 Si5 3.742113 1_555
Cs5 Si9 3.792527 1_555
Cs5 Si11 3.792553 1_555
Cs5 Si4 3.840267 1_555
Cs5 Si7 3.840272 1_555
Cs5 Si12 4.065604 1_465
Cs5 Si15 4.065634 1_566
Cs6 Si3 3.742094 1_565
Cs6 Si0 3.742129 1_555
Cs6 Si14 3.792503 1_555
Cs6 Si12 3.792526 1_565
Cs6 Si1 3.840245 1_555
Cs6 Si2 3.840274 1_565
Cs6 Si10 4.065555 1_656
Cs6 Si9 4.065568 1_655
Cs7 Si2 3.742085 1_555
Cs7 Si1 3.742100 1_556
Cs7 Si13 3.792512 1_555
Cs7 Si15 3.792524 1_556
Cs7 Si0 3.840249 1_556
Cs7 Si3 3.840250 1_555
Cs7 Si11 4.065608 1_545
Cs7 Si8 4.065617 1_555
Cs8 Si8 3.806037 1_555
Cs8 Si13 3.806125 1_555
Cs8 Si11 3.884065 1_545
Cs8 Si14 3.884191 1_555
Cs8 Si6 3.970121 1_555
Cs8 Si3 3.970184 1_555
Cs9 Si12 3.806020 1_454
Cs9 Si9 3.806091 1_544
Cs9 Si10 3.884064 1_545
Cs9 Si15 3.884192 1_555
Cs9 Si2 3.970087 1_454
Cs9 Si7 3.970188 1_544
Cs10 Si10 3.806019 1_556
Cs10 Si14 3.806057 1_455
Cs10 Si9 3.884074 1_555
Cs10 Si13 3.884192 1_455
Cs10 Si5 3.970125 1_556
Cs10 Si1 3.970133 1_455
Cs11 Si15 3.806039 1_556
Cs11 Si11 3.806058 1_545
Cs11 Si8 3.884080 1_555
Cs11 Si12 3.884171 1_455
Cs11 Si0 3.970115 1_556
Cs11 Si4 3.970174 1_545
Cs12 Si0 3.806044 1_555
Cs12 Si5 3.806057 1_555
Cs12 Si3 3.884097 1_565
Cs12 Si6 3.884177 1_555
Cs12 Si14 3.970129 1_555
Cs12 Si11 3.970145 1_555
Cs13 Si1 3.806058 1_566
Cs13 Si4 3.806079 1_656
Cs13 Si2 3.884047 1_565
Cs13 Si7 3.884220 1_555
Cs13 Si10 3.970150 1_656
Cs13 Si15 3.970155 1_566
Cs14 Si2 3.806007 1_554
Cs14 Si6 3.806017 1_655
Cs14 Si1 3.884076 1_555
Cs14 Si5 3.884201 1_655
Cs14 Si9 3.970091 1_655
Cs14 Si13 3.970116 1_554
Cs15 Si3 3.806054 1_565
Cs15 Si7 3.806100 1_554
Cs15 Si0 3.884048 1_555
Cs15 Si4 3.884208 1_655
Cs15 Si12 3.970163 1_565
Cs15 Si8 3.970168 1_554
Si0 Si15 2.413566 1_555
Si0 Si14 2.413578 1_555
Si0 Si1 2.417521 1_555
Si1 Si14 2.413554 1_555
Si1 Si15 2.413588 1_555
Si2 Si3 2.417539 1_555
Si4 Si5 2.417519 1_555
Si6 Si9 2.413551 1_555
Si6 Si8 2.413578 1_555
Si6 Si7 2.417535 1_555
Si7 Si8 2.413563 1_555
Si7 Si9 2.413587 1_555
Si8 Si9 2.417523 1_555
Si10 Si5 2.413550 1_555
Si10 Si4 2.413575 1_555
Si10 Si11 2.417539 1_555
Si11 Si4 2.413573 1_555
Si11 Si5 2.413580 1_555
Si12 Si3 2.413566 1_555
Si12 Si2 2.413580 1_555
Si12 Si13 2.417522 1_555
Si13 Si2 2.413556 1_555
Si13 Si3 2.413582 1_555
Si14 Si15 2.417537 1_555
