# generated using pymatgen
data_Hf2N2O
_symmetry_space_group_name_H-M   'P 1'
_cell_length_a   8.70498100
_cell_length_b   8.72064336
_cell_length_c   8.75062947
_cell_angle_alpha   109.60956695
_cell_angle_beta   109.34002743
_cell_angle_gamma   109.25589084
_symmetry_Int_Tables_number   1
_chemical_formula_structural   Hf2N2O
_chemical_formula_sum   'Hf16 N16 O8'
_cell_volume   512.67383104
_cell_formula_units_Z   8
loop_
 _symmetry_equiv_pos_site_id
 _symmetry_equiv_pos_as_xyz
  1  'x, y, z'
loop_
 _atom_site_type_symbol
 _atom_site_label
 _atom_site_symmetry_multiplicity
 _atom_site_fract_x
 _atom_site_fract_y
 _atom_site_fract_z
 _atom_site_occupancy
  Hf  Hf0  1  0.50186600  0.49061500  0.49923600  1
  Hf  Hf1  1  0.28562800  0.82939500  0.46349600  1
  Hf  Hf2  1  0.97304500  0.22221600  0.24928700  1
  Hf  Hf3  1  0.44610700  0.69566800  0.25838300  1
  Hf  Hf4  1  0.22360800  0.17961100  0.03532100  1
  Hf  Hf5  1  0.33587300  0.55954400  0.70626300  1
  Hf  Hf6  1  0.02575600  0.02219300  0.48721100  1
  Hf  Hf7  1  0.00228100  0.51509200  0.99417800  1
  Hf  Hf8  1  0.47811200  0.98647100  0.01187600  1
  Hf  Hf9  1  0.68153300  0.45526300  0.28545000  1
  Hf  Hf10  1  0.31233100  0.03431900  0.21585100  1
  Hf  Hf11  1  0.68072600  0.96343800  0.78527200  1
  Hf  Hf12  1  0.77600500  0.81230200  0.96596000  1
  Hf  Hf13  1  0.53653800  0.28179100  0.74954500  1
  Hf  Hf14  1  0.03679900  0.78818300  0.74909600  1
  Hf  Hf15  1  0.71421600  0.17797300  0.53671900  1
  N  N0  1  0.99501600  0.96710000  0.27180600  1
  N  N1  1  0.78129300  0.30689500  0.22980700  1
  N  N2  1  0.01770800  0.78534500  0.47025400  1
  N  N3  1  0.19196300  0.69966700  0.26825700  1
  N  N4  1  0.42146200  0.68382500  0.04357700  1
  N  N5  1  0.00781200  0.04368500  0.72437500  1
  N  N6  1  0.51562600  0.50648800  0.22587900  1
  N  N7  1  0.81298400  0.04898700  0.45714000  1
  N  N8  1  0.97979300  0.20502900  0.53433400  1
  N  N9  1  0.20946600  0.67207400  0.77807400  1
  N  N10  1  0.74442100  0.51746100  0.01577600  1
  N  N11  1  0.45813100  0.00686100  0.76681900  1
  N  N12  1  0.19586500  0.92686100  0.03167500  1
  N  N13  1  0.58063200  0.32150100  0.95175700  1
  N  N14  1  0.17966600  0.93782800  0.54686500  1
  N  N15  1  0.56484800  0.29299900  0.48450900  1
  O  O0  1  0.30443800  0.26297300  0.73380000  1
  O  O1  1  0.69350900  0.74714200  0.26740000  1
  O  O2  1  0.82324800  0.30845500  0.72585700  1
  O  O3  1  0.41644700  0.69273200  0.52558000  1
  O  O4  1  0.54252100  0.98858800  0.23611600  1
  O  O5  1  0.47219300  0.49106800  0.77885100  1
  O  O6  1  0.26616800  0.48829700  0.97789700  1
  O  O7  1  0.81437200  0.08406600  0.96045000  1
loop_
_geom_bond_atom_site_label_1
_geom_bond_atom_site_label_2
_geom_bond_distance
_geom_bond_site_symmetry_2
Hf0 N15 1.951411 1_555
Hf0 O3 2.101907 1_555
Hf0 N6 2.481226 1_555
Hf0 O5 2.542912 1_555
Hf1 N3 1.426579 1_555
Hf1 N14 1.683795 1_555
Hf1 O3 1.983004 1_555
Hf1 N11 2.182927 1_565
Hf1 N2 2.259663 1_555
Hf2 N1 2.017334 1_555
Hf2 O7 2.072145 1_554
Hf2 N0 2.361142 1_545
Hf2 N8 2.531274 1_555
Hf3 N4 1.782667 1_555
Hf3 N6 1.904315 1_555
Hf3 O1 2.017891 1_555
Hf3 O6 2.086634 1_554
Hf3 N3 2.253555 1_555
Hf3 O3 2.443337 1_555
Hf3 O4 2.509167 1_555
Hf4 N12 2.124661 1_545
Hf4 N5 2.306181 1_554
Hf4 N6 2.567230 1_555
Hf4 O6 2.830151 1_554
Hf5 O5 1.546276 1_555
Hf5 N9 1.823462 1_555
Hf5 O3 2.402223 1_555
Hf6 N0 1.681860 1_445
Hf6 N8 1.720793 1_455
Hf6 N14 1.747423 1_545
Hf6 N7 1.886346 1_455
Hf6 N2 1.996255 1_545
Hf6 N5 2.083142 1_555
Hf6 O0 2.254343 1_555
Hf6 O1 2.541817 1_445
Hf7 O2 2.018182 1_455
Hf7 N3 2.025396 1_556
Hf7 N10 2.320265 1_456
Hf7 O6 2.429027 1_555
Hf8 O4 1.845330 1_555
Hf8 N11 2.165555 1_564
Hf8 N9 2.451256 1_554
Hf8 N1 2.575973 1_565
Hf9 N6 1.624881 1_555
Hf9 N1 1.806545 1_555
Hf9 N2 2.765824 1_655
Hf9 N10 2.771567 1_555
Hf9 N15 2.818972 1_555
Hf10 N12 1.334481 1_545
Hf10 O4 2.131877 1_545
Hf10 N15 2.279136 1_555
Hf10 N0 2.869448 1_445
Hf11 O7 1.318754 1_565
Hf11 N11 2.059579 1_565
Hf11 O3 2.320338 1_555
Hf11 N5 2.970139 1_665
Hf12 N0 2.262239 1_556
Hf12 O7 2.301273 1_565
Hf12 O5 2.586389 1_555
Hf12 N10 2.691124 1_556
Hf13 N13 1.565084 1_555
Hf13 O0 1.926081 1_555
Hf13 N10 2.113488 1_556
Hf13 N11 2.338648 1_555
Hf13 N15 2.442120 1_555
Hf14 N12 2.028486 1_556
Hf14 N9 2.066993 1_555
Hf14 N2 2.381220 1_555
Hf14 N5 2.394429 1_565
Hf15 O2 1.384919 1_555
Hf15 N7 1.731496 1_555
Hf15 N15 1.918332 1_555
Hf15 O4 2.175473 1_545
N4 O6 1.540285 1_554
N6 O1 1.976422 1_555
N7 N8 1.358891 1_555
N10 N13 1.577444 1_554
N14 N2 1.320760 1_555
