# generated using pymatgen
data_Rb2CoS2
_symmetry_space_group_name_H-M   'P 1'
_cell_length_a   8.10093840
_cell_length_b   8.10093840
_cell_length_c   8.10093840
_cell_angle_alpha   135.81388635
_cell_angle_beta   128.35116834
_cell_angle_gamma   70.27176385
_symmetry_Int_Tables_number   1
_chemical_formula_structural   Rb2CoS2
_chemical_formula_sum   'Rb4 Co2 S4'
_cell_volume   284.92279871
_cell_formula_units_Z   2
loop_
 _symmetry_equiv_pos_site_id
 _symmetry_equiv_pos_as_xyz
  1  'x, y, z'
loop_
 _atom_site_type_symbol
 _atom_site_label
 _atom_site_symmetry_multiplicity
 _atom_site_fract_x
 _atom_site_fract_y
 _atom_site_fract_z
 _atom_site_occupancy
  Rb  Rb0  1  0.68766000  0.35301500  0.33464500  1
  Rb  Rb1  1  0.01836900  0.85301500  0.16535500  1
  Rb  Rb2  1  0.31234000  0.64698500  0.66535500  1
  Rb  Rb3  1  0.98163100  0.14698500  0.83464500  1
  Co  Co0  1  0.50000000  0.25000000  0.75000000  1
  Co  Co1  1  0.50000000  0.75000000  0.25000000  1
  S  S0  1  0.23270900  0.40507600  0.82763300  1
  S  S1  1  0.57744300  0.90507600  0.67236700  1
  S  S2  1  0.76729100  0.59492400  0.17236700  1
  S  S3  1  0.42255700  0.09492400  0.32763300  1
loop_
_geom_bond_atom_site_label_1
_geom_bond_atom_site_label_2
_geom_bond_distance
_geom_bond_site_symmetry_2
Rb0 S1 3.327301 1_544
Rb0 S1 3.327301 1_555
Rb0 S2 3.403711 1_555
Rb0 S3 3.419993 1_555
Rb0 S0 3.547116 1_655
Rb0 S0 3.644256 1_554
Rb1 S0 3.327301 1_565
Rb1 S0 3.327307 1_554
Rb1 S3 3.403718 1_565
Rb1 S2 3.419986 1_455
Rb1 S1 3.547114 1_454
Rb1 S1 3.644260 1_555
Rb2 S3 3.327301 1_555
Rb2 S3 3.327301 1_566
Rb2 S0 3.403711 1_555
Rb2 S1 3.419993 1_555
Rb2 S2 3.547116 1_455
Rb2 S2 3.644256 1_556
Rb3 S2 3.327301 1_545
Rb3 S2 3.327307 1_556
Rb3 S1 3.403718 1_545
Rb3 S0 3.419986 1_655
Rb3 S3 3.547114 1_656
Rb3 S3 3.644260 1_555
Co0 S3 2.320050 1_555
Co0 S1 2.320050 1_545
Co0 S2 2.320050 1_556
Co0 S0 2.320050 1_555
Co0 Rb2 3.419352 1_555
Co0 Rb0 3.419352 1_556
Co0 Rb1 3.419357 1_545
Co0 Rb3 3.419360 1_555
Co1 S1 2.320050 1_555
Co1 S2 2.320050 1_555
Co1 S0 2.320050 1_554
Co1 S3 2.320050 1_565
Co1 Rb2 3.419352 1_554
Co1 Rb0 3.419352 1_555
Co1 Rb3 3.419357 1_565
Co1 Rb1 3.419360 1_555
