# generated using pymatgen
data_Li4Mn2Co3Sn3O16
_symmetry_space_group_name_H-M   'P 1'
_cell_length_a   5.99158427
_cell_length_b   6.02682461
_cell_length_c   9.52580442
_cell_angle_alpha   89.45599843
_cell_angle_beta   89.21738800
_cell_angle_gamma   120.39236255
_symmetry_Int_Tables_number   1
_chemical_formula_structural   Li4Mn2Co3Sn3O16
_chemical_formula_sum   'Li4 Mn2 Co3 Sn3 O16'
_cell_volume   296.62841289
_cell_formula_units_Z   1
loop_
 _symmetry_equiv_pos_site_id
 _symmetry_equiv_pos_as_xyz
  1  'x, y, z'
loop_
 _atom_site_type_symbol
 _atom_site_label
 _atom_site_symmetry_multiplicity
 _atom_site_fract_x
 _atom_site_fract_y
 _atom_site_fract_z
 _atom_site_occupancy
  Li  Li0  1  0.35226700  0.67460200  0.88891300  1
  Li  Li1  1  0.95725300  0.98221600  0.99100100  1
  Li  Li2  1  0.96937800  0.98859500  0.50250900  1
  Li  Li3  1  0.67273500  0.33429700  0.40249100  1
  Mn  Mn0  1  0.34108300  0.66979500  0.49636600  1
  Mn  Mn1  1  0.68064100  0.34044300  0.97885800  1
  Co  Co0  1  0.65773800  0.82586700  0.21246400  1
  Co  Co1  1  0.83275400  0.66451600  0.71543000  1
  Co  Co2  1  0.83483000  0.17637000  0.71512800  1
  Sn  Sn0  1  0.16733500  0.82720500  0.21273000  1
  Sn  Sn1  1  0.16993500  0.33653300  0.21226100  1
  Sn  Sn2  1  0.33968100  0.16935900  0.71243600  1
  O  O0  1  0.15300900  0.83128500  0.59561800  1
  O  O1  1  0.03389200  0.51176000  0.34859500  1
  O  O2  1  0.35611000  0.67913500  0.09786300  1
  O  O3  1  0.97337900  0.98261900  0.31321200  1
  O  O4  1  0.97924400  0.99184100  0.80667300  1
  O  O5  1  0.15998600  0.33585200  0.59586400  1
  O  O6  1  0.49182100  0.95278800  0.34393000  1
  O  O7  1  0.49517800  0.52614700  0.33811400  1
  O  O8  1  0.32920100  0.16316300  0.08568000  1
  O  O9  1  0.66362300  0.83483300  0.61149800  1
  O  O10  1  0.53951200  0.48950900  0.84717300  1
  O  O11  1  0.54249900  0.04973800  0.84638400  1
  O  O12  1  0.69412500  0.35106600  0.61123700  1
  O  O13  1  0.82585100  0.66488900  0.09457400  1
  O  O14  1  0.96043000  0.48221500  0.83521300  1
  O  O15  1  0.82651100  0.16366100  0.09562500  1
loop_
_geom_bond_atom_site_label_1
_geom_bond_atom_site_label_2
_geom_bond_distance
_geom_bond_site_symmetry_2
Li0 O10 1.980828 1_555
Li0 O11 1.984283 1_565
Li0 O2 1.991151 1_556
Li0 O14 2.099423 1_455
Li1 O4 1.757221 1_555
Li1 O15 1.915428 1_566
Li1 O13 1.915788 1_556
Li1 O8 2.140944 1_666
Li2 O3 1.803982 1_555
Li2 O9 1.872089 1_555
Li2 O0 1.990527 1_655
Li2 O5 2.029727 1_665
Li3 O1 1.925466 1_655
Li3 O12 1.994577 1_555
Li3 O7 2.023297 1_555
Li3 O6 2.071694 1_545
Mn0 O5 1.962734 1_555
Mn0 O9 2.015059 1_555
Mn0 O6 2.047351 1_555
Mn0 O0 2.051598 1_555
Mn0 O1 2.144460 1_555
Mn0 O7 2.161011 1_555
Mn1 O10 1.967715 1_555
Mn1 O14 1.969383 1_555
Mn1 O11 1.987544 1_555
Mn1 O15 2.020515 1_556
Mn1 O13 2.035005 1_556
Mn1 O8 2.062837 1_556
Co0 O3 1.910270 1_555
Co0 O2 1.922232 1_555
Co0 O7 1.947074 1_555
Co0 O6 1.973645 1_555
Co0 O13 2.048305 1_555
Co0 O15 2.061329 1_565
Co1 O12 1.927221 1_555
Co1 O4 1.928445 1_555
Co1 O10 1.952926 1_555
Co1 O14 1.986139 1_555
Co1 O0 1.990395 1_655
Co1 O9 2.030105 1_555
Co2 O12 1.923478 1_555
Co2 O4 1.929206 1_545
Co2 O11 1.945015 1_555
Co2 O14 1.983052 1_555
Co2 O5 2.008508 1_655
Co2 O9 2.047792 1_545
O0 Sn2 2.100453 1_565
O1 Sn0 2.077394 1_555
O1 Sn1 2.081923 1_555
O2 Sn0 2.068567 1_555
O2 Sn1 2.070937 1_555
O3 Sn0 2.057181 1_655
O3 Sn1 2.061477 1_665
O4 Sn2 2.050672 1_665
O5 Sn2 2.122208 1_555
O6 Sn0 2.123699 1_555
O7 Sn1 2.092179 1_555
O8 Sn0 2.106994 1_545
O8 Sn1 2.111314 1_555
O10 Sn2 2.134303 1_555
O11 Sn2 2.129761 1_555
O12 Sn2 2.051687 1_555
O13 Sn0 2.113913 1_655
O15 Sn1 2.114028 1_655
