# generated using pymatgen
data_FeBiC6(N3O2)2
_symmetry_space_group_name_H-M   'P 1'
_cell_length_a   8.05454236
_cell_length_b   8.05454236
_cell_length_c   13.92450400
_cell_angle_alpha   90.00000000
_cell_angle_beta   90.00000000
_cell_angle_gamma   122.53417870
_symmetry_Int_Tables_number   1
_chemical_formula_structural   FeBiC6(N3O2)2
_chemical_formula_sum   'Fe2 Bi2 C12 N12 O8'
_cell_volume   761.59750248
_cell_formula_units_Z   2
loop_
 _symmetry_equiv_pos_site_id
 _symmetry_equiv_pos_as_xyz
  1  'x, y, z'
loop_
 _atom_site_type_symbol
 _atom_site_label
 _atom_site_symmetry_multiplicity
 _atom_site_fract_x
 _atom_site_fract_y
 _atom_site_fract_z
 _atom_site_occupancy
  Fe  Fe0  1  0.00000000  0.00000000  0.50000000  1
  Fe  Fe1  1  0.00000000  0.00000000  0.00000000  1
  Bi  Bi0  1  0.66576000  0.33424000  0.25000000  1
  Bi  Bi1  1  0.33424000  0.66576000  0.75000000  1
  C  C0  1  0.74994500  0.85131200  0.90271000  1
  C  C1  1  0.85131200  0.74994500  0.09729000  1
  C  C2  1  0.74994500  0.85131200  0.59729000  1
  C  C3  1  0.85131200  0.74994500  0.40271000  1
  C  C4  1  0.25005500  0.14868800  0.09729000  1
  C  C5  1  0.14868800  0.25005500  0.90271000  1
  C  C6  1  0.25005500  0.14868800  0.40271000  1
  C  C7  1  0.14868800  0.25005500  0.59729000  1
  C  C8  1  0.86191600  0.13808400  0.43158100  1
  C  C9  1  0.13808400  0.86191600  0.56841900  1
  C  C10  1  0.86191600  0.13808400  0.06841900  1
  C  C11  1  0.13808400  0.86191600  0.93158100  1
  N  N0  1  0.38867000  0.22343600  0.35294700  1
  N  N1  1  0.22343600  0.38867000  0.64705300  1
  N  N2  1  0.38867000  0.22343600  0.14705300  1
  N  N3  1  0.22343600  0.38867000  0.85294700  1
  N  N4  1  0.61133000  0.77656400  0.64705300  1
  N  N5  1  0.77656400  0.61133000  0.35294700  1
  N  N6  1  0.61133000  0.77656400  0.85294700  1
  N  N7  1  0.77656400  0.61133000  0.14705300  1
  N  N8  1  0.78927100  0.21072900  0.39092300  1
  N  N9  1  0.21072900  0.78927100  0.60907700  1
  N  N10  1  0.78927100  0.21072900  0.10907700  1
  N  N11  1  0.21072900  0.78927100  0.89092300  1
  O  O0  1  0.42960100  0.83297700  0.25000000  1
  O  O1  1  0.83297700  0.42960100  0.75000000  1
  O  O2  1  0.57039900  0.16702300  0.75000000  1
  O  O3  1  0.16702300  0.57039900  0.25000000  1
  O  O4  1  0.67607000  0.32393000  0.82321500  1
  O  O5  1  0.32393000  0.67607000  0.17678500  1
  O  O6  1  0.67607000  0.32393000  0.67678500  1
  O  O7  1  0.32393000  0.67607000  0.32321500  1
loop_
_geom_bond_atom_site_label_1
_geom_bond_atom_site_label_2
_geom_bond_distance
_geom_bond_site_symmetry_2
Bi0 N2 2.385377 1_555
Bi0 N0 2.385377 1_555
Bi0 N7 2.385377 1_555
Bi0 N5 2.385377 1_555
Bi0 N8 2.625720 1_555
Bi0 N10 2.625720 1_555
Bi1 N6 2.385377 1_555
Bi1 N3 2.385377 1_555
Bi1 N4 2.385377 1_555
Bi1 N1 2.385377 1_555
Bi1 N11 2.625720 1_555
Bi1 N9 2.625720 1_555
C0 N6 1.168820 1_555
C0 Fe1 2.175222 1_666
C1 N7 1.168820 1_555
C1 Fe1 2.175222 1_665
C2 N4 1.168820 1_555
C2 Fe0 2.175222 1_665
C3 N5 1.168820 1_555
C3 Fe0 2.175222 1_665
C4 N2 1.168820 1_555
C4 Fe1 2.175222 1_555
C5 N3 1.168820 1_555
C5 Fe1 2.175222 1_556
C6 N0 1.168820 1_555
C6 Fe0 2.175222 1_555
C7 N1 1.168820 1_555
C7 Fe0 2.175222 1_555
C8 N8 1.171967 1_555
C8 Fe0 2.170749 1_655
C9 N9 1.171967 1_555
C9 Fe0 2.170749 1_565
C10 N10 1.171967 1_555
C10 Fe1 2.170749 1_655
C11 N11 1.171967 1_555
C11 Fe1 2.170749 1_566
O0 O7 1.484587 1_555
O0 O5 1.484587 1_555
O1 O6 1.484587 1_555
O1 O4 1.484587 1_555
O2 O4 1.484587 1_555
O2 O6 1.484587 1_555
O3 O7 1.484587 1_555
O3 O5 1.484587 1_555
