# generated using pymatgen
data_YbAsPd
_symmetry_space_group_name_H-M   'P 1'
_cell_length_a   6.98881109
_cell_length_b   6.98881109
_cell_length_c   3.93842217
_cell_angle_alpha   90.00000000
_cell_angle_beta   90.00000000
_cell_angle_gamma   119.99999665
_symmetry_Int_Tables_number   1
_chemical_formula_structural   YbAsPd
_chemical_formula_sum   'Yb3 As3 Pd3'
_cell_volume   166.59406166
_cell_formula_units_Z   3
loop_
 _symmetry_equiv_pos_site_id
 _symmetry_equiv_pos_as_xyz
  1  'x, y, z'
loop_
 _atom_site_type_symbol
 _atom_site_label
 _atom_site_symmetry_multiplicity
 _atom_site_fract_x
 _atom_site_fract_y
 _atom_site_fract_z
 _atom_site_occupancy
  Yb  Yb0  1  1.00000000  0.59803093  0.50000000  1
  Yb  Yb1  1  0.40196907  0.40196907  0.50000000  1
  Yb  Yb2  1  0.59803093  1.00000000  0.50000000  1
  As  As0  1  0.66666700  0.33333300  0.00000000  1
  As  As1  1  0.33333300  0.66666700  0.00000000  1
  As  As2  1  0.00000000  0.00000000  0.50000000  1
  Pd  Pd0  1  0.26754606  1.00000000  0.00000000  1
  Pd  Pd1  1  0.73245394  0.73245394  0.00000000  1
  Pd  Pd2  1  1.00000000  0.26754606  0.00000000  1
loop_
_geom_bond_atom_site_label_1
_geom_bond_atom_site_label_2
_geom_bond_distance
_geom_bond_site_symmetry_2
As0 Pd2 2.590274 1_555
As0 Pd0 2.590279 1_545
As0 Pd1 2.590281 1_555
As0 Yb2 2.901286 1_544
As0 Yb2 2.901286 1_545
As0 Yb0 2.901287 1_555
As0 Yb0 2.901287 1_554
As0 Yb1 2.901291 1_554
As0 Yb1 2.901291 1_555
As1 Pd0 2.590274 1_555
As1 Pd2 2.590279 1_455
As1 Pd1 2.590281 1_555
As1 Yb0 2.901286 1_454
As1 Yb0 2.901286 1_455
As1 Yb2 2.901287 1_555
As1 Yb2 2.901287 1_554
As1 Yb1 2.901291 1_554
As1 Yb1 2.901291 1_555
As2 Pd2 2.715521 1_456
As2 Pd2 2.715521 1_455
As2 Pd0 2.715521 1_545
As2 Pd0 2.715521 1_546
As2 Pd1 2.715521 1_446
As2 Pd1 2.715521 1_445
As2 Yb2 2.809286 1_445
As2 Yb0 2.809286 1_445
As2 Yb1 2.809286 1_555
Pd0 Yb2 3.035208 1_555
Pd0 Yb2 3.035208 1_554
Pd0 Yb1 3.164373 1_564
Pd0 Yb1 3.164373 1_565
Pd0 Yb0 3.164373 1_455
Pd0 Yb0 3.164373 1_454
Pd1 Yb1 3.035208 1_554
Pd1 Yb1 3.035208 1_555
Pd1 Yb2 3.164373 1_555
Pd1 Yb0 3.164373 1_555
Pd1 Yb2 3.164373 1_554
Pd1 Yb0 3.164373 1_554
Pd2 Yb0 3.035208 1_555
Pd2 Yb0 3.035208 1_554
Pd2 Yb1 3.164373 1_654
Pd2 Yb1 3.164373 1_655
Pd2 Yb2 3.164373 1_544
Pd2 Yb2 3.164373 1_545
