# generated using pymatgen
data_Gd2SCl4
_symmetry_space_group_name_H-M   'P 1'
_cell_length_a   6.37525271
_cell_length_b   6.95365877
_cell_length_c   8.24626682
_cell_angle_alpha   97.34816925
_cell_angle_beta   112.74044655
_cell_angle_gamma   90.00033025
_symmetry_Int_Tables_number   1
_chemical_formula_structural   Gd2SCl4
_chemical_formula_sum   'Gd4 S2 Cl8'
_cell_volume   333.89287190
_cell_formula_units_Z   2
loop_
 _symmetry_equiv_pos_site_id
 _symmetry_equiv_pos_as_xyz
  1  'x, y, z'
loop_
 _atom_site_type_symbol
 _atom_site_label
 _atom_site_symmetry_multiplicity
 _atom_site_fract_x
 _atom_site_fract_y
 _atom_site_fract_z
 _atom_site_occupancy
  Gd  Gd0  1  0.90131441  0.07781652  0.21489669  1
  Gd  Gd1  1  0.31355318  0.57783182  0.21501332  1
  Gd  Gd2  1  0.09868526  0.92218188  0.78510018  1
  Gd  Gd3  1  0.68644668  0.42216863  0.78498576  1
  S  S0  1  0.06512981  0.24999919  0.00001886  1
  S  S1  1  0.93486961  0.75000021  0.99997995  1
  Cl  Cl0  1  0.69199264  0.42332111  0.17889224  1
  Cl  Cl1  1  0.48677672  0.92332146  0.17877608  1
  Cl  Cl2  1  0.30094200  0.31931612  0.43900371  1
  Cl  Cl3  1  0.13810279  0.81928003  0.43894843  1
  Cl  Cl4  1  0.86189677  0.18071971  0.56105069  1
  Cl  Cl5  1  0.69905751  0.68068351  0.56099542  1
  Cl  Cl6  1  0.51322319  0.07667816  0.82122343  1
  Cl  Cl7  1  0.30800741  0.57667865  0.82110724  1
loop_
_geom_bond_atom_site_label_1
_geom_bond_atom_site_label_2
_geom_bond_distance
_geom_bond_site_symmetry_2
Gd0 S0 2.763576 1_655
Gd0 S1 2.764528 1_544
Gd1 S1 2.763948 1_454
Gd1 S0 2.764700 1_555
Gd2 S1 2.763587 1_455
Gd2 S0 2.764542 1_566
Gd3 S0 2.763949 1_656
Gd3 S1 2.764693 1_555
Cl0 Gd0 2.741765 1_555
Cl0 Gd1 2.745490 1_555
Cl0 Gd3 3.233735 1_554
Cl1 Gd1 2.742118 1_555
Cl1 Gd0 2.745303 1_565
Cl1 Gd2 3.231745 1_554
Cl2 Gd1 2.759313 1_555
Cl2 Gd0 2.879634 1_455
Cl2 Gd3 2.957820 1_555
Cl3 Gd0 2.760039 1_465
Cl3 Gd1 2.878173 1_555
Cl3 Gd2 2.958919 1_555
Cl4 Gd2 2.760036 1_645
Cl4 Gd3 2.878174 1_555
Cl4 Gd0 2.958938 1_555
Cl5 Gd3 2.759308 1_555
Cl5 Gd2 2.879626 1_655
Cl5 Gd1 2.957818 1_555
Cl6 Gd3 2.742124 1_555
Cl6 Gd2 2.745301 1_545
Cl6 Gd0 3.231730 1_556
Cl7 Gd2 2.741759 1_555
Cl7 Gd3 2.745488 1_555
Cl7 Gd1 3.233732 1_556
