# generated using pymatgen
data_Li5Cr3FeO8
_symmetry_space_group_name_H-M   'P 1'
_cell_length_a   5.99425500
_cell_length_b   5.99725260
_cell_length_c   6.05051969
_cell_angle_alpha   119.50204335
_cell_angle_beta   90.27845361
_cell_angle_gamma   119.86889503
_symmetry_Int_Tables_number   1
_chemical_formula_structural   Li5Cr3FeO8
_chemical_formula_sum   'Li5 Cr3 Fe1 O8'
_cell_volume   154.88520846
_cell_formula_units_Z   1
loop_
 _symmetry_equiv_pos_site_id
 _symmetry_equiv_pos_as_xyz
  1  'x, y, z'
loop_
 _atom_site_type_symbol
 _atom_site_label
 _atom_site_symmetry_multiplicity
 _atom_site_fract_x
 _atom_site_fract_y
 _atom_site_fract_z
 _atom_site_occupancy
  Li  Li0  1  0.66455900  0.72907300  0.20080800  1
  Li  Li1  1  0.00000000  0.00000000  0.50000000  1
  Li  Li2  1  0.33544100  0.27092700  0.79919200  1
  Li  Li3  1  0.50000000  0.50000000  0.50000000  1
  Li  Li4  1  0.00000000  0.50000000  0.50000000  1
  Cr  Cr0  1  0.50000000  0.50000000  0.00000000  1
  Cr  Cr1  1  0.00000000  0.50000000  0.00000000  1
  Cr  Cr2  1  0.50000000  0.00000000  0.00000000  1
  Fe  Fe0  1  0.50000000  0.00000000  0.50000000  1
  O  O0  1  0.71016100  0.96865200  0.77353900  1
  O  O1  1  0.78389900  0.50817000  0.23618800  1
  O  O2  1  0.26141200  0.51391900  0.23306400  1
  O  O3  1  0.79407600  0.04173600  0.22763900  1
  O  O4  1  0.20592400  0.95826400  0.77236100  1
  O  O5  1  0.73858800  0.48608100  0.76693600  1
  O  O6  1  0.21610100  0.49183000  0.76381200  1
  O  O7  1  0.28983900  0.03134800  0.22646100  1
loop_
_geom_bond_atom_site_label_1
_geom_bond_atom_site_label_2
_geom_bond_distance
_geom_bond_site_symmetry_2
Li0 O3 1.547297 1_565
Li0 O1 1.880017 1_555
Li0 O2 2.165559 1_555
Li1 O1 2.112628 1_445
Li1 O6 2.112628 1_555
Li1 O4 2.235213 1_545
Li1 O3 2.235213 1_455
Li1 O7 2.408748 1_555
Li1 O0 2.408748 1_445
Li2 O4 1.547297 1_545
Li2 O6 1.880017 1_555
Li2 O5 2.165559 1_555
Li3 O0 2.024188 1_555
Li3 O7 2.024188 1_555
Li3 O5 2.211361 1_555
Li3 O2 2.211361 1_555
Li3 O6 2.338083 1_555
Li3 O1 2.338083 1_555
Li4 O3 1.983221 1_455
Li4 O4 1.983221 1_555
Li4 O1 2.085275 1_455
Li4 O6 2.085275 1_555
Li4 O5 2.257879 1_455
Li4 O2 2.257879 1_555
Cr0 Li0 1.153763 1_555
Cr0 Li2 1.153763 1_554
Cr0 O2 2.015797 1_555
Cr0 O5 2.015797 1_554
Cr0 O6 2.182878 1_554
Cr0 O1 2.182878 1_555
Cr1 O6 1.932571 1_554
Cr1 O1 1.932571 1_455
Cr1 O5 2.045290 1_454
Cr1 O2 2.045290 1_555
Cr1 O7 2.283098 1_565
Cr1 O0 2.283098 1_444
Cr2 O7 1.870498 1_555
Cr2 O0 1.870498 1_544
Cr2 O4 2.065049 1_544
Cr2 O3 2.065049 1_555
Cr2 O1 2.178831 1_555
Cr2 O6 2.178831 1_544
Fe0 O5 2.083207 1_555
Fe0 O2 2.083207 1_545
Fe0 O7 2.209893 1_555
Fe0 O0 2.209893 1_545
Fe0 Li2 2.367883 1_555
Fe0 Li0 2.367883 1_545
Fe0 O3 2.425009 1_555
Fe0 O4 2.425009 1_545
