# generated using pymatgen
data_K3InAu5
_symmetry_space_group_name_H-M   'P 1'
_cell_length_a   5.61193368
_cell_length_b   8.43257918
_cell_length_c   11.11499144
_cell_angle_alpha   112.26406523
_cell_angle_beta   104.53967173
_cell_angle_gamma   90.02555205
_symmetry_Int_Tables_number   1
_chemical_formula_structural   K3InAu5
_chemical_formula_sum   'K6 In2 Au10'
_cell_volume   468.50288363
_cell_formula_units_Z   2
loop_
 _symmetry_equiv_pos_site_id
 _symmetry_equiv_pos_as_xyz
  1  'x, y, z'
loop_
 _atom_site_type_symbol
 _atom_site_label
 _atom_site_symmetry_multiplicity
 _atom_site_fract_x
 _atom_site_fract_y
 _atom_site_fract_z
 _atom_site_occupancy
  K  K0  1  0.08714370  0.70919046  0.17392149  1
  K  K1  1  0.58720331  0.96501413  0.17383906  1
  K  K2  1  0.75020008  0.37140305  0.49990968  1
  K  K3  1  0.24983062  0.62857748  0.50007520  1
  K  K4  1  0.41279505  0.03498720  0.82615837  1
  K  K5  1  0.91285099  0.29079937  0.82609487  1
  In  In0  1  0.24987354  0.08741601  0.50017272  1
  In  In1  1  0.75013561  0.91258246  0.49982657  1
  Au  Au0  1  0.00000514  0.00000942  0.00000367  1
  Au  Au1  1  0.50000000  0.50000519  -0.00000065  1
  Au  Au2  1  0.31238458  0.31279703  0.12502554  1
  Au  Au3  1  0.81280952  0.31276056  0.12534992  1
  Au  Au4  1  0.14535642  0.18192115  0.28928820  1
  Au  Au5  1  0.64505473  0.60748798  0.28942768  1
  Au  Au6  1  0.35494564  0.39251832  0.71058595  1
  Au  Au7  1  0.85463925  0.81806463  0.71069364  1
  Au  Au8  1  0.18719754  0.68723845  0.87465108  1
  Au  Au9  1  0.68758126  0.68722611  0.87498400  1
loop_
_geom_bond_atom_site_label_1
_geom_bond_atom_site_label_2
_geom_bond_distance
_geom_bond_site_symmetry_2
K0 K1 3.539274 1_555
K0 K1 3.539904 1_455
K0 K3 3.826715 1_555
K0 K5 4.014157 1_454
K1 K2 3.825845 1_565
K1 K4 4.008676 1_564
K2 K3 3.543134 1_655
K2 K3 3.548677 1_555
K2 K5 3.827007 1_555
K3 K4 3.826015 1_565
K4 K5 3.539108 1_555
K4 K5 3.539855 1_455
In0 In1 3.166285 1_445
In0 In1 3.171765 1_545
In0 K2 3.688516 1_455
In0 K2 3.690795 1_555
In0 K4 3.702804 1_555
In0 K0 3.704992 1_545
In0 K3 3.868782 1_545
In1 K3 3.688697 1_655
In1 K3 3.690731 1_555
In1 K1 3.702836 1_555
In1 K5 3.705068 1_565
In1 K2 3.868691 1_565
Au0 Au3 2.820132 1_455
Au0 Au8 2.820264 1_544
Au0 Au2 2.820738 1_555
Au0 Au9 2.820835 1_444
Au0 Au4 2.881268 1_555
Au0 Au7 2.881538 1_444
Au0 K4 3.444695 1_554
Au0 K1 3.444709 1_445
Au0 K1 3.451883 1_545
Au0 K4 3.451932 1_454
Au0 K5 3.620300 1_454
Au0 K0 3.620591 1_545
Au1 Au9 2.815450 1_554
Au1 Au2 2.815561 1_555
Au1 Au8 2.820775 1_554
Au1 Au3 2.820880 1_555
Au1 Au6 2.882245 1_554
Au1 Au5 2.882402 1_555
Au1 K5 3.447436 1_554
Au1 K0 3.447514 1_555
Au1 K0 3.452299 1_655
Au1 K5 3.452350 1_454
Au1 K1 3.623706 1_555
Au1 K4 3.623775 1_554
Au2 Au4 2.795583 1_555
Au2 Au5 2.800329 1_555
Au2 Au3 2.804489 1_455
Au2 Au3 2.807449 1_555
Au2 K4 3.447432 1_554
Au2 K5 3.448691 1_454
Au2 K0 3.469639 1_555
Au2 K1 3.473230 1_545
Au3 Au5 2.796185 1_555
Au3 Au4 2.799685 1_655
Au3 K5 3.447344 1_554
Au3 K4 3.453905 1_554
Au3 K1 3.468328 1_545
Au3 K0 3.470929 1_655
Au4 In0 2.683081 1_555
Au4 K1 3.311168 1_545
Au4 K1 3.316898 1_445
Au4 K3 3.555385 1_555
Au4 K2 3.567352 1_555
Au4 K2 3.567445 1_455
Au4 K0 3.681988 1_545
Au5 In1 2.680082 1_555
Au5 K0 3.312208 1_655
Au5 K0 3.317396 1_555
Au5 K2 3.552733 1_555
Au5 K3 3.567238 1_555
Au5 K3 3.567428 1_655
Au5 K1 3.684016 1_555
Au6 In0 2.680196 1_555
Au6 Au8 2.796071 1_555
Au6 Au9 2.800316 1_555
Au6 K5 3.312311 1_455
Au6 K5 3.317432 1_555
Au6 K3 3.552822 1_555
Au6 K2 3.567378 1_455
Au6 K2 3.567582 1_555
Au6 K4 3.683941 1_555
Au7 In1 2.682967 1_555
Au7 Au9 2.795738 1_555
Au7 Au8 2.799780 1_655
Au7 K4 3.311272 1_565
Au7 K4 3.316954 1_665
Au7 K2 3.555414 1_555
Au7 K3 3.567197 1_555
Au7 K3 3.567587 1_655
Au7 K5 3.681988 1_565
Au8 Au9 2.804745 1_455
Au8 Au9 2.807194 1_555
Au8 K0 3.447565 1_556
Au8 K1 3.453870 1_556
Au8 K4 3.468348 1_565
Au8 K5 3.471082 1_455
Au9 K1 3.447199 1_556
Au9 K0 3.448903 1_656
Au9 K5 3.469968 1_555
Au9 K4 3.473039 1_565
