# generated using pymatgen
data_CaPrZn2
_symmetry_space_group_name_H-M   'P 1'
_cell_length_a   5.19875864
_cell_length_b   5.19875864
_cell_length_c   5.19875864
_cell_angle_alpha   60.00544882
_cell_angle_beta   60.00544882
_cell_angle_gamma   60.00544882
_symmetry_Int_Tables_number   1
_chemical_formula_structural   CaPrZn2
_chemical_formula_sum   'Ca1 Pr1 Zn2'
_cell_volume   99.36595568
_cell_formula_units_Z   1
loop_
 _symmetry_equiv_pos_site_id
 _symmetry_equiv_pos_as_xyz
  1  'x, y, z'
loop_
 _atom_site_type_symbol
 _atom_site_label
 _atom_site_symmetry_multiplicity
 _atom_site_fract_x
 _atom_site_fract_y
 _atom_site_fract_z
 _atom_site_occupancy
  Ca  Ca0  1  0.25000000  0.25000000  0.25000000  1
  Pr  Pr0  1  0.75000000  0.75000000  0.75000000  1
  Zn  Zn0  1  0.99993010  0.99993010  0.99993010  1
  Zn  Zn1  1  0.50006890  0.50006890  0.50006890  1
loop_
_geom_bond_atom_site_label_1
_geom_bond_atom_site_label_2
_geom_bond_distance
_geom_bond_site_symmetry_2
Ca0 Zn0 3.183498 1_454
Ca0 Zn0 3.183498 1_445
Ca0 Zn0 3.183498 1_544
Ca0 Zn1 3.183503 1_554
Ca0 Zn1 3.183503 1_455
Ca0 Zn1 3.183503 1_545
Ca0 Zn1 3.184323 1_555
Ca0 Zn0 3.184335 1_444
Pr0 Zn0 3.182555 1_555
Pr0 Zn1 3.182568 1_555
Pr0 Zn1 3.184088 1_655
Pr0 Zn1 3.184088 1_556
Pr0 Zn1 3.184088 1_565
Pr0 Zn0 3.184092 1_455
Pr0 Zn0 3.184092 1_545
Pr0 Zn0 3.184092 1_554
