# generated using pymatgen
data_Y2ZnIn
_symmetry_space_group_name_H-M   'P 1'
_cell_length_a   5.19198919
_cell_length_b   5.19198919
_cell_length_c   5.19198919
_cell_angle_alpha   60.00409538
_cell_angle_beta   60.00409538
_cell_angle_gamma   60.00409538
_symmetry_Int_Tables_number   1
_chemical_formula_structural   Y2ZnIn
_chemical_formula_sum   'Y2 Zn1 In1'
_cell_volume   98.97526268
_cell_formula_units_Z   1
loop_
 _symmetry_equiv_pos_site_id
 _symmetry_equiv_pos_as_xyz
  1  'x, y, z'
loop_
 _atom_site_type_symbol
 _atom_site_label
 _atom_site_symmetry_multiplicity
 _atom_site_fract_x
 _atom_site_fract_y
 _atom_site_fract_z
 _atom_site_occupancy
  Y  Y0  1  0.99991393  0.99991393  0.99991393  1
  Y  Y1  1  0.50008807  0.50008807  0.50008807  1
  Zn  Zn0  1  0.74999900  0.74999900  0.74999900  1
  In  In0  1  0.24999900  0.24999900  0.24999900  1
loop_
_geom_bond_atom_site_label_1
_geom_bond_atom_site_label_2
_geom_bond_distance
_geom_bond_site_symmetry_2
Y0 Zn0 3.178251 1_555
Y0 Zn0 3.179956 1_565
Y0 Zn0 3.179956 1_655
Y0 Zn0 3.179956 1_556
Y1 Zn0 3.178200 1_555
Y1 Zn0 3.179973 1_455
Y1 Zn0 3.179973 1_545
Y1 Zn0 3.179973 1_554
In0 Y1 3.179218 1_545
In0 Y1 3.179218 1_554
In0 Y1 3.179218 1_455
In0 Y0 3.179235 1_454
In0 Y0 3.179235 1_544
In0 Y0 3.179235 1_445
In0 Y0 3.180415 1_444
In0 Y1 3.180465 1_555
