# generated using pymatgen
data_ZrZn3
_symmetry_space_group_name_H-M   'P 1'
_cell_length_a   5.84741273
_cell_length_b   5.84741344
_cell_length_c   4.33069904
_cell_angle_alpha   90.00000000
_cell_angle_beta   90.00000000
_cell_angle_gamma   120.00000754
_symmetry_Int_Tables_number   1
_chemical_formula_structural   ZrZn3
_chemical_formula_sum   'Zr2 Zn6'
_cell_volume   128.23782788
_cell_formula_units_Z   2
loop_
 _symmetry_equiv_pos_site_id
 _symmetry_equiv_pos_as_xyz
  1  'x, y, z'
loop_
 _atom_site_type_symbol
 _atom_site_label
 _atom_site_symmetry_multiplicity
 _atom_site_fract_x
 _atom_site_fract_y
 _atom_site_fract_z
 _atom_site_occupancy
  Zr  Zr0  1  0.33333400  0.66666700  0.74999800  1
  Zr  Zr1  1  0.66666600  0.33333200  0.24999800  1
  Zn  Zn0  1  0.15662697  0.31325294  0.24999800  1
  Zn  Zn1  1  0.68674506  0.84337303  0.24999800  1
  Zn  Zn2  1  0.15662797  0.84337303  0.24999800  1
  Zn  Zn3  1  0.84337303  0.68674506  0.74999800  1
  Zn  Zn4  1  0.31325594  0.15662797  0.74999800  1
  Zn  Zn5  1  0.84337303  0.15662797  0.74999800  1
loop_
_geom_bond_atom_site_label_1
_geom_bond_atom_site_label_2
_geom_bond_distance
_geom_bond_site_symmetry_2
Zn0 Zn5 2.684241 1_455
Zn0 Zn5 2.684241 1_454
Zn0 Zn4 2.684241 1_555
Zn0 Zn4 2.684241 1_554
Zn0 Zn2 2.747585 1_545
Zn0 Zn1 2.747587 1_445
Zn0 Zr0 2.809223 1_555
Zn0 Zr0 2.809223 1_554
Zn0 Zr1 2.925471 1_555
Zn0 Zr1 2.925477 1_455
Zn0 Zn1 3.099825 1_555
Zn0 Zn2 3.099828 1_555
Zn1 Zn5 2.684244 1_565
Zn1 Zn5 2.684244 1_564
Zn1 Zn3 2.684247 1_555
Zn1 Zn3 2.684247 1_554
Zn1 Zn2 2.747599 1_655
Zn1 Zr0 2.809213 1_555
Zn1 Zr0 2.809213 1_554
Zn1 Zr1 2.925466 1_565
Zn1 Zr1 2.925483 1_555
Zn1 Zn2 3.099813 1_555
Zn2 Zn3 2.684244 1_455
Zn2 Zn3 2.684244 1_454
Zn2 Zn4 2.684244 1_565
Zn2 Zn4 2.684244 1_564
Zn2 Zr0 2.809217 1_555
Zn2 Zr0 2.809217 1_554
Zn2 Zr1 2.925465 1_565
Zn2 Zr1 2.925483 1_455
Zn3 Zn4 2.747599 1_665
Zn3 Zn5 2.747600 1_565
Zn3 Zr1 2.809220 1_555
Zn3 Zr1 2.809220 1_556
Zn3 Zr0 2.925474 1_555
Zn3 Zr0 2.925474 1_655
Zn3 Zn4 3.099813 1_555
Zn3 Zn5 3.099814 1_555
Zn4 Zn5 2.747599 1_455
Zn4 Zr1 2.809210 1_555
Zn4 Zr1 2.809210 1_556
Zn4 Zr0 2.925474 1_555
Zn4 Zr0 2.925474 1_545
Zn4 Zn5 3.099813 1_555
Zn5 Zr1 2.809214 1_555
Zn5 Zr1 2.809214 1_556
Zn5 Zr0 2.925474 1_545
Zn5 Zr0 2.925474 1_655
