# generated using pymatgen
data_Sm27Y5O48
_symmetry_space_group_name_H-M   'P 1'
_cell_length_a   9.49298700
_cell_length_b   9.48045369
_cell_length_c   15.49796264
_cell_angle_alpha   90.01727119
_cell_angle_beta   90.02749820
_cell_angle_gamma   109.46098244
_symmetry_Int_Tables_number   1
_chemical_formula_structural   Sm27Y5O48
_chemical_formula_sum   'Sm27 Y5 O48'
_cell_volume   1315.09668480
_cell_formula_units_Z   1
loop_
 _symmetry_equiv_pos_site_id
 _symmetry_equiv_pos_as_xyz
  1  'x, y, z'
loop_
 _atom_site_type_symbol
 _atom_site_label
 _atom_site_symmetry_multiplicity
 _atom_site_fract_x
 _atom_site_fract_y
 _atom_site_fract_z
 _atom_site_occupancy
  Sm  Sm0  1  0.60897500  0.89208200  0.35847100  1
  Sm  Sm1  1  0.34203200  0.09157900  0.37493400  1
  Sm  Sm2  1  0.65796800  0.90842100  0.62506600  1
  Sm  Sm3  1  0.48398700  0.51656300  0.26587900  1
  Sm  Sm4  1  0.23308900  0.76667300  0.51629800  1
  Sm  Sm5  1  0.64040300  0.85999100  0.88995000  1
  Sm  Sm6  1  0.50000000  0.50000000  0.50000000  1
  Sm  Sm7  1  0.13993000  0.35779300  0.39063500  1
  Sm  Sm8  1  0.39102500  0.10791800  0.64152900  1
  Sm  Sm9  1  0.76691100  0.23332700  0.48370200  1
  Sm  Sm10  1  0.51601300  0.48343700  0.73412100  1
  Sm  Sm11  1  0.84418600  0.59270000  0.37489800  1
  Sm  Sm12  1  0.34408100  0.09188800  0.87456600  1
  Sm  Sm13  1  0.15581400  0.40730000  0.62510200  1
  Sm  Sm14  1  0.65591900  0.90811200  0.12543400  1
  Sm  Sm15  1  0.98463400  0.01717500  0.76509200  1
  Sm  Sm16  1  0.73482600  0.26640100  0.01629700  1
  Sm  Sm17  1  0.50000000  0.50000000  0.00000000  1
  Sm  Sm18  1  0.00000000  0.00000000  0.00000000  1
  Sm  Sm19  1  0.35959700  0.14000900  0.11005000  1
  Sm  Sm20  1  0.86007000  0.64220700  0.60936500  1
  Sm  Sm21  1  0.10810800  0.39174300  0.85809400  1
  Sm  Sm22  1  0.26517400  0.73359900  0.98370300  1
  Sm  Sm23  1  0.01536600  0.98282500  0.23490800  1
  Sm  Sm24  1  0.84351900  0.59275000  0.87379700  1
  Sm  Sm25  1  0.15648100  0.40725000  0.12620300  1
  Sm  Sm26  1  0.89189200  0.60825700  0.14190600  1
  Y  Y0  1  0.25006000  0.74978200  0.25032800  1
  Y  Y1  1  0.74962600  0.25011800  0.25026300  1
  Y  Y2  1  0.00000000  0.00000000  0.50000000  1
  Y  Y3  1  0.25037400  0.74988200  0.74973700  1
  Y  Y4  1  0.74994000  0.25021800  0.74967200  1
  O  O0  1  0.60079300  0.14287500  0.36852100  1
  O  O1  1  0.71424200  0.48089700  0.24456000  1
  O  O2  1  0.35331500  0.84185100  0.38390300  1
  O  O3  1  0.09170700  0.10164400  0.36697600  1
  O  O4  1  0.64668500  0.15814900  0.61609700  1
  O  O5  1  0.73601100  0.46533800  0.50569900  1
  O  O6  1  0.39042200  0.34995500  0.37937100  1
  O  O7  1  0.39920700  0.85712500  0.63147900  1
  O  O8  1  0.25184100  0.02647400  0.51541300  1
  O  O9  1  0.22397800  0.49930400  0.26564400  1
  O  O10  1  0.62660800  0.65568600  0.38504500  1
  O  O11  1  0.72436600  0.99955600  0.76469100  1
  O  O12  1  0.40342800  0.87235300  0.86195400  1
  O  O13  1  0.90383000  0.37263600  0.36252900  1
  O  O14  1  0.74815900  0.97352600  0.48458700  1
  O  O15  1  0.37339200  0.34431400  0.61495500  1
  O  O16  1  0.00966200  0.24557200  0.52043100  1
  O  O17  1  0.50440200  0.23965000  0.77088600  1
  O  O18  1  0.00464600  0.73938400  0.27112300  1
  O  O19  1  0.50833600  0.75003000  0.02005700  1
  O  O20  1  0.60957800  0.65004500  0.62062900  1
  O  O21  1  0.90829300  0.89835600  0.63302400  1
  O  O22  1  0.21438600  0.98035900  0.74427400  1
  O  O23  1  0.26398900  0.53466200  0.49430100  1
  O  O24  1  0.28575800  0.51910300  0.75544000  1
  O  O25  1  0.59423300  0.60541700  0.86485300  1
  O  O26  1  0.23491600  0.96477600  0.00558300  1
  O  O27  1  0.49166400  0.24997000  0.97994300  1
  O  O28  1  0.89117500  0.85109300  0.87885600  1
  O  O29  1  0.49559800  0.76035000  0.22911400  1
  O  O30  1  0.99033800  0.75442800  0.47956900  1
  O  O31  1  0.99535400  0.26061600  0.72887700  1
  O  O32  1  0.75691700  0.52690600  0.01446400  1
  O  O33  1  0.09617000  0.62736400  0.63747100  1
  O  O34  1  0.12719800  0.15611600  0.88474800  1
  O  O35  1  0.59657200  0.12764700  0.13804600  1
  O  O36  1  0.24308300  0.47309400  0.98553600  1
  O  O37  1  0.77602200  0.50069600  0.73435600  1
  O  O38  1  0.27563400  0.00044400  0.23530900  1
  O  O39  1  0.87280200  0.84388400  0.11525200  1
  O  O40  1  0.10882500  0.14890700  0.12114400  1
  O  O41  1  0.10110200  0.64324800  0.86743500  1
  O  O42  1  0.40576700  0.39458300  0.13514700  1
  O  O43  1  0.85281500  0.34150600  0.88306800  1
  O  O44  1  0.76508400  0.03522400  0.99441700  1
  O  O45  1  0.14718500  0.65849400  0.11693200  1
  O  O46  1  0.78561500  0.01964100  0.25572600  1
  O  O47  1  0.89889800  0.35675200  0.13256500  1
loop_
_geom_bond_atom_site_label_1
_geom_bond_atom_site_label_2
_geom_bond_distance
_geom_bond_site_symmetry_2
O0 Y1 2.331383 1_555
O0 Sm1 2.341929 1_555
O0 Sm9 2.346045 1_555
O0 Sm0 2.409619 1_545
O1 Y1 2.323205 1_555
O1 Sm26 2.340920 1_555
O1 Sm3 2.344004 1_555
O1 Sm11 2.418786 1_555
O2 Y0 2.331312 1_555
O2 Sm4 2.341316 1_555
O2 Sm0 2.345903 1_555
O2 Sm1 2.409392 1_565
O3 Y2 2.319614 1_555
O3 Sm23 2.331665 1_545
O3 Sm7 2.345151 1_555
O3 Sm1 2.412900 1_555
O4 Y4 2.331312 1_555
O4 Sm9 2.341316 1_555
O4 Sm8 2.345903 1_555
O4 Sm2 2.409392 1_545
O5 Sm20 2.336779 1_555
O5 Sm9 2.338789 1_555
O5 Sm6 2.371878 1_555
O5 Sm11 2.408125 1_555
O6 Sm3 2.333637 1_555
O6 Sm1 2.337947 1_555
O6 Sm6 2.368787 1_555
O6 Sm7 2.410107 1_555
O7 Y3 2.331383 1_555
O7 Sm2 2.341929 1_555
O7 Sm4 2.346045 1_555
O7 Sm8 2.409619 1_565
O8 Y2 2.331352 1_555
O8 Sm8 2.340726 1_555
O8 Sm1 2.346150 1_555
O8 Sm4 2.409620 1_545
O9 Y0 2.316293 1_555
O9 Sm25 2.338217 1_555
O9 Sm7 2.340648 1_555
O9 Sm3 2.418675 1_555
O10 Sm11 2.338702 1_555
O10 Sm0 2.338976 1_555
O10 Sm6 2.370363 1_555
O10 Sm3 2.406180 1_555
O11 Y4 2.318687 1_565
O11 Sm5 2.335551 1_555
O11 Sm2 2.336869 1_555
O11 Sm15 2.420205 1_565
O12 Y3 2.314304 1_555
O12 Sm5 2.331836 1_555
O12 Sm12 2.338492 1_565
O12 Sm22 2.422117 1_555
O13 Y1 2.320048 1_555
O13 Sm7 2.332850 1_655
O13 Sm11 2.344564 1_555
O13 Sm9 2.412535 1_555
O14 Y2 2.331352 1_665
O14 Sm0 2.340726 1_555
O14 Sm2 2.346150 1_555
O14 Sm9 2.409620 1_565
O15 Sm13 2.338702 1_555
O15 Sm8 2.338976 1_555
O15 Sm6 2.370363 1_555
O15 Sm10 2.406180 1_555
O16 Y2 2.320802 1_555
O16 Sm9 2.338450 1_455
O16 Sm13 2.342258 1_555
O16 Sm7 2.415491 1_555
O17 Y4 2.322998 1_555
O17 Sm12 2.333160 1_555
O17 Sm10 2.347255 1_555
O17 Sm8 2.416188 1_555
O18 Y0 2.321390 1_555
O18 Sm11 2.330878 1_455
O18 Sm23 2.344408 1_555
O18 Sm26 2.410667 1_455
O19 Sm22 2.330066 1_554
O19 Sm14 2.339497 1_555
O19 Sm17 2.365632 1_555
O19 Sm5 2.420169 1_554
O20 Sm10 2.333637 1_555
O20 Sm2 2.337947 1_555
O20 Sm6 2.368787 1_555
O20 Sm20 2.410107 1_555
O21 Y2 2.319614 1_665
O21 Sm15 2.331665 1_565
O21 Sm20 2.345151 1_555
O21 Sm2 2.412900 1_555
O22 Y3 2.322866 1_555
O22 Sm8 2.337152 1_565
O22 Sm15 2.343219 1_465
O22 Sm12 2.416636 1_565
O23 Sm7 2.336779 1_555
O23 Sm4 2.338789 1_555
O23 Sm6 2.371878 1_555
O23 Sm13 2.408125 1_555
O24 Y3 2.323205 1_555
O24 Sm21 2.340920 1_555
O24 Sm10 2.344004 1_555
O24 Sm13 2.418786 1_555
O25 Sm10 2.327801 1_555
O25 Sm5 2.337237 1_555
O25 Sm17 2.365020 1_556
O25 Sm24 2.413062 1_555
O26 Sm22 2.328089 1_554
O26 Sm19 2.338453 1_565
O26 Sm18 2.363936 1_565
O26 Sm12 2.412555 1_564
O27 Sm16 2.330066 1_556
O27 Sm12 2.339497 1_555
O27 Sm17 2.365632 1_556
O27 Sm19 2.420169 1_556
O28 Sm15 2.333924 1_565
O28 Sm24 2.339013 1_555
O28 Sm18 2.368517 1_666
O28 Sm5 2.416198 1_555
O29 Y0 2.322998 1_555
O29 Sm14 2.333160 1_555
O29 Sm3 2.347255 1_555
O29 Sm0 2.416188 1_555
O30 Y2 2.320802 1_665
O30 Sm4 2.338450 1_655
O30 Sm11 2.342258 1_555
O30 Sm20 2.415491 1_555
O31 Y4 2.321390 1_555
O31 Sm13 2.330878 1_655
O31 Sm15 2.344408 1_555
O31 Sm21 2.410667 1_655
O32 Sm26 2.340033 1_555
O32 Sm24 2.340672 1_554
O32 Sm17 2.376657 1_555
O32 Sm16 2.408147 1_555
O33 Y3 2.320048 1_555
O33 Sm20 2.332850 1_455
O33 Sm13 2.344564 1_555
O33 Sm4 2.412535 1_555
O34 Sm21 2.337477 1_555
O34 Sm12 2.338850 1_555
O34 Sm18 2.377356 1_556
O34 Sm15 2.411185 1_455
O35 Y1 2.314304 1_555
O35 Sm19 2.331836 1_555
O35 Sm14 2.338492 1_545
O35 Sm16 2.422117 1_555
O36 Sm21 2.340033 1_555
O36 Sm25 2.340672 1_556
O36 Sm17 2.376657 1_556
O36 Sm22 2.408147 1_555
O37 Y4 2.316293 1_555
O37 Sm24 2.338217 1_555
O37 Sm20 2.340648 1_555
O37 Sm10 2.418675 1_555
O38 Y0 2.318687 1_545
O38 Sm19 2.335551 1_555
O38 Sm1 2.336869 1_555
O38 Sm23 2.420205 1_545
O39 Sm26 2.337477 1_555
O39 Sm14 2.338850 1_555
O39 Sm18 2.377356 1_665
O39 Sm23 2.411185 1_655
O40 Sm23 2.333924 1_545
O40 Sm25 2.339013 1_555
O40 Sm18 2.368517 1_555
O40 Sm19 2.416198 1_555
O41 Y3 2.325147 1_555
O41 Sm24 2.332017 1_455
O41 Sm22 2.348175 1_555
O41 Sm21 2.411664 1_555
O42 Sm3 2.327801 1_555
O42 Sm19 2.337237 1_555
O42 Sm17 2.365020 1_555
O42 Sm25 2.413062 1_555
O43 Y4 2.326058 1_555
O43 Sm21 2.341339 1_655
O43 Sm16 2.344470 1_556
O43 Sm24 2.417058 1_555
O44 Sm16 2.328089 1_556
O44 Sm5 2.338453 1_545
O44 Sm18 2.363936 1_656
O44 Sm14 2.412555 1_546
O45 Y0 2.326058 1_555
O45 Sm26 2.341339 1_455
O45 Sm22 2.344470 1_554
O45 Sm25 2.417058 1_555
O46 Y1 2.322871 1_555
O46 Sm0 2.337157 1_545
O46 Sm23 2.343209 1_645
O46 Sm14 2.416639 1_545
O47 Y1 2.325147 1_555
O47 Sm25 2.332017 1_655
O47 Sm16 2.348175 1_555
O47 Sm26 2.411664 1_555
