# generated using pymatgen
data_Sr4Al6SO12
_symmetry_space_group_name_H-M   'P 1'
_cell_length_a   8.09501311
_cell_length_b   8.09501311
_cell_length_c   8.09501311
_cell_angle_alpha   109.47122063
_cell_angle_beta   109.47122063
_cell_angle_gamma   109.47122063
_symmetry_Int_Tables_number   1
_chemical_formula_structural   Sr4Al6SO12
_chemical_formula_sum   'Sr4 Al6 S1 O12'
_cell_volume   408.34832554
_cell_formula_units_Z   1
loop_
 _symmetry_equiv_pos_site_id
 _symmetry_equiv_pos_as_xyz
  1  'x, y, z'
loop_
 _atom_site_type_symbol
 _atom_site_label
 _atom_site_symmetry_multiplicity
 _atom_site_fract_x
 _atom_site_fract_y
 _atom_site_fract_z
 _atom_site_occupancy
  Sr  Sr0  1  0.00000000  0.36583200  0.00000000  1
  Sr  Sr1  1  0.36583200  0.00000000  0.00000000  1
  Sr  Sr2  1  0.63416800  0.63416800  0.63416800  1
  Sr  Sr3  1  0.00000000  0.00000000  0.36583200  1
  Al  Al0  1  0.25000000  0.50000000  0.75000000  1
  Al  Al1  1  0.75000000  0.50000000  0.25000000  1
  Al  Al2  1  0.25000000  0.75000000  0.50000000  1
  Al  Al3  1  0.75000000  0.25000000  0.50000000  1
  Al  Al4  1  0.50000000  0.25000000  0.75000000  1
  Al  Al5  1  0.50000000  0.75000000  0.25000000  1
  S  S0  1  0.00000000  0.00000000  0.00000000  1
  O  O0  1  0.00000000  0.59589800  0.29350100  1
  O  O1  1  0.40410200  0.40410200  0.69760300  1
  O  O2  1  0.00000000  0.29350100  0.59589800  1
  O  O3  1  0.29350100  0.00000000  0.59589800  1
  O  O4  1  0.70649900  0.30239700  0.70649900  1
  O  O5  1  0.30239700  0.70649900  0.70649900  1
  O  O6  1  0.70649900  0.70649900  0.30239700  1
  O  O7  1  0.59589800  0.29350100  0.00000000  1
  O  O8  1  0.29350100  0.59589800  0.00000000  1
  O  O9  1  0.40410200  0.69760300  0.40410200  1
  O  O10  1  0.59589800  0.00000000  0.29350100  1
  O  O11  1  0.69760300  0.40410200  0.40410200  1
loop_
_geom_bond_atom_site_label_1
_geom_bond_atom_site_label_2
_geom_bond_distance
_geom_bond_site_symmetry_2
Al0 O1 1.765650 1_555
Al0 O8 1.765650 1_556
Al0 O2 1.765650 1_555
Al0 O5 1.765650 1_555
Al1 O6 1.765650 1_555
Al1 O0 1.765650 1_655
Al1 O7 1.765650 1_555
Al1 O11 1.765650 1_555
Al2 O9 1.765650 1_555
Al2 O3 1.765650 1_565
Al2 O0 1.765650 1_555
Al2 O5 1.765650 1_555
Al3 O4 1.765650 1_555
Al3 O2 1.765650 1_655
Al3 O10 1.765650 1_555
Al3 O11 1.765650 1_555
Al4 O1 1.765650 1_555
Al4 O3 1.765650 1_555
Al4 O4 1.765650 1_555
Al4 O7 1.765650 1_556
Al5 O8 1.765650 1_555
Al5 O10 1.765650 1_565
Al5 O6 1.765650 1_555
Al5 O9 1.765650 1_555
S0 Sr3 2.961415 1_555
S0 Sr0 2.961415 1_555
S0 Sr1 2.961415 1_555
S0 Sr2 2.961415 1_444
O0 Sr0 2.482634 1_555
O0 Sr3 3.125180 1_565
O1 Sr2 2.482634 1_555
O1 Sr3 3.125180 1_555
O2 Sr3 2.482634 1_555
O2 Sr0 3.125180 1_556
O3 Sr3 2.482634 1_555
O3 Sr1 3.125180 1_556
O4 Sr0 2.482634 1_656
O4 Sr2 3.125180 1_555
O5 Sr1 2.482634 1_566
O5 Sr2 3.125180 1_555
O6 Sr3 2.482634 1_665
O6 Sr2 3.125180 1_555
O7 Sr1 2.482634 1_555
O7 Sr0 3.125180 1_655
O8 Sr0 2.482634 1_555
O8 Sr1 3.125180 1_565
O9 Sr2 2.482634 1_555
O9 Sr0 3.125180 1_555
O10 Sr1 2.482634 1_555
O10 Sr3 3.125180 1_655
O11 Sr2 2.482634 1_555
O11 Sr1 3.125180 1_555
