# generated using pymatgen
data_Ti3N2O3
_symmetry_space_group_name_H-M   'P 1'
_cell_length_a   5.29433934
_cell_length_b   5.29433934
_cell_length_c   9.97358443
_cell_angle_alpha   89.53075186
_cell_angle_beta   89.53075186
_cell_angle_gamma   42.25405392
_symmetry_Int_Tables_number   1
_chemical_formula_structural   Ti3N2O3
_chemical_formula_sum   'Ti6 N4 O6'
_cell_volume   187.97416678
_cell_formula_units_Z   2
loop_
 _symmetry_equiv_pos_site_id
 _symmetry_equiv_pos_as_xyz
  1  'x, y, z'
loop_
 _atom_site_type_symbol
 _atom_site_label
 _atom_site_symmetry_multiplicity
 _atom_site_fract_x
 _atom_site_fract_y
 _atom_site_fract_z
 _atom_site_occupancy
  Ti  Ti0  1  0.80830000  0.80830000  0.24868800  1
  Ti  Ti1  1  0.85576000  0.85576000  0.94706300  1
  Ti  Ti2  1  0.86530400  0.86530400  0.55304600  1
  Ti  Ti3  1  0.20246700  0.20246700  0.74718900  1
  Ti  Ti4  1  0.14394800  0.14394800  0.04810800  1
  Ti  Ti5  1  0.13532500  0.13532500  0.44321700  1
  N  N0  1  0.69398900  0.69398900  0.07688500  1
  N  N1  1  0.95417500  0.95417500  0.38174500  1
  N  N2  1  0.30526900  0.30526900  0.57525300  1
  N  N3  1  0.30748200  0.30748200  0.92205500  1
  O  O0  1  0.68477800  0.68477800  0.42431700  1
  O  O1  1  0.75269800  0.75269800  0.75291100  1
  O  O2  1  0.95417200  0.95417200  0.11764300  1
  O  O3  1  0.24583300  0.24583300  0.25805100  1
  O  O4  1  0.04586300  0.04586300  0.88276000  1
  O  O5  1  0.04462900  0.04462900  0.62106800  1
loop_
_geom_bond_atom_site_label_1
_geom_bond_atom_site_label_2
_geom_bond_distance
_geom_bond_site_symmetry_2
N0 Ti4 1.992653 1_655
N0 Ti4 1.992653 1_565
N0 Ti1 2.047713 1_554
N0 Ti0 2.060283 1_555
N1 Ti5 1.896422 1_665
N1 Ti2 1.913916 1_555
N1 Ti0 1.967372 1_555
N2 Ti3 1.985196 1_555
N2 Ti2 2.009942 1_455
N2 Ti2 2.009942 1_545
N2 Ti5 2.142527 1_555
N3 Ti1 1.983227 1_455
N3 Ti1 1.983227 1_545
N3 Ti3 2.036979 1_555
N3 Ti4 2.038092 1_556
O0 Ti5 1.978385 1_565
O0 Ti5 1.978385 1_655
O0 Ti0 2.125842 1_555
O0 Ti2 2.206314 1_555
O1 Ti3 1.972666 1_655
O1 Ti3 1.972666 1_565
O1 Ti1 2.195546 1_555
O1 Ti2 2.274113 1_555
O2 Ti0 1.936742 1_555
O2 Ti1 1.966785 1_554
O2 Ti4 1.992871 1_665
O3 Ti0 2.007459 1_455
O3 Ti0 2.007459 1_545
O3 Ti5 2.136935 1_555
O3 Ti4 2.331098 1_555
O4 Ti4 1.919938 1_556
O4 Ti1 1.978808 1_445
O4 Ti3 2.045488 1_555
O5 Ti2 1.902222 1_445
O5 Ti5 1.980142 1_555
O5 Ti3 2.011726 1_555
