# generated using pymatgen
data_La3MnAlS7
_symmetry_space_group_name_H-M   'P 1'
_cell_length_a   10.24816728
_cell_length_b   10.24816728
_cell_length_c   6.03177500
_cell_angle_alpha   90.00000000
_cell_angle_beta   90.00000000
_cell_angle_gamma   119.99999536
_symmetry_Int_Tables_number   1
_chemical_formula_structural   La3MnAlS7
_chemical_formula_sum   'La6 Mn2 Al2 S14'
_cell_volume   548.61565533
_cell_formula_units_Z   2
loop_
 _symmetry_equiv_pos_site_id
 _symmetry_equiv_pos_as_xyz
  1  'x, y, z'
loop_
 _atom_site_type_symbol
 _atom_site_label
 _atom_site_symmetry_multiplicity
 _atom_site_fract_x
 _atom_site_fract_y
 _atom_site_fract_z
 _atom_site_occupancy
  La  La0  1  0.13996800  0.37470500  0.23458400  1
  La  La1  1  0.86003200  0.62529500  0.73458400  1
  La  La2  1  0.62529500  0.76526300  0.23458400  1
  La  La3  1  0.23473700  0.86003200  0.23458400  1
  La  La4  1  0.76526300  0.13996800  0.73458400  1
  La  La5  1  0.37470500  0.23473700  0.73458400  1
  Mn  Mn0  1  0.00000000  0.00000000  0.99493400  1
  Mn  Mn1  1  0.00000000  0.00000000  0.49493400  1
  Al  Al0  1  0.33333300  0.66666700  0.65499800  1
  Al  Al1  1  0.66666700  0.33333300  0.15499800  1
  S  S0  1  0.33333300  0.66666700  0.02442900  1
  S  S1  1  0.66666700  0.33333300  0.52442900  1
  S  S2  1  0.08886200  0.23554200  0.75870300  1
  S  S3  1  0.91113800  0.76445800  0.25870300  1
  S  S4  1  0.76445800  0.85332000  0.75870300  1
  S  S5  1  0.14668000  0.91113800  0.75870300  1
  S  S6  1  0.85332000  0.08886200  0.25870300  1
  S  S7  1  0.23554200  0.14668000  0.25870300  1
  S  S8  1  0.41857600  0.51990100  0.50928600  1
  S  S9  1  0.58142400  0.48009900  0.00928600  1
  S  S10  1  0.48009900  0.89867500  0.50928600  1
  S  S11  1  0.10132500  0.58142400  0.50928600  1
  S  S12  1  0.89867500  0.41857600  0.00928600  1
  S  S13  1  0.51990100  0.10132500  0.00928600  1
loop_
_geom_bond_atom_site_label_1
_geom_bond_atom_site_label_2
_geom_bond_distance
_geom_bond_site_symmetry_2
La0 S11 2.868667 1_555
La0 S0 2.925239 1_555
La0 S6 2.937106 1_455
La0 S7 2.954683 1_555
La0 S8 2.977132 1_555
La0 S12 3.045560 1_455
La0 S2 3.130583 1_554
La0 S2 3.399347 1_555
La1 S12 2.868667 1_556
La1 S1 2.925239 1_555
La1 S5 2.937106 1_655
La1 S4 2.954683 1_555
La1 S9 2.977132 1_556
La1 S11 3.045560 1_655
La1 S3 3.130583 1_555
La1 S3 3.399347 1_556
La2 S8 2.868667 1_555
La2 S0 2.925241 1_555
La2 S3 2.937106 1_555
La2 S6 2.954683 1_565
La2 S10 2.977132 1_555
La2 S9 3.045560 1_555
La2 S4 3.130583 1_554
La2 S4 3.399347 1_555
La3 S10 2.868667 1_555
La3 S0 2.925232 1_555
La3 S7 2.937106 1_565
La3 S3 2.954683 1_455
La3 S11 2.977132 1_555
La3 S13 3.045561 1_565
La3 S5 3.130583 1_554
La3 S5 3.399347 1_555
La4 S13 2.868667 1_556
La4 S1 2.925232 1_555
La4 S4 2.937106 1_545
La4 S2 2.954683 1_655
La4 S12 2.977132 1_556
La4 S10 3.045561 1_545
La4 S6 3.130583 1_555
La4 S6 3.399347 1_556
La5 S9 2.868667 1_556
La5 S1 2.925241 1_555
La5 S2 2.937106 1_555
La5 S5 2.954683 1_545
La5 S13 2.977132 1_556
La5 S8 3.045560 1_555
La5 S7 3.130583 1_555
La5 S7 3.399347 1_556
Mn0 S5 2.547191 1_545
Mn0 S2 2.547191 1_555
Mn0 S4 2.547191 1_445
Mn0 S6 2.643696 1_456
Mn0 S3 2.643696 1_446
Mn0 S7 2.643696 1_556
Mn1 S6 2.547191 1_455
Mn1 S3 2.547191 1_445
Mn1 S7 2.547191 1_555
Mn1 S5 2.643696 1_545
Mn1 S2 2.643696 1_555
Mn1 S4 2.643696 1_445
Al0 S0 2.228325 1_556
Al0 S11 2.260926 1_555
Al0 S10 2.260928 1_555
Al0 S8 2.260935 1_555
Al1 S1 2.228325 1_555
Al1 S12 2.260926 1_555
Al1 S13 2.260928 1_555
Al1 S9 2.260935 1_555
