# generated using pymatgen
data_Lu2TlAg
_symmetry_space_group_name_H-M   'P 1'
_cell_length_a   5.10788885
_cell_length_b   5.10788885
_cell_length_c   5.10788885
_cell_angle_alpha   60.00000000
_cell_angle_beta   60.00000000
_cell_angle_gamma   60.00000000
_symmetry_Int_Tables_number   1
_chemical_formula_structural   Lu2TlAg
_chemical_formula_sum   'Lu2 Tl1 Ag1'
_cell_volume   94.23436658
_cell_formula_units_Z   1
loop_
 _symmetry_equiv_pos_site_id
 _symmetry_equiv_pos_as_xyz
  1  'x, y, z'
loop_
 _atom_site_type_symbol
 _atom_site_label
 _atom_site_symmetry_multiplicity
 _atom_site_fract_x
 _atom_site_fract_y
 _atom_site_fract_z
 _atom_site_occupancy
  Lu  Lu0  1  -0.00000000  0.00000000  0.00000000  1
  Lu  Lu1  1  0.50000100  0.50000100  0.50000100  1
  Tl  Tl0  1  0.75000000  0.75000000  0.75000000  1
  Ag  Ag0  1  0.24999900  0.24999900  0.24999900  1
loop_
_geom_bond_atom_site_label_1
_geom_bond_atom_site_label_2
_geom_bond_distance
_geom_bond_site_symmetry_2
Lu0 Tl0 3.127930 1_454
Lu0 Tl0 3.127930 1_544
Lu0 Tl0 3.127930 1_445
Lu0 Tl0 3.127930 1_444
Lu1 Tl0 3.127918 1_555
Lu1 Tl0 3.127935 1_554
Lu1 Tl0 3.127935 1_455
Lu1 Tl0 3.127935 1_545
Ag0 Lu0 3.127918 1_555
Ag0 Lu1 3.127922 1_545
Ag0 Lu1 3.127922 1_455
Ag0 Lu1 3.127922 1_554
Ag0 Lu0 3.127935 1_556
Ag0 Lu0 3.127935 1_655
Ag0 Lu0 3.127935 1_565
Ag0 Lu1 3.127955 1_555
