# generated using pymatgen
data_LiMnPHO5
_symmetry_space_group_name_H-M   'P 1'
_cell_length_a   5.20991600
_cell_length_b   5.41743521
_cell_length_c   7.40450533
_cell_angle_alpha   110.43780846
_cell_angle_beta   104.20636286
_cell_angle_gamma   99.40969308
_symmetry_Int_Tables_number   1
_chemical_formula_structural   LiMnPHO5
_chemical_formula_sum   'Li2 Mn2 P2 H2 O10'
_cell_volume   182.56067728
_cell_formula_units_Z   2
loop_
 _symmetry_equiv_pos_site_id
 _symmetry_equiv_pos_as_xyz
  1  'x, y, z'
loop_
 _atom_site_type_symbol
 _atom_site_label
 _atom_site_symmetry_multiplicity
 _atom_site_fract_x
 _atom_site_fract_y
 _atom_site_fract_z
 _atom_site_occupancy
  Li  Li0  1  0.42739000  0.77867200  0.82496600  1
  Li  Li1  1  0.57261000  0.22132800  0.17503400  1
  Mn  Mn0  1  0.50000000  0.50000000  0.50000000  1
  Mn  Mn1  1  0.00000000  0.00000000  0.00000000  1
  P  P0  1  0.07994700  0.39248500  0.23651500  1
  P  P1  1  0.92005300  0.60751500  0.76348500  1
  H  H0  1  0.31585300  0.61244000  0.32549100  1
  H  H1  1  0.68414700  0.38756000  0.67450900  1
  O  O0  1  0.42118000  0.21141200  0.73803600  1
  O  O1  1  0.88570500  0.40022900  0.38551700  1
  O  O2  1  0.04241900  0.01323100  0.65484000  1
  O  O3  1  0.55178400  0.66171000  0.07675500  1
  O  O4  1  0.98343600  0.51378300  0.12832400  1
  O  O5  1  0.01656400  0.48621700  0.87167600  1
  O  O6  1  0.44821600  0.33829000  0.92324500  1
  O  O7  1  0.95758100  0.98676900  0.34516000  1
  O  O8  1  0.11429500  0.59977100  0.61448300  1
  O  O9  1  0.57882000  0.78858800  0.26196400  1
loop_
_geom_bond_atom_site_label_1
_geom_bond_atom_site_label_2
_geom_bond_distance
_geom_bond_site_symmetry_2
Li0 O8 1.791496 1_555
Li0 O3 2.159544 1_556
Li1 O1 1.791496 1_555
Li1 O6 2.159544 1_554
Mn1 P1 2.124450 1_444
Mn1 P0 2.124450 1_555
Mn1 O2 2.643060 1_554
Mn1 O7 2.643060 1_445
H0 P0 1.392812 1_555
H0 Mn0 1.758820 1_555
H1 P1 1.392812 1_555
H1 Mn0 1.758820 1_555
O0 O6 1.260238 1_555
O0 O2 1.916983 1_555
O1 P0 1.665138 1_655
O3 O9 1.260238 1_555
O3 O6 1.628495 1_554
O4 P0 1.266638 1_655
O5 P1 1.266638 1_455
O7 O9 1.916983 1_555
O8 P1 1.665138 1_455
