# generated using pymatgen
data_LiHoHg2
_symmetry_space_group_name_H-M   'P 1'
_cell_length_a   4.95968047
_cell_length_b   4.95968081
_cell_length_c   4.95968061
_cell_angle_alpha   60.00056981
_cell_angle_beta   60.00057462
_cell_angle_gamma   60.00056849
_symmetry_Int_Tables_number   1
_chemical_formula_structural   LiHoHg2
_chemical_formula_sum   'Li1 Ho1 Hg2'
_cell_volume   86.26840302
_cell_formula_units_Z   1
loop_
 _symmetry_equiv_pos_site_id
 _symmetry_equiv_pos_as_xyz
  1  'x, y, z'
loop_
 _atom_site_type_symbol
 _atom_site_label
 _atom_site_symmetry_multiplicity
 _atom_site_fract_x
 _atom_site_fract_y
 _atom_site_fract_z
 _atom_site_occupancy
  Li  Li0  1  0.74999922  0.74999925  0.74999938  1
  Ho  Ho0  1  0.24999933  0.24999923  0.24999885  1
  Hg  Hg0  1  -0.00000002  0.00000000  0.00000015  1
  Hg  Hg1  1  0.50000047  0.50000052  0.50000063  1
loop_
_geom_bond_atom_site_label_1
_geom_bond_atom_site_label_2
_geom_bond_distance
_geom_bond_site_symmetry_2
Hg0 Ho0 3.037148 1_555
Hg0 Li0 3.037168 1_444
Hg0 Li0 3.037190 1_544
Hg0 Li0 3.037190 1_445
Hg0 Li0 3.037191 1_454
Hg0 Ho0 3.037196 1_455
Hg0 Ho0 3.037197 1_545
Hg0 Ho0 3.037199 1_554
Hg1 Li0 3.037143 1_555
Hg1 Ho0 3.037176 1_555
Hg1 Ho0 3.037186 1_556
Hg1 Ho0 3.037188 1_565
Hg1 Ho0 3.037189 1_655
Hg1 Li0 3.037199 1_455
Hg1 Li0 3.037199 1_554
Hg1 Li0 3.037199 1_545
