# generated using pymatgen
data_LiMnPO4
_symmetry_space_group_name_H-M   'P 1'
_cell_length_a   8.59759193
_cell_length_b   8.59759193
_cell_length_c   7.48912000
_cell_angle_alpha   90.00000000
_cell_angle_beta   90.00000000
_cell_angle_gamma   119.99999944
_symmetry_Int_Tables_number   1
_chemical_formula_structural   LiMnPO4
_chemical_formula_sum   'Li6 Mn6 P6 O24'
_cell_volume   479.41882129
_cell_formula_units_Z   6
loop_
 _symmetry_equiv_pos_site_id
 _symmetry_equiv_pos_as_xyz
  1  'x, y, z'
loop_
 _atom_site_type_symbol
 _atom_site_label
 _atom_site_symmetry_multiplicity
 _atom_site_fract_x
 _atom_site_fract_y
 _atom_site_fract_z
 _atom_site_occupancy
  Li  Li0  1  0.01623200  0.67956600  0.41391000  1
  Li  Li1  1  0.32043400  0.33666500  0.41391000  1
  Li  Li2  1  0.66333500  0.98376800  0.41391000  1
  Li  Li3  1  0.33666500  0.01623200  0.91391000  1
  Li  Li4  1  0.67956600  0.66333500  0.91391000  1
  Li  Li5  1  0.98376800  0.32043400  0.91391000  1
  Mn  Mn0  1  0.33333300  0.66666700  0.27454300  1
  Mn  Mn1  1  0.33333300  0.66666700  0.69872600  1
  Mn  Mn2  1  0.00000000  0.00000000  0.19344000  1
  Mn  Mn3  1  0.00000000  0.00000000  0.69344000  1
  Mn  Mn4  1  0.66666700  0.33333300  0.77454300  1
  Mn  Mn5  1  0.66666700  0.33333300  0.19872600  1
  P  P0  1  0.03360500  0.68469300  0.00022200  1
  P  P1  1  0.31530700  0.34891200  0.00022200  1
  P  P2  1  0.65108800  0.96639500  0.00022200  1
  P  P3  1  0.34891200  0.03360500  0.50022200  1
  P  P4  1  0.68469300  0.65108800  0.50022200  1
  P  P5  1  0.96639500  0.31530700  0.50022200  1
  O  O0  1  0.13855000  0.93111100  0.49346200  1
  O  O1  1  0.13622800  0.72754700  0.17986500  1
  O  O2  1  0.17320100  0.75098300  0.84710500  1
  O  O3  1  0.10772200  0.52034800  0.48816900  1
  O  O4  1  0.41262600  0.89227800  0.48816900  1
  O  O5  1  0.06888900  0.20743900  0.49346200  1
  O  O6  1  0.24901700  0.42221800  0.84710500  1
  O  O7  1  0.27245300  0.40868100  0.17986500  1
  O  O8  1  0.20743900  0.13855000  0.99346200  1
  O  O9  1  0.59131900  0.86377200  0.17986500  1
  O  O10  1  0.57778200  0.82679900  0.84710500  1
  O  O11  1  0.47965200  0.58737400  0.48816900  1
  O  O12  1  0.52034800  0.41262600  0.98816900  1
  O  O13  1  0.42221800  0.17320100  0.34710500  1
  O  O14  1  0.40868100  0.13622800  0.67986500  1
  O  O15  1  0.79256100  0.86145000  0.49346200  1
  O  O16  1  0.72754700  0.59131900  0.67986500  1
  O  O17  1  0.75098300  0.57778200  0.34710500  1
  O  O18  1  0.93111100  0.79256100  0.99346200  1
  O  O19  1  0.58737400  0.10772200  0.98816900  1
  O  O20  1  0.89227800  0.47965200  0.98816900  1
  O  O21  1  0.82679900  0.24901700  0.34710500  1
  O  O22  1  0.86377200  0.27245300  0.67986500  1
  O  O23  1  0.86145000  0.06888900  0.99346200  1
loop_
_geom_bond_atom_site_label_1
_geom_bond_atom_site_label_2
_geom_bond_distance
_geom_bond_site_symmetry_2
Li0 O0 1.965635 1_555
Li0 O3 1.969426 1_555
Li0 O1 1.970081 1_555
Li0 O17 2.054541 1_455
Li1 O5 1.965635 1_555
Li1 O11 1.969433 1_555
Li1 O7 1.970084 1_555
Li1 O13 2.054533 1_555
Li2 O15 1.965628 1_555
Li2 O4 1.969434 1_555
Li2 O9 1.970081 1_555
Li2 O21 2.054539 1_565
Li3 O8 1.965628 1_555
Li3 O19 1.969434 1_555
Li3 O14 1.970081 1_555
Li3 O2 2.054539 1_545
Li4 O18 1.965635 1_555
Li4 O12 1.969433 1_555
Li4 O16 1.970084 1_555
Li4 O10 2.054533 1_555
Li5 O23 1.965635 1_555
Li5 O20 1.969426 1_555
Li5 O22 1.970081 1_555
Li5 O6 2.054541 1_655
Mn0 O1 2.129671 1_555
Mn0 O9 2.129677 1_555
Mn0 O7 2.129679 1_555
Mn0 O4 2.337619 1_555
Mn0 O3 2.337620 1_555
Mn0 O11 2.337625 1_555
Mn1 O2 2.157265 1_555
Mn1 O10 2.157271 1_555
Mn1 O6 2.157272 1_555
Mn1 O4 2.321949 1_555
Mn1 O3 2.321950 1_555
Mn1 O11 2.321955 1_555
Mn2 O23 2.172153 1_454
Mn2 O18 2.172153 1_444
Mn2 O8 2.172153 1_554
Mn2 O0 2.742960 1_545
Mn2 O5 2.742960 1_555
Mn2 O15 2.742960 1_445
Mn3 O0 2.172153 1_545
Mn3 O5 2.172153 1_555
Mn3 O15 2.172153 1_445
Mn3 O23 2.742960 1_455
Mn3 O18 2.742960 1_445
Mn3 O8 2.742960 1_555
Mn4 O22 2.129671 1_555
Mn4 O14 2.129677 1_555
Mn4 O16 2.129679 1_555
Mn4 O19 2.337619 1_555
Mn4 O20 2.337620 1_555
Mn4 O12 2.337625 1_555
Mn5 O21 2.157265 1_555
Mn5 O13 2.157271 1_555
Mn5 O17 2.157272 1_555
Mn5 O19 2.321949 1_554
Mn5 O20 2.321950 1_554
Mn5 O12 2.321955 1_554
O0 P3 1.567288 1_565
O1 P0 1.548921 1_555
O2 P0 1.547966 1_556
O3 P5 1.565317 1_455
O4 P3 1.565317 1_565
O5 P5 1.567288 1_455
O6 P1 1.547966 1_556
O7 P1 1.548921 1_555
O8 P1 1.567288 1_556
O9 P2 1.548921 1_555
O10 P2 1.547966 1_556
O11 P4 1.565317 1_555
O12 P1 1.565317 1_556
O13 P3 1.547966 1_555
O14 P3 1.548921 1_555
O15 P4 1.567288 1_555
O16 P4 1.548921 1_555
O17 P4 1.547966 1_555
O18 P0 1.567288 1_656
O19 P2 1.565317 1_546
O20 P0 1.565317 1_656
O21 P5 1.547966 1_555
O22 P5 1.548921 1_555
O23 P2 1.567288 1_546
