# generated using pymatgen
data_Na3V5O23
_symmetry_space_group_name_H-M   'P 1'
_cell_length_a   8.43521700
_cell_length_b   10.14728986
_cell_length_c   11.98278171
_cell_angle_alpha   107.18790843
_cell_angle_beta   102.14392461
_cell_angle_gamma   98.45851441
_symmetry_Int_Tables_number   1
_chemical_formula_structural   Na3V5O23
_chemical_formula_sum   'Na6 V10 O46'
_cell_volume   933.57528774
_cell_formula_units_Z   2
loop_
 _symmetry_equiv_pos_site_id
 _symmetry_equiv_pos_as_xyz
  1  'x, y, z'
loop_
 _atom_site_type_symbol
 _atom_site_label
 _atom_site_symmetry_multiplicity
 _atom_site_fract_x
 _atom_site_fract_y
 _atom_site_fract_z
 _atom_site_occupancy
  Na  Na0  1  0.45162100  0.21163700  0.65377800  1
  Na  Na1  1  0.54837900  0.78836300  0.34622200  1
  Na  Na2  1  0.45789400  0.26042200  0.03356600  1
  Na  Na3  1  0.54210600  0.73957800  0.96643400  1
  Na  Na4  1  0.24703600  0.60771900  0.47474100  1
  Na  Na5  1  0.75296400  0.39228100  0.52525900  1
  V  V0  1  0.32631600  0.18947800  0.25876000  1
  V  V1  1  0.67368400  0.81052200  0.74124000  1
  V  V2  1  0.18362700  0.98332600  0.98373700  1
  V  V3  1  0.81637300  0.01667400  0.01626300  1
  V  V4  1  0.96277900  0.20705500  0.28193200  1
  V  V5  1  0.03722100  0.79294500  0.71806800  1
  V  V6  1  0.09234400  0.29266100  0.06820400  1
  V  V7  1  0.90765600  0.70733900  0.93179600  1
  V  V8  1  0.05156000  0.90672900  0.20029900  1
  V  V9  1  0.94844000  0.09327100  0.79970100  1
  O  O0  1  0.05696000  0.08503600  0.11243500  1
  O  O1  1  0.94304000  0.91496400  0.88756500  1
  O  O2  1  0.30113700  0.31749900  0.17154200  1
  O  O3  1  0.69886300  0.68250100  0.82845800  1
  O  O4  1  0.11085600  0.70641300  0.60816500  1
  O  O5  1  0.88914400  0.29358700  0.39183500  1
  O  O6  1  0.16324100  0.14997800  0.93489200  1
  O  O7  1  0.83675900  0.85002200  0.06510800  1
  O  O8  1  0.01005300  0.66035400  0.80691500  1
  O  O9  1  0.98994700  0.33964600  0.19308500  1
  O  O10  1  0.04887000  0.77421900  0.25212400  1
  O  O11  1  0.95113000  0.22578100  0.74787600  1
  O  O12  1  0.36645700  0.07230600  0.09954500  1
  O  O13  1  0.63354300  0.92769400  0.90045500  1
  O  O14  1  0.12207100  0.42726800  0.02220600  1
  O  O15  1  0.87792900  0.57273200  0.97779400  1
  O  O16  1  0.24116400  0.88646000  0.85967900  1
  O  O17  1  0.75883600  0.11354000  0.14032100  1
  O  O18  1  0.12243400  0.83191300  0.04556700  1
  O  O19  1  0.87756600  0.16808700  0.95443300  1
  O  O20  1  0.26473100  0.01316000  0.27555500  1
  O  O21  1  0.73526900  0.98684000  0.72444500  1
  O  O22  1  0.19071300  0.26405600  0.35087800  1
  O  O23  1  0.80928700  0.73594400  0.64912200  1
  O  O24  1  0.04353900  0.96911600  0.70186600  1
  O  O25  1  0.95646100  0.03088400  0.29813400  1
  O  O26  1  0.48725700  0.74225600  0.64423000  1
  O  O27  1  0.51274300  0.25774400  0.35577000  1
  O  O28  1  0.32295600  0.43283700  0.58308100  1
  O  O29  1  0.67704400  0.56716300  0.41691900  1
  O  O30  1  0.51463500  0.14819200  0.83021600  1
  O  O31  1  0.48536500  0.85180800  0.16978400  1
  O  O32  1  0.30259200  0.53113500  0.83027900  1
  O  O33  1  0.69740800  0.46886500  0.16972100  1
  O  O34  1  0.99618000  0.54055400  0.31407100  1
  O  O35  1  0.00382000  0.45944600  0.68592900  1
  O  O36  1  0.52811500  0.56924900  0.38027500  1
  O  O37  1  0.47188500  0.43075100  0.61972500  1
  O  O38  1  0.37724000  0.73745800  0.12939800  1
  O  O39  1  0.62276000  0.26254200  0.87060200  1
  O  O40  1  0.37006900  0.43366700  0.84159700  1
  O  O41  1  0.62993100  0.56633300  0.15840300  1
  O  O42  1  0.34012800  0.91210500  0.48382100  1
  O  O43  1  0.65987200  0.08789500  0.51617900  1
  O  O44  1  0.26102200  0.00121800  0.52067900  1
  O  O45  1  0.73897800  0.99878200  0.47932100  1
loop_
_geom_bond_atom_site_label_1
_geom_bond_atom_site_label_2
_geom_bond_distance
_geom_bond_site_symmetry_2
Na0 O44 2.363508 1_555
Na0 O37 2.364959 1_555
Na0 O30 2.366266 1_555
Na0 O39 2.551587 1_555
Na0 O43 2.832835 1_555
Na0 O40 2.953804 1_555
Na1 O45 2.363508 1_555
Na1 O36 2.364959 1_555
Na1 O31 2.366266 1_555
Na1 O38 2.551587 1_555
Na1 O42 2.832835 1_555
Na1 O41 2.953804 1_555
Na2 O2 2.323048 1_555
Na2 O12 2.362013 1_555
Na2 O6 2.447956 1_554
Na2 O30 2.544504 1_554
Na2 O33 2.556158 1_555
Na2 O39 2.627992 1_554
Na3 O3 2.323048 1_555
Na3 O13 2.362013 1_555
Na3 O7 2.447956 1_556
Na3 O31 2.544504 1_556
Na3 O32 2.556158 1_555
Na3 O38 2.627992 1_556
Na4 O4 2.245763 1_555
Na4 O34 2.394770 1_455
Na4 O26 2.431154 1_555
Na4 O28 2.567237 1_555
Na4 O36 2.862780 1_555
Na5 O5 2.245763 1_555
Na5 O35 2.394770 1_655
Na5 O27 2.431154 1_555
Na5 O29 2.567237 1_555
Na5 O37 2.862780 1_555
O0 V3 2.014234 1_455
O0 V2 2.159181 1_544
O0 V6 2.313060 1_555
O0 V8 2.346498 1_545
O0 V4 2.402356 1_455
O0 V0 2.424271 1_555
O1 V2 2.014234 1_655
O1 V3 2.159181 1_566
O1 V7 2.313060 1_555
O1 V9 2.346498 1_565
O1 V5 2.402356 1_655
O1 V1 2.424271 1_555
O2 V6 1.861751 1_555
O2 V0 1.901348 1_555
O3 V7 1.861751 1_555
O3 V1 1.901348 1_555
O4 V5 1.646911 1_555
O5 V4 1.646911 1_555
O6 V2 1.964694 1_545
O6 V9 2.036115 1_455
O6 V6 2.072553 1_556
O7 V3 1.964694 1_565
O7 V8 2.036115 1_655
O7 V7 2.072553 1_554
O8 V7 1.859015 1_455
O8 V5 1.963335 1_555
O9 V6 1.859015 1_655
O9 V4 1.963335 1_555
O10 V8 1.638481 1_555
O11 V9 1.638481 1_555
O12 V2 1.751792 1_544
O12 V0 2.053717 1_555
O13 V3 1.751792 1_566
O13 V1 2.053717 1_555
O14 V6 1.623174 1_555
O15 V7 1.623174 1_555
O16 V2 1.729705 1_555
O16 V5 2.019714 1_555
O17 V3 1.729705 1_555
O17 V4 2.019714 1_555
O18 V2 1.943283 1_554
O18 V7 2.001834 1_454
O18 V8 2.034576 1_555
O19 V3 1.943283 1_556
O19 V6 2.001834 1_656
O19 V9 2.034576 1_555
O20 V8 1.839501 1_545
O20 V0 1.869435 1_555
O21 V9 1.839501 1_565
O21 V1 1.869435 1_555
O22 V0 1.841653 1_555
O22 V4 1.853611 1_455
O23 V1 1.841653 1_555
O23 V5 1.853611 1_655
O24 V5 1.848702 1_555
O24 V9 1.850712 1_465
O25 V4 1.848702 1_555
O25 V8 1.850712 1_645
O26 V1 1.654864 1_555
O27 V0 1.654864 1_555
O28 O37 1.246052 1_555
O29 O36 1.246052 1_555
O30 O39 1.258382 1_555
O31 O38 1.258382 1_555
O32 O40 1.238128 1_555
O33 O41 1.238128 1_555
O42 O44 1.234289 1_565
O43 O45 1.234289 1_545
