# generated using pymatgen
data_Yb2CdIn
_symmetry_space_group_name_H-M   'P 1'
_cell_length_a   5.38474118
_cell_length_b   5.38474118
_cell_length_c   5.38474118
_cell_angle_alpha   60.00000000
_cell_angle_beta   60.00000000
_cell_angle_gamma   60.00000000
_symmetry_Int_Tables_number   1
_chemical_formula_structural   Yb2CdIn
_chemical_formula_sum   'Yb2 Cd1 In1'
_cell_volume   110.40265098
_cell_formula_units_Z   1
loop_
 _symmetry_equiv_pos_site_id
 _symmetry_equiv_pos_as_xyz
  1  'x, y, z'
loop_
 _atom_site_type_symbol
 _atom_site_label
 _atom_site_symmetry_multiplicity
 _atom_site_fract_x
 _atom_site_fract_y
 _atom_site_fract_z
 _atom_site_occupancy
  Yb  Yb0  1  0.25000000  0.25000000  0.25000000  1
  Yb  Yb1  1  0.75000000  0.75000000  0.75000000  1
  Cd  Cd0  1  0.50000000  0.50000000  0.50000000  1
  In  In0  1  0.00000000  0.00000000  0.00000000  1
loop_
_geom_bond_atom_site_label_1
_geom_bond_atom_site_label_2
_geom_bond_distance
_geom_bond_site_symmetry_2
Cd0 Yb1 3.297467 1_455
Cd0 Yb0 3.297467 1_555
Cd0 Yb0 3.297467 1_556
Cd0 Yb1 3.297467 1_545
Cd0 Yb1 3.297467 1_555
Cd0 Yb1 3.297467 1_554
Cd0 Yb0 3.297467 1_655
Cd0 Yb0 3.297467 1_565
In0 Yb1 3.297467 1_544
In0 Yb0 3.297467 1_455
In0 Yb1 3.297467 1_445
In0 Yb1 3.297467 1_444
In0 Yb0 3.297467 1_545
In0 Yb0 3.297467 1_555
In0 Yb1 3.297467 1_454
In0 Yb0 3.297467 1_554
