# generated using pymatgen
data_ReRu3
_symmetry_space_group_name_H-M   'P 1'
_cell_length_a   5.44972405
_cell_length_b   5.44972524
_cell_length_c   4.30262650
_cell_angle_alpha   89.99999527
_cell_angle_beta   90.00000155
_cell_angle_gamma   119.99999763
_symmetry_Int_Tables_number   1
_chemical_formula_structural   ReRu3
_chemical_formula_sum   'Re2 Ru6'
_cell_volume   110.66579513
_cell_formula_units_Z   2
loop_
 _symmetry_equiv_pos_site_id
 _symmetry_equiv_pos_as_xyz
  1  'x, y, z'
loop_
 _atom_site_type_symbol
 _atom_site_label
 _atom_site_symmetry_multiplicity
 _atom_site_fract_x
 _atom_site_fract_y
 _atom_site_fract_z
 _atom_site_occupancy
  Re  Re0  1  0.33333395  0.66666879  0.75000166  1
  Re  Re1  1  0.66666699  0.33333451  0.24999654  1
  Ru  Ru0  1  0.16757048  0.33514095  0.25000010  1
  Ru  Ru1  1  0.66485827  0.83242876  0.25000011  1
  Ru  Ru2  1  0.16757036  0.83242873  0.25000005  1
  Ru  Ru3  1  0.83242888  0.66485767  0.74999989  1
  Ru  Ru4  1  0.33514151  0.16757027  0.74999978  1
  Ru  Ru5  1  0.83242956  0.16757032  0.74999987  1
loop_
_geom_bond_atom_site_label_1
_geom_bond_atom_site_label_2
_geom_bond_distance
_geom_bond_site_symmetry_2
Re0 Ru2 2.660127 1_556
Re0 Ru1 2.660129 1_556
Re0 Ru2 2.660138 1_555
Re0 Ru0 2.660139 1_556
Re0 Ru1 2.660140 1_555
Re0 Ru0 2.660150 1_555
Re0 Ru4 2.724863 1_565
Re0 Ru5 2.724868 1_565
Re0 Ru3 2.724873 1_455
Re0 Ru3 2.724878 1_555
Re0 Ru5 2.724884 1_455
Re0 Ru4 2.724889 1_555
Re1 Ru3 2.660120 1_554
Re1 Ru4 2.660127 1_554
Re1 Ru5 2.660130 1_554
Re1 Ru3 2.660143 1_555
Re1 Ru4 2.660149 1_555
Re1 Ru5 2.660153 1_555
Re1 Ru1 2.724868 1_555
Re1 Ru2 2.724869 1_655
Re1 Ru0 2.724874 1_555
Re1 Ru0 2.724877 1_655
Re1 Ru2 2.724882 1_545
Re1 Ru1 2.724884 1_545
Ru0 Ru5 2.670209 1_455
Ru0 Ru5 2.670211 1_454
Ru0 Ru4 2.670211 1_555
Ru0 Ru4 2.670213 1_554
Ru0 Ru1 2.710082 1_555
Ru0 Ru2 2.710082 1_555
Ru0 Ru2 2.739643 1_545
Ru0 Ru1 2.739643 1_445
Ru1 Ru5 2.670211 1_565
Ru1 Ru3 2.670211 1_555
Ru1 Ru5 2.670213 1_564
Ru1 Ru3 2.670213 1_554
Ru1 Ru2 2.710082 1_555
Ru1 Ru2 2.739642 1_655
Ru2 Ru3 2.670211 1_455
Ru2 Ru4 2.670211 1_565
Ru2 Ru3 2.670212 1_454
Ru2 Ru4 2.670213 1_564
Ru3 Ru4 2.710079 1_555
Ru3 Ru5 2.710081 1_555
Ru3 Ru5 2.739644 1_565
Ru3 Ru4 2.739645 1_665
Ru4 Ru5 2.710083 1_555
Ru4 Ru5 2.739642 1_455
