# generated using pymatgen
data_K2BaCdSb2
_symmetry_space_group_name_H-M   'P 1'
_cell_length_a   5.10501600
_cell_length_b   8.64847700
_cell_length_c   10.00531800
_cell_angle_alpha   90.00000000
_cell_angle_beta   90.00000000
_cell_angle_gamma   90.00000000
_symmetry_Int_Tables_number   1
_chemical_formula_structural   K2BaCdSb2
_chemical_formula_sum   'K4 Ba2 Cd2 Sb4'
_cell_volume   441.74092757
_cell_formula_units_Z   2
loop_
 _symmetry_equiv_pos_site_id
 _symmetry_equiv_pos_as_xyz
  1  'x, y, z'
loop_
 _atom_site_type_symbol
 _atom_site_label
 _atom_site_symmetry_multiplicity
 _atom_site_fract_x
 _atom_site_fract_y
 _atom_site_fract_z
 _atom_site_occupancy
  K  K0  1  0.50000000  0.02021200  0.42229700  1
  K  K1  1  0.00000000  0.34491800  0.33939000  1
  K  K2  1  0.50000000  0.52021200  0.57770300  1
  K  K3  1  0.00000000  0.84491800  0.66061000  1
  Ba  Ba0  1  0.00000000  0.99900800  0.04985700  1
  Ba  Ba1  1  0.00000000  0.49900800  0.95014300  1
  Cd  Cd0  1  0.50000000  0.15400100  0.82295000  1
  Cd  Cd1  1  0.50000000  0.65400100  0.17705000  1
  Sb  Sb0  1  0.00000000  0.23907100  0.68070000  1
  Sb  Sb1  1  0.50000000  0.28839100  0.11331000  1
  Sb  Sb2  1  0.00000000  0.73907100  0.31930000  1
  Sb  Sb3  1  0.50000000  0.78839100  0.88669000  1
loop_
_geom_bond_atom_site_label_1
_geom_bond_atom_site_label_2
_geom_bond_distance
_geom_bond_site_symmetry_2
K0 Sb2 3.672761 1_545
K0 Sb2 3.672761 1_645
K0 Sb1 3.864815 1_555
K1 Sb2 3.414744 1_555
K1 Sb1 3.445424 1_455
K1 Sb1 3.445424 1_555
K1 Sb0 3.535482 1_555
K2 Sb0 3.672761 1_655
K2 Sb0 3.672761 1_555
K2 Sb3 3.864815 1_555
K3 Sb0 3.414744 1_565
K3 Sb3 3.445424 1_455
K3 Sb3 3.445424 1_555
K3 Sb2 3.535482 1_555
Ba0 Sb2 3.510192 1_555
Ba0 Sb3 3.535307 1_454
Ba0 Sb3 3.535307 1_554
Ba0 Sb1 3.630699 1_565
Ba0 Sb1 3.630699 1_465
Ba0 Cd0 3.669641 1_464
Ba0 Cd0 3.669641 1_564
Ba0 Cd1 4.127687 1_555
Ba0 Cd1 4.127687 1_455
Ba1 Sb0 3.510192 1_555
Ba1 Sb1 3.535307 1_556
Ba1 Sb1 3.535307 1_456
Ba1 Sb3 3.630699 1_455
Ba1 Sb3 3.630699 1_555
Ba1 Cd1 3.669641 1_556
Ba1 Cd1 3.669641 1_456
Ba1 Cd0 4.127687 1_455
Ba1 Cd0 4.127687 1_555
Cd0 Sb0 3.013677 1_555
Cd0 Sb0 3.013677 1_655
Cd0 Sb1 3.129014 1_556
Cd0 Sb3 3.225642 1_545
Cd0 K2 4.006489 1_555
Cd0 K3 4.037199 1_645
Cd0 K3 4.037199 1_545
Cd0 K0 4.172310 1_555
Cd1 Sb2 3.013677 1_555
Cd1 Sb2 3.013677 1_655
Cd1 Sb3 3.129014 1_554
Cd1 Sb1 3.225642 1_555
Cd1 K0 4.006489 1_565
Cd1 K1 4.037199 1_555
Cd1 K1 4.037199 1_655
Cd1 K2 4.172310 1_555
