# generated using pymatgen
data_PuAu3
_symmetry_space_group_name_H-M   'P 1'
_cell_length_a   6.49289675
_cell_length_b   6.44660051
_cell_length_c   4.70743182
_cell_angle_alpha   90.00000000
_cell_angle_beta   90.00000000
_cell_angle_gamma   119.69509706
_symmetry_Int_Tables_number   1
_chemical_formula_structural   PuAu3
_chemical_formula_sum   'Pu2 Au6'
_cell_volume   171.16307137
_cell_formula_units_Z   2
loop_
 _symmetry_equiv_pos_site_id
 _symmetry_equiv_pos_as_xyz
  1  'x, y, z'
loop_
 _atom_site_type_symbol
 _atom_site_label
 _atom_site_symmetry_multiplicity
 _atom_site_fract_x
 _atom_site_fract_y
 _atom_site_fract_z
 _atom_site_occupancy
  Pu  Pu0  1  0.33417586  0.66758123  0.75000000  1
  Pu  Pu1  1  0.66580480  0.33379164  0.25000000  1
  Au  Au0  1  0.15458569  0.30976530  0.25000000  1
  Au  Au1  1  0.68908479  0.84475767  0.25000000  1
  Au  Au2  1  0.15462931  0.84410198  0.25000000  1
  Au  Au3  1  0.84568502  0.68944956  0.75000000  1
  Au  Au4  1  0.31090820  0.15540288  0.75000000  1
  Au  Au5  1  0.84512732  0.15514775  0.75000000  1
loop_
_geom_bond_atom_site_label_1
_geom_bond_atom_site_label_2
_geom_bond_distance
_geom_bond_site_symmetry_2
Au0 Au4 2.925940 1_554
Au0 Au4 2.925940 1_555
Au0 Au5 2.930262 1_455
Au0 Au5 2.930262 1_454
Au0 Au2 3.002086 1_545
Au0 Au1 3.024021 1_445
Au0 Pu0 3.091214 1_554
Au0 Pu0 3.091214 1_555
Au0 Pu1 3.245354 1_555
Au0 Pu1 3.253117 1_455
Au1 Au5 2.926045 1_565
Au1 Au5 2.926045 1_564
Au1 Au3 2.929997 1_555
Au1 Au3 2.929997 1_554
Au1 Au2 3.024829 1_655
Au1 Pu0 3.089826 1_554
Au1 Pu0 3.089826 1_555
Au1 Pu1 3.221791 1_555
Au1 Pu1 3.230156 1_565
Au2 Au3 2.928538 1_455
Au2 Au3 2.928538 1_454
Au2 Au4 2.929068 1_564
Au2 Au4 2.929068 1_565
Au2 Pu0 3.083557 1_555
Au2 Pu0 3.083557 1_554
Au2 Pu1 3.248256 1_455
Au2 Pu1 3.255854 1_565
Au3 Au5 3.003966 1_565
Au3 Au4 3.026137 1_665
Au3 Pu1 3.083473 1_555
Au3 Pu1 3.083473 1_556
Au3 Pu0 3.243871 1_655
Au3 Pu0 3.253644 1_555
Au4 Au5 3.023453 1_455
Au4 Pu1 3.089793 1_555
Au4 Pu1 3.089793 1_556
Au4 Pu0 3.222305 1_545
Au4 Pu0 3.229637 1_555
Au5 Pu1 3.090376 1_556
Au5 Pu1 3.090376 1_555
Au5 Pu0 3.248729 1_545
Au5 Pu0 3.256200 1_655
