# generated using pymatgen
data_CaAcZn2
_symmetry_space_group_name_H-M   'P 1'
_cell_length_a   5.38038401
_cell_length_b   5.38038401
_cell_length_c   5.38038401
_cell_angle_alpha   59.92891697
_cell_angle_beta   59.92891697
_cell_angle_gamma   59.92891697
_symmetry_Int_Tables_number   1
_chemical_formula_structural   CaAcZn2
_chemical_formula_sum   'Ca1 Ac1 Zn2'
_cell_volume   109.95728863
_cell_formula_units_Z   1
loop_
 _symmetry_equiv_pos_site_id
 _symmetry_equiv_pos_as_xyz
  1  'x, y, z'
loop_
 _atom_site_type_symbol
 _atom_site_label
 _atom_site_symmetry_multiplicity
 _atom_site_fract_x
 _atom_site_fract_y
 _atom_site_fract_z
 _atom_site_occupancy
  Ca  Ca0  1  0.75000000  0.75000000  0.75000000  1
  Ac  Ac0  1  0.25000000  0.25000000  0.25000000  1
  Zn  Zn0  1  0.00017450  0.00017450  0.00017450  1
  Zn  Zn1  1  0.49982450  0.49982450  0.49982450  1
loop_
_geom_bond_atom_site_label_1
_geom_bond_atom_site_label_2
_geom_bond_distance
_geom_bond_site_symmetry_2
Ca0 Zn1 3.291077 1_556
Ca0 Zn1 3.291077 1_655
Ca0 Zn1 3.291077 1_565
Ca0 Zn0 3.291081 1_656
Ca0 Zn0 3.291081 1_566
Ca0 Zn0 3.291081 1_665
Ca0 Zn0 3.298869 1_666
Ca0 Zn1 3.298882 1_555
Ac0 Zn0 3.292617 1_556
Ac0 Zn0 3.292617 1_655
Ac0 Zn0 3.292617 1_565
Ac0 Zn1 3.292622 1_545
Ac0 Zn1 3.292622 1_554
Ac0 Zn1 3.292622 1_455
Ac0 Zn1 3.294254 1_555
Ac0 Zn0 3.294267 1_555
