# generated using pymatgen
data_NaAcTe2
_symmetry_space_group_name_H-M   'P 1'
_cell_length_a   5.67773919
_cell_length_b   5.67773919
_cell_length_c   5.67773919
_cell_angle_alpha   60.00000000
_cell_angle_beta   60.00000000
_cell_angle_gamma   60.00000000
_symmetry_Int_Tables_number   1
_chemical_formula_structural   NaAcTe2
_chemical_formula_sum   'Na1 Ac1 Te2'
_cell_volume   129.42295709
_cell_formula_units_Z   1
loop_
 _symmetry_equiv_pos_site_id
 _symmetry_equiv_pos_as_xyz
  1  'x, y, z'
loop_
 _atom_site_type_symbol
 _atom_site_label
 _atom_site_symmetry_multiplicity
 _atom_site_fract_x
 _atom_site_fract_y
 _atom_site_fract_z
 _atom_site_occupancy
  Na  Na0  1  0.75000000  0.75000000  0.75000000  1
  Ac  Ac0  1  0.25000000  0.25000000  0.25000000  1
  Te  Te0  1  0.00000000  0.00000000  0.00000000  1
  Te  Te1  1  0.50000100  0.50000100  0.50000100  1
loop_
_geom_bond_atom_site_label_1
_geom_bond_atom_site_label_2
_geom_bond_distance
_geom_bond_site_symmetry_2
Na0 Te1 3.476877 1_555
Na0 Te0 3.476891 1_566
Na0 Te0 3.476891 1_656
Na0 Te0 3.476891 1_666
Na0 Te0 3.476891 1_665
Na0 Te1 3.476896 1_655
Na0 Te1 3.476896 1_565
Na0 Te1 3.476896 1_556
Ac0 Te1 3.476886 1_545
Ac0 Te1 3.476886 1_554
Ac0 Te1 3.476886 1_455
Ac0 Te0 3.476891 1_655
Ac0 Te0 3.476891 1_565
Ac0 Te0 3.476891 1_555
Ac0 Te0 3.476891 1_556
Ac0 Te1 3.476905 1_555
