# generated using pymatgen
data_LiMn(PO3)4
_symmetry_space_group_name_H-M   'P 1'
_cell_length_a   8.97477129
_cell_length_b   8.97477129
_cell_length_c   10.02987302
_cell_angle_alpha   56.24166623
_cell_angle_beta   56.24166623
_cell_angle_gamma   50.11100802
_symmetry_Int_Tables_number   1
_chemical_formula_structural   LiMn(PO3)4
_chemical_formula_sum   'Li2 Mn2 P8 O24'
_cell_volume   489.54936066
_cell_formula_units_Z   2
loop_
 _symmetry_equiv_pos_site_id
 _symmetry_equiv_pos_as_xyz
  1  'x, y, z'
loop_
 _atom_site_type_symbol
 _atom_site_label
 _atom_site_symmetry_multiplicity
 _atom_site_fract_x
 _atom_site_fract_y
 _atom_site_fract_z
 _atom_site_occupancy
  Li  Li0  1  0.83002300  0.16997700  0.25000000  1
  Li  Li1  1  0.16997700  0.83002300  0.75000000  1
  Mn  Mn0  1  0.28875400  0.71124600  0.25000000  1
  Mn  Mn1  1  0.71124600  0.28875400  0.75000000  1
  P  P0  1  0.68800700  0.03918700  0.11196500  1
  P  P1  1  0.28307200  0.43211100  0.15230100  1
  P  P2  1  0.56788900  0.71692800  0.34769900  1
  P  P3  1  0.96081300  0.31199300  0.38803500  1
  P  P4  1  0.03918700  0.68800700  0.61196500  1
  P  P5  1  0.43211100  0.28307200  0.65230100  1
  P  P6  1  0.71692800  0.56788900  0.84769900  1
  P  P7  1  0.31199300  0.96081300  0.88803500  1
  O  O0  1  0.17023200  0.59112200  0.02857000  1
  O  O1  1  0.46518000  0.23072300  0.09223700  1
  O  O2  1  0.75078400  0.02193200  0.22980300  1
  O  O3  1  0.66077800  0.85095600  0.16578100  1
  O  O4  1  0.17437800  0.94049400  0.07482000  1
  O  O5  1  0.14904400  0.33922200  0.33421900  1
  O  O6  1  0.97806800  0.24921600  0.27019700  1
  O  O7  1  0.52031100  0.61986000  0.29925400  1
  O  O8  1  0.38014000  0.47968900  0.20074600  1
  O  O9  1  0.76927700  0.53482000  0.40776300  1
  O  O10  1  0.40887800  0.82976800  0.47143000  1
  O  O11  1  0.05950500  0.82562200  0.42518000  1
  O  O12  1  0.94049400  0.17437800  0.57482000  1
  O  O13  1  0.59112200  0.17023200  0.52857000  1
  O  O14  1  0.23072300  0.46518000  0.59223700  1
  O  O15  1  0.61986000  0.52031100  0.79925400  1
  O  O16  1  0.47968900  0.38014000  0.70074600  1
  O  O17  1  0.02193200  0.75078400  0.72980300  1
  O  O18  1  0.85095600  0.66077800  0.66578100  1
  O  O19  1  0.82562200  0.05950600  0.92518000  1
  O  O20  1  0.33922200  0.14904400  0.83421900  1
  O  O21  1  0.24921600  0.97806800  0.77019700  1
  O  O22  1  0.53482000  0.76927700  0.90776300  1
  O  O23  1  0.82976800  0.40887800  0.97143000  1
loop_
_geom_bond_atom_site_label_1
_geom_bond_atom_site_label_2
_geom_bond_distance
_geom_bond_site_symmetry_2
Li0 O2 1.995818 1_555
Li0 O6 1.995818 1_555
Li0 O13 2.397207 1_555
Li0 O23 2.397207 1_554
Li0 O11 2.589036 1_645
Li0 O4 2.589040 1_645
Li1 O17 1.995818 1_555
Li1 O21 1.995818 1_555
Li1 O0 2.397207 1_556
Li1 O10 2.397207 1_555
Li1 O12 2.589040 1_465
Li1 O19 2.589040 1_465
Mn0 O4 1.911012 1_555
Mn0 O11 1.911014 1_555
Mn0 O7 1.933926 1_555
Mn0 O8 1.933926 1_555
Mn1 O19 1.911012 1_555
Mn1 O12 1.911012 1_555
Mn1 O15 1.933926 1_555
Mn1 O16 1.933926 1_555
O0 P1 1.475495 1_555
O1 P1 1.621080 1_555
O1 P0 1.626637 1_555
O2 P0 1.470728 1_555
O3 P0 1.604492 1_565
O3 P2 1.620960 1_555
O4 P7 1.551141 1_554
O5 P3 1.604492 1_455
O5 P1 1.620960 1_555
O6 P3 1.470728 1_555
O7 P2 1.534763 1_555
O8 P1 1.534763 1_555
O9 P2 1.621080 1_555
O9 P3 1.626637 1_555
O10 P2 1.475495 1_555
O11 P4 1.551142 1_555
O12 P3 1.551141 1_555
O13 P5 1.475495 1_555
O14 P5 1.621080 1_555
O14 P4 1.626637 1_555
O15 P6 1.534763 1_555
O16 P5 1.534763 1_555
O17 P4 1.470728 1_555
O18 P4 1.604492 1_655
O18 P6 1.620960 1_555
O19 P0 1.551141 1_556
O20 P7 1.604492 1_545
O20 P5 1.620960 1_555
O21 P7 1.470728 1_555
O22 P6 1.621080 1_555
O22 P7 1.626637 1_555
O23 P6 1.475495 1_555
