# generated using pymatgen
data_LiMn3(BO3)3
_symmetry_space_group_name_H-M   'P 1'
_cell_length_a   6.17377700
_cell_length_b   7.76735068
_cell_length_c   9.09388453
_cell_angle_alpha   111.83259380
_cell_angle_beta   107.41869007
_cell_angle_gamma   96.50833702
_symmetry_Int_Tables_number   1
_chemical_formula_structural   LiMn3(BO3)3
_chemical_formula_sum   'Li2 Mn6 B6 O18'
_cell_volume   373.61153873
_cell_formula_units_Z   2
loop_
 _symmetry_equiv_pos_site_id
 _symmetry_equiv_pos_as_xyz
  1  'x, y, z'
loop_
 _atom_site_type_symbol
 _atom_site_label
 _atom_site_symmetry_multiplicity
 _atom_site_fract_x
 _atom_site_fract_y
 _atom_site_fract_z
 _atom_site_occupancy
  Li  Li0  1  0.65564000  0.32923200  0.05600900  1
  Li  Li1  1  0.34436000  0.67076800  0.94399100  1
  Mn  Mn0  1  0.34561300  0.60221100  0.59049000  1
  Mn  Mn1  1  0.29910800  0.03156200  0.71199600  1
  Mn  Mn2  1  0.03509200  0.27990700  0.93949700  1
  Mn  Mn3  1  0.96490800  0.72009300  0.06050300  1
  Mn  Mn4  1  0.70089200  0.96843800  0.28800400  1
  Mn  Mn5  1  0.65438700  0.39778900  0.40951000  1
  B  B0  1  0.69117200  0.96145100  0.94049600  1
  B  B1  1  0.61255500  0.36169300  0.72591900  1
  B  B2  1  0.94193600  0.69592300  0.37932600  1
  B  B3  1  0.05806400  0.30407700  0.62067400  1
  B  B4  1  0.38744500  0.63830700  0.27408100  1
  B  B5  1  0.30882800  0.03854900  0.05950400  1
  O  O0  1  0.52700300  0.88956000  0.77277700  1
  O  O1  1  0.38253700  0.51952800  0.36088800  1
  O  O2  1  0.83947700  0.13863600  0.02176000  1
  O  O3  1  0.32201600  0.15700200  0.97516500  1
  O  O4  1  0.76572400  0.43073100  0.89399200  1
  O  O5  1  0.10750500  0.74923900  0.54105800  1
  O  O6  1  0.46641800  0.18323800  0.63775800  1
  O  O7  1  0.79113700  0.51642200  0.28765400  1
  O  O8  1  0.94645800  0.82718700  0.30852600  1
  O  O9  1  0.05354200  0.17281300  0.69147400  1
  O  O10  1  0.20886300  0.48357800  0.71234600  1
  O  O11  1  0.53358200  0.81676200  0.36224200  1
  O  O12  1  0.89249500  0.25076100  0.45894200  1
  O  O13  1  0.23427600  0.56926900  0.10600800  1
  O  O14  1  0.67798400  0.84299800  0.02483500  1
  O  O15  1  0.16052300  0.86136400  0.97824000  1
  O  O16  1  0.61746300  0.48047200  0.63911200  1
  O  O17  1  0.47299700  0.11044000  0.22722300  1
loop_
_geom_bond_atom_site_label_1
_geom_bond_atom_site_label_2
_geom_bond_distance
_geom_bond_site_symmetry_2
Li0 O7 1.908529 1_555
Li0 O2 1.956120 1_555
Li0 O3 2.076006 1_554
Li0 O4 2.143888 1_554
Li1 O10 1.908529 1_555
Li1 O15 1.956120 1_555
Li1 O14 2.076006 1_556
Li1 O13 2.143888 1_556
Mn0 O10 1.983211 1_555
Mn0 O5 2.008491 1_555
Mn0 O16 2.032961 1_555
Mn0 O1 2.035884 1_555
Mn0 O0 2.133921 1_555
Mn1 O6 1.908904 1_555
Mn1 O0 1.959925 1_545
Mn1 O9 1.974082 1_555
Mn1 O5 2.097643 1_545
Mn1 O3 2.174537 1_555
Mn2 O2 2.018232 1_456
Mn2 O3 2.103356 1_555
Mn2 O9 2.138215 1_555
Mn2 O13 2.141010 1_556
Mn2 O4 2.167835 1_455
Mn3 O15 2.018232 1_654
Mn3 O14 2.103356 1_555
Mn3 O8 2.138215 1_555
Mn3 O4 2.141010 1_554
Mn3 O13 2.167835 1_655
Mn4 O11 1.908904 1_555
Mn4 O17 1.959925 1_565
Mn4 O8 1.974082 1_555
Mn4 O12 2.097643 1_565
Mn4 O14 2.174537 1_555
Mn5 O7 1.983211 1_555
Mn5 O12 2.008491 1_555
Mn5 O1 2.032961 1_555
Mn5 O16 2.035884 1_555
Mn5 O17 2.133921 1_555
B0 O2 1.353254 1_566
B0 O0 1.406439 1_555
B0 O14 1.409490 1_556
B1 O6 1.354609 1_555
B1 O4 1.388520 1_555
B1 O16 1.423016 1_555
B2 O7 1.371935 1_555
B2 O5 1.389405 1_655
B2 O8 1.395500 1_555
B3 O10 1.371935 1_555
B3 O12 1.389405 1_455
B3 O9 1.395500 1_555
B4 O11 1.354609 1_555
B4 O13 1.388520 1_555
B4 O1 1.423016 1_555
B5 O15 1.353254 1_544
B5 O17 1.406439 1_555
B5 O3 1.409490 1_554
