# generated using pymatgen
data_Pm2CuRu
_symmetry_space_group_name_H-M   'P 1'
_cell_length_a   4.95460433
_cell_length_b   4.95439986
_cell_length_c   4.95419356
_cell_angle_alpha   60.00116998
_cell_angle_beta   59.99509480
_cell_angle_gamma   59.99384210
_symmetry_Int_Tables_number   1
_chemical_formula_structural   Pm2CuRu
_chemical_formula_sum   'Pm2 Cu1 Ru1'
_cell_volume   85.98556092
_cell_formula_units_Z   1
loop_
 _symmetry_equiv_pos_site_id
 _symmetry_equiv_pos_as_xyz
  1  'x, y, z'
loop_
 _atom_site_type_symbol
 _atom_site_label
 _atom_site_symmetry_multiplicity
 _atom_site_fract_x
 _atom_site_fract_y
 _atom_site_fract_z
 _atom_site_occupancy
  Pm  Pm0  1  0.00000084  0.99999829  -0.00000036  1
  Pm  Pm1  1  0.49999820  0.49999969  0.50000003  1
  Cu  Cu0  1  0.25000002  0.24999986  0.25000002  1
  Ru  Ru0  1  0.74999994  0.74999815  0.74999730  1
loop_
_geom_bond_atom_site_label_1
_geom_bond_atom_site_label_2
_geom_bond_distance
_geom_bond_site_symmetry_2
Pm0 Ru0 3.033764 1_455
Pm0 Ru0 3.033797 1_554
Pm0 Ru0 3.033860 1_464
Pm0 Ru0 3.034027 1_454
Pm1 Ru0 3.033784 1_554
Pm1 Ru0 3.033793 1_455
Pm1 Ru0 3.033867 1_545
Pm1 Ru0 3.034003 1_555
Cu0 Pm0 3.033771 1_546
Cu0 Pm1 3.033773 1_554
Cu0 Pm0 3.033804 1_645
Cu0 Pm1 3.033808 1_455
Cu0 Pm0 3.033855 1_555
Cu0 Pm1 3.033862 1_545
Cu0 Pm1 3.034005 1_555
Cu0 Pm0 3.034018 1_545
