# generated using pymatgen
data_CaSiPt
_symmetry_space_group_name_H-M   'P 1'
_cell_length_a   4.37252300
_cell_length_b   7.17413200
_cell_length_c   7.25998300
_cell_angle_alpha   90.00000000
_cell_angle_beta   90.00000000
_cell_angle_gamma   90.00000000
_symmetry_Int_Tables_number   1
_chemical_formula_structural   CaSiPt
_chemical_formula_sum   'Ca4 Si4 Pt4'
_cell_volume   227.73882182
_cell_formula_units_Z   4
loop_
 _symmetry_equiv_pos_site_id
 _symmetry_equiv_pos_as_xyz
  1  'x, y, z'
loop_
 _atom_site_type_symbol
 _atom_site_label
 _atom_site_symmetry_multiplicity
 _atom_site_fract_x
 _atom_site_fract_y
 _atom_site_fract_z
 _atom_site_occupancy
  Ca  Ca0  1  0.75000000  0.50574000  0.81100400  1
  Ca  Ca1  1  0.25000000  0.99426000  0.31100400  1
  Ca  Ca2  1  0.75000000  0.00574000  0.68899600  1
  Ca  Ca3  1  0.25000000  0.49426000  0.18899600  1
  Si  Si0  1  0.25000000  0.82609600  0.91812700  1
  Si  Si1  1  0.25000000  0.32609600  0.58187300  1
  Si  Si2  1  0.75000000  0.17390400  0.08187300  1
  Si  Si3  1  0.75000000  0.67390400  0.41812700  1
  Pt  Pt0  1  0.25000000  0.69068600  0.59703200  1
  Pt  Pt1  1  0.25000000  0.19068600  0.90296800  1
  Pt  Pt2  1  0.75000000  0.80931400  0.09703200  1
  Pt  Pt3  1  0.75000000  0.30931400  0.40296800  1
loop_
_geom_bond_atom_site_label_1
_geom_bond_atom_site_label_2
_geom_bond_distance
_geom_bond_site_symmetry_2
Ca0 Pt0 2.992217 1_555
Ca0 Pt0 2.992217 1_655
Ca0 Pt2 3.009195 1_556
Ca0 Si1 3.034453 1_655
Ca0 Si1 3.034453 1_555
Ca0 Si2 3.087809 1_556
Ca0 Si3 3.096930 1_555
Ca0 Pt1 3.214683 1_555
Ca0 Pt1 3.214683 1_655
Ca0 Si0 3.265983 1_555
Ca0 Si0 3.265983 1_655
Ca0 Pt3 3.280431 1_555
Ca1 Pt2 2.992217 1_555
Ca1 Pt2 2.992217 1_455
Ca1 Pt0 3.009195 1_555
Ca1 Si2 3.034453 1_465
Ca1 Si2 3.034453 1_565
Ca1 Si1 3.087809 1_565
Ca1 Si0 3.096930 1_554
Ca1 Pt3 3.214683 1_565
Ca1 Pt3 3.214683 1_465
Ca1 Si3 3.265983 1_555
Ca1 Si3 3.265983 1_455
Ca1 Pt1 3.280431 1_564
Ca2 Pt1 2.992217 1_555
Ca2 Pt1 2.992217 1_655
Ca2 Pt3 3.009195 1_555
Ca2 Si0 3.034453 1_645
Ca2 Si0 3.034453 1_545
Ca2 Si3 3.087809 1_545
Ca2 Si2 3.096930 1_556
Ca2 Pt0 3.214683 1_545
Ca2 Pt0 3.214683 1_645
Ca2 Si1 3.265983 1_555
Ca2 Si1 3.265983 1_655
Ca2 Pt2 3.280431 1_546
Ca3 Pt3 2.992217 1_555
Ca3 Pt3 2.992217 1_455
Ca3 Pt1 3.009195 1_554
Ca3 Si3 3.034453 1_455
Ca3 Si3 3.034453 1_555
Ca3 Si0 3.087809 1_554
Ca3 Si1 3.096930 1_555
Ca3 Pt2 3.214683 1_555
Ca3 Pt2 3.214683 1_455
Ca3 Si2 3.265983 1_555
Ca3 Si2 3.265983 1_455
Ca3 Pt0 3.280431 1_555
Pt0 Si0 2.525460 1_555
Pt0 Si3 2.545828 1_455
Pt0 Si3 2.545828 1_555
Pt0 Si1 2.617931 1_555
Pt1 Si1 2.525460 1_555
Pt1 Si2 2.545828 1_456
Pt1 Si2 2.545828 1_556
Pt1 Si0 2.617931 1_545
Pt2 Si3 2.525460 1_555
Pt2 Si0 2.545828 1_654
Pt2 Si0 2.545828 1_554
Pt2 Si2 2.617931 1_565
Pt3 Si2 2.525460 1_555
Pt3 Si1 2.545828 1_555
Pt3 Si1 2.545828 1_655
Pt3 Si3 2.617931 1_555
