# generated using pymatgen
data_Fe2OF3
_symmetry_space_group_name_H-M   'P 1'
_cell_length_a   4.84261560
_cell_length_b   4.84261560
_cell_length_c   15.64950100
_cell_angle_alpha   90.00000000
_cell_angle_beta   90.00000000
_cell_angle_gamma   91.76751104
_symmetry_Int_Tables_number   1
_chemical_formula_structural   Fe2OF3
_chemical_formula_sum   'Fe10 O5 F15'
_cell_volume   366.82067506
_cell_formula_units_Z   5
loop_
 _symmetry_equiv_pos_site_id
 _symmetry_equiv_pos_as_xyz
  1  'x, y, z'
loop_
 _atom_site_type_symbol
 _atom_site_label
 _atom_site_symmetry_multiplicity
 _atom_site_fract_x
 _atom_site_fract_y
 _atom_site_fract_z
 _atom_site_occupancy
  Fe  Fe0  1  0.96914500  0.96914500  0.00000000  1
  Fe  Fe1  1  0.02350300  0.02350300  0.19967700  1
  Fe  Fe2  1  0.01233100  0.01233100  0.39979600  1
  Fe  Fe3  1  0.01233100  0.01233100  0.60020400  1
  Fe  Fe4  1  0.02350300  0.02350300  0.80032300  1
  Fe  Fe5  1  0.50094100  0.50094100  0.09969000  1
  Fe  Fe6  1  0.47511000  0.47511000  0.50000000  1
  Fe  Fe7  1  0.47552300  0.47552300  0.29931400  1
  Fe  Fe8  1  0.47552300  0.47552300  0.70068600  1
  Fe  Fe9  1  0.50094100  0.50094100  0.90031000  1
  O  O0  1  0.32110800  0.32110800  0.19675200  1
  O  O1  1  0.31167200  0.31167200  0.39950200  1
  O  O2  1  0.31167200  0.31167200  0.60049800  1
  O  O3  1  0.32110800  0.32110800  0.80324800  1
  O  O4  1  0.67161900  0.67161900  0.00000000  1
  F  F0  1  0.79021700  0.20591500  0.09979300  1
  F  F1  1  0.79259100  0.21216300  0.29942200  1
  F  F2  1  0.78970400  0.20926200  0.50000000  1
  F  F3  1  0.79259100  0.21216300  0.70057800  1
  F  F4  1  0.79021700  0.20591500  0.90020700  1
  F  F5  1  0.28994200  0.28994200  0.00000000  1
  F  F6  1  0.70451800  0.70451800  0.20152600  1
  F  F7  1  0.69712800  0.69712800  0.39990100  1
  F  F8  1  0.69712800  0.69712800  0.60009900  1
  F  F9  1  0.70451800  0.70451800  0.79847400  1
  F  F10  1  0.20591500  0.79021600  0.09979300  1
  F  F11  1  0.20926200  0.78970400  0.50000000  1
  F  F12  1  0.21216300  0.79259100  0.29942200  1
  F  F13  1  0.20591500  0.79021600  0.90020700  1
  F  F14  1  0.21216300  0.79259100  0.70057800  1
loop_
_geom_bond_atom_site_label_1
_geom_bond_atom_site_label_2
_geom_bond_distance
_geom_bond_site_symmetry_2
Fe0 O4 2.005935 1_555
Fe1 O0 2.006989 1_555
Fe2 O1 2.018177 1_555
Fe3 O2 2.018177 1_555
Fe4 O3 2.006989 1_555
Fe5 O4 1.938572 1_555
Fe5 O0 1.943526 1_555
Fe6 O2 1.920344 1_555
Fe6 O1 1.920344 1_555
Fe7 O0 1.913113 1_555
Fe7 O1 1.917975 1_555
Fe8 O3 1.913113 1_555
Fe8 O2 1.917975 1_555
Fe9 O4 1.938572 1_556
Fe9 O3 1.943526 1_555
F0 Fe5 2.031509 1_555
F0 Fe1 2.135770 1_655
F0 Fe0 2.136744 1_545
F1 Fe7 2.026054 1_555
F1 Fe1 2.141193 1_655
F1 Fe2 2.144703 1_655
F2 Fe6 2.024675 1_555
F2 Fe3 2.143422 1_655
F2 Fe2 2.143422 1_655
F3 Fe8 2.026054 1_555
F3 Fe4 2.141193 1_655
F3 Fe3 2.144703 1_655
F4 Fe9 2.031509 1_555
F4 Fe4 2.135770 1_655
F4 Fe0 2.136744 1_546
F5 Fe9 2.111303 1_554
F5 Fe5 2.111303 1_555
F5 Fe0 2.162829 1_445
F6 Fe5 2.103248 1_555
F6 Fe1 2.150807 1_665
F6 Fe7 2.173829 1_555
F7 Fe2 2.125114 1_665
F7 Fe6 2.166679 1_555
F7 Fe7 2.170289 1_555
F8 Fe3 2.125114 1_665
F8 Fe6 2.166679 1_555
F8 Fe8 2.170289 1_555
F9 Fe9 2.103248 1_555
F9 Fe4 2.150807 1_665
F9 Fe8 2.173829 1_555
F10 Fe5 2.031506 1_555
F10 Fe1 2.135773 1_565
F10 Fe0 2.136746 1_455
F11 Fe6 2.024675 1_555
F11 Fe3 2.143422 1_565
F11 Fe2 2.143422 1_565
F12 Fe7 2.026054 1_555
F12 Fe1 2.141193 1_565
F12 Fe2 2.144703 1_565
F13 Fe9 2.031506 1_555
F13 Fe4 2.135773 1_565
F13 Fe0 2.136746 1_456
F14 Fe8 2.026054 1_555
F14 Fe4 2.141193 1_565
F14 Fe3 2.144703 1_565
