# generated using pymatgen
data_Li5Mn4(P2O7)4
_symmetry_space_group_name_H-M   'P 1'
_cell_length_a   9.79439200
_cell_length_b   9.81276280
_cell_length_c   11.28100741
_cell_angle_alpha   77.88876504
_cell_angle_beta   89.83944880
_cell_angle_gamma   89.83681993
_symmetry_Int_Tables_number   1
_chemical_formula_structural   Li5Mn4(P2O7)4
_chemical_formula_sum   'Li10 Mn8 P16 O56'
_cell_volume   1060.07873753
_cell_formula_units_Z   2
loop_
 _symmetry_equiv_pos_site_id
 _symmetry_equiv_pos_as_xyz
  1  'x, y, z'
loop_
 _atom_site_type_symbol
 _atom_site_label
 _atom_site_symmetry_multiplicity
 _atom_site_fract_x
 _atom_site_fract_y
 _atom_site_fract_z
 _atom_site_occupancy
  Li  Li0  1  0.10622800  0.08792400  0.97619400  1
  Li  Li1  1  0.60970800  0.40872800  0.02614600  1
  Li  Li2  1  0.91717100  0.33885200  0.53686900  1
  Li  Li3  1  0.21913300  0.39018000  0.44973300  1
  Li  Li4  1  0.39450900  0.58480200  0.97287800  1
  Li  Li5  1  0.58756800  0.85085900  0.04815000  1
  Li  Li6  1  0.09196600  0.64607900  0.95466900  1
  Li  Li7  1  0.89332200  0.91120600  0.03076500  1
  Li  Li8  1  0.57984200  0.83948700  0.53596300  1
  Li  Li9  1  0.28007600  0.88974700  0.44913800  1
  Mn  Mn0  1  0.91905100  0.20352300  0.32496700  1
  Mn  Mn1  1  0.20947700  0.25485800  0.17560500  1
  Mn  Mn2  1  0.71507500  0.23335900  0.82704200  1
  Mn  Mn3  1  0.42866300  0.30597600  0.66651300  1
  Mn  Mn4  1  0.57869500  0.70502600  0.32703000  1
  Mn  Mn5  1  0.28631500  0.75450100  0.17477800  1
  Mn  Mn6  1  0.78463300  0.73316800  0.82696000  1
  Mn  Mn7  1  0.07071000  0.80429000  0.66495000  1
  P  P0  1  0.44836600  0.02558600  0.24594300  1
  P  P1  1  0.70771800  0.11895400  0.11064200  1
  P  P2  1  0.93250000  0.06059500  0.76014400  1
  P  P3  1  0.15416500  0.13030500  0.57545500  1
  P  P4  1  0.64127900  0.37748800  0.43032300  1
  P  P5  1  0.42920700  0.43803000  0.24217300  1
  P  P6  1  0.04994700  0.52130100  0.24302300  1
  P  P7  1  0.21114100  0.37863100  0.88277500  1
  P  P8  1  0.79335700  0.61548400  0.10895600  1
  P  P9  1  0.93998300  0.46817000  0.75714500  1
  P  P10  1  0.56798300  0.56067700  0.75827600  1
  P  P11  1  0.34597500  0.62936800  0.57575300  1
  P  P12  1  0.85433300  0.88042000  0.42455900  1
  P  P13  1  0.07205500  0.93774900  0.24311900  1
  P  P14  1  0.29269300  0.88226300  0.88596400  1
  P  P15  1  0.55947000  0.97034200  0.75822100  1
  O  O0  1  0.42187900  0.01587000  0.37801900  1
  O  O1  1  0.85044700  0.03626900  0.43013400  1
  O  O2  1  0.08156300  0.08655900  0.27018000  1
  O  O3  1  0.34335900  0.10835700  0.15750500  1
  O  O4  1  0.59022900  0.10605400  0.21287200  1
  O  O5  1  0.82900100  0.17472000  0.16864800  1
  O  O6  1  0.65425500  0.22681900  0.99712600  1
  O  O7  1  0.26112100  0.01757400  0.91918200  1
  O  O8  1  0.07605200  0.11861900  0.70493000  1
  O  O9  1  0.93587400  0.05811100  0.89417200  1
  O  O10  1  0.55805000  0.11878800  0.79046400  1
  O  O11  1  0.28955500  0.20070800  0.59136000  1
  O  O12  1  0.82313900  0.16753500  0.69953500  1
  O  O13  1  0.06597500  0.22724100  0.48062800  1
  O  O14  1  0.56063800  0.28893100  0.53654000  1
  O  O15  1  0.30830200  0.34565800  0.29841100  1
  O  O16  1  0.78405400  0.31810100  0.41576800  1
  O  O17  1  0.03566900  0.36654900  0.21951100  1
  O  O18  1  0.56520300  0.36666600  0.30550700  1
  O  O19  1  0.44189500  0.43779200  0.10893700  1
  O  O20  1  0.76810100  0.47867900  0.07632400  1
  O  O21  1  0.16355600  0.27016100  0.99509500  1
  O  O22  1  0.32867900  0.32197800  0.81557700  1
  O  O23  1  0.08754500  0.39794100  0.78585700  1
  O  O24  1  0.58437500  0.41384300  0.72766600  1
  O  O25  1  0.83970800  0.37853100  0.84761100  1
  O  O26  1  0.08623300  0.52215900  0.37140300  1
  O  O27  1  0.33509200  0.48090400  0.55624400  1
  O  O28  1  0.64733900  0.53164700  0.43526900  1
  O  O29  1  0.91506500  0.47552200  0.62606600  1
  O  O30  1  0.14274700  0.60434000  0.14272200  1
  O  O31  1  0.41748400  0.58578000  0.27077300  1
  O  O32  1  0.90198600  0.59392800  0.21886700  1
  O  O33  1  0.67360400  0.68928000  0.15668700  1
  O  O34  1  0.86231200  0.72187100  0.99751700  1
  O  O35  1  0.23332800  0.51848900  0.91490800  1
  O  O36  1  0.56436500  0.55914700  0.89220800  1
  O  O37  1  0.42407900  0.62037500  0.70458400  1
  O  O38  1  0.94687900  0.61638500  0.79443600  1
  O  O39  1  0.20763600  0.69458800  0.59287000  1
  O  O40  1  0.67874800  0.66686700  0.69884300  1
  O  O41  1  0.43224000  0.72780700  0.48133500  1
  O  O42  1  0.93156300  0.79275500  0.53237700  1
  O  O43  1  0.18924300  0.84594200  0.30422300  1
  O  O44  1  0.71063900  0.82506000  0.40979100  1
  O  O45  1  0.46746100  0.87681000  0.21220400  1
  O  O46  1  0.06304100  0.93403200  0.11003300  1
  O  O47  1  0.93089100  0.86988900  0.30039300  1
  O  O48  1  0.72564900  0.97873200  0.07777000  1
  O  O49  1  0.35837100  0.77522600  0.99364700  1
  O  O50  1  0.17354900  0.80949700  0.83106200  1
  O  O51  1  0.40719900  0.90945400  0.77919200  1
  O  O52  1  0.64982300  0.87361000  0.85760700  1
  O  O53  1  0.91464000  0.91232500  0.73138600  1
  O  O54  1  0.16787500  0.98181900  0.55676500  1
  O  O55  1  0.59648300  0.96836000  0.63115000  1
loop_
_geom_bond_atom_site_label_1
_geom_bond_atom_site_label_2
_geom_bond_distance
_geom_bond_site_symmetry_2
Li0 O7 1.834833 1_555
Li0 O21 1.930016 1_555
Li0 O46 1.944806 1_546
Li0 O9 1.962322 1_455
Li1 O20 1.836394 1_555
Li1 O36 1.929522 1_554
Li1 O6 1.929728 1_554
Li1 O19 1.937947 1_555
Li2 O29 1.837796 1_555
Li2 O16 1.932854 1_555
Li2 O13 2.000868 1_655
Li2 O12 2.397190 1_555
Li3 O26 1.915475 1_555
Li3 O27 1.997115 1_555
Li3 O15 2.042084 1_555
Li3 O13 2.169115 1_555
Li3 O11 2.288569 1_555
Li4 O35 1.879759 1_555
Li4 O19 1.929599 1_556
Li4 O36 1.935070 1_555
Li4 O49 1.962464 1_555
Li5 O48 1.924401 1_555
Li5 O33 1.976546 1_555
Li5 O52 2.198664 1_554
Li5 O45 2.248917 1_555
Li5 O49 2.485335 1_554
Li6 O35 1.976869 1_555
Li6 O50 2.053560 1_555
Li6 O30 2.134416 1_556
Li6 O38 2.368417 1_455
Li6 O34 2.445701 1_455
Li7 O48 1.885100 1_555
Li7 O9 1.921943 1_564
Li7 O46 1.925494 1_655
Li7 O34 1.995239 1_554
Li8 O55 1.830521 1_555
Li8 O44 1.939180 1_555
Li8 O41 1.992015 1_555
Li8 O40 2.424556 1_555
Li9 O0 1.921257 1_565
Li9 O54 1.986267 1_555
Li9 O43 1.988463 1_555
Li9 O41 2.150721 1_555
Li9 O39 2.344823 1_555
Mn0 O1 1.933233 1_555
Mn0 O5 2.046159 1_555
Mn0 O17 2.117368 1_655
Mn0 O2 2.124752 1_655
Mn0 O16 2.128101 1_555
Mn0 O13 2.322956 1_655
Mn1 O3 1.984629 1_555
Mn1 O15 2.044609 1_555
Mn1 O21 2.061052 1_554
Mn1 O17 2.134701 1_555
Mn1 O2 2.167995 1_555
Mn2 O25 1.929629 1_555
Mn2 O6 1.995644 1_555
Mn2 O12 1.995975 1_555
Mn2 O10 2.001907 1_555
Mn2 O24 2.279057 1_555
Mn3 O22 1.977903 1_555
Mn3 O14 1.984868 1_555
Mn3 O11 2.006020 1_555
Mn3 O24 2.060031 1_555
Mn3 O27 2.105994 1_555
Mn3 O10 2.419513 1_555
Mn4 O28 1.990943 1_555
Mn4 O44 2.099042 1_555
Mn4 O31 2.143094 1_555
Mn4 O33 2.166668 1_555
Mn4 O45 2.188052 1_555
Mn4 O41 2.298943 1_555
Mn5 O43 2.092521 1_555
Mn5 O30 2.125440 1_555
Mn5 O49 2.129092 1_554
Mn5 O31 2.192633 1_555
Mn5 O45 2.235063 1_555
Mn6 O52 1.987252 1_555
Mn6 O40 1.998620 1_555
Mn6 O38 2.033688 1_555
Mn6 O34 2.052156 1_555
Mn6 O53 2.254814 1_555
Mn7 O39 1.992871 1_555
Mn7 O42 2.047004 1_455
Mn7 O53 2.083256 1_455
Mn7 O54 2.130886 1_555
Mn7 O50 2.140034 1_555
Mn7 O38 2.424292 1_455
O0 P0 1.494894 1_555
O1 P12 1.544087 1_545
O2 P13 1.556325 1_545
O3 P0 1.540704 1_555
O4 P0 1.604060 1_555
O4 P1 1.613179 1_555
O5 P1 1.515602 1_555
O6 P1 1.570423 1_556
O7 P14 1.484867 1_545
O8 P2 1.593687 1_455
O8 P3 1.629666 1_555
O9 P2 1.507499 1_555
O10 P15 1.573708 1_545
O11 P3 1.525278 1_555
O12 P2 1.553259 1_555
O13 P3 1.539078 1_555
O14 P4 1.541562 1_555
O15 P5 1.544993 1_555
O16 P4 1.535020 1_555
O17 P6 1.601973 1_555
O18 P5 1.601608 1_555
O18 P4 1.618072 1_555
O19 P5 1.508307 1_555
O20 P8 1.486138 1_555
O21 P7 1.545713 1_555
O22 P7 1.541850 1_555
O23 P9 1.603729 1_455
O23 P7 1.617370 1_555
O24 P10 1.558271 1_555
O25 P9 1.549977 1_555
O26 P6 1.493935 1_555
O27 P11 1.522413 1_555
O28 P4 1.526736 1_555
O29 P9 1.486099 1_555
O30 P6 1.543358 1_555
O31 P5 1.553844 1_555
O32 P6 1.611565 1_655
O32 P8 1.615602 1_555
O33 P8 1.531427 1_555
O34 P8 1.604656 1_556
O35 P7 1.507641 1_555
O36 P10 1.508127 1_555
O37 P10 1.596178 1_555
O37 P11 1.630098 1_555
O38 P9 1.598207 1_555
O39 P11 1.525845 1_555
O40 P10 1.556110 1_555
O41 P11 1.532751 1_555
O42 P12 1.534260 1_555
O43 P13 1.530397 1_555
O44 P12 1.532079 1_555
O45 P0 1.594481 1_565
O46 P13 1.512250 1_555
O47 P12 1.609148 1_555
O47 P13 1.610030 1_655
O48 P1 1.507981 1_565
O49 P14 1.567737 1_555
O50 P14 1.565109 1_555
O51 P15 1.606554 1_555
O51 P14 1.624524 1_555
O52 P15 1.579675 1_555
O53 P2 1.566054 1_565
O54 P3 1.520902 1_565
O55 P15 1.481700 1_555
