# generated using pymatgen
data_Mn5(OF3)2
_symmetry_space_group_name_H-M   'P 1'
_cell_length_a   7.93769193
_cell_length_b   7.93769193
_cell_length_c   10.02319239
_cell_angle_alpha   51.88851683
_cell_angle_beta   51.88851683
_cell_angle_gamma   23.33991090
_symmetry_Int_Tables_number   1
_chemical_formula_structural   Mn5(OF3)2
_chemical_formula_sum   'Mn5 O2 F6'
_cell_volume   194.26170196
_cell_formula_units_Z   1
loop_
 _symmetry_equiv_pos_site_id
 _symmetry_equiv_pos_as_xyz
  1  'x, y, z'
loop_
 _atom_site_type_symbol
 _atom_site_label
 _atom_site_symmetry_multiplicity
 _atom_site_fract_x
 _atom_site_fract_y
 _atom_site_fract_z
 _atom_site_occupancy
  Mn  Mn0  1  0.65448500  0.65448500  0.17300900  1
  Mn  Mn1  1  0.14311300  0.14311300  0.54051400  1
  Mn  Mn2  1  0.85810900  0.85810900  0.45094500  1
  Mn  Mn3  1  0.34882700  0.34882700  0.82621100  1
  Mn  Mn4  1  0.17112200  0.17112200  0.81428600  1
  O  O0  1  0.67345900  0.67345900  0.66195300  1
  O  O1  1  0.71752600  0.71752600  0.90890000  1
  F  F0  1  0.27240400  0.27240400  0.09001200  1
  F  F1  1  0.03508400  0.03508400  0.26601800  1
  F  F2  1  0.62998000  0.62998000  0.41162900  1
  F  F3  1  0.32998200  0.32998200  0.34645600  1
  F  F4  1  0.36686200  0.36686200  0.58959600  1
  F  F5  1  0.96314600  0.96314600  0.73877300  1
loop_
_geom_bond_atom_site_label_1
_geom_bond_atom_site_label_2
_geom_bond_distance
_geom_bond_site_symmetry_2
Mn0 O1 2.167502 1_554
Mn1 O0 2.237394 1_545
Mn1 O0 2.237394 1_455
Mn2 O0 2.249802 1_555
Mn3 O1 2.302057 1_455
Mn3 O1 2.302057 1_545
Mn4 O0 2.200140 1_455
Mn4 O0 2.200140 1_545
Mn4 O1 2.204566 1_455
Mn4 O1 2.204566 1_545
F0 Mn3 2.107906 1_554
F0 Mn0 2.169946 1_455
F0 Mn0 2.169946 1_545
F1 Mn2 2.139626 1_445
F1 Mn0 2.170656 1_455
F1 Mn0 2.170656 1_545
F2 Mn1 2.149631 1_565
F2 Mn1 2.149631 1_655
F2 Mn0 2.171868 1_555
F3 Mn2 2.107906 1_455
F3 Mn2 2.107906 1_545
F3 Mn1 2.258601 1_555
F4 Mn2 2.183149 1_455
F4 Mn2 2.183149 1_545
F4 Mn3 2.205697 1_555
F4 Mn4 2.386319 1_555
F5 Mn3 2.131100 1_565
F5 Mn3 2.131100 1_655
F5 Mn1 2.183903 1_665
