# generated using pymatgen
data_LiNiO2
_symmetry_space_group_name_H-M   'P 1'
_cell_length_a   5.02038948
_cell_length_b   5.80254222
_cell_length_c   6.49911346
_cell_angle_alpha   102.70390799
_cell_angle_beta   97.42281409
_cell_angle_gamma   106.50559706
_symmetry_Int_Tables_number   1
_chemical_formula_structural   LiNiO2
_chemical_formula_sum   'Li5 Ni5 O10'
_cell_volume   173.32226422
_cell_formula_units_Z   5
loop_
 _symmetry_equiv_pos_site_id
 _symmetry_equiv_pos_as_xyz
  1  'x, y, z'
loop_
 _atom_site_type_symbol
 _atom_site_label
 _atom_site_symmetry_multiplicity
 _atom_site_fract_x
 _atom_site_fract_y
 _atom_site_fract_z
 _atom_site_occupancy
  Li  Li0  1  0.19996400  0.40001900  0.39986400  1
  Li  Li1  1  0.40090100  0.79913200  0.79714500  1
  Li  Li2  1  0.59579800  0.19623500  0.19712700  1
  Li  Li3  1  0.80428600  0.60387200  0.60285300  1
  Li  Li4  1  0.99909100  0.00093500  0.00302800  1
  Ni  Ni0  1  0.60180600  0.70105700  0.19919800  1
  Ni  Ni1  1  0.79811500  0.09883500  0.60079200  1
  Ni  Ni2  1  0.00108300  0.50131600  0.00069600  1
  Ni  Ni3  1  0.20006900  0.90000200  0.39994600  1
  Ni  Ni4  1  0.39892900  0.29866500  0.79932800  1
  O  O0  1  0.10420200  0.95945300  0.68265000  1
  O  O1  1  0.09991300  0.43148300  0.71610500  1
  O  O2  1  0.29631200  0.84098800  0.11752700  1
  O  O3  1  0.30015600  0.36847900  0.08389600  1
  O  O4  1  0.49476000  0.76687400  0.48923300  1
  O  O5  1  0.48715000  0.23003900  0.51056300  1
  O  O6  1  0.70538600  0.63135000  0.90739300  1
  O  O7  1  0.69387300  0.16809800  0.89235200  1
  O  O8  1  0.91282500  0.57003000  0.28949800  1
  O  O9  1  0.90531800  0.03307100  0.31076200  1
loop_
_geom_bond_atom_site_label_1
_geom_bond_atom_site_label_2
_geom_bond_distance
_geom_bond_site_symmetry_2
Li0 O8 2.101865 1_455
Li0 O5 2.102686 1_555
Li0 O4 2.122030 1_555
Li0 O9 2.122214 1_455
Li0 O3 2.158082 1_555
Li0 O1 2.159548 1_555
Li1 O4 2.095402 1_555
Li1 O0 2.107912 1_555
Li1 O7 2.126674 1_565
Li1 O1 2.140141 1_555
Li1 O6 2.160411 1_555
Li1 O2 2.191524 1_556
Li2 O2 2.084774 1_545
Li2 O7 2.085177 1_554
Li2 O3 2.151186 1_555
Li2 O5 2.158180 1_555
Li2 O9 2.168731 1_555
Li2 O8 2.194732 1_555
Li3 O6 2.085532 1_555
Li3 O0 2.086989 1_655
Li3 O1 2.151795 1_655
Li3 O8 2.157447 1_555
Li3 O4 2.168050 1_555
Li3 O5 2.195135 1_555
Li4 O9 2.094165 1_555
Li4 O2 2.108422 1_645
Li4 O6 2.130654 1_544
Li4 O3 2.139913 1_655
Li4 O7 2.161674 1_554
Li4 O0 2.192598 1_644
Ni0 O2 1.995007 1_555
Ni0 O3 1.997299 1_555
Ni0 O9 1.997790 1_565
Ni0 O8 1.998643 1_555
Ni0 O4 2.012342 1_555
Ni0 O6 2.016823 1_554
Ni1 O0 1.995674 1_645
Ni1 O4 1.997235 1_545
Ni1 O1 1.997899 1_655
Ni1 O5 1.998970 1_555
Ni1 O9 2.012642 1_555
Ni1 O7 2.016623 1_555
Ni2 O6 1.935435 1_454
Ni2 O3 1.942175 1_555
Ni2 O1 1.962925 1_554
Ni2 O8 1.965804 1_455
Ni2 O7 2.009759 1_454
Ni2 O2 2.012238 1_555
Ni3 O9 1.935542 1_465
Ni3 O4 1.935716 1_555
Ni3 O2 1.940722 1_555
Ni3 O0 1.941768 1_555
Ni3 O5 1.954459 1_565
Ni3 O8 1.954473 1_455
Ni4 O7 1.933822 1_555
Ni4 O1 1.941897 1_555
Ni4 O3 1.962654 1_556
Ni4 O5 1.965474 1_555
Ni4 O6 2.005928 1_555
Ni4 O0 2.009305 1_545
