# generated using pymatgen
data_RbZnH2Se2ClO6
_symmetry_space_group_name_H-M   'P 1'
_cell_length_a   6.10784500
_cell_length_b   6.53671800
_cell_length_c   10.94837851
_cell_angle_alpha   76.82747563
_cell_angle_beta   90.00000000
_cell_angle_gamma   90.00000000
_symmetry_Int_Tables_number   1
_chemical_formula_structural   RbZnH2Se2ClO6
_chemical_formula_sum   'Rb2 Zn2 H4 Se4 Cl2 O12'
_cell_volume   425.61557234
_cell_formula_units_Z   2
loop_
 _symmetry_equiv_pos_site_id
 _symmetry_equiv_pos_as_xyz
  1  'x, y, z'
loop_
 _atom_site_type_symbol
 _atom_site_label
 _atom_site_symmetry_multiplicity
 _atom_site_fract_x
 _atom_site_fract_y
 _atom_site_fract_z
 _atom_site_occupancy
  Rb  Rb0  1  0.83505200  0.00000000  0.25000000  1
  Rb  Rb1  1  0.16494800  0.00000000  0.75000000  1
  Zn  Zn0  1  0.43351800  0.50000000  0.25000000  1
  Zn  Zn1  1  0.56648200  0.50000000  0.75000000  1
  H  H0  1  0.33862800  0.93221800  0.08999400  1
  H  H1  1  0.33862800  0.06778200  0.41000600  1
  H  H2  1  0.66137200  0.93221800  0.58999400  1
  H  H3  1  0.66137200  0.06778200  0.91000600  1
  Se  Se0  1  0.31215300  0.29678200  0.01002900  1
  Se  Se1  1  0.31215300  0.70321800  0.48997100  1
  Se  Se2  1  0.68784700  0.29678200  0.51002900  1
  Se  Se3  1  0.68784700  0.70321800  0.98997100  1
  Cl  Cl0  1  0.05571700  0.50000000  0.25000000  1
  Cl  Cl1  1  0.94428300  0.50000000  0.75000000  1
  O  O0  1  0.21286400  0.03635300  0.07633700  1
  O  O1  1  0.51525600  0.32002700  0.11417400  1
  O  O2  1  0.54338900  0.75735500  0.11568900  1
  O  O3  1  0.54338900  0.24264500  0.38431100  1
  O  O4  1  0.51525600  0.67997300  0.38582600  1
  O  O5  1  0.21286400  0.96364700  0.42366300  1
  O  O6  1  0.78713600  0.03635300  0.57633700  1
  O  O7  1  0.48474400  0.32002700  0.61417400  1
  O  O8  1  0.45661100  0.75735500  0.61568900  1
  O  O9  1  0.45661100  0.24264500  0.88431100  1
  O  O10  1  0.48474400  0.67997300  0.88582600  1
  O  O11  1  0.78713600  0.96364700  0.92366300  1
loop_
_geom_bond_atom_site_label_1
_geom_bond_atom_site_label_2
_geom_bond_distance
_geom_bond_site_symmetry_2
H0 O0 1.014580 1_565
H0 O2 1.674283 1_555
H1 O5 1.014580 1_545
H1 O3 1.674283 1_555
H2 O6 1.014580 1_565
H2 O8 1.674283 1_555
H3 O11 1.014580 1_545
H3 O9 1.674283 1_555
Cl0 Zn0 2.307550 1_555
Cl0 Rb0 3.535350 1_465
Cl0 Rb0 3.535350 1_455
Cl1 Zn1 2.307550 1_555
Cl1 Rb1 3.535350 1_655
Cl1 Rb1 3.535350 1_665
O0 Se0 1.797091 1_555
O0 Rb0 2.964910 1_455
O1 Se0 1.714947 1_555
O1 Zn0 2.154523 1_555
O1 Rb0 2.997493 1_555
O2 Se3 1.737880 1_554
O2 Zn0 2.077309 1_555
O2 Rb0 2.985726 1_565
O3 Se2 1.737880 1_555
O3 Zn0 2.077309 1_555
O3 Rb0 2.985726 1_555
O4 Se1 1.714947 1_555
O4 Zn0 2.154523 1_555
O4 Rb0 2.997493 1_565
O5 Se1 1.797091 1_555
O5 Rb0 2.964910 1_465
O6 Se2 1.797091 1_555
O6 Rb1 2.964910 1_655
O7 Se2 1.714947 1_555
O7 Zn1 2.154523 1_555
O7 Rb1 2.997493 1_555
O8 Se1 1.737880 1_555
O8 Zn1 2.077309 1_555
O8 Rb1 2.985726 1_565
O9 Se0 1.737880 1_556
O9 Zn1 2.077309 1_555
O9 Rb1 2.985726 1_555
O10 Se3 1.714947 1_555
O10 Zn1 2.154523 1_555
O10 Rb1 2.997493 1_565
O11 Se3 1.797091 1_555
O11 Rb1 2.964910 1_665
