# generated using pymatgen
data_Li5Fe3F14
_symmetry_space_group_name_H-M   'P 1'
_cell_length_a   7.25860300
_cell_length_b   11.60402700
_cell_length_c   12.59121800
_cell_angle_alpha   90.00000000
_cell_angle_beta   90.00000000
_cell_angle_gamma   90.00000000
_symmetry_Int_Tables_number   1
_chemical_formula_structural   Li5Fe3F14
_chemical_formula_sum   'Li20 Fe12 F56'
_cell_volume   1060.54601815
_cell_formula_units_Z   4
loop_
 _symmetry_equiv_pos_site_id
 _symmetry_equiv_pos_as_xyz
  1  'x, y, z'
loop_
 _atom_site_type_symbol
 _atom_site_label
 _atom_site_symmetry_multiplicity
 _atom_site_fract_x
 _atom_site_fract_y
 _atom_site_fract_z
 _atom_site_occupancy
  Li  Li0  1  0.00012800  0.00983800  0.00686700  1
  Li  Li1  1  0.80742500  0.09783500  0.27809200  1
  Li  Li2  1  0.31986600  0.09881400  0.27513400  1
  Li  Li3  1  0.81494600  0.21794400  0.01102500  1
  Li  Li4  1  0.83607500  0.21242200  0.49459300  1
  Li  Li5  1  0.33607500  0.28757800  0.99459300  1
  Li  Li6  1  0.31494600  0.28205600  0.51102500  1
  Li  Li7  1  0.81986600  0.40118600  0.77513400  1
  Li  Li8  1  0.30742500  0.40216500  0.77809200  1
  Li  Li9  1  0.50012800  0.49016200  0.50686700  1
  Li  Li10  1  0.49987200  0.50983800  0.00686700  1
  Li  Li11  1  0.69257500  0.59783500  0.27809200  1
  Li  Li12  1  0.18013400  0.59881400  0.27513400  1
  Li  Li13  1  0.68505400  0.71794400  0.01102500  1
  Li  Li14  1  0.66392500  0.71242200  0.49459300  1
  Li  Li15  1  0.16392500  0.78757800  0.99459300  1
  Li  Li16  1  0.18505400  0.78205600  0.51102500  1
  Li  Li17  1  0.68013400  0.90118600  0.77513400  1
  Li  Li18  1  0.19257500  0.90216500  0.77809200  1
  Li  Li19  1  0.99987200  0.99016200  0.50686700  1
  Fe  Fe0  1  0.50302200  0.00121100  0.49501200  1
  Fe  Fe1  1  0.99858600  0.14867800  0.75131300  1
  Fe  Fe2  1  0.49562700  0.16818400  0.74573300  1
  Fe  Fe3  1  0.99562700  0.33181600  0.24573300  1
  Fe  Fe4  1  0.49858600  0.35132200  0.25131300  1
  Fe  Fe5  1  0.00302200  0.49878900  0.99501200  1
  Fe  Fe6  1  0.99697800  0.50121100  0.49501200  1
  Fe  Fe7  1  0.50141400  0.64867800  0.75131300  1
  Fe  Fe8  1  0.00437300  0.66818400  0.74573300  1
  Fe  Fe9  1  0.50437300  0.83181600  0.24573300  1
  Fe  Fe10  1  0.00141400  0.85132200  0.25131300  1
  Fe  Fe11  1  0.49697800  0.99878900  0.99501200  1
  F  F0  1  0.92259900  0.98664800  0.75486800  1
  F  F1  1  0.73916000  0.06545900  0.44134300  1
  F  F2  1  0.73004500  0.06504900  0.03928700  1
  F  F3  1  0.56740800  0.04385500  0.84475200  1
  F  F4  1  0.57728900  0.05789700  0.63776900  1
  F  F5  1  0.36366700  0.13676900  0.45526900  1
  F  F6  1  0.36222100  0.13410700  0.02978900  1
  F  F7  1  0.25470200  0.08635300  0.74650000  1
  F  F8  1  0.99609600  0.14034500  0.90641300  1
  F  F9  1  0.99412400  0.13461700  0.59465900  1
  F  F10  1  0.57901900  0.19113400  0.25123000  1
  F  F11  1  0.94081500  0.22572000  0.35618000  1
  F  F12  1  0.93098900  0.21874400  0.14502000  1
  F  F13  1  0.75232300  0.22871100  0.75042900  1
  F  F14  1  0.25232300  0.27128900  0.25042900  1
  F  F15  1  0.43098900  0.28125600  0.64502000  1
  F  F16  1  0.44081500  0.27428000  0.85618000  1
  F  F17  1  0.07901900  0.30886600  0.75123000  1
  F  F18  1  0.49412400  0.36538300  0.09465900  1
  F  F19  1  0.49609600  0.35965500  0.40641300  1
  F  F20  1  0.86222100  0.36589300  0.52978900  1
  F  F21  1  0.75470200  0.41364700  0.24650000  1
  F  F22  1  0.86366700  0.36323100  0.95526900  1
  F  F23  1  0.07728900  0.44210300  0.13776900  1
  F  F24  1  0.06740800  0.45614500  0.34475200  1
  F  F25  1  0.23004500  0.43495100  0.53928700  1
  F  F26  1  0.23916000  0.43454100  0.94134300  1
  F  F27  1  0.42259900  0.51335200  0.25486800  1
  F  F28  1  0.57740100  0.48664800  0.75486800  1
  F  F29  1  0.76084000  0.56545900  0.44134300  1
  F  F30  1  0.76995500  0.56504900  0.03928700  1
  F  F31  1  0.93259200  0.54385500  0.84475200  1
  F  F32  1  0.92271100  0.55789700  0.63776900  1
  F  F33  1  0.13633300  0.63676900  0.45526900  1
  F  F34  1  0.13777900  0.63410700  0.02978900  1
  F  F35  1  0.24529800  0.58635300  0.74650000  1
  F  F36  1  0.50390400  0.64034500  0.90641300  1
  F  F37  1  0.50587600  0.63461700  0.59465900  1
  F  F38  1  0.92098100  0.69113400  0.25123000  1
  F  F39  1  0.55918500  0.72572000  0.35618000  1
  F  F40  1  0.56901100  0.71874400  0.14502000  1
  F  F41  1  0.74767700  0.72871100  0.75042900  1
  F  F42  1  0.24767700  0.77128900  0.25042900  1
  F  F43  1  0.06901100  0.78125600  0.64502000  1
  F  F44  1  0.05918500  0.77428000  0.85618000  1
  F  F45  1  0.42098100  0.80886600  0.75123000  1
  F  F46  1  0.00587600  0.86538300  0.09465900  1
  F  F47  1  0.00390400  0.85965500  0.40641300  1
  F  F48  1  0.63777900  0.86589300  0.52978900  1
  F  F49  1  0.74529800  0.91364700  0.24650000  1
  F  F50  1  0.63633300  0.86323100  0.95526900  1
  F  F51  1  0.42271100  0.94210300  0.13776900  1
  F  F52  1  0.43259200  0.95614500  0.34475200  1
  F  F53  1  0.26995500  0.93495100  0.53928700  1
  F  F54  1  0.26084000  0.93454100  0.94134300  1
  F  F55  1  0.07740100  0.01335200  0.25486800  1
loop_
_geom_bond_atom_site_label_1
_geom_bond_atom_site_label_2
_geom_bond_distance
_geom_bond_site_symmetry_2
F0 Fe1 1.959943 1_565
F0 Li17 2.036182 1_555
F0 Li18 2.210612 1_655
F1 Li4 1.962823 1_555
F1 Fe0 1.987556 1_555
F1 Li1 2.147527 1_555
F1 Li19 2.241719 1_545
F2 Li3 1.911593 1_555
F2 Fe11 1.940090 1_544
F2 Li0 2.102465 1_655
F3 Fe2 1.976699 1_555
F3 Fe11 2.028379 1_545
F3 Li17 2.044183 1_545
F4 Fe2 1.958861 1_555
F4 Fe0 1.988526 1_555
F5 Li6 1.860169 1_555
F5 Fe0 1.935970 1_555
F5 Li2 2.332258 1_555
F6 Li5 1.844979 1_554
F6 Fe11 1.901092 1_544
F7 Fe2 1.989976 1_555
F7 Fe1 1.995687 1_455
F7 Li18 2.220301 1_545
F8 Fe1 1.955374 1_555
F8 Li0 1.973347 1_656
F8 Li3 2.067553 1_556
F9 Li4 1.928399 1_555
F9 Fe1 1.979467 1_555
F9 Li19 2.008361 1_545
F10 Fe4 1.948357 1_555
F10 Li1 2.008775 1_555
F10 Li2 2.185574 1_555
F11 Fe3 1.899458 1_555
F11 Li4 1.907650 1_555
F11 Li1 2.026422 1_555
F12 Fe3 1.884088 1_555
F12 Li3 1.885758 1_555
F12 Li1 2.362278 1_555
F13 Fe2 1.992114 1_555
F13 Fe1 2.014414 1_555
F13 Li7 2.083925 1_555
F14 Fe3 1.992114 1_455
F14 Fe4 2.014414 1_555
F14 Li2 2.083925 1_555
F15 Fe2 1.884088 1_555
F15 Li6 1.885758 1_555
F15 Li8 2.362278 1_555
F16 Fe2 1.899458 1_555
F16 Li5 1.907650 1_555
F16 Li8 2.026422 1_555
F17 Fe1 1.948357 1_455
F17 Li8 2.008775 1_555
F17 Li7 2.185574 1_455
F18 Li5 1.928399 1_554
F18 Fe4 1.979467 1_555
F18 Li10 2.008361 1_555
F19 Fe4 1.955374 1_555
F19 Li9 1.973347 1_555
F19 Li6 2.067553 1_555
F20 Li4 1.844979 1_555
F20 Fe6 1.901092 1_555
F21 Fe3 1.989976 1_555
F21 Fe4 1.995687 1_555
F21 Li11 2.220301 1_555
F22 Li3 1.860169 1_556
F22 Fe5 1.935970 1_655
F22 Li7 2.332258 1_555
F23 Fe3 1.958861 1_455
F23 Fe5 1.988526 1_554
F24 Fe3 1.976699 1_455
F24 Fe6 2.028379 1_455
F24 Li12 2.044183 1_555
F25 Li6 1.911593 1_555
F25 Fe6 1.940090 1_455
F25 Li9 2.102465 1_555
F26 Li5 1.962823 1_555
F26 Fe5 1.987556 1_555
F26 Li8 2.147527 1_555
F26 Li10 2.241719 1_556
F27 Fe4 1.959943 1_555
F27 Li12 2.036182 1_555
F27 Li11 2.210612 1_555
F28 Fe7 1.959943 1_555
F28 Li7 2.036182 1_555
F28 Li8 2.210612 1_555
F29 Li14 1.962823 1_555
F29 Fe6 1.987556 1_555
F29 Li11 2.147527 1_555
F29 Li9 2.241719 1_555
F30 Li13 1.911593 1_555
F30 Fe5 1.940090 1_654
F30 Li10 2.102465 1_555
F31 Fe8 1.976699 1_655
F31 Fe5 2.028379 1_655
F31 Li7 2.044183 1_555
F32 Fe8 1.958861 1_655
F32 Fe6 1.988526 1_555
F33 Li16 1.860169 1_555
F33 Fe6 1.935970 1_455
F33 Li12 2.332258 1_555
F34 Li15 1.844979 1_554
F34 Fe5 1.901092 1_554
F35 Fe8 1.989976 1_555
F35 Fe7 1.995687 1_555
F35 Li8 2.220301 1_555
F36 Fe7 1.955374 1_555
F36 Li10 1.973347 1_556
F36 Li13 2.067553 1_556
F37 Li14 1.928399 1_555
F37 Fe7 1.979467 1_555
F37 Li9 2.008361 1_555
F38 Fe10 1.948357 1_655
F38 Li11 2.008775 1_555
F38 Li12 2.185574 1_655
F39 Fe9 1.899458 1_555
F39 Li14 1.907650 1_555
F39 Li11 2.026422 1_555
F40 Fe9 1.884088 1_555
F40 Li13 1.885758 1_555
F40 Li11 2.362278 1_555
F41 Fe8 1.992114 1_655
F41 Fe7 2.014414 1_555
F41 Li17 2.083925 1_555
F42 Fe9 1.992114 1_555
F42 Fe10 2.014414 1_555
F42 Li12 2.083925 1_555
F43 Fe8 1.884088 1_555
F43 Li16 1.885758 1_555
F43 Li18 2.362278 1_555
F44 Fe8 1.899458 1_555
F44 Li15 1.907650 1_555
F44 Li18 2.026422 1_555
F45 Fe7 1.948357 1_555
F45 Li18 2.008775 1_555
F45 Li17 2.185574 1_555
F46 Li15 1.928399 1_554
F46 Fe10 1.979467 1_555
F46 Li0 2.008361 1_565
F47 Fe10 1.955374 1_555
F47 Li19 1.973347 1_455
F47 Li16 2.067553 1_555
F48 Li14 1.844979 1_555
F48 Fe0 1.901092 1_565
F49 Fe9 1.989976 1_555
F49 Fe10 1.995687 1_655
F49 Li1 2.220301 1_565
F50 Li13 1.860169 1_556
F50 Fe11 1.935970 1_555
F50 Li17 2.332258 1_555
F51 Fe9 1.958861 1_555
F51 Fe11 1.988526 1_554
F52 Fe9 1.976699 1_555
F52 Fe0 2.028379 1_565
F52 Li2 2.044183 1_565
F53 Li16 1.911593 1_555
F53 Fe0 1.940090 1_565
F53 Li19 2.102465 1_455
F54 Li15 1.962823 1_555
F54 Fe11 1.987556 1_555
F54 Li18 2.147527 1_555
F54 Li0 2.241719 1_566
F55 Fe10 1.959943 1_545
F55 Li2 2.036182 1_555
F55 Li1 2.210612 1_455
