# generated using pymatgen
data_Li8V3P8O29
_symmetry_space_group_name_H-M   'P 1'
_cell_length_a   9.88062874
_cell_length_b   9.88062874
_cell_length_c   13.80680183
_cell_angle_alpha   89.76414798
_cell_angle_beta   89.76414798
_cell_angle_gamma   59.91116063
_symmetry_Int_Tables_number   1
_chemical_formula_structural   Li8V3P8O29
_chemical_formula_sum   'Li16 V6 P16 O58'
_cell_volume   1166.26839074
_cell_formula_units_Z   2
loop_
 _symmetry_equiv_pos_site_id
 _symmetry_equiv_pos_as_xyz
  1  'x, y, z'
loop_
 _atom_site_type_symbol
 _atom_site_label
 _atom_site_symmetry_multiplicity
 _atom_site_fract_x
 _atom_site_fract_y
 _atom_site_fract_z
 _atom_site_occupancy
  Li  Li0  1  0.67104900  0.23410500  0.06429100  1
  Li  Li1  1  0.67161800  0.09493200  0.56289600  1
  Li  Li2  1  0.23410500  0.67104900  0.56429100  1
  Li  Li3  1  0.33789300  0.33198800  0.38183500  1
  Li  Li4  1  0.33198800  0.33789300  0.88183500  1
  Li  Li5  1  0.09493200  0.67161800  0.06289600  1
  Li  Li6  1  0.23467800  0.09508500  0.06437000  1
  Li  Li7  1  0.89883200  0.76573600  0.44004300  1
  Li  Li8  1  0.09508500  0.23467800  0.56437000  1
  Li  Li9  1  0.76573600  0.89883200  0.94004300  1
  Li  Li10  1  0.89853800  0.33618700  0.93729200  1
  Li  Li11  1  0.76386400  0.33712500  0.43814300  1
  Li  Li12  1  0.33618700  0.89853800  0.43729200  1
  Li  Li13  1  0.33712500  0.76386400  0.93814300  1
  Li  Li14  1  0.99936700  0.99787100  0.00077700  1
  Li  Li15  1  0.99787100  0.99936700  0.50077700  1
  V  V0  1  0.99640300  0.56463800  0.24982000  1
  V  V1  1  0.99891300  0.43631800  0.74843300  1
  V  V2  1  0.56463800  0.99640300  0.74982000  1
  V  V3  1  0.43631800  0.99891300  0.24843300  1
  V  V4  1  0.56411700  0.43653700  0.24843800  1
  V  V5  1  0.43653700  0.56411700  0.74843800  1
  P  P0  1  0.68539700  0.22259300  0.84350900  1
  P  P1  1  0.68553200  0.09057900  0.34405100  1
  P  P2  1  0.22259300  0.68539700  0.34350900  1
  P  P3  1  0.33077600  0.33430400  0.12575200  1
  P  P4  1  0.33430400  0.33077600  0.62575200  1
  P  P5  1  0.09057900  0.68553200  0.84405100  1
  P  P6  1  0.91277600  0.77427400  0.65686900  1
  P  P7  1  0.22464400  0.08915300  0.84348700  1
  P  P8  1  0.77427400  0.91277600  0.15686900  1
  P  P9  1  0.08915300  0.22464400  0.34348700  1
  P  P10  1  0.91486700  0.31278000  0.15611400  1
  P  P11  1  0.66744000  0.66410600  0.37433700  1
  P  P12  1  0.66410600  0.66744000  0.87433700  1
  P  P13  1  0.77376700  0.31241600  0.65563100  1
  P  P14  1  0.31278000  0.91486700  0.65611400  1
  P  P15  1  0.31241600  0.77376700  0.15563100  1
  O  O0  1  0.77527200  0.21966200  0.56688700  1
  O  O1  1  0.67301100  0.25172800  0.34445300  1
  O  O2  1  0.78051600  0.00116000  0.06747200  1
  O  O3  1  0.66958600  0.07464100  0.84378000  1
  O  O4  1  0.52133000  0.36766700  0.83467300  1
  O  O5  1  0.48306600  0.32598000  0.16353100  1
  O  O6  1  0.36766700  0.52133000  0.33467300  1
  O  O7  1  0.21966200  0.77527200  0.06688700  1
  O  O8  1  0.25172800  0.67301100  0.84445300  1
  O  O9  1  0.48683200  0.18341500  0.66850100  1
  O  O10  1  0.52157300  0.11002400  0.33354500  1
  O  O11  1  0.32598000  0.48306600  0.66353100  1
  O  O12  1  0.32542200  0.34183800  0.01649800  1
  O  O13  1  0.34183800  0.32542200  0.51649800  1
  O  O14  1  0.18341500  0.48683200  0.16850100  1
  O  O15  1  0.37265800  0.10541400  0.83050600  1
  O  O16  1  0.32044900  0.19121700  0.16335600  1
  O  O17  1  0.07464100  0.66958600  0.34378000  1
  O  O18  1  0.00111700  0.79053600  0.75062100  1
  O  O19  1  0.00116000  0.78051600  0.56747200  1
  O  O20  1  0.99566000  0.77582800  0.93261100  1
  O  O21  1  0.11002400  0.52157300  0.83354500  1
  O  O22  1  0.19121700  0.32044900  0.66335600  1
  O  O23  1  0.92114800  0.74844000  0.15877700  1
  O  O24  1  0.10541400  0.37265800  0.33050600  1
  O  O25  1  0.25204100  0.07902200  0.34552200  1
  O  O26  1  0.79053600  0.00111700  0.25062100  1
  O  O27  1  0.77582800  0.99566000  0.43261100  1
  O  O28  1  0.22394200  0.00598600  0.56645500  1
  O  O29  1  0.74844000  0.92114800  0.65877700  1
  O  O30  1  0.90645000  0.62452100  0.66597900  1
  O  O31  1  0.07902200  0.25204100  0.84552200  1
  O  O32  1  0.81928400  0.66401800  0.32848400  1
  O  O33  1  0.91087000  0.46940400  0.16859600  1
  O  O34  1  0.00598600  0.22394200  0.06645500  1
  O  O35  1  0.99567100  0.23154700  0.43289000  1
  O  O36  1  0.00225600  0.20749600  0.25038000  1
  O  O37  1  0.92107100  0.32650400  0.65622800  1
  O  O38  1  0.66401800  0.81928400  0.82848400  1
  O  O39  1  0.62452100  0.90645000  0.16597900  1
  O  O40  1  0.81053400  0.51916700  0.83469700  1
  O  O41  1  0.66521200  0.68035300  0.98203600  1
  O  O42  1  0.68035300  0.66521200  0.48203600  1
  O  O43  1  0.67489500  0.51339500  0.33501400  1
  O  O44  1  0.46940400  0.91087000  0.66859600  1
  O  O45  1  0.51916700  0.81053400  0.33469700  1
  O  O46  1  0.75215700  0.33070700  0.15513400  1
  O  O47  1  0.78961100  0.20693000  0.75040200  1
  O  O48  1  0.77652700  0.22318300  0.93229500  1
  O  O49  1  0.62389000  0.46931300  0.66653600  1
  O  O50  1  0.51339500  0.67489500  0.83501400  1
  O  O51  1  0.46931300  0.62389000  0.16653600  1
  O  O52  1  0.32650400  0.92107100  0.15622800  1
  O  O53  1  0.23154700  0.99567100  0.93289000  1
  O  O54  1  0.20749600  0.00225600  0.75038000  1
  O  O55  1  0.33070700  0.75215700  0.65513400  1
  O  O56  1  0.22318300  0.77652700  0.43229500  1
  O  O57  1  0.20693000  0.78961100  0.25040200  1
loop_
_geom_bond_atom_site_label_1
_geom_bond_atom_site_label_2
_geom_bond_distance
_geom_bond_site_symmetry_2
Li0 O46 1.977762 1_555
Li0 O2 1.993180 1_555
Li0 O48 2.071790 1_554
Li0 O5 2.109511 1_555
Li1 O0 1.958927 1_555
Li1 O29 1.989911 1_545
Li1 O27 2.060257 1_545
Li1 O9 2.147536 1_555
Li2 O55 1.977762 1_555
Li2 O19 1.993180 1_555
Li2 O56 2.071790 1_555
Li2 O11 2.109511 1_555
Li3 O13 1.860017 1_555
Li3 O6 2.133249 1_555
Li3 O10 2.135249 1_555
Li3 O24 2.241792 1_555
Li4 O12 1.860017 1_556
Li4 O4 2.133249 1_555
Li4 O21 2.135249 1_555
Li4 O15 2.241792 1_555
Li5 O7 1.958927 1_555
Li5 O23 1.989911 1_455
Li5 O20 2.060257 1_454
Li5 O14 2.147536 1_555
Li6 O52 1.953271 1_545
Li6 O34 1.960317 1_555
Li6 O53 2.075285 1_544
Li6 O16 2.077397 1_555
Li7 O27 1.969600 1_555
Li7 O17 2.005793 1_655
Li7 O19 2.074567 1_655
Li7 O32 2.194331 1_555
Li8 O37 1.953271 1_455
Li8 O28 1.960317 1_555
Li8 O35 2.075285 1_455
Li8 O22 2.077397 1_555
Li9 O20 1.969600 1_555
Li9 O3 2.005793 1_565
Li9 O2 2.074567 1_566
Li9 O38 2.194331 1_555
Li10 O31 1.995054 1_655
Li10 O48 2.013894 1_555
Li10 O34 2.087122 1_656
Li10 O40 2.108092 1_555
Li11 O35 1.985688 1_555
Li11 O1 1.992264 1_555
Li11 O43 2.070825 1_555
Li11 O0 2.091140 1_555
Li12 O25 1.995054 1_565
Li12 O56 2.013894 1_555
Li12 O28 2.087122 1_565
Li12 O45 2.108092 1_555
Li13 O53 1.985688 1_555
Li13 O8 1.992264 1_555
Li13 O50 2.070825 1_555
Li13 O7 2.091140 1_556
Li14 O2 2.332019 1_565
Li14 O7 2.368124 1_655
Li14 O48 2.404777 1_564
Li14 O20 2.407961 1_554
Li14 O34 2.445349 1_665
Li14 O53 2.464609 1_654
Li15 O19 2.332019 1_655
Li15 O0 2.368124 1_565
Li15 O56 2.404777 1_655
Li15 O27 2.407961 1_555
Li15 O28 2.445349 1_665
Li15 O35 2.464609 1_565
O0 P13 1.528677 1_555
O1 P1 1.534001 1_555
O1 V4 2.066699 1_555
O2 P8 1.527876 1_545
O3 P0 1.546088 1_555
O3 V2 2.044237 1_545
O4 P0 1.538750 1_555
O4 V5 2.060531 1_555
O5 P3 1.557255 1_555
O5 V4 2.025912 1_555
O6 P2 1.538750 1_555
O6 V4 2.060531 1_555
O7 P15 1.528677 1_555
O8 P5 1.534001 1_555
O8 V5 2.066699 1_555
O9 P4 1.593631 1_555
O9 V2 1.957452 1_545
O10 P1 1.540140 1_555
O10 V3 2.059569 1_545
O11 P4 1.557255 1_555
O11 V5 2.025912 1_555
O12 P3 1.509815 1_555
O13 P4 1.509815 1_555
O14 P3 1.593631 1_555
O14 V0 1.957452 1_455
O15 P7 1.558836 1_555
O15 V2 1.985750 1_545
O16 P3 1.554651 1_555
O16 V3 2.027889 1_545
O17 P2 1.546088 1_555
O17 V0 2.044237 1_455
O18 P5 1.612639 1_555
O18 P6 1.617054 1_455
O19 P6 1.527876 1_455
O20 P5 1.526824 1_655
O21 P5 1.540140 1_555
O21 V1 2.059569 1_455
O22 P4 1.554651 1_555
O22 V1 2.027889 1_455
O23 P8 1.542883 1_555
O23 V0 2.016437 1_555
O24 P9 1.558836 1_555
O24 V0 1.985750 1_455
O25 P9 1.529520 1_555
O25 V3 2.069352 1_545
O26 P1 1.612639 1_555
O26 P8 1.617054 1_545
O27 P1 1.526824 1_565
O28 P14 1.523429 1_545
O29 P6 1.542883 1_555
O29 V2 2.016437 1_555
O30 P6 1.516654 1_555
O30 V1 1.968841 1_555
O31 P7 1.529520 1_555
O31 V1 2.069352 1_455
O32 P11 1.625612 1_555
O32 V0 1.864553 1_555
O33 P10 1.538509 1_555
O33 V0 1.916025 1_555
O34 P10 1.523429 1_455
O35 P9 1.519739 1_655
O36 P9 1.604736 1_555
O36 P10 1.618370 1_455
O37 P13 1.530048 1_555
O37 V1 2.060515 1_555
O38 P12 1.625612 1_555
O38 V2 1.864553 1_555
O39 P8 1.516654 1_555
O39 V3 1.968841 1_555
O40 P12 1.553664 1_555
O40 V1 2.003779 1_555
O41 P12 1.493519 1_555
O42 P11 1.493519 1_555
O43 P11 1.553710 1_555
O43 V4 2.013770 1_555
O44 P14 1.538509 1_555
O44 V2 1.916025 1_555
O45 P11 1.553664 1_555
O45 V3 2.003779 1_555
O46 P10 1.526699 1_555
O46 V4 2.061144 1_555
O47 P0 1.602412 1_555
O47 P13 1.627826 1_555
O48 P0 1.525750 1_555
O49 P13 1.522210 1_555
O49 V5 1.958516 1_555
O50 P12 1.553710 1_555
O50 V5 2.013770 1_555
O51 P15 1.522210 1_555
O51 V4 1.958516 1_555
O52 P15 1.530048 1_555
O52 V3 2.060515 1_555
O53 P7 1.519739 1_565
O54 P7 1.604736 1_555
O54 P14 1.618370 1_545
O55 P14 1.526699 1_555
O55 V5 2.061144 1_555
O56 P2 1.525750 1_555
O57 P2 1.602412 1_555
O57 P15 1.627826 1_555
