# generated using pymatgen
data_Ba2GdB2ClO6
_symmetry_space_group_name_H-M   'P 1'
_cell_length_a   5.35037861
_cell_length_b   6.49042630
_cell_length_c   11.42204095
_cell_angle_alpha   83.79749124
_cell_angle_beta   90.00000000
_cell_angle_gamma   90.00000000
_symmetry_Int_Tables_number   1
_chemical_formula_structural   Ba2GdB2ClO6
_chemical_formula_sum   'Ba4 Gd2 B4 Cl2 O12'
_cell_volume   394.32264865
_cell_formula_units_Z   2
loop_
 _symmetry_equiv_pos_site_id
 _symmetry_equiv_pos_as_xyz
  1  'x, y, z'
loop_
 _atom_site_type_symbol
 _atom_site_label
 _atom_site_symmetry_multiplicity
 _atom_site_fract_x
 _atom_site_fract_y
 _atom_site_fract_z
 _atom_site_occupancy
  Ba  Ba0  1  0.75000000  0.40478612  0.70795116  1
  Ba  Ba1  1  0.25000000  0.59521388  0.29204884  1
  Ba  Ba2  1  0.75000000  0.15909074  0.07355430  1
  Ba  Ba3  1  0.25000000  0.84090926  0.92644570  1
  Gd  Gd0  1  0.75000000  0.15449356  0.41172473  1
  Gd  Gd1  1  0.25000000  0.84550644  0.58827527  1
  B  B0  1  0.25000000  0.12607171  0.22309282  1
  B  B1  1  0.75000000  0.87392829  0.77690718  1
  B  B2  1  0.75000000  0.71131698  0.42527159  1
  B  B3  1  0.25000000  0.28868302  0.57472841  1
  Cl  Cl0  1  0.75000000  0.65066011  0.08480560  1
  Cl  Cl1  1  0.25000000  0.34933989  0.91519440  1
  O  O0  1  0.47059946  0.21127153  0.25927991  1
  O  O1  1  0.97059946  0.78872847  0.74072009  1
  O  O2  1  0.52940054  0.78872847  0.74072009  1
  O  O3  1  0.02940054  0.21127153  0.25927991  1
  O  O4  1  0.53096892  0.82352052  0.43346145  1
  O  O5  1  0.03096892  0.17647948  0.56653855  1
  O  O6  1  0.46903108  0.17647948  0.56653855  1
  O  O7  1  0.96903108  0.82352052  0.43346145  1
  O  O8  1  0.75000000  0.51070261  0.40287395  1
  O  O9  1  0.25000000  0.48929739  0.59712605  1
  O  O10  1  0.25000000  0.97710049  0.14604460  1
  O  O11  1  0.75000000  0.02289951  0.85395540  1
loop_
_geom_bond_atom_site_label_1
_geom_bond_atom_site_label_2
_geom_bond_distance
_geom_bond_site_symmetry_2
Ba0 O6 2.753500 1_555
Ba0 O5 2.753500 1_655
Ba0 O1 2.818605 1_555
Ba0 O2 2.818605 1_555
Ba0 O11 2.833975 1_555
Ba0 O9 2.984936 1_555
Ba0 O9 2.984936 1_655
Ba0 Cl1 3.564467 1_655
Ba0 Cl1 3.564467 1_555
Ba1 O7 2.753500 1_455
Ba1 O4 2.753500 1_555
Ba1 O3 2.818605 1_555
Ba1 O0 2.818605 1_555
Ba1 O10 2.833975 1_555
Ba1 O8 2.984936 1_455
Ba1 O8 2.984936 1_555
Ba1 Cl0 3.564467 1_455
Ba1 Cl0 3.564467 1_555
Ba2 O3 2.646670 1_655
Ba2 O0 2.646670 1_555
Ba2 O11 2.748063 1_554
Ba2 O10 3.004344 1_545
Ba2 O10 3.004344 1_645
Ba2 Cl0 3.206926 1_555
Ba2 Cl0 3.288529 1_545
Ba2 Cl1 3.386808 1_654
Ba2 Cl1 3.386808 1_554
Ba3 O1 2.646670 1_455
Ba3 O2 2.646670 1_555
Ba3 O10 2.748063 1_556
Ba3 O11 3.004344 1_565
Ba3 O11 3.004344 1_465
Ba3 Cl1 3.206926 1_555
Ba3 Cl1 3.288529 1_565
Ba3 Cl0 3.386808 1_556
Ba3 Cl0 3.386808 1_456
Gd0 O3 2.294287 1_655
Gd0 O0 2.294287 1_555
Gd0 O8 2.303220 1_555
Gd0 O6 2.337010 1_555
Gd0 O5 2.337010 1_655
Gd0 O7 2.436045 1_545
Gd0 O4 2.436045 1_545
Gd1 O2 2.294287 1_555
Gd1 O1 2.294287 1_455
Gd1 O9 2.303220 1_555
Gd1 O7 2.337010 1_455
Gd1 O4 2.337010 1_555
Gd1 O5 2.436045 1_565
Gd1 O6 2.436045 1_565
B0 O10 1.375944 1_545
B0 O3 1.385319 1_555
B0 O0 1.385319 1_555
B1 O11 1.375944 1_565
B1 O2 1.385319 1_555
B1 O1 1.385319 1_555
B2 O8 1.353817 1_555
B2 O4 1.388224 1_555
B2 O7 1.388224 1_555
B3 O9 1.353817 1_555
B3 O6 1.388224 1_555
B3 O5 1.388224 1_555
