# generated using pymatgen
data_Na6Mn2As(CO4)4
_symmetry_space_group_name_H-M   'P 1'
_cell_length_a   10.09216315
_cell_length_b   10.09216315
_cell_length_c   10.09216315
_cell_angle_alpha   60.00000000
_cell_angle_beta   60.00000000
_cell_angle_gamma   60.00000000
_symmetry_Int_Tables_number   1
_chemical_formula_structural   Na6Mn2As(CO4)4
_chemical_formula_sum   'Na12 Mn4 As2 C8 O32'
_cell_volume   726.83827711
_cell_formula_units_Z   2
loop_
 _symmetry_equiv_pos_site_id
 _symmetry_equiv_pos_as_xyz
  1  'x, y, z'
loop_
 _atom_site_type_symbol
 _atom_site_label
 _atom_site_symmetry_multiplicity
 _atom_site_fract_x
 _atom_site_fract_y
 _atom_site_fract_z
 _atom_site_occupancy
  Na  Na0  1  0.96000000  0.96000000  0.54000000  1
  Na  Na1  1  0.71000000  0.29000000  0.29000000  1
  Na  Na2  1  0.96000000  0.54000000  0.96000000  1
  Na  Na3  1  0.54000000  0.96000000  0.54000000  1
  Na  Na4  1  0.71000000  0.71000000  0.29000000  1
  Na  Na5  1  0.29000000  0.71000000  0.71000000  1
  Na  Na6  1  0.54000000  0.54000000  0.96000000  1
  Na  Na7  1  0.96000000  0.54000000  0.54000000  1
  Na  Na8  1  0.29000000  0.71000000  0.29000000  1
  Na  Na9  1  0.71000000  0.29000000  0.71000000  1
  Na  Na10  1  0.54000000  0.96000000  0.96000000  1
  Na  Na11  1  0.29000000  0.29000000  0.71000000  1
  Mn  Mn0  1  0.12500000  0.62500000  0.12500000  1
  Mn  Mn1  1  0.12500000  0.12500000  0.62500000  1
  Mn  Mn2  1  0.12500000  0.12500000  0.12500000  1
  Mn  Mn3  1  0.62500000  0.12500000  0.12500000  1
  As  As0  1  0.75000000  0.75000000  0.75000000  1
  As  As1  1  0.50000000  0.50000000  0.50000000  1
  C  C0  1  0.34193700  0.97419000  0.34193700  1
  C  C1  1  0.34193700  0.34193700  0.97419000  1
  C  C2  1  0.97419000  0.34193700  0.34193700  1
  C  C3  1  0.34193700  0.34193700  0.34193700  1
  C  C4  1  0.90806300  0.90806300  0.90806300  1
  C  C5  1  0.27581000  0.90806300  0.90806300  1
  C  C6  1  0.90806300  0.90806300  0.27581000  1
  C  C7  1  0.90806300  0.27581000  0.90806300  1
  O  O0  1  0.93107700  0.02249400  0.27758200  1
  O  O1  1  0.76884600  0.27758200  0.02249400  1
  O  O2  1  0.22750600  0.97241800  0.31892300  1
  O  O3  1  0.31892300  0.97241800  0.48115400  1
  O  O4  1  0.68034300  0.68034300  0.68034300  1
  O  O5  1  0.97241800  0.31892300  0.22750600  1
  O  O6  1  0.97241800  0.22750600  0.48115400  1
  O  O7  1  0.68034300  0.68034300  0.95897000  1
  O  O8  1  0.95897000  0.68034300  0.68034300  1
  O  O9  1  0.48115400  0.31892300  0.97241800  1
  O  O10  1  0.22750600  0.48115400  0.97241800  1
  O  O11  1  0.68034300  0.95897000  0.68034300  1
  O  O12  1  0.48115400  0.22750600  0.31892300  1
  O  O13  1  0.97241800  0.48115400  0.31892300  1
  O  O14  1  0.22750600  0.31892300  0.48115400  1
  O  O15  1  0.93107700  0.76884600  0.02249400  1
  O  O16  1  0.31892300  0.48115400  0.22750600  1
  O  O17  1  0.02249400  0.93107700  0.76884600  1
  O  O18  1  0.27758200  0.76884600  0.93107700  1
  O  O19  1  0.76884600  0.02249400  0.93107700  1
  O  O20  1  0.56965700  0.29103000  0.56965700  1
  O  O21  1  0.02249400  0.76884600  0.27758200  1
  O  O22  1  0.76884600  0.93107700  0.27758200  1
  O  O23  1  0.29103000  0.56965700  0.56965700  1
  O  O24  1  0.56965700  0.56965700  0.29103000  1
  O  O25  1  0.27758200  0.02249400  0.76884600  1
  O  O26  1  0.27758200  0.93107700  0.02249400  1
  O  O27  1  0.56965700  0.56965700  0.56965700  1
  O  O28  1  0.93107700  0.27758200  0.76884600  1
  O  O29  1  0.02249400  0.27758200  0.93107700  1
  O  O30  1  0.48115400  0.97241800  0.22750600  1
  O  O31  1  0.31892300  0.22750600  0.97241800  1
loop_
_geom_bond_atom_site_label_1
_geom_bond_atom_site_label_2
_geom_bond_distance
_geom_bond_site_symmetry_2
Na0 O11 2.447237 1_555
Na0 O8 2.447237 1_555
Na0 O2 2.513452 1_655
Na0 O6 2.513455 1_565
Na0 O17 2.532864 1_655
Na0 O0 2.532874 1_565
Na1 O20 2.447237 1_555
Na1 O24 2.447237 1_555
Na1 O0 2.513452 1_555
Na1 O1 2.513455 1_555
Na1 O12 2.532864 1_555
Na1 O5 2.532874 1_555
Na2 O7 2.447237 1_555
Na2 O8 2.447237 1_555
Na2 O5 2.513452 1_556
Na2 O10 2.513455 1_655
Na2 O15 2.532864 1_556
Na2 O29 2.532874 1_655
Na3 O11 2.447228 1_555
Na3 O4 2.447234 1_555
Na3 O3 2.513445 1_555
Na3 O12 2.513450 1_565
Na3 O25 2.532868 1_565
Na3 O22 2.532870 1_555
Na4 O24 2.447228 1_555
Na4 O27 2.447234 1_555
Na4 O22 2.513445 1_555
Na4 O15 2.513450 1_555
Na4 O30 2.532868 1_555
Na4 O13 2.532870 1_555
Na5 O23 2.447228 1_555
Na5 O27 2.447234 1_555
Na5 O18 2.513445 1_555
Na5 O17 2.513450 1_555
Na5 O10 2.532868 1_555
Na5 O3 2.532870 1_555
Na6 O7 2.447228 1_555
Na6 O4 2.447234 1_555
Na6 O9 2.513445 1_555
Na6 O16 2.513450 1_556
Na6 O1 2.532868 1_556
Na6 O18 2.532870 1_555
Na7 O8 2.447228 1_555
Na7 O4 2.447234 1_555
Na7 O13 2.513445 1_555
Na7 O14 2.513450 1_655
Na7 O21 2.532868 1_655
Na7 O28 2.532870 1_555
Na8 O23 2.447237 1_555
Na8 O24 2.447237 1_555
Na8 O26 2.513452 1_555
Na8 O21 2.513455 1_555
Na8 O16 2.532864 1_555
Na8 O2 2.532874 1_555
Na9 O20 2.447228 1_555
Na9 O27 2.447234 1_555
Na9 O28 2.513445 1_555
Na9 O19 2.513450 1_555
Na9 O6 2.532868 1_555
Na9 O9 2.532870 1_555
Na10 O7 2.447237 1_555
Na10 O11 2.447237 1_555
Na10 O31 2.513452 1_565
Na10 O30 2.513455 1_556
Na10 O19 2.532864 1_565
Na10 O26 2.532874 1_556
Na11 O20 2.447237 1_555
Na11 O23 2.447237 1_555
Na11 O29 2.513452 1_555
Na11 O25 2.513455 1_555
Na11 O14 2.532864 1_555
Na11 O31 2.532874 1_555
Mn0 O21 2.165541 1_555
Mn0 O10 2.165541 1_554
Mn0 O18 2.165543 1_554
Mn0 O13 2.165543 1_455
Mn0 O16 2.165549 1_555
Mn0 O15 2.165549 1_455
Mn1 O25 2.165541 1_555
Mn1 O6 2.165541 1_455
Mn1 O28 2.165543 1_455
Mn1 O3 2.165543 1_545
Mn1 O14 2.165549 1_555
Mn1 O17 2.165549 1_545
Mn2 O2 2.165549 1_545
Mn2 O5 2.165549 1_455
Mn2 O31 2.165549 1_554
Mn2 O0 2.165549 1_455
Mn2 O26 2.165549 1_545
Mn2 O29 2.165549 1_554
Mn3 O1 2.165541 1_555
Mn3 O30 2.165541 1_545
Mn3 O22 2.165543 1_545
Mn3 O9 2.165543 1_554
Mn3 O12 2.165549 1_555
Mn3 O19 2.165549 1_554
As0 O7 1.721958 1_555
As0 O8 1.721958 1_555
As0 O11 1.721958 1_555
As0 O4 1.721966 1_555
As1 O23 1.721958 1_555
As1 O20 1.721958 1_555
As1 O24 1.721958 1_555
As1 O27 1.721966 1_555
C0 O3 1.296531 1_555
C0 O30 1.296531 1_555
C0 O2 1.296531 1_555
C1 O9 1.296531 1_555
C1 O10 1.296531 1_555
C1 O31 1.296531 1_555
C2 O13 1.296531 1_555
C2 O6 1.296531 1_555
C2 O5 1.296531 1_555
C3 O12 1.296531 1_555
C3 O14 1.296531 1_555
C3 O16 1.296531 1_555
C4 O17 1.296531 1_655
C4 O15 1.296531 1_556
C4 O19 1.296531 1_565
C5 O26 1.296531 1_556
C5 O25 1.296531 1_565
C5 O18 1.296531 1_555
C6 O0 1.296531 1_565
C6 O21 1.296531 1_655
C6 O22 1.296531 1_555
C7 O29 1.296531 1_655
C7 O1 1.296531 1_556
C7 O28 1.296531 1_555
