# generated using pymatgen
data_Cs(SbS2)2
_symmetry_space_group_name_H-M   'P 1'
_cell_length_a   6.66821915
_cell_length_b   6.71935183
_cell_length_c   9.71765876
_cell_angle_alpha   80.54273408
_cell_angle_beta   89.61722751
_cell_angle_gamma   76.23803319
_symmetry_Int_Tables_number   1
_chemical_formula_structural   Cs(SbS2)2
_chemical_formula_sum   'Cs2 Sb4 S8'
_cell_volume   416.92416852
_cell_formula_units_Z   2
loop_
 _symmetry_equiv_pos_site_id
 _symmetry_equiv_pos_as_xyz
  1  'x, y, z'
loop_
 _atom_site_type_symbol
 _atom_site_label
 _atom_site_symmetry_multiplicity
 _atom_site_fract_x
 _atom_site_fract_y
 _atom_site_fract_z
 _atom_site_occupancy
  Cs  Cs0  1  0.68671661  0.15917475  0.07426612  1
  Cs  Cs1  1  0.31328339  0.84082525  0.92573388  1
  Sb  Sb0  1  0.09683204  0.40598288  0.32016456  1
  Sb  Sb1  1  0.90316796  0.59401712  0.67983544  1
  Sb  Sb2  1  0.34443971  0.81637351  0.44889810  1
  Sb  Sb3  1  0.65556029  0.18362649  0.55110190  1
  S  S0  1  0.41261893  0.52838512  0.27924108  1
  S  S1  1  0.58738107  0.47161488  0.72075892  1
  S  S2  1  0.19702972  0.07309973  0.23371534  1
  S  S3  1  0.80297028  0.92690027  0.76628466  1
  S  S4  1  0.91761045  0.57256154  0.07683721  1
  S  S5  1  0.08238955  0.42743846  0.92316279  1
  S  S6  1  0.30188497  0.15890828  0.58695714  1
  S  S7  1  0.69811503  0.84109172  0.41304286  1
loop_
_geom_bond_atom_site_label_1
_geom_bond_atom_site_label_2
_geom_bond_distance
_geom_bond_site_symmetry_2
Cs0 S4 3.484937 1_555
Cs0 S0 3.588980 1_555
Cs0 S3 3.594777 1_544
Cs0 S7 3.609110 1_545
Cs0 S2 3.626917 1_655
Cs0 S1 3.694049 1_554
Cs0 S5 3.702412 1_654
Cs0 S2 3.732861 1_555
Cs0 S4 3.871511 1_545
Cs0 S5 4.171060 1_554
Cs1 S5 3.484937 1_555
Cs1 S1 3.588980 1_555
Cs1 S2 3.594777 1_566
Cs1 S6 3.609110 1_565
Cs1 S3 3.626917 1_455
Cs1 S0 3.694049 1_556
Cs1 S4 3.702412 1_456
Cs1 S3 3.732861 1_555
Cs1 S5 3.871511 1_565
Cs1 S4 4.171060 1_556
S0 Sb0 2.444185 1_555
S0 Sb2 2.699857 1_555
S1 Sb1 2.444185 1_555
S1 Sb3 2.699857 1_555
S2 Sb0 2.460531 1_555
S2 Sb2 2.519891 1_545
S3 Sb1 2.460531 1_555
S3 Sb3 2.519891 1_565
S4 S5 2.082107 1_654
S4 Sb0 2.608417 1_655
S5 Sb1 2.608417 1_455
S6 Sb3 2.422258 1_555
S6 Sb2 2.806560 1_545
S6 Sb0 2.983331 1_555
S7 Sb2 2.422258 1_555
S7 Sb3 2.806560 1_565
S7 Sb1 2.983331 1_555
