# generated using pymatgen
data_RbMnP3HO10
_symmetry_space_group_name_H-M   'P 1'
_cell_length_a   7.45061739
_cell_length_b   7.44947860
_cell_length_c   8.81472559
_cell_angle_alpha   76.23618966
_cell_angle_beta   103.76421994
_cell_angle_gamma   109.87850337
_symmetry_Int_Tables_number   1
_chemical_formula_structural   RbMnP3HO10
_chemical_formula_sum   'Rb2 Mn2 P6 H2 O20'
_cell_volume   440.22939372
_cell_formula_units_Z   2
loop_
 _symmetry_equiv_pos_site_id
 _symmetry_equiv_pos_as_xyz
  1  'x, y, z'
loop_
 _atom_site_type_symbol
 _atom_site_label
 _atom_site_symmetry_multiplicity
 _atom_site_fract_x
 _atom_site_fract_y
 _atom_site_fract_z
 _atom_site_occupancy
  Rb  Rb0  1  0.62900589  0.09805911  0.24356673  1
  Rb  Rb1  1  0.09823789  0.62927790  0.75664783  1
  Mn  Mn0  1  0.19890975  0.19881811  0.49993964  1
  Mn  Mn1  1  0.70887192  0.70881861  0.00009421  1
  P  P0  1  0.06756736  0.53452471  0.20797372  1
  P  P1  1  0.53478258  0.06776034  0.79200058  1
  P  P2  1  0.06693036  0.91711850  0.23533250  1
  P  P3  1  0.91722549  0.06683726  0.76469301  1
  P  P4  1  0.45739017  0.51425760  0.27033097  1
  P  P5  1  0.51411266  0.45754804  0.72957926  1
  H  H0  1  0.61943902  0.61914882  0.50034476  1
  H  H1  1  0.12823612  0.12865456  0.99967248  1
  O  O0  1  0.20217531  0.05040715  0.12316601  1
  O  O1  1  0.05055900  0.20221449  0.87689648  1
  O  O2  1  0.08972890  0.98337366  0.38912904  1
  O  O3  1  0.98362580  0.08964933  0.61101401  1
  O  O4  1  0.85586557  0.86712498  0.15588369  1
  O  O5  1  0.86725581  0.85586110  0.84428954  1
  O  O6  1  0.12284297  0.71870438  0.29187090  1
  O  O7  1  0.71902118  0.12303685  0.70816891  1
  O  O8  1  0.92502877  0.54989288  0.05936159  1
  O  O9  1  0.55018750  0.92531656  0.94067637  1
  O  O10  1  0.02092547  0.35860518  0.33125245  1
  O  O11  1  0.35890727  0.02107341  0.66874680  1
  O  O12  1  0.26765742  0.55740199  0.15714109  1
  O  O13  1  0.55769566  0.26800684  0.84268513  1
  O  O14  1  0.39904028  0.31387426  0.37115751  1
  O  O15  1  0.31385978  0.39909543  0.62874619  1
  O  O16  1  0.58065587  0.51223867  0.15773245  1
  O  O17  1  0.51230231  0.58091625  0.84213739  1
  O  O18  1  0.54758164  0.67549766  0.36790948  1
  O  O19  1  0.67537427  0.54787937  0.63186129  1
loop_
_geom_bond_atom_site_label_1
_geom_bond_atom_site_label_2
_geom_bond_distance
_geom_bond_site_symmetry_2
Mn0 O2 1.916157 1_545
Mn0 O3 1.916802 1_455
Mn0 O14 1.928726 1_555
Mn0 O15 1.929493 1_555
Mn0 O10 2.163176 1_555
Mn0 O11 2.163388 1_555
Mn1 O4 1.911177 1_555
Mn1 O5 1.911773 1_554
Mn1 O16 1.923523 1_555
Mn1 O17 1.924410 1_554
Mn1 O8 2.206870 1_555
Mn1 O9 2.207573 1_554
H0 O19 1.194651 1_555
H0 O18 1.203274 1_555
H1 O1 1.200790 1_555
H1 O0 1.208018 1_556
O0 P2 1.518346 1_545
O0 Rb0 3.028405 1_555
O1 P3 1.519178 1_455
O1 Rb1 3.029359 1_555
O2 P2 1.504032 1_555
O3 P3 1.503617 1_555
O4 P2 1.517851 1_655
O4 Rb0 3.105750 1_565
O5 P3 1.517454 1_565
O5 Rb1 3.104224 1_655
O6 P0 1.597697 1_555
O6 P2 1.605013 1_555
O7 P1 1.597933 1_555
O7 P3 1.604792 1_555
O8 P0 1.485362 1_655
O8 Rb1 3.082844 1_654
O9 P1 1.485328 1_565
O9 Rb0 3.082860 1_566
O10 P0 1.487076 1_555
O10 Rb0 2.945653 1_455
O11 P1 1.486890 1_555
O11 Rb1 2.945512 1_545
O12 P0 1.600323 1_555
O12 P4 1.606969 1_555
O12 Rb1 3.432541 1_554
O13 P1 1.600520 1_555
O13 P5 1.606559 1_555
O13 Rb0 3.436152 1_556
O14 P4 1.522641 1_555
O14 Rb0 3.230477 1_555
O15 P5 1.522168 1_555
O15 Rb1 3.232253 1_555
O16 P4 1.509655 1_555
O16 Rb0 3.120480 1_555
O17 P5 1.509265 1_555
O17 Rb1 3.120177 1_555
O18 P4 1.517174 1_555
O18 Rb0 2.975629 1_565
O19 P5 1.518284 1_555
O19 Rb1 2.978748 1_655
