# generated using pymatgen
data_YCo
_symmetry_space_group_name_H-M   'P 1'
_cell_length_a   3.84650815
_cell_length_b   4.13498356
_cell_length_c   5.61003430
_cell_angle_alpha   111.62527200
_cell_angle_beta   90.00000000
_cell_angle_gamma   90.00000000
_symmetry_Int_Tables_number   1
_chemical_formula_structural   YCo
_chemical_formula_sum   'Y2 Co2'
_cell_volume   82.94851723
_cell_formula_units_Z   2
loop_
 _symmetry_equiv_pos_site_id
 _symmetry_equiv_pos_as_xyz
  1  'x, y, z'
loop_
 _atom_site_type_symbol
 _atom_site_label
 _atom_site_symmetry_multiplicity
 _atom_site_fract_x
 _atom_site_fract_y
 _atom_site_fract_z
 _atom_site_occupancy
  Y  Y0  1  0.25000000  0.85722343  0.71444587  1
  Y  Y1  1  0.75000000  0.14277657  0.28555413  1
  Co  Co0  1  0.25000000  0.55320786  0.10641471  1
  Co  Co1  1  0.75000000  0.44679214  0.89358529  1
loop_
_geom_bond_atom_site_label_1
_geom_bond_atom_site_label_2
_geom_bond_distance
_geom_bond_site_symmetry_2
Co0 Co1 2.220557 1_454
Co0 Co1 2.220557 1_554
Co0 Y0 2.907440 1_554
Co0 Y0 2.907440 1_544
Co0 Y1 2.974259 1_565
Co0 Y1 2.974259 1_465
Co0 Y1 2.974265 1_555
Co0 Y1 2.974265 1_455
Co0 Y0 3.170984 1_555
Co1 Y1 2.907440 1_556
Co1 Y1 2.907440 1_566
Co1 Y0 2.974259 1_645
Co1 Y0 2.974259 1_545
Co1 Y0 2.974265 1_555
Co1 Y0 2.974265 1_655
Co1 Y1 3.170984 1_555
