# generated using pymatgen
data_Hg
_symmetry_space_group_name_H-M   'P 1'
_cell_length_a   10.22610258
_cell_length_b   10.22610258
_cell_length_c   10.22610258
_cell_angle_alpha   109.47122063
_cell_angle_beta   109.47122063
_cell_angle_gamma   109.47122063
_symmetry_Int_Tables_number   1
_chemical_formula_structural   Hg
_chemical_formula_sum   Hg29
_cell_volume   823.20603297
_cell_formula_units_Z   29
loop_
 _symmetry_equiv_pos_site_id
 _symmetry_equiv_pos_as_xyz
  1  'x, y, z'
loop_
 _atom_site_type_symbol
 _atom_site_label
 _atom_site_symmetry_multiplicity
 _atom_site_fract_x
 _atom_site_fract_y
 _atom_site_fract_z
 _atom_site_occupancy
  Hg  Hg0  1  0.00000000  -0.00000000  0.00000000  1
  Hg  Hg1  1  0.34874846  -0.00000000  -0.00000000  1
  Hg  Hg2  1  0.58899059  0.31014076  0.00000000  1
  Hg  Hg3  1  -0.00000000  0.34874846  0.00000000  1
  Hg  Hg4  1  0.31014076  0.58899059  -0.00000000  1
  Hg  Hg5  1  0.80733827  0.62146718  -0.00000000  1
  Hg  Hg6  1  0.62146718  0.80733827  -0.00000000  1
  Hg  Hg7  1  0.37853282  0.37853282  0.18587209  1
  Hg  Hg8  1  0.81412891  0.19266173  0.19266173  1
  Hg  Hg9  1  0.19266173  0.81412891  0.19266173  1
  Hg  Hg10  1  0.68985824  0.68985824  0.27884883  1
  Hg  Hg11  1  0.58899059  -0.00000000  0.31014076  1
  Hg  Hg12  1  -0.00000000  0.58899059  0.31014076  1
  Hg  Hg13  1  -0.00000000  0.00000000  0.34874846  1
  Hg  Hg14  1  0.37853282  0.18587209  0.37853282  1
  Hg  Hg15  1  0.18587209  0.37853282  0.37853282  1
  Hg  Hg16  1  0.72115117  0.41100841  0.41100841  1
  Hg  Hg17  1  0.41100841  0.72115117  0.41100841  1
  Hg  Hg18  1  0.31014076  -0.00000000  0.58899059  1
  Hg  Hg19  1  0.00000000  0.31014076  0.58899059  1
  Hg  Hg20  1  0.80733827  -0.00000000  0.62146718  1
  Hg  Hg21  1  -0.00000000  0.80733827  0.62146718  1
  Hg  Hg22  1  0.65125154  0.65125154  0.65125154  1
  Hg  Hg23  1  0.68985824  0.27884883  0.68985824  1
  Hg  Hg24  1  0.27884883  0.68985824  0.68985824  1
  Hg  Hg25  1  0.41100841  0.41100841  0.72115117  1
  Hg  Hg26  1  0.62146718  -0.00000000  0.80733827  1
  Hg  Hg27  1  0.00000000  0.62146718  0.80733827  1
  Hg  Hg28  1  0.19266173  0.19266173  0.81412891  1
loop_
_geom_bond_atom_site_label_1
_geom_bond_atom_site_label_2
_geom_bond_distance
_geom_bond_site_symmetry_2
Hg1 Hg2 3.301479 1_555
Hg1 Hg11 3.301479 1_555
Hg1 Hg24 3.301487 1_544
Hg2 Hg5 3.222141 1_555
Hg2 Hg26 3.320130 1_554
Hg2 Hg8 3.320130 1_555
Hg2 Hg28 3.402661 1_554
Hg2 Hg7 3.402668 1_555
Hg3 Hg4 3.301479 1_555
Hg4 Hg6 3.222141 1_555
Hg4 Hg9 3.320130 1_555
Hg4 Hg7 3.402668 1_555
Hg5 Hg6 3.103890 1_555
Hg5 Hg9 3.217288 1_655
Hg6 Hg8 3.217288 1_565
Hg10 Hg7 3.222137 1_555
Hg10 Hg13 3.301487 1_665
Hg10 Hg20 3.320138 1_565
Hg10 Hg21 3.320138 1_655
Hg10 Hg6 3.402659 1_555
Hg10 Hg5 3.402659 1_555
Hg11 Hg20 3.222141 1_555
Hg11 Hg6 3.320130 1_545
Hg11 Hg8 3.320130 1_555
Hg11 Hg9 3.402661 1_545
Hg11 Hg14 3.402668 1_555
Hg12 Hg21 3.222141 1_555
Hg12 Hg3 3.301479 1_555
Hg12 Hg9 3.320130 1_555
Hg12 Hg5 3.320130 1_455
Hg12 Hg8 3.402661 1_455
Hg12 Hg15 3.402668 1_555
Hg13 Hg19 3.301479 1_555
Hg13 Hg18 3.301479 1_555
Hg14 Hg9 3.103899 1_545
Hg14 Hg15 3.217272 1_555
Hg14 Hg7 3.217272 1_555
Hg14 Hg23 3.222137 1_555
Hg14 Hg16 3.320136 1_555
Hg14 Hg25 3.320136 1_555
Hg14 Hg18 3.402668 1_555
Hg15 Hg8 3.103899 1_455
Hg15 Hg7 3.217272 1_555
Hg15 Hg24 3.222137 1_555
Hg15 Hg17 3.320136 1_555
Hg15 Hg25 3.320136 1_555
Hg15 Hg19 3.402668 1_555
Hg16 Hg8 3.222121 1_555
Hg16 Hg22 3.301498 1_555
Hg16 Hg7 3.320136 1_555
Hg16 Hg21 3.402665 1_655
Hg16 Hg27 3.402665 1_655
Hg17 Hg9 3.222121 1_555
Hg17 Hg22 3.301498 1_555
Hg17 Hg7 3.320136 1_555
Hg17 Hg26 3.402665 1_565
Hg17 Hg20 3.402665 1_565
Hg18 Hg26 3.222141 1_555
Hg18 Hg28 3.320130 1_555
Hg18 Hg21 3.320130 1_545
Hg18 Hg9 3.402661 1_545
Hg19 Hg27 3.222141 1_555
Hg19 Hg20 3.320130 1_455
Hg19 Hg28 3.320130 1_555
Hg19 Hg8 3.402661 1_455
Hg20 Hg26 3.103890 1_555
Hg20 Hg28 3.217288 1_655
Hg20 Hg21 3.217288 1_645
Hg20 Hg23 3.402659 1_555
Hg21 Hg27 3.103890 1_555
Hg21 Hg28 3.217288 1_565
Hg21 Hg24 3.402659 1_555
Hg22 Hg25 3.301498 1_555
Hg23 Hg3 3.301487 1_656
Hg23 Hg5 3.320138 1_556
Hg23 Hg27 3.320138 1_655
Hg23 Hg26 3.402659 1_555
Hg24 Hg26 3.320138 1_565
Hg24 Hg6 3.320138 1_556
Hg24 Hg27 3.402659 1_555
Hg25 Hg28 3.222121 1_555
Hg25 Hg5 3.402665 1_556
Hg25 Hg6 3.402665 1_556
Hg26 Hg6 3.217288 1_546
Hg26 Hg8 3.217288 1_556
Hg27 Hg5 3.217288 1_456
Hg27 Hg9 3.217288 1_556
Hg27 Hg4 3.320130 1_556
Hg28 Hg7 3.103899 1_556
Hg28 Hg4 3.402661 1_556
