# generated using pymatgen
data_Ta2Co4O9
_symmetry_space_group_name_H-M   'P 1'
_cell_length_a   5.20793028
_cell_length_b   5.20793028
_cell_length_c   14.31473600
_cell_angle_alpha   90.00000000
_cell_angle_beta   90.00000000
_cell_angle_gamma   120.00000351
_symmetry_Int_Tables_number   1
_chemical_formula_structural   Ta2Co4O9
_chemical_formula_sum   'Ta4 Co8 O18'
_cell_volume   336.23605521
_cell_formula_units_Z   2
loop_
 _symmetry_equiv_pos_site_id
 _symmetry_equiv_pos_as_xyz
  1  'x, y, z'
loop_
 _atom_site_type_symbol
 _atom_site_label
 _atom_site_symmetry_multiplicity
 _atom_site_fract_x
 _atom_site_fract_y
 _atom_site_fract_z
 _atom_site_occupancy
  Ta  Ta0  1  0.00000000  0.00000000  0.64328700  1
  Ta  Ta1  1  0.00000000  0.00000000  0.85671300  1
  Ta  Ta2  1  0.00000000  0.00000000  0.14328700  1
  Ta  Ta3  1  0.00000000  0.00000000  0.35671300  1
  Co  Co0  1  0.33333300  0.66666700  0.51461500  1
  Co  Co1  1  0.33333300  0.66666700  0.80834400  1
  Co  Co2  1  0.33333300  0.66666700  0.30834400  1
  Co  Co3  1  0.33333300  0.66666700  0.01461500  1
  Co  Co4  1  0.66666700  0.33333300  0.69165600  1
  Co  Co5  1  0.66666700  0.33333300  0.19165600  1
  Co  Co6  1  0.66666700  0.33333300  0.48538500  1
  Co  Co7  1  0.66666700  0.33333300  0.98538500  1
  O  O0  1  0.00000000  0.71229300  0.25000000  1
  O  O1  1  0.02164200  0.67999700  0.91553100  1
  O  O2  1  0.32000300  0.97835800  0.41553100  1
  O  O3  1  0.00000000  0.28770700  0.75000000  1
  O  O4  1  0.02164200  0.34164500  0.41553100  1
  O  O5  1  0.32000300  0.34164500  0.91553100  1
  O  O6  1  0.28770700  0.28770700  0.25000000  1
  O  O7  1  0.34164500  0.32000300  0.58446900  1
  O  O8  1  0.65835500  0.97835800  0.91553100  1
  O  O9  1  0.28770700  0.00000000  0.75000000  1
  O  O10  1  0.34164500  0.02164200  0.08446900  1
  O  O11  1  0.65835500  0.67999700  0.41553100  1
  O  O12  1  0.71229300  0.71229300  0.75000000  1
  O  O13  1  0.67999700  0.65835500  0.08446900  1
  O  O14  1  0.97835800  0.65835500  0.58446900  1
  O  O15  1  0.67999700  0.02164200  0.58446900  1
  O  O16  1  0.71229300  0.00000000  0.25000000  1
  O  O17  1  0.97835800  0.32000300  0.08446900  1
loop_
_geom_bond_atom_site_label_1
_geom_bond_atom_site_label_2
_geom_bond_distance
_geom_bond_site_symmetry_2
Co0 O14 2.083115 1_455
Co0 O15 2.083117 1_565
Co0 O7 2.083119 1_555
Co0 O2 2.182716 1_555
Co0 O4 2.182718 1_555
Co0 O11 2.182720 1_555
Co1 O9 2.044527 1_565
Co1 O3 2.044530 1_555
Co1 O12 2.044532 1_555
Co1 O1 2.259810 1_555
Co1 O8 2.259812 1_555
Co1 O5 2.259813 1_555
Co2 O0 2.044527 1_555
Co2 O16 2.044530 1_565
Co2 O6 2.044532 1_555
Co2 O2 2.259810 1_555
Co2 O4 2.259812 1_555
Co2 O11 2.259813 1_555
Co3 O10 2.083115 1_565
Co3 O17 2.083117 1_455
Co3 O13 2.083119 1_555
Co3 O1 2.182716 1_554
Co3 O8 2.182718 1_554
Co3 O5 2.182720 1_554
Co4 O3 2.044527 1_655
Co4 O9 2.044530 1_555
Co4 O12 2.044532 1_555
Co4 O15 2.259810 1_555
Co4 O14 2.259812 1_555
Co4 O7 2.259813 1_555
Co5 O16 2.044527 1_555
Co5 O0 2.044530 1_655
Co5 O6 2.044532 1_555
Co5 O17 2.259810 1_555
Co5 O10 2.259812 1_555
Co5 O13 2.259813 1_555
Co6 O4 2.083115 1_655
Co6 O2 2.083117 1_545
Co6 O11 2.083119 1_555
Co6 O15 2.182716 1_555
Co6 O14 2.182718 1_555
Co6 O7 2.182720 1_555
Co7 O8 2.083115 1_545
Co7 O1 2.083117 1_655
Co7 O5 2.083119 1_555
Co7 O17 2.182716 1_556
Co7 O10 2.182718 1_556
Co7 O13 2.182720 1_556
O0 Ta2 2.139753 1_565
O0 Ta3 2.139753 1_565
O1 Ta1 1.920116 1_565
O2 Ta3 1.920116 1_565
O3 Ta1 2.139753 1_555
O3 Ta0 2.139753 1_555
O4 Ta3 1.920116 1_555
O5 Ta1 1.920116 1_555
O6 Ta2 2.139753 1_555
O6 Ta3 2.139753 1_555
O7 Ta0 1.920116 1_555
O8 Ta1 1.920116 1_665
O9 Ta1 2.139753 1_555
O9 Ta0 2.139753 1_555
O10 Ta2 1.920116 1_555
O11 Ta3 1.920116 1_665
O12 Ta0 2.139753 1_665
O12 Ta1 2.139753 1_665
O13 Ta2 1.920116 1_665
O14 Ta0 1.920116 1_665
O15 Ta0 1.920116 1_655
O16 Ta2 2.139753 1_655
O16 Ta3 2.139753 1_655
O17 Ta2 1.920116 1_655
