# generated using pymatgen
data_Ba3Co(CN)3
_symmetry_space_group_name_H-M   'P 1'
_cell_length_a   9.11995054
_cell_length_b   9.11995054
_cell_length_c   5.82949600
_cell_angle_alpha   90.00000000
_cell_angle_beta   90.00000000
_cell_angle_gamma   120.00000389
_symmetry_Int_Tables_number   1
_chemical_formula_structural   Ba3Co(CN)3
_chemical_formula_sum   'Ba6 Co2 C6 N6'
_cell_volume   419.90069069
_cell_formula_units_Z   2
loop_
 _symmetry_equiv_pos_site_id
 _symmetry_equiv_pos_as_xyz
  1  'x, y, z'
loop_
 _atom_site_type_symbol
 _atom_site_label
 _atom_site_symmetry_multiplicity
 _atom_site_fract_x
 _atom_site_fract_y
 _atom_site_fract_z
 _atom_site_occupancy
  Ba  Ba0  1  0.93022300  0.62167900  0.75000000  1
  Ba  Ba1  1  0.06977700  0.37832100  0.25000000  1
  Ba  Ba2  1  0.37832100  0.30854400  0.75000000  1
  Ba  Ba3  1  0.69145600  0.06977700  0.75000000  1
  Ba  Ba4  1  0.30854400  0.93022300  0.25000000  1
  Ba  Ba5  1  0.62167900  0.69145600  0.25000000  1
  Co  Co0  1  0.33333300  0.66666700  0.75000000  1
  Co  Co1  1  0.66666700  0.33333300  0.25000000  1
  C  C0  1  0.15543500  0.45808500  0.75000000  1
  C  C1  1  0.54191500  0.69735000  0.75000000  1
  C  C2  1  0.45808500  0.30265000  0.25000000  1
  C  C3  1  0.84456500  0.54191500  0.25000000  1
  C  C4  1  0.30265000  0.84456500  0.75000000  1
  C  C5  1  0.69735000  0.15543500  0.25000000  1
  N  N0  1  0.03348900  0.31071100  0.75000000  1
  N  N1  1  0.96651100  0.68928900  0.25000000  1
  N  N2  1  0.72277800  0.03348900  0.25000000  1
  N  N3  1  0.68928900  0.72277800  0.75000000  1
  N  N4  1  0.31071100  0.27722200  0.25000000  1
  N  N5  1  0.27722200  0.96651100  0.75000000  1
loop_
_geom_bond_atom_site_label_1
_geom_bond_atom_site_label_2
_geom_bond_distance
_geom_bond_site_symmetry_2
Ba0 N3 2.775649 1_555
Ba1 N4 2.775649 1_555
Ba2 N5 2.775649 1_545
Ba3 N0 2.775649 1_655
Ba4 N1 2.775649 1_455
Ba5 N2 2.775649 1_565
C0 N0 1.244405 1_555
C0 Co0 1.778924 1_555
C1 N3 1.244406 1_555
C1 Co0 1.778928 1_555
C2 N4 1.244406 1_555
C2 Co1 1.778928 1_555
C3 N1 1.244405 1_555
C3 Co1 1.778924 1_555
C4 N5 1.244406 1_555
C4 Co0 1.778919 1_555
C5 N2 1.244406 1_555
C5 Co1 1.778919 1_555
