# generated using pymatgen
data_CaSiPd
_symmetry_space_group_name_H-M   'P 1'
_cell_length_a   5.77057466
_cell_length_b   5.90367351
_cell_length_c   7.34884784
_cell_angle_alpha   109.28671926
_cell_angle_beta   90.00000000
_cell_angle_gamma   90.00000000
_symmetry_Int_Tables_number   1
_chemical_formula_structural   CaSiPd
_chemical_formula_sum   'Ca4 Si4 Pd4'
_cell_volume   236.30684495
_cell_formula_units_Z   4
loop_
 _symmetry_equiv_pos_site_id
 _symmetry_equiv_pos_as_xyz
  1  'x, y, z'
loop_
 _atom_site_type_symbol
 _atom_site_label
 _atom_site_symmetry_multiplicity
 _atom_site_fract_x
 _atom_site_fract_y
 _atom_site_fract_z
 _atom_site_occupancy
  Ca  Ca0  1  0.12805507  0.31843297  0.11525038  1
  Ca  Ca1  1  0.37194493  0.81843297  0.61525038  1
  Ca  Ca2  1  0.87194493  0.68156703  0.88474962  1
  Ca  Ca3  1  0.62805507  0.18156703  0.38474962  1
  Si  Si0  1  0.61861107  0.17360475  0.95291541  1
  Si  Si1  1  0.38138893  0.82639525  0.04708459  1
  Si  Si2  1  0.11861107  0.32639525  0.54708459  1
  Si  Si3  1  0.88138893  0.67360475  0.45291541  1
  Pd  Pd0  1  0.61200027  0.57398357  0.18837854  1
  Pd  Pd1  1  0.38799973  0.42601643  0.81162146  1
  Pd  Pd2  1  0.88799973  0.07398357  0.68837854  1
  Pd  Pd3  1  0.11200027  0.92601643  0.31162146  1
loop_
_geom_bond_atom_site_label_1
_geom_bond_atom_site_label_2
_geom_bond_distance
_geom_bond_site_symmetry_2
Ca0 Pd1 2.927196 1_554
Ca0 Si3 3.023767 1_455
Ca0 Si0 3.081202 1_554
Ca0 Pd3 3.109136 1_545
Ca0 Pd0 3.134996 1_555
Ca0 Si1 3.140831 1_545
Ca0 Si2 3.158740 1_555
Ca0 Si0 3.181630 1_454
Ca0 Pd2 3.294218 1_454
Ca0 Pd0 3.301126 1_455
Ca0 Pd3 3.396770 1_555
Ca1 Pd3 2.927196 1_555
Ca1 Si0 3.023767 1_565
Ca1 Si3 3.081202 1_455
Ca1 Pd1 3.109136 1_555
Ca1 Pd2 3.134996 1_465
Ca1 Si2 3.140831 1_555
Ca1 Si1 3.158740 1_556
Ca1 Si3 3.181630 1_555
Ca1 Pd0 3.294218 1_555
Ca1 Pd2 3.301126 1_565
Ca1 Pd1 3.396770 1_565
Ca2 Pd0 2.927196 1_556
Ca2 Si2 3.023767 1_655
Ca2 Si1 3.081202 1_556
Ca2 Pd2 3.109136 1_565
Ca2 Pd1 3.134996 1_555
Ca2 Si0 3.140831 1_565
Ca2 Si3 3.158740 1_555
Ca2 Si1 3.181630 1_656
Ca2 Pd3 3.294218 1_656
Ca2 Pd1 3.301126 1_655
Ca2 Pd2 3.396770 1_555
Ca3 Pd2 2.927196 1_555
Ca3 Si1 3.023767 1_545
Ca3 Si2 3.081202 1_655
Ca3 Pd0 3.109136 1_555
Ca3 Pd3 3.134996 1_645
Ca3 Si3 3.140831 1_555
Ca3 Si0 3.158740 1_554
Ca3 Si2 3.181630 1_555
Ca3 Pd1 3.294218 1_555
Ca3 Pd3 3.301126 1_545
Ca3 Pd0 3.396770 1_545
Si0 Si1 2.737083 1_546
Si2 Si3 2.737083 1_455
Pd0 Si3 2.405507 1_555
Pd0 Si0 2.425055 1_554
Pd0 Si1 2.468154 1_555
Pd1 Si2 2.405507 1_555
Pd1 Si1 2.425055 1_556
Pd1 Si0 2.468154 1_555
Pd2 Si0 2.405507 1_555
Pd2 Si3 2.425055 1_545
Pd2 Si2 2.468154 1_655
Pd3 Si1 2.405507 1_555
Pd3 Si2 2.425055 1_565
Pd3 Si3 2.468154 1_455
