# generated using pymatgen
data_GaNiRh2
_symmetry_space_group_name_H-M   'P 1'
_cell_length_a   4.18604352
_cell_length_b   4.19934703
_cell_length_c   4.19922289
_cell_angle_alpha   60.00421578
_cell_angle_beta   59.89436395
_cell_angle_gamma   59.88844912
_symmetry_Int_Tables_number   1
_chemical_formula_structural   GaNiRh2
_chemical_formula_sum   'Ga1 Ni1 Rh2'
_cell_volume   52.11208164
_cell_formula_units_Z   1
loop_
 _symmetry_equiv_pos_site_id
 _symmetry_equiv_pos_as_xyz
  1  'x, y, z'
loop_
 _atom_site_type_symbol
 _atom_site_label
 _atom_site_symmetry_multiplicity
 _atom_site_fract_x
 _atom_site_fract_y
 _atom_site_fract_z
 _atom_site_occupancy
  Ga  Ga0  1  0.25000015  0.24999975  0.24999951  1
  Ni  Ni0  1  0.74999984  0.75000057  0.75000077  1
  Rh  Rh0  1  0.99705322  0.00097660  0.00098396  1
  Rh  Rh1  1  0.50294978  0.49902408  0.49901577  1
loop_
_geom_bond_atom_site_label_1
_geom_bond_atom_site_label_2
_geom_bond_distance
_geom_bond_site_symmetry_2
Ga0 Rh1 2.549110 1_455
Ga0 Rh0 2.549119 1_555
Ga0 Rh1 2.573501 1_545
Ga0 Rh0 2.573505 1_465
Ga0 Rh0 2.573567 1_455
Ga0 Rh1 2.573583 1_555
Ga0 Rh1 2.573607 1_554
Ga0 Rh0 2.573609 1_456
Ni0 Rh1 2.566858 1_555
Ni0 Rh0 2.566861 1_566
Ni0 Rh1 2.566871 1_565
Ni0 Rh0 2.566873 1_556
Ni0 Rh1 2.566917 1_556
Ni0 Rh0 2.566923 1_565
Ni0 Rh0 2.569229 1_466
Ni0 Rh1 2.569240 1_655
