# generated using pymatgen
data_LiHf2Os
_symmetry_space_group_name_H-M   'P 1'
_cell_length_a   4.59912685
_cell_length_b   4.59912685
_cell_length_c   4.59912685
_cell_angle_alpha   60.00000000
_cell_angle_beta   60.00000000
_cell_angle_gamma   60.00000000
_symmetry_Int_Tables_number   1
_chemical_formula_structural   LiHf2Os
_chemical_formula_sum   'Li1 Hf2 Os1'
_cell_volume   68.78775969
_cell_formula_units_Z   1
loop_
 _symmetry_equiv_pos_site_id
 _symmetry_equiv_pos_as_xyz
  1  'x, y, z'
loop_
 _atom_site_type_symbol
 _atom_site_label
 _atom_site_symmetry_multiplicity
 _atom_site_fract_x
 _atom_site_fract_y
 _atom_site_fract_z
 _atom_site_occupancy
  Li  Li0  1  0.25000000  0.25000000  0.25000000  1
  Hf  Hf0  1  0.00000000  -0.00000000  0.00000000  1
  Hf  Hf1  1  0.50000100  0.50000100  0.50000100  1
  Os  Os0  1  0.75000000  0.75000000  0.75000000  1
loop_
_geom_bond_atom_site_label_1
_geom_bond_atom_site_label_2
_geom_bond_distance
_geom_bond_site_symmetry_2
Hf0 Li0 2.816379 1_555
Hf0 Li0 2.816379 1_545
Hf0 Li0 2.816379 1_554
Hf0 Os0 2.816379 1_445
Hf0 Os0 2.816379 1_454
Hf0 Os0 2.816379 1_444
Hf0 Li0 2.816379 1_455
Hf0 Os0 2.816379 1_544
Hf1 Os0 2.816367 1_555
Hf1 Li0 2.816375 1_565
Hf1 Li0 2.816375 1_556
Hf1 Li0 2.816375 1_655
Hf1 Os0 2.816382 1_545
Hf1 Os0 2.816382 1_455
Hf1 Os0 2.816382 1_554
Hf1 Li0 2.816390 1_555
