# generated using pymatgen
data_YbHg3
_symmetry_space_group_name_H-M   'P 1'
_cell_length_a   4.91967536
_cell_length_b   6.53304636
_cell_length_c   6.53304615
_cell_angle_alpha   60.00000104
_cell_angle_beta   90.00000000
_cell_angle_gamma   90.00000000
_symmetry_Int_Tables_number   1
_chemical_formula_structural   YbHg3
_chemical_formula_sum   'Yb2 Hg6'
_cell_volume   181.84382064
_cell_formula_units_Z   2
loop_
 _symmetry_equiv_pos_site_id
 _symmetry_equiv_pos_as_xyz
  1  'x, y, z'
loop_
 _atom_site_type_symbol
 _atom_site_label
 _atom_site_symmetry_multiplicity
 _atom_site_fract_x
 _atom_site_fract_y
 _atom_site_fract_z
 _atom_site_occupancy
  Yb  Yb0  1  0.25000000  0.66666600  0.66666700  1
  Yb  Yb1  1  0.75000000  0.33333400  0.33333300  1
  Hg  Hg0  1  0.75000000  0.83249519  0.83249419  1
  Hg  Hg1  1  0.75000000  0.83249519  0.33501063  1
  Hg  Hg2  1  0.75000000  0.33501163  0.83249419  1
  Hg  Hg3  1  0.25000000  0.16750481  0.16750581  1
  Hg  Hg4  1  0.25000000  0.16750481  0.66498937  1
  Hg  Hg5  1  0.25000000  0.66498837  0.16750581  1
loop_
_geom_bond_atom_site_label_1
_geom_bond_atom_site_label_2
_geom_bond_distance
_geom_bond_site_symmetry_2
Hg0 Yb0 3.093837 1_655
Hg0 Yb0 3.093837 1_555
Hg0 Yb1 3.266537 1_556
Hg0 Yb1 3.266537 1_565
Hg1 Yb0 3.093837 1_555
Hg1 Yb0 3.093837 1_655
Hg1 Yb1 3.266537 1_555
Hg1 Yb1 3.266537 1_565
Hg2 Yb0 3.093830 1_555
Hg2 Yb0 3.093830 1_655
Hg2 Yb1 3.266537 1_555
Hg2 Yb1 3.266537 1_556
Hg3 Yb1 3.093837 1_455
Hg3 Yb1 3.093837 1_555
Hg3 Yb0 3.266537 1_554
Hg3 Yb0 3.266537 1_545
Hg4 Yb1 3.093837 1_455
Hg4 Yb1 3.093837 1_555
Hg4 Yb0 3.266537 1_555
Hg4 Yb0 3.266537 1_545
Hg5 Yb1 3.093830 1_455
Hg5 Yb1 3.093830 1_555
Hg5 Yb0 3.266537 1_555
Hg5 Yb0 3.266537 1_554
