# generated using pymatgen
data_Li9V6(P8O29)2
_symmetry_space_group_name_H-M   'P 1'
_cell_length_a   9.80012000
_cell_length_b   9.80584707
_cell_length_c   13.97076950
_cell_angle_alpha   89.87778893
_cell_angle_beta   89.88697310
_cell_angle_gamma   60.19101492
_symmetry_Int_Tables_number   1
_chemical_formula_structural   Li9V6(P8O29)2
_chemical_formula_sum   'Li9 V6 P16 O58'
_cell_volume   1164.92764978
_cell_formula_units_Z   1
loop_
 _symmetry_equiv_pos_site_id
 _symmetry_equiv_pos_as_xyz
  1  'x, y, z'
loop_
 _atom_site_type_symbol
 _atom_site_label
 _atom_site_symmetry_multiplicity
 _atom_site_fract_x
 _atom_site_fract_y
 _atom_site_fract_z
 _atom_site_occupancy
  Li  Li0  1  0.68796800  0.08797400  0.06040800  1
  Li  Li1  1  0.22588700  0.08820100  0.55674600  1
  Li  Li2  1  0.33019600  0.34033300  0.88506000  1
  Li  Li3  1  0.08551400  0.22532500  0.06258900  1
  Li  Li4  1  0.22546000  0.68187900  0.06215800  1
  Li  Li5  1  0.90547500  0.32201800  0.44001600  1
  Li  Li6  1  0.09405500  0.67913300  0.55765300  1
  Li  Li7  1  0.77455800  0.91074800  0.43845200  1
  Li  Li8  1  0.31937100  0.90602700  0.94325000  1
  V  V0  1  0.99937500  0.43302900  0.24621200  1
  V  V1  1  0.99963300  0.56997600  0.75398900  1
  V  V2  1  0.57305700  0.42955400  0.74682200  1
  V  V3  1  0.43604300  0.56809300  0.25528500  1
  V  V4  1  0.56827500  0.00024300  0.25131700  1
  V  V5  1  0.43578700  0.99632900  0.74753100  1
  P  P0  1  0.68151300  0.08987000  0.84121900  1
  P  P1  1  0.68546400  0.23101700  0.34365000  1
  P  P2  1  0.23067900  0.08866500  0.34150600  1
  P  P3  1  0.33534200  0.33404700  0.12653600  1
  P  P4  1  0.33210400  0.33489500  0.62781200  1
  P  P5  1  0.09164100  0.22822800  0.84351600  1
  P  P6  1  0.91532000  0.31906700  0.65988900  1
  P  P7  1  0.23241900  0.68003700  0.84355900  1
  P  P8  1  0.76656300  0.31696300  0.15632500  1
  P  P9  1  0.08766500  0.67861300  0.34124700  1
  P  P10  1  0.91340800  0.77032800  0.15808800  1
  P  P11  1  0.67029300  0.66517900  0.37337900  1
  P  P12  1  0.66528500  0.66618600  0.87165400  1
  P  P13  1  0.77291700  0.91288800  0.65723900  1
  P  P14  1  0.31493400  0.76845400  0.65783900  1
  P  P15  1  0.32087400  0.91044600  0.15987700  1
  O  O0  1  0.75516600  0.99652600  0.56565400  1
  O  O1  1  0.66321700  0.08566800  0.34188700  1
  O  O2  1  0.75667900  0.23630000  0.06930700  1
  O  O3  1  0.65584300  0.25931700  0.83339200  1
  O  O4  1  0.51463500  0.10669700  0.82225600  1
  O  O5  1  0.48740100  0.18724600  0.16410900  1
  O  O6  1  0.38167700  0.09829400  0.32095700  1
  O  O7  1  0.24105800  0.99770500  0.06949700  1
  O  O8  1  0.25934000  0.07715600  0.83774900  1
  O  O9  1  0.47898400  0.33535300  0.67419900  1
  O  O10  1  0.52252300  0.38255700  0.32413800  1
  O  O11  1  0.33177000  0.18155800  0.66990200  1
  O  O12  1  0.33301700  0.33759200  0.01819700  1
  O  O13  1  0.33252800  0.33014500  0.52156200  1
  O  O14  1  0.18675600  0.32670100  0.16342200  1
  O  O15  1  0.37859900  0.51535000  0.82605300  1
  O  O16  1  0.32990800  0.48710500  0.16659200  1
  O  O17  1  0.08365100  0.25576400  0.33656900  1
  O  O18  1  0.00321200  0.20896300  0.75131700  1
  O  O19  1  0.00044400  0.23999400  0.56961600  1
  O  O20  1  0.01068200  0.23445600  0.93429300  1
  O  O21  1  0.11574500  0.37117600  0.82522300  1
  O  O22  1  0.18428600  0.48441200  0.66862600  1
  O  O23  1  0.91284700  0.33850800  0.15794000  1
  O  O24  1  0.09856200  0.52011100  0.32339100  1
  O  O25  1  0.25545900  0.65769200  0.33379300  1
  O  O26  1  0.79052100  0.20977100  0.25002400  1
  O  O27  1  0.76441300  0.24400400  0.43073500  1
  O  O28  1  0.22979500  0.76280700  0.57236100  1
  O  O29  1  0.74712800  0.34025700  0.66478400  1
  O  O30  1  0.90734100  0.47737600  0.67667500  1
  O  O31  1  0.08694000  0.65889800  0.84001600  1
  O  O32  1  0.81425600  0.51346800  0.33279600  1
  O  O33  1  0.90269000  0.61938800  0.17526400  1
  O  O34  1  0.00590100  0.76353900  0.07216000  1
  O  O35  1  0.00382800  0.75567700  0.43257100  1
  O  O36  1  0.99261100  0.79420500  0.25403500  1
  O  O37  1  0.91816900  0.74734100  0.66123000  1
  O  O38  1  0.65871400  0.52267600  0.82407500  1
  O  O39  1  0.61581000  0.47731800  0.17721000  1
  O  O40  1  0.81175000  0.66534600  0.82947500  1
  O  O41  1  0.65079700  0.67159700  0.97743200  1
  O  O42  1  0.66382400  0.66443900  0.47998300  1
  O  O43  1  0.67335000  0.81435000  0.33428700  1
  O  O44  1  0.47437200  0.61692500  0.67640000  1
  O  O45  1  0.51917100  0.66661300  0.32594100  1
  O  O46  1  0.74537300  0.91606600  0.16061500  1
  O  O47  1  0.79053700  0.00141600  0.74976200  1
  O  O48  1  0.75070000  0.00871300  0.93225300  1
  O  O49  1  0.61997300  0.90400000  0.68117300  1
  O  O50  1  0.51273700  0.81992300  0.82830700  1
  O  O51  1  0.48017800  0.89778400  0.17699800  1
  O  O52  1  0.33648500  0.74453500  0.16170000  1
  O  O53  1  0.24690500  0.75498400  0.93356700  1
  O  O54  1  0.21350600  0.79285300  0.75464500  1
  O  O55  1  0.33952700  0.91481300  0.65939000  1
  O  O56  1  0.23970300  0.00705900  0.43301000  1
  O  O57  1  0.20883400  0.00023800  0.25028600  1
loop_
_geom_bond_atom_site_label_1
_geom_bond_atom_site_label_2
_geom_bond_distance
_geom_bond_site_symmetry_2
Li0 O2 1.886582 1_555
Li0 O48 1.927221 1_554
Li0 O46 2.041614 1_545
Li0 O5 2.236634 1_555
Li1 O56 1.880854 1_555
Li1 O19 1.964479 1_555
Li1 O55 2.073830 1_545
Li1 O11 2.317551 1_555
Li2 O12 1.860225 1_556
Li2 O21 2.140358 1_555
Li2 O15 2.156783 1_555
Li2 O4 2.273962 1_555
Li3 O20 1.922949 1_554
Li3 O7 1.982871 1_545
Li3 O23 1.999989 1_455
Li3 O14 2.224678 1_555
Li4 O34 1.891252 1_555
Li4 O53 1.981999 1_554
Li4 O52 2.041957 1_555
Li4 O16 2.207855 1_555
Li5 O27 1.888303 1_555
Li5 O19 2.011873 1_655
Li5 O17 2.103802 1_655
Li5 O32 2.211810 1_555
Li6 O28 1.889977 1_555
Li6 O35 1.933809 1_555
Li6 O37 2.088188 1_455
Li6 O22 2.268378 1_555
Li7 O0 1.935935 1_555
Li7 O35 1.992580 1_655
Li7 O1 2.021846 1_565
Li7 O43 2.222340 1_555
Li8 O53 1.939928 1_555
Li8 O7 1.955384 1_556
Li8 O8 2.084666 1_565
Li8 O50 2.299065 1_555
O0 P13 1.481419 1_555
O1 P1 1.545527 1_555
O1 V4 1.988098 1_555
O2 P8 1.481115 1_555
O3 P0 1.555575 1_555
O3 V2 1.885833 1_555
O4 P0 1.582801 1_555
O4 V5 1.922934 1_545
O5 P3 1.560617 1_555
O5 V4 2.006100 1_555
O6 P2 1.555076 1_555
O6 V4 1.861182 1_555
O7 P15 1.507382 1_555
O8 P5 1.575258 1_555
O8 V5 1.959597 1_545
O9 P4 1.581808 1_555
O9 V2 1.893935 1_555
O10 P1 1.572633 1_555
O10 V3 1.848331 1_555
O11 P4 1.614842 1_555
O11 V5 1.915602 1_545
O12 P3 1.513861 1_555
O13 P4 1.485157 1_555
O14 P3 1.578709 1_555
O14 V0 1.972382 1_455
O15 P7 1.555698 1_555
O15 V2 1.991590 1_555
O16 P3 1.578795 1_555
O16 V3 2.019529 1_555
O17 P2 1.555105 1_555
O17 V0 1.965847 1_455
O18 P6 1.616480 1_455
O18 P5 1.616816 1_555
O19 P6 1.498214 1_455
O20 P5 1.479799 1_555
O21 P5 1.553509 1_555
O21 V1 1.968804 1_455
O22 P4 1.569052 1_555
O22 V1 1.971590 1_455
O23 P8 1.549717 1_555
O23 V0 1.972160 1_555
O24 P9 1.525072 1_555
O24 V0 1.915716 1_455
O25 P9 1.555958 1_555
O25 V3 1.886130 1_555
O26 P1 1.611505 1_555
O26 P8 1.619734 1_555
O27 P1 1.482364 1_555
O28 P14 1.474954 1_555
O29 P6 1.556873 1_555
O29 V2 1.871350 1_555
O30 P6 1.533528 1_555
O30 V1 1.906263 1_555
O31 P7 1.540200 1_555
O31 V1 1.920194 1_455
O32 P11 1.561665 1_555
O32 V0 1.987306 1_555
O33 P10 1.553141 1_555
O33 V0 1.869270 1_555
O34 P10 1.484343 1_455
O35 P9 1.502206 1_555
O36 P9 1.608071 1_655
O36 P10 1.624884 1_555
O37 P13 1.538543 1_555
O37 V1 1.988872 1_555
O38 P12 1.587629 1_555
O38 V2 1.863662 1_555
O39 P8 1.559145 1_555
O39 V3 1.877039 1_555
O40 P12 1.546784 1_555
O40 V1 1.913533 1_555
O41 P12 1.482864 1_555
O42 P11 1.490719 1_555
O43 P11 1.574452 1_555
O43 V4 1.963731 1_565
O44 P14 1.551831 1_555
O44 V2 1.873089 1_555
O45 P11 1.617393 1_555
O45 V3 1.833328 1_555
O46 P10 1.554214 1_555
O46 V4 1.967430 1_565
O47 P0 1.613830 1_555
O47 P13 1.615229 1_545
O48 P0 1.474171 1_555
O49 P13 1.579174 1_555
O49 V5 1.819213 1_555
O50 P12 1.622753 1_555
O50 V5 1.879507 1_555
O51 P15 1.522694 1_555
O51 V4 1.924384 1_565
O52 P15 1.556673 1_555
O52 V3 1.992965 1_555
O53 P7 1.499965 1_555
O54 P7 1.610093 1_555
O54 P14 1.622977 1_555
O55 P14 1.569182 1_555
O55 V5 1.950304 1_555
O56 P2 1.485984 1_555
O57 P2 1.616223 1_555
O57 P15 1.616890 1_545
