# generated using pymatgen
data_Yb4Br6O
_symmetry_space_group_name_H-M   'P 1'
_cell_length_a   9.46799458
_cell_length_b   9.46799458
_cell_length_c   7.18668900
_cell_angle_alpha   90.00000000
_cell_angle_beta   90.00000000
_cell_angle_gamma   120.00000407
_symmetry_Int_Tables_number   1
_chemical_formula_structural   Yb4Br6O
_chemical_formula_sum   'Yb8 Br12 O2'
_cell_volume   557.92454360
_cell_formula_units_Z   2
loop_
 _symmetry_equiv_pos_site_id
 _symmetry_equiv_pos_as_xyz
  1  'x, y, z'
loop_
 _atom_site_type_symbol
 _atom_site_label
 _atom_site_symmetry_multiplicity
 _atom_site_fract_x
 _atom_site_fract_y
 _atom_site_fract_z
 _atom_site_occupancy
  Yb  Yb0  1  0.20356500  0.79643500  0.00285700  1
  Yb  Yb1  1  0.33333300  0.66666700  0.40993000  1
  Yb  Yb2  1  0.20356500  0.40712900  0.00285700  1
  Yb  Yb3  1  0.59287100  0.79643500  0.00285700  1
  Yb  Yb4  1  0.40712900  0.20356500  0.50285700  1
  Yb  Yb5  1  0.66666700  0.33333300  0.90993000  1
  Yb  Yb6  1  0.79643500  0.59287100  0.50285700  1
  Yb  Yb7  1  0.79643500  0.20356500  0.50285700  1
  Br  Br0  1  0.13787000  0.86213000  0.38434800  1
  Br  Br1  1  0.07064500  0.53532200  0.70570700  1
  Br  Br2  1  0.13787000  0.27573900  0.38434800  1
  Br  Br3  1  0.46467800  0.92935500  0.70570700  1
  Br  Br4  1  0.46467800  0.53532200  0.70570700  1
  Br  Br5  1  0.27573900  0.13787000  0.88434800  1
  Br  Br6  1  0.72426100  0.86213000  0.38434800  1
  Br  Br7  1  0.53532200  0.46467800  0.20570700  1
  Br  Br8  1  0.86213000  0.72426100  0.88434800  1
  Br  Br9  1  0.53532200  0.07064500  0.20570700  1
  Br  Br10  1  0.92935500  0.46467800  0.20570700  1
  Br  Br11  1  0.86213000  0.13787000  0.88434800  1
  O  O0  1  0.33333300  0.66666700  0.10064800  1
  O  O1  1  0.66666700  0.33333300  0.60064800  1
loop_
_geom_bond_atom_site_label_1
_geom_bond_atom_site_label_2
_geom_bond_distance
_geom_bond_site_symmetry_2
Br0 Yb0 2.945732 1_555
Br0 Yb6 3.071421 1_455
Br0 Yb4 3.071421 1_565
Br0 Yb1 3.210675 1_555
Br1 Yb0 3.024046 1_556
Br1 Yb2 3.024046 1_556
Br1 Yb1 3.026182 1_555
Br1 Yb7 3.252233 1_455
Br1 Yb6 3.252244 1_455
Br1 Yb5 3.623021 1_455
Br2 Yb2 2.945732 1_555
Br2 Yb4 3.071409 1_555
Br2 Yb7 3.071427 1_455
Br2 Yb1 3.210691 1_555
Br3 Yb0 3.024046 1_556
Br3 Yb3 3.024046 1_556
Br3 Yb1 3.026182 1_555
Br3 Yb7 3.252233 1_565
Br3 Yb4 3.252244 1_565
Br3 Yb5 3.623021 1_565
Br4 Yb2 3.024046 1_556
Br4 Yb3 3.024046 1_556
Br4 Yb1 3.026193 1_555
Br4 Yb6 3.252227 1_555
Br4 Yb4 3.252227 1_555
Br4 Yb5 3.623021 1_555
Br5 Yb4 2.945732 1_555
Br5 Yb2 3.071409 1_556
Br5 Yb0 3.071427 1_546
Br5 Yb5 3.210691 1_555
Br6 Yb3 2.945732 1_555
Br6 Yb6 3.071409 1_555
Br6 Yb7 3.071427 1_565
Br6 Yb1 3.210691 1_555
Br7 Yb6 3.024046 1_555
Br7 Yb4 3.024046 1_555
Br7 Yb5 3.026193 1_554
Br7 Yb3 3.252227 1_555
Br7 Yb2 3.252227 1_555
Br7 Yb1 3.623021 1_555
Br8 Yb6 2.945732 1_555
Br8 Yb3 3.071409 1_556
Br8 Yb0 3.071427 1_656
Br8 Yb5 3.210691 1_555
Br9 Yb7 3.024046 1_555
Br9 Yb4 3.024046 1_555
Br9 Yb5 3.026182 1_554
Br9 Yb0 3.252233 1_545
Br9 Yb3 3.252244 1_545
Br9 Yb1 3.623021 1_545
Br10 Yb7 3.024046 1_555
Br10 Yb6 3.024046 1_555
Br10 Yb5 3.026182 1_554
Br10 Yb0 3.252233 1_655
Br10 Yb2 3.252244 1_655
Br10 Yb1 3.623021 1_655
Br11 Yb7 2.945732 1_555
Br11 Yb2 3.071421 1_656
Br11 Yb3 3.071421 1_546
Br11 Yb5 3.210675 1_555
O0 Yb1 2.222714 1_555
O0 Yb0 2.241118 1_555
O0 Yb2 2.241133 1_555
O0 Yb3 2.241133 1_555
O1 Yb5 2.222714 1_555
O1 Yb7 2.241118 1_555
O1 Yb4 2.241133 1_555
O1 Yb6 2.241133 1_555
