# generated using pymatgen
data_Li2VF6
_symmetry_space_group_name_H-M   'P 1'
_cell_length_a   5.02133500
_cell_length_b   5.12966600
_cell_length_c   15.08974918
_cell_angle_alpha   83.61255973
_cell_angle_beta   90.00000000
_cell_angle_gamma   90.00000000
_symmetry_Int_Tables_number   1
_chemical_formula_structural   Li2VF6
_chemical_formula_sum   'Li8 V4 F24'
_cell_volume   386.26552362
_cell_formula_units_Z   4
loop_
 _symmetry_equiv_pos_site_id
 _symmetry_equiv_pos_as_xyz
  1  'x, y, z'
loop_
 _atom_site_type_symbol
 _atom_site_label
 _atom_site_symmetry_multiplicity
 _atom_site_fract_x
 _atom_site_fract_y
 _atom_site_fract_z
 _atom_site_occupancy
  Li  Li0  1  0.48886000  0.74433600  0.75117500  1
  Li  Li1  1  0.97867500  0.67852300  0.91239700  1
  Li  Li2  1  0.01114000  0.74433600  0.25117500  1
  Li  Li3  1  0.52132500  0.67852300  0.41239700  1
  Li  Li4  1  0.47867500  0.32147700  0.58760300  1
  Li  Li5  1  0.98886000  0.25566400  0.74882500  1
  Li  Li6  1  0.02132500  0.32147700  0.08760300  1
  Li  Li7  1  0.51114000  0.25566400  0.24882500  1
  V  V0  1  0.93868400  0.82651700  0.59979500  1
  V  V1  1  0.56131600  0.82651700  0.09979500  1
  V  V2  1  0.43868400  0.17348300  0.90020500  1
  V  V3  1  0.06131600  0.17348300  0.40020500  1
  F  F0  1  0.17654100  0.98077500  0.83983000  1
  F  F1  1  0.66156200  0.92673900  0.84732500  1
  F  F2  1  0.32255200  0.86962100  0.98837100  1
  F  F3  1  0.32345900  0.98077500  0.33983000  1
  F  F4  1  0.83843800  0.92673900  0.34732500  1
  F  F5  1  0.17744800  0.86962100  0.48837100  1
  F  F6  1  0.70505300  0.63985700  0.53212400  1
  F  F7  1  0.21968800  0.59937300  0.62770800  1
  F  F8  1  0.78960200  0.56727900  0.69537200  1
  F  F9  1  0.28960200  0.43272100  0.80462800  1
  F  F10  1  0.71968800  0.40062700  0.87229200  1
  F  F11  1  0.20505300  0.36014300  0.96787600  1
  F  F12  1  0.79494700  0.63985700  0.03212400  1
  F  F13  1  0.28031200  0.59937300  0.12770800  1
  F  F14  1  0.71039800  0.56727900  0.19537200  1
  F  F15  1  0.21039800  0.43272100  0.30462800  1
  F  F16  1  0.78031200  0.40062700  0.37229200  1
  F  F17  1  0.29494700  0.36014300  0.46787600  1
  F  F18  1  0.82255200  0.13037900  0.51162900  1
  F  F19  1  0.16156200  0.07326100  0.65267500  1
  F  F20  1  0.67654100  0.01922500  0.66017000  1
  F  F21  1  0.67744800  0.13037900  0.01162900  1
  F  F22  1  0.33843800  0.07326100  0.15267500  1
  F  F23  1  0.82345900  0.01922500  0.16017000  1
loop_
_geom_bond_atom_site_label_1
_geom_bond_atom_site_label_2
_geom_bond_distance
_geom_bond_site_symmetry_2
F0 V2 1.933969 1_565
F0 Li1 2.052401 1_455
F0 Li5 2.081208 1_465
F0 Li0 2.465993 1_555
F1 V2 1.927682 1_565
F1 Li0 2.008633 1_555
F1 Li1 2.200615 1_555
F2 V2 2.019454 1_565
F2 V1 2.056827 1_556
F2 Li1 2.346666 1_455
F3 V3 1.933969 1_565
F3 Li3 2.052401 1_555
F3 Li7 2.081208 1_565
F3 Li2 2.465993 1_555
F4 V3 1.927682 1_665
F4 Li2 2.008633 1_655
F4 Li3 2.200615 1_555
F5 V3 2.019454 1_565
F5 V0 2.056827 1_455
F5 Li3 2.346666 1_555
F6 V0 1.885031 1_555
F6 Li3 2.018591 1_555
F6 Li4 2.087115 1_555
F7 V0 1.848460 1_455
F7 Li4 2.069172 1_555
F7 Li0 2.481761 1_555
F8 Li5 1.979883 1_555
F8 V0 1.995512 1_555
F8 Li0 1.996148 1_555
F9 Li0 1.979883 1_555
F9 V2 1.995512 1_555
F9 Li5 1.996148 1_455
F10 V2 1.848460 1_555
F10 Li1 2.069172 1_555
F10 Li5 2.481761 1_555
F11 V2 1.885031 1_555
F11 Li6 2.018591 1_556
F11 Li1 2.087115 1_455
F12 V1 1.885031 1_555
F12 Li1 2.018591 1_554
F12 Li6 2.087115 1_655
F13 V1 1.848460 1_555
F13 Li6 2.069172 1_555
F13 Li2 2.481761 1_555
F14 Li7 1.979883 1_555
F14 V1 1.995512 1_555
F14 Li2 1.996148 1_655
F15 Li2 1.979883 1_555
F15 V3 1.995512 1_555
F15 Li7 1.996148 1_555
F16 V3 1.848460 1_655
F16 Li3 2.069172 1_555
F16 Li7 2.481761 1_555
F17 V3 1.885031 1_555
F17 Li4 2.018591 1_555
F17 Li3 2.087115 1_555
F18 V0 2.019454 1_545
F18 V3 2.056827 1_655
F18 Li4 2.346666 1_555
F19 V0 1.927682 1_445
F19 Li5 2.008633 1_455
F19 Li4 2.200615 1_555
F20 V0 1.933969 1_545
F20 Li4 2.052401 1_555
F20 Li0 2.081208 1_545
F20 Li5 2.465993 1_555
F21 V1 2.019454 1_545
F21 V2 2.056827 1_554
F21 Li6 2.346666 1_655
F22 V1 1.927682 1_545
F22 Li7 2.008633 1_555
F22 Li6 2.200615 1_555
F23 V1 1.933969 1_545
F23 Li6 2.052401 1_655
F23 Li2 2.081208 1_645
F23 Li7 2.465993 1_555
