# generated using pymatgen
data_K2MnSe2
_symmetry_space_group_name_H-M   'P 1'
_cell_length_a   6.52256616
_cell_length_b   7.07595490
_cell_length_c   8.18347319
_cell_angle_alpha   115.61565233
_cell_angle_beta   113.48573287
_cell_angle_gamma   90.00000802
_symmetry_Int_Tables_number   1
_chemical_formula_structural   K2MnSe2
_chemical_formula_sum   'K4 Mn2 Se4'
_cell_volume   305.50601816
_cell_formula_units_Z   2
loop_
 _symmetry_equiv_pos_site_id
 _symmetry_equiv_pos_as_xyz
  1  'x, y, z'
loop_
 _atom_site_type_symbol
 _atom_site_label
 _atom_site_symmetry_multiplicity
 _atom_site_fract_x
 _atom_site_fract_y
 _atom_site_fract_z
 _atom_site_occupancy
  K  K0  1  0.14560890  0.47948276  0.29121779  1
  K  K1  1  0.85439110  0.52051724  0.70878221  1
  K  K2  1  0.35439110  0.18826396  0.70878221  1
  K  K3  1  0.64560890  0.81173604  0.29121779  1
  Mn  Mn0  1  0.25000000  -0.00000000  -0.00000000  1
  Mn  Mn1  1  0.75000000  -0.00000000  -0.00000000  1
  Se  Se0  1  0.89420241  0.09178330  0.78840583  1
  Se  Se1  1  0.10579759  0.90821670  0.21159417  1
  Se  Se2  1  0.60579759  0.30337847  0.21159417  1
  Se  Se3  1  0.39420241  0.69662153  0.78840583  1
loop_
_geom_bond_atom_site_label_1
_geom_bond_atom_site_label_2
_geom_bond_distance
_geom_bond_site_symmetry_2
K0 Se3 3.298586 1_555
K0 Se1 3.357041 1_555
K0 Se2 3.441482 1_455
K0 Se2 3.441489 1_555
K0 Mn1 3.457777 1_455
K0 Mn0 3.457777 1_555
K0 Se0 3.465202 1_454
K0 Se1 3.797301 1_545
K1 Se2 3.298586 1_555
K1 Se0 3.357041 1_555
K1 Se3 3.441482 1_655
K1 Se3 3.441489 1_555
K1 Mn0 3.457777 1_666
K1 Mn1 3.457777 1_566
K1 Se1 3.465202 1_656
K1 Se0 3.797301 1_565
K2 Se1 3.298585 1_545
K2 Se3 3.357041 1_555
K2 Se0 3.441483 1_555
K2 Se0 3.441489 1_455
K2 Mn0 3.457772 1_556
K2 Mn1 3.457773 1_556
K2 Se2 3.465199 1_556
K2 Se3 3.797301 1_545
K3 Se0 3.298585 1_565
K3 Se2 3.357041 1_555
K3 Se1 3.441483 1_555
K3 Se1 3.441489 1_655
K3 Mn1 3.457772 1_565
K3 Mn0 3.457773 1_565
K3 Se3 3.465199 1_554
K3 Se2 3.797301 1_565
Mn0 Se1 2.564237 1_545
Mn0 Se3 2.564241 1_544
Mn0 Se0 2.564242 1_454
Mn0 Se2 2.564245 1_555
Mn1 Se0 2.564237 1_554
Mn1 Se2 2.564241 1_555
Mn1 Se1 2.564242 1_645
Mn1 Se3 2.564245 1_544
