# generated using pymatgen
data_Li8MnFe7(PO4)8
_symmetry_space_group_name_H-M   'P 1'
_cell_length_a   12.18012000
_cell_length_b   4.75597800
_cell_length_c   10.45837595
_cell_angle_alpha   89.96501456
_cell_angle_beta   90.00000000
_cell_angle_gamma   90.00000000
_symmetry_Int_Tables_number   1
_chemical_formula_structural   Li8MnFe7(PO4)8
_chemical_formula_sum   'Li8 Mn1 Fe7 P8 O32'
_cell_volume   605.83669209
_cell_formula_units_Z   1
loop_
 _symmetry_equiv_pos_site_id
 _symmetry_equiv_pos_as_xyz
  1  'x, y, z'
loop_
 _atom_site_type_symbol
 _atom_site_label
 _atom_site_symmetry_multiplicity
 _atom_site_fract_x
 _atom_site_fract_y
 _atom_site_fract_z
 _atom_site_occupancy
  Li  Li0  1  0.62525500  0.00008800  0.00044800  1
  Li  Li1  1  0.12498700  0.99992700  0.99999000  1
  Li  Li2  1  0.37474500  0.00008800  0.00044800  1
  Li  Li3  1  0.87501300  0.99992700  0.99999000  1
  Li  Li4  1  0.37446500  0.50030000  0.49975400  1
  Li  Li5  1  0.12486400  0.49988300  0.49997200  1
  Li  Li6  1  0.87513600  0.49988300  0.49997200  1
  Li  Li7  1  0.62553500  0.50030000  0.49975400  1
  Mn  Mn0  1  0.50000000  0.97639000  0.71846300  1
  Fe  Fe0  1  0.00000000  0.97374500  0.71824300  1
  Fe  Fe1  1  0.00000000  0.52625300  0.21845100  1
  Fe  Fe2  1  0.50000000  0.52667000  0.21837100  1
  Fe  Fe3  1  0.24939600  0.47388700  0.78158500  1
  Fe  Fe4  1  0.75060400  0.47388700  0.78158500  1
  Fe  Fe5  1  0.24979900  0.02619300  0.28156100  1
  Fe  Fe6  1  0.75020100  0.02619300  0.28156100  1
  P  P0  1  0.24907600  0.91583200  0.59416800  1
  P  P1  1  0.75092400  0.91583200  0.59416800  1
  P  P2  1  0.25000000  0.58259900  0.09468300  1
  P  P3  1  0.75000000  0.58259900  0.09468300  1
  P  P4  1  0.00000000  0.41750000  0.90552100  1
  P  P5  1  0.50000000  0.41852800  0.90755500  1
  P  P6  1  0.50000000  0.08355300  0.40431400  1
  P  P7  1  0.00000000  0.08255900  0.40527200  1
  O  O0  1  0.24935700  0.79347500  0.45618100  1
  O  O1  1  0.75064300  0.79347500  0.45618100  1
  O  O2  1  0.14706300  0.78370400  0.66460000  1
  O  O3  1  0.65047200  0.77714500  0.66441200  1
  O  O4  1  0.85293700  0.78370400  0.66460000  1
  O  O5  1  0.34952800  0.77714500  0.66441200  1
  O  O6  1  0.50000000  0.76076000  0.40307700  1
  O  O7  1  0.00000000  0.75981300  0.40286400  1
  O  O8  1  0.50000000  0.74113100  0.90505000  1
  O  O9  1  0.00000000  0.74037300  0.90300100  1
  O  O10  1  0.14843300  0.71649600  0.16520500  1
  O  O11  1  0.35161600  0.71635800  0.16514200  1
  O  O12  1  0.85156700  0.71649600  0.16520500  1
  O  O13  1  0.64838400  0.71635800  0.16514200  1
  O  O14  1  0.24987300  0.70718000  0.95685600  1
  O  O15  1  0.75012700  0.70718000  0.95685600  1
  O  O16  1  0.50000000  0.29164400  0.04444000  1
  O  O17  1  0.00000000  0.29306600  0.04309400  1
  O  O18  1  0.39829800  0.28706500  0.83637600  1
  O  O19  1  0.60170200  0.28706500  0.83637600  1
  O  O20  1  0.89838200  0.28370900  0.83486800  1
  O  O21  1  0.10161800  0.28370900  0.83486800  1
  O  O22  1  0.24997700  0.25980100  0.09705600  1
  O  O23  1  0.75002300  0.25980100  0.09705600  1
  O  O24  1  0.25015100  0.23877600  0.59717600  1
  O  O25  1  0.74984900  0.23877600  0.59717600  1
  O  O26  1  0.39826300  0.21649800  0.33402000  1
  O  O27  1  0.60173700  0.21649800  0.33402000  1
  O  O28  1  0.89844700  0.21658800  0.33471200  1
  O  O29  1  0.10155300  0.21658800  0.33471200  1
  O  O30  1  0.50000000  0.20984400  0.54173600  1
  O  O31  1  0.00000000  0.20716900  0.54301800  1
loop_
_geom_bond_atom_site_label_1
_geom_bond_atom_site_label_2
_geom_bond_distance
_geom_bond_site_symmetry_2
Li0 O15 2.112476 1_544
Li0 O16 2.112517 1_555
Li0 O8 2.200287 1_544
Li0 O23 2.203975 1_555
Li0 O13 2.205496 1_545
Li0 O19 2.210583 1_554
Li1 O14 2.111063 1_555
Li1 O17 2.113113 1_566
Li1 O9 2.207221 1_555
Li1 O22 2.208469 1_566
Li1 O10 2.209380 1_556
Li1 O21 2.209518 1_565
Li2 O14 2.112476 1_544
Li2 O16 2.112517 1_555
Li2 O8 2.200287 1_544
Li2 O22 2.203975 1_555
Li2 O11 2.205496 1_545
Li2 O18 2.210583 1_554
Li3 O15 2.111063 1_555
Li3 O17 2.113113 1_666
Li3 O9 2.207221 1_655
Li3 O23 2.208469 1_566
Li3 O12 2.209380 1_556
Li3 O20 2.209518 1_565
Li4 O30 2.106714 1_555
Li4 O0 2.114974 1_555
Li4 O5 2.189547 1_555
Li4 O24 2.208231 1_555
Li4 O6 2.212054 1_555
Li4 O26 2.216546 1_555
Li5 O31 2.110207 1_555
Li5 O0 2.111387 1_555
Li5 O2 2.205091 1_555
Li5 O7 2.207068 1_555
Li5 O29 2.210429 1_555
Li5 O24 2.214215 1_555
Li6 O31 2.110207 1_655
Li6 O1 2.111387 1_555
Li6 O4 2.205091 1_555
Li6 O7 2.207068 1_655
Li6 O28 2.210429 1_555
Li6 O25 2.214215 1_555
Li7 O30 2.106714 1_555
Li7 O1 2.114974 1_555
Li7 O3 2.189547 1_555
Li7 O25 2.208231 1_555
Li7 O6 2.212054 1_555
Li7 O27 2.216546 1_555
Mn0 O3 2.139437 1_555
Mn0 O5 2.139437 1_555
Mn0 O30 2.155550 1_565
Mn0 O8 2.248820 1_555
Mn0 O19 2.289243 1_565
Mn0 O18 2.289243 1_565
Fe0 O2 2.083466 1_555
Fe0 O4 2.083466 1_455
Fe0 O31 2.142027 1_565
Fe0 O9 2.227767 1_555
Fe0 O20 2.279264 1_465
Fe0 O21 2.279264 1_565
Fe1 O10 2.096843 1_555
Fe1 O12 2.096843 1_455
Fe1 O17 2.143783 1_555
Fe1 O7 2.226261 1_555
Fe1 O29 2.274916 1_555
Fe1 O28 2.274916 1_455
Fe2 O13 2.095144 1_555
Fe2 O11 2.095144 1_555
Fe2 O16 2.135604 1_555
Fe2 O6 2.230176 1_555
Fe2 O27 2.274287 1_555
Fe2 O26 2.274287 1_555
Fe3 O21 2.089937 1_555
Fe3 O18 2.099169 1_555
Fe3 O14 2.143283 1_555
Fe3 O24 2.229937 1_555
Fe3 O5 2.251047 1_555
Fe3 O2 2.284605 1_555
Fe4 O20 2.089937 1_555
Fe4 O19 2.099169 1_555
Fe4 O15 2.143283 1_555
Fe4 O25 2.229937 1_555
Fe4 O3 2.251047 1_555
Fe4 O4 2.284605 1_555
Fe5 O29 2.095221 1_555
Fe5 O26 2.095417 1_555
Fe5 O0 2.134884 1_545
Fe5 O22 2.226034 1_555
Fe5 O10 2.275270 1_545
Fe5 O11 2.279032 1_545
Fe6 O28 2.095221 1_555
Fe6 O27 2.095417 1_555
Fe6 O1 2.134884 1_545
Fe6 O23 2.226034 1_555
Fe6 O12 2.275270 1_545
Fe6 O13 2.279032 1_545
O0 P0 1.556365 1_555
O1 P1 1.556365 1_555
O2 P0 1.575051 1_555
O3 P1 1.571992 1_555
O4 P1 1.575051 1_555
O5 P0 1.571992 1_555
O6 P6 1.535259 1_565
O7 P7 1.535195 1_565
O8 P5 1.534500 1_555
O9 P4 1.535787 1_555
O10 P2 1.574956 1_555
O11 P2 1.574851 1_555
O12 P3 1.574956 1_555
O13 P3 1.574851 1_555
O14 P2 1.558136 1_556
O15 P3 1.558136 1_556
O16 P5 1.553245 1_554
O17 P4 1.555413 1_554
O18 P5 1.574842 1_555
O19 P5 1.574842 1_555
O20 P4 1.575883 1_655
O21 P4 1.575883 1_555
O22 P2 1.535406 1_555
O23 P3 1.535406 1_555
O24 P0 1.536312 1_545
O25 P1 1.536312 1_545
O26 P6 1.573282 1_555
O27 P6 1.573282 1_555
O28 P7 1.574898 1_655
O29 P7 1.574898 1_555
O30 P6 1.558010 1_555
O31 P7 1.558074 1_555
