# generated using pymatgen
data_GaCu3
_symmetry_space_group_name_H-M   'P 1'
_cell_length_a   5.15739309
_cell_length_b   5.15739216
_cell_length_c   4.20124485
_cell_angle_alpha   89.99999977
_cell_angle_beta   90.00000000
_cell_angle_gamma   119.99813626
_symmetry_Int_Tables_number   1
_chemical_formula_structural   GaCu3
_chemical_formula_sum   'Ga2 Cu6'
_cell_volume   96.77811763
_cell_formula_units_Z   2
loop_
 _symmetry_equiv_pos_site_id
 _symmetry_equiv_pos_as_xyz
  1  'x, y, z'
loop_
 _atom_site_type_symbol
 _atom_site_label
 _atom_site_symmetry_multiplicity
 _atom_site_fract_x
 _atom_site_fract_y
 _atom_site_fract_z
 _atom_site_occupancy
  Ga  Ga0  1  0.33333389  0.66666766  0.74999985  1
  Ga  Ga1  1  0.66666682  0.33333328  0.24999930  1
  Cu  Cu0  1  0.16539095  0.33077866  0.24999902  1
  Cu  Cu1  1  0.66921964  0.83460820  0.24999915  1
  Cu  Cu2  1  0.16538632  0.83461358  0.24999907  1
  Cu  Cu3  1  0.83460745  0.66922147  0.74999994  1
  Cu  Cu4  1  0.33078037  0.16539270  0.74999981  1
  Cu  Cu5  1  0.83461456  0.16538744  0.74999986  1
loop_
_geom_bond_atom_site_label_1
_geom_bond_atom_site_label_2
_geom_bond_distance
_geom_bond_site_symmetry_2
Cu0 Cu2 2.558906 1_545
Cu0 Cu1 2.559020 1_445
Cu0 Cu4 2.568118 1_554
Cu0 Cu4 2.568123 1_555
Cu0 Cu5 2.568144 1_454
Cu0 Cu5 2.568150 1_455
Cu0 Ga1 2.578715 1_555
Cu0 Ga1 2.578729 1_455
Cu0 Ga0 2.581349 1_554
Cu0 Ga0 2.581354 1_555
Cu0 Cu2 2.598486 1_555
Cu0 Cu1 2.598518 1_555
Cu1 Cu2 2.558913 1_655
Cu1 Cu3 2.568116 1_554
Cu1 Cu3 2.568121 1_555
Cu1 Cu5 2.568152 1_564
Cu1 Cu5 2.568157 1_565
Cu1 Ga1 2.578714 1_555
Cu1 Ga1 2.578729 1_565
Cu1 Ga0 2.581341 1_554
Cu1 Ga0 2.581346 1_555
Cu1 Cu2 2.598480 1_555
Cu2 Cu3 2.568151 1_454
Cu2 Cu4 2.568151 1_564
Cu2 Cu3 2.568157 1_455
Cu2 Cu4 2.568157 1_565
Cu2 Ga1 2.578794 1_455
Cu2 Ga1 2.578795 1_565
Cu2 Ga0 2.581336 1_554
Cu2 Ga0 2.581341 1_555
Cu3 Cu5 2.558904 1_565
Cu3 Cu4 2.559026 1_665
Cu3 Ga0 2.578705 1_555
Cu3 Ga0 2.578739 1_655
Cu3 Ga1 2.581347 1_556
Cu3 Ga1 2.581352 1_555
Cu3 Cu5 2.598488 1_555
Cu3 Cu4 2.598512 1_555
Cu4 Cu5 2.558909 1_455
Cu4 Ga0 2.578712 1_555
Cu4 Ga0 2.578730 1_545
Cu4 Ga1 2.581343 1_556
Cu4 Ga1 2.581347 1_555
Cu4 Cu5 2.598485 1_555
Cu5 Ga0 2.578793 1_655
Cu5 Ga0 2.578795 1_545
Cu5 Ga1 2.581337 1_556
Cu5 Ga1 2.581341 1_555
