# generated using pymatgen
data_CsK2Sc(PO4)2
_symmetry_space_group_name_H-M   'P 1'
_cell_length_a   5.55838422
_cell_length_b   5.55838422
_cell_length_c   8.03265800
_cell_angle_alpha   90.00000000
_cell_angle_beta   90.00000000
_cell_angle_gamma   120.00000260
_symmetry_Int_Tables_number   1
_chemical_formula_structural   CsK2Sc(PO4)2
_chemical_formula_sum   'Cs1 K2 Sc1 P2 O8'
_cell_volume   214.92504407
_cell_formula_units_Z   1
loop_
 _symmetry_equiv_pos_site_id
 _symmetry_equiv_pos_as_xyz
  1  'x, y, z'
loop_
 _atom_site_type_symbol
 _atom_site_label
 _atom_site_symmetry_multiplicity
 _atom_site_fract_x
 _atom_site_fract_y
 _atom_site_fract_z
 _atom_site_occupancy
  Cs  Cs0  1  0.00000000  0.00000000  0.50000000  1
  K  K0  1  0.33333300  0.66666700  0.24849800  1
  K  K1  1  0.66666700  0.33333300  0.75150200  1
  Sc  Sc0  1  0.00000000  0.00000000  0.00000000  1
  P  P0  1  0.33333300  0.66666700  0.78262200  1
  P  P1  1  0.66666700  0.33333300  0.21737800  1
  O  O0  1  0.36108500  0.18054200  0.15081200  1
  O  O1  1  0.81945800  0.63891500  0.15081200  1
  O  O2  1  0.81945800  0.18054200  0.15081200  1
  O  O3  1  0.63891500  0.81945800  0.84918800  1
  O  O4  1  0.18054200  0.36108500  0.84918800  1
  O  O5  1  0.18054200  0.81945800  0.84918800  1
  O  O6  1  0.66666700  0.33333300  0.40761000  1
  O  O7  1  0.33333300  0.66666700  0.59239000  1
loop_
_geom_bond_atom_site_label_1
_geom_bond_atom_site_label_2
_geom_bond_distance
_geom_bond_site_symmetry_2
Cs0 O7 3.293826 1_545
Cs0 O6 3.293826 1_455
Cs0 O7 3.293831 1_445
Cs0 O6 3.293831 1_555
Cs0 O6 3.293831 1_445
Cs0 O7 3.293831 1_555
Cs0 O5 3.299799 1_545
Cs0 O2 3.299799 1_455
Cs0 O3 3.299802 1_445
Cs0 O4 3.299802 1_555
Cs0 O1 3.299802 1_445
Cs0 O0 3.299802 1_555
K0 O7 2.762367 1_555
K0 O0 2.890924 1_565
K0 O1 2.890924 1_455
K0 O2 2.890929 1_565
K0 O2 2.890929 1_455
K0 O1 2.890935 1_555
K0 O0 2.890935 1_555
K1 O6 2.762367 1_555
K1 O4 2.890924 1_655
K1 O3 2.890924 1_545
K1 O5 2.890929 1_655
K1 O5 2.890929 1_545
K1 O3 2.890935 1_555
K1 O4 2.890935 1_555
O0 P1 1.565149 1_555
O0 Sc0 2.118661 1_555
O1 P1 1.565149 1_555
O1 Sc0 2.118661 1_665
O2 P1 1.565149 1_555
O2 Sc0 2.118657 1_655
O3 P0 1.565149 1_555
O3 Sc0 2.118661 1_666
O4 P0 1.565149 1_555
O4 Sc0 2.118661 1_556
O5 P0 1.565149 1_555
O5 Sc0 2.118657 1_566
O6 P1 1.528069 1_555
O7 P0 1.528069 1_555
