# generated using pymatgen
data_MnV2Cr
_symmetry_space_group_name_H-M   'P 1'
_cell_length_a   4.16299950
_cell_length_b   4.16299950
_cell_length_c   4.16299950
_cell_angle_alpha   60.00000000
_cell_angle_beta   60.00000000
_cell_angle_gamma   60.00000000
_symmetry_Int_Tables_number   1
_chemical_formula_structural   MnV2Cr
_chemical_formula_sum   'Mn1 V2 Cr1'
_cell_volume   51.01572699
_cell_formula_units_Z   1
loop_
 _symmetry_equiv_pos_site_id
 _symmetry_equiv_pos_as_xyz
  1  'x, y, z'
loop_
 _atom_site_type_symbol
 _atom_site_label
 _atom_site_symmetry_multiplicity
 _atom_site_fract_x
 _atom_site_fract_y
 _atom_site_fract_z
 _atom_site_occupancy
  Mn  Mn0  1  0.75000000  0.75000000  0.75000000  1
  V  V0  1  -0.00000000  -0.00000000  -0.00000000  1
  V  V1  1  0.50000100  0.50000100  0.50000100  1
  Cr  Cr0  1  0.25000000  0.25000000  0.25000000  1
loop_
_geom_bond_atom_site_label_1
_geom_bond_atom_site_label_2
_geom_bond_distance
_geom_bond_site_symmetry_2
Mn0 V1 2.549296 1_555
Mn0 V0 2.549306 1_666
Mn0 V0 2.549306 1_665
Mn0 V0 2.549306 1_656
Mn0 V0 2.549306 1_566
Mn0 V1 2.549310 1_556
Mn0 V1 2.549310 1_565
Mn0 V1 2.549310 1_655
Cr0 V1 2.549303 1_455
Cr0 V1 2.549303 1_545
Cr0 V1 2.549303 1_554
Cr0 V0 2.549306 1_565
Cr0 V0 2.549306 1_555
Cr0 V0 2.549306 1_556
Cr0 V0 2.549306 1_655
Cr0 V1 2.549316 1_555
Cr0 Mn0 2.943685 1_455
Cr0 Mn0 2.943685 1_454
Cr0 Mn0 2.943685 1_544
Cr0 Mn0 2.943685 1_554
Cr0 Mn0 2.943685 1_445
Cr0 Mn0 2.943685 1_545
