# generated using pymatgen
data_CaSnS3
_symmetry_space_group_name_H-M   'P 1'
_cell_length_a   7.02587700
_cell_length_b   8.89425000
_cell_length_c   12.55139284
_cell_angle_alpha   76.64411143
_cell_angle_beta   90.00000000
_cell_angle_gamma   90.00000000
_symmetry_Int_Tables_number   1
_chemical_formula_structural   CaSnS3
_chemical_formula_sum   'Ca6 Sn6 S18'
_cell_volume   763.12223899
_cell_formula_units_Z   6
loop_
 _symmetry_equiv_pos_site_id
 _symmetry_equiv_pos_as_xyz
  1  'x, y, z'
loop_
 _atom_site_type_symbol
 _atom_site_label
 _atom_site_symmetry_multiplicity
 _atom_site_fract_x
 _atom_site_fract_y
 _atom_site_fract_z
 _atom_site_occupancy
  Ca  Ca0  1  0.77348500  0.55662200  0.40411500  1
  Ca  Ca1  1  0.27348500  0.44337800  0.59588500  1
  Ca  Ca2  1  0.66538700  0.14891300  0.84931900  1
  Ca  Ca3  1  0.16538700  0.85108700  0.15068100  1
  Ca  Ca4  1  0.18704100  0.36115900  0.92751700  1
  Ca  Ca5  1  0.68704100  0.63884100  0.07248300  1
  Sn  Sn0  1  0.72742800  0.68379100  0.69847900  1
  Sn  Sn1  1  0.22742800  0.31620900  0.30152100  1
  Sn  Sn2  1  0.74769300  0.08050800  0.46670000  1
  Sn  Sn3  1  0.24769300  0.91949200  0.53330000  1
  Sn  Sn4  1  0.63752900  0.12264700  0.19794700  1
  Sn  Sn5  1  0.13752900  0.87735300  0.80205300  1
  S  S0  1  0.75214300  0.96990200  0.68941800  1
  S  S1  1  0.25214300  0.03009800  0.31058200  1
  S  S2  1  0.01013400  0.28386600  0.47329000  1
  S  S3  1  0.51013400  0.71613400  0.52671000  1
  S  S4  1  0.49572600  0.31662500  0.44110500  1
  S  S5  1  0.99572600  0.68337500  0.55889500  1
  S  S6  1  0.98193700  0.31855400  0.74866100  1
  S  S7  1  0.48193700  0.68144600  0.25133900  1
  S  S8  1  0.51573200  0.45847700  0.77895000  1
  S  S9  1  0.01573200  0.54152300  0.22105000  1
  S  S10  1  0.91565300  0.62367000  0.88551000  1
  S  S11  1  0.41565300  0.37633000  0.11449000  1
  S  S12  1  0.92795700  0.12038700  0.04120900  1
  S  S13  1  0.42795700  0.87961300  0.95879100  1
  S  S14  1  0.41826900  0.07824200  0.03005000  1
  S  S15  1  0.91826900  0.92175800  0.96995000  1
  S  S16  1  0.72398600  0.82199500  0.23345400  1
  S  S17  1  0.22398600  0.17800500  0.76654600  1
loop_
_geom_bond_atom_site_label_1
_geom_bond_atom_site_label_2
_geom_bond_distance
_geom_bond_site_symmetry_2
Ca0 S16 2.818592 1_555
Ca0 S7 2.849895 1_555
Ca0 S4 2.850006 1_555
Ca0 S9 2.887371 1_655
Ca0 S2 2.903528 1_655
Ca0 S5 2.914619 1_555
Ca0 S3 2.968605 1_555
Ca1 S17 2.818592 1_555
Ca1 S6 2.849895 1_455
Ca1 S5 2.850006 1_455
Ca1 S8 2.887371 1_555
Ca1 S3 2.903528 1_555
Ca1 S4 2.914619 1_555
Ca1 S2 2.968605 1_555
Ca2 S14 2.810084 1_556
Ca2 S6 2.817520 1_555
Ca2 S15 2.849181 1_545
Ca2 S8 2.888431 1_555
Ca2 S0 2.900137 1_545
Ca2 S13 2.981156 1_545
Ca2 S12 2.997682 1_556
Ca2 S17 3.261859 1_555
Ca3 S15 2.810084 1_454
Ca3 S7 2.817520 1_555
Ca3 S14 2.849181 1_565
Ca3 S9 2.888431 1_555
Ca3 S1 2.900137 1_565
Ca3 S12 2.981156 1_465
Ca3 S13 2.997682 1_554
Ca3 S16 3.261859 1_455
Ca4 S6 2.766357 1_455
Ca4 S11 2.872580 1_556
Ca4 S17 2.885082 1_555
Ca4 S12 2.919576 1_456
Ca4 S10 2.965869 1_455
Ca4 S8 2.968801 1_555
Ca4 S14 3.021801 1_556
Ca5 S7 2.766357 1_555
Ca5 S10 2.872580 1_554
Ca5 S16 2.885082 1_555
Ca5 S13 2.919576 1_554
Ca5 S11 2.965869 1_555
Ca5 S9 2.968801 1_655
Ca5 S15 3.021801 1_554
S0 Sn0 2.526875 1_555
S0 Sn2 2.740918 1_565
S0 Sn5 3.077348 1_655
S1 Sn1 2.526875 1_555
S1 Sn3 2.740918 1_545
S1 Sn4 3.077348 1_555
S2 Sn2 2.597557 1_455
S2 Sn1 2.602894 1_555
S3 Sn3 2.597557 1_555
S3 Sn0 2.602894 1_555
S4 Sn1 2.574054 1_555
S4 Sn2 2.708466 1_555
S5 Sn0 2.574054 1_555
S5 Sn3 2.708466 1_655
S8 Sn0 2.512617 1_555
S9 Sn1 2.512617 1_555
S10 Sn0 2.639246 1_555
S10 Sn5 2.743428 1_655
S11 Sn1 2.639246 1_555
S11 Sn4 2.743428 1_555
S12 S15 2.157697 1_544
S12 Sn4 2.837702 1_555
S13 S14 2.157697 1_566
S13 Sn5 2.837702 1_555
S14 Sn4 2.711920 1_555
S15 Sn5 2.711920 1_655
S16 S7 2.091770 1_555
S16 Sn4 2.677254 1_565
S17 S6 2.091770 1_455
S17 Sn5 2.677254 1_545
