# generated using pymatgen
data_NdMgCd2
_symmetry_space_group_name_H-M   'P 1'
_cell_length_a   5.16529196
_cell_length_b   5.16529196
_cell_length_c   5.16529196
_cell_angle_alpha   60.00000000
_cell_angle_beta   60.00000000
_cell_angle_gamma   60.00000000
_symmetry_Int_Tables_number   1
_chemical_formula_structural   NdMgCd2
_chemical_formula_sum   'Nd1 Mg1 Cd2'
_cell_volume   97.44725830
_cell_formula_units_Z   1
loop_
 _symmetry_equiv_pos_site_id
 _symmetry_equiv_pos_as_xyz
  1  'x, y, z'
loop_
 _atom_site_type_symbol
 _atom_site_label
 _atom_site_symmetry_multiplicity
 _atom_site_fract_x
 _atom_site_fract_y
 _atom_site_fract_z
 _atom_site_occupancy
  Nd  Nd0  1  0.75000100  0.75000100  0.75000100  1
  Mg  Mg0  1  0.25000000  0.25000000  0.25000000  1
  Cd  Cd0  1  0.00000000  -0.00000000  0.00000000  1
  Cd  Cd1  1  0.50000100  0.50000100  0.50000100  1
loop_
_geom_bond_atom_site_label_1
_geom_bond_atom_site_label_2
_geom_bond_distance
_geom_bond_site_symmetry_2
Cd0 Nd0 3.163070 1_444
Cd0 Mg0 3.163082 1_455
Cd0 Mg0 3.163082 1_545
Cd0 Mg0 3.163082 1_555
Cd0 Mg0 3.163082 1_554
Cd0 Nd0 3.163087 1_445
Cd0 Nd0 3.163087 1_454
Cd0 Nd0 3.163087 1_544
Cd1 Mg0 3.163078 1_556
Cd1 Mg0 3.163078 1_655
Cd1 Mg0 3.163078 1_565
Cd1 Nd0 3.163082 1_555
Cd1 Nd0 3.163082 1_545
Cd1 Nd0 3.163082 1_554
Cd1 Nd0 3.163082 1_455
Cd1 Mg0 3.163095 1_555
