# generated using pymatgen
data_Ba2YB2ClO6
_symmetry_space_group_name_H-M   'P 1'
_cell_length_a   5.36137900
_cell_length_b   6.50046700
_cell_length_c   11.49123926
_cell_angle_alpha   84.22183599
_cell_angle_beta   90.00000000
_cell_angle_gamma   90.00000000
_symmetry_Int_Tables_number   1
_chemical_formula_structural   Ba2YB2ClO6
_chemical_formula_sum   'Ba4 Y2 B4 Cl2 O12'
_cell_volume   398.45173692
_cell_formula_units_Z   2
loop_
 _symmetry_equiv_pos_site_id
 _symmetry_equiv_pos_as_xyz
  1  'x, y, z'
loop_
 _atom_site_type_symbol
 _atom_site_label
 _atom_site_symmetry_multiplicity
 _atom_site_fract_x
 _atom_site_fract_y
 _atom_site_fract_z
 _atom_site_occupancy
  Ba  Ba0  1  0.75000000  0.90206300  0.20586200  1
  Ba  Ba1  1  0.25000000  0.09793700  0.79413800  1
  Ba  Ba2  1  0.75000000  0.66169500  0.57435600  1
  Ba  Ba3  1  0.25000000  0.33830500  0.42564400  1
  Y  Y0  1  0.75000000  0.65703600  0.91202300  1
  Y  Y1  1  0.25000000  0.34296400  0.08797700  1
  B  B0  1  0.25000000  0.62883200  0.72492400  1
  B  B1  1  0.75000000  0.37116800  0.27507600  1
  B  B2  1  0.75000000  0.21392100  0.92727600  1
  B  B3  1  0.25000000  0.78607900  0.07272400  1
  Cl  Cl0  1  0.75000000  0.15204500  0.58548500  1
  Cl  Cl1  1  0.25000000  0.84795500  0.41451500  1
  O  O0  1  0.47173500  0.71402700  0.76157400  1
  O  O1  1  0.97173500  0.28597300  0.23842600  1
  O  O2  1  0.52826500  0.28597300  0.23842600  1
  O  O3  1  0.02826500  0.71402700  0.76157400  1
  O  O4  1  0.53075400  0.32800300  0.93415700  1
  O  O5  1  0.03075400  0.67199700  0.06584300  1
  O  O6  1  0.46924600  0.67199700  0.06584300  1
  O  O7  1  0.96924600  0.32800300  0.93415700  1
  O  O8  1  0.75000000  0.01103100  0.90699900  1
  O  O9  1  0.25000000  0.98896900  0.09300100  1
  O  O10  1  0.25000000  0.47955200  0.64682500  1
  O  O11  1  0.75000000  0.52044800  0.35317500  1
loop_
_geom_bond_atom_site_label_1
_geom_bond_atom_site_label_2
_geom_bond_distance
_geom_bond_site_symmetry_2
Ba0 O6 2.752402 1_555
Ba0 O5 2.752402 1_655
Ba0 O2 2.822997 1_565
Ba0 O1 2.822997 1_565
Ba0 O11 2.858987 1_555
Ba0 O9 3.006609 1_555
Ba0 O9 3.006609 1_655
Ba0 Cl1 3.590108 1_655
Ba0 Cl1 3.590108 1_555
Ba1 O4 2.752402 1_555
Ba1 O7 2.752402 1_455
Ba1 O3 2.822997 1_545
Ba1 O0 2.822997 1_545
Ba1 O10 2.858987 1_555
Ba1 O8 3.006609 1_555
Ba1 O8 3.006609 1_455
Ba1 Cl0 3.590108 1_455
Ba1 Cl0 3.590108 1_555
Ba2 O3 2.667805 1_655
Ba2 O0 2.667805 1_555
Ba2 O11 2.787989 1_555
Ba2 O10 3.013791 1_655
Ba2 O10 3.013791 1_555
Ba2 Cl0 3.202907 1_565
Ba2 Cl0 3.302540 1_555
Ba2 Cl1 3.402647 1_555
Ba2 Cl1 3.402647 1_655
Ba3 O2 2.667805 1_555
Ba3 O1 2.667805 1_455
Ba3 O10 2.787989 1_555
Ba3 O11 3.013791 1_555
Ba3 O11 3.013791 1_455
Ba3 Cl1 3.202907 1_545
Ba3 Cl1 3.302540 1_555
Ba3 Cl0 3.402647 1_455
Ba3 Cl0 3.402647 1_555
B0 O10 1.386519 1_555
B0 O3 1.394380 1_555
B0 O0 1.394380 1_555
B1 O11 1.386519 1_555
B1 O2 1.394380 1_555
B1 O1 1.394380 1_555
B2 O8 1.362209 1_555
B2 O4 1.396323 1_555
B2 O7 1.396323 1_555
B3 O9 1.362209 1_555
B3 O6 1.396323 1_555
B3 O5 1.396323 1_555
O0 Y0 2.285368 1_555
O1 Y1 2.285368 1_655
O2 Y1 2.285368 1_555
O3 Y0 2.285368 1_455
O4 Y1 2.331123 1_556
O4 Y0 2.431382 1_555
O5 Y0 2.331123 1_454
O5 Y1 2.431382 1_555
O6 Y0 2.331123 1_554
O6 Y1 2.431382 1_555
O7 Y1 2.331123 1_656
O7 Y0 2.431382 1_555
O8 Y0 2.296039 1_545
O9 Y1 2.296039 1_565
