# generated using pymatgen
data_Cr2S3
_symmetry_space_group_name_H-M   'P 1'
_cell_length_a   5.95376857
_cell_length_b   10.94272300
_cell_length_c   5.95376900
_cell_angle_alpha   90.00000000
_cell_angle_beta   119.99999681
_cell_angle_gamma   90.00000000
_symmetry_Int_Tables_number   1
_chemical_formula_structural   Cr2S3
_chemical_formula_sum   'Cr8 S12'
_cell_volume   335.92318658
_cell_formula_units_Z   4
loop_
 _symmetry_equiv_pos_site_id
 _symmetry_equiv_pos_as_xyz
  1  'x, y, z'
loop_
 _atom_site_type_symbol
 _atom_site_label
 _atom_site_symmetry_multiplicity
 _atom_site_fract_x
 _atom_site_fract_y
 _atom_site_fract_z
 _atom_site_occupancy
  Cr  Cr0  1  0.66666700  0.25794400  0.33333300  1
  Cr  Cr1  1  0.66666700  0.98877100  0.33333300  1
  Cr  Cr2  1  0.00000000  0.00455300  0.00000000  1
  Cr  Cr3  1  0.33333300  0.74885600  0.66666700  1
  Cr  Cr4  1  0.33333300  0.49499000  0.66666700  1
  Cr  Cr5  1  0.66666700  0.50483000  0.33333300  1
  Cr  Cr6  1  0.00000000  0.50032100  0.00000000  1
  Cr  Cr7  1  0.33333300  0.00508900  0.66666700  1
  S  S0  1  0.66253800  0.62022600  0.99239500  1
  S  S1  1  0.98648900  0.12210400  0.65710800  1
  S  S2  1  0.67053300  0.37944000  0.66426800  1
  S  S3  1  0.00760500  0.62022600  0.67014300  1
  S  S4  1  0.34289200  0.12210400  0.32938100  1
  S  S5  1  0.33573200  0.37944000  0.00626500  1
  S  S6  1  0.99373500  0.37944000  0.32946700  1
  S  S7  1  0.32626600  0.87644500  0.99068700  1
  S  S8  1  0.32985700  0.62022600  0.33746200  1
  S  S9  1  0.67061900  0.12210400  0.01351100  1
  S  S10  1  0.00931300  0.87644500  0.33557900  1
  S  S11  1  0.66442100  0.87644500  0.67373400  1
loop_
_geom_bond_atom_site_label_1
_geom_bond_atom_site_label_2
_geom_bond_distance
_geom_bond_site_symmetry_2
Cr0 S6 2.367455 1_555
Cr0 S5 2.367457 1_555
Cr0 S2 2.367460 1_555
Cr0 S9 2.425014 1_555
Cr0 S1 2.425016 1_555
Cr0 S4 2.425018 1_555
Cr1 S10 2.376017 1_655
Cr1 S7 2.376020 1_554
Cr1 S11 2.376022 1_555
Cr1 S9 2.408295 1_565
Cr1 S1 2.408298 1_565
Cr1 S4 2.408300 1_565
Cr2 S9 2.380044 1_455
Cr2 S1 2.380044 1_454
Cr2 S4 2.380044 1_555
Cr2 S7 2.418537 1_544
Cr2 S10 2.418537 1_545
Cr2 S11 2.418537 1_444
Cr3 S7 2.398711 1_555
Cr3 S10 2.398714 1_555
Cr3 S11 2.398716 1_555
Cr3 S3 2.404728 1_555
Cr3 S0 2.404730 1_555
Cr3 S8 2.404733 1_555
Cr4 S5 2.378685 1_556
Cr4 S6 2.378688 1_455
Cr4 S2 2.378690 1_555
Cr4 S3 2.383179 1_555
Cr4 S0 2.383181 1_555
Cr4 S8 2.383184 1_555
Cr5 S0 2.380250 1_554
Cr5 S3 2.380252 1_655
Cr5 S8 2.380255 1_555
Cr5 S6 2.391644 1_555
Cr5 S5 2.391646 1_555
Cr5 S2 2.391649 1_555
Cr6 S0 2.381054 1_454
Cr6 S3 2.381054 1_554
Cr6 S8 2.381054 1_555
Cr6 S5 2.381602 1_555
Cr6 S6 2.381602 1_455
Cr6 S2 2.381603 1_454
Cr7 S7 2.405449 1_545
Cr7 S10 2.405452 1_545
Cr7 S11 2.405454 1_545
Cr7 S1 2.406168 1_455
Cr7 S9 2.406170 1_556
Cr7 S4 2.406173 1_555
