# generated using pymatgen
data_Pm2CuRh
_symmetry_space_group_name_H-M   'P 1'
_cell_length_a   4.97740869
_cell_length_b   4.96918401
_cell_length_c   4.97000927
_cell_angle_alpha   59.98282157
_cell_angle_beta   60.04274523
_cell_angle_gamma   60.04282541
_symmetry_Int_Tables_number   1
_chemical_formula_structural   Pm2CuRh
_chemical_formula_sum   'Pm2 Cu1 Rh1'
_cell_volume   86.96703233
_cell_formula_units_Z   1
loop_
 _symmetry_equiv_pos_site_id
 _symmetry_equiv_pos_as_xyz
  1  'x, y, z'
loop_
 _atom_site_type_symbol
 _atom_site_label
 _atom_site_symmetry_multiplicity
 _atom_site_fract_x
 _atom_site_fract_y
 _atom_site_fract_z
 _atom_site_occupancy
  Pm  Pm0  1  0.99954674  0.00023613  0.00010994  1
  Pm  Pm1  1  0.50045306  0.49976197  0.49988717  1
  Cu  Cu0  1  0.24999792  0.25000101  0.25000105  1
  Rh  Rh0  1  0.74999828  0.74999990  0.74999984  1
loop_
_geom_bond_atom_site_label_1
_geom_bond_atom_site_label_2
_geom_bond_distance
_geom_bond_site_symmetry_2
Pm0 Rh0 3.042295 1_554
Pm0 Rh0 3.043309 1_545
Pm0 Rh0 3.043884 1_544
Pm0 Rh0 3.051965 1_644
Pm1 Rh0 3.042288 1_545
Pm1 Rh0 3.043299 1_554
Pm1 Rh0 3.043889 1_555
Pm1 Rh0 3.051979 1_455
Cu0 Pm0 3.044203 1_456
Cu0 Pm0 3.044212 1_465
Cu0 Pm1 3.044224 1_554
Cu0 Pm1 3.044228 1_545
Cu0 Pm1 3.044732 1_555
Cu0 Pm0 3.044752 1_455
Cu0 Pm1 3.048278 1_455
Cu0 Pm0 3.048294 1_555
