# generated using pymatgen
data_Na2CoS2
_symmetry_space_group_name_H-M   'P 1'
_cell_length_a   7.11338048
_cell_length_b   7.11338048
_cell_length_c   7.11338048
_cell_angle_alpha   133.88703127
_cell_angle_beta   126.78358218
_cell_angle_gamma   73.02030129
_symmetry_Int_Tables_number   1
_chemical_formula_structural   Na2CoS2
_chemical_formula_sum   'Na4 Co2 S4'
_cell_volume   202.98493377
_cell_formula_units_Z   2
loop_
 _symmetry_equiv_pos_site_id
 _symmetry_equiv_pos_as_xyz
  1  'x, y, z'
loop_
 _atom_site_type_symbol
 _atom_site_label
 _atom_site_symmetry_multiplicity
 _atom_site_fract_x
 _atom_site_fract_y
 _atom_site_fract_z
 _atom_site_occupancy
  Na  Na0  1  0.51351600  0.85667500  0.65684100  1
  Na  Na1  1  0.80016700  0.64332500  0.15684100  1
  Na  Na2  1  0.48648400  0.14332500  0.34315900  1
  Na  Na3  1  0.19983300  0.35667500  0.84315900  1
  Co  Co0  1  0.00000000  0.25000000  0.25000000  1
  Co  Co1  1  0.00000000  0.75000000  0.75000000  1
  S  S0  1  0.90332100  0.10986900  0.79345200  1
  S  S1  1  0.31641700  0.60986900  0.70654800  1
  S  S2  1  0.09667900  0.89013100  0.20654800  1
  S  S3  1  0.68358300  0.39013100  0.29345200  1
loop_
_geom_bond_atom_site_label_1
_geom_bond_atom_site_label_2
_geom_bond_distance
_geom_bond_site_symmetry_2
Na0 S1 2.839890 1_555
Na0 S2 2.894651 1_555
Na0 S3 2.943668 1_555
Na0 S3 2.943668 1_566
Na0 S0 3.023248 1_565
Na1 S2 2.839884 1_655
Na1 S1 2.894655 1_554
Na1 S0 2.943665 1_554
Na1 S0 2.943671 1_565
Na1 S3 3.023252 1_555
Na2 S3 2.839890 1_555
Na2 S0 2.894651 1_555
Na2 S1 2.943668 1_544
Na2 S1 2.943668 1_555
Na2 S2 3.023248 1_545
Na3 S0 2.839884 1_455
Na3 S3 2.894655 1_556
Na3 S2 2.943665 1_556
Na3 S2 2.943671 1_545
Na3 S1 3.023252 1_555
Co0 S2 2.291464 1_545
Co0 S1 2.291464 1_555
Co0 S0 2.291464 1_454
Co0 S3 2.291464 1_455
Co0 Na1 3.067159 1_455
Co0 Na2 3.067160 1_555
Co0 Na0 3.067160 1_444
Co0 Na3 3.067162 1_555
Co1 S2 2.291464 1_556
Co1 S1 2.291464 1_555
Co1 S0 2.291464 1_465
Co1 S3 2.291464 1_455
Co1 Na3 3.067159 1_555
Co1 Na2 3.067160 1_566
Co1 Na0 3.067160 1_455
Co1 Na1 3.067162 1_455
