# generated using pymatgen
data_ErNi5
_symmetry_space_group_name_H-M   'P 1'
_cell_length_a   4.80336893
_cell_length_b   4.80338163
_cell_length_c   3.90865337
_cell_angle_alpha   90.00000000
_cell_angle_beta   90.00000000
_cell_angle_gamma   119.99626421
_symmetry_Int_Tables_number   1
_chemical_formula_structural   ErNi5
_chemical_formula_sum   'Er1 Ni5'
_cell_volume   78.10290260
_cell_formula_units_Z   1
loop_
 _symmetry_equiv_pos_site_id
 _symmetry_equiv_pos_as_xyz
  1  'x, y, z'
loop_
 _atom_site_type_symbol
 _atom_site_label
 _atom_site_symmetry_multiplicity
 _atom_site_fract_x
 _atom_site_fract_y
 _atom_site_fract_z
 _atom_site_occupancy
  Er  Er0  1  0.00000000  -0.00000000  0.00000000  1
  Ni  Ni0  1  0.00000000  0.50000000  0.50000000  1
  Ni  Ni1  1  0.33334001  0.66662572  -0.00000000  1
  Ni  Ni2  1  0.66665999  0.33337428  -0.00000000  1
  Ni  Ni3  1  0.50000000  -0.00000000  0.50000000  1
  Ni  Ni4  1  0.50000000  0.50000000  0.50000000  1
loop_
_geom_bond_atom_site_label_1
_geom_bond_atom_site_label_2
_geom_bond_distance
_geom_bond_site_symmetry_2
Er0 Ni1 2.773168 1_555
Er0 Ni2 2.773168 1_445
Er0 Ni2 2.773303 1_555
Er0 Ni1 2.773303 1_445
Er0 Ni1 2.773376 1_545
Er0 Ni2 2.773376 1_455
Er0 Ni3 3.096366 1_554
Er0 Ni3 3.096366 1_455
Er0 Ni3 3.096366 1_454
Er0 Ni3 3.096366 1_555
Er0 Ni0 3.096371 1_545
Er0 Ni0 3.096371 1_544
Er0 Ni0 3.096371 1_555
Er0 Ni0 3.096371 1_554
Er0 Ni4 3.096473 1_555
Er0 Ni4 3.096473 1_445
Er0 Ni4 3.096473 1_554
Er0 Ni4 3.096473 1_444
Ni0 Ni1 2.396312 1_556
Ni0 Ni2 2.396312 1_456
Ni0 Ni1 2.396312 1_555
Ni0 Ni2 2.396312 1_455
Ni0 Ni4 2.401684 1_555
Ni0 Ni4 2.401684 1_455
Ni0 Ni3 2.401823 1_455
Ni0 Ni3 2.401823 1_565
Ni1 Ni4 2.396137 1_555
Ni1 Ni4 2.396137 1_554
Ni1 Ni3 2.396397 1_564
Ni1 Ni3 2.396397 1_565
Ni2 Ni4 2.396137 1_555
Ni2 Ni4 2.396137 1_554
Ni2 Ni3 2.396397 1_554
Ni2 Ni3 2.396397 1_555
Ni3 Ni4 2.401691 1_545
Ni3 Ni4 2.401691 1_555
