# generated using pymatgen
data_Mn8PbO16
_symmetry_space_group_name_H-M   'P 1'
_cell_length_a   5.77881563
_cell_length_b   7.01731199
_cell_length_c   7.05917990
_cell_angle_alpha   87.93672846
_cell_angle_beta   78.30039319
_cell_angle_gamma   77.98885402
_symmetry_Int_Tables_number   1
_chemical_formula_structural   Mn8PbO16
_chemical_formula_sum   'Mn8 Pb1 O16'
_cell_volume   274.17215991
_cell_formula_units_Z   1
loop_
 _symmetry_equiv_pos_site_id
 _symmetry_equiv_pos_as_xyz
  1  'x, y, z'
loop_
 _atom_site_type_symbol
 _atom_site_label
 _atom_site_symmetry_multiplicity
 _atom_site_fract_x
 _atom_site_fract_y
 _atom_site_fract_z
 _atom_site_occupancy
  Mn  Mn0  1  0.57712417  0.51997904  0.18254518  1
  Mn  Mn1  1  0.07856648  0.51269107  0.18276752  1
  Mn  Mn2  1  0.16991555  0.81689106  0.51458105  1
  Mn  Mn3  1  0.66886757  0.81795081  0.52304797  1
  Mn  Mn4  1  0.33817721  0.18274968  0.47760434  1
  Mn  Mn5  1  0.83612798  0.18233390  0.48483503  1
  Mn  Mn6  1  0.43000272  0.48036584  0.81722662  1
  Mn  Mn7  1  0.92721802  0.48746911  0.81795135  1
  Pb  Pb0  1  0.03289326  0.99868268  0.99760315  1
  O  O0  1  0.83474234  0.64924344  0.04757089  1
  O  O1  1  0.32185442  0.64850674  0.05134459  1
  O  O2  1  0.98101681  0.70358678  0.38116470  1
  O  O3  1  0.48241535  0.70354781  0.38447470  1
  O  O4  1  0.85952636  0.95642767  0.64942382  1
  O  O5  1  0.34457132  0.95708665  0.64756071  1
  O  O6  1  0.33768413  0.37722685  0.28883178  1
  O  O7  1  0.83675627  0.37265739  0.28682170  1
  O  O8  1  0.16933728  0.62720335  0.71341699  1
  O  O9  1  0.66958370  0.62368661  0.71110461  1
  O  O10  1  0.14805511  0.04144869  0.34763231  1
  O  O11  1  0.65810859  0.04417258  0.35600208  1
  O  O12  1  0.02512662  0.29585896  0.61877722  1
  O  O13  1  0.52502917  0.29692816  0.61585020  1
  O  O14  1  0.17190953  0.34814720  0.95179469  1
  O  O15  1  0.68249107  0.35516092  0.95006179  1
loop_
_geom_bond_atom_site_label_1
_geom_bond_atom_site_label_2
_geom_bond_distance
_geom_bond_site_symmetry_2
Mn0 O3 1.874356 1_555
Mn0 O6 1.892808 1_555
Mn0 O7 1.899802 1_555
Mn0 O1 1.946158 1_555
Mn0 O15 1.959612 1_554
Mn0 O0 1.967612 1_555
Mn1 O6 1.875478 1_555
Mn1 O7 1.887083 1_455
Mn1 O2 1.890584 1_455
Mn1 O1 1.926306 1_555
Mn1 O0 1.931824 1_455
Mn1 O14 1.949949 1_554
Mn2 O3 1.876026 1_555
Mn2 O2 1.882259 1_455
Mn2 O8 1.899314 1_555
Mn2 O4 1.930241 1_455
Mn2 O5 1.931781 1_555
Mn2 O10 1.931785 1_565
Mn3 O9 1.868224 1_555
Mn3 O3 1.899043 1_555
Mn3 O2 1.903611 1_555
Mn3 O11 1.941215 1_565
Mn3 O4 1.964869 1_555
Mn3 O5 1.967258 1_555
Mn4 O6 1.872745 1_555
Mn4 O13 1.898428 1_555
Mn4 O12 1.903683 1_555
Mn4 O11 1.941350 1_555
Mn4 O5 1.950697 1_545
Mn4 O10 1.989928 1_555
Mn5 O13 1.873917 1_555
Mn5 O12 1.885925 1_655
Mn5 O7 1.898195 1_555
Mn5 O11 1.919228 1_555
Mn5 O4 1.929537 1_545
Mn5 O10 1.945227 1_655
Mn6 O13 1.870913 1_555
Mn6 O9 1.895826 1_555
Mn6 O8 1.901343 1_555
Mn6 O15 1.934469 1_555
Mn6 O14 1.981315 1_555
Mn6 O1 1.982097 1_556
Mn7 O9 1.873602 1_555
Mn7 O8 1.887821 1_655
Mn7 O12 1.897831 1_655
Mn7 O15 1.918605 1_555
Mn7 O0 1.931426 1_556
Mn7 O14 1.935958 1_655
O1 Pb0 2.729945 1_554
O5 Pb0 2.731904 1_555
O10 Pb0 2.727968 1_544
O14 Pb0 2.724190 1_545
