# generated using pymatgen
data_VGaRu2
_symmetry_space_group_name_H-M   'P 1'
_cell_length_a   4.23032548
_cell_length_b   4.22891640
_cell_length_c   4.22906642
_cell_angle_alpha   59.98346400
_cell_angle_beta   60.00689698
_cell_angle_gamma   60.00380519
_symmetry_Int_Tables_number   1
_chemical_formula_structural   VGaRu2
_chemical_formula_sum   'V1 Ga1 Ru2'
_cell_volume   53.49500101
_cell_formula_units_Z   1
loop_
 _symmetry_equiv_pos_site_id
 _symmetry_equiv_pos_as_xyz
  1  'x, y, z'
loop_
 _atom_site_type_symbol
 _atom_site_label
 _atom_site_symmetry_multiplicity
 _atom_site_fract_x
 _atom_site_fract_y
 _atom_site_fract_z
 _atom_site_occupancy
  V  V0  1  0.75000903  0.74996304  0.74998045  1
  Ga  Ga0  1  0.24997809  0.25000387  0.25002388  1
  Ru  Ru0  1  0.99997492  0.00002168  0.00003550  1
  Ru  Ru1  1  0.50003495  0.50000942  0.49995817  1
loop_
_geom_bond_atom_site_label_1
_geom_bond_atom_site_label_2
_geom_bond_distance
_geom_bond_site_symmetry_2
Ga0 Ru1 2.589359 1_545
Ga0 Ru0 2.589439 1_465
Ga0 Ru0 2.589590 1_456
Ga0 Ru1 2.589777 1_554
Ga0 Ru0 2.589937 1_455
Ga0 Ru1 2.590017 1_555
Ga0 Ru1 2.590656 1_455
Ga0 Ru0 2.590841 1_555
Ru0 V0 2.589175 1_554
Ru0 V0 2.589360 1_545
Ru0 V0 2.590303 1_544
Ru0 V0 2.590970 1_644
Ru1 V0 2.589473 1_554
Ru1 V0 2.589538 1_545
Ru1 V0 2.589855 1_555
Ru1 V0 2.590942 1_455
