# generated using pymatgen
data_KNdGeS4
_symmetry_space_group_name_H-M   'P 1'
_cell_length_a   6.77692500
_cell_length_b   6.66957000
_cell_length_c   8.79097165
_cell_angle_alpha   72.76459423
_cell_angle_beta   90.00000000
_cell_angle_gamma   90.00000000
_symmetry_Int_Tables_number   1
_chemical_formula_structural   KNdGeS4
_chemical_formula_sum   'K2 Nd2 Ge2 S8'
_cell_volume   379.50208717
_cell_formula_units_Z   2
loop_
 _symmetry_equiv_pos_site_id
 _symmetry_equiv_pos_as_xyz
  1  'x, y, z'
loop_
 _atom_site_type_symbol
 _atom_site_label
 _atom_site_symmetry_multiplicity
 _atom_site_fract_x
 _atom_site_fract_y
 _atom_site_fract_z
 _atom_site_occupancy
  K  K0  1  0.98901300  0.72965500  0.56644400  1
  K  K1  1  0.48901300  0.27034500  0.43355600  1
  Nd  Nd0  1  0.50498500  0.22793900  0.94819000  1
  Nd  Nd1  1  0.00498500  0.77206100  0.05181000  1
  Ge  Ge0  1  0.47335400  0.77701100  0.82033000  1
  Ge  Ge1  1  0.97335400  0.22298900  0.17967000  1
  S  S0  1  0.47138300  0.57584800  0.66233100  1
  S  S1  1  0.23573100  0.02071300  0.77449900  1
  S  S2  1  0.74281100  0.97882800  0.79087000  1
  S  S3  1  0.91572300  0.42078700  0.92993000  1
  S  S4  1  0.41572300  0.57921300  0.07007000  1
  S  S5  1  0.24281100  0.02117200  0.20913000  1
  S  S6  1  0.73573100  0.97928700  0.22550100  1
  S  S7  1  0.97138300  0.42415200  0.33766900  1
loop_
_geom_bond_atom_site_label_1
_geom_bond_atom_site_label_2
_geom_bond_distance
_geom_bond_site_symmetry_2
K0 S7 3.261765 1_555
K0 S3 3.286351 1_555
K0 S2 3.373589 1_555
K0 S6 3.427019 1_555
K0 S0 3.454954 1_655
K0 S1 3.466009 1_665
K0 S5 3.603631 1_665
K0 S0 3.681859 1_555
K1 S0 3.261765 1_555
K1 S4 3.286351 1_555
K1 S5 3.373589 1_555
K1 S1 3.427019 1_555
K1 S7 3.454954 1_555
K1 S6 3.466009 1_545
K1 S2 3.603631 1_545
K1 S7 3.681859 1_455
Nd0 S0 2.880223 1_555
Nd0 S5 2.906196 1_556
Nd0 S4 2.913830 1_556
Nd0 S2 2.938107 1_545
Nd0 S6 2.956827 1_546
Nd0 S1 2.970161 1_555
Nd0 S3 3.050551 1_555
Nd1 S7 2.880223 1_455
Nd1 S2 2.906196 1_454
Nd1 S3 2.913830 1_454
Nd1 S5 2.938107 1_565
Nd1 S1 2.956827 1_564
Nd1 S6 2.970161 1_455
Nd1 S4 3.050551 1_555
Ge0 S0 2.198592 1_555
Ge0 S4 2.235305 1_556
Ge0 S2 2.237611 1_555
Ge0 S1 2.238164 1_565
Ge1 S7 2.198592 1_555
Ge1 S3 2.235305 1_554
Ge1 S5 2.237611 1_655
Ge1 S6 2.238164 1_545
