# generated using pymatgen
data_Sr7SmFe4(MoO6)4
_symmetry_space_group_name_H-M   'P 1'
_cell_length_a   5.63251600
_cell_length_b   5.67798981
_cell_length_c   18.74907483
_cell_angle_alpha   97.57095731
_cell_angle_beta   90.43684575
_cell_angle_gamma   119.53526382
_symmetry_Int_Tables_number   1
_chemical_formula_structural   Sr7SmFe4(MoO6)4
_chemical_formula_sum   'Sr7 Sm1 Fe4 Mo4 O24'
_cell_volume   515.31968673
_cell_formula_units_Z   1
loop_
 _symmetry_equiv_pos_site_id
 _symmetry_equiv_pos_as_xyz
  1  'x, y, z'
loop_
 _atom_site_type_symbol
 _atom_site_label
 _atom_site_symmetry_multiplicity
 _atom_site_fract_x
 _atom_site_fract_y
 _atom_site_fract_z
 _atom_site_occupancy
  Sr  Sr0  1  0.31725500  0.25521000  0.80874200  1
  Sr  Sr1  1  0.05996400  0.25019200  0.56355400  1
  Sr  Sr2  1  0.83157600  0.26160800  0.30383100  1
  Sr  Sr3  1  0.54459300  0.23376100  0.07499100  1
  Sr  Sr4  1  0.18220100  0.75190500  0.68665400  1
  Sr  Sr5  1  0.43613700  0.74507400  0.93629700  1
  Sr  Sr6  1  0.94147500  0.75072000  0.43872000  1
  Sm  Sm0  1  0.67101800  0.75196900  0.18673500  1
  Fe  Fe0  1  0.75170000  0.99807800  0.75080300  1
  Fe  Fe1  1  0.49875400  0.00380900  0.50019300  1
  Fe  Fe2  1  0.25334600  0.99986700  0.24924300  1
  Fe  Fe3  1  0.11915200  0.48818000  0.12936000  1
  Mo  Mo0  1  0.99543000  0.99213300  0.00265900  1
  Mo  Mo1  1  0.87486700  0.50032500  0.87338100  1
  Mo  Mo2  1  0.62290500  0.50334500  0.62418100  1
  Mo  Mo3  1  0.37790100  0.50220200  0.37480500  1
  O  O0  1  0.92476200  0.73817300  0.94027200  1
  O  O1  1  0.68445800  0.75822600  0.68462100  1
  O  O2  1  0.43563000  0.74763200  0.43513600  1
  O  O3  1  0.25310400  0.73954900  0.18841800  1
  O  O4  1  0.32098100  0.70925400  0.82350900  1
  O  O5  1  0.07608700  0.71285400  0.56965800  1
  O  O6  1  0.80015700  0.68278100  0.32968400  1
  O  O7  1  0.58247700  0.69535200  0.07775700  1
  O  O8  1  0.85967800  0.18899400  0.95237600  1
  O  O9  1  0.62098200  0.22576200  0.69208900  1
  O  O10  1  0.35505200  0.21020600  0.44749400  1
  O  O11  1  0.07065200  0.15044900  0.19536500  1
  O  O12  1  0.80365300  0.25149700  0.81201600  1
  O  O13  1  0.56376000  0.25390600  0.55976500  1
  O  O14  1  0.30604900  0.26635900  0.31506100  1
  O  O15  1  0.03854000  0.23525500  0.06576800  1
  O  O16  1  0.89849600  0.80620500  0.79821500  1
  O  O17  1  0.63639100  0.78553300  0.55049300  1
  O  O18  1  0.40102500  0.79023000  0.30363900  1
  O  O19  1  0.15270400  0.81068900  0.04804400  1
  O  O20  1  0.42166800  0.29318700  0.92495900  1
  O  O21  1  0.17785600  0.30219200  0.67513900  1
  O  O22  1  0.93729500  0.29797200  0.42607600  1
  O  O23  1  0.70026900  0.35936500  0.18029800  1
loop_
_geom_bond_atom_site_label_1
_geom_bond_atom_site_label_2
_geom_bond_distance
_geom_bond_site_symmetry_2
Fe0 O1 1.605262 1_555
Fe0 O12 1.617981 1_565
Fe0 O16 1.947524 1_555
Fe0 O9 2.174009 1_565
Fe0 O4 2.673995 1_555
Fe0 O21 2.714182 1_665
Fe1 O13 1.568855 1_555
Fe1 O2 1.657100 1_545
Fe1 O10 2.057405 1_555
Fe1 O17 2.066533 1_545
Fe1 O5 2.613385 1_545
Fe1 O22 2.723696 1_555
Fe2 O14 1.720482 1_565
Fe2 O3 1.743298 1_555
Fe2 O11 1.972188 1_565
Fe2 O18 2.105236 1_555
Fe3 O3 1.530212 1_555
Fe3 O15 1.608661 1_555
Fe3 O11 2.323241 1_555
Fe3 O23 2.351750 1_455
Fe3 O19 2.472306 1_555
Fe3 O7 2.538122 1_555
Mo0 O0 1.608883 1_554
Mo0 O15 1.612254 1_665
Mo0 O19 1.920804 1_655
Mo0 O8 1.957601 1_564
Mo0 O7 2.653880 1_555
Mo0 O20 2.733407 1_664
Mo1 O12 1.576910 1_555
Mo1 O0 1.627830 1_555
Mo1 O16 2.332418 1_555
Mo1 O8 2.422508 1_555
Mo1 O4 2.446375 1_655
Mo1 O20 2.492358 1_555
Mo2 O1 1.601853 1_555
Mo2 O13 1.628957 1_555
Mo2 O9 2.148834 1_555
Mo2 O17 2.224118 1_555
Mo2 O21 2.449980 1_555
Mo2 O5 2.518366 1_655
Mo3 O14 1.508392 1_555
Mo3 O2 1.568274 1_555
Mo3 O18 2.199901 1_555
Mo3 O10 2.238401 1_555
Mo3 O6 2.297515 1_555
Mo3 O22 2.433210 1_455
O3 Sm0 2.320540 1_555
O4 Sr5 2.160924 1_555
O4 Sr0 2.545969 1_555
O4 Sr4 2.751968 1_555
O4 Sr0 3.158622 1_565
O5 Sr4 2.222457 1_555
O5 Sr1 2.570571 1_555
O5 Sr6 2.630472 1_455
O5 Sr1 3.113674 1_565
O6 Sr6 2.103877 1_555
O6 Sr2 2.469462 1_555
O6 Sm0 2.897606 1_555
O7 Sm0 2.044550 1_555
O7 Sr3 2.515953 1_555
O7 Sr5 2.861279 1_554
O7 Sr3 3.174699 1_565
O8 Sr5 2.448604 1_545
O8 Sr3 2.975275 1_556
O9 Sr4 2.593356 1_545
O9 Sr0 2.825046 1_555
O9 Sr4 3.114827 1_655
O10 Sr6 2.479783 1_445
O10 Sr1 2.801098 1_555
O11 Sm0 2.255864 1_445
O11 Sr2 2.624663 1_455
O14 Sr2 2.665715 1_455
O16 Sr0 2.456345 1_665
O16 Sr4 2.718532 1_655
O17 Sr1 2.515493 1_665
O17 Sr6 2.768446 1_555
O18 Sr2 2.577330 1_565
O18 Sm0 2.723066 1_555
O18 Sr2 3.131795 1_455
O19 Sr3 2.309439 1_565
O19 Sr5 2.740220 1_554
O20 Sr0 2.207229 1_555
O20 Sr5 2.507002 1_555
O20 Sr3 2.992780 1_556
O20 Sr5 3.187730 1_545
O21 Sr1 2.127864 1_555
O21 Sr4 2.521991 1_555
O21 Sr0 2.704613 1_555
O21 Sr4 3.172211 1_545
O22 Sr2 2.320270 1_555
O22 Sr6 2.538681 1_555
O22 Sr1 2.745333 1_655
O22 Sr6 3.158823 1_545
O23 Sr3 2.040046 1_555
O23 Sm0 2.302730 1_555
O23 Sr2 2.633804 1_555
