# generated using pymatgen
data_GaTc
_symmetry_space_group_name_H-M   'P 1'
_cell_length_a   5.71817895
_cell_length_b   5.71730282
_cell_length_c   8.15258732
_cell_angle_alpha   90.00002549
_cell_angle_beta   90.00003458
_cell_angle_gamma   119.99901118
_symmetry_Int_Tables_number   1
_chemical_formula_structural   GaTc
_chemical_formula_sum   'Ga8 Tc8'
_cell_volume   230.82314601
_cell_formula_units_Z   8
loop_
 _symmetry_equiv_pos_site_id
 _symmetry_equiv_pos_as_xyz
  1  'x, y, z'
loop_
 _atom_site_type_symbol
 _atom_site_label
 _atom_site_symmetry_multiplicity
 _atom_site_fract_x
 _atom_site_fract_y
 _atom_site_fract_z
 _atom_site_occupancy
  Ga  Ga0_0  1  0.33335932  0.16669038  0.37499900  1
  Ga  Ga0_1  1  0.33335932  0.16669038  0.87499900  1
  Ga  Ga0_2  1  0.33335932  0.66669038  0.37499900  1
  Ga  Ga0_3  1  0.33335932  0.66669038  0.87499900  1
  Ga  Ga0_4  1  0.83335932  0.16669038  0.37499900  1
  Ga  Ga0_5  1  0.83335932  0.16669038  0.87499900  1
  Ga  Ga0_6  1  0.83335933  0.66669038  0.37499900  1
  Ga  Ga0_7  1  0.83335932  0.66669038  0.87499900  1
  Tc  Tc0_0  1  0.16663968  0.33330612  0.12500000  1
  Tc  Tc0_1  1  0.16663968  0.33330612  0.62500000  1
  Tc  Tc0_2  1  0.16663968  0.83330612  0.12500000  1
  Tc  Tc0_3  1  0.16663968  0.83330612  0.62500000  1
  Tc  Tc0_4  1  0.66663968  0.33330612  0.12500000  1
  Tc  Tc0_5  1  0.66663968  0.33330612  0.62500000  1
  Tc  Tc0_6  1  0.66663968  0.83330612  0.12500000  1
  Tc  Tc0_7  1  0.66663968  0.83330612  0.62500000  1
loop_
_geom_bond_atom_site_label_1
_geom_bond_atom_site_label_2
_geom_bond_distance
_geom_bond_site_symmetry_2
Ga0_0 Tc0_4 2.622594 1_555
Ga0_0 Tc0_5 2.622605 1_555
Ga0_0 Tc0_0 2.622670 1_555
Ga0_0 Tc0_1 2.622682 1_555
Ga0_0 Tc0_2 2.622757 1_545
Ga0_0 Tc0_3 2.622772 1_545
Ga0_0 Ga0_2 2.858651 1_555
Ga0_0 Ga0_2 2.858651 1_545
Ga0_0 Ga0_6 2.858913 1_445
Ga0_0 Ga0_6 2.858913 1_555
Ga0_0 Ga0_4 2.859089 1_555
Ga0_0 Ga0_4 2.859089 1_455
Ga0_1 Tc0_5 2.622594 1_555
Ga0_1 Tc0_4 2.622605 1_556
Ga0_1 Tc0_1 2.622670 1_555
Ga0_1 Tc0_0 2.622682 1_556
Ga0_1 Tc0_3 2.622757 1_545
Ga0_1 Tc0_2 2.622772 1_546
Ga0_1 Ga0_3 2.858651 1_555
Ga0_1 Ga0_3 2.858651 1_545
Ga0_1 Ga0_7 2.858913 1_555
Ga0_1 Ga0_7 2.858913 1_445
Ga0_1 Ga0_5 2.859089 1_555
Ga0_1 Ga0_5 2.859089 1_455
Ga0_2 Tc0_6 2.622594 1_555
Ga0_2 Tc0_7 2.622605 1_555
Ga0_2 Tc0_2 2.622670 1_555
Ga0_2 Tc0_3 2.622682 1_555
Ga0_2 Tc0_0 2.622757 1_555
Ga0_2 Tc0_1 2.622772 1_555
Ga0_2 Ga0_4 2.858913 1_565
Ga0_2 Ga0_4 2.858913 1_455
Ga0_2 Ga0_6 2.859089 1_455
Ga0_2 Ga0_6 2.859089 1_555
Ga0_3 Tc0_7 2.622594 1_555
Ga0_3 Tc0_6 2.622605 1_556
Ga0_3 Tc0_3 2.622670 1_555
Ga0_3 Tc0_2 2.622682 1_556
Ga0_3 Tc0_1 2.622757 1_555
Ga0_3 Tc0_0 2.622772 1_556
Ga0_3 Ga0_5 2.858913 1_565
Ga0_3 Ga0_5 2.858913 1_455
Ga0_3 Ga0_7 2.859089 1_455
Ga0_3 Ga0_7 2.859089 1_555
Ga0_4 Tc0_0 2.622594 1_655
Ga0_4 Tc0_1 2.622605 1_655
Ga0_4 Tc0_4 2.622670 1_555
Ga0_4 Tc0_5 2.622682 1_555
Ga0_4 Tc0_6 2.622757 1_545
Ga0_4 Tc0_7 2.622772 1_545
Ga0_4 Ga0_6 2.858651 1_555
Ga0_4 Ga0_6 2.858651 1_545
Ga0_5 Tc0_1 2.622594 1_655
Ga0_5 Tc0_0 2.622605 1_656
Ga0_5 Tc0_5 2.622670 1_555
Ga0_5 Tc0_4 2.622682 1_556
Ga0_5 Tc0_7 2.622757 1_545
Ga0_5 Tc0_6 2.622772 1_546
Ga0_5 Ga0_7 2.858651 1_545
Ga0_5 Ga0_7 2.858651 1_555
Ga0_6 Tc0_2 2.622594 1_655
Ga0_6 Tc0_3 2.622605 1_655
Ga0_6 Tc0_6 2.622670 1_555
Ga0_6 Tc0_7 2.622682 1_555
Ga0_6 Tc0_4 2.622757 1_555
Ga0_6 Tc0_5 2.622772 1_555
Ga0_7 Tc0_3 2.622594 1_655
Ga0_7 Tc0_2 2.622605 1_656
Ga0_7 Tc0_7 2.622670 1_555
Ga0_7 Tc0_6 2.622682 1_556
Ga0_7 Tc0_5 2.622757 1_555
Ga0_7 Tc0_4 2.622772 1_556
Tc0_0 Tc0_2 2.858651 1_545
Tc0_0 Tc0_2 2.858651 1_555
Tc0_0 Tc0_6 2.858913 1_445
Tc0_0 Tc0_6 2.858913 1_555
Tc0_0 Tc0_4 2.859089 1_455
Tc0_0 Tc0_4 2.859089 1_555
Tc0_1 Tc0_3 2.858651 1_545
Tc0_1 Tc0_3 2.858651 1_555
Tc0_1 Tc0_7 2.858913 1_445
Tc0_1 Tc0_7 2.858913 1_555
Tc0_1 Tc0_5 2.859089 1_455
Tc0_1 Tc0_5 2.859089 1_555
Tc0_2 Tc0_4 2.858913 1_565
Tc0_2 Tc0_4 2.858913 1_455
Tc0_2 Tc0_6 2.859089 1_455
Tc0_2 Tc0_6 2.859089 1_555
Tc0_3 Tc0_5 2.858913 1_565
Tc0_3 Tc0_5 2.858913 1_455
Tc0_3 Tc0_7 2.859089 1_555
Tc0_3 Tc0_7 2.859089 1_455
Tc0_4 Tc0_6 2.858651 1_545
Tc0_4 Tc0_6 2.858651 1_555
Tc0_5 Tc0_7 2.858651 1_545
Tc0_5 Tc0_7 2.858651 1_555
