# generated using pymatgen
data_TaZnRu2
_symmetry_space_group_name_H-M   'P 1'
_cell_length_a   4.34688934
_cell_length_b   4.34688934
_cell_length_c   4.34688934
_cell_angle_alpha   60.08979943
_cell_angle_beta   60.08979943
_cell_angle_gamma   60.08979943
_symmetry_Int_Tables_number   1
_chemical_formula_structural   TaZnRu2
_chemical_formula_sum   'Ta1 Zn1 Ru2'
_cell_volume   58.19739801
_cell_formula_units_Z   1
loop_
 _symmetry_equiv_pos_site_id
 _symmetry_equiv_pos_as_xyz
  1  'x, y, z'
loop_
 _atom_site_type_symbol
 _atom_site_label
 _atom_site_symmetry_multiplicity
 _atom_site_fract_x
 _atom_site_fract_y
 _atom_site_fract_z
 _atom_site_occupancy
  Ta  Ta0  1  0.24999513  0.24999513  0.24999513  1
  Zn  Zn0  1  0.74999880  0.74999880  0.74999880  1
  Ru  Ru0  1  0.99973636  0.99973636  0.99973636  1
  Ru  Ru1  1  0.50027371  0.50027371  0.50027371  1
loop_
_geom_bond_atom_site_label_1
_geom_bond_atom_site_label_2
_geom_bond_distance
_geom_bond_site_symmetry_2
Ru0 Zn0 2.657315 1_555
Ru0 Ta0 2.662861 1_666
Ru0 Ta0 2.664011 1_656
Ru0 Ta0 2.664011 1_566
Ru0 Ta0 2.664011 1_665
Ru0 Zn0 2.665856 1_565
Ru0 Zn0 2.665856 1_556
Ru0 Zn0 2.665856 1_655
Ru1 Zn0 2.657182 1_555
Ru1 Ta0 2.663071 1_555
Ru1 Ta0 2.663941 1_655
Ru1 Ta0 2.663941 1_565
Ru1 Ta0 2.663941 1_556
Ru1 Zn0 2.665900 1_554
Ru1 Zn0 2.665900 1_455
Ru1 Zn0 2.665900 1_545
