# generated using pymatgen
data_Li8CoNi9O20
_symmetry_space_group_name_H-M   'P 1'
_cell_length_a   2.84018000
_cell_length_b   11.65338726
_cell_length_c   21.14847901
_cell_angle_alpha   83.05194094
_cell_angle_beta   90.00000000
_cell_angle_gamma   90.00000000
_symmetry_Int_Tables_number   1
_chemical_formula_structural   Li8CoNi9O20
_chemical_formula_sum   'Li16 Co2 Ni18 O40'
_cell_volume   694.82598536
_cell_formula_units_Z   2
loop_
 _symmetry_equiv_pos_site_id
 _symmetry_equiv_pos_as_xyz
  1  'x, y, z'
loop_
 _atom_site_type_symbol
 _atom_site_label
 _atom_site_symmetry_multiplicity
 _atom_site_fract_x
 _atom_site_fract_y
 _atom_site_fract_z
 _atom_site_occupancy
  Li  Li0  1  0.00000000  0.46099900  0.20822000  1
  Li  Li1  1  0.00000000  0.06318400  0.80897400  1
  Li  Li2  1  0.00000000  0.56000400  0.80918500  1
  Li  Li3  1  0.00000000  0.34771900  0.59941800  1
  Li  Li4  1  0.00000000  0.85217600  0.59971500  1
  Li  Li5  1  0.00000000  0.64279900  0.39336200  1
  Li  Li6  1  0.00000000  0.94854400  0.20042600  1
  Li  Li7  1  0.00000000  0.24064700  0.99020100  1
  Li  Li8  1  0.00000000  0.73978500  0.99434900  1
  Li  Li9  1  0.50000000  0.95090200  0.69856700  1
  Li  Li10  1  0.50000000  0.45159600  0.70283700  1
  Li  Li11  1  0.50000000  0.75128100  0.50006900  1
  Li  Li12  1  0.50000000  0.05847300  0.30806800  1
  Li  Li13  1  0.50000000  0.85033600  0.09968500  1
  Li  Li14  1  0.50000000  0.34922100  0.10098600  1
  Li  Li15  1  0.50000000  0.23982600  0.49060300  1
  Co  Co0  1  0.00000000  0.09780100  0.60108200  1
  Co  Co1  1  0.50000000  0.59964500  0.09943200  1
  Ni  Ni0  1  0.00000000  0.79678200  0.80388500  1
  Ni  Ni1  1  0.00000000  0.50033300  0.99778100  1
  Ni  Ni2  1  0.00000000  0.29900500  0.80100800  1
  Ni  Ni3  1  0.00000000  0.60270500  0.59820300  1
  Ni  Ni4  1  0.00000000  0.89746900  0.39953500  1
  Ni  Ni5  1  0.00000000  0.20073400  0.20021200  1
  Ni  Ni6  1  0.00000000  0.00348600  0.99808400  1
  Ni  Ni7  1  0.00000000  0.40294500  0.39906900  1
  Ni  Ni8  1  0.00000000  0.69882800  0.20122000  1
  Ni  Ni9  1  0.50000000  0.99893400  0.49983200  1
  Ni  Ni10  1  0.50000000  0.29679100  0.30134200  1
  Ni  Ni11  1  0.50000000  0.39740800  0.90034300  1
  Ni  Ni12  1  0.50000000  0.70173000  0.69981400  1
  Ni  Ni13  1  0.50000000  0.50007900  0.49958400  1
  Ni  Ni14  1  0.50000000  0.80300100  0.29924900  1
  Ni  Ni15  1  0.50000000  0.09526900  0.10193300  1
  Ni  Ni16  1  0.50000000  0.90018800  0.90058900  1
  Ni  Ni17  1  0.50000000  0.20289400  0.69698700  1
  O  O0  1  0.00000000  0.61477700  0.49786500  1
  O  O1  1  0.00000000  0.38641800  0.50120000  1
  O  O2  1  0.00000000  0.88201800  0.49856900  1
  O  O3  1  0.00000000  0.91200300  0.29965900  1
  O  O4  1  0.00000000  0.97662700  0.10085800  1
  O  O5  1  0.00000000  0.50425000  0.90119400  1
  O  O6  1  0.00000000  0.00639100  0.89970100  1
  O  O7  1  0.00000000  0.79383800  0.90200900  1
  O  O8  1  0.00000000  0.08494400  0.69309300  1
  O  O9  1  0.00000000  0.11207800  0.51111600  1
  O  O10  1  0.00000000  0.40534000  0.30127100  1
  O  O11  1  0.00000000  0.18751300  0.29145000  1
  O  O12  1  0.00000000  0.69689400  0.29943000  1
  O  O13  1  0.00000000  0.48871500  0.09909300  1
  O  O14  1  0.00000000  0.71166100  0.09928300  1
  O  O15  1  0.00000000  0.29193700  0.89876200  1
  O  O16  1  0.00000000  0.32154200  0.69788200  1
  O  O17  1  0.00000000  0.81507200  0.70051800  1
  O  O18  1  0.00000000  0.58849000  0.69841500  1
  O  O19  1  0.00000000  0.21394200  0.10894300  1
  O  O20  1  0.50000000  0.38107600  0.99133500  1
  O  O21  1  0.50000000  0.41506100  0.80961000  1
  O  O22  1  0.50000000  0.49036000  0.59209000  1
  O  O23  1  0.50000000  0.11141100  0.00555400  1
  O  O24  1  0.50000000  0.89116900  0.99117300  1
  O  O25  1  0.50000000  0.90947900  0.80987400  1
  O  O26  1  0.50000000  0.68913400  0.79642600  1
  O  O27  1  0.50000000  0.18619400  0.78781500  1
  O  O28  1  0.50000000  0.98714400  0.60043300  1
  O  O29  1  0.50000000  0.21058700  0.60476900  1
  O  O30  1  0.50000000  0.00488300  0.40155400  1
  O  O31  1  0.50000000  0.51217400  0.40882800  1
  O  O32  1  0.50000000  0.29507000  0.39829100  1
  O  O33  1  0.50000000  0.58430100  0.18805000  1
  O  O34  1  0.50000000  0.61474100  0.01100700  1
  O  O35  1  0.50000000  0.71421300  0.59936200  1
  O  O36  1  0.50000000  0.78630200  0.39110700  1
  O  O37  1  0.50000000  0.81859800  0.20917100  1
  O  O38  1  0.50000000  0.30952600  0.19937700  1
  O  O39  1  0.50000000  0.09041400  0.20215600  1
loop_
_geom_bond_atom_site_label_1
_geom_bond_atom_site_label_2
_geom_bond_distance
_geom_bond_site_symmetry_2
Li0 O10 1.996114 1_555
Li0 O33 2.028537 1_555
Li0 O33 2.028537 1_455
Li0 O38 2.290706 1_555
Li0 O38 2.290706 1_455
Li0 O13 2.291340 1_555
Li1 O6 1.952522 1_555
Li1 O27 2.028935 1_555
Li1 O27 2.028935 1_455
Li1 O25 2.284099 1_545
Li1 O25 2.284099 1_445
Li1 O8 2.433087 1_555
Li2 O5 1.975500 1_555
Li2 O26 2.062924 1_455
Li2 O26 2.062924 1_555
Li2 O21 2.205911 1_555
Li2 O21 2.205911 1_455
Li2 O18 2.325921 1_555
Li3 O16 2.067755 1_555
Li3 O1 2.071555 1_555
Li3 O29 2.130606 1_555
Li3 O29 2.130606 1_455
Li3 O22 2.177481 1_455
Li3 O22 2.177481 1_555
Li4 O28 2.120489 1_455
Li4 O28 2.120489 1_555
Li4 O17 2.123357 1_555
Li4 O2 2.125239 1_555
Li4 O35 2.145794 1_455
Li4 O35 2.145794 1_555
Li5 O12 2.010143 1_555
Li5 O31 2.078544 1_555
Li5 O31 2.078544 1_455
Li5 O36 2.190025 1_455
Li5 O36 2.190025 1_555
Li5 O0 2.194648 1_555
Li6 O37 2.067907 1_455
Li6 O37 2.067907 1_555
Li6 O3 2.090300 1_555
Li6 O4 2.091506 1_555
Li6 O39 2.183098 1_465
Li6 O39 2.183098 1_565
Li7 O15 1.953759 1_555
Li7 O23 2.066863 1_556
Li7 O23 2.066863 1_456
Li7 O20 2.169049 1_455
Li7 O20 2.169049 1_555
Li7 O19 2.492782 1_556
Li8 O7 1.978077 1_555
Li8 O34 2.034688 1_456
Li8 O34 2.034688 1_556
Li8 O14 2.203695 1_556
Li8 O24 2.259353 1_455
Li8 O24 2.259353 1_555
Li9 O28 2.067252 1_555
Li9 O8 2.103874 1_565
Li9 O8 2.103874 1_665
Li9 O17 2.123220 1_655
Li9 O17 2.123220 1_555
Li9 O25 2.345057 1_555
Li10 O16 2.088782 1_655
Li10 O16 2.088782 1_555
Li10 O18 2.129371 1_555
Li10 O18 2.129371 1_655
Li10 O21 2.246692 1_555
Li10 O22 2.331022 1_555
Li11 O2 2.080170 1_555
Li11 O2 2.080170 1_655
Li11 O35 2.092056 1_555
Li11 O0 2.137101 1_655
Li11 O0 2.137101 1_555
Li11 O36 2.291112 1_555
Li12 O30 2.000039 1_555
Li12 O11 2.067264 1_555
Li12 O11 2.067264 1_655
Li12 O39 2.225733 1_555
Li12 O3 2.243910 1_545
Li12 O3 2.243910 1_645
Li13 O4 2.047452 1_655
Li13 O4 2.047452 1_555
Li13 O14 2.152119 1_555
Li13 O14 2.152119 1_655
Li13 O24 2.286620 1_554
Li13 O37 2.300210 1_555
Li14 O38 2.076274 1_555
Li14 O19 2.113294 1_555
Li14 O19 2.113294 1_655
Li14 O13 2.155230 1_655
Li14 O13 2.155230 1_555
Li14 O20 2.303708 1_554
Li15 O32 1.980326 1_555
Li15 O9 2.065145 1_555
Li15 O9 2.065145 1_655
Li15 O1 2.253391 1_555
Li15 O1 2.253391 1_655
Li15 O29 2.397200 1_555
Co0 O9 1.889748 1_555
Co0 O28 1.919378 1_545
Co0 O28 1.919378 1_445
Co0 O8 1.933497 1_555
Co0 O29 1.942940 1_455
Co0 O29 1.942940 1_555
Co1 O34 1.857002 1_555
Co1 O33 1.860989 1_555
Co1 O13 1.920950 1_655
Co1 O13 1.920950 1_555
Co1 O14 1.928639 1_555
Co1 O14 1.928639 1_655
Ni0 O26 1.913922 1_555
Ni0 O26 1.913922 1_455
Ni0 O25 1.948770 1_555
Ni0 O25 1.948770 1_455
Ni0 O7 2.071303 1_555
Ni0 O17 2.170607 1_555
Ni1 O34 1.990640 1_456
Ni1 O34 1.990640 1_556
Ni1 O20 2.003116 1_455
Ni1 O20 2.003116 1_555
Ni1 O5 2.037650 1_555
Ni1 O13 2.130460 1_556
Ni2 O27 1.977751 1_555
Ni2 O27 1.977751 1_455
Ni2 O21 1.984536 1_455
Ni2 O21 1.984536 1_555
Ni2 O15 2.059009 1_555
Ni2 O16 2.164942 1_555
Ni3 O35 1.927050 1_455
Ni3 O35 1.927050 1_555
Ni3 O22 1.946361 1_455
Ni3 O22 1.946361 1_555
Ni3 O18 2.105723 1_555
Ni3 O0 2.109605 1_555
Ni4 O30 1.896907 1_565
Ni4 O30 1.896907 1_465
Ni4 O36 1.944875 1_455
Ni4 O36 1.944875 1_555
Ni4 O2 2.080329 1_555
Ni4 O3 2.098483 1_555
Ni5 O38 1.902329 1_455
Ni5 O38 1.902329 1_555
Ni5 O39 1.912676 1_455
Ni5 O39 1.912676 1_555
Ni5 O11 1.917018 1_555
Ni5 O19 1.917677 1_555
Ni6 O23 1.916109 1_456
Ni6 O23 1.916109 1_556
Ni6 O24 1.948705 1_445
Ni6 O24 1.948705 1_545
Ni6 O6 2.076828 1_555
Ni6 O4 2.158133 1_546
Ni7 O32 1.897960 1_455
Ni7 O32 1.897960 1_555
Ni7 O31 1.934698 1_455
Ni7 O31 1.934698 1_555
Ni7 O10 2.065089 1_555
Ni7 O1 2.145153 1_555
Ni8 O33 1.991331 1_455
Ni8 O33 1.991331 1_555
Ni8 O37 2.012402 1_455
Ni8 O37 2.012402 1_555
Ni8 O12 2.074386 1_555
Ni8 O14 2.142870 1_555
Ni9 O2 1.970404 1_655
Ni9 O2 1.970404 1_555
Ni9 O9 1.971852 1_665
Ni9 O9 1.971852 1_565
Ni9 O30 2.071187 1_565
Ni9 O28 2.115339 1_555
Ni10 O10 1.901665 1_655
Ni10 O10 1.901665 1_555
Ni10 O11 1.935607 1_555
Ni10 O11 1.935607 1_655
Ni10 O32 2.047995 1_555
Ni10 O38 2.143520 1_555
Ni11 O15 1.881061 1_555
Ni11 O15 1.881061 1_655
Ni11 O5 1.890133 1_555
Ni11 O5 1.890133 1_655
Ni11 O21 1.904956 1_555
Ni11 O20 1.910682 1_555
Ni12 O17 1.940669 1_555
Ni12 O17 1.940669 1_655
Ni12 O18 1.941237 1_655
Ni12 O18 1.941237 1_555
Ni12 O26 2.030674 1_555
Ni12 O35 2.111753 1_555
Ni13 O31 1.907439 1_555
Ni13 O1 1.939398 1_655
Ni13 O1 1.939398 1_555
Ni13 O22 1.945911 1_555
Ni13 O0 1.947505 1_655
Ni13 O0 1.947505 1_555
Ni14 O12 1.882677 1_555
Ni14 O12 1.882677 1_655
Ni14 O37 1.891649 1_555
Ni14 O3 1.906020 1_655
Ni14 O3 1.906020 1_555
Ni14 O36 1.928814 1_555
Ni15 O4 1.984013 1_645
Ni15 O4 1.984013 1_545
Ni15 O19 2.000192 1_655
Ni15 O19 2.000192 1_555
Ni15 O23 2.024145 1_555
Ni15 O39 2.113466 1_555
Ni16 O6 1.882312 1_565
Ni16 O6 1.882312 1_665
Ni16 O7 1.882687 1_555
Ni16 O7 1.882687 1_655
Ni16 O24 1.905857 1_555
Ni16 O25 1.908415 1_555
Ni17 O27 1.907141 1_555
Ni17 O29 1.941466 1_555
Ni17 O16 1.983701 1_655
Ni17 O16 1.983701 1_555
Ni17 O8 1.984974 1_555
Ni17 O8 1.984974 1_655
