# generated using pymatgen
data_La2Si5Rh3
_symmetry_space_group_name_H-M   'P 1'
_cell_length_a   8.31257653
_cell_length_b   8.31415564
_cell_length_c   8.31170900
_cell_angle_alpha   138.64283676
_cell_angle_beta   105.83981740
_cell_angle_gamma   88.66759603
_symmetry_Int_Tables_number   1
_chemical_formula_structural   La2Si5Rh3
_chemical_formula_sum   'La4 Si10 Rh6'
_cell_volume   349.92634393
_cell_formula_units_Z   2
loop_
 _symmetry_equiv_pos_site_id
 _symmetry_equiv_pos_as_xyz
  1  'x, y, z'
loop_
 _atom_site_type_symbol
 _atom_site_label
 _atom_site_symmetry_multiplicity
 _atom_site_fract_x
 _atom_site_fract_y
 _atom_site_fract_z
 _atom_site_occupancy
  La  La0  1  0.63702400  0.86964108  0.76734382  1
  La  La1  1  0.36316446  0.13039794  0.23273726  1
  La  La2  1  0.89783928  0.63037611  0.26748373  1
  La  La3  1  0.10208466  0.36961142  0.73234529  1
  Si  Si0  1  -0.00004014  0.24991456  0.24997876  1
  Si  Si1  1  0.00001686  0.75006718  0.75005499  1
  Si  Si2  1  0.27449613  0.52474015  0.25018677  1
  Si  Si3  1  0.72566383  0.97587515  0.25020911  1
  Si  Si4  1  0.72549143  0.47526807  0.74982889  1
  Si  Si5  1  0.27432922  0.02412668  0.74979756  1
  Si  Si6  1  0.45821243  0.60778195  0.85076852  1
  Si  Si7  1  0.75720726  0.10760066  0.64954739  1
  Si  Si8  1  0.24277158  0.89239675  0.35045770  1
  Si  Si9  1  0.54176112  0.39222122  0.14923764  1
  Rh  Rh0  1  0.02861694  0.13881095  0.89020241  1
  Rh  Rh1  1  0.49996691  0.75004825  0.25012947  1
  Rh  Rh2  1  0.24873995  0.63829868  0.60987749  1
  Rh  Rh3  1  0.75124208  0.36169550  0.39012618  1
  Rh  Rh4  1  0.97139959  0.86118034  0.10982954  1
  Rh  Rh5  1  0.50001143  0.24994937  0.74985748  1
loop_
_geom_bond_atom_site_label_1
_geom_bond_atom_site_label_2
_geom_bond_distance
_geom_bond_site_symmetry_2
La0 Si7 3.066709 1_565
La0 Si0 3.160252 1_666
La0 Si1 3.161719 1_655
La0 Rh2 3.167599 1_555
La0 Si9 3.176243 1_566
La0 Si9 3.176258 1_555
La0 Rh3 3.182418 1_555
La0 Rh3 3.184320 1_566
La0 Si6 3.226372 1_555
La0 Si3 3.244236 1_556
La0 Si4 3.246962 1_555
La0 Si2 3.256926 1_555
La0 Si5 3.259122 1_565
La0 Rh1 3.424850 1_555
La0 Rh0 3.426447 1_665
La0 Rh5 3.427567 1_565
La0 Rh4 3.436025 1_556
La1 Si8 3.067200 1_545
La1 Si1 3.161498 1_544
La1 Si0 3.163257 1_555
La1 Rh3 3.166106 1_555
La1 Si6 3.175575 1_544
La1 Si6 3.176156 1_555
La1 Rh2 3.183077 1_555
La1 Rh2 3.184521 1_544
La1 Si9 3.225692 1_555
La1 Si5 3.244466 1_554
La1 Si2 3.247428 1_555
La1 Si4 3.255750 1_555
La1 Si3 3.257725 1_545
La1 Rh5 3.424337 1_555
La1 Rh1 3.426867 1_545
La1 Rh4 3.427705 1_445
La1 Rh0 3.436865 1_554
La2 Si9 3.067702 1_555
La2 Si1 3.160267 1_655
La2 Si0 3.162175 1_655
La2 Rh4 3.168620 1_555
La2 Si7 3.175478 1_554
La2 Si7 3.176410 1_565
La2 Rh0 3.183273 1_654
La2 Rh0 3.183876 1_665
La2 Si8 3.224634 1_655
La2 Si5 3.241671 1_665
La2 Si2 3.243981 1_655
La2 Si4 3.258712 1_554
La2 Si3 3.261326 1_555
La2 Rh3 3.425980 1_555
La2 Rh5 3.426580 1_554
La2 Rh1 3.428016 1_555
La2 Rh2 3.436214 1_655
La3 Si6 3.067497 1_555
La3 Si0 3.158635 1_555
La3 Si1 3.160941 1_555
La3 Rh0 3.169898 1_555
La3 Si8 3.176189 1_556
La3 Si8 3.176412 1_545
La3 Rh4 3.183024 1_445
La3 Rh4 3.183037 1_456
La3 Si7 3.224988 1_455
La3 Si3 3.240967 1_445
La3 Si4 3.243667 1_455
La3 Si2 3.260060 1_556
La3 Si5 3.262316 1_555
La3 Rh2 3.424964 1_555
La3 Rh1 3.427264 1_556
La3 Rh5 3.428414 1_555
La3 Rh3 3.435100 1_455
Si2 Si8 2.523081 1_555
Si2 Si9 2.523824 1_555
Si3 Si6 2.522924 1_554
Si3 Si7 2.523159 1_565
Si4 Si7 2.523107 1_555
Si4 Si6 2.523909 1_555
Si5 Si9 2.522837 1_556
Si5 Si8 2.523122 1_545
Rh0 Si7 2.437808 1_455
Rh0 Si2 2.445332 1_556
Rh0 Si5 2.446029 1_555
Rh0 Si0 2.466600 1_556
Rh0 Si1 2.468268 1_545
Rh1 Si6 2.456385 1_554
Rh1 Si7 2.456797 1_565
Rh1 Si9 2.457735 1_555
Rh1 Si8 2.457829 1_555
Rh1 Si2 2.680848 1_555
Rh1 Si3 2.684463 1_555
Rh2 Si6 2.438050 1_555
Rh2 Si2 2.444963 1_555
Rh2 Si5 2.446259 1_565
Rh2 Si0 2.466716 1_555
Rh2 Si1 2.469010 1_555
Rh3 Si9 2.438123 1_555
Rh3 Si4 2.444977 1_555
Rh3 Si3 2.446213 1_545
Rh3 Si1 2.466650 1_655
Rh3 Si0 2.468864 1_655
Rh4 Si8 2.437454 1_655
Rh4 Si4 2.445403 1_554
Rh4 Si3 2.446130 1_555
Rh4 Si1 2.466404 1_654
Rh4 Si0 2.468185 1_665
Rh5 Si9 2.456521 1_556
Rh5 Si8 2.456764 1_545
Rh5 Si6 2.457702 1_555
Rh5 Si7 2.457801 1_555
Rh5 Si4 2.680795 1_555
Rh5 Si5 2.684468 1_555
