# generated using pymatgen
data_InGaO3
_symmetry_space_group_name_H-M   'P 1'
_cell_length_a   3.32960934
_cell_length_b   3.32960884
_cell_length_c   12.06608203
_cell_angle_alpha   90.00000000
_cell_angle_beta   90.00000000
_cell_angle_gamma   119.99999507
_symmetry_Int_Tables_number   1
_chemical_formula_structural   InGaO3
_chemical_formula_sum   'In2 Ga2 O6'
_cell_volume   115.84663499
_cell_formula_units_Z   2
loop_
 _symmetry_equiv_pos_site_id
 _symmetry_equiv_pos_as_xyz
  1  'x, y, z'
loop_
 _atom_site_type_symbol
 _atom_site_label
 _atom_site_symmetry_multiplicity
 _atom_site_fract_x
 _atom_site_fract_y
 _atom_site_fract_z
 _atom_site_occupancy
  In  In0  1  -0.00000000  0.00000000  0.50000000  1
  In  In1  1  -0.00000000  0.00000000  0.00000000  1
  Ga  Ga0  1  0.66666700  0.33333300  0.75000000  1
  Ga  Ga1  1  0.33333300  0.66666700  0.25000000  1
  O  O0  1  0.33333300  0.66666700  0.41255627  1
  O  O1  1  0.66666700  0.33333300  0.91255627  1
  O  O2  1  0.66666700  0.33333300  0.58744373  1
  O  O3  1  0.33333300  0.66666700  0.08744373  1
  O  O4  1  -0.00000000  -0.00000000  0.25000000  1
  O  O5  1  -0.00000000  0.00000000  0.75000000  1
loop_
_geom_bond_atom_site_label_1
_geom_bond_atom_site_label_2
_geom_bond_distance
_geom_bond_site_symmetry_2
In0 O0 2.192867 1_545
In0 O2 2.192867 1_455
In0 O0 2.192870 1_555
In0 O2 2.192870 1_445
In0 O0 2.192870 1_445
In0 O2 2.192870 1_555
In1 O3 2.192867 1_545
In1 O1 2.192867 1_454
In1 O3 2.192870 1_555
In1 O1 2.192870 1_444
In1 O3 2.192870 1_445
In1 O1 2.192870 1_554
Ga0 O5 1.922349 1_655
Ga0 O5 1.922352 1_665
Ga0 O5 1.922352 1_555
Ga0 O1 1.961417 1_555
Ga0 O2 1.961417 1_555
Ga1 O4 1.922349 1_565
Ga1 O4 1.922352 1_555
Ga1 O4 1.922352 1_665
Ga1 O3 1.961417 1_555
Ga1 O0 1.961417 1_555
