# generated using pymatgen
data_Ba2LiFe2N3
_symmetry_space_group_name_H-M   'P 1'
_cell_length_a   6.80630471
_cell_length_b   6.80630471
_cell_length_c   6.79779545
_cell_angle_alpha   89.15592796
_cell_angle_beta   89.15592796
_cell_angle_gamma   119.47094212
_symmetry_Int_Tables_number   1
_chemical_formula_structural   Ba2LiFe2N3
_chemical_formula_sum   'Ba4 Li2 Fe4 N6'
_cell_volume   274.04796830
_cell_formula_units_Z   2
loop_
 _symmetry_equiv_pos_site_id
 _symmetry_equiv_pos_as_xyz
  1  'x, y, z'
loop_
 _atom_site_type_symbol
 _atom_site_label
 _atom_site_symmetry_multiplicity
 _atom_site_fract_x
 _atom_site_fract_y
 _atom_site_fract_z
 _atom_site_occupancy
  Ba  Ba0  1  0.82612200  0.68071800  0.89935400  1
  Ba  Ba1  1  0.31928200  0.17387800  0.60064600  1
  Ba  Ba2  1  0.17387800  0.31928200  0.10064600  1
  Ba  Ba3  1  0.68071800  0.82612200  0.39935400  1
  Li  Li0  1  0.80700200  0.19299800  0.75000000  1
  Li  Li1  1  0.19299800  0.80700200  0.25000000  1
  Fe  Fe0  1  0.56791500  0.16080400  0.10125200  1
  Fe  Fe1  1  0.43208500  0.83919600  0.89874800  1
  Fe  Fe2  1  0.83919600  0.43208500  0.39874800  1
  Fe  Fe3  1  0.16080400  0.56791500  0.60125200  1
  N  N0  1  0.39670700  0.60329300  0.75000000  1
  N  N1  1  0.60329300  0.39670700  0.25000000  1
  N  N2  1  0.00714700  0.71202700  0.50449900  1
  N  N3  1  0.71202700  0.00714700  0.00449900  1
  N  N4  1  0.99285300  0.28797300  0.49550100  1
  N  N5  1  0.28797300  0.99285300  0.99550100  1
loop_
_geom_bond_atom_site_label_1
_geom_bond_atom_site_label_2
_geom_bond_distance
_geom_bond_site_symmetry_2
Ba0 N3 2.788966 1_566
Ba0 N5 2.890055 1_655
Ba0 N2 2.897498 1_655
Ba0 N0 2.904912 1_555
Ba0 N1 2.931138 1_556
Ba1 N4 2.788966 1_455
Ba1 N2 2.890055 1_545
Ba1 N5 2.897498 1_545
Ba1 N0 2.904912 1_555
Ba1 N1 2.931138 1_555
Ba2 N5 2.788966 1_544
Ba2 N3 2.890055 1_455
Ba2 N4 2.897498 1_455
Ba2 N1 2.904912 1_555
Ba2 N0 2.931138 1_554
Ba3 N2 2.788966 1_655
Ba3 N4 2.890055 1_565
Ba3 N3 2.897498 1_565
Ba3 N1 2.904912 1_555
Ba3 N0 2.931138 1_555
Li0 N4 2.027063 1_555
Li0 N3 2.027063 1_556
Li1 N2 2.027063 1_555
Li1 N5 2.027063 1_554
Fe0 N1 1.825663 1_555
Fe0 N5 1.837218 1_544
Fe0 N3 1.870587 1_555
Fe1 N0 1.825663 1_555
Fe1 N3 1.837218 1_566
Fe1 N5 1.870587 1_555
Fe2 N1 1.825663 1_555
Fe2 N2 1.837218 1_655
Fe2 N4 1.870587 1_555
Fe3 N0 1.825663 1_555
Fe3 N4 1.837218 1_455
Fe3 N2 1.870587 1_555
