# generated using pymatgen
data_Li11Mn12(BO3)12
_symmetry_space_group_name_H-M   'P 1'
_cell_length_a   10.43594800
_cell_length_b   8.88994568
_cell_length_c   8.85187046
_cell_angle_alpha   107.88069534
_cell_angle_beta   98.41556563
_cell_angle_gamma   98.72590840
_symmetry_Int_Tables_number   1
_chemical_formula_structural   Li11Mn12(BO3)12
_chemical_formula_sum   'Li11 Mn12 B12 O36'
_cell_volume   756.09627869
_cell_formula_units_Z   1
loop_
 _symmetry_equiv_pos_site_id
 _symmetry_equiv_pos_as_xyz
  1  'x, y, z'
loop_
 _atom_site_type_symbol
 _atom_site_label
 _atom_site_symmetry_multiplicity
 _atom_site_fract_x
 _atom_site_fract_y
 _atom_site_fract_z
 _atom_site_occupancy
  Li  Li0  1  0.27882000  0.97834500  0.26092100  1
  Li  Li1  1  0.02895400  0.72917800  0.01167000  1
  Li  Li2  1  0.93714400  0.95424000  0.65468200  1
  Li  Li3  1  0.43667500  0.45452300  0.15428500  1
  Li  Li4  1  0.65910300  0.93882100  0.95903600  1
  Li  Li5  1  0.40876800  0.69091600  0.70890200  1
  Li  Li6  1  0.15969700  0.44350200  0.45885700  1
  Li  Li7  1  0.52963600  0.22928200  0.51218100  1
  Li  Li8  1  0.77868500  0.48072100  0.76239600  1
  Li  Li9  1  0.18690300  0.20381600  0.90414500  1
  Li  Li10  1  0.90860300  0.19153100  0.20872100  1
  Mn  Mn0  1  0.06311900  0.43325900  0.07144000  1
  Mn  Mn1  1  0.56614200  0.92933000  0.56998500  1
  Mn  Mn2  1  0.31912000  0.68250900  0.32155200  1
  Mn  Mn3  1  0.01512000  0.66481700  0.64725500  1
  Mn  Mn4  1  0.27170100  0.91294600  0.89892200  1
  Mn  Mn5  1  0.91349800  0.90158100  0.28017000  1
  Mn  Mn6  1  0.66501300  0.65139900  0.03577400  1
  Mn  Mn7  1  0.52308400  0.16442200  0.15091400  1
  Mn  Mn8  1  0.76882800  0.41940500  0.40224200  1
  Mn  Mn9  1  0.16559500  0.15499300  0.52532000  1
  Mn  Mn10  1  0.41508500  0.40344000  0.77684900  1
  Mn  Mn11  1  0.81108400  0.18168500  0.82180100  1
  B  B0  1  0.20910200  0.87469200  0.54052600  1
  B  B1  1  0.54084400  0.87646200  0.20290600  1
  B  B2  1  0.70880800  0.37563800  0.04254400  1
  B  B3  1  0.96306300  0.62353700  0.29171400  1
  B  B4  1  0.00092700  0.00007900  0.00149700  1
  B  B5  1  0.49431600  0.49584600  0.49930100  1
  B  B6  1  0.75192500  0.75186200  0.75860300  1
  B  B7  1  0.24988800  0.24967000  0.24903300  1
  B  B8  1  0.04081800  0.37531700  0.70847100  1
  B  B9  1  0.29092600  0.62656600  0.95676500  1
  B  B10  1  0.45872500  0.12426600  0.79115600  1
  B  B11  1  0.79057100  0.12648000  0.45722100  1
  O  O0  1  0.11737000  0.92223600  0.03670700  1
  O  O1  1  0.16932300  0.95007100  0.42179700  1
  O  O2  1  0.50283600  0.95505600  0.08893900  1
  O  O3  1  0.45377700  0.86778600  0.30794200  1
  O  O4  1  0.20091200  0.62040700  0.05868700  1
  O  O5  1  0.12159600  0.86912000  0.64646800  1
  O  O6  1  0.09094500  0.55729700  0.30012800  1
  O  O7  1  0.33456600  0.80673800  0.55200000  1
  O  O8  1  0.66568000  0.81032700  0.20544800  1
  O  O9  1  0.92126100  0.70035800  0.17330000  1
  O  O10  1  0.00867700  0.45016500  0.59113800  1
  O  O11  1  0.25767600  0.70098700  0.83832400  1
  O  O12  1  0.23728300  0.31519200  0.12167100  1
  O  O13  1  0.74880500  0.83117700  0.64879800  1
  O  O14  1  0.47075000  0.55219700  0.36737500  1
  O  O15  1  0.64236500  0.75250000  0.84438300  1
  O  O16  1  0.14477600  0.25957000  0.33792500  1
  O  O17  1  0.39395300  0.50815600  0.59399900  1
  O  O18  1  0.61720100  0.36617000  0.14395200  1
  O  O19  1  0.87826300  0.61370600  0.39532700  1
  O  O20  1  0.83306000  0.30664200  0.05328400  1
  O  O21  1  0.41654300  0.55686300  0.97375400  1
  O  O22  1  0.16496500  0.30456700  0.72469300  1
  O  O23  1  0.61569500  0.42177300  0.54061300  1
  O  O24  1  0.36714600  0.17283800  0.28775000  1
  O  O25  1  0.86711300  0.67162600  0.79044500  1
  O  O26  1  0.67425200  0.45609600  0.92913300  1
  O  O27  1  0.42237900  0.20135200  0.67448800  1
  O  O28  1  0.75844700  0.20234300  0.34021300  1
  O  O29  1  0.89584000  0.00789500  0.09038900  1
  O  O30  1  0.70039200  0.11976500  0.55952500  1
  O  O31  1  0.95019100  0.36952700  0.81110600  1
  O  O32  1  0.36905500  0.11748800  0.89529500  1
  O  O33  1  0.58347700  0.05559600  0.80367200  1
  O  O34  1  0.91500500  0.05579800  0.47229700  1
  O  O35  1  0.99134900  0.07039200  0.87834400  1
loop_
_geom_bond_atom_site_label_1
_geom_bond_atom_site_label_2
_geom_bond_distance
_geom_bond_site_symmetry_2
Li0 O24 1.759490 1_565
Li0 O1 2.001461 1_555
Li0 O3 2.246381 1_555
Li0 O0 2.277060 1_555
Li1 O0 1.752763 1_555
Li1 O9 1.996025 1_455
Li1 O4 2.209899 1_555
Li1 O25 2.259115 1_454
Li2 O35 1.882957 1_565
Li2 O34 2.079455 1_565
Li2 O13 2.084559 1_555
Li2 O5 2.175409 1_655
Li3 O14 1.772728 1_555
Li3 O21 2.068359 1_554
Li3 O18 2.151723 1_555
Li3 O12 2.184044 1_555
Li4 O15 1.622394 1_555
Li4 O33 2.097505 1_565
Li4 O2 2.126251 1_556
Li4 O29 2.468435 1_566
Li5 O17 1.600354 1_555
Li5 O11 2.077337 1_555
Li5 O7 2.096207 1_555
Li5 O15 2.452955 1_555
Li6 O16 1.625718 1_555
Li6 O6 2.076137 1_555
Li6 O10 2.093893 1_555
Li6 O17 2.456280 1_555
Li7 O23 1.732433 1_555
Li7 O27 1.996036 1_555
Li7 O30 2.203957 1_555
Li7 O24 2.284217 1_555
Li8 O25 1.729887 1_555
Li8 O26 2.002734 1_555
Li8 O31 2.222433 1_555
Li8 O23 2.267677 1_555
Li9 O12 1.827395 1_556
Li9 O22 2.051189 1_555
Li9 O35 2.141649 1_455
Li9 O32 2.158231 1_555
Li10 O29 1.619612 1_555
Li10 O28 2.080972 1_555
Li10 O20 2.086563 1_555
Li10 O16 2.458937 1_655
Mn0 O6 1.938598 1_555
Mn0 O4 2.070156 1_555
Mn0 O31 2.284967 1_454
Mn0 O12 2.287313 1_555
Mn0 O20 2.452159 1_455
Mn1 O33 1.993664 1_565
Mn1 O30 2.062065 1_565
Mn1 O3 2.298846 1_555
Mn1 O13 2.317577 1_555
Mn1 O7 2.456684 1_555
Mn2 O7 1.968037 1_555
Mn2 O3 2.042392 1_555
Mn2 O14 2.160430 1_555
Mn2 O4 2.324896 1_555
Mn2 O6 2.424705 1_555
Mn3 O10 1.806068 1_555
Mn3 O5 1.982724 1_555
Mn3 O25 2.133140 1_455
Mn3 O19 2.338369 1_455
Mn4 O11 1.769864 1_555
Mn4 O32 1.955650 1_565
Mn4 O0 2.154498 1_556
Mn4 O5 2.419721 1_555
Mn4 O2 2.634270 1_556
Mn5 O9 1.768824 1_555
Mn5 O34 1.823737 1_565
Mn5 O29 2.164845 1_565
Mn5 O8 2.513432 1_555
Mn5 O1 2.687838 1_655
Mn6 O8 1.715491 1_555
Mn6 O26 1.727970 1_554
Mn6 O15 2.148527 1_554
Mn6 O21 2.523933 1_554
Mn6 O9 2.681660 1_555
Mn7 O2 1.740572 1_545
Mn7 O18 1.932965 1_555
Mn7 O24 2.163168 1_555
Mn7 O32 2.455594 1_554
Mn7 O28 2.674270 1_555
Mn8 O28 1.818069 1_555
Mn8 O19 1.943845 1_555
Mn8 O23 2.149856 1_555
Mn8 O18 2.450438 1_555
Mn8 O10 2.724407 1_655
Mn9 O1 1.779556 1_545
Mn9 O22 1.856817 1_555
Mn9 O16 2.136800 1_555
Mn9 O34 2.554165 1_455
Mn9 O27 2.718385 1_555
Mn10 O27 1.765350 1_555
Mn10 O21 1.850568 1_555
Mn10 O17 2.101919 1_555
Mn10 O22 2.549712 1_555
Mn10 O26 2.740909 1_555
Mn11 O20 1.967901 1_556
Mn11 O31 2.075278 1_555
Mn11 O30 2.294497 1_555
Mn11 O35 2.315529 1_555
Mn11 O33 2.427832 1_555
B0 O5 1.407591 1_555
B0 O1 1.454342 1_555
B0 O7 1.525900 1_555
B1 O3 1.402165 1_555
B1 O2 1.436323 1_555
B1 O8 1.508430 1_555
B2 O18 1.414205 1_555
B2 O26 1.436212 1_554
B2 O20 1.519114 1_555
B3 O19 1.376713 1_555
B3 O9 1.466810 1_555
B3 O6 1.539377 1_655
B4 O35 1.412307 1_454
B4 O29 1.438340 1_455
B4 O0 1.526259 1_545
B5 O14 1.409871 1_555
B5 O17 1.430765 1_555
B5 O23 1.561177 1_555
B6 O13 1.364381 1_555
B6 O15 1.461953 1_555
B6 O25 1.522404 1_555
B7 O12 1.417993 1_555
B7 O16 1.438607 1_555
B7 O24 1.534933 1_555
B8 O31 1.409962 1_455
B8 O10 1.422712 1_555
B8 O22 1.530694 1_555
B9 O4 1.400785 1_556
B9 O11 1.430533 1_555
B9 O21 1.539845 1_555
B10 O32 1.413717 1_555
B10 O27 1.441814 1_555
B10 O33 1.523276 1_555
B11 O30 1.405320 1_555
B11 O28 1.426848 1_555
B11 O34 1.532097 1_555
