# generated using pymatgen
data_U3(PO9)2
_symmetry_space_group_name_H-M   'P 1'
_cell_length_a   7.21549200
_cell_length_b   13.37882500
_cell_length_c   17.49696700
_cell_angle_alpha   90.00000000
_cell_angle_beta   90.00000000
_cell_angle_gamma   90.00000000
_symmetry_Int_Tables_number   1
_chemical_formula_structural   U3(PO9)2
_chemical_formula_sum   'U12 P8 O72'
_cell_volume   1689.06629318
_cell_formula_units_Z   4
loop_
 _symmetry_equiv_pos_site_id
 _symmetry_equiv_pos_as_xyz
  1  'x, y, z'
loop_
 _atom_site_type_symbol
 _atom_site_label
 _atom_site_symmetry_multiplicity
 _atom_site_fract_x
 _atom_site_fract_y
 _atom_site_fract_z
 _atom_site_occupancy
  U  U0  1  0.24331500  0.32450800  0.52157000  1
  U  U1  1  0.74331500  0.17549200  0.97843000  1
  U  U2  1  0.75668500  0.67549200  0.02157000  1
  U  U3  1  0.25668500  0.82450800  0.47843000  1
  U  U4  1  0.75668500  0.67549200  0.47843000  1
  U  U5  1  0.25668500  0.82450800  0.02157000  1
  U  U6  1  0.24331500  0.32450800  0.97843000  1
  U  U7  1  0.74331500  0.17549200  0.52157000  1
  U  U8  1  0.21917700  0.03445600  0.75000000  1
  U  U9  1  0.71917700  0.46554400  0.75000000  1
  U  U10  1  0.78082300  0.96554400  0.25000000  1
  U  U11  1  0.28082300  0.53445600  0.25000000  1
  P  P0  1  0.24227800  0.08541600  0.53862400  1
  P  P1  1  0.74227800  0.41458400  0.96137600  1
  P  P2  1  0.75772200  0.91458400  0.03862400  1
  P  P3  1  0.25772200  0.58541600  0.46137600  1
  P  P4  1  0.75772200  0.91458400  0.46137600  1
  P  P5  1  0.25772200  0.58541600  0.03862400  1
  P  P6  1  0.24227800  0.08541600  0.96137600  1
  P  P7  1  0.74227800  0.41458400  0.53862400  1
  O  O0  1  0.24185100  0.32572000  0.62404000  1
  O  O1  1  0.74185100  0.17428000  0.87596000  1
  O  O2  1  0.75814900  0.67428000  0.12404000  1
  O  O3  1  0.25814900  0.82572000  0.37596000  1
  O  O4  1  0.75814900  0.67428000  0.37596000  1
  O  O5  1  0.25814900  0.82572000  0.12404000  1
  O  O6  1  0.24185100  0.32572000  0.87596000  1
  O  O7  1  0.74185100  0.17428000  0.62404000  1
  O  O8  1  0.24708900  0.99643800  0.48336800  1
  O  O9  1  0.74708900  0.50356200  0.01663200  1
  O  O10  1  0.75291100  0.00356200  0.98336800  1
  O  O11  1  0.25291100  0.49643800  0.51663200  1
  O  O12  1  0.75291100  0.00356200  0.51663200  1
  O  O13  1  0.25291100  0.49643800  0.98336800  1
  O  O14  1  0.24708900  0.99643800  0.01663200  1
  O  O15  1  0.74708900  0.50356200  0.48336800  1
  O  O16  1  0.07547200  0.15716000  0.52297000  1
  O  O17  1  0.57547200  0.34284000  0.97703000  1
  O  O18  1  0.92452800  0.84284000  0.02297000  1
  O  O19  1  0.42452800  0.65716000  0.47703000  1
  O  O20  1  0.92452800  0.84284000  0.47703000  1
  O  O21  1  0.42452800  0.65716000  0.02297000  1
  O  O22  1  0.07547200  0.15716000  0.97703000  1
  O  O23  1  0.57547200  0.34284000  0.52297000  1
  O  O24  1  0.41083800  0.15622800  0.52488400  1
  O  O25  1  0.91083800  0.34377200  0.97511600  1
  O  O26  1  0.58916200  0.84377200  0.02488400  1
  O  O27  1  0.08916200  0.65622800  0.47511600  1
  O  O28  1  0.58916200  0.84377200  0.47511600  1
  O  O29  1  0.08916200  0.65622800  0.02488400  1
  O  O30  1  0.41083800  0.15622800  0.97511600  1
  O  O31  1  0.91083800  0.34377200  0.52488400  1
  O  O32  1  0.24417300  0.31834700  0.41949400  1
  O  O33  1  0.74417300  0.18165300  0.08050600  1
  O  O34  1  0.75582700  0.68165300  0.91949400  1
  O  O35  1  0.25582700  0.81834700  0.58050600  1
  O  O36  1  0.75582700  0.68165300  0.58050600  1
  O  O37  1  0.25582700  0.81834700  0.91949400  1
  O  O38  1  0.24417300  0.31834700  0.08050600  1
  O  O39  1  0.74417300  0.18165300  0.41949400  1
  O  O40  1  0.23254900  0.04748400  0.62178100  1
  O  O41  1  0.73254900  0.45251600  0.87821900  1
  O  O42  1  0.76745100  0.95251600  0.12178100  1
  O  O43  1  0.26745100  0.54748400  0.37821900  1
  O  O44  1  0.76745100  0.95251600  0.37821900  1
  O  O45  1  0.26745100  0.54748400  0.12178100  1
  O  O46  1  0.23254900  0.04748400  0.87821900  1
  O  O47  1  0.73254900  0.45251600  0.62178100  1
  O  O48  1  0.28989600  0.90306900  0.75000000  1
  O  O49  1  0.78989600  0.59693100  0.75000000  1
  O  O50  1  0.71010400  0.09693100  0.25000000  1
  O  O51  1  0.21010400  0.40306900  0.25000000  1
  O  O52  1  0.05207400  0.13562600  0.75000000  1
  O  O53  1  0.55207400  0.36437400  0.75000000  1
  O  O54  1  0.94792600  0.86437400  0.25000000  1
  O  O55  1  0.44792600  0.63562600  0.25000000  1
  O  O56  1  0.88267500  0.93203000  0.71413600  1
  O  O57  1  0.38267500  0.56797000  0.78586400  1
  O  O58  1  0.11732500  0.06797000  0.21413600  1
  O  O59  1  0.61732500  0.43203000  0.28586400  1
  O  O60  1  0.11732500  0.06797000  0.28586400  1
  O  O61  1  0.61732500  0.43203000  0.21413600  1
  O  O62  1  0.88267500  0.93203000  0.78586400  1
  O  O63  1  0.38267500  0.56797000  0.71413600  1
  O  O64  1  0.44772100  0.10070100  0.75000000  1
  O  O65  1  0.94772100  0.39929900  0.75000000  1
  O  O66  1  0.55227900  0.89929900  0.25000000  1
  O  O67  1  0.05227900  0.60070100  0.25000000  1
  O  O68  1  0.65614100  0.81647400  0.75000000  1
  O  O69  1  0.15614100  0.68352600  0.75000000  1
  O  O70  1  0.34385900  0.18352600  0.25000000  1
  O  O71  1  0.84385900  0.31647400  0.25000000  1
loop_
_geom_bond_atom_site_label_1
_geom_bond_atom_site_label_2
_geom_bond_distance
_geom_bond_site_symmetry_2
O0 U0 1.793019 1_555
O1 U1 1.793019 1_555
O2 U2 1.793019 1_555
O3 U3 1.793019 1_555
O4 U4 1.793019 1_555
O5 U5 1.793019 1_555
O6 U6 1.793019 1_555
O7 U7 1.793019 1_555
O8 P0 1.533960 1_565
O8 U3 2.302885 1_555
O9 P1 1.533960 1_554
O9 U2 2.302885 1_555
O10 P2 1.533960 1_546
O10 U1 2.302885 1_555
O11 P3 1.533960 1_555
O11 U0 2.302885 1_555
O12 P4 1.533960 1_545
O12 U7 2.302885 1_555
O13 P5 1.533960 1_556
O13 U6 2.302885 1_555
O14 P6 1.533960 1_564
O14 U5 2.302885 1_555
O15 P7 1.533960 1_555
O15 U4 2.302885 1_555
O16 P0 1.563635 1_555
O16 U7 2.409317 1_455
O16 U0 2.545594 1_555
O17 P1 1.563635 1_555
O17 U6 2.409317 1_555
O17 U1 2.545594 1_555
O18 P2 1.563635 1_555
O18 U5 2.409317 1_655
O18 U2 2.545594 1_555
O19 P3 1.563635 1_555
O19 U4 2.409317 1_555
O19 U3 2.545594 1_555
O20 P4 1.563635 1_555
O20 U3 2.409317 1_655
O20 U4 2.545594 1_555
O21 P5 1.563635 1_555
O21 U2 2.409317 1_555
O21 U5 2.545594 1_555
O22 P6 1.563635 1_555
O22 U1 2.409317 1_455
O22 U6 2.545594 1_555
O23 P7 1.563635 1_555
O23 U0 2.409317 1_555
O23 U7 2.545594 1_555
O24 P0 1.560313 1_555
O24 U7 2.413486 1_555
O24 U0 2.556016 1_555
O25 P1 1.560313 1_555
O25 U6 2.413486 1_655
O25 U1 2.556016 1_555
O26 P2 1.560313 1_555
O26 U5 2.413486 1_555
O26 U2 2.556016 1_555
O27 P3 1.560313 1_555
O27 U4 2.413486 1_455
O27 U3 2.556016 1_555
O28 P4 1.560313 1_555
O28 U3 2.413486 1_555
O28 U4 2.556016 1_555
O29 P5 1.560313 1_555
O29 U2 2.413486 1_455
O29 U5 2.556016 1_555
O30 P6 1.560313 1_555
O30 U1 2.413486 1_555
O30 U6 2.556016 1_555
O31 P7 1.560313 1_555
O31 U0 2.413486 1_655
O31 U7 2.556016 1_555
O32 U0 1.787932 1_555
O33 U1 1.787932 1_554
O34 U2 1.787932 1_556
O35 U3 1.787932 1_555
O36 U4 1.787932 1_555
O37 U5 1.787932 1_556
O38 U6 1.787932 1_554
O39 U7 1.787932 1_555
O40 P0 1.542557 1_555
O40 U8 2.252272 1_555
O41 P1 1.542557 1_555
O41 U9 2.252272 1_555
O42 P2 1.542557 1_555
O42 U10 2.252272 1_555
O43 P3 1.542557 1_555
O43 U11 2.252272 1_555
O44 P4 1.542557 1_555
O44 U10 2.252272 1_555
O45 P5 1.542557 1_555
O45 U11 2.252272 1_555
O46 P6 1.542557 1_555
O46 U8 2.252272 1_555
O47 P7 1.542557 1_555
O47 U9 2.252272 1_555
O48 U8 1.830369 1_565
O49 U9 1.830369 1_555
O50 U10 1.830369 1_545
O51 U11 1.830369 1_555
O52 U8 1.812690 1_555
O53 U9 1.812690 1_555
O54 U10 1.812690 1_555
O55 U11 1.812690 1_555
O56 O62 1.255022 1_555
O56 U8 2.857782 1_665
O57 O63 1.255022 1_555
O57 U9 2.857782 1_555
O58 O60 1.255022 1_555
O58 U10 2.857782 1_445
O59 O61 1.255022 1_555
O59 U11 2.857782 1_555
O60 U10 2.857782 1_445
O61 U11 2.857782 1_555
O62 U8 2.857782 1_665
O63 U9 2.857782 1_555
O64 U8 1.872133 1_555
O65 U9 1.872133 1_555
O66 U10 1.872133 1_555
O67 U11 1.872133 1_555
