# generated using pymatgen
data_Ca2SnS4
_symmetry_space_group_name_H-M   'P 1'
_cell_length_a   8.01446300
_cell_length_b   8.01446300
_cell_length_c   11.54443600
_cell_angle_alpha   90.00000000
_cell_angle_beta   90.00000000
_cell_angle_gamma   90.00000000
_symmetry_Int_Tables_number   1
_chemical_formula_structural   Ca2SnS4
_chemical_formula_sum   'Ca8 Sn4 S16'
_cell_volume   741.51779369
_cell_formula_units_Z   4
loop_
 _symmetry_equiv_pos_site_id
 _symmetry_equiv_pos_as_xyz
  1  'x, y, z'
loop_
 _atom_site_type_symbol
 _atom_site_label
 _atom_site_symmetry_multiplicity
 _atom_site_fract_x
 _atom_site_fract_y
 _atom_site_fract_z
 _atom_site_occupancy
  Ca  Ca0  1  0.26298400  0.00000000  0.25000000  1
  Ca  Ca1  1  0.73701600  0.00000000  0.75000000  1
  Ca  Ca2  1  0.00000000  0.26298400  0.50000000  1
  Ca  Ca3  1  0.00000000  0.73701600  0.00000000  1
  Ca  Ca4  1  0.24418500  0.24418500  0.87500000  1
  Ca  Ca5  1  0.75581500  0.75581500  0.37500000  1
  Ca  Ca6  1  0.75581500  0.24418500  0.12500000  1
  Ca  Ca7  1  0.24418500  0.75581500  0.62500000  1
  Sn  Sn0  1  0.25633700  0.50000000  0.25000000  1
  Sn  Sn1  1  0.74366300  0.50000000  0.75000000  1
  Sn  Sn2  1  0.50000000  0.25633700  0.50000000  1
  Sn  Sn3  1  0.50000000  0.74366300  0.00000000  1
  S  S0  1  0.03671600  0.26905300  0.25366200  1
  S  S1  1  0.96328400  0.73094700  0.75366200  1
  S  S2  1  0.73094700  0.03671600  0.50366200  1
  S  S3  1  0.26905300  0.96328400  0.00366200  1
  S  S4  1  0.96328400  0.26905300  0.74633800  1
  S  S5  1  0.03671600  0.73094700  0.24633800  1
  S  S6  1  0.26905300  0.03671600  0.49633800  1
  S  S7  1  0.73094700  0.96328400  0.99633800  1
  S  S8  1  0.49451200  0.27182700  0.27477300  1
  S  S9  1  0.50548800  0.72817300  0.77477300  1
  S  S10  1  0.72817300  0.49451200  0.52477300  1
  S  S11  1  0.27182700  0.50548800  0.02477300  1
  S  S12  1  0.50548800  0.27182700  0.72522700  1
  S  S13  1  0.49451200  0.72817300  0.22522700  1
  S  S14  1  0.27182700  0.49451200  0.47522700  1
  S  S15  1  0.72817300  0.50548800  0.97522700  1
loop_
_geom_bond_atom_site_label_1
_geom_bond_atom_site_label_2
_geom_bond_distance
_geom_bond_site_symmetry_2
Ca0 S0 2.817794 1_555
Ca0 S5 2.817794 1_545
Ca0 S6 2.859430 1_555
Ca0 S3 2.859430 1_545
Ca0 S8 2.875936 1_555
Ca0 S13 2.875936 1_545
Ca1 S1 2.817794 1_545
Ca1 S4 2.817794 1_555
Ca1 S7 2.859430 1_545
Ca1 S2 2.859430 1_555
Ca1 S9 2.875936 1_545
Ca1 S12 2.875936 1_555
Ca2 S6 2.817794 1_555
Ca2 S2 2.817794 1_455
Ca2 S0 2.859430 1_555
Ca2 S4 2.859430 1_455
Ca2 S10 2.875936 1_455
Ca2 S14 2.875936 1_555
Ca3 S7 2.817794 1_454
Ca3 S3 2.817794 1_555
Ca3 S5 2.859430 1_555
Ca3 S1 2.859430 1_454
Ca3 S11 2.875936 1_555
Ca3 S15 2.875936 1_454
Ca4 S4 2.704468 1_455
Ca4 S3 2.704468 1_546
Ca4 S11 2.724768 1_556
Ca4 S12 2.724768 1_555
Ca5 S2 2.704468 1_565
Ca5 S5 2.704468 1_655
Ca5 S10 2.724768 1_555
Ca5 S13 2.724768 1_555
Ca6 S7 2.704468 1_544
Ca6 S0 2.704468 1_655
Ca6 S15 2.724768 1_554
Ca6 S8 2.724768 1_555
Ca7 S1 2.704468 1_455
Ca7 S6 2.704468 1_565
Ca7 S9 2.724768 1_555
Ca7 S14 2.724768 1_555
S0 Sn0 2.554562 1_555
S1 Sn1 2.554562 1_555
S2 Sn2 2.554562 1_555
S3 Sn3 2.554562 1_555
S4 Sn1 2.554562 1_555
S5 Sn0 2.554562 1_555
S6 Sn2 2.554562 1_555
S7 Sn3 2.554562 1_556
S8 Sn2 2.603452 1_555
S8 Sn0 2.658865 1_555
S9 Sn3 2.603452 1_556
S9 Sn1 2.658865 1_555
S10 Sn1 2.603452 1_555
S10 Sn2 2.658865 1_555
S11 Sn0 2.603452 1_555
S11 Sn3 2.658865 1_555
S12 Sn2 2.603452 1_555
S12 Sn1 2.658865 1_555
S13 Sn3 2.603452 1_555
S13 Sn0 2.658865 1_555
S14 Sn0 2.603452 1_555
S14 Sn2 2.658865 1_555
S15 Sn1 2.603452 1_555
S15 Sn3 2.658865 1_556
