# generated using pymatgen
data_PmAu3
_symmetry_space_group_name_H-M   'P 1'
_cell_length_a   6.44875117
_cell_length_b   6.44875095
_cell_length_c   4.72323128
_cell_angle_alpha   90.00000000
_cell_angle_beta   90.00000000
_cell_angle_gamma   120.00000669
_symmetry_Int_Tables_number   1
_chemical_formula_structural   PmAu3
_chemical_formula_sum   'Pm2 Au6'
_cell_volume   170.10655096
_cell_formula_units_Z   2
loop_
 _symmetry_equiv_pos_site_id
 _symmetry_equiv_pos_as_xyz
  1  'x, y, z'
loop_
 _atom_site_type_symbol
 _atom_site_label
 _atom_site_symmetry_multiplicity
 _atom_site_fract_x
 _atom_site_fract_y
 _atom_site_fract_z
 _atom_site_occupancy
  Pm  Pm0  1  0.66666700  0.33333400  0.24999900  1
  Pm  Pm1  1  0.33333400  0.66666800  0.75000000  1
  Au  Au0  1  0.84464032  0.15536168  0.75000000  1
  Au  Au1  1  0.31072135  0.15536168  0.75000000  1
  Au  Au2  1  0.84463932  0.68928165  0.75000000  1
  Au  Au3  1  0.15536068  0.84463932  0.24999900  1
  Au  Au4  1  0.68927965  0.84463932  0.24999900  1
  Au  Au5  1  0.15536068  0.31072035  0.24999900  1
loop_
_geom_bond_atom_site_label_1
_geom_bond_atom_site_label_2
_geom_bond_distance
_geom_bond_site_symmetry_2
Au0 Pm0 3.086887 1_556
Au0 Pm0 3.086894 1_555
Au0 Pm1 3.226847 1_655
Au0 Pm1 3.226847 1_545
Au1 Pm0 3.086887 1_556
Au1 Pm0 3.086894 1_555
Au1 Pm1 3.226848 1_555
Au1 Pm1 3.226848 1_545
Au2 Pm0 3.086894 1_556
Au2 Pm0 3.086901 1_555
Au2 Pm1 3.226838 1_555
Au2 Pm1 3.226858 1_655
Au3 Pm1 3.086883 1_554
Au3 Pm1 3.086890 1_555
Au3 Pm0 3.226844 1_455
Au3 Pm0 3.226850 1_565
Au4 Pm1 3.086887 1_554
Au4 Pm1 3.086894 1_555
Au4 Pm0 3.226841 1_555
Au4 Pm0 3.226854 1_565
Au5 Pm1 3.086894 1_554
Au5 Pm1 3.086901 1_555
Au5 Pm0 3.226845 1_555
Au5 Pm0 3.226851 1_455
