# generated using pymatgen
data_Y2CuRh
_symmetry_space_group_name_H-M   'P 1'
_cell_length_a   4.86563784
_cell_length_b   4.86563784
_cell_length_c   4.86563784
_cell_angle_alpha   60.00000000
_cell_angle_beta   60.00000000
_cell_angle_gamma   60.00000000
_symmetry_Int_Tables_number   1
_chemical_formula_structural   Y2CuRh
_chemical_formula_sum   'Y2 Cu1 Rh1'
_cell_volume   81.45248575
_cell_formula_units_Z   1
loop_
 _symmetry_equiv_pos_site_id
 _symmetry_equiv_pos_as_xyz
  1  'x, y, z'
loop_
 _atom_site_type_symbol
 _atom_site_label
 _atom_site_symmetry_multiplicity
 _atom_site_fract_x
 _atom_site_fract_y
 _atom_site_fract_z
 _atom_site_occupancy
  Y  Y0  1  0.49999900  0.49999900  0.49999900  1
  Y  Y1  1  0.00000000  0.00000000  0.00000000  1
  Cu  Cu0  1  0.25000000  0.25000000  0.25000000  1
  Rh  Rh0  1  0.75000200  0.75000200  0.75000200  1
loop_
_geom_bond_atom_site_label_1
_geom_bond_atom_site_label_2
_geom_bond_distance
_geom_bond_site_symmetry_2
Cu0 Y0 2.979571 1_555
Cu0 Y1 2.979582 1_655
Cu0 Y1 2.979582 1_556
Cu0 Y1 2.979582 1_565
Cu0 Y1 2.979582 1_555
Cu0 Y0 2.979586 1_545
Cu0 Y0 2.979586 1_554
Cu0 Y0 2.979586 1_455
Rh0 Y1 2.979559 1_666
Rh0 Y0 2.979571 1_655
Rh0 Y0 2.979571 1_556
Rh0 Y0 2.979571 1_565
Rh0 Y1 2.979590 1_665
Rh0 Y1 2.979590 1_566
Rh0 Y1 2.979590 1_656
Rh0 Y0 2.979618 1_555
