# generated using pymatgen
data_Li6MnV3(PO4)6
_symmetry_space_group_name_H-M   'P 1'
_cell_length_a   10.25421309
_cell_length_b   10.25421309
_cell_length_c   10.21200849
_cell_angle_alpha   70.36286580
_cell_angle_beta   70.36286580
_cell_angle_gamma   109.28216230
_symmetry_Int_Tables_number   1
_chemical_formula_structural   Li6MnV3(PO4)6
_chemical_formula_sum   'Li12 Mn2 V6 P12 O48'
_cell_volume   825.12969385
_cell_formula_units_Z   2
loop_
 _symmetry_equiv_pos_site_id
 _symmetry_equiv_pos_as_xyz
  1  'x, y, z'
loop_
 _atom_site_type_symbol
 _atom_site_label
 _atom_site_symmetry_multiplicity
 _atom_site_fract_x
 _atom_site_fract_y
 _atom_site_fract_z
 _atom_site_occupancy
  Li  Li0  1  0.37534200  0.74992100  0.87525300  1
  Li  Li1  1  0.74992100  0.37534200  0.37525300  1
  Li  Li2  1  0.87592700  0.12407300  0.25000000  1
  Li  Li3  1  0.74882300  0.87328300  0.87639900  1
  Li  Li4  1  0.62524700  0.37475300  0.75000000  1
  Li  Li5  1  0.87328300  0.74882300  0.37639900  1
  Li  Li6  1  0.12671700  0.25117700  0.62360100  1
  Li  Li7  1  0.37475300  0.62524700  0.25000000  1
  Li  Li8  1  0.25117700  0.12671700  0.12360100  1
  Li  Li9  1  0.12407300  0.87592700  0.75000000  1
  Li  Li10  1  0.25007900  0.62465800  0.62474700  1
  Li  Li11  1  0.62465800  0.25007900  0.12474700  1
  Mn  Mn0  1  0.00000000  0.50000000  0.50000000  1
  Mn  Mn1  1  0.50000000  0.00000000  0.00000000  1
  V  V0  1  0.50000000  0.00000000  0.50000000  1
  V  V1  1  0.00000000  0.50000000  0.00000000  1
  V  V2  1  0.50000000  0.50000000  0.50000000  1
  V  V3  1  0.00000000  0.00000000  0.00000000  1
  V  V4  1  0.00000000  0.00000000  0.50000000  1
  V  V5  1  0.50000000  0.50000000  0.00000000  1
  P  P0  1  0.37451700  0.12638200  0.74839300  1
  P  P1  1  0.25046500  0.37476600  0.87469600  1
  P  P2  1  0.74883100  0.12488700  0.62600700  1
  P  P3  1  0.62523400  0.74953500  0.62530400  1
  P  P4  1  0.12488700  0.74883100  0.12600700  1
  P  P5  1  0.12638200  0.37451700  0.24839300  1
  P  P6  1  0.87361800  0.62548300  0.75160700  1
  P  P7  1  0.37476600  0.25046500  0.37469600  1
  P  P8  1  0.87511300  0.25116900  0.87399300  1
  P  P9  1  0.25116900  0.87511300  0.37399300  1
  P  P10  1  0.74953500  0.62523400  0.12530400  1
  P  P11  1  0.62548300  0.87361800  0.25160700  1
  O  O0  1  0.11435100  0.70596800  0.99547500  1
  O  O1  1  0.50686800  0.30006000  0.60781100  1
  O  O2  1  0.70765400  0.59096300  0.29952200  1
  O  O3  1  0.38413800  0.99526300  0.70625200  1
  O  O4  1  0.20836200  0.50543900  0.88262100  1
  O  O5  1  0.49456100  0.79163800  0.61737900  1
  O  O6  1  0.70596800  0.11435100  0.49547500  1
  O  O7  1  0.60836000  0.99235300  0.80321100  1
  O  O8  1  0.78867600  0.29566000  0.59234000  1
  O  O9  1  0.99235300  0.60836000  0.30321100  1
  O  O10  1  0.38864000  0.38221800  0.90864600  1
  O  O11  1  0.79788800  0.90828600  0.21104200  1
  O  O12  1  0.99526300  0.38413800  0.20625200  1
  O  O13  1  0.61778200  0.61136000  0.59135400  1
  O  O14  1  0.59096300  0.70765400  0.79952200  1
  O  O15  1  0.79934700  0.88944300  0.49452100  1
  O  O16  1  0.40683100  0.11895300  0.88804600  1
  O  O17  1  0.11055700  0.20065300  0.00547900  1
  O  O18  1  0.88662200  0.08884600  0.61808600  1
  O  O19  1  0.29566000  0.78867600  0.09234000  1
  O  O20  1  0.11895300  0.40683100  0.38804600  1
  O  O21  1  0.09171400  0.20211200  0.28895800  1
  O  O22  1  0.69994000  0.49313200  0.89218900  1
  O  O23  1  0.08884600  0.88662200  0.11808600  1
  O  O24  1  0.91115400  0.11337800  0.88191400  1
  O  O25  1  0.30006000  0.50686800  0.10781100  1
  O  O26  1  0.90828600  0.79788800  0.71104200  1
  O  O27  1  0.88104700  0.59316900  0.61195400  1
  O  O28  1  0.70434000  0.21132400  0.90766000  1
  O  O29  1  0.11337800  0.91115400  0.38191400  1
  O  O30  1  0.88944300  0.79934700  0.99452100  1
  O  O31  1  0.59316900  0.88104700  0.11195400  1
  O  O32  1  0.20065300  0.11055700  0.50547900  1
  O  O33  1  0.40903700  0.29234600  0.20047800  1
  O  O34  1  0.38221800  0.38864000  0.40864600  1
  O  O35  1  0.00473700  0.61586200  0.79374800  1
  O  O36  1  0.20211200  0.09171400  0.78895800  1
  O  O37  1  0.61136000  0.61778200  0.09135400  1
  O  O38  1  0.00764700  0.39164000  0.69678900  1
  O  O39  1  0.21132400  0.70434000  0.40766000  1
  O  O40  1  0.39164000  0.00764700  0.19678900  1
  O  O41  1  0.29403200  0.88564900  0.50452500  1
  O  O42  1  0.50543900  0.20836200  0.38262100  1
  O  O43  1  0.79163800  0.49456100  0.11737900  1
  O  O44  1  0.61586200  0.00473700  0.29374800  1
  O  O45  1  0.29234600  0.40903700  0.70047800  1
  O  O46  1  0.49313200  0.69994000  0.39218900  1
  O  O47  1  0.88564900  0.29403200  0.00452500  1
loop_
_geom_bond_atom_site_label_1
_geom_bond_atom_site_label_2
_geom_bond_distance
_geom_bond_site_symmetry_2
Li0 O19 2.308525 1_556
Li0 O5 2.312146 1_555
Li0 O14 2.320230 1_555
Li0 O0 2.344323 1_555
Li0 O25 2.442639 1_556
Li0 O7 2.469158 1_555
Li0 O3 2.478528 1_555
Li0 O4 2.484754 1_555
Li1 O8 2.308525 1_555
Li1 O43 2.312146 1_555
Li1 O2 2.320230 1_555
Li1 O6 2.344323 1_555
Li1 O1 2.442639 1_555
Li1 O9 2.469158 1_555
Li1 O12 2.478528 1_555
Li1 O42 2.484754 1_555
Li2 O11 2.308900 1_545
Li2 O21 2.308900 1_655
Li2 O44 2.342053 1_555
Li2 O12 2.342053 1_555
Li2 O17 2.456990 1_655
Li2 O15 2.456990 1_545
Li2 O47 2.472282 1_555
Li2 O6 2.472282 1_555
Li3 O37 2.299016 1_556
Li3 O18 2.313861 1_565
Li3 O30 2.320664 1_555
Li3 O7 2.322842 1_555
Li3 O31 2.443840 1_556
Li3 O26 2.445293 1_555
Li3 O14 2.460849 1_555
Li3 O24 2.506984 1_565
Li4 O27 2.323012 1_555
Li4 O16 2.323012 1_555
Li4 O22 2.342370 1_555
Li4 O1 2.342370 1_555
Li4 O28 2.453610 1_555
Li4 O8 2.453610 1_555
Li4 O13 2.466007 1_555
Li4 O10 2.466007 1_555
Li5 O13 2.299016 1_555
Li5 O23 2.313861 1_655
Li5 O15 2.320664 1_555
Li5 O9 2.322842 1_555
Li5 O27 2.443840 1_555
Li5 O11 2.445293 1_555
Li5 O2 2.460849 1_555
Li5 O29 2.506984 1_655
Li6 O34 2.299016 1_555
Li6 O24 2.313861 1_455
Li6 O32 2.320664 1_555
Li6 O38 2.322842 1_555
Li6 O20 2.443840 1_555
Li6 O36 2.445293 1_555
Li6 O45 2.460849 1_555
Li6 O18 2.506984 1_455
Li7 O31 2.323012 1_555
Li7 O20 2.323012 1_555
Li7 O46 2.342370 1_555
Li7 O25 2.342370 1_555
Li7 O39 2.453610 1_555
Li7 O19 2.453610 1_555
Li7 O37 2.466007 1_555
Li7 O34 2.466007 1_555
Li8 O10 2.299016 1_554
Li8 O29 2.313861 1_545
Li8 O17 2.320664 1_555
Li8 O40 2.322842 1_555
Li8 O16 2.443840 1_554
Li8 O21 2.445293 1_555
Li8 O33 2.460849 1_555
Li8 O23 2.506984 1_545
Li9 O26 2.308900 1_455
Li9 O36 2.308900 1_565
Li9 O3 2.342053 1_555
Li9 O35 2.342053 1_555
Li9 O32 2.456990 1_565
Li9 O30 2.456990 1_455
Li9 O0 2.472282 1_555
Li9 O41 2.472282 1_555
Li10 O39 2.308525 1_555
Li10 O4 2.312146 1_555
Li10 O45 2.320230 1_555
Li10 O41 2.344323 1_555
Li10 O46 2.442639 1_555
Li10 O38 2.469158 1_555
Li10 O35 2.478528 1_555
Li10 O5 2.484754 1_555
Li11 O28 2.308525 1_554
Li11 O42 2.312146 1_555
Li11 O33 2.320230 1_555
Li11 O47 2.344323 1_555
Li11 O22 2.442639 1_554
Li11 O40 2.469158 1_555
Li11 O44 2.478528 1_555
Li11 O43 2.484754 1_555
Mn0 O9 1.985436 1_455
Mn0 O38 1.985436 1_555
Mn0 O27 2.067396 1_455
Mn0 O20 2.067396 1_555
Mn0 O39 2.067657 1_555
Mn0 O8 2.067657 1_455
Mn1 O7 1.985436 1_544
Mn1 O40 1.985436 1_555
Mn1 O31 2.067396 1_545
Mn1 O16 2.067396 1_554
Mn1 O28 2.067657 1_554
Mn1 O19 2.067657 1_545
O0 P4 1.562354 1_556
O0 V1 2.024888 1_556
O1 P0 1.565351 1_555
O1 V2 2.012673 1_555
O2 P10 1.561968 1_555
O2 V2 2.017473 1_555
O3 P0 1.565450 1_565
O3 V0 2.015284 1_565
O4 P1 1.555594 1_555
O4 V1 2.039595 1_556
O5 P3 1.555594 1_555
O5 V0 2.039595 1_565
O6 P2 1.562354 1_555
O6 V0 2.024888 1_555
O7 P2 1.580720 1_565
O8 P2 1.542737 1_555
O9 P4 1.580720 1_655
O10 P1 1.552431 1_555
O10 V5 2.048274 1_556
O11 P11 1.554702 1_555
O11 V3 2.042743 1_665
O12 P5 1.565450 1_655
O12 V1 2.015284 1_655
O13 P3 1.552431 1_555
O13 V2 2.048274 1_555
O14 P3 1.561968 1_555
O14 V5 2.017473 1_556
O15 P3 1.564413 1_555
O15 V4 2.025165 1_665
O16 P0 1.552654 1_555
O17 P1 1.564413 1_554
O17 V3 2.025165 1_555
O18 P2 1.558097 1_555
O18 V4 2.032602 1_655
O19 P4 1.542737 1_555
O20 P5 1.552654 1_555
O21 P5 1.554702 1_555
O21 V4 2.042743 1_555
O22 P6 1.565351 1_555
O22 V5 2.012673 1_556
O23 P4 1.558097 1_555
O23 V3 2.032602 1_565
O24 P8 1.558097 1_555
O24 V3 2.032602 1_656
O25 P5 1.565351 1_555
O25 V5 2.012673 1_555
O26 P6 1.554702 1_555
O26 V4 2.042743 1_665
O27 P6 1.552654 1_555
O28 P8 1.542737 1_555
O29 P9 1.558097 1_555
O29 V4 2.032602 1_565
O30 P10 1.564413 1_556
O30 V3 2.025165 1_666
O31 P11 1.552654 1_555
O32 P7 1.564413 1_555
O32 V4 2.025165 1_555
O33 P7 1.561968 1_555
O33 V5 2.017473 1_555
O34 P7 1.552431 1_555
O34 V2 2.048274 1_555
O35 P6 1.565450 1_455
O35 V1 2.015284 1_556
O36 P0 1.554702 1_555
O36 V3 2.042743 1_556
O37 P10 1.552431 1_555
O37 V5 2.048274 1_555
O38 P8 1.580720 1_455
O39 P9 1.542737 1_555
O40 P9 1.580720 1_545
O41 P9 1.562354 1_555
O41 V0 2.024888 1_565
O42 P7 1.555594 1_555
O42 V0 2.039595 1_555
O43 P10 1.555594 1_555
O43 V1 2.039595 1_655
O44 P11 1.565450 1_545
O44 V0 2.015284 1_555
O45 P1 1.561968 1_555
O45 V2 2.017473 1_555
O46 P11 1.565351 1_555
O46 V2 2.012673 1_555
O47 P8 1.562354 1_554
O47 V1 2.024888 1_655
