# generated using pymatgen
data_LiTi3O4
_symmetry_space_group_name_H-M   'P 1'
_cell_length_a   5.15909965
_cell_length_b   5.15909965
_cell_length_c   2.96385800
_cell_angle_alpha   90.00000000
_cell_angle_beta   90.00000000
_cell_angle_gamma   107.84897169
_symmetry_Int_Tables_number   1
_chemical_formula_structural   LiTi3O4
_chemical_formula_sum   'Li1 Ti3 O4'
_cell_volume   75.08995502
_cell_formula_units_Z   1
loop_
 _symmetry_equiv_pos_site_id
 _symmetry_equiv_pos_as_xyz
  1  'x, y, z'
loop_
 _atom_site_type_symbol
 _atom_site_label
 _atom_site_symmetry_multiplicity
 _atom_site_fract_x
 _atom_site_fract_y
 _atom_site_fract_z
 _atom_site_occupancy
  Li  Li0  1  0.50000000  0.50000000  0.50000000  1
  Ti  Ti0  1  0.00000000  0.00000000  0.50000000  1
  Ti  Ti1  1  0.50000000  0.00000000  0.00000000  1
  Ti  Ti2  1  0.00000000  0.50000000  0.00000000  1
  O  O0  1  0.74454200  0.74454200  0.00000000  1
  O  O1  1  0.26084800  0.73915200  0.50000000  1
  O  O2  1  0.25545800  0.25545800  0.00000000  1
  O  O3  1  0.73915200  0.26084800  0.50000000  1
loop_
_geom_bond_atom_site_label_1
_geom_bond_atom_site_label_2
_geom_bond_distance
_geom_bond_site_symmetry_2
Li0 O1 1.994432 1_555
Li0 O3 1.994432 1_555
Li0 O2 2.098509 1_556
Li0 O0 2.098509 1_555
Li0 O0 2.098509 1_556
Li0 O2 2.098509 1_555
O0 Ti1 2.085163 1_565
O0 Ti2 2.085163 1_655
O0 Ti0 2.145980 1_664
O0 Ti0 2.145980 1_665
O1 Ti1 2.124046 1_566
O1 Ti1 2.124046 1_565
O1 Ti2 2.124046 1_556
O1 Ti2 2.124046 1_555
O1 Ti0 2.175367 1_565
O2 Ti2 2.085163 1_555
O2 Ti1 2.085163 1_555
O2 Ti0 2.145980 1_555
O2 Ti0 2.145980 1_554
O3 Ti1 2.124046 1_556
O3 Ti2 2.124046 1_656
O3 Ti2 2.124046 1_655
O3 Ti1 2.124046 1_555
O3 Ti0 2.175367 1_655
