# generated using pymatgen
data_Li2V3CrO8
_symmetry_space_group_name_H-M   'P 1'
_cell_length_a   5.97879709
_cell_length_b   5.97879709
_cell_length_c   5.97879723
_cell_angle_alpha   59.01417358
_cell_angle_beta   59.01417358
_cell_angle_gamma   59.01417013
_symmetry_Int_Tables_number   1
_chemical_formula_structural   Li2V3CrO8
_chemical_formula_sum   'Li2 V3 Cr1 O8'
_cell_volume   147.72355141
_cell_formula_units_Z   1
loop_
 _symmetry_equiv_pos_site_id
 _symmetry_equiv_pos_as_xyz
  1  'x, y, z'
loop_
 _atom_site_type_symbol
 _atom_site_label
 _atom_site_symmetry_multiplicity
 _atom_site_fract_x
 _atom_site_fract_y
 _atom_site_fract_z
 _atom_site_occupancy
  Li  Li0  1  0.87548500  0.87548500  0.87548500  1
  Li  Li1  1  0.12451500  0.12451500  0.12451500  1
  V  V0  1  0.00000000  0.50000000  0.50000000  1
  V  V1  1  0.50000000  0.00000000  0.50000000  1
  V  V2  1  0.50000000  0.50000000  0.00000000  1
  Cr  Cr0  1  0.50000000  0.50000000  0.50000000  1
  O  O0  1  0.73897500  0.73897500  0.73897500  1
  O  O1  1  0.74067800  0.74067800  0.28456200  1
  O  O2  1  0.74067800  0.28456200  0.74067800  1
  O  O3  1  0.28456200  0.74067800  0.74067800  1
  O  O4  1  0.71543800  0.25932200  0.25932200  1
  O  O5  1  0.25932200  0.71543800  0.25932200  1
  O  O6  1  0.25932200  0.25932200  0.71543800  1
  O  O7  1  0.26102500  0.26102500  0.26102500  1
loop_
_geom_bond_atom_site_label_1
_geom_bond_atom_site_label_2
_geom_bond_distance
_geom_bond_site_symmetry_2
Li0 O2 1.972444 1_565
Li0 O3 1.972444 1_655
Li0 O1 1.972444 1_556
Li0 O0 2.013955 1_555
Li1 O5 1.972444 1_545
Li1 O4 1.972444 1_455
Li1 O6 1.972444 1_554
Li1 O7 2.013955 1_555
Cr0 O2 2.028668 1_555
Cr0 O3 2.028668 1_555
Cr0 O5 2.028668 1_555
Cr0 O4 2.028668 1_555
Cr0 O1 2.028668 1_555
Cr0 O6 2.028668 1_555
O0 V0 2.007117 1_655
O0 V1 2.007117 1_565
O0 V2 2.007117 1_556
O1 V1 1.996052 1_565
O1 V0 1.996052 1_655
O2 V2 1.996052 1_556
O2 V0 1.996052 1_655
O3 V2 1.996052 1_556
O3 V1 1.996052 1_565
O4 V2 1.996052 1_555
O4 V1 1.996052 1_555
O5 V2 1.996052 1_555
O5 V0 1.996052 1_555
O6 V0 1.996052 1_555
O6 V1 1.996052 1_555
O7 V1 2.007117 1_555
O7 V0 2.007117 1_555
O7 V2 2.007117 1_555
