# generated using pymatgen
data_LiMnP2O7
_symmetry_space_group_name_H-M   'P 1'
_cell_length_a   9.73095000
_cell_length_b   9.83945325
_cell_length_c   11.07438586
_cell_angle_alpha   100.32973810
_cell_angle_beta   90.04756202
_cell_angle_gamma   90.78956278
_symmetry_Int_Tables_number   1
_chemical_formula_structural   LiMnP2O7
_chemical_formula_sum   'Li8 Mn8 P16 O56'
_cell_volume   1043.05091276
_cell_formula_units_Z   8
loop_
 _symmetry_equiv_pos_site_id
 _symmetry_equiv_pos_as_xyz
  1  'x, y, z'
loop_
 _atom_site_type_symbol
 _atom_site_label
 _atom_site_symmetry_multiplicity
 _atom_site_fract_x
 _atom_site_fract_y
 _atom_site_fract_z
 _atom_site_occupancy
  Li  Li0  1  0.28998100  0.11971900  0.45267500  1
  Li  Li1  1  0.89387800  0.08806700  0.02089200  1
  Li  Li2  1  0.40436400  0.41671100  0.97535100  1
  Li  Li3  1  0.79551900  0.39112500  0.54369300  1
  Li  Li4  1  0.88890600  0.64985000  0.04781400  1
  Li  Li5  1  0.10982600  0.90962100  0.97936500  1
  Li  Li6  1  0.41689100  0.82787000  0.45457000  1
  Li  Li7  1  0.71582100  0.88987900  0.55014300  1
  Mn  Mn0  1  0.07289800  0.19932800  0.66536900  1
  Mn  Mn1  1  0.77408700  0.27805600  0.83915300  1
  Mn  Mn2  1  0.28688600  0.22716600  0.16484100  1
  Mn  Mn3  1  0.57306100  0.30654900  0.33501800  1
  Mn  Mn4  1  0.42325100  0.69995100  0.67326200  1
  Mn  Mn5  1  0.70789600  0.76505300  0.83180200  1
  Mn  Mn6  1  0.22605200  0.71263800  0.16308400  1
  Mn  Mn7  1  0.92825300  0.80609800  0.33601200  1
  P  P0  1  0.55633000  0.02392500  0.75117600  1
  P  P1  1  0.28879600  0.12049700  0.87858200  1
  P  P2  1  0.06821500  0.06057100  0.24374200  1
  P  P3  1  0.84950300  0.13259200  0.43225200  1
  P  P4  1  0.35257100  0.37850800  0.57584100  1
  P  P5  1  0.57775500  0.43224000  0.75859400  1
  P  P6  1  0.93531800  0.53696500  0.76277300  1
  P  P7  1  0.79119900  0.38093100  0.12096900  1
  P  P8  1  0.20873900  0.61421500  0.88097500  1
  P  P9  1  0.06579100  0.46130100  0.24726800  1
  P  P10  1  0.43042700  0.56389400  0.24274500  1
  P  P11  1  0.65267200  0.62943700  0.42550300  1
  P  P12  1  0.14486600  0.87402100  0.56398800  1
  P  P13  1  0.93227000  0.93931800  0.75699000  1
  P  P14  1  0.70998600  0.88173300  0.11895500  1
  P  P15  1  0.43757600  0.96802700  0.23622200  1
  O  O0  1  0.57724700  0.01475900  0.61625000  1
  O  O1  1  0.15459400  0.02562200  0.54843900  1
  O  O2  1  0.92362900  0.08807400  0.72765100  1
  O  O3  1  0.66270300  0.10591900  0.83904800  1
  O  O4  1  0.41263400  0.09918700  0.78036100  1
  O  O5  1  0.17739200  0.19014700  0.81125900  1
  O  O6  1  0.34165200  0.22814400  0.99164200  1
  O  O7  1  0.74680700  0.02126600  0.09643400  1
  O  O8  1  0.93367800  0.13070900  0.30643200  1
  O  O9  1  0.06181200  0.06433100  0.10854400  1
  O  O10  1  0.44700500  0.11556600  0.20109000  1
  O  O11  1  0.71609800  0.20681700  0.41407800  1
  O  O12  1  0.19251100  0.15116200  0.29978000  1
  O  O13  1  0.93193900  0.22386300  0.53655500  1
  O  O14  1  0.42902300  0.29087700  0.46672500  1
  O  O15  1  0.69346400  0.33793200  0.69294000  1
  O  O16  1  0.21453900  0.30767500  0.58966800  1
  O  O17  1  0.93856400  0.39210900  0.80388100  1
  O  O18  1  0.43611600  0.36758700  0.69963300  1
  O  O19  1  0.58083500  0.41071800  0.89033700  1
  O  O20  1  0.24232100  0.47777700  0.91106700  1
  O  O21  1  0.83441900  0.27054600  0.00633300  1
  O  O22  1  0.67115700  0.31874100  0.18604800  1
  O  O23  1  0.91511000  0.39003600  0.21801100  1
  O  O24  1  0.42155900  0.41411700  0.26991500  1
  O  O25  1  0.16192000  0.37172500  0.15257400  1
  O  O26  1  0.89534600  0.53808600  0.63315100  1
  O  O27  1  0.66339100  0.48214100  0.44647500  1
  O  O28  1  0.34680800  0.53248000  0.57057600  1
  O  O29  1  0.09343700  0.46852500  0.37941500  1
  O  O30  1  0.85056800  0.63571400  0.86177500  1
  O  O31  1  0.58910500  0.58238600  0.73678100  1
  O  O32  1  0.08882400  0.59884900  0.77952900  1
  O  O33  1  0.32392800  0.69136600  0.82274500  1
  O  O34  1  0.14960300  0.71662100  0.99608100  1
  O  O35  1  0.76792900  0.51779900  0.08633100  1
  O  O36  1  0.41320800  0.57159400  0.10881300  1
  O  O37  1  0.57665800  0.62490600  0.29427800  1
  O  O38  1  0.05894100  0.60558500  0.19923600  1
  O  O39  1  0.78974600  0.70069700  0.41169500  1
  O  O40  1  0.32291600  0.66789200  0.31022000  1
  O  O41  1  0.56377600  0.72316900  0.52287300  1
  O  O42  1  0.05892800  0.78328800  0.46343100  1
  O  O43  1  0.80760100  0.84854700  0.70106200  1
  O  O44  1  0.28602000  0.81562600  0.58176100  1
  O  O45  1  0.54373100  0.87093000  0.78526500  1
  O  O46  1  0.94116500  0.93416200  0.89187700  1
  O  O47  1  0.06726000  0.87061200  0.69287200  1
  O  O48  1  0.25432700  0.98436400  0.91087600  1
  O  O49  1  0.66158600  0.77677900  0.00464800  1
  O  O50  1  0.82462100  0.80692400  0.18213600  1
  O  O51  1  0.58492800  0.89622300  0.21656300  1
  O  O52  1  0.33553900  0.87791400  0.14899100  1
  O  O53  1  0.07630000  0.91172000  0.27222900  1
  O  O54  1  0.83151400  0.98213600  0.44525600  1
  O  O55  1  0.40937800  0.97584400  0.37115700  1
loop_
_geom_bond_atom_site_label_1
_geom_bond_atom_site_label_2
_geom_bond_distance
_geom_bond_site_symmetry_2
Li0 O55 1.938474 1_545
Li0 O1 2.009587 1_555
Li0 O12 2.013852 1_555
Li0 O14 2.129301 1_555
Li0 O16 2.300837 1_555
Li1 O7 1.831206 1_555
Li1 O21 1.927915 1_555
Li1 O9 1.938155 1_655
Li1 O46 1.946969 1_544
Li2 O20 1.879332 1_555
Li2 O36 1.924261 1_556
Li2 O19 1.955583 1_555
Li2 O6 1.984054 1_555
Li3 O26 1.860648 1_555
Li3 O27 1.997362 1_555
Li3 O15 2.071380 1_555
Li3 O13 2.119144 1_555
Li3 O11 2.229892 1_555
Li4 O35 1.847549 1_555
Li4 O50 2.048516 1_555
Li4 O30 2.073102 1_554
Li4 O38 2.452876 1_655
Li5 O48 1.807391 1_555
Li5 O46 1.944956 1_455
Li5 O9 1.954957 1_566
Li5 O34 1.984076 1_555
Li6 O55 1.861102 1_555
Li6 O44 1.918324 1_555
Li6 O41 1.998677 1_555
Li6 O40 2.219232 1_555
Li7 O0 1.894419 1_565
Li7 O54 1.947517 1_555
Li7 O43 2.001920 1_555
Li7 O41 2.173859 1_555
Li7 O39 2.312674 1_555
Mn0 O5 1.924718 1_555
Mn0 O2 2.003126 1_455
Mn0 O16 2.005240 1_555
Mn0 O13 2.025865 1_455
Mn0 O1 2.115544 1_555
Mn0 O17 2.586114 1_455
Mn1 O21 1.956100 1_556
Mn1 O15 1.984240 1_555
Mn1 O3 1.998052 1_555
Mn1 O17 2.020484 1_555
Mn1 O19 2.316379 1_555
Mn1 O2 2.527220 1_555
Mn2 O25 1.907109 1_555
Mn2 O6 1.992807 1_554
Mn2 O10 1.999711 1_555
Mn2 O12 2.004970 1_555
Mn2 O24 2.370353 1_555
Mn2 O9 2.701011 1_555
Mn3 O22 1.928134 1_555
Mn3 O11 2.002655 1_555
Mn3 O24 2.031841 1_555
Mn3 O14 2.047895 1_555
Mn3 O27 2.114894 1_555
Mn3 O10 2.483876 1_555
Mn4 O33 1.931912 1_555
Mn4 O28 1.963322 1_555
Mn4 O44 2.135131 1_555
Mn4 O31 2.186107 1_555
Mn4 O41 2.197154 1_555
Mn4 O45 2.222192 1_555
Mn5 O49 1.950403 1_556
Mn5 O30 1.963835 1_555
Mn5 O43 2.029657 1_555
Mn5 O45 2.034670 1_555
Mn5 O31 2.221808 1_555
Mn6 O52 1.961535 1_555
Mn6 O34 1.999989 1_554
Mn6 O40 2.000885 1_555
Mn6 O38 2.004817 1_555
Mn6 O36 2.318693 1_555
Mn6 O53 2.579556 1_555
Mn7 O42 1.943437 1_655
Mn7 O39 1.967153 1_555
Mn7 O53 1.969298 1_655
Mn7 O50 1.980719 1_555
Mn7 O54 2.155308 1_555
Mn7 O38 2.608586 1_655
O0 P0 1.494974 1_555
O1 P12 1.533606 1_545
O2 P13 1.558489 1_545
O3 P0 1.537230 1_555
O4 P0 1.597357 1_555
O4 P1 1.614514 1_555
O5 P1 1.550192 1_555
O6 P1 1.569209 1_555
O7 P14 1.478143 1_545
O8 P2 1.589582 1_655
O8 P3 1.614259 1_555
O9 P2 1.505569 1_555
O10 P15 1.570406 1_545
O11 P3 1.528894 1_555
O12 P2 1.553465 1_555
O13 P3 1.546230 1_555
O14 P4 1.550047 1_555
O15 P5 1.563871 1_555
O16 P4 1.525173 1_555
O17 P6 1.572785 1_555
O18 P5 1.598774 1_555
O18 P4 1.614088 1_555
O19 P5 1.511703 1_555
O20 P8 1.480688 1_555
O21 P7 1.577093 1_555
O22 P7 1.548622 1_555
O23 P7 1.605364 1_555
O23 P9 1.623581 1_655
O24 P10 1.557372 1_555
O25 P9 1.563476 1_555
O26 P6 1.488926 1_555
O27 P11 1.513330 1_555
O28 P4 1.528328 1_555
O29 P9 1.476691 1_555
O30 P6 1.570927 1_555
O31 P5 1.541643 1_555
O32 P6 1.603267 1_455
O32 P8 1.605825 1_555
O33 P8 1.549786 1_555
O34 P8 1.589948 1_555
O35 P7 1.485113 1_555
O36 P10 1.507972 1_555
O37 P10 1.600987 1_555
O37 P11 1.623297 1_555
O38 P9 1.605066 1_555
O39 P11 1.518949 1_555
O40 P10 1.567344 1_555
O41 P11 1.558373 1_555
O42 P12 1.535517 1_555
O43 P13 1.556774 1_555
O44 P12 1.522304 1_555
O45 P0 1.619425 1_565
O46 P13 1.506174 1_555
O47 P13 1.593919 1_455
O47 P12 1.620771 1_555
O48 P1 1.481288 1_565
O49 P14 1.551615 1_555
O50 P14 1.575365 1_555
O51 P15 1.604939 1_555
O51 P14 1.619074 1_555
O52 P15 1.540206 1_555
O53 P2 1.555520 1_565
O54 P3 1.520637 1_565
O55 P15 1.508062 1_555
