# generated using pymatgen
data_BaTiFe2(SiO5)2
_symmetry_space_group_name_H-M   'P 1'
_cell_length_a   8.78188653
_cell_length_b   8.78188653
_cell_length_c   12.12138410
_cell_angle_alpha   77.23146572
_cell_angle_beta   77.23146572
_cell_angle_gamma   104.56534813
_symmetry_Int_Tables_number   1
_chemical_formula_structural   BaTiFe2(SiO5)2
_chemical_formula_sum   'Ba4 Ti4 Fe8 Si8 O40'
_cell_volume   843.66843432
_cell_formula_units_Z   4
loop_
 _symmetry_equiv_pos_site_id
 _symmetry_equiv_pos_as_xyz
  1  'x, y, z'
loop_
 _atom_site_type_symbol
 _atom_site_label
 _atom_site_symmetry_multiplicity
 _atom_site_fract_x
 _atom_site_fract_y
 _atom_site_fract_z
 _atom_site_occupancy
  Ba  Ba0  1  0.65889700  0.65889700  0.43223600  1
  Ba  Ba1  1  0.16230600  0.16230600  0.42255900  1
  Ba  Ba2  1  0.11885200  0.62025500  0.56027800  1
  Ba  Ba3  1  0.62025500  0.11885200  0.56027800  1
  Ti  Ti0  1  0.31915900  0.31915900  0.65985100  1
  Ti  Ti1  1  0.81768100  0.81768100  0.66105000  1
  Ti  Ti2  1  0.95248400  0.46812900  0.32546700  1
  Ti  Ti3  1  0.46812900  0.95248400  0.32546700  1
  Fe  Fe0  1  0.00892400  0.00892400  0.98444700  1
  Fe  Fe1  1  0.51157500  0.51157500  0.98519800  1
  Fe  Fe2  1  0.38481200  0.14179900  0.98907500  1
  Fe  Fe3  1  0.14179900  0.38481200  0.98907500  1
  Fe  Fe4  1  0.89033900  0.63767600  0.99602200  1
  Fe  Fe5  1  0.63767600  0.89033900  0.99602200  1
  Fe  Fe6  1  0.26534700  0.76841000  0.00338500  1
  Fe  Fe7  1  0.76841000  0.26534700  0.00338500  1
  Si  Si0  1  0.11120500  0.88468600  0.24056900  1
  Si  Si1  1  0.88468600  0.11120500  0.24056900  1
  Si  Si2  1  0.60495600  0.37638300  0.23694700  1
  Si  Si3  1  0.37638300  0.60495600  0.23694700  1
  Si  Si4  1  0.66894600  0.39750700  0.74991500  1
  Si  Si5  1  0.39750700  0.66894600  0.74991500  1
  Si  Si6  1  0.17005400  0.89850500  0.74755600  1
  Si  Si7  1  0.89850500  0.17005400  0.74755600  1
  O  O0  1  0.02237000  0.02237000  0.25468300  1
  O  O1  1  0.47070200  0.47070200  0.25301900  1
  O  O2  1  0.19193200  0.92687000  0.09429800  1
  O  O3  1  0.92687000  0.19193200  0.09429800  1
  O  O4  1  0.24390600  0.92016600  0.31300700  1
  O  O5  1  0.92016600  0.24390600  0.31300700  1
  O  O6  1  0.98053500  0.70291800  0.29610200  1
  O  O7  1  0.70291800  0.98053500  0.29610200  1
  O  O8  1  0.68814400  0.42063000  0.09132200  1
  O  O9  1  0.42063000  0.68814400  0.09132200  1
  O  O10  1  0.73541200  0.44601700  0.30247200  1
  O  O11  1  0.44601700  0.73541200  0.30247200  1
  O  O12  1  0.50002800  0.18495700  0.30064900  1
  O  O13  1  0.18495700  0.50002800  0.30064900  1
  O  O14  1  0.77937800  0.27981500  0.73208700  1
  O  O15  1  0.27981500  0.77937800  0.73208700  1
  O  O16  1  0.53594600  0.34353800  0.68202100  1
  O  O17  1  0.34353800  0.53594600  0.68202100  1
  O  O18  1  0.78752400  0.58424500  0.69047800  1
  O  O19  1  0.58424500  0.78752400  0.69047800  1
  O  O20  1  0.58880100  0.35230900  0.89572300  1
  O  O21  1  0.35230900  0.58880100  0.89572300  1
  O  O22  1  0.03703000  0.84553100  0.67887500  1
  O  O23  1  0.84553100  0.03703000  0.67887500  1
  O  O24  1  0.28933100  0.08554100  0.68649200  1
  O  O25  1  0.08554100  0.28933100  0.68649200  1
  O  O26  1  0.08777000  0.85529200  0.89461000  1
  O  O27  1  0.85529200  0.08777000  0.89461000  1
  O  O28  1  0.20460400  0.20460400  0.91367500  1
  O  O29  1  0.70411200  0.70411200  0.91944900  1
  O  O30  1  0.58200200  0.06674200  0.07271000  1
  O  O31  1  0.06674200  0.58200200  0.07271000  1
  O  O32  1  0.37611500  0.37611500  0.50669200  1
  O  O33  1  0.87590200  0.87590200  0.50746400  1
  O  O34  1  0.89152800  0.41596500  0.47907400  1
  O  O35  1  0.41596500  0.89152800  0.47907400  1
  O  O36  1  0.31997600  0.31997600  0.06553400  1
  O  O37  1  0.81916800  0.81916800  0.07087000  1
  O  O38  1  0.45416400  0.96019700  0.91950400  1
  O  O39  1  0.96019700  0.45416400  0.91950400  1
loop_
_geom_bond_atom_site_label_1
_geom_bond_atom_site_label_2
_geom_bond_distance
_geom_bond_site_symmetry_2
Ba0 O33 2.793672 1_555
Ba0 O10 2.808027 1_555
Ba0 O11 2.808027 1_555
Ba0 O6 2.821212 1_555
Ba0 O7 2.821212 1_555
Ba0 O32 2.839973 1_555
Ba1 O32 2.830317 1_555
Ba1 O33 2.870735 1_445
Ba1 O5 2.897006 1_455
Ba1 O4 2.897006 1_545
Ba1 O0 2.934676 1_555
Ba1 O12 2.942021 1_555
Ba1 O13 2.942021 1_555
Ba2 O22 2.830596 1_555
Ba2 O34 2.832064 1_455
Ba2 O35 2.855522 1_555
Ba2 O17 2.856251 1_555
Ba2 O25 2.877685 1_555
Ba2 O18 2.888559 1_455
Ba3 O23 2.830596 1_555
Ba3 O35 2.832064 1_545
Ba3 O34 2.855522 1_555
Ba3 O16 2.856251 1_555
Ba3 O24 2.877685 1_555
Ba3 O19 2.888559 1_545
Fe0 O37 1.926472 1_446
Fe0 O28 1.963023 1_555
Fe0 O27 2.066768 1_455
Fe0 O26 2.066768 1_545
Fe0 O2 2.445304 1_546
Fe0 O3 2.445304 1_456
Fe1 O29 1.929708 1_555
Fe1 O36 1.933406 1_556
Fe1 O21 2.101176 1_555
Fe1 O20 2.101176 1_555
Fe1 O8 2.397385 1_556
Fe1 O9 2.397385 1_556
Fe2 O20 2.102565 1_555
Fe2 O2 2.105078 1_546
Fe2 O38 2.116951 1_545
Fe2 O36 2.118344 1_556
Fe2 O28 2.121219 1_555
Fe2 O30 2.348557 1_556
Fe3 O21 2.102565 1_555
Fe3 O3 2.105078 1_456
Fe3 O39 2.116951 1_455
Fe3 O36 2.118344 1_556
Fe3 O28 2.121219 1_555
Fe3 O31 2.348557 1_556
Fe4 O31 2.078365 1_656
Fe4 O26 2.126581 1_655
Fe4 O8 2.130311 1_556
Fe4 O37 2.154919 1_556
Fe4 O39 2.177223 1_555
Fe4 O29 2.188156 1_555
Fe5 O30 2.078365 1_566
Fe5 O27 2.126581 1_565
Fe5 O9 2.130311 1_556
Fe5 O37 2.154919 1_556
Fe5 O38 2.177223 1_555
Fe5 O29 2.188156 1_555
Fe6 O38 1.926954 1_554
Fe6 O31 1.932867 1_555
Fe6 O9 2.070395 1_555
Fe6 O2 2.093226 1_555
Fe6 O26 2.411467 1_554
Fe6 O21 2.418547 1_554
Fe7 O39 1.926954 1_554
Fe7 O30 1.932867 1_555
Fe7 O8 2.070395 1_555
Fe7 O3 2.093226 1_555
Fe7 O27 2.411467 1_554
Fe7 O20 2.418547 1_554
O0 Si1 1.614544 1_455
O0 Si0 1.614544 1_545
O1 Si3 1.604700 1_555
O1 Si2 1.604700 1_555
O2 Si0 1.674918 1_555
O3 Si1 1.674918 1_555
O4 Si0 1.617631 1_555
O4 Ti3 1.962151 1_555
O5 Si1 1.617631 1_555
O5 Ti2 1.962151 1_555
O6 Si0 1.606326 1_655
O6 Ti2 1.954516 1_555
O7 Si1 1.606326 1_565
O7 Ti3 1.954516 1_555
O8 Si2 1.668700 1_555
O9 Si3 1.668700 1_555
O10 Si2 1.606811 1_555
O10 Ti2 1.954992 1_555
O11 Si3 1.606811 1_555
O11 Ti3 1.954992 1_555
O12 Si2 1.613676 1_555
O12 Ti3 1.934045 1_545
O13 Si3 1.613676 1_555
O13 Ti2 1.934045 1_455
O14 Si4 1.601778 1_555
O14 Si7 1.603976 1_555
O15 Si5 1.601778 1_555
O15 Si6 1.603976 1_555
O16 Si4 1.607786 1_555
O16 Ti0 1.946554 1_555
O17 Si5 1.607786 1_555
O17 Ti0 1.946554 1_555
O18 Si4 1.606226 1_555
O18 Ti1 1.939550 1_555
O19 Si5 1.606226 1_555
O19 Ti1 1.939550 1_555
O20 Si4 1.666178 1_555
O21 Si5 1.666178 1_555
O22 Si6 1.613048 1_555
O22 Ti1 1.946149 1_455
O23 Si7 1.613048 1_555
O23 Ti1 1.946149 1_545
O24 Si6 1.611676 1_545
O24 Ti0 1.944594 1_555
O25 Si7 1.611676 1_455
O25 Ti0 1.944594 1_555
O26 Si6 1.684397 1_555
O27 Si7 1.684397 1_555
O30 Ti3 2.859311 1_545
O31 Ti2 2.859311 1_455
O32 Ti0 1.732109 1_555
O33 Ti1 1.736575 1_555
O34 Ti2 1.738464 1_555
O35 Ti3 1.738464 1_555
