# generated using pymatgen
data_Li3NiPCO7
_symmetry_space_group_name_H-M   'P 1'
_cell_length_a   6.34142800
_cell_length_b   8.50219500
_cell_length_c   9.76934385
_cell_angle_alpha   84.95494573
_cell_angle_beta   90.00000000
_cell_angle_gamma   90.00000000
_symmetry_Int_Tables_number   1
_chemical_formula_structural   Li3NiPCO7
_chemical_formula_sum   'Li12 Ni4 P4 C4 O28'
_cell_volume   524.68389726
_cell_formula_units_Z   4
loop_
 _symmetry_equiv_pos_site_id
 _symmetry_equiv_pos_as_xyz
  1  'x, y, z'
loop_
 _atom_site_type_symbol
 _atom_site_label
 _atom_site_symmetry_multiplicity
 _atom_site_fract_x
 _atom_site_fract_y
 _atom_site_fract_z
 _atom_site_occupancy
  Li  Li0  1  0.74870000  0.89986100  0.61664500  1
  Li  Li1  1  0.75130000  0.89986100  0.11664500  1
  Li  Li2  1  0.99029800  0.72044000  0.88064400  1
  Li  Li3  1  0.50970200  0.72044000  0.38064400  1
  Li  Li4  1  0.25271000  0.65214700  0.60982300  1
  Li  Li5  1  0.24729000  0.65214700  0.10982300  1
  Li  Li6  1  0.75271000  0.34785300  0.89017700  1
  Li  Li7  1  0.74729000  0.34785300  0.39017700  1
  Li  Li8  1  0.49029800  0.27956000  0.61935600  1
  Li  Li9  1  0.00970200  0.27956000  0.11935600  1
  Li  Li10  1  0.24870000  0.10013900  0.88335500  1
  Li  Li11  1  0.25130000  0.10013900  0.38335500  1
  Ni  Ni0  1  0.50944900  0.72699200  0.87483200  1
  Ni  Ni1  1  0.99055100  0.72699200  0.37483200  1
  Ni  Ni2  1  0.00944900  0.27300800  0.62516800  1
  Ni  Ni3  1  0.49055100  0.27300800  0.12516800  1
  P  P0  1  0.74811800  0.59084200  0.63945900  1
  P  P1  1  0.75188200  0.59084200  0.13945900  1
  P  P2  1  0.24811800  0.40915800  0.86054100  1
  P  P3  1  0.25188200  0.40915800  0.36054100  1
  C  C0  1  0.24952900  0.96138700  0.64773400  1
  C  C1  1  0.25047100  0.96138700  0.14773400  1
  C  C2  1  0.74952900  0.03861300  0.85226600  1
  C  C3  1  0.75047100  0.03861300  0.35226600  1
  O  O0  1  0.24433100  0.93071400  0.52294600  1
  O  O1  1  0.73756000  0.88999900  0.81958900  1
  O  O2  1  0.25566900  0.93071400  0.02294600  1
  O  O3  1  0.26650700  0.85167100  0.74849000  1
  O  O4  1  0.76244000  0.88999900  0.31958900  1
  O  O5  1  0.23349300  0.85167100  0.24849000  1
  O  O6  1  0.94200400  0.69105300  0.58419200  1
  O  O7  1  0.55548500  0.68445400  0.58280700  1
  O  O8  1  0.94451500  0.68445400  0.08280700  1
  O  O9  1  0.55799600  0.69105300  0.08419200  1
  O  O10  1  0.25886000  0.58008700  0.90447900  1
  O  O11  1  0.74379800  0.58101700  0.80064800  1
  O  O12  1  0.24114000  0.58008700  0.40447900  1
  O  O13  1  0.75620200  0.58101700  0.30064800  1
  O  O14  1  0.24379800  0.41898300  0.69935200  1
  O  O15  1  0.75886000  0.41991300  0.59552100  1
  O  O16  1  0.25620200  0.41898300  0.19935200  1
  O  O17  1  0.74114000  0.41991300  0.09552100  1
  O  O18  1  0.05548500  0.31554600  0.91719300  1
  O  O19  1  0.44200400  0.30894700  0.91580800  1
  O  O20  1  0.44451500  0.31554600  0.41719300  1
  O  O21  1  0.05799600  0.30894700  0.41580800  1
  O  O22  1  0.76650700  0.14832900  0.75151000  1
  O  O23  1  0.23756000  0.11000100  0.68041100  1
  O  O24  1  0.73349300  0.14832900  0.25151000  1
  O  O25  1  0.74433100  0.06928600  0.97705400  1
  O  O26  1  0.26244000  0.11000100  0.18041100  1
  O  O27  1  0.75566900  0.06928600  0.47705400  1
loop_
_geom_bond_atom_site_label_1
_geom_bond_atom_site_label_2
_geom_bond_distance
_geom_bond_site_symmetry_2
Li0 O27 1.895037 1_565
Li0 O1 1.978283 1_555
Li0 O6 2.203165 1_555
Li0 O7 2.251925 1_555
Li1 O25 1.895037 1_564
Li1 O4 1.978283 1_555
Li1 O9 2.203165 1_555
Li1 O8 2.251925 1_555
Li2 O8 1.993050 1_556
Li2 O10 2.080810 1_655
Li2 O11 2.149963 1_555
Li2 O1 2.202619 1_555
Li2 O3 2.392977 1_655
Li3 O7 1.993050 1_555
Li3 O12 2.080810 1_555
Li3 O13 2.149963 1_555
Li3 O4 2.202619 1_555
Li3 O5 2.392977 1_555
Li4 O7 1.954189 1_555
Li4 O6 2.009903 1_455
Li4 O14 2.095988 1_555
Li4 O12 2.149710 1_555
Li4 O3 2.263792 1_555
Li4 O0 2.445218 1_555
Li5 O8 1.954189 1_455
Li5 O9 2.009903 1_555
Li5 O16 2.095988 1_555
Li5 O10 2.149710 1_554
Li5 O5 2.263792 1_555
Li5 O2 2.445218 1_555
Li6 O18 1.954189 1_655
Li6 O19 2.009903 1_555
Li6 O11 2.095988 1_555
Li6 O17 2.149710 1_556
Li6 O22 2.263792 1_555
Li6 O25 2.445218 1_555
Li7 O20 1.954189 1_555
Li7 O21 2.009903 1_655
Li7 O13 2.095988 1_555
Li7 O15 2.149710 1_555
Li7 O24 2.263792 1_555
Li7 O27 2.445218 1_555
Li8 O20 1.993050 1_555
Li8 O15 2.080810 1_555
Li8 O14 2.149963 1_555
Li8 O23 2.202619 1_555
Li8 O22 2.392977 1_555
Li9 O18 1.993050 1_554
Li9 O17 2.080810 1_455
Li9 O16 2.149963 1_555
Li9 O26 2.202619 1_555
Li9 O24 2.392977 1_455
Li10 O2 1.895037 1_546
Li10 O23 1.978283 1_555
Li10 O19 2.203165 1_555
Li10 O18 2.251925 1_555
Li11 O0 1.895037 1_545
Li11 O26 1.978283 1_555
Li11 O21 2.203165 1_555
Li11 O20 2.251925 1_555
Ni0 O10 2.026207 1_555
Ni0 O1 2.042789 1_555
Ni0 O9 2.064344 1_556
Ni0 O11 2.105301 1_555
Ni0 O3 2.188714 1_555
Ni1 O12 2.026207 1_655
Ni1 O4 2.042789 1_555
Ni1 O6 2.064344 1_555
Ni1 O13 2.105301 1_555
Ni1 O5 2.188714 1_655
Ni2 O15 2.026207 1_455
Ni2 O23 2.042789 1_555
Ni2 O21 2.064344 1_555
Ni2 O14 2.105301 1_555
Ni2 O22 2.188714 1_455
Ni3 O17 2.026207 1_555
Ni3 O26 2.042789 1_555
Ni3 O19 2.064344 1_554
Ni3 O16 2.105301 1_555
Ni3 O24 2.188714 1_555
C0 O0 1.269335 1_555
C0 O3 1.299674 1_555
C0 O23 1.332351 1_565
C1 O2 1.269335 1_555
C1 O5 1.299674 1_555
C1 O26 1.332351 1_565
C2 O25 1.269335 1_555
C2 O22 1.299674 1_555
C2 O1 1.332351 1_545
C3 O27 1.269335 1_555
C3 O24 1.299674 1_555
C3 O4 1.332351 1_545
O6 P0 1.564685 1_555
O7 P0 1.534449 1_555
O8 P1 1.534449 1_555
O9 P1 1.564685 1_555
O10 P2 1.552612 1_555
O11 P0 1.569811 1_555
O12 P3 1.552612 1_555
O13 P1 1.569811 1_555
O14 P2 1.569811 1_555
O15 P0 1.552612 1_555
O16 P3 1.569811 1_555
O17 P1 1.552612 1_555
O18 P2 1.534449 1_555
O19 P2 1.564685 1_555
O20 P3 1.534449 1_555
O21 P3 1.564685 1_555
