# generated using pymatgen
data_MnBe2Pt
_symmetry_space_group_name_H-M   'P 1'
_cell_length_a   3.97359603
_cell_length_b   3.97359603
_cell_length_c   3.97359603
_cell_angle_alpha   60.00000000
_cell_angle_beta   60.00000000
_cell_angle_gamma   60.00000000
_symmetry_Int_Tables_number   1
_chemical_formula_structural   MnBe2Pt
_chemical_formula_sum   'Mn1 Be2 Pt1'
_cell_volume   44.36455627
_cell_formula_units_Z   1
loop_
 _symmetry_equiv_pos_site_id
 _symmetry_equiv_pos_as_xyz
  1  'x, y, z'
loop_
 _atom_site_type_symbol
 _atom_site_label
 _atom_site_symmetry_multiplicity
 _atom_site_fract_x
 _atom_site_fract_y
 _atom_site_fract_z
 _atom_site_occupancy
  Mn  Mn0  1  0.25000000  0.25000000  0.25000000  1
  Be  Be0  1  0.49999900  0.49999900  0.49999900  1
  Be  Be1  1  -0.00000000  -0.00000000  -0.00000000  1
  Pt  Pt0  1  0.75000100  0.75000100  0.75000100  1
loop_
_geom_bond_atom_site_label_1
_geom_bond_atom_site_label_2
_geom_bond_distance
_geom_bond_site_symmetry_2
Mn0 Pt0 2.809751 1_544
Mn0 Pt0 2.809751 1_454
Mn0 Pt0 2.809751 1_445
Mn0 Pt0 2.809762 1_545
Mn0 Pt0 2.809762 1_554
Mn0 Pt0 2.809762 1_455
Be0 Mn0 2.433311 1_555
Be0 Pt0 2.433314 1_455
Be0 Pt0 2.433314 1_545
Be0 Pt0 2.433314 1_554
Be0 Mn0 2.433324 1_556
Be0 Mn0 2.433324 1_655
Be0 Mn0 2.433324 1_565
Be0 Pt0 2.433340 1_555
Be1 Pt0 2.433311 1_444
Be1 Mn0 2.433321 1_545
Be1 Mn0 2.433321 1_455
Be1 Mn0 2.433321 1_555
Be1 Mn0 2.433321 1_554
Be1 Pt0 2.433324 1_544
Be1 Pt0 2.433324 1_445
Be1 Pt0 2.433324 1_454
