# generated using pymatgen
data_SmRh2
_symmetry_space_group_name_H-M   'P 1'
_cell_length_a   5.34847141
_cell_length_b   5.34847191
_cell_length_c   5.34847312
_cell_angle_alpha   59.99999884
_cell_angle_beta   59.99999582
_cell_angle_gamma   60.00000758
_symmetry_Int_Tables_number   1
_chemical_formula_structural   SmRh2
_chemical_formula_sum   'Sm2 Rh4'
_cell_volume   108.18678736
_cell_formula_units_Z   2
loop_
 _symmetry_equiv_pos_site_id
 _symmetry_equiv_pos_as_xyz
  1  'x, y, z'
loop_
 _atom_site_type_symbol
 _atom_site_label
 _atom_site_symmetry_multiplicity
 _atom_site_fract_x
 _atom_site_fract_y
 _atom_site_fract_z
 _atom_site_occupancy
  Sm  Sm0  1  0.87500000  0.87500000  0.87500000  1
  Sm  Sm1  1  0.12500000  0.12500000  0.12500000  1
  Rh  Rh0  1  0.50000000  0.50000000  0.50000000  1
  Rh  Rh1  1  0.50000000  0.50000000  0.00000000  1
  Rh  Rh2  1  0.00000000  0.50000000  0.50000000  1
  Rh  Rh3  1  0.50000000  0.00000000  0.50000000  1
loop_
_geom_bond_atom_site_label_1
_geom_bond_atom_site_label_2
_geom_bond_distance
_geom_bond_site_symmetry_2
Rh0 Rh2 2.674236 1_655
Rh0 Rh2 2.674236 1_555
Rh0 Rh3 2.674236 1_555
Rh0 Rh3 2.674236 1_565
Rh0 Rh1 2.674237 1_555
Rh0 Rh1 2.674237 1_556
Rh0 Sm1 3.135820 1_556
Rh0 Sm0 3.135820 1_554
Rh0 Sm0 3.135820 1_455
Rh0 Sm1 3.135820 1_655
Rh0 Sm1 3.135820 1_565
Rh0 Sm0 3.135820 1_545
Rh1 Rh2 2.674236 1_555
Rh1 Rh2 2.674236 1_654
Rh1 Rh3 2.674236 1_564
Rh1 Rh3 2.674236 1_555
Rh1 Sm1 3.135819 1_555
Rh1 Sm0 3.135819 1_554
Rh1 Sm0 3.135820 1_454
Rh1 Sm1 3.135820 1_655
Rh1 Sm0 3.135820 1_544
Rh1 Sm1 3.135820 1_565
Rh2 Rh3 2.674236 1_555
Rh2 Rh3 2.674236 1_465
Rh2 Sm0 3.135819 1_445
Rh2 Sm1 3.135819 1_565
Rh2 Sm0 3.135820 1_455
Rh2 Sm1 3.135820 1_555
Rh2 Sm0 3.135820 1_454
Rh2 Sm1 3.135820 1_556
Rh3 Sm0 3.135819 1_445
Rh3 Sm1 3.135819 1_655
Rh3 Sm0 3.135820 1_545
Rh3 Sm1 3.135820 1_555
Rh3 Sm0 3.135820 1_544
Rh3 Sm1 3.135820 1_556
