# generated using pymatgen
data_Be3Ir
_symmetry_space_group_name_H-M   'P 1'
_cell_length_a   4.29756490
_cell_length_b   4.29756490
_cell_length_c   4.29756490
_cell_angle_alpha   135.37490908
_cell_angle_beta   135.37490908
_cell_angle_gamma   64.94823044
_symmetry_Int_Tables_number   1
_chemical_formula_structural   Be3Ir
_chemical_formula_sum   'Be3 Ir1'
_cell_volume   38.60719409
_cell_formula_units_Z   1
loop_
 _symmetry_equiv_pos_site_id
 _symmetry_equiv_pos_as_xyz
  1  'x, y, z'
loop_
 _atom_site_type_symbol
 _atom_site_label
 _atom_site_symmetry_multiplicity
 _atom_site_fract_x
 _atom_site_fract_y
 _atom_site_fract_z
 _atom_site_occupancy
  Be  Be0  1  0.75000200  0.25000000  0.50000200  1
  Be  Be1  1  0.25000000  0.75000200  0.50000200  1
  Be  Be2  1  0.49999900  0.49999900  0.00000000  1
  Ir  Ir0  1  0.00000000  0.00000000  0.00000000  1
loop_
_geom_bond_atom_site_label_1
_geom_bond_atom_site_label_2
_geom_bond_distance
_geom_bond_site_symmetry_2
Be0 Be1 2.307433 1_645
Be0 Be1 2.307442 1_656
Be0 Be1 2.307442 1_544
Be0 Be1 2.307451 1_555
Be0 Be2 2.438912 1_656
Be0 Ir0 2.438917 1_656
Be0 Be2 2.438921 1_555
Be0 Ir0 2.438922 1_666
Be0 Ir0 2.438922 1_655
Be0 Ir0 2.438926 1_555
Be0 Be2 2.438927 1_556
Be0 Be2 2.438927 1_545
Be1 Be2 2.438912 1_566
Be1 Ir0 2.438917 1_566
Be1 Be2 2.438921 1_555
Be1 Ir0 2.438922 1_666
Be1 Ir0 2.438922 1_565
Be1 Ir0 2.438926 1_555
Be1 Be2 2.438927 1_556
Be1 Be2 2.438927 1_455
Be2 Ir0 2.307442 1_655
Be2 Ir0 2.307442 1_554
Be2 Ir0 2.307442 1_666
Be2 Ir0 2.307442 1_565
