# generated using pymatgen
data_Li3CoO3
_symmetry_space_group_name_H-M   'P 1'
_cell_length_a   8.73879700
_cell_length_b   8.73879700
_cell_length_c   3.62356600
_cell_angle_alpha   90.00000000
_cell_angle_beta   90.00000000
_cell_angle_gamma   90.00000000
_symmetry_Int_Tables_number   1
_chemical_formula_structural   Li3CoO3
_chemical_formula_sum   'Li12 Co4 O12'
_cell_volume   276.71931749
_cell_formula_units_Z   4
loop_
 _symmetry_equiv_pos_site_id
 _symmetry_equiv_pos_as_xyz
  1  'x, y, z'
loop_
 _atom_site_type_symbol
 _atom_site_label
 _atom_site_symmetry_multiplicity
 _atom_site_fract_x
 _atom_site_fract_y
 _atom_site_fract_z
 _atom_site_occupancy
  Li  Li0  1  0.35726600  0.10402800  0.50000000  1
  Li  Li1  1  0.60402800  0.14273400  0.00000000  1
  Li  Li2  1  0.16482200  0.16482200  0.00000000  1
  Li  Li3  1  0.66482200  0.33517800  0.50000000  1
  Li  Li4  1  0.10402800  0.35726600  0.50000000  1
  Li  Li5  1  0.85726600  0.39597200  0.00000000  1
  Li  Li6  1  0.14273400  0.60402800  0.00000000  1
  Li  Li7  1  0.89597200  0.64273400  0.50000000  1
  Li  Li8  1  0.33517800  0.66482200  0.50000000  1
  Li  Li9  1  0.83517800  0.83517800  0.00000000  1
  Li  Li10  1  0.39597200  0.85726600  0.00000000  1
  Li  Li11  1  0.64273400  0.89597200  0.50000000  1
  Co  Co0  1  0.88469900  0.11530100  0.50000000  1
  Co  Co1  1  0.38469900  0.38469900  0.00000000  1
  Co  Co2  1  0.61530100  0.61530100  0.00000000  1
  Co  Co3  1  0.11530100  0.88469900  0.50000000  1
  O  O0  1  0.09928700  0.09928700  0.50000000  1
  O  O1  1  0.67866800  0.11132100  0.50000000  1
  O  O2  1  0.38867900  0.17866800  0.00000000  1
  O  O3  1  0.88867900  0.32133200  0.50000000  1
  O  O4  1  0.17866800  0.38867900  0.00000000  1
  O  O5  1  0.59928700  0.40071300  0.00000000  1
  O  O6  1  0.40071300  0.59928700  0.00000000  1
  O  O7  1  0.82133200  0.61132100  0.00000000  1
  O  O8  1  0.11132100  0.67866800  0.50000000  1
  O  O9  1  0.61132100  0.82133200  0.00000000  1
  O  O10  1  0.32133200  0.88867900  0.50000000  1
  O  O11  1  0.90071300  0.90071300  0.50000000  1
loop_
_geom_bond_atom_site_label_1
_geom_bond_atom_site_label_2
_geom_bond_distance
_geom_bond_site_symmetry_2
Li0 O10 1.907911 1_545
Li0 O2 1.945087 1_556
Li0 O2 1.945087 1_555
Li0 O0 2.254807 1_555
Li1 O2 1.907911 1_555
Li1 O1 1.945087 1_554
Li1 O1 1.945087 1_555
Li1 O5 2.254807 1_555
Li2 O4 1.959979 1_555
Li2 O2 1.959979 1_555
Li2 O0 1.984571 1_555
Li2 O0 1.984571 1_554
Li3 O1 1.959979 1_555
Li3 O3 1.959979 1_555
Li3 O5 1.984571 1_555
Li3 O5 1.984571 1_556
Li4 O3 1.907911 1_455
Li4 O4 1.945087 1_556
Li4 O4 1.945087 1_555
Li4 O0 2.254807 1_555
Li5 O7 1.907911 1_555
Li5 O3 1.945087 1_554
Li5 O3 1.945087 1_555
Li5 O5 2.254807 1_555
Li6 O4 1.907911 1_555
Li6 O8 1.945087 1_555
Li6 O8 1.945087 1_554
Li6 O6 2.254807 1_555
Li7 O8 1.907911 1_655
Li7 O7 1.945087 1_555
Li7 O7 1.945087 1_556
Li7 O11 2.254807 1_555
Li8 O8 1.959979 1_555
Li8 O10 1.959979 1_555
Li8 O6 1.984571 1_556
Li8 O6 1.984571 1_555
Li9 O9 1.959979 1_555
Li9 O7 1.959979 1_555
Li9 O11 1.984571 1_554
Li9 O11 1.984571 1_555
Li10 O9 1.907911 1_555
Li10 O10 1.945087 1_555
Li10 O10 1.945087 1_554
Li10 O6 2.254807 1_555
Li11 O1 1.907911 1_565
Li11 O9 1.945087 1_556
Li11 O9 1.945087 1_555
Li11 O11 2.254807 1_555
Co0 O1 1.800799 1_555
Co0 O3 1.800799 1_555
Co0 O0 1.880455 1_655
Co0 O11 1.880455 1_545
Co1 O4 1.800799 1_555
Co1 O2 1.800799 1_555
Co1 O5 1.880455 1_555
Co1 O6 1.880455 1_555
Co2 O7 1.800799 1_555
Co2 O9 1.800799 1_555
Co2 O5 1.880455 1_555
Co2 O6 1.880455 1_555
Co3 O8 1.800799 1_555
Co3 O10 1.800799 1_555
Co3 O0 1.880455 1_565
Co3 O11 1.880455 1_455
