# generated using pymatgen
data_Li17Fe4(CO3)16
_symmetry_space_group_name_H-M   'P 1'
_cell_length_a   11.27709176
_cell_length_b   9.72902787
_cell_length_c   8.50766122
_cell_angle_alpha   89.40521785
_cell_angle_beta   91.30234117
_cell_angle_gamma   89.83822599
_symmetry_Int_Tables_number   1
_chemical_formula_structural   Li17Fe4(CO3)16
_chemical_formula_sum   'Li17 Fe4 C16 O48'
_cell_volume   933.12347232
_cell_formula_units_Z   1
loop_
 _symmetry_equiv_pos_site_id
 _symmetry_equiv_pos_as_xyz
  1  'x, y, z'
loop_
 _atom_site_type_symbol
 _atom_site_label
 _atom_site_symmetry_multiplicity
 _atom_site_fract_x
 _atom_site_fract_y
 _atom_site_fract_z
 _atom_site_occupancy
  Li  Li0  1  0.07296900  0.62956800  0.56243300  1
  Li  Li1  1  0.15529900  0.14041400  0.55592800  1
  Li  Li2  1  0.15072300  0.35460500  0.04237700  1
  Li  Li3  1  0.23359000  0.89627000  0.69977900  1
  Li  Li4  1  0.22032700  0.60841900  0.19717900  1
  Li  Li5  1  0.32274100  0.65745900  0.53571800  1
  Li  Li6  1  0.31645200  0.83961200  0.04316800  1
  Li  Li7  1  0.42257200  0.41358100  0.08463200  1
  Li  Li8  1  0.57756600  0.90663600  0.41270600  1
  Li  Li9  1  0.67948000  0.16067600  0.95960400  1
  Li  Li10  1  0.66974800  0.34007800  0.46473700  1
  Li  Li11  1  0.77149300  0.39850800  0.80381400  1
  Li  Li12  1  0.77695900  0.10481300  0.29623000  1
  Li  Li13  1  0.84567500  0.64615700  0.95104900  1
  Li  Li14  1  0.85127900  0.85797200  0.44760700  1
  Li  Li15  1  0.94186700  0.12736800  0.94214900  1
  Li  Li16  1  0.92430200  0.36621700  0.45188600  1
  Fe  Fe0  1  0.29680300  0.38642300  0.71121400  1
  Fe  Fe1  1  0.29743900  0.10533500  0.21906500  1
  Fe  Fe2  1  0.70236800  0.89224400  0.78276500  1
  Fe  Fe3  1  0.70524400  0.60387100  0.27899200  1
  C  C0  1  0.03437200  0.37163800  0.74232100  1
  C  C1  1  0.03013700  0.13116600  0.25257500  1
  C  C2  1  0.21159800  0.63318000  0.86052300  1
  C  C3  1  0.20391500  0.86309100  0.37337000  1
  C  C4  1  0.28521900  0.13116900  0.87838900  1
  C  C5  1  0.28246000  0.36575100  0.36887500  1
  C  C6  1  0.49308000  0.85433500  0.70145700  1
  C  C7  1  0.49038100  0.64715300  0.21745000  1
  C  C8  1  0.50792200  0.35545800  0.79243200  1
  C  C9  1  0.51116000  0.15201000  0.28239500  1
  C  C10  1  0.71801700  0.63490500  0.62182200  1
  C  C11  1  0.71534400  0.86840900  0.12709800  1
  C  C12  1  0.79257400  0.13586100  0.63152000  1
  C  C13  1  0.79298100  0.36558500  0.13466800  1
  C  C14  1  0.96489300  0.88097000  0.75211400  1
  C  C15  1  0.96660100  0.61337400  0.26254700  1
  O  O0  1  0.99380700  0.81022100  0.63106800  1
  O  O1  1  0.99092400  0.65424700  0.12521100  1
  O  O2  1  0.01552300  0.99201000  0.78844900  1
  O  O3  1  0.02529000  0.51717000  0.33408100  1
  O  O4  1  0.12451500  0.32283200  0.66365800  1
  O  O5  1  0.11742700  0.16593400  0.16013400  1
  O  O6  1  0.21408200  0.76307600  0.87768200  1
  O  O7  1  0.19471500  0.73146300  0.39376600  1
  O  O8  1  0.19378200  0.54693400  0.97115800  1
  O  O9  1  0.18093100  0.94861900  0.48127100  1
  O  O10  1  0.22840400  0.58307100  0.71627600  1
  O  O11  1  0.23928100  0.91016000  0.23719700  1
  O  O12  1  0.26682100  0.08713900  0.74125400  1
  O  O13  1  0.27953200  0.26310700  0.90956900  1
  O  O14  1  0.26757400  0.41081300  0.22825300  1
  O  O15  1  0.27539500  0.23499200  0.40345500  1
  O  O16  1  0.31206600  0.04703800  0.99523600  1
  O  O17  1  0.30586200  0.45134900  0.48236900  1
  O  O18  1  0.39624500  0.81685200  0.63722700  1
  O  O19  1  0.39014300  0.67521700  0.15623600  1
  O  O20  1  0.44090900  0.45274900  0.85042900  1
  O  O21  1  0.45705200  0.03578500  0.31517400  1
  O  O22  1  0.46045400  0.29604700  0.66990500  1
  O  O23  1  0.45095000  0.23010000  0.18340000  1
  O  O24  1  0.54189100  0.79451600  0.82420100  1
  O  O25  1  0.54905800  0.72643000  0.31415700  1
  O  O26  1  0.55732000  0.95575800  0.64436700  1
  O  O27  1  0.54726200  0.53139500  0.18785400  1
  O  O28  1  0.60687700  0.32033600  0.85370900  1
  O  O29  1  0.61081400  0.18311400  0.34236100  1
  O  O30  1  0.69140500  0.54910500  0.50807400  1
  O  O31  1  0.69349900  0.95489700  0.01166000  1
  O  O32  1  0.72079100  0.76688700  0.58730900  1
  O  O33  1  0.73950400  0.59140400  0.75952800  1
  O  O34  1  0.72500800  0.73831900  0.09429900  1
  O  O35  1  0.72638300  0.91209100  0.26772500  1
  O  O36  1  0.76734100  0.09059800  0.77493300  1
  O  O37  1  0.77663900  0.40603800  0.28234000  1
  O  O38  1  0.80810200  0.04826600  0.52404400  1
  O  O39  1  0.80018600  0.45816800  0.02919800  1
  O  O40  1  0.79997900  0.26727100  0.60922400  1
  O  O41  1  0.80000900  0.23592900  0.10704100  1
  O  O42  1  0.87715000  0.83284200  0.83614200  1
  O  O43  1  0.87911200  0.67196000  0.33840000  1
  O  O44  1  0.97677000  0.47302300  0.68043800  1
  O  O45  1  0.95948000  0.03696300  0.20915800  1
  O  O46  1  0.00666400  0.31577300  0.87326700  1
  O  O47  1  0.01638900  0.19530400  0.38219900  1
loop_
_geom_bond_atom_site_label_1
_geom_bond_atom_site_label_2
_geom_bond_distance
_geom_bond_site_symmetry_2
Li0 O0 2.064736 1_455
Li0 O44 2.128735 1_455
Li0 O10 2.206616 1_555
Li0 O7 2.234847 1_555
Li0 O3 2.293269 1_555
Li1 O9 1.999690 1_545
Li1 O4 2.038390 1_555
Li1 O12 2.055599 1_555
Li1 O15 2.103738 1_555
Li1 O47 2.190278 1_555
Li2 O8 2.024641 1_554
Li2 O13 2.065739 1_554
Li2 O14 2.112703 1_555
Li2 O5 2.120578 1_555
Li2 O46 2.181834 1_554
Li3 O12 1.929975 1_565
Li3 O6 1.998610 1_555
Li3 O9 1.999086 1_555
Li3 O18 2.071155 1_555
Li4 O14 2.006763 1_555
Li4 O8 2.035621 1_554
Li4 O19 2.060017 1_555
Li4 O7 2.091717 1_555
Li5 O18 1.959648 1_555
Li5 O7 1.989507 1_555
Li5 O10 2.017618 1_555
Li5 O17 2.068909 1_555
Li6 O6 1.955019 1_554
Li6 O11 2.009683 1_555
Li6 O19 2.024410 1_555
Li6 O16 2.054924 1_564
Li7 O23 1.987072 1_555
Li7 O27 2.009006 1_555
Li7 O20 2.039980 1_554
Li7 O14 2.155372 1_555
Li8 O25 1.975238 1_555
Li8 O21 2.007923 1_565
Li8 O26 2.050449 1_555
Li8 O35 2.105679 1_555
Li8 O32 2.549613 1_555
Li9 O28 1.955785 1_555
Li9 O41 1.975870 1_556
Li9 O36 2.001038 1_555
Li9 O31 2.050823 1_546
Li10 O29 1.965961 1_555
Li10 O40 2.015848 1_555
Li10 O37 2.083643 1_555
Li10 O30 2.084589 1_555
Li11 O33 1.941488 1_555
Li11 O39 2.028383 1_556
Li11 O28 2.059583 1_555
Li11 O40 2.130699 1_555
Li12 O35 1.977099 1_545
Li12 O38 2.031826 1_555
Li12 O41 2.064882 1_555
Li12 O29 2.067953 1_555
Li12 O45 2.300634 1_555
Li13 O39 2.011421 1_556
Li13 O34 2.057218 1_556
Li13 O33 2.074889 1_555
Li13 O42 2.088787 1_555
Li13 O1 2.185747 1_556
Li14 O38 2.030237 1_565
Li14 O43 2.069243 1_555
Li14 O32 2.104353 1_555
Li14 O35 2.117581 1_555
Li14 O0 2.258784 1_555
Li15 O2 2.052561 1_645
Li15 O46 2.059608 1_655
Li15 O41 2.401237 1_556
Li15 O45 2.431122 1_556
Li15 O36 2.431600 1_555
Li16 O47 2.057569 1_655
Li16 O3 2.118752 1_655
Li16 O40 2.179511 1_555
Li16 O37 2.208895 1_555
Li16 O44 2.281193 1_555
Fe0 O17 2.045451 1_555
Fe0 O10 2.062043 1_555
Fe0 O4 2.073065 1_555
Fe0 O13 2.073482 1_555
Fe0 O22 2.080688 1_555
Fe0 O20 2.096287 1_555
Fe1 O16 2.002818 1_554
Fe1 O11 2.016227 1_545
Fe1 O15 2.042294 1_555
Fe1 O21 2.069072 1_555
Fe1 O23 2.142541 1_555
Fe1 O5 2.158876 1_555
Fe2 O31 2.051079 1_556
Fe2 O36 2.067106 1_565
Fe2 O24 2.082093 1_555
Fe2 O26 2.082169 1_555
Fe2 O32 2.086173 1_555
Fe2 O42 2.091080 1_555
Fe3 O30 2.024698 1_555
Fe3 O34 2.050503 1_555
Fe3 O27 2.056226 1_555
Fe3 O37 2.083907 1_555
Fe3 O43 2.123196 1_555
Fe3 O25 2.152449 1_555
C0 O46 1.279979 1_555
C0 O44 1.281458 1_455
C0 O4 1.319667 1_555
C1 O45 1.268499 1_455
C1 O47 1.284946 1_555
C1 O5 1.316617 1_555
C2 O6 1.273983 1_555
C2 O8 1.274178 1_555
C2 O10 1.342419 1_555
C3 O9 1.275826 1_555
C3 O7 1.295298 1_555
C3 O11 1.312227 1_555
C4 O12 1.260002 1_555
C4 O16 1.310677 1_555
C4 O13 1.315128 1_555
C5 O14 1.277199 1_555
C5 O17 1.304551 1_555
C5 O15 1.305815 1_555
C6 O18 1.266236 1_555
C6 O24 1.300625 1_555
C6 O26 1.320784 1_555
C7 O19 1.261785 1_555
C7 O25 1.304212 1_555
C7 O27 1.323769 1_555
C8 O28 1.265516 1_555
C8 O22 1.302371 1_555
C8 O20 1.316480 1_555
C9 O29 1.262480 1_555
C9 O23 1.305899 1_555
C9 O21 1.316733 1_555
C10 O33 1.259602 1_555
C10 O30 1.314670 1_555
C10 O32 1.314843 1_555
C11 O35 1.277334 1_555
C11 O34 1.303666 1_555
C11 O31 1.305345 1_555
C12 O38 1.271070 1_555
C12 O40 1.293748 1_555
C12 O36 1.329998 1_555
C13 O39 1.268873 1_555
C13 O41 1.288084 1_555
C13 O37 1.337026 1_555
C14 O2 1.261356 1_655
C14 O0 1.292030 1_555
C14 O42 1.318031 1_555
C15 O1 1.266523 1_555
C15 O3 1.284843 1_655
C15 O43 1.322180 1_555
