# generated using pymatgen
data_Li2Ti2NiO6
_symmetry_space_group_name_H-M   'P 1'
_cell_length_a   5.10499041
_cell_length_b   20.75183600
_cell_length_c   5.16663884
_cell_angle_alpha   89.99999706
_cell_angle_beta   119.60624156
_cell_angle_gamma   90.00002253
_symmetry_Int_Tables_number   1
_chemical_formula_structural   Li2Ti2NiO6
_chemical_formula_sum   'Li8 Ti8 Ni4 O24'
_cell_volume   475.88250147
_cell_formula_units_Z   4
loop_
 _symmetry_equiv_pos_site_id
 _symmetry_equiv_pos_as_xyz
  1  'x, y, z'
loop_
 _atom_site_type_symbol
 _atom_site_label
 _atom_site_symmetry_multiplicity
 _atom_site_fract_x
 _atom_site_fract_y
 _atom_site_fract_z
 _atom_site_occupancy
  Li  Li0  1  0.16510900  0.37495400  0.50005100  1
  Li  Li1  1  0.16505800  0.87504600  0.49994900  1
  Li  Li2  1  0.33488100  0.12500000  0.50000000  1
  Li  Li3  1  0.33490700  0.62500000  0.50000000  1
  Li  Li4  1  0.66505800  0.37495400  0.49994900  1
  Li  Li5  1  0.66510900  0.87504600  0.50005100  1
  Li  Li6  1  0.83488100  0.12500000  0.50000000  1
  Li  Li7  1  0.83490800  0.62500000  0.50000000  1
  Ti  Ti0  1  0.16084600  0.25006600  0.32161500  1
  Ti  Ti1  1  0.16078300  0.74992300  0.32158900  1
  Ti  Ti2  1  0.33923100  0.99993500  0.67838400  1
  Ti  Ti3  1  0.33919600  0.50007700  0.67841200  1
  Ti  Ti4  1  0.66084600  0.99993500  0.32161500  1
  Ti  Ti5  1  0.66078400  0.50007700  0.32158800  1
  Ti  Ti6  1  0.83923100  0.25006600  0.67838500  1
  Ti  Ti7  1  0.83919500  0.74992300  0.67841100  1
  Ni  Ni0  1  0.00049000  0.49969700  0.00000100  1
  Ni  Ni1  1  0.50048800  0.75030300  0.00000300  1
  Ni  Ni2  1  0.99955300  0.00026300  0.99999900  1
  Ni  Ni3  1  0.49955000  0.24973600  0.99999700  1
  O  O0  1  0.15400700  0.29928300  0.00000000  1
  O  O1  1  0.15413000  0.79931100  0.00000000  1
  O  O2  1  0.34598800  0.04932900  0.00000000  1
  O  O3  1  0.34585500  0.54927700  0.00000000  1
  O  O4  1  0.65413000  0.45068900  0.00000000  1
  O  O5  1  0.65400700  0.95071700  0.00000000  1
  O  O6  1  0.84598700  0.20067100  0.00000000  1
  O  O7  1  0.84585500  0.70072300  0.00000000  1
  O  O8  1  0.00411900  0.05363700  0.36419000  1
  O  O9  1  0.00413300  0.55359100  0.36407100  1
  O  O10  1  0.99588000  0.44638000  0.63593300  1
  O  O11  1  0.99585400  0.94640600  0.63580900  1
  O  O12  1  0.13993000  0.19636300  0.63581100  1
  O  O13  1  0.14006200  0.69640900  0.63592900  1
  O  O14  1  0.49585400  0.30359400  0.63580900  1
  O  O15  1  0.49588100  0.80362000  0.63593400  1
  O  O16  1  0.35994600  0.44638000  0.36406600  1
  O  O17  1  0.36004400  0.94640600  0.36419000  1
  O  O18  1  0.50411800  0.19636300  0.36418900  1
  O  O19  1  0.50413300  0.69640900  0.36407200  1
  O  O20  1  0.86004500  0.30359300  0.36419000  1
  O  O21  1  0.85994700  0.80362000  0.36406700  1
  O  O22  1  0.63992900  0.05363700  0.63581100  1
  O  O23  1  0.64006300  0.55359100  0.63592900  1
loop_
_geom_bond_atom_site_label_1
_geom_bond_atom_site_label_2
_geom_bond_distance
_geom_bond_site_symmetry_2
Li0 O20 2.007712 1_455
Li0 O10 2.008851 1_455
Li0 O14 2.089399 1_555
Li0 O16 2.090550 1_555
Li1 O11 2.007700 1_455
Li1 O21 2.008848 1_455
Li1 O17 2.089401 1_555
Li1 O15 2.090552 1_555
Li2 O22 2.007703 1_555
Li2 O18 2.007704 1_555
Li2 O8 2.089481 1_555
Li2 O12 2.089484 1_555
Li3 O19 2.008714 1_555
Li3 O23 2.008719 1_555
Li3 O9 2.090158 1_555
Li3 O13 2.090161 1_555
Li4 O14 2.007699 1_555
Li4 O16 2.008852 1_555
Li4 O20 2.089419 1_555
Li4 O10 2.090548 1_555
Li5 O17 2.007700 1_555
Li5 O15 2.008850 1_555
Li5 O11 2.089398 1_555
Li5 O21 2.090551 1_555
Li6 O8 2.007705 1_655
Li6 O12 2.007705 1_655
Li6 O18 2.089485 1_555
Li6 O22 2.089487 1_555
Li7 O13 2.008712 1_655
Li7 O9 2.008715 1_655
Li7 O23 2.090161 1_555
Li7 O19 2.090163 1_555
Ni0 O4 2.039779 1_455
Ni0 O3 2.041338 1_555
Ni0 O16 2.172353 1_555
Ni0 O10 2.172368 1_454
Ni0 O9 2.180557 1_555
Ni0 O23 2.180558 1_454
Ni1 O1 2.039766 1_555
Ni1 O7 2.041352 1_555
Ni1 O21 2.172356 1_555
Ni1 O15 2.172379 1_554
Ni1 O19 2.180548 1_555
Ni1 O13 2.180559 1_554
Ni2 O2 2.040711 1_656
Ni2 O5 2.041781 1_546
Ni2 O22 2.173598 1_555
Ni2 O8 2.173611 1_656
Ni2 O17 2.180575 1_646
Ni2 O11 2.180576 1_545
Ni3 O6 2.040705 1_556
Ni3 O0 2.041783 1_556
Ni3 O12 2.173574 1_555
Ni3 O18 2.173601 1_556
Ni3 O14 2.180584 1_555
Ni3 O20 2.180587 1_556
O0 Ti6 1.936018 1_454
O0 Ti0 1.936022 1_555
O1 Ti7 1.938162 1_454
O1 Ti1 1.938168 1_555
O2 Ti4 1.938129 1_545
O2 Ti2 1.938136 1_544
O3 Ti5 1.936087 1_555
O3 Ti3 1.936091 1_554
O4 Ti3 1.938158 1_554
O4 Ti5 1.938161 1_555
O5 Ti2 1.936032 1_554
O5 Ti4 1.936033 1_555
O6 Ti0 1.938141 1_655
O6 Ti6 1.938145 1_554
O7 Ti1 1.936087 1_655
O7 Ti7 1.936093 1_554
O8 Ti4 1.995082 1_445
O8 Ti2 2.014890 1_545
O9 Ti5 1.993380 1_455
O9 Ti3 2.012916 1_555
O10 Ti3 1.995366 1_655
O10 Ti5 2.015097 1_555
O11 Ti2 1.993517 1_655
O11 Ti4 2.012667 1_555
O12 Ti6 1.995097 1_455
O12 Ti0 2.014909 1_555
O13 Ti7 1.993383 1_455
O13 Ti1 2.012913 1_555
O14 Ti6 1.993504 1_555
O14 Ti0 2.012655 1_555
O15 Ti7 1.995361 1_555
O15 Ti1 2.015101 1_555
O16 Ti5 1.995368 1_555
O16 Ti3 2.015103 1_555
O17 Ti4 1.993518 1_555
O17 Ti2 2.012668 1_555
O18 Ti0 1.995092 1_555
O18 Ti6 2.014907 1_555
O19 Ti1 1.993385 1_555
O19 Ti7 2.012909 1_555
O20 Ti0 1.993491 1_655
O20 Ti6 2.012652 1_555
O21 Ti1 1.995360 1_655
O21 Ti7 2.015099 1_555
O22 Ti2 1.995078 1_545
O22 Ti4 2.014900 1_545
O23 Ti3 1.993385 1_555
O23 Ti5 2.012917 1_555
