# generated using pymatgen
data_AcGa3
_symmetry_space_group_name_H-M   'P 1'
_cell_length_a   6.86337082
_cell_length_b   6.86337059
_cell_length_c   4.60482279
_cell_angle_alpha   90.00000000
_cell_angle_beta   90.00000000
_cell_angle_gamma   119.99999103
_symmetry_Int_Tables_number   1
_chemical_formula_structural   AcGa3
_chemical_formula_sum   'Ac2 Ga6'
_cell_volume   187.85316029
_cell_formula_units_Z   2
loop_
 _symmetry_equiv_pos_site_id
 _symmetry_equiv_pos_as_xyz
  1  'x, y, z'
loop_
 _atom_site_type_symbol
 _atom_site_label
 _atom_site_symmetry_multiplicity
 _atom_site_fract_x
 _atom_site_fract_y
 _atom_site_fract_z
 _atom_site_occupancy
  Ac  Ac0  1  0.33333300  0.66666600  0.75000000  1
  Ac  Ac1  1  0.66666600  0.33333200  0.25000100  1
  Ga  Ga0  1  0.13147800  0.26295699  0.25000100  1
  Ga  Ga1  1  0.73704501  0.86852200  0.25000100  1
  Ga  Ga2  1  0.13147700  0.86852200  0.25000100  1
  Ga  Ga3  1  0.86852200  0.73704401  0.75000000  1
  Ga  Ga4  1  0.26295499  0.13147700  0.75000000  1
  Ga  Ga5  1  0.86852200  0.13147700  0.75000000  1
loop_
_geom_bond_atom_site_label_1
_geom_bond_atom_site_label_2
_geom_bond_distance
_geom_bond_site_symmetry_2
Ac0 Ga0 3.325522 1_555
Ac0 Ga0 3.325528 1_556
Ac0 Ga2 3.325535 1_555
Ac0 Ga1 3.325535 1_555
Ac0 Ga2 3.325541 1_556
Ac0 Ga1 3.325541 1_556
Ac0 Ga4 3.457087 1_565
Ac0 Ga4 3.457087 1_555
Ac0 Ga3 3.457087 1_455
Ac0 Ga3 3.457087 1_555
Ac0 Ga5 3.457088 1_455
Ac0 Ga5 3.457088 1_565
Ac1 Ga5 3.325530 1_555
Ac1 Ga4 3.325531 1_555
Ac1 Ga3 3.325535 1_555
Ac1 Ga5 3.325537 1_554
Ac1 Ga4 3.325537 1_554
Ac1 Ga3 3.325541 1_554
Ac1 Ga0 3.457082 1_655
Ac1 Ga1 3.457085 1_545
Ac1 Ga2 3.457085 1_545
Ac1 Ga0 3.457089 1_555
Ac1 Ga1 3.457091 1_555
Ac1 Ga2 3.457092 1_655
Ga0 Ga1 2.707147 1_445
Ga0 Ga2 2.707150 1_545
Ga0 Ga5 2.782797 1_455
Ga0 Ga4 2.782800 1_555
Ga0 Ga5 2.782805 1_454
Ga0 Ga4 2.782808 1_554
Ga1 Ga2 2.707133 1_655
Ga1 Ga3 2.782793 1_555
Ga1 Ga5 2.782794 1_565
Ga1 Ga3 2.782801 1_554
Ga1 Ga5 2.782801 1_564
Ga2 Ga4 2.782794 1_565
Ga2 Ga3 2.782794 1_455
Ga2 Ga4 2.782801 1_564
Ga2 Ga3 2.782801 1_454
Ga3 Ga5 2.707140 1_565
Ga3 Ga4 2.707140 1_665
Ga4 Ga5 2.707140 1_455
