# generated using pymatgen
data_LiZnAg2
_symmetry_space_group_name_H-M   'P 1'
_cell_length_a   4.41265109
_cell_length_b   4.41265109
_cell_length_c   4.41265109
_cell_angle_alpha   60.00000000
_cell_angle_beta   60.00000000
_cell_angle_gamma   60.00000000
_symmetry_Int_Tables_number   1
_chemical_formula_structural   LiZnAg2
_chemical_formula_sum   'Li1 Zn1 Ag2'
_cell_volume   60.75524403
_cell_formula_units_Z   1
loop_
 _symmetry_equiv_pos_site_id
 _symmetry_equiv_pos_as_xyz
  1  'x, y, z'
loop_
 _atom_site_type_symbol
 _atom_site_label
 _atom_site_symmetry_multiplicity
 _atom_site_fract_x
 _atom_site_fract_y
 _atom_site_fract_z
 _atom_site_occupancy
  Li  Li0  1  0.25000000  0.25000000  0.25000000  1
  Zn  Zn0  1  0.74999900  0.74999900  0.74999900  1
  Ag  Ag0  1  -0.00000000  -0.00000000  0.00000000  1
  Ag  Ag1  1  0.50000100  0.50000100  0.50000100  1
loop_
_geom_bond_atom_site_label_1
_geom_bond_atom_site_label_2
_geom_bond_distance
_geom_bond_site_symmetry_2
Ag0 Zn0 2.702182 1_445
Ag0 Zn0 2.702182 1_454
Ag0 Zn0 2.702182 1_544
Ag0 Li0 2.702186 1_555
Ag0 Li0 2.702186 1_554
Ag0 Li0 2.702186 1_545
Ag0 Li0 2.702186 1_455
Ag0 Zn0 2.702197 1_444
Ag1 Zn0 2.702164 1_555
Ag1 Li0 2.702182 1_556
Ag1 Li0 2.702182 1_565
Ag1 Li0 2.702182 1_655
Ag1 Zn0 2.702193 1_554
Ag1 Zn0 2.702193 1_455
Ag1 Zn0 2.702193 1_545
Ag1 Li0 2.702197 1_555
