# generated using pymatgen
data_As3Rh
_symmetry_space_group_name_H-M   'P 1'
_cell_length_a   7.36176340
_cell_length_b   7.36176345
_cell_length_c   7.36176468
_cell_angle_alpha   109.47122403
_cell_angle_beta   109.47122417
_cell_angle_gamma   109.47122093
_symmetry_Int_Tables_number   1
_chemical_formula_structural   As3Rh
_chemical_formula_sum   'As12 Rh4'
_cell_volume   307.13104342
_cell_formula_units_Z   4
loop_
 _symmetry_equiv_pos_site_id
 _symmetry_equiv_pos_as_xyz
  1  'x, y, z'
loop_
 _atom_site_type_symbol
 _atom_site_label
 _atom_site_symmetry_multiplicity
 _atom_site_fract_x
 _atom_site_fract_y
 _atom_site_fract_z
 _atom_site_occupancy
  As  As0  1  0.50592387  0.85417478  0.65175108  1
  As  As1  1  0.20242270  0.85417478  0.34824892  1
  As  As2  1  0.79757730  0.14582522  0.65175108  1
  As  As3  1  0.14582522  0.34824892  0.49407613  1
  As  As4  1  0.49407613  0.14582522  0.34824892  1
  As  As5  1  0.14582522  0.65175108  0.79757730  1
  As  As6  1  0.34824892  0.20242270  0.85417478  1
  As  As7  1  0.85417478  0.65175108  0.50592387  1
  As  As8  1  0.65175108  0.79757730  0.14582522  1
  As  As9  1  0.85417478  0.34824892  0.20242270  1
  As  As10  1  0.65175108  0.50592387  0.85417478  1
  As  As11  1  0.34824892  0.49407613  0.14582522  1
  Rh  Rh0  1  0.50000000  0.00000000  -0.00000000  1
  Rh  Rh1  1  0.00000000  0.00000000  0.50000000  1
  Rh  Rh2  1  0.00000000  0.50000000  -0.00000000  1
  Rh  Rh3  1  0.50000000  0.50000000  0.50000000  1
loop_
_geom_bond_atom_site_label_1
_geom_bond_atom_site_label_2
_geom_bond_distance
_geom_bond_site_symmetry_2
As0 Rh0 2.449078 1_566
As0 Rh3 2.449093 1_555
As0 As2 2.479226 1_565
As0 As1 2.579956 1_555
As1 Rh1 2.449079 1_565
As1 Rh2 2.449086 1_555
As1 As4 2.479226 1_565
As2 Rh1 2.449079 1_655
As2 Rh2 2.449086 1_656
As2 As4 2.579956 1_555
As3 Rh1 2.449078 1_555
As3 Rh3 2.449093 1_555
As3 As9 2.479226 1_455
As3 As5 2.579956 1_555
As4 Rh0 2.449078 1_555
As4 Rh3 2.449093 1_555
As5 Rh2 2.449079 1_556
As5 Rh0 2.449086 1_566
As5 As7 2.479226 1_455
As6 Rh0 2.449079 1_556
As6 Rh1 2.449086 1_555
As7 Rh1 2.449078 1_665
As7 Rh3 2.449093 1_555
As7 As9 2.579956 1_555
As8 Rh0 2.449079 1_565
As8 Rh1 2.449086 1_665
As9 Rh2 2.449079 1_655
As9 Rh0 2.449086 1_555
As10 Rh2 2.449078 1_656
As10 Rh3 2.449093 1_555
As10 As8 2.479226 1_556
As10 As6 2.579956 1_555
As11 Rh2 2.449078 1_555
As11 Rh3 2.449093 1_555
As11 As6 2.479226 1_554
As11 As8 2.579956 1_555
