# generated using pymatgen
data_YAlAg2
_symmetry_space_group_name_H-M   'P 1'
_cell_length_a   4.80601465
_cell_length_b   4.80601465
_cell_length_c   4.80601465
_cell_angle_alpha   60.00000000
_cell_angle_beta   60.00000000
_cell_angle_gamma   60.00000000
_symmetry_Int_Tables_number   1
_chemical_formula_structural   YAlAg2
_chemical_formula_sum   'Y1 Al1 Ag2'
_cell_volume   78.49468904
_cell_formula_units_Z   1
loop_
 _symmetry_equiv_pos_site_id
 _symmetry_equiv_pos_as_xyz
  1  'x, y, z'
loop_
 _atom_site_type_symbol
 _atom_site_label
 _atom_site_symmetry_multiplicity
 _atom_site_fract_x
 _atom_site_fract_y
 _atom_site_fract_z
 _atom_site_occupancy
  Y  Y0  1  0.75000000  0.75000000  0.75000000  1
  Al  Al0  1  0.24999900  0.24999900  0.24999900  1
  Ag  Ag0  1  0.50000100  0.50000100  0.50000100  1
  Ag  Ag1  1  -0.00000000  -0.00000000  -0.00000000  1
loop_
_geom_bond_atom_site_label_1
_geom_bond_atom_site_label_2
_geom_bond_distance
_geom_bond_site_symmetry_2
Ag0 Y0 2.943059 1_555
Ag0 Al0 2.943063 1_655
Ag0 Al0 2.943063 1_565
Ag0 Al0 2.943063 1_556
Ag0 Y0 2.943075 1_545
Ag0 Y0 2.943075 1_554
Ag0 Y0 2.943075 1_455
Ag0 Al0 2.943094 1_555
Ag1 Al0 2.943059 1_555
Ag1 Y0 2.943071 1_445
Ag1 Y0 2.943071 1_544
Ag1 Y0 2.943071 1_454
Ag1 Y0 2.943071 1_444
Ag1 Al0 2.943075 1_545
Ag1 Al0 2.943075 1_554
Ag1 Al0 2.943075 1_455
