# generated using pymatgen
data_Yb4Ni13C4
_symmetry_space_group_name_H-M   'P 1'
_cell_length_a   8.27477703
_cell_length_b   8.27477703
_cell_length_c   3.84563000
_cell_angle_alpha   90.00000000
_cell_angle_beta   90.00000000
_cell_angle_gamma   90.58578317
_symmetry_Int_Tables_number   1
_chemical_formula_structural   Yb4Ni13C4
_chemical_formula_sum   'Yb4 Ni13 C4'
_cell_volume   263.30396517
_cell_formula_units_Z   1
loop_
 _symmetry_equiv_pos_site_id
 _symmetry_equiv_pos_as_xyz
  1  'x, y, z'
loop_
 _atom_site_type_symbol
 _atom_site_label
 _atom_site_symmetry_multiplicity
 _atom_site_fract_x
 _atom_site_fract_y
 _atom_site_fract_z
 _atom_site_occupancy
  Yb  Yb0  1  0.80881000  0.19119000  0.50000000  1
  Yb  Yb1  1  0.19119000  0.80881000  0.50000000  1
  Yb  Yb2  1  0.34988700  0.34988700  0.50000000  1
  Yb  Yb3  1  0.65011300  0.65011300  0.50000000  1
  Ni  Ni0  1  0.00000000  0.00000000  0.00000000  1
  Ni  Ni1  1  0.21584700  0.57174900  0.00000000  1
  Ni  Ni2  1  0.78415300  0.42825100  0.00000000  1
  Ni  Ni3  1  0.42825100  0.78415300  0.00000000  1
  Ni  Ni4  1  0.57174900  0.21584700  0.00000000  1
  Ni  Ni5  1  0.00000000  0.50000000  0.50000000  1
  Ni  Ni6  1  0.50000000  0.00000000  0.50000000  1
  Ni  Ni7  1  0.07294500  0.28911900  0.00000000  1
  Ni  Ni8  1  0.92705500  0.71088100  0.00000000  1
  Ni  Ni9  1  0.71088100  0.92705500  0.00000000  1
  Ni  Ni10  1  0.28911900  0.07294500  0.00000000  1
  Ni  Ni11  1  0.12183000  0.12183000  0.50000000  1
  Ni  Ni12  1  0.87817000  0.87817000  0.50000000  1
  C  C0  1  0.00000000  0.50000000  0.00000000  1
  C  C1  1  0.50000000  0.00000000  0.00000000  1
  C  C2  1  0.44314700  0.55685300  0.00000000  1
  C  C3  1  0.55685300  0.44314700  0.00000000  1
loop_
_geom_bond_atom_site_label_1
_geom_bond_atom_site_label_2
_geom_bond_distance
_geom_bond_site_symmetry_2
Ni0 Ni11 2.389358 1_555
Ni0 Ni12 2.389358 1_444
Ni0 Ni12 2.389358 1_445
Ni0 Ni11 2.389358 1_554
Ni0 Ni10 2.461375 1_555
Ni0 Ni7 2.461375 1_555
Ni0 Ni8 2.461375 1_445
Ni0 Ni9 2.461375 1_445
Ni0 Yb0 2.958748 1_454
Ni0 Yb1 2.958748 1_544
Ni0 Yb1 2.958748 1_545
Ni0 Yb0 2.958748 1_455
Ni1 Yb1 2.755905 1_555
Ni1 Yb1 2.755905 1_554
Ni1 Yb2 2.887810 1_554
Ni1 Yb2 2.887810 1_555
Ni2 Yb0 2.755905 1_555
Ni2 Yb0 2.755905 1_554
Ni2 Yb3 2.887810 1_555
Ni2 Yb3 2.887810 1_554
Ni3 Yb1 2.755905 1_555
Ni3 Yb1 2.755905 1_554
Ni3 Yb3 2.887810 1_555
Ni3 Yb3 2.887810 1_554
Ni4 Yb0 2.755905 1_555
Ni4 Yb0 2.755905 1_554
Ni4 Yb2 2.887810 1_554
Ni4 Yb2 2.887810 1_555
Ni5 Yb0 2.991649 1_455
Ni5 Yb1 2.991649 1_555
Ni5 Yb3 3.162099 1_455
Ni5 Yb2 3.162099 1_555
Ni6 Yb0 2.991649 1_555
Ni6 Yb1 2.991649 1_545
Ni6 Yb2 3.162099 1_555
Ni6 Yb3 3.162099 1_545
Ni7 Yb0 3.015751 1_455
Ni7 Yb0 3.015751 1_454
Ni7 Yb2 3.029536 1_555
Ni7 Yb2 3.029536 1_554
Ni8 Yb1 3.015751 1_655
Ni8 Yb1 3.015751 1_654
Ni8 Yb3 3.029536 1_554
Ni8 Yb3 3.029536 1_555
Ni9 Yb0 3.015751 1_565
Ni9 Yb0 3.015751 1_564
Ni9 Yb3 3.029536 1_554
Ni9 Yb3 3.029536 1_555
Ni10 Ni11 2.405936 1_555
Ni10 Ni11 2.405936 1_554
Ni10 Yb1 3.015751 1_544
Ni10 Yb1 3.015751 1_545
Ni10 Yb2 3.029536 1_555
Ni10 Yb2 3.029536 1_554
Ni11 Ni7 2.405936 1_555
Ni11 Ni7 2.405936 1_556
Ni11 Yb2 2.655114 1_555
Ni11 Yb1 2.658719 1_545
Ni11 Yb0 2.658719 1_455
Ni12 Ni9 2.405936 1_556
Ni12 Ni9 2.405936 1_555
Ni12 Ni8 2.405936 1_555
Ni12 Ni8 2.405936 1_556
Ni12 Yb3 2.655114 1_555
Ni12 Yb1 2.658719 1_655
Ni12 Yb0 2.658719 1_565
C0 Ni7 1.852262 1_555
C0 Ni8 1.852262 1_455
C0 Ni1 1.876408 1_555
C0 Ni2 1.876408 1_455
C0 Ni5 1.922815 1_554
C0 Ni5 1.922815 1_555
C1 Ni9 1.852262 1_545
C1 Ni10 1.852262 1_555
C1 Ni3 1.876408 1_545
C1 Ni4 1.876408 1_555
C1 Ni6 1.922815 1_555
C1 Ni6 1.922815 1_554
C2 C3 1.337407 1_555
C2 Ni3 1.886148 1_555
C2 Ni1 1.886148 1_555
C2 Yb3 2.683042 1_555
C2 Yb2 2.683042 1_554
C2 Yb2 2.683042 1_555
C2 Yb3 2.683042 1_554
C3 Ni2 1.886148 1_555
C3 Ni4 1.886148 1_555
C3 Yb3 2.683042 1_555
C3 Yb2 2.683042 1_554
C3 Yb2 2.683042 1_555
C3 Yb3 2.683042 1_554
