# generated using pymatgen
data_MnOF
_symmetry_space_group_name_H-M   'P 1'
_cell_length_a   4.59094900
_cell_length_b   5.71134771
_cell_length_c   10.36107978
_cell_angle_alpha   89.84943197
_cell_angle_beta   89.38437156
_cell_angle_gamma   89.78634972
_symmetry_Int_Tables_number   1
_chemical_formula_structural   MnOF
_chemical_formula_sum   'Mn8 O8 F8'
_cell_volume   271.65427455
_cell_formula_units_Z   8
loop_
 _symmetry_equiv_pos_site_id
 _symmetry_equiv_pos_as_xyz
  1  'x, y, z'
loop_
 _atom_site_type_symbol
 _atom_site_label
 _atom_site_symmetry_multiplicity
 _atom_site_fract_x
 _atom_site_fract_y
 _atom_site_fract_z
 _atom_site_occupancy
  Mn  Mn0  1  0.02972200  0.16661200  0.61644500  1
  Mn  Mn1  1  0.00259300  0.84778300  0.36415100  1
  Mn  Mn2  1  0.00321300  0.14995400  0.11327400  1
  Mn  Mn3  1  0.03838300  0.86235600  0.86438400  1
  Mn  Mn4  1  0.50089000  0.34512800  0.88401500  1
  Mn  Mn5  1  0.50735500  0.34499400  0.38738200  1
  Mn  Mn6  1  0.51152900  0.64766600  0.13889300  1
  Mn  Mn7  1  0.49472600  0.63850200  0.63204700  1
  O  O0  1  0.22048000  0.11216200  0.45250300  1
  O  O1  1  0.22578200  0.11491400  0.95241600  1
  O  O2  1  0.21633500  0.88216600  0.20120400  1
  O  O3  1  0.23596700  0.89305400  0.70214200  1
  O  O4  1  0.28558800  0.40415500  0.72769200  1
  O  O5  1  0.71963600  0.37697700  0.04562400  1
  O  O6  1  0.71830500  0.61455000  0.29820600  1
  O  O7  1  0.72681400  0.38334500  0.54538600  1
  F  F0  1  0.25533700  0.37605100  0.22906600  1
  F  F1  1  0.23946500  0.60959200  0.46777900  1
  F  F2  1  0.26993400  0.61973500  0.97909600  1
  F  F3  1  0.75900700  0.62089200  0.80375300  1
  F  F4  1  0.75142300  0.11410100  0.27122200  1
  F  F5  1  0.76453900  0.87593200  0.01640100  1
  F  F6  1  0.77273100  0.12898600  0.77470600  1
  F  F7  1  0.75024300  0.87039100  0.53221700  1
loop_
_geom_bond_atom_site_label_1
_geom_bond_atom_site_label_2
_geom_bond_distance
_geom_bond_site_symmetry_2
Mn0 O0 1.928145 1_555
Mn0 O7 2.003133 1_455
Mn0 O3 2.031188 1_545
Mn0 O4 2.144348 1_555
Mn1 O2 1.953444 1_555
Mn1 O6 1.995395 1_455
Mn1 O0 2.038824 1_565
Mn2 O1 1.955896 1_554
Mn2 O5 1.967141 1_455
Mn2 O2 2.031544 1_545
Mn3 O3 1.909504 1_555
Mn3 O1 1.919846 1_565
Mn4 O4 1.934700 1_555
Mn4 O1 1.953072 1_555
Mn4 O5 1.970906 1_556
Mn5 O7 1.944770 1_555
Mn5 O0 1.986805 1_555
Mn5 O6 2.036217 1_555
Mn6 O6 1.921534 1_555
Mn6 O2 2.004843 1_555
Mn6 O5 2.052750 1_555
Mn7 O4 1.917682 1_555
Mn7 O3 2.006600 1_555
Mn7 O7 2.009965 1_555
F0 Mn5 2.024476 1_555
F0 Mn2 2.120322 1_555
F0 Mn6 2.155256 1_555
F1 Mn1 2.047549 1_555
F1 Mn7 2.084023 1_555
F1 Mn5 2.112100 1_555
F2 Mn6 2.009745 1_556
F2 Mn3 2.114316 1_555
F2 Mn4 2.127870 1_555
F3 Mn3 1.994151 1_655
F3 Mn4 2.135936 1_555
F3 Mn7 2.166057 1_555
F4 Mn2 2.003918 1_655
F4 Mn5 2.100329 1_555
F4 Mn1 2.138541 1_645
F5 Mn3 2.006178 1_654
F5 Mn6 2.151865 1_555
F5 Mn2 2.168431 1_665
F6 Mn0 2.021249 1_655
F6 Mn4 2.080768 1_555
F6 Mn3 2.161663 1_645
F7 Mn7 2.044089 1_555
F7 Mn1 2.085150 1_655
F7 Mn0 2.306109 1_665
