# generated using pymatgen
data_Nd3SiAgS7
_symmetry_space_group_name_H-M   'P 1'
_cell_length_a   10.32159789
_cell_length_b   10.32159789
_cell_length_c   5.75844931
_cell_angle_alpha   90.00000000
_cell_angle_beta   90.00000000
_cell_angle_gamma   120.00000142
_symmetry_Int_Tables_number   1
_chemical_formula_structural   Nd3SiAgS7
_chemical_formula_sum   'Nd6 Si2 Ag2 S14'
_cell_volume   531.28804717
_cell_formula_units_Z   2
loop_
 _symmetry_equiv_pos_site_id
 _symmetry_equiv_pos_as_xyz
  1  'x, y, z'
loop_
 _atom_site_type_symbol
 _atom_site_label
 _atom_site_symmetry_multiplicity
 _atom_site_fract_x
 _atom_site_fract_y
 _atom_site_fract_z
 _atom_site_occupancy
  Nd  Nd0  1  0.12264154  0.35966979  0.25027773  1
  Nd  Nd1  1  0.87735846  0.64033021  0.75027773  1
  Nd  Nd2  1  0.64033021  0.76297175  0.25027773  1
  Nd  Nd3  1  0.23702825  0.87735846  0.25027773  1
  Nd  Nd4  1  0.76297175  0.12264154  0.75027773  1
  Nd  Nd5  1  0.35966979  0.23702825  0.75027773  1
  Si  Si0  1  0.33333300  0.66666700  0.66067882  1
  Si  Si1  1  0.66666700  0.33333300  0.16067882  1
  Ag  Ag0  1  0.00000000  -0.00000000  0.29262638  1
  Ag  Ag1  1  0.00000000  -0.00000000  0.79262638  1
  S  S0  1  0.33333300  0.66666700  0.02542382  1
  S  S1  1  0.66666700  0.33333300  0.52542382  1
  S  S2  1  0.40862198  0.52476783  0.51666841  1
  S  S3  1  0.59137802  0.47523217  0.01666841  1
  S  S4  1  0.47523217  0.88385414  0.51666841  1
  S  S5  1  0.11614586  0.59137802  0.51666841  1
  S  S6  1  0.88385414  0.40862198  0.01666841  1
  S  S7  1  0.52476783  0.11614586  0.01666841  1
  S  S8  1  0.09010647  0.26717497  0.76560586  1
  S  S9  1  0.90989353  0.73282503  0.26560586  1
  S  S10  1  0.73282503  0.82293149  0.76560586  1
  S  S11  1  0.17706851  0.90989353  0.76560586  1
  S  S12  1  0.82293149  0.09010647  0.26560586  1
  S  S13  1  0.26717497  0.17706851  0.26560586  1
loop_
_geom_bond_atom_site_label_1
_geom_bond_atom_site_label_2
_geom_bond_distance
_geom_bond_site_symmetry_2
Nd0 S5 2.870146 1_555
Nd0 S8 2.914286 1_554
Nd0 S13 2.932102 1_555
Nd0 S12 2.951558 1_455
Nd0 S2 2.989975 1_555
Nd0 S6 3.063466 1_455
Nd0 S8 3.083766 1_555
Nd0 S0 3.091200 1_555
Nd1 S6 2.870146 1_556
Nd1 S9 2.914286 1_555
Nd1 S10 2.932102 1_555
Nd1 S11 2.951558 1_655
Nd1 S3 2.989975 1_556
Nd1 S5 3.063466 1_655
Nd1 S9 3.083766 1_556
Nd1 S1 3.091200 1_555
Nd2 S2 2.870146 1_555
Nd2 S10 2.914286 1_554
Nd2 S12 2.932102 1_565
Nd2 S9 2.951558 1_555
Nd2 S4 2.989975 1_555
Nd2 S3 3.063466 1_555
Nd2 S10 3.083766 1_555
Nd2 S0 3.091202 1_555
Nd3 S4 2.870146 1_555
Nd3 S11 2.914286 1_554
Nd3 S9 2.932102 1_455
Nd3 S13 2.951558 1_565
Nd3 S5 2.989975 1_555
Nd3 S7 3.063466 1_565
Nd3 S11 3.083766 1_555
Nd3 S0 3.091193 1_555
Nd4 S7 2.870146 1_556
Nd4 S12 2.914286 1_555
Nd4 S8 2.932102 1_655
Nd4 S10 2.951558 1_545
Nd4 S6 2.989975 1_556
Nd4 S4 3.063466 1_545
Nd4 S12 3.083766 1_556
Nd4 S1 3.091193 1_555
Nd5 S3 2.870146 1_556
Nd5 S13 2.914286 1_555
Nd5 S11 2.932102 1_545
Nd5 S8 2.951558 1_555
Nd5 S7 2.989975 1_556
Nd5 S2 3.063466 1_555
Nd5 S13 3.083766 1_556
Nd5 S1 3.091202 1_555
Ag0 S13 2.434994 1_555
Ag0 S9 2.434994 1_445
Ag0 S12 2.434994 1_455
Ag1 S10 2.434994 1_445
Ag1 S8 2.434994 1_555
Ag1 S11 2.434994 1_545
S0 Si0 2.100366 1_554
S1 Si1 2.100366 1_555
S2 Si0 2.138898 1_555
S3 Si1 2.138898 1_555
S4 Si0 2.138890 1_555
S5 Si0 2.138889 1_555
S6 Si1 2.138889 1_555
S7 Si1 2.138890 1_555
