# generated using pymatgen
data_Li3Mn3FeO8
_symmetry_space_group_name_H-M   'P 1'
_cell_length_a   5.88123427
_cell_length_b   5.88123427
_cell_length_c   5.88123445
_cell_angle_alpha   57.62850109
_cell_angle_beta   57.62850109
_cell_angle_gamma   57.62850182
_symmetry_Int_Tables_number   1
_chemical_formula_structural   Li3Mn3FeO8
_chemical_formula_sum   'Li3 Mn3 Fe1 O8'
_cell_volume   136.00311581
_cell_formula_units_Z   1
loop_
 _symmetry_equiv_pos_site_id
 _symmetry_equiv_pos_as_xyz
  1  'x, y, z'
loop_
 _atom_site_type_symbol
 _atom_site_label
 _atom_site_symmetry_multiplicity
 _atom_site_fract_x
 _atom_site_fract_y
 _atom_site_fract_z
 _atom_site_occupancy
  Li  Li0  1  0.00000000  0.50000000  0.00000000  1
  Li  Li1  1  0.50000000  0.00000000  0.00000000  1
  Li  Li2  1  0.00000000  0.00000000  0.50000000  1
  Mn  Mn0  1  0.50000000  0.00000000  0.50000000  1
  Mn  Mn1  1  0.00000000  0.50000000  0.50000000  1
  Mn  Mn2  1  0.50000000  0.50000000  0.00000000  1
  Fe  Fe0  1  0.00000000  0.00000000  0.00000000  1
  O  O0  1  0.25823900  0.25823900  0.25823900  1
  O  O1  1  0.76222300  0.25897300  0.76222300  1
  O  O2  1  0.25897300  0.76222300  0.76222300  1
  O  O3  1  0.74176100  0.74176100  0.74176100  1
  O  O4  1  0.76222300  0.76222300  0.25897300  1
  O  O5  1  0.23777700  0.74102700  0.23777700  1
  O  O6  1  0.74102700  0.23777700  0.23777700  1
  O  O7  1  0.23777700  0.23777700  0.74102700  1
loop_
_geom_bond_atom_site_label_1
_geom_bond_atom_site_label_2
_geom_bond_distance
_geom_bond_site_symmetry_2
Li0 O3 2.116645 1_454
Li0 O0 2.116645 1_555
Li0 O2 2.139825 1_554
Li0 O6 2.139825 1_455
Li0 O4 2.139825 1_455
Li0 O7 2.139825 1_554
Li1 O3 2.116645 1_544
Li1 O0 2.116645 1_555
Li1 O1 2.139825 1_554
Li1 O5 2.139825 1_545
Li1 O4 2.139825 1_545
Li1 O7 2.139825 1_554
Li2 O3 2.116645 1_445
Li2 O0 2.116645 1_555
Li2 O2 2.139825 1_545
Li2 O6 2.139825 1_455
Li2 O5 2.139825 1_545
Li2 O1 2.139825 1_455
Mn0 O6 1.953398 1_555
Mn0 O2 1.953398 1_545
Mn0 O7 1.953398 1_555
Mn0 O4 1.953398 1_545
Mn0 O3 1.972320 1_545
Mn0 O0 1.972320 1_555
Mn1 O1 1.953398 1_455
Mn1 O5 1.953398 1_555
Mn1 O4 1.953398 1_455
Mn1 O7 1.953398 1_555
Mn1 O3 1.972320 1_455
Mn1 O0 1.972320 1_555
Mn2 O5 1.953398 1_555
Mn2 O2 1.953398 1_554
Mn2 O6 1.953398 1_555
Mn2 O1 1.953398 1_554
Mn2 O3 1.972320 1_554
Mn2 O0 1.972320 1_555
Fe0 O4 1.939984 1_445
Fe0 O7 1.939984 1_554
Fe0 O5 1.939984 1_545
Fe0 O2 1.939984 1_544
Fe0 O1 1.939984 1_454
Fe0 O6 1.939984 1_455
