# generated using pymatgen
data_ScB12
_symmetry_space_group_name_H-M   'P 1'
_cell_length_a   5.23549812
_cell_length_b   5.23549882
_cell_length_c   5.23549871
_cell_angle_alpha   60.00000063
_cell_angle_beta   59.99999621
_cell_angle_gamma   59.99999452
_symmetry_Int_Tables_number   1
_chemical_formula_structural   ScB12
_chemical_formula_sum   'Sc1 B12'
_cell_volume   101.47501045
_cell_formula_units_Z   1
loop_
 _symmetry_equiv_pos_site_id
 _symmetry_equiv_pos_as_xyz
  1  'x, y, z'
loop_
 _atom_site_type_symbol
 _atom_site_label
 _atom_site_symmetry_multiplicity
 _atom_site_fract_x
 _atom_site_fract_y
 _atom_site_fract_z
 _atom_site_occupancy
  Sc  Sc0  1  -0.00000000  0.00000000  0.00000000  1
  B  B0  1  0.16136481  0.50000000  0.50000000  1
  B  B1  1  0.83863519  0.50000000  0.50000000  1
  B  B2  1  0.50000000  0.50000000  0.83863519  1
  B  B3  1  0.83863519  0.16136481  0.50000000  1
  B  B4  1  0.50000000  0.83863519  0.16136481  1
  B  B5  1  0.50000000  0.16136481  0.83863519  1
  B  B6  1  0.50000000  0.83863519  0.50000000  1
  B  B7  1  0.83863519  0.50000000  0.16136481  1
  B  B8  1  0.16136481  0.83863519  0.50000000  1
  B  B9  1  0.50000000  0.16136481  0.50000000  1
  B  B10  1  0.16136481  0.50000000  0.83863519  1
  B  B11  1  0.50000000  0.50000000  0.16136481  1
loop_
_geom_bond_atom_site_label_1
_geom_bond_atom_site_label_2
_geom_bond_distance
_geom_bond_site_symmetry_2
B0 B1 1.689650 1_455
B0 B9 1.772924 1_555
B0 B11 1.772924 1_555
B0 B10 1.772924 1_555
B0 B8 1.772924 1_555
B0 Sc0 2.750698 1_565
B0 Sc0 2.750698 1_556
B1 B6 1.772924 1_555
B1 B2 1.772924 1_555
B1 B7 1.772924 1_555
B1 B3 1.772924 1_555
B1 Sc0 2.750698 1_656
B1 Sc0 2.750698 1_665
B2 B6 1.772924 1_555
B2 B5 1.772924 1_555
B2 Sc0 2.750698 1_656
B2 Sc0 2.750698 1_566
B3 B8 1.689650 1_645
B3 B5 1.772924 1_555
B3 B9 1.772924 1_555
B3 B7 1.772924 1_555
B3 Sc0 2.750698 1_656
B3 Sc0 2.750698 1_655
B4 B5 1.689651 1_564
B4 B7 1.772924 1_555
B4 B8 1.772924 1_555
B4 B6 1.772924 1_555
B4 Sc0 2.750698 1_565
B4 Sc0 2.750698 1_665
B5 B9 1.772924 1_555
B5 Sc0 2.750698 1_656
B5 Sc0 2.750698 1_556
B6 B9 1.689651 1_565
B6 B8 1.772924 1_555
B6 Sc0 2.750698 1_566
B6 Sc0 2.750698 1_665
B7 Sc0 2.750698 1_655
B7 Sc0 2.750698 1_665
B8 Sc0 2.750698 1_565
B8 Sc0 2.750698 1_566
B9 Sc0 2.750698 1_655
B9 Sc0 2.750698 1_556
B10 B7 1.689650 1_456
B10 B5 1.772924 1_555
B10 B2 1.772924 1_555
B10 B8 1.772924 1_555
B10 Sc0 2.750698 1_566
B10 Sc0 2.750698 1_556
B11 B2 1.689651 1_554
B11 B7 1.772924 1_555
B11 B9 1.772924 1_555
B11 B4 1.772924 1_555
B11 Sc0 2.750698 1_565
B11 Sc0 2.750698 1_655
