# generated using pymatgen
data_LuSnRu2
_symmetry_space_group_name_H-M   'P 1'
_cell_length_a   4.59064083
_cell_length_b   4.59064166
_cell_length_c   4.59064237
_cell_angle_alpha   59.99993152
_cell_angle_beta   59.99992581
_cell_angle_gamma   59.99995414
_symmetry_Int_Tables_number   1
_chemical_formula_structural   LuSnRu2
_chemical_formula_sum   'Lu1 Sn1 Ru2'
_cell_volume   68.40763134
_cell_formula_units_Z   1
loop_
 _symmetry_equiv_pos_site_id
 _symmetry_equiv_pos_as_xyz
  1  'x, y, z'
loop_
 _atom_site_type_symbol
 _atom_site_label
 _atom_site_symmetry_multiplicity
 _atom_site_fract_x
 _atom_site_fract_y
 _atom_site_fract_z
 _atom_site_occupancy
  Lu  Lu0  1  0.25000074  0.24999996  0.25000074  1
  Sn  Sn0  1  0.74999999  0.74999992  0.75000003  1
  Ru  Ru0  1  -0.00000012  0.00000010  0.00000008  1
  Ru  Ru1  1  0.49999939  0.49999902  0.49999914  1
loop_
_geom_bond_atom_site_label_1
_geom_bond_atom_site_label_2
_geom_bond_distance
_geom_bond_site_symmetry_2
Lu0 Ru1 2.811169 1_555
Lu0 Ru0 2.811177 1_655
Lu0 Ru0 2.811178 1_556
Lu0 Ru0 2.811181 1_565
Lu0 Ru1 2.811184 1_545
Lu0 Ru1 2.811185 1_455
Lu0 Ru1 2.811186 1_554
Lu0 Ru0 2.811189 1_555
Lu0 Sn0 3.246068 1_545
Lu0 Sn0 3.246069 1_554
Lu0 Sn0 3.246070 1_455
Lu0 Sn0 3.246074 1_445
Lu0 Sn0 3.246075 1_544
Lu0 Sn0 3.246078 1_454
Ru0 Sn0 2.811180 1_454
Ru0 Sn0 2.811180 1_445
Ru0 Sn0 2.811180 1_544
Ru0 Sn0 2.811184 1_444
Ru1 Sn0 2.811177 1_554
Ru1 Sn0 2.811177 1_545
Ru1 Sn0 2.811178 1_455
Ru1 Sn0 2.811193 1_555
