# generated using pymatgen
data_LiHfIr2
_symmetry_space_group_name_H-M   'P 1'
_cell_length_a   4.39295970
_cell_length_b   4.39295970
_cell_length_c   4.39295970
_cell_angle_alpha   60.00000000
_cell_angle_beta   60.00000000
_cell_angle_gamma   60.00000000
_symmetry_Int_Tables_number   1
_chemical_formula_structural   LiHfIr2
_chemical_formula_sum   'Li1 Hf1 Ir2'
_cell_volume   59.94550984
_cell_formula_units_Z   1
loop_
 _symmetry_equiv_pos_site_id
 _symmetry_equiv_pos_as_xyz
  1  'x, y, z'
loop_
 _atom_site_type_symbol
 _atom_site_label
 _atom_site_symmetry_multiplicity
 _atom_site_fract_x
 _atom_site_fract_y
 _atom_site_fract_z
 _atom_site_occupancy
  Li  Li0  1  0.75000000  0.75000000  0.75000000  1
  Hf  Hf0  1  0.25000100  0.25000100  0.25000100  1
  Ir  Ir0  1  -0.00000000  -0.00000000  -0.00000000  1
  Ir  Ir1  1  0.49999900  0.49999900  0.49999900  1
loop_
_geom_bond_atom_site_label_1
_geom_bond_atom_site_label_2
_geom_bond_distance
_geom_bond_site_symmetry_2
Hf0 Ir1 2.690106 1_555
Hf0 Ir0 2.690124 1_556
Hf0 Ir0 2.690124 1_565
Hf0 Ir0 2.690124 1_655
Hf0 Ir1 2.690135 1_545
Hf0 Ir1 2.690135 1_554
Hf0 Ir1 2.690135 1_455
Hf0 Ir0 2.690138 1_555
Ir0 Li0 2.690127 1_444
Ir0 Li0 2.690127 1_445
Ir0 Li0 2.690127 1_454
Ir0 Li0 2.690127 1_544
Ir1 Li0 2.690124 1_554
Ir1 Li0 2.690124 1_545
Ir1 Li0 2.690124 1_455
Ir1 Li0 2.690138 1_555
