# generated using pymatgen
data_Cd(SbO3)2
_symmetry_space_group_name_H-M   'P 1'
_cell_length_a   5.26329933
_cell_length_b   5.26329973
_cell_length_c   4.82214080
_cell_angle_alpha   90.00000000
_cell_angle_beta   90.00000000
_cell_angle_gamma   119.99999753
_symmetry_Int_Tables_number   1
_chemical_formula_structural   Cd(SbO3)2
_chemical_formula_sum   'Cd1 Sb2 O6'
_cell_volume   115.68757081
_cell_formula_units_Z   1
loop_
 _symmetry_equiv_pos_site_id
 _symmetry_equiv_pos_as_xyz
  1  'x, y, z'
loop_
 _atom_site_type_symbol
 _atom_site_label
 _atom_site_symmetry_multiplicity
 _atom_site_fract_x
 _atom_site_fract_y
 _atom_site_fract_z
 _atom_site_occupancy
  Cd  Cd0  1  -0.00000000  -0.00000000  -0.00000000  1
  Sb  Sb0  1  0.33333300  0.66666700  0.50000000  1
  Sb  Sb1  1  0.66666700  0.33333300  0.50000000  1
  O  O0  1  0.36588076  0.36588076  0.72380388  1
  O  O1  1  0.63411924  -0.00000000  0.72380388  1
  O  O2  1  0.00000000  0.63411924  0.72380388  1
  O  O3  1  0.36588076  -0.00000000  0.27619612  1
  O  O4  1  -0.00000000  0.36588076  0.27619612  1
  O  O5  1  0.63411924  0.63411924  0.27619612  1
loop_
_geom_bond_atom_site_label_1
_geom_bond_atom_site_label_2
_geom_bond_distance
_geom_bond_site_symmetry_2
Cd0 O3 2.341435 1_555
Cd0 O1 2.341435 1_454
Cd0 O5 2.341435 1_445
Cd0 O0 2.341435 1_554
Cd0 O2 2.341435 1_544
Cd0 O4 2.341435 1_555
O0 Sb1 1.992874 1_555
O0 Sb0 1.992874 1_555
O1 Sb1 1.992870 1_555
O1 Sb0 1.992872 1_545
O2 Sb0 1.992870 1_555
O2 Sb1 1.992872 1_455
O3 Sb0 1.992870 1_545
O3 Sb1 1.992872 1_555
O4 Sb1 1.992870 1_455
O4 Sb0 1.992872 1_555
O5 Sb0 1.992874 1_555
O5 Sb1 1.992874 1_555
