# generated using pymatgen
data_Li17Ag12F29
_symmetry_space_group_name_H-M   'P 1'
_cell_length_a   10.90465005
_cell_length_b   10.90465005
_cell_length_c   10.90465005
_cell_angle_alpha   60.00000000
_cell_angle_beta   60.00000000
_cell_angle_gamma   60.00000000
_symmetry_Int_Tables_number   1
_chemical_formula_structural   Li17Ag12F29
_chemical_formula_sum   'Li17 Ag12 F29'
_cell_volume   916.89625994
_cell_formula_units_Z   1
loop_
 _symmetry_equiv_pos_site_id
 _symmetry_equiv_pos_as_xyz
  1  'x, y, z'
loop_
 _atom_site_type_symbol
 _atom_site_label
 _atom_site_symmetry_multiplicity
 _atom_site_fract_x
 _atom_site_fract_y
 _atom_site_fract_z
 _atom_site_occupancy
  Li  Li0  1  0.85282000  0.44154000  0.85282000  1
  Li  Li1  1  0.67104000  0.67104000  0.67104000  1
  Li  Li2  1  0.85282000  0.85282000  0.44154000  1
  Li  Li3  1  0.44154000  0.85282000  0.85282000  1
  Li  Li4  1  0.98688000  0.67104000  0.67104000  1
  Li  Li5  1  0.67104000  0.67104000  0.98688000  1
  Li  Li6  1  0.67104000  0.98688000  0.67104000  1
  Li  Li7  1  0.85282000  0.85282000  0.85282000  1
  Li  Li8  1  0.36400700  0.36400700  0.36400700  1
  Li  Li9  1  0.36400700  0.36400700  0.90798000  1
  Li  Li10  1  0.90798000  0.36400700  0.36400700  1
  Li  Li11  1  0.50000000  0.50000000  0.50000000  1
  Li  Li12  1  0.36400700  0.90798000  0.36400700  1
  Li  Li13  1  0.14745900  0.14745900  0.14745900  1
  Li  Li14  1  0.55762400  0.14745900  0.14745900  1
  Li  Li15  1  0.14745900  0.14745900  0.55762400  1
  Li  Li16  1  0.14745900  0.55762400  0.14745900  1
  Ag  Ag0  1  0.29809000  0.29809000  0.70191000  1
  Ag  Ag1  1  0.70191000  0.29809000  0.29809000  1
  Ag  Ag2  1  0.29809000  0.70191000  0.29809000  1
  Ag  Ag3  1  0.70191000  0.29809000  0.70191000  1
  Ag  Ag4  1  0.29809000  0.70191000  0.70191000  1
  Ag  Ag5  1  0.70191000  0.70191000  0.29809000  1
  Ag  Ag6  1  0.00532400  0.00532400  0.49467600  1
  Ag  Ag7  1  0.49467600  0.00532400  0.00532400  1
  Ag  Ag8  1  0.49467600  0.00532400  0.49467600  1
  Ag  Ag9  1  0.00532400  0.49467600  0.00532400  1
  Ag  Ag10  1  0.00532400  0.49467600  0.49467600  1
  Ag  Ag11  1  0.49467600  0.49467600  0.00532400  1
  F  F0  1  0.75000000  0.75000000  0.75000000  1
  F  F1  1  0.24927200  0.24927200  0.53173400  1
  F  F2  1  0.53173400  0.24927200  0.24927200  1
  F  F3  1  0.46516600  0.03369200  0.75057100  1
  F  F4  1  0.75057100  0.03369200  0.46516600  1
  F  F5  1  0.24927200  0.53173400  0.24927200  1
  F  F6  1  0.75057100  0.03369200  0.75057100  1
  F  F7  1  0.03369200  0.46516600  0.75057100  1
  F  F8  1  0.75057100  0.46516600  0.03369200  1
  F  F9  1  0.24927200  0.24927200  0.96972100  1
  F  F10  1  0.96972100  0.24927200  0.24927200  1
  F  F11  1  0.43151000  0.43151000  0.43151000  1
  F  F12  1  0.03369200  0.75057100  0.46516600  1
  F  F13  1  0.46516600  0.75057100  0.03369200  1
  F  F14  1  0.43151000  0.43151000  0.70547000  1
  F  F15  1  0.70547000  0.43151000  0.43151000  1
  F  F16  1  0.53173400  0.24927200  0.96972100  1
  F  F17  1  0.96972100  0.24927200  0.53173400  1
  F  F18  1  0.43151000  0.70547000  0.43151000  1
  F  F19  1  0.24927200  0.53173400  0.96972100  1
  F  F20  1  0.96972100  0.53173400  0.24927200  1
  F  F21  1  0.75057100  0.75057100  0.03369200  1
  F  F22  1  0.03369200  0.75057100  0.75057100  1
  F  F23  1  0.75057100  0.46516600  0.75057100  1
  F  F24  1  0.24927200  0.96972100  0.24927200  1
  F  F25  1  0.75057100  0.75057100  0.46516600  1
  F  F26  1  0.46516600  0.75057100  0.75057100  1
  F  F27  1  0.24927200  0.96972100  0.53173400  1
  F  F28  1  0.53173400  0.96972100  0.24927200  1
loop_
_geom_bond_atom_site_label_1
_geom_bond_atom_site_label_2
_geom_bond_distance
_geom_bond_site_symmetry_2
Ag0 F7 2.469325 1_555
Ag0 F3 2.469325 1_555
Ag0 F9 2.503902 1_555
Ag0 F1 2.503912 1_555
Ag0 F11 2.542569 1_555
Ag0 F14 2.542569 1_555
Ag1 F4 2.469325 1_555
Ag1 F8 2.469325 1_555
Ag1 F10 2.503902 1_555
Ag1 F2 2.503912 1_555
Ag1 F11 2.542569 1_555
Ag1 F15 2.542569 1_555
Ag2 F13 2.469325 1_555
Ag2 F12 2.469325 1_555
Ag2 F24 2.503902 1_555
Ag2 F5 2.503912 1_555
Ag2 F11 2.542569 1_555
Ag2 F18 2.542569 1_555
Ag3 F23 2.469325 1_555
Ag3 F6 2.469325 1_555
Ag3 F16 2.503904 1_555
Ag3 F17 2.503904 1_555
Ag3 F14 2.542569 1_555
Ag3 F15 2.542569 1_555
Ag4 F26 2.469325 1_555
Ag4 F22 2.469325 1_555
Ag4 F19 2.503904 1_555
Ag4 F27 2.503904 1_555
Ag4 F14 2.542569 1_555
Ag4 F18 2.542569 1_555
Ag5 F25 2.469325 1_555
Ag5 F21 2.469325 1_555
Ag5 F28 2.503904 1_555
Ag5 F20 2.503904 1_555
Ag5 F18 2.542569 1_555
Ag5 F15 2.542569 1_555
Ag6 F17 2.697376 1_455
Ag6 F27 2.697376 1_545
Ag6 F10 2.697383 1_455
Ag6 F24 2.697383 1_545
Ag7 F28 2.697376 1_545
Ag7 F16 2.697376 1_554
Ag7 F9 2.697383 1_554
Ag7 F24 2.697383 1_545
Ag8 F2 2.697381 1_555
Ag8 F1 2.697381 1_555
Ag8 F27 2.697387 1_545
Ag8 F28 2.697387 1_545
Ag9 F19 2.697376 1_554
Ag9 F20 2.697376 1_455
Ag9 F10 2.697383 1_455
Ag9 F9 2.697383 1_554
Ag10 F5 2.697381 1_555
Ag10 F1 2.697381 1_555
Ag10 F20 2.697387 1_455
Ag10 F17 2.697387 1_455
Ag11 F5 2.697381 1_555
Ag11 F2 2.697381 1_555
Ag11 F16 2.697387 1_554
Ag11 F19 2.697387 1_554
F0 Li1 2.109087 1_555
F0 Li4 2.109087 1_555
F0 Li5 2.109087 1_555
F0 Li6 2.109087 1_555
F1 Li15 1.775017 1_555
F1 Li8 1.861357 1_555
F2 Li14 1.775017 1_555
F2 Li8 1.861357 1_555
F3 Li3 1.794844 1_545
F3 Li6 1.844560 1_545
F4 Li2 1.794844 1_545
F4 Li6 1.844560 1_545
F5 Li16 1.775017 1_555
F5 Li8 1.861357 1_555
F6 Li7 1.794844 1_545
F6 Li6 1.844560 1_545
F7 Li0 1.794844 1_455
F7 Li4 1.844560 1_455
F8 Li0 1.794844 1_554
F8 Li5 1.844560 1_554
F9 Li13 1.775027 1_556
F9 Li9 1.861364 1_555
F10 Li13 1.775027 1_655
F10 Li10 1.861364 1_555
F11 Li8 1.803061 1_555
F11 Li11 1.829425 1_555
F12 Li2 1.794844 1_455
F12 Li4 1.844560 1_455
F13 Li3 1.794844 1_554
F13 Li5 1.844560 1_554
F14 Li9 1.803070 1_555
F14 Li11 1.829425 1_555
F15 Li10 1.803070 1_555
F15 Li11 1.829425 1_555
F16 Li14 1.775036 1_556
F16 Li9 1.861345 1_555
F17 Li15 1.775036 1_655
F17 Li10 1.861345 1_555
F18 Li12 1.803070 1_555
F18 Li11 1.829425 1_555
F19 Li16 1.775036 1_556
F19 Li9 1.861345 1_555
F20 Li16 1.775036 1_655
F20 Li10 1.861345 1_555
F21 Li7 1.794844 1_554
F21 Li5 1.844560 1_554
F22 Li7 1.794844 1_455
F22 Li4 1.844560 1_455
F23 Li0 1.794844 1_555
F23 Li1 1.844560 1_555
F24 Li13 1.775027 1_565
F24 Li12 1.861364 1_555
F25 Li2 1.794844 1_555
F25 Li1 1.844560 1_555
F26 Li3 1.794844 1_555
F26 Li1 1.844560 1_555
F27 Li15 1.775036 1_565
F27 Li12 1.861345 1_555
F28 Li14 1.775036 1_565
F28 Li12 1.861345 1_555
