# generated using pymatgen
data_Re
_symmetry_space_group_name_H-M   'P 1'
_cell_length_a   5.53067164
_cell_length_b   5.53067387
_cell_length_c   8.94715326
_cell_angle_alpha   90.00000000
_cell_angle_beta   90.00000000
_cell_angle_gamma   119.99998664
_symmetry_Int_Tables_number   1
_chemical_formula_structural   Re
_chemical_formula_sum   Re16
_cell_volume   237.01263138
_cell_formula_units_Z   16
loop_
 _symmetry_equiv_pos_site_id
 _symmetry_equiv_pos_as_xyz
  1  'x, y, z'
loop_
 _atom_site_type_symbol
 _atom_site_label
 _atom_site_symmetry_multiplicity
 _atom_site_fract_x
 _atom_site_fract_y
 _atom_site_fract_z
 _atom_site_occupancy
  Re  Re0_0  1  0.16666650  0.33333350  0.12500000  1
  Re  Re0_1  1  0.16666650  0.33333350  0.62500000  1
  Re  Re0_2  1  0.16666650  0.83333350  0.12500000  1
  Re  Re0_3  1  0.16666650  0.83333350  0.62500000  1
  Re  Re0_4  1  0.66666650  0.33333350  0.12500000  1
  Re  Re0_5  1  0.66666650  0.33333350  0.62500000  1
  Re  Re0_6  1  0.66666650  0.83333350  0.12500000  1
  Re  Re0_7  1  0.66666650  0.83333350  0.62500000  1
  Re  Re1_0  1  0.33333350  0.16666650  0.37500000  1
  Re  Re1_1  1  0.33333350  0.16666650  0.87500000  1
  Re  Re1_2  1  0.33333350  0.66666650  0.37500000  1
  Re  Re1_3  1  0.33333350  0.66666650  0.87500000  1
  Re  Re1_4  1  0.83333350  0.16666650  0.37500000  1
  Re  Re1_5  1  0.83333350  0.16666650  0.87500000  1
  Re  Re1_6  1  0.83333350  0.66666650  0.37500000  1
  Re  Re1_7  1  0.83333350  0.66666650  0.87500000  1
loop_
_geom_bond_atom_site_label_1
_geom_bond_atom_site_label_2
_geom_bond_distance
_geom_bond_site_symmetry_2
Re0_0 Re1_5 2.748135 1_454
Re0_0 Re1_4 2.748135 1_455
Re0_0 Re1_3 2.748135 1_554
Re0_0 Re1_2 2.748135 1_555
Re0_0 Re1_0 2.748138 1_555
Re0_0 Re1_1 2.748138 1_554
Re0_0 Re0_4 2.765336 1_455
Re0_0 Re0_4 2.765336 1_555
Re0_0 Re0_2 2.765337 1_555
Re0_0 Re0_6 2.765337 1_555
Re0_0 Re0_6 2.765337 1_445
Re0_0 Re0_2 2.765337 1_545
Re0_1 Re1_5 2.748135 1_455
Re0_1 Re1_4 2.748135 1_455
Re0_1 Re1_3 2.748135 1_555
Re0_1 Re1_2 2.748135 1_555
Re0_1 Re1_1 2.748138 1_555
Re0_1 Re1_0 2.748138 1_555
Re0_1 Re0_5 2.765336 1_455
Re0_1 Re0_5 2.765336 1_555
Re0_1 Re0_3 2.765337 1_555
Re0_1 Re0_7 2.765337 1_445
Re0_1 Re0_7 2.765337 1_555
Re0_1 Re0_3 2.765337 1_545
Re0_2 Re1_6 2.748135 1_455
Re0_2 Re1_7 2.748135 1_454
Re0_2 Re1_1 2.748135 1_564
Re0_2 Re1_0 2.748135 1_565
Re0_2 Re1_3 2.748138 1_554
Re0_2 Re1_2 2.748138 1_555
Re0_2 Re0_6 2.765336 1_455
Re0_2 Re0_6 2.765336 1_555
Re0_2 Re0_4 2.765337 1_455
Re0_2 Re0_4 2.765337 1_565
Re0_3 Re1_6 2.748135 1_455
Re0_3 Re1_7 2.748135 1_455
Re0_3 Re1_0 2.748135 1_565
Re0_3 Re1_1 2.748135 1_565
Re0_3 Re1_3 2.748138 1_555
Re0_3 Re1_2 2.748138 1_555
Re0_3 Re0_7 2.765336 1_455
Re0_3 Re0_7 2.765336 1_555
Re0_3 Re0_5 2.765337 1_455
Re0_3 Re0_5 2.765337 1_565
Re0_4 Re1_1 2.748135 1_554
Re0_4 Re1_0 2.748135 1_555
Re0_4 Re1_6 2.748135 1_555
Re0_4 Re1_7 2.748135 1_554
Re0_4 Re1_5 2.748138 1_554
Re0_4 Re1_4 2.748138 1_555
Re0_4 Re0_6 2.765337 1_555
Re0_4 Re0_6 2.765337 1_545
Re0_5 Re1_1 2.748135 1_555
Re0_5 Re1_0 2.748135 1_555
Re0_5 Re1_6 2.748135 1_555
Re0_5 Re1_7 2.748135 1_555
Re0_5 Re1_5 2.748138 1_555
Re0_5 Re1_4 2.748138 1_555
Re0_5 Re0_7 2.765337 1_555
Re0_5 Re0_7 2.765337 1_545
Re0_6 Re1_2 2.748135 1_555
Re0_6 Re1_3 2.748135 1_554
Re0_6 Re1_5 2.748135 1_564
Re0_6 Re1_4 2.748135 1_565
Re0_6 Re1_6 2.748138 1_555
Re0_6 Re1_7 2.748138 1_554
Re0_7 Re1_3 2.748135 1_555
Re0_7 Re1_2 2.748135 1_555
Re0_7 Re1_5 2.748135 1_565
Re0_7 Re1_4 2.748135 1_565
Re0_7 Re1_6 2.748138 1_555
Re0_7 Re1_7 2.748138 1_555
Re1_0 Re1_4 2.765336 1_455
Re1_0 Re1_4 2.765336 1_555
Re1_0 Re1_2 2.765337 1_545
Re1_0 Re1_6 2.765337 1_445
Re1_0 Re1_2 2.765337 1_555
Re1_0 Re1_6 2.765337 1_555
Re1_1 Re1_5 2.765336 1_455
Re1_1 Re1_5 2.765336 1_555
Re1_1 Re1_3 2.765337 1_545
Re1_1 Re1_7 2.765337 1_445
Re1_1 Re1_7 2.765337 1_555
Re1_1 Re1_3 2.765337 1_555
Re1_2 Re1_6 2.765336 1_455
Re1_2 Re1_6 2.765336 1_555
Re1_2 Re1_4 2.765337 1_455
Re1_2 Re1_4 2.765337 1_565
Re1_3 Re1_7 2.765336 1_455
Re1_3 Re1_7 2.765336 1_555
Re1_3 Re1_5 2.765337 1_455
Re1_3 Re1_5 2.765337 1_565
Re1_4 Re1_6 2.765337 1_545
Re1_4 Re1_6 2.765337 1_555
Re1_5 Re1_7 2.765337 1_545
Re1_5 Re1_7 2.765337 1_555
