# generated using pymatgen
data_La14Mn13O42
_symmetry_space_group_name_H-M   'P 1'
_cell_length_a   9.68085979
_cell_length_b   9.68085979
_cell_length_c   9.68085954
_cell_angle_alpha   100.23966913
_cell_angle_beta   100.23966913
_cell_angle_gamma   100.23967795
_symmetry_Int_Tables_number   1
_chemical_formula_structural   La14Mn13O42
_chemical_formula_sum   'La14 Mn13 O42'
_cell_volume   857.83037870
_cell_formula_units_Z   1
loop_
 _symmetry_equiv_pos_site_id
 _symmetry_equiv_pos_as_xyz
  1  'x, y, z'
loop_
 _atom_site_type_symbol
 _atom_site_label
 _atom_site_symmetry_multiplicity
 _atom_site_fract_x
 _atom_site_fract_y
 _atom_site_fract_z
 _atom_site_occupancy
  La  La0  1  0.32072300  0.03683800  0.89344600  1
  La  La1  1  0.67927700  0.96316200  0.10655400  1
  La  La2  1  0.03683800  0.89344600  0.32072300  1
  La  La3  1  0.10655400  0.67927700  0.96316200  1
  La  La4  1  0.46746400  0.60545200  0.19318800  1
  La  La5  1  0.73130700  0.73130700  0.73130700  1
  La  La6  1  0.39454800  0.80681200  0.53253600  1
  La  La7  1  0.89344600  0.32072300  0.03683800  1
  La  La8  1  0.53253600  0.39454800  0.80681200  1
  La  La9  1  0.80681200  0.53253600  0.39454800  1
  La  La10  1  0.19318800  0.46746400  0.60545200  1
  La  La11  1  0.26869300  0.26869300  0.26869300  1
  La  La12  1  0.60545200  0.19318800  0.46746400  1
  La  La13  1  0.96316200  0.10655400  0.67927700  1
  Mn  Mn0  1  0.64285500  0.07105200  0.78654000  1
  Mn  Mn1  1  0.00000000  0.00000000  0.00000000  1
  Mn  Mn2  1  0.71492200  0.86066400  0.42821100  1
  Mn  Mn3  1  0.78654000  0.64285500  0.07105200  1
  Mn  Mn4  1  0.42821100  0.71492200  0.86066400  1
  Mn  Mn5  1  0.35714500  0.92894800  0.21346000  1
  Mn  Mn6  1  0.07105200  0.78654000  0.64285500  1
  Mn  Mn7  1  0.13933600  0.57178900  0.28507800  1
  Mn  Mn8  1  0.21346000  0.35714500  0.92894800  1
  Mn  Mn9  1  0.86066400  0.42821100  0.71492200  1
  Mn  Mn10  1  0.92894800  0.21346000  0.35714500  1
  Mn  Mn11  1  0.57178900  0.28507800  0.13933600  1
  Mn  Mn12  1  0.28507800  0.13933600  0.57178900  1
  O  O0  1  0.80319300  0.02907800  0.92323500  1
  O  O1  1  0.02907800  0.92323500  0.80319300  1
  O  O2  1  0.19680700  0.97092200  0.07676500  1
  O  O3  1  0.78819400  0.05517900  0.40460800  1
  O  O4  1  0.50827700  0.91282200  0.83562200  1
  O  O5  1  0.92323500  0.80319300  0.02907800  1
  O  O6  1  0.74408100  0.78132300  0.23165500  1
  O  O7  1  0.31249200  0.06502400  0.37436400  1
  O  O8  1  0.83562200  0.50827700  0.91282200  1
  O  O9  1  0.40460800  0.78819400  0.05517900  1
  O  O10  1  0.68750800  0.93497600  0.62563600  1
  O  O11  1  0.65251200  0.48379900  0.12001200  1
  O  O12  1  0.21867700  0.76834500  0.25591900  1
  O  O13  1  0.62563600  0.68750800  0.93497600  1
  O  O14  1  0.91282200  0.83562200  0.50827700  1
  O  O15  1  0.05517900  0.40460800  0.78819400  1
  O  O16  1  0.94482100  0.59539200  0.21180600  1
  O  O17  1  0.51620100  0.87998800  0.34748800  1
  O  O18  1  0.34748800  0.51620100  0.87998800  1
  O  O19  1  0.21180600  0.94482100  0.59539200  1
  O  O20  1  0.16437800  0.49172300  0.08717800  1
  O  O21  1  0.12001200  0.65251200  0.48379900  1
  O  O22  1  0.93497600  0.62563600  0.68750800  1
  O  O23  1  0.32612600  0.54970500  0.36204300  1
  O  O24  1  0.07676500  0.19680700  0.97092200  1
  O  O25  1  0.76834500  0.25591900  0.21867700  1
  O  O26  1  0.23165500  0.74408100  0.78132300  1
  O  O27  1  0.37436400  0.31249200  0.06502400  1
  O  O28  1  0.67387400  0.45029500  0.63795700  1
  O  O29  1  0.06502400  0.37436400  0.31249200  1
  O  O30  1  0.63795700  0.67387400  0.45029500  1
  O  O31  1  0.59539200  0.21180600  0.94482100  1
  O  O32  1  0.87998800  0.34748800  0.51620100  1
  O  O33  1  0.45029500  0.63795700  0.67387400  1
  O  O34  1  0.97092200  0.07676500  0.19680700  1
  O  O35  1  0.54970500  0.36204300  0.32612600  1
  O  O36  1  0.36204300  0.32612600  0.54970500  1
  O  O37  1  0.78132300  0.23165500  0.74408100  1
  O  O38  1  0.08717800  0.16437800  0.49172300  1
  O  O39  1  0.49172300  0.08717800  0.16437800  1
  O  O40  1  0.25591900  0.21867700  0.76834500  1
  O  O41  1  0.48379900  0.12001200  0.65251200  1
loop_
_geom_bond_atom_site_label_1
_geom_bond_atom_site_label_2
_geom_bond_distance
_geom_bond_site_symmetry_2
La0 O40 2.416538 1_555
La0 O2 2.425522 1_546
La0 O4 2.439037 1_545
La0 O39 2.751787 1_556
La0 O1 2.760745 1_545
La0 O26 2.767438 1_545
La0 O27 2.788306 1_556
La0 O31 2.795693 1_555
La0 O19 2.810960 1_545
La1 O6 2.416538 1_555
La1 O0 2.425522 1_564
La1 O39 2.439037 1_565
La1 O4 2.751787 1_554
La1 O34 2.760745 1_565
La1 O25 2.767438 1_565
La1 O13 2.788306 1_554
La1 O9 2.795693 1_555
La1 O3 2.810960 1_565
La2 O12 2.416538 1_555
La2 O34 2.425522 1_465
La2 O14 2.439037 1_455
La2 O38 2.751787 1_565
La2 O5 2.760745 1_455
La2 O6 2.767438 1_455
La2 O7 2.788305 1_565
La2 O19 2.795693 1_555
La2 O16 2.810960 1_455
La3 O26 2.416537 1_555
La3 O5 2.425522 1_456
La3 O20 2.439037 1_556
La3 O8 2.751787 1_455
La3 O2 2.760745 1_556
La3 O12 2.767438 1_556
La3 O22 2.788306 1_455
La3 O15 2.795693 1_555
La3 O9 2.810960 1_556
La4 O23 2.383666 1_555
La4 O11 2.450039 1_555
La4 O9 2.493798 1_555
La4 O30 2.631108 1_555
La4 O17 2.722068 1_555
La4 O27 2.799607 1_555
La4 O6 2.829771 1_555
La4 O20 2.872928 1_555
La4 O18 2.957803 1_554
La4 O35 3.037053 1_555
La4 O12 3.191575 1_555
La4 O13 3.295251 1_554
La5 O13 2.444173 1_555
La5 O10 2.444173 1_555
La5 O22 2.444173 1_555
La5 O33 2.633653 1_555
La5 O30 2.633653 1_555
La5 O28 2.633653 1_555
La6 O33 2.383666 1_555
La6 O17 2.450039 1_555
La6 O19 2.493798 1_555
La6 O23 2.631108 1_555
La6 O21 2.722068 1_555
La6 O10 2.799607 1_555
La6 O12 2.829771 1_555
La6 O4 2.872928 1_555
La6 O41 2.957803 1_565
La6 O30 3.037053 1_555
La6 O26 3.191575 1_555
La6 O7 3.295251 1_565
La7 O25 2.416537 1_555
La7 O24 2.425522 1_654
La7 O8 2.439037 1_554
La7 O20 2.751787 1_655
La7 O0 2.760745 1_554
La7 O37 2.767438 1_554
La7 O29 2.788306 1_655
La7 O16 2.795693 1_555
La7 O31 2.810960 1_554
La8 O28 2.383666 1_555
La8 O18 2.450039 1_555
La8 O31 2.493798 1_555
La8 O36 2.631108 1_555
La8 O41 2.722068 1_555
La8 O13 2.799607 1_555
La8 O40 2.829771 1_555
La8 O8 2.872928 1_555
La8 O11 2.957803 1_556
La8 O33 3.037053 1_555
La8 O37 3.191575 1_555
La8 O27 3.295251 1_556
La9 O30 2.383666 1_555
La9 O32 2.450039 1_555
La9 O16 2.493798 1_555
La9 O35 2.631107 1_555
La9 O11 2.722068 1_555
La9 O22 2.799607 1_555
La9 O25 2.829771 1_555
La9 O14 2.872928 1_555
La9 O21 2.957803 1_655
La9 O28 3.037053 1_555
La9 O6 3.191575 1_555
La9 O29 3.295251 1_655
La10 O36 2.383666 1_555
La10 O21 2.450039 1_555
La10 O15 2.493798 1_555
La10 O33 2.631107 1_555
La10 O18 2.722068 1_555
La10 O29 2.799607 1_555
La10 O26 2.829771 1_555
La10 O38 2.872928 1_555
La10 O32 2.957803 1_455
La10 O23 3.037053 1_555
La10 O40 3.191575 1_555
La10 O22 3.295251 1_455
La11 O27 2.444173 1_555
La11 O7 2.444173 1_555
La11 O29 2.444173 1_555
La11 O35 2.633653 1_555
La11 O36 2.633653 1_555
La11 O23 2.633653 1_555
La12 O35 2.383666 1_555
La12 O41 2.450039 1_555
La12 O3 2.493798 1_555
La12 O28 2.631108 1_555
La12 O32 2.722068 1_555
La12 O7 2.799607 1_555
La12 O37 2.829771 1_555
La12 O39 2.872928 1_555
La12 O17 2.957803 1_545
La12 O36 3.037053 1_555
La12 O25 3.191575 1_555
La12 O10 3.295251 1_545
La13 O37 2.416538 1_555
La13 O1 2.425522 1_645
La13 O38 2.439037 1_655
La13 O14 2.751787 1_545
La13 O24 2.760745 1_655
La13 O40 2.767438 1_655
La13 O10 2.788305 1_545
La13 O3 2.795693 1_555
La13 O15 2.810960 1_655
Mn0 O0 2.002697 1_555
Mn0 O4 2.009700 1_545
Mn0 O41 2.011706 1_555
Mn0 O10 2.015176 1_545
Mn0 O37 2.016262 1_555
Mn0 O31 2.036265 1_555
Mn1 O24 2.005791 1_554
Mn1 O5 2.005791 1_445
Mn1 O34 2.005791 1_455
Mn1 O1 2.005791 1_544
Mn1 O2 2.005791 1_545
Mn1 O0 2.005791 1_454
Mn2 O30 1.893628 1_555
Mn2 O3 1.958836 1_565
Mn2 O17 1.998020 1_555
Mn2 O10 2.000050 1_555
Mn2 O14 2.008480 1_555
Mn2 O6 2.009687 1_555
Mn3 O5 2.002696 1_555
Mn3 O8 2.009700 1_554
Mn3 O11 2.011706 1_555
Mn3 O13 2.015176 1_554
Mn3 O6 2.016262 1_555
Mn3 O16 2.036265 1_555
Mn4 O33 1.893628 1_555
Mn4 O9 1.958836 1_556
Mn4 O18 1.998020 1_555
Mn4 O13 2.000050 1_555
Mn4 O4 2.008480 1_555
Mn4 O26 2.009687 1_555
Mn5 O2 2.002697 1_555
Mn5 O39 2.009700 1_565
Mn5 O17 2.011706 1_555
Mn5 O7 2.015176 1_565
Mn5 O12 2.016262 1_555
Mn5 O9 2.036265 1_555
Mn6 O1 2.002697 1_555
Mn6 O14 2.009700 1_455
Mn6 O21 2.011706 1_555
Mn6 O22 2.015176 1_455
Mn6 O26 2.016262 1_555
Mn6 O19 2.036265 1_555
Mn7 O23 1.893629 1_555
Mn7 O16 1.958836 1_455
Mn7 O21 1.998020 1_555
Mn7 O29 2.000050 1_555
Mn7 O20 2.008480 1_555
Mn7 O12 2.009687 1_555
Mn8 O24 2.002696 1_555
Mn8 O20 2.009700 1_556
Mn8 O18 2.011706 1_555
Mn8 O27 2.015176 1_556
Mn8 O40 2.016262 1_555
Mn8 O15 2.036265 1_555
Mn9 O28 1.893629 1_555
Mn9 O15 1.958836 1_655
Mn9 O32 1.998020 1_555
Mn9 O22 2.000050 1_555
Mn9 O8 2.008480 1_555
Mn9 O37 2.009687 1_555
Mn10 O34 2.002697 1_555
Mn10 O38 2.009700 1_655
Mn10 O32 2.011706 1_555
Mn10 O29 2.015176 1_655
Mn10 O25 2.016262 1_555
Mn10 O3 2.036265 1_555
Mn11 O35 1.893628 1_555
Mn11 O31 1.958836 1_554
Mn11 O11 1.998020 1_555
Mn11 O27 2.000050 1_555
Mn11 O39 2.008480 1_555
Mn11 O25 2.009687 1_555
Mn12 O36 1.893628 1_555
Mn12 O19 1.958836 1_545
Mn12 O41 1.998020 1_555
Mn12 O7 2.000050 1_555
Mn12 O38 2.008480 1_555
Mn12 O40 2.009687 1_555
