# generated using pymatgen
data_Ca2SnS4
_symmetry_space_group_name_H-M   'P 1'
_cell_length_a   6.56253781
_cell_length_b   8.22000785
_cell_length_c   13.97510648
_cell_angle_alpha   90.00000000
_cell_angle_beta   90.00000000
_cell_angle_gamma   90.00000000
_symmetry_Int_Tables_number   1
_chemical_formula_structural   Ca2SnS4
_chemical_formula_sum   'Ca8 Sn4 S16'
_cell_volume   753.87471356
_cell_formula_units_Z   4
loop_
 _symmetry_equiv_pos_site_id
 _symmetry_equiv_pos_as_xyz
  1  'x, y, z'
loop_
 _atom_site_type_symbol
 _atom_site_label
 _atom_site_symmetry_multiplicity
 _atom_site_fract_x
 _atom_site_fract_y
 _atom_site_fract_z
 _atom_site_occupancy
  Ca  Ca0  1  -0.00000000  0.50000000  -0.00000000  1
  Ca  Ca1  1  0.50000000  0.00000000  0.50000000  1
  Ca  Ca2  1  -0.00000000  0.00000000  -0.00000000  1
  Ca  Ca3  1  0.50000000  0.50000000  0.50000000  1
  Ca  Ca4  1  0.48979115  0.75000000  0.22819884  1
  Ca  Ca5  1  0.01020885  0.75000000  0.72819884  1
  Ca  Ca6  1  0.51020885  0.25000000  0.77180116  1
  Ca  Ca7  1  0.98979115  0.25000000  0.27180116  1
  Sn  Sn0  1  0.91451078  0.75000000  0.40712760  1
  Sn  Sn1  1  0.58548922  0.75000000  0.90712760  1
  Sn  Sn2  1  0.08548922  0.25000000  0.59287240  1
  Sn  Sn3  1  0.41451078  0.25000000  0.09287240  1
  S  S0  1  0.76207346  0.75000000  0.56433309  1
  S  S1  1  0.73792654  0.75000000  0.06433309  1
  S  S2  1  0.23792654  0.25000000  0.43566691  1
  S  S3  1  0.26207346  0.25000000  0.93566691  1
  S  S4  1  0.27561340  0.75000000  0.40689254  1
  S  S5  1  0.22438660  0.75000000  0.90689254  1
  S  S6  1  0.72438660  0.25000000  0.59310746  1
  S  S7  1  0.77561340  0.25000000  0.09310746  1
  S  S8  1  0.74858270  0.52285210  0.33101696  1
  S  S9  1  0.75141730  0.97714790  0.83101696  1
  S  S10  1  0.25141730  0.02285210  0.66898304  1
  S  S11  1  0.24858270  0.47714790  0.16898304  1
  S  S12  1  0.25141730  0.47714790  0.66898304  1
  S  S13  1  0.24858270  0.02285210  0.16898304  1
  S  S14  1  0.74858270  0.97714790  0.33101696  1
  S  S15  1  0.75141730  0.52285210  0.83101696  1
loop_
_geom_bond_atom_site_label_1
_geom_bond_atom_site_label_2
_geom_bond_distance
_geom_bond_site_symmetry_2
Ca0 S3 2.826533 1_554
Ca0 S1 2.826533 1_455
Ca0 S7 2.843327 1_455
Ca0 S5 2.843327 1_554
Ca0 S15 2.876366 1_454
Ca0 S11 2.876366 1_555
Ca1 S0 2.826533 1_545
Ca1 S2 2.826533 1_555
Ca1 S4 2.843327 1_545
Ca1 S6 2.843327 1_555
Ca1 S14 2.876366 1_545
Ca1 S10 2.876366 1_555
Ca2 S1 2.826533 1_445
Ca2 S3 2.826533 1_554
Ca2 S7 2.843327 1_455
Ca2 S5 2.843327 1_544
Ca2 S9 2.876366 1_444
Ca2 S13 2.876366 1_555
Ca3 S2 2.826533 1_555
Ca3 S0 2.826533 1_555
Ca3 S4 2.843327 1_555
Ca3 S6 2.843327 1_555
Ca3 S8 2.876366 1_555
Ca3 S12 2.876366 1_555
Ca4 S1 2.809977 1_555
Ca4 S4 2.865640 1_555
Ca4 S13 2.867210 1_565
Ca4 S11 2.867210 1_555
Ca4 S14 2.904353 1_555
Ca4 S8 2.904353 1_555
Ca5 S0 2.809977 1_455
Ca5 S5 2.865640 1_555
Ca5 S10 2.867210 1_565
Ca5 S12 2.867210 1_555
Ca5 S9 2.904353 1_455
Ca5 S15 2.904353 1_455
Ca6 S3 2.809977 1_555
Ca6 S6 2.865640 1_555
Ca6 S15 2.867210 1_555
Ca6 S9 2.867210 1_545
Ca6 S12 2.904353 1_555
Ca6 S10 2.904353 1_555
Ca7 S2 2.809977 1_655
Ca7 S7 2.865640 1_555
Ca7 S8 2.867210 1_555
Ca7 S14 2.867210 1_545
Ca7 S11 2.904353 1_655
Ca7 S13 2.904353 1_655
S0 Sn0 2.414001 1_555
S1 Sn1 2.414001 1_554
S2 Sn2 2.414001 1_555
S3 Sn3 2.414001 1_556
S4 Sn0 2.369752 1_455
S5 Sn1 2.369752 1_555
S6 Sn2 2.369752 1_655
S7 Sn3 2.369752 1_555
S8 Sn0 2.409017 1_555
S9 Sn1 2.409017 1_555
S10 Sn2 2.409017 1_555
S11 Sn3 2.409017 1_555
S12 Sn2 2.409017 1_555
S13 Sn3 2.409017 1_555
S14 Sn0 2.409017 1_555
S15 Sn1 2.409017 1_555
