# generated using pymatgen
data_YMgZn2
_symmetry_space_group_name_H-M   'P 1'
_cell_length_a   4.79985914
_cell_length_b   4.79985914
_cell_length_c   4.79985914
_cell_angle_alpha   60.00000000
_cell_angle_beta   60.00000000
_cell_angle_gamma   60.00000000
_symmetry_Int_Tables_number   1
_chemical_formula_structural   YMgZn2
_chemical_formula_sum   'Y1 Mg1 Zn2'
_cell_volume   78.19346902
_cell_formula_units_Z   1
loop_
 _symmetry_equiv_pos_site_id
 _symmetry_equiv_pos_as_xyz
  1  'x, y, z'
loop_
 _atom_site_type_symbol
 _atom_site_label
 _atom_site_symmetry_multiplicity
 _atom_site_fract_x
 _atom_site_fract_y
 _atom_site_fract_z
 _atom_site_occupancy
  Y  Y0  1  0.75000000  0.75000000  0.75000000  1
  Mg  Mg0  1  0.24999900  0.24999900  0.24999900  1
  Zn  Zn0  1  -0.00000000  -0.00000000  -0.00000000  1
  Zn  Zn1  1  0.50000000  0.50000000  0.50000000  1
loop_
_geom_bond_atom_site_label_1
_geom_bond_atom_site_label_2
_geom_bond_distance
_geom_bond_site_symmetry_2
Y0 Zn1 2.939301 1_655
Y0 Zn0 2.939301 1_566
Y0 Zn1 2.939301 1_565
Y0 Zn0 2.939301 1_665
Y0 Zn0 2.939301 1_666
Y0 Zn1 2.939301 1_555
Y0 Zn1 2.939301 1_556
Y0 Zn0 2.939301 1_656
Mg0 Zn0 2.939290 1_555
Mg0 Zn1 2.939298 1_545
Mg0 Zn1 2.939298 1_554
Mg0 Zn1 2.939298 1_455
Mg0 Zn0 2.939305 1_556
Mg0 Zn0 2.939305 1_565
Mg0 Zn0 2.939305 1_655
Mg0 Zn1 2.939313 1_555
