# generated using pymatgen
data_V3(O2F)2
_symmetry_space_group_name_H-M   'P 1'
_cell_length_a   5.58295600
_cell_length_b   5.59124343
_cell_length_c   7.30419999
_cell_angle_alpha   72.89203567
_cell_angle_beta   72.08332483
_cell_angle_gamma   72.54313840
_symmetry_Int_Tables_number   1
_chemical_formula_structural   V3(O2F)2
_chemical_formula_sum   'V6 O8 F4'
_cell_volume   201.77227038
_cell_formula_units_Z   2
loop_
 _symmetry_equiv_pos_site_id
 _symmetry_equiv_pos_as_xyz
  1  'x, y, z'
loop_
 _atom_site_type_symbol
 _atom_site_label
 _atom_site_symmetry_multiplicity
 _atom_site_fract_x
 _atom_site_fract_y
 _atom_site_fract_z
 _atom_site_occupancy
  V  V0  1  0.50000000  0.50000000  0.50000000  1
  V  V1  1  0.20289100  0.13223000  0.35164600  1
  V  V2  1  0.50000000  0.50000000  0.00000000  1
  V  V3  1  0.15103300  0.14467400  0.83388700  1
  V  V4  1  0.84896700  0.85532600  0.16611300  1
  V  V5  1  0.79710900  0.86777000  0.64835400  1
  O  O0  1  0.19596300  0.79311900  0.00235600  1
  O  O1  1  0.06446500  0.05593600  0.62588100  1
  O  O2  1  0.39248800  0.39045900  0.30517300  1
  O  O3  1  0.93553500  0.94406400  0.37411900  1
  O  O4  1  0.60751200  0.60954100  0.69482700  1
  O  O5  1  0.47570300  0.86083800  0.32908300  1
  O  O6  1  0.80403700  0.20688100  0.99764400  1
  O  O7  1  0.52429700  0.13916200  0.67091700  1
  F  F0  1  0.87787500  0.46367500  0.32764900  1
  F  F1  1  0.73783600  0.74393200  0.95640100  1
  F  F2  1  0.26216400  0.25606800  0.04359900  1
  F  F3  1  0.12212500  0.53632500  0.67235100  1
loop_
_geom_bond_atom_site_label_1
_geom_bond_atom_site_label_2
_geom_bond_distance
_geom_bond_site_symmetry_2
O0 V4 1.928591 1_455
O0 V2 1.974103 1_555
O0 V3 1.977838 1_564
O1 V1 1.879929 1_555
O1 V3 1.956334 1_555
O1 V5 2.012863 1_445
O2 V1 1.930755 1_555
O2 V0 2.004841 1_555
O2 V2 2.073207 1_555
O3 V5 1.879929 1_555
O3 V4 1.956334 1_555
O3 V1 2.012863 1_665
O4 V5 1.930755 1_555
O4 V0 2.004841 1_555
O4 V2 2.073207 1_556
O5 V1 1.804325 1_565
O5 V0 2.026201 1_555
O5 V4 2.053639 1_555
O6 V3 1.928591 1_655
O6 V2 1.974103 1_556
O6 V4 1.977838 1_546
O7 V5 1.804325 1_545
O7 V0 2.026201 1_555
O7 V3 2.053639 1_555
F0 V0 2.082312 1_555
F0 V4 2.144404 1_555
F0 V1 2.178225 1_655
F1 V2 2.072575 1_556
F1 V5 2.101035 1_555
F1 V4 2.120636 1_556
F2 V2 2.072575 1_555
F2 V1 2.101035 1_555
F2 V3 2.120636 1_554
F3 V0 2.082312 1_555
F3 V3 2.144404 1_555
F3 V5 2.178225 1_455
