# generated using pymatgen
data_Li4Mn5Ni(PO4)6
_symmetry_space_group_name_H-M   'P 1'
_cell_length_a   8.49488600
_cell_length_b   8.59762353
_cell_length_c   8.60665834
_cell_angle_alpha   62.13432491
_cell_angle_beta   63.03357276
_cell_angle_gamma   63.82682486
_symmetry_Int_Tables_number   1
_chemical_formula_structural   Li4Mn5Ni(PO4)6
_chemical_formula_sum   'Li4 Mn5 Ni1 P6 O24'
_cell_volume   473.88023933
_cell_formula_units_Z   1
loop_
 _symmetry_equiv_pos_site_id
 _symmetry_equiv_pos_as_xyz
  1  'x, y, z'
loop_
 _atom_site_type_symbol
 _atom_site_label
 _atom_site_symmetry_multiplicity
 _atom_site_fract_x
 _atom_site_fract_y
 _atom_site_fract_z
 _atom_site_occupancy
  Li  Li0  1  0.74966900  0.14076700  0.35312100  1
  Li  Li1  1  0.23552100  0.84747100  0.65881300  1
  Li  Li2  1  0.65388300  0.24166100  0.84617900  1
  Li  Li3  1  0.85171700  0.65078200  0.24027000  1
  Mn  Mn0  1  0.00778100  0.00203000  0.99267400  1
  Mn  Mn1  1  0.35644700  0.35383500  0.35273100  1
  Mn  Mn2  1  0.48962100  0.51014400  0.50086900  1
  Mn  Mn3  1  0.14736200  0.14348200  0.14876800  1
  Mn  Mn4  1  0.65159700  0.65966100  0.65319000  1
  Ni  Ni0  1  0.84752800  0.84940400  0.85299300  1
  P  P0  1  0.05967800  0.75216500  0.44837500  1
  P  P1  1  0.43913300  0.05736000  0.75182100  1
  P  P2  1  0.74662600  0.44420200  0.05427400  1
  P  P3  1  0.24764800  0.54018500  0.96133600  1
  P  P4  1  0.56006500  0.95215700  0.24925700  1
  P  P5  1  0.95188100  0.24772200  0.54061700  1
  O  O0  1  0.45650200  0.90369000  0.69654400  1
  O  O1  1  0.68123300  0.47164700  0.90271300  1
  O  O2  1  0.90593000  0.69080600  0.46677200  1
  O  O3  1  0.06297300  0.92287700  0.25903200  1
  O  O4  1  0.02161600  0.81135300  0.60803800  1
  O  O5  1  0.24965400  0.60711600  0.42438600  1
  O  O6  1  0.25069100  0.08017700  0.90812000  1
  O  O7  1  0.43266800  0.24589600  0.58333600  1
  O  O8  1  0.17623100  0.38445500  0.00549400  1
  O  O9  1  0.59236400  0.41998000  0.25285100  1
  O  O10  1  0.09504100  0.73175300  0.94366400  1
  O  O11  1  0.39491600  0.00611200  0.19028700  1
  O  O12  1  0.60310300  0.02906700  0.80381800  1
  O  O13  1  0.89226100  0.24954800  0.08194700  1
  O  O14  1  0.39581200  0.56303200  0.76515400  1
  O  O15  1  0.80796100  0.60016200  0.02607900  1
  O  O16  1  0.57534600  0.75509400  0.40004300  1
  O  O17  1  0.74993300  0.92939100  0.08839400  1
  O  O18  1  0.76071700  0.39747000  0.56883600  1
  O  O19  1  0.96907400  0.18641900  0.39077700  1
  O  O20  1  0.94287400  0.09036000  0.73463800  1
  O  O21  1  0.11715500  0.31088900  0.48838100  1
  O  O22  1  0.31926200  0.50152300  0.11403300  1
  O  O23  1  0.55052100  0.09515400  0.31437500  1
loop_
_geom_bond_atom_site_label_1
_geom_bond_atom_site_label_2
_geom_bond_distance
_geom_bond_site_symmetry_2
Li0 O13 2.045484 1_555
Li0 O23 2.084741 1_555
Li0 O9 2.138354 1_555
Li0 O19 2.246111 1_555
Li0 O3 2.512707 1_645
Li0 O7 2.585018 1_555
Li1 O10 2.130319 1_555
Li1 O14 2.184638 1_555
Li1 O4 2.221273 1_555
Li1 O0 2.315821 1_555
Li1 O20 2.487928 1_465
Li2 O18 2.105839 1_555
Li2 O20 2.203016 1_555
Li2 O12 2.262964 1_555
Li2 O1 2.368070 1_555
Li2 O17 2.568623 1_546
Li3 O17 2.113062 1_555
Li3 O16 2.138824 1_555
Li3 O15 2.289126 1_555
Li3 O2 2.389952 1_555
Li3 O10 2.469099 1_654
Mn0 O6 2.154783 1_555
Mn0 O17 2.226155 1_446
Mn0 O20 2.231007 1_455
Mn0 O13 2.254863 1_456
Mn0 O3 2.274474 1_546
Mn0 O10 2.289174 1_545
Mn1 O22 1.931014 1_555
Mn1 O21 1.933459 1_555
Mn1 O9 2.016114 1_555
Mn1 O7 2.033047 1_555
Mn1 O23 2.175194 1_555
Mn1 O5 2.224990 1_555
Mn2 O5 2.118614 1_555
Mn2 O16 2.188598 1_555
Mn2 O14 2.240293 1_555
Mn2 O7 2.247271 1_555
Mn2 O9 2.275861 1_555
Mn2 O18 2.303932 1_555
Mn3 O8 1.912801 1_555
Mn3 O3 1.977821 1_545
Mn3 O11 2.010204 1_555
Mn3 O19 2.032989 1_455
Mn3 O6 2.083264 1_554
Mn3 O13 2.180639 1_455
Mn4 O1 2.043179 1_555
Mn4 O2 2.068507 1_555
Mn4 O0 2.095549 1_555
Mn4 O16 2.231528 1_555
Mn4 O14 2.298965 1_555
Mn4 O18 2.354572 1_555
Ni0 O15 2.030098 1_556
Ni0 O4 2.032003 1_655
Ni0 O12 2.057402 1_565
Ni0 O17 2.130991 1_556
Ni0 O20 2.178225 1_565
Ni0 O10 2.219698 1_655
O0 P1 1.531540 1_565
O1 P2 1.523035 1_556
O2 P0 1.533421 1_655
O3 P0 1.603003 1_555
O4 P0 1.535384 1_555
O5 P0 1.537964 1_555
O6 P1 1.557971 1_555
O7 P1 1.590505 1_555
O8 P3 1.528712 1_554
O9 P2 1.599499 1_555
O10 P3 1.574007 1_555
O11 P4 1.514113 1_545
O12 P1 1.537631 1_555
O13 P2 1.567232 1_555
O14 P3 1.566637 1_555
O15 P2 1.525064 1_555
O16 P4 1.573201 1_555
O17 P4 1.583092 1_555
O18 P5 1.563294 1_555
O19 P5 1.535873 1_555
O20 P5 1.577429 1_555
O21 P5 1.529764 1_455
O22 P3 1.531692 1_554
O23 P4 1.532042 1_545
