# generated using pymatgen
data_Ba2ScFeAsO3
_symmetry_space_group_name_H-M   'P 1'
_cell_length_a   5.98864643
_cell_length_b   5.96815023
_cell_length_c   17.14926900
_cell_angle_alpha   89.99765448
_cell_angle_beta   89.99994058
_cell_angle_gamma   89.99962089
_symmetry_Int_Tables_number   1
_chemical_formula_structural   Ba2ScFeAsO3
_chemical_formula_sum   'Ba8 Sc4 Fe4 As4 O12'
_cell_volume   612.93445093
_cell_formula_units_Z   4
loop_
 _symmetry_equiv_pos_site_id
 _symmetry_equiv_pos_as_xyz
  1  'x, y, z'
loop_
 _atom_site_type_symbol
 _atom_site_label
 _atom_site_symmetry_multiplicity
 _atom_site_fract_x
 _atom_site_fract_y
 _atom_site_fract_z
 _atom_site_occupancy
  Ba  Ba0  1  0.75011000  0.99848000  0.19196700  1
  Ba  Ba1  1  0.24988800  0.49850700  0.19197400  1
  Ba  Ba2  1  0.24989000  0.99850500  0.80802500  1
  Ba  Ba3  1  0.75011500  0.49848100  0.80803200  1
  Ba  Ba4  1  0.75000900  0.00000200  0.41497100  1
  Ba  Ba5  1  0.24999000  0.50000500  0.41497300  1
  Ba  Ba6  1  0.24999700  0.99998100  0.58502700  1
  Ba  Ba7  1  0.75001400  0.49998000  0.58502900  1
  Sc  Sc0  1  0.25002800  0.99977900  0.31348900  1
  Sc  Sc1  1  0.74996300  0.49977200  0.31349000  1
  Sc  Sc2  1  0.74997300  0.99976600  0.68651000  1
  Sc  Sc3  1  0.25003800  0.49977300  0.68651000  1
  Fe  Fe0  1  0.99993500  0.24721400  0.00006000  1
  Fe  Fe1  1  0.00000200  0.74722300  0.99994100  1
  Fe  Fe2  1  0.50003400  0.76220200  0.99998200  1
  Fe  Fe3  1  0.49996800  0.26221700  0.00002100  1
  As  As0  1  0.25076000  0.99757100  0.08865100  1
  As  As1  1  0.74926300  0.49765400  0.08866600  1
  As  As2  1  0.74925200  0.99764500  0.91133900  1
  As  As3  1  0.25074900  0.49756300  0.91134900  1
  O  O0  1  0.25000400  0.00000300  0.42881600  1
  O  O1  1  0.74999400  0.50000100  0.42881700  1
  O  O2  1  0.75000100  0.99999800  0.57118200  1
  O  O3  1  0.25000900  0.49999900  0.57118200  1
  O  O4  1  0.49995500  0.74974700  0.29461000  1
  O  O5  1  0.99987000  0.24968900  0.29462400  1
  O  O6  1  0.50003700  0.24974900  0.29461400  1
  O  O7  1  0.00012100  0.74969300  0.29462900  1
  O  O8  1  0.50005700  0.74972900  0.70538600  1
  O  O9  1  0.00014100  0.24967300  0.70537200  1
  O  O10  1  0.49995100  0.24973000  0.70539000  1
  O  O11  1  0.99986500  0.74967200  0.70537700  1
loop_
_geom_bond_atom_site_label_1
_geom_bond_atom_site_label_2
_geom_bond_distance
_geom_bond_site_symmetry_2
Ba0 O7 2.746946 1_655
Ba0 O4 2.747042 1_555
Ba0 O5 2.754004 1_565
Ba0 O6 2.755095 1_565
Ba1 O5 2.746946 1_455
Ba1 O6 2.747061 1_555
Ba1 O7 2.753917 1_555
Ba1 O4 2.754873 1_555
Ba2 O11 2.747075 1_455
Ba2 O8 2.747243 1_555
Ba2 O9 2.753702 1_565
Ba2 O10 2.754714 1_565
Ba3 O9 2.747117 1_655
Ba3 O10 2.747198 1_555
Ba3 O11 2.753810 1_555
Ba3 O8 2.754890 1_555
Ba4 O2 2.678904 1_545
Ba4 O5 2.952780 1_555
Ba4 O6 2.953409 1_555
Ba4 O4 2.955333 1_545
Ba4 O7 2.955432 1_645
Ba4 O1 2.993504 1_545
Ba4 O1 2.993511 1_555
Ba4 O0 3.003692 1_655
Ba4 O0 3.003752 1_555
Ba5 O3 2.678870 1_555
Ba5 O7 2.952763 1_555
Ba5 O4 2.953453 1_555
Ba5 O6 2.955278 1_555
Ba5 O5 2.955573 1_455
Ba5 O0 2.993501 1_565
Ba5 O0 2.993505 1_555
Ba5 O1 3.003696 1_455
Ba5 O1 3.003745 1_555
Ba6 O0 2.678904 1_565
Ba6 O9 2.952831 1_565
Ba6 O10 2.953528 1_565
Ba6 O8 2.955222 1_555
Ba6 O11 2.955513 1_455
Ba6 O3 2.993409 1_555
Ba6 O3 2.993603 1_565
Ba6 O2 3.003698 1_455
Ba6 O2 3.003746 1_555
Ba7 O1 2.678922 1_555
Ba7 O11 2.952864 1_555
Ba7 O8 2.953453 1_555
Ba7 O10 2.955257 1_555
Ba7 O9 2.955400 1_655
Ba7 O2 2.993411 1_545
Ba7 O2 2.993606 1_555
Ba7 O3 3.003695 1_655
Ba7 O3 3.003755 1_555
As0 Fe2 2.552277 1_554
As0 Fe0 2.604632 1_465
As0 Fe1 2.608082 1_554
As0 Fe3 2.651794 1_565
As0 Ba1 3.465641 1_555
As0 Ba1 3.475373 1_565
As0 Ba0 3.475913 1_555
As0 Ba0 3.482610 1_455
As1 Fe3 2.552341 1_555
As1 Fe1 2.605433 1_654
As1 Fe0 2.607047 1_555
As1 Fe2 2.652038 1_554
As1 Ba0 3.466013 1_545
As1 Ba0 3.474615 1_555
As1 Ba1 3.475968 1_555
As1 Ba1 3.482414 1_655
As2 Fe2 2.552001 1_555
As2 Fe0 2.605273 1_566
As2 Fe1 2.607145 1_655
As2 Fe3 2.652361 1_566
As2 Ba3 3.466139 1_555
As2 Ba3 3.474594 1_565
As2 Ba2 3.475956 1_555
As2 Ba2 3.482530 1_655
As3 Fe3 2.551973 1_556
As3 Fe1 2.604500 1_555
As3 Fe0 2.608216 1_456
As3 Fe2 2.652134 1_555
As3 Ba2 3.465744 1_545
As3 Ba2 3.475287 1_555
As3 Ba3 3.476001 1_555
As3 Ba3 3.482539 1_455
O0 Sc0 1.977774 1_545
O1 Sc1 1.977774 1_555
O2 Sc2 1.977791 1_555
O3 Sc3 1.977791 1_555
O4 Sc0 2.138168 1_555
O4 Sc1 2.138254 1_555
O5 Sc1 2.138262 1_555
O5 Sc0 2.138574 1_645
O6 Sc1 2.138132 1_555
O6 Sc0 2.138238 1_545
O7 Sc0 2.138274 1_555
O7 Sc1 2.138623 1_455
O8 Sc2 2.138130 1_555
O8 Sc3 2.138243 1_555
O9 Sc3 2.138276 1_555
O9 Sc2 2.138628 1_445
O10 Sc3 2.138139 1_555
O10 Sc2 2.138285 1_545
O11 Sc2 2.138230 1_555
O11 Sc3 2.138614 1_655
