# generated using pymatgen
data_LuZnRh2
_symmetry_space_group_name_H-M   'P 1'
_cell_length_a   4.46389532
_cell_length_b   4.46389532
_cell_length_c   4.46389532
_cell_angle_alpha   60.00000000
_cell_angle_beta   60.00000000
_cell_angle_gamma   60.00000000
_symmetry_Int_Tables_number   1
_chemical_formula_structural   LuZnRh2
_chemical_formula_sum   'Lu1 Zn1 Rh2'
_cell_volume   62.89657643
_cell_formula_units_Z   1
loop_
 _symmetry_equiv_pos_site_id
 _symmetry_equiv_pos_as_xyz
  1  'x, y, z'
loop_
 _atom_site_type_symbol
 _atom_site_label
 _atom_site_symmetry_multiplicity
 _atom_site_fract_x
 _atom_site_fract_y
 _atom_site_fract_z
 _atom_site_occupancy
  Lu  Lu0  1  0.25000000  0.25000000  0.25000000  1
  Zn  Zn0  1  0.75000000  0.75000000  0.75000000  1
  Rh  Rh0  1  0.00000000  0.00000000  -0.00000000  1
  Rh  Rh1  1  0.50000100  0.50000100  0.50000100  1
loop_
_geom_bond_atom_site_label_1
_geom_bond_atom_site_label_2
_geom_bond_distance
_geom_bond_site_symmetry_2
Lu0 Rh1 2.733563 1_545
Lu0 Rh1 2.733563 1_554
Lu0 Rh1 2.733563 1_455
Lu0 Rh0 2.733566 1_565
Lu0 Rh0 2.733566 1_655
Lu0 Rh0 2.733566 1_555
Lu0 Rh0 2.733566 1_556
Lu0 Rh1 2.733577 1_555
Rh0 Zn0 2.733566 1_444
Rh0 Zn0 2.733566 1_544
Rh0 Zn0 2.733566 1_445
Rh0 Zn0 2.733566 1_454
Rh1 Zn0 2.733556 1_555
Rh1 Zn0 2.733570 1_554
Rh1 Zn0 2.733570 1_455
Rh1 Zn0 2.733570 1_545
