# generated using pymatgen
data_Dy2Co3Ge5
_symmetry_space_group_name_H-M   'P 1'
_cell_length_a   8.02292282
_cell_length_b   8.02292282
_cell_length_c   5.71581262
_cell_angle_alpha   70.31601124
_cell_angle_beta   70.31601124
_cell_angle_gamma   93.80141742
_symmetry_Int_Tables_number   1
_chemical_formula_structural   Dy2Co3Ge5
_chemical_formula_sum   'Dy4 Co6 Ge10'
_cell_volume   319.39470251
_cell_formula_units_Z   2
loop_
 _symmetry_equiv_pos_site_id
 _symmetry_equiv_pos_as_xyz
  1  'x, y, z'
loop_
 _atom_site_type_symbol
 _atom_site_label
 _atom_site_symmetry_multiplicity
 _atom_site_fract_x
 _atom_site_fract_y
 _atom_site_fract_z
 _atom_site_occupancy
  Dy  Dy0  1  0.40338710  0.12789510  0.73357831  1
  Dy  Dy1  1  0.87210490  0.59661290  0.76642169  1
  Dy  Dy2  1  0.12789510  0.40338710  0.23357831  1
  Dy  Dy3  1  0.59661290  0.87210490  0.26642169  1
  Co  Co0  1  0.00446861  0.99553139  0.75000000  1
  Co  Co1  1  0.99553139  0.00446861  0.25000000  1
  Co  Co2  1  0.26139736  0.54068596  0.62008406  1
  Co  Co3  1  0.54068596  0.26139736  0.12008406  1
  Co  Co4  1  0.73860264  0.45931404  0.37991594  1
  Co  Co5  1  0.45931404  0.73860264  0.87991594  1
  Ge  Ge0  1  0.50894342  0.49105658  0.75000000  1
  Ge  Ge1  1  0.49105658  0.50894342  0.25000000  1
  Ge  Ge2  1  0.76928160  0.23071840  0.75000000  1
  Ge  Ge3  1  0.23071840  0.76928160  0.25000000  1
  Ge  Ge4  1  0.07369608  0.26121864  0.82769197  1
  Ge  Ge5  1  0.73878136  0.92630392  0.67230803  1
  Ge  Ge6  1  0.78261521  0.21738479  0.25000000  1
  Ge  Ge7  1  0.21738479  0.78261521  0.75000000  1
  Ge  Ge8  1  0.26121864  0.07369608  0.32769197  1
  Ge  Ge9  1  0.92630392  0.73878136  0.17230803  1
loop_
_geom_bond_atom_site_label_1
_geom_bond_atom_site_label_2
_geom_bond_distance
_geom_bond_site_symmetry_2
Dy0 Ge4 2.869534 1_555
Dy0 Ge7 3.015263 1_545
Dy0 Ge0 3.020889 1_555
Dy0 Ge8 3.044469 1_555
Dy0 Ge8 3.058100 1_556
Dy0 Ge6 3.181275 1_555
Dy0 Ge1 3.192704 1_555
Dy0 Ge5 3.209814 1_545
Dy1 Ge5 2.869534 1_555
Dy1 Ge7 3.015263 1_655
Dy1 Ge0 3.020889 1_555
Dy1 Ge9 3.044469 1_556
Dy1 Ge9 3.058100 1_555
Dy1 Ge6 3.181275 1_556
Dy1 Ge1 3.192704 1_556
Dy1 Ge4 3.209814 1_655
Dy2 Ge8 2.869534 1_555
Dy2 Ge6 3.015263 1_455
Dy2 Ge1 3.020889 1_555
Dy2 Ge4 3.044469 1_554
Dy2 Ge4 3.058100 1_555
Dy2 Ge7 3.181275 1_554
Dy2 Ge0 3.192704 1_554
Dy2 Ge9 3.209814 1_455
Dy3 Ge9 2.869534 1_555
Dy3 Ge6 3.015263 1_565
Dy3 Ge1 3.020889 1_555
Dy3 Ge5 3.044469 1_555
Dy3 Ge5 3.058100 1_554
Dy3 Ge7 3.181275 1_555
Dy3 Ge0 3.192704 1_555
Dy3 Ge8 3.209814 1_565
Co0 Ge5 2.386670 1_455
Co0 Ge4 2.386670 1_565
Co0 Ge9 2.433586 1_456
Co0 Ge8 2.433586 1_565
Co0 Ge7 2.494570 1_555
Co0 Ge2 2.755500 1_465
Co1 Ge9 2.386670 1_545
Co1 Ge8 2.386670 1_655
Co1 Ge5 2.433586 1_545
Co1 Ge4 2.433586 1_654
Co1 Ge6 2.494570 1_555
Co1 Ge3 2.755500 1_645
Co2 Ge4 2.293295 1_555
Co2 Ge7 2.308400 1_555
Co2 Ge0 2.356588 1_555
Co2 Ge3 2.386606 1_555
Co2 Ge1 2.394556 1_555
Co3 Ge8 2.293295 1_555
Co3 Ge6 2.308400 1_555
Co3 Ge1 2.356588 1_555
Co3 Ge2 2.386606 1_554
Co3 Ge0 2.394556 1_554
Co4 Ge9 2.293295 1_555
Co4 Ge6 2.308400 1_555
Co4 Ge1 2.356588 1_555
Co4 Ge2 2.386606 1_555
Co4 Ge0 2.394556 1_555
Co5 Ge5 2.293295 1_555
Co5 Ge7 2.308400 1_555
Co5 Ge0 2.356588 1_555
Co5 Ge3 2.386606 1_556
Co5 Ge1 2.394556 1_556
Ge2 Ge4 2.635615 1_655
Ge2 Ge5 2.635615 1_545
Ge2 Ge6 2.862173 1_556
Ge2 Ge6 2.862173 1_555
Ge3 Ge9 2.635615 1_455
Ge3 Ge8 2.635615 1_565
Ge3 Ge7 2.862173 1_555
Ge3 Ge7 2.862173 1_554
Ge4 Ge6 2.631678 1_456
Ge5 Ge6 2.631678 1_565
Ge7 Ge9 2.631678 1_456
Ge7 Ge8 2.631678 1_565
