# generated using pymatgen
data_Li2V3P4H4O19
_symmetry_space_group_name_H-M   'P 1'
_cell_length_a   9.25708500
_cell_length_b   8.82335400
_cell_length_c   10.50889191
_cell_angle_alpha   65.78150964
_cell_angle_beta   90.00000000
_cell_angle_gamma   90.00000000
_symmetry_Int_Tables_number   1
_chemical_formula_structural   Li2V3P4H4O19
_chemical_formula_sum   'Li4 V6 P8 H8 O38'
_cell_volume   782.80555595
_cell_formula_units_Z   2
loop_
 _symmetry_equiv_pos_site_id
 _symmetry_equiv_pos_as_xyz
  1  'x, y, z'
loop_
 _atom_site_type_symbol
 _atom_site_label
 _atom_site_symmetry_multiplicity
 _atom_site_fract_x
 _atom_site_fract_y
 _atom_site_fract_z
 _atom_site_occupancy
  Li  Li0  1  0.53003400  0.24524800  0.99537200  1
  Li  Li1  1  0.46996600  0.74524800  0.99537200  1
  Li  Li2  1  0.78028800  0.79002700  0.45938300  1
  Li  Li3  1  0.21971200  0.29002700  0.45938300  1
  V  V0  1  0.75325500  0.32847200  0.78904300  1
  V  V1  1  0.24674500  0.82847200  0.78904300  1
  V  V2  1  0.25564900  0.73300300  0.49503900  1
  V  V3  1  0.74435100  0.23300300  0.49503900  1
  V  V4  1  0.75627600  0.18353600  0.17889700  1
  V  V5  1  0.24372400  0.68353600  0.17889700  1
  P  P0  1  0.04535600  0.54099600  0.76284000  1
  P  P1  1  0.50085100  0.61262200  0.73827300  1
  P  P2  1  0.95464400  0.04099600  0.76284000  1
  P  P3  1  0.49914900  0.11262200  0.73827300  1
  P  P4  1  0.49725700  0.88589100  0.26359900  1
  P  P5  1  0.04465000  0.95455400  0.24504900  1
  P  P6  1  0.50274300  0.38589100  0.26359900  1
  P  P7  1  0.95535000  0.45455400  0.24504900  1
  H  H0  1  0.07148100  0.27572600  0.85970500  1
  H  H1  1  0.40340600  0.37001600  0.65082800  1
  H  H2  1  0.92851900  0.77572600  0.85970500  1
  H  H3  1  0.59659400  0.87001600  0.65082800  1
  H  H4  1  0.40234600  0.12748700  0.35293900  1
  H  H5  1  0.06858000  0.22256000  0.14745000  1
  H  H6  1  0.59765400  0.62748700  0.35293900  1
  H  H7  1  0.93142000  0.72256000  0.14745000  1
  O  O0  1  0.76622400  0.24386000  0.00270000  1
  O  O1  1  0.12405300  0.37399300  0.86028600  1
  O  O2  1  0.23377600  0.74386000  0.00270000  1
  O  O3  1  0.58854900  0.45597200  0.82188000  1
  O  O4  1  0.41299300  0.65389400  0.84419600  1
  O  O5  1  0.88073200  0.51409100  0.76639900  1
  O  O6  1  0.07840600  0.67173400  0.82130300  1
  O  O7  1  0.87594700  0.87399300  0.86028600  1
  O  O8  1  0.41145100  0.95597200  0.82188000  1
  O  O9  1  0.40606600  0.57907600  0.63166200  1
  O  O10  1  0.09780800  0.59847600  0.61206200  1
  O  O11  1  0.61438600  0.75652300  0.65356800  1
  O  O12  1  0.58700700  0.15389400  0.84419600  1
  O  O13  1  0.11926800  0.01409100  0.76639900  1
  O  O14  1  0.92159400  0.17173400  0.82130300  1
  O  O15  1  0.26804100  0.86095800  0.61816100  1
  O  O16  1  0.59393400  0.07907600  0.63166200  1
  O  O17  1  0.90219200  0.09847600  0.61206200  1
  O  O18  1  0.26957300  0.63215600  0.38497400  1
  O  O19  1  0.38561400  0.25652300  0.65356800  1
  O  O20  1  0.61744200  0.74412500  0.34114800  1
  O  O21  1  0.73195900  0.36095800  0.61816100  1
  O  O22  1  0.10152600  0.89231600  0.39435300  1
  O  O23  1  0.40611100  0.90910300  0.37689200  1
  O  O24  1  0.73042700  0.13215600  0.38497400  1
  O  O25  1  0.07495900  0.82878000  0.18069100  1
  O  O26  1  0.87893200  0.97816900  0.25158100  1
  O  O27  1  0.40884500  0.84712400  0.15714900  1
  O  O28  1  0.38255800  0.24412500  0.34114800  1
  O  O29  1  0.89847400  0.39231600  0.39435300  1
  O  O30  1  0.59388900  0.40910300  0.37689200  1
  O  O31  1  0.58254700  0.04426200  0.18274700  1
  O  O32  1  0.11955000  0.12316600  0.14678500  1
  O  O33  1  0.92504100  0.32878000  0.18069100  1
  O  O34  1  0.12106800  0.47816900  0.25158100  1
  O  O35  1  0.59115500  0.34712400  0.15714900  1
  O  O36  1  0.41745300  0.54426200  0.18274700  1
  O  O37  1  0.88045000  0.62316600  0.14678500  1
loop_
_geom_bond_atom_site_label_1
_geom_bond_atom_site_label_2
_geom_bond_distance
_geom_bond_site_symmetry_2
Li0 O3 2.072028 1_555
Li0 O31 2.096093 1_556
Li0 O12 2.121893 1_555
Li0 O0 2.187644 1_556
Li0 O35 2.296138 1_556
Li1 O8 2.072028 1_555
Li1 O36 2.096093 1_556
Li1 O4 2.121893 1_555
Li1 O2 2.187644 1_556
Li1 O27 2.296138 1_556
Li2 O20 2.096008 1_555
Li2 O26 2.320397 1_555
Li2 O11 2.472928 1_555
Li3 O28 2.096008 1_555
Li3 O34 2.320397 1_555
Li3 O19 2.472928 1_555
H0 O1 0.996488 1_555
H1 O19 1.003533 1_555
H2 O7 0.996488 1_555
H3 O11 1.003533 1_555
H4 O28 1.001704 1_555
H5 O32 0.998405 1_555
H5 O33 1.742008 1_455
H6 O20 1.001704 1_555
H7 O37 0.998405 1_555
H7 O25 1.742008 1_655
O0 V4 1.706386 1_555
O0 V0 2.058610 1_554
O1 P0 1.585141 1_555
O2 V5 1.706386 1_555
O2 V1 2.058610 1_554
O3 P1 1.531375 1_555
O3 V0 2.006952 1_555
O4 P1 1.538088 1_555
O4 V1 2.084373 1_555
O5 P0 1.540408 1_655
O5 V0 1.952373 1_555
O6 P0 1.543761 1_555
O6 V1 2.017728 1_555
O7 P2 1.585141 1_565
O8 P3 1.531375 1_565
O8 V1 2.006952 1_555
O9 P1 1.544273 1_555
O9 V2 2.060337 1_555
O10 P0 1.531124 1_555
O10 V2 1.964339 1_555
O11 P1 1.606805 1_555
O12 P3 1.538088 1_555
O12 V0 2.084373 1_555
O13 P2 1.540408 1_455
O13 V1 1.952373 1_545
O14 P2 1.543761 1_555
O14 V0 2.017728 1_555
O15 V1 1.709838 1_555
O15 V2 2.039698 1_555
O16 P3 1.544273 1_555
O16 V3 2.060337 1_555
O17 P2 1.531124 1_555
O17 V3 1.964339 1_555
O18 V2 1.729346 1_555
O18 V5 2.036490 1_555
O19 P3 1.606805 1_555
O20 P4 1.621800 1_555
O21 V0 1.709838 1_555
O21 V3 2.039698 1_555
O22 P5 1.527641 1_555
O22 V2 1.977570 1_555
O23 P4 1.539935 1_555
O23 V2 2.076792 1_555
O24 V3 1.729346 1_555
O24 V4 2.036490 1_555
O25 P5 1.543849 1_555
O25 V5 2.025639 1_555
O26 P5 1.553454 1_655
O26 V4 2.005129 1_565
O27 P4 1.533690 1_555
O27 V5 2.049733 1_555
O28 P6 1.621800 1_555
O29 P7 1.527641 1_555
O29 V3 1.977570 1_555
O30 P6 1.539935 1_555
O30 V3 2.076792 1_555
O31 P4 1.524411 1_545
O31 V4 2.014283 1_555
O32 P5 1.581137 1_545
O33 P7 1.543849 1_555
O33 V4 2.025639 1_555
O34 P7 1.553454 1_455
O34 V5 2.005129 1_555
O35 P6 1.533690 1_555
O35 V4 2.049733 1_555
O36 P6 1.524411 1_555
O36 V5 2.014283 1_555
O37 P7 1.581137 1_555
