# generated using pymatgen
data_LiCoPO4
_symmetry_space_group_name_H-M   'P 1'
_cell_length_a   14.96579418
_cell_length_b   14.96579418
_cell_length_c   7.89774200
_cell_angle_alpha   90.00000000
_cell_angle_beta   90.00000000
_cell_angle_gamma   120.00000080
_symmetry_Int_Tables_number   1
_chemical_formula_structural   LiCoPO4
_chemical_formula_sum   'Li18 Co18 P18 O72'
_cell_volume   1531.90949124
_cell_formula_units_Z   18
loop_
 _symmetry_equiv_pos_site_id
 _symmetry_equiv_pos_as_xyz
  1  'x, y, z'
loop_
 _atom_site_type_symbol
 _atom_site_label
 _atom_site_symmetry_multiplicity
 _atom_site_fract_x
 _atom_site_fract_y
 _atom_site_fract_z
 _atom_site_occupancy
  Li  Li0  1  0.00983600  0.69032300  0.49736400  1
  Li  Li1  1  0.33911900  0.98905200  0.57206700  1
  Li  Li2  1  0.01094800  0.35006700  0.57206700  1
  Li  Li3  1  0.33333300  0.66666700  0.66336200  1
  Li  Li4  1  0.00000000  0.00000000  0.90938900  1
  Li  Li5  1  0.00000000  0.00000000  0.40938900  1
  Li  Li6  1  0.33333300  0.66666700  0.16241800  1
  Li  Li7  1  0.30967700  0.31951300  0.49736400  1
  Li  Li8  1  0.35006700  0.33911900  0.07206700  1
  Li  Li9  1  0.68048700  0.99016400  0.49736400  1
  Li  Li10  1  0.31951300  0.00983600  0.99736400  1
  Li  Li11  1  0.64993300  0.66088100  0.57206700  1
  Li  Li12  1  0.69032300  0.68048700  0.99736400  1
  Li  Li13  1  0.66666700  0.33333300  0.16336200  1
  Li  Li14  1  0.66666700  0.33333300  0.66241800  1
  Li  Li15  1  0.98905200  0.64993300  0.07206700  1
  Li  Li16  1  0.66088100  0.01094800  0.07206700  1
  Li  Li17  1  0.99016400  0.30967700  0.99736400  1
  Co  Co0  1  0.09113200  0.87057800  0.81235400  1
  Co  Co1  1  0.11389100  0.57747800  0.75023900  1
  Co  Co2  1  0.24680200  0.79863200  0.26225400  1
  Co  Co3  1  0.20136800  0.44817000  0.26225400  1
  Co  Co4  1  0.46358700  0.88610900  0.75023900  1
  Co  Co5  1  0.12942200  0.22055400  0.81235400  1
  Co  Co6  1  0.42252200  0.53641300  0.75023900  1
  Co  Co7  1  0.22055400  0.09113200  0.31235400  1
  Co  Co8  1  0.55183000  0.75319800  0.26225400  1
  Co  Co9  1  0.44817000  0.24680200  0.76225400  1
  Co  Co10  1  0.77944600  0.90886800  0.81235400  1
  Co  Co11  1  0.57747800  0.46358700  0.25023900  1
  Co  Co12  1  0.87057800  0.77944600  0.31235400  1
  Co  Co13  1  0.53641300  0.11389100  0.25023900  1
  Co  Co14  1  0.79863200  0.55183000  0.76225400  1
  Co  Co15  1  0.75319800  0.20136800  0.76225400  1
  Co  Co16  1  0.88610900  0.42252200  0.25023900  1
  Co  Co17  1  0.90886800  0.12942200  0.31235400  1
  P  P0  1  0.09511000  0.87058200  0.20927700  1
  P  P1  1  0.10749500  0.57592700  0.35976600  1
  P  P2  1  0.24036500  0.79671800  0.86185100  1
  P  P3  1  0.20328200  0.44364600  0.86185100  1
  P  P4  1  0.46843200  0.89250500  0.35976600  1
  P  P5  1  0.12941800  0.22452800  0.20927700  1
  P  P6  1  0.42407300  0.53156800  0.35976600  1
  P  P7  1  0.55635400  0.75963500  0.86185100  1
  P  P8  1  0.22452800  0.09511000  0.70927700  1
  P  P9  1  0.77547200  0.90489000  0.20927700  1
  P  P10  1  0.44364600  0.24036500  0.36185100  1
  P  P11  1  0.57592700  0.46843200  0.85976600  1
  P  P12  1  0.87058200  0.77547200  0.70927700  1
  P  P13  1  0.53156800  0.10749500  0.85976600  1
  P  P14  1  0.79671800  0.55635400  0.36185100  1
  P  P15  1  0.75963500  0.20328200  0.36185100  1
  P  P16  1  0.89250500  0.42407300  0.85976600  1
  P  P17  1  0.90489000  0.12941800  0.70927700  1
  O  O0  1  0.01914800  0.89467500  0.30749900  1
  O  O1  1  0.04327500  0.81316800  0.04248600  1
  O  O2  1  0.19628000  0.97338200  0.16808700  1
  O  O3  1  0.11780100  0.79871300  0.32179800  1
  O  O4  1  0.01418900  0.55778300  0.24974600  1
  O  O5  1  0.22101200  0.87362200  0.75611700  1
  O  O6  1  0.13870300  0.69427600  0.89748500  1
  O  O7  1  0.10505100  0.63029300  0.52619800  1
  O  O8  1  0.29242300  0.85243000  0.03048800  1
  O  O9  1  0.20951200  0.64928200  0.26373300  1
  O  O10  1  0.10473200  0.47249400  0.40113600  1
  O  O11  1  0.36776100  0.89526800  0.40113600  1
  O  O12  1  0.02661800  0.22289800  0.16808700  1
  O  O13  1  0.31605600  0.77326500  0.76109100  1
  O  O14  1  0.22673500  0.54279100  0.76109100  1
  O  O15  1  0.14757000  0.43999200  0.03048800  1
  O  O16  1  0.12637800  0.34739000  0.75611700  1
  O  O17  1  0.20128700  0.31908800  0.32179800  1
  O  O18  1  0.54359400  0.98581100  0.24974600  1
  O  O19  1  0.52524300  0.89494900  0.52619800  1
  O  O20  1  0.18683200  0.23010700  0.04248600  1
  O  O21  1  0.10532500  0.12447200  0.30749900  1
  O  O22  1  0.43977100  0.79048800  0.26373300  1
  O  O23  1  0.35071800  0.56022900  0.26373300  1
  O  O24  1  0.30572400  0.44442700  0.89748500  1
  O  O25  1  0.22289800  0.19628000  0.66808700  1
  O  O26  1  0.55557300  0.86129700  0.89748500  1
  O  O27  1  0.12447200  0.01914800  0.80749900  1
  O  O28  1  0.45720900  0.68394400  0.76109100  1
  O  O29  1  0.36970700  0.47475700  0.52619800  1
  O  O30  1  0.23010700  0.04327500  0.54248600  1
  O  O31  1  0.56000800  0.70757700  0.03048800  1
  O  O32  1  0.52750600  0.63223900  0.40113600  1
  O  O33  1  0.44221700  0.45640600  0.24974600  1
  O  O34  1  0.34739000  0.22101200  0.25611700  1
  O  O35  1  0.68091200  0.88219900  0.32179800  1
  O  O36  1  0.31908800  0.11780100  0.82179800  1
  O  O37  1  0.65261000  0.77898800  0.75611700  1
  O  O38  1  0.55778300  0.54359400  0.74974600  1
  O  O39  1  0.47249400  0.36776100  0.90113600  1
  O  O40  1  0.43999200  0.29242300  0.53048800  1
  O  O41  1  0.76989300  0.95672500  0.04248600  1
  O  O42  1  0.63029300  0.52524300  0.02619800  1
  O  O43  1  0.54279100  0.31605600  0.26109100  1
  O  O44  1  0.87552800  0.98085200  0.30749900  1
  O  O45  1  0.44442700  0.13870300  0.39748500  1
  O  O46  1  0.77710200  0.80372000  0.16808700  1
  O  O47  1  0.69427600  0.55557300  0.39748500  1
  O  O48  1  0.64928200  0.43977100  0.76373300  1
  O  O49  1  0.56022900  0.20951200  0.76373300  1
  O  O50  1  0.89467500  0.87552800  0.80749900  1
  O  O51  1  0.81316800  0.76989300  0.54248600  1
  O  O52  1  0.47475700  0.10505100  0.02619800  1
  O  O53  1  0.45640600  0.01418900  0.74974600  1
  O  O54  1  0.79871300  0.68091200  0.82179800  1
  O  O55  1  0.87362200  0.65261000  0.25611700  1
  O  O56  1  0.85243000  0.56000800  0.53048800  1
  O  O57  1  0.77326500  0.45720900  0.26109100  1
  O  O58  1  0.68394400  0.22673500  0.26109100  1
  O  O59  1  0.97338200  0.77710200  0.66808700  1
  O  O60  1  0.63223900  0.10473200  0.90113600  1
  O  O61  1  0.89526800  0.52750600  0.90113600  1
  O  O62  1  0.79048800  0.35071800  0.76373300  1
  O  O63  1  0.70757700  0.14757000  0.53048800  1
  O  O64  1  0.89494900  0.36970700  0.02619800  1
  O  O65  1  0.86129700  0.30572400  0.39748500  1
  O  O66  1  0.77898800  0.12637800  0.25611700  1
  O  O67  1  0.98581100  0.44221700  0.74974600  1
  O  O68  1  0.88219900  0.20128700  0.82179800  1
  O  O69  1  0.80372000  0.02661800  0.66808700  1
  O  O70  1  0.95672500  0.18683200  0.54248600  1
  O  O71  1  0.98085200  0.10532500  0.80749900  1
loop_
_geom_bond_atom_site_label_1
_geom_bond_atom_site_label_2
_geom_bond_distance
_geom_bond_site_symmetry_2
Li0 O7 2.041983 1_555
Li0 O59 2.123869 1_455
Li0 O3 2.131586 1_555
Li0 O56 2.197060 1_455
Li1 O53 2.128706 1_565
Li1 O11 2.139567 1_555
Li1 O30 2.167634 1_565
Li1 O5 2.273317 1_555
Li1 O45 2.423061 1_565
Li2 O67 2.128706 1_455
Li2 O10 2.139575 1_555
Li2 O70 2.167634 1_455
Li2 O16 2.273317 1_555
Li2 O65 2.423061 1_455
Li3 O13 1.902667 1_555
Li3 O14 1.902675 1_555
Li3 O28 1.902680 1_555
Li4 O27 1.914667 1_555
Li4 O50 1.914672 1_445
Li4 O71 1.914681 1_455
Li5 O44 1.914667 1_445
Li5 O21 1.914672 1_555
Li5 O0 1.914681 1_545
Li6 O9 1.913039 1_555
Li6 O22 1.913049 1_555
Li6 O23 1.913066 1_555
Li7 O29 2.041969 1_555
Li7 O25 2.123869 1_555
Li7 O17 2.131586 1_555
Li7 O40 2.197051 1_555
Li8 O33 2.128706 1_555
Li8 O39 2.139579 1_554
Li8 O20 2.167634 1_555
Li8 O34 2.273317 1_555
Li8 O24 2.423061 1_554
Li9 O19 2.041971 1_555
Li9 O69 2.123869 1_565
Li9 O35 2.131586 1_555
Li9 O63 2.197065 1_565
Li10 O52 2.041971 1_556
Li10 O2 2.123869 1_546
Li10 O36 2.131586 1_555
Li10 O8 2.197065 1_546
Li11 O38 2.128706 1_555
Li11 O32 2.139579 1_555
Li11 O51 2.167634 1_555
Li11 O37 2.273317 1_555
Li11 O47 2.423061 1_555
Li12 O42 2.041969 1_556
Li12 O46 2.123869 1_556
Li12 O54 2.131586 1_555
Li12 O31 2.197051 1_556
Li13 O58 1.902667 1_555
Li13 O57 1.902675 1_555
Li13 O43 1.902680 1_555
Li14 O62 1.913039 1_555
Li14 O49 1.913049 1_555
Li14 O48 1.913066 1_555
Li15 O4 2.128706 1_655
Li15 O61 2.139575 1_554
Li15 O1 2.167634 1_655
Li15 O55 2.273317 1_555
Li15 O6 2.423061 1_654
Li16 O18 2.128706 1_545
Li16 O60 2.139567 1_554
Li16 O41 2.167634 1_545
Li16 O66 2.273317 1_555
Li16 O26 2.423061 1_544
Li17 O64 2.041983 1_556
Li17 O12 2.123869 1_656
Li17 O68 2.131586 1_555
Li17 O15 2.197060 1_656
Co0 O5 1.972051 1_555
Co0 O59 1.973680 1_455
Co0 O1 1.984741 1_556
Co0 O27 2.021094 1_565
Co1 O7 1.969181 1_555
Co1 O67 1.972754 1_455
Co1 O6 1.973977 1_555
Co1 O14 2.001390 1_555
Co2 O8 1.978673 1_555
Co2 O3 1.987641 1_555
Co2 O11 1.988375 1_555
Co2 O9 2.014960 1_555
Co3 O15 1.978671 1_555
Co3 O17 1.987641 1_555
Co3 O10 1.988384 1_555
Co3 O23 2.014956 1_555
Co4 O19 1.969188 1_555
Co4 O53 1.972754 1_565
Co4 O26 1.973977 1_555
Co4 O13 2.001390 1_555
Co5 O16 1.972051 1_555
Co5 O25 1.973681 1_555
Co5 O20 1.984741 1_556
Co5 O71 2.021089 1_455
Co6 O29 1.969185 1_555
Co6 O38 1.972754 1_555
Co6 O24 1.973977 1_555
Co6 O28 2.001390 1_555
Co7 O34 1.972051 1_555
Co7 O2 1.973681 1_545
Co7 O30 1.984741 1_555
Co7 O21 2.021079 1_555
Co8 O31 1.978677 1_555
Co8 O35 1.987641 1_555
Co8 O32 1.988371 1_555
Co8 O22 2.014946 1_555
Co9 O40 1.978677 1_555
Co9 O36 1.987641 1_555
Co9 O39 1.988371 1_555
Co9 O49 2.014946 1_555
Co10 O37 1.972051 1_555
Co10 O69 1.973681 1_565
Co10 O41 1.984741 1_556
Co10 O50 2.021079 1_555
Co11 O42 1.969185 1_555
Co11 O33 1.972754 1_555
Co11 O47 1.973977 1_555
Co11 O43 2.001390 1_555
Co12 O55 1.972051 1_555
Co12 O46 1.973681 1_555
Co12 O51 1.984741 1_555
Co12 O0 2.021089 1_655
Co13 O52 1.969188 1_555
Co13 O18 1.972754 1_545
Co13 O45 1.973977 1_555
Co13 O58 2.001390 1_555
Co14 O56 1.978671 1_555
Co14 O54 1.987641 1_555
Co14 O61 1.988384 1_555
Co14 O48 2.014956 1_555
Co15 O63 1.978673 1_555
Co15 O68 1.987641 1_555
Co15 O60 1.988375 1_555
Co15 O62 2.014960 1_555
Co16 O64 1.969181 1_555
Co16 O4 1.972754 1_655
Co16 O65 1.973977 1_555
Co16 O57 2.001390 1_555
Co17 O66 1.972051 1_555
Co17 O12 1.973680 1_655
Co17 O70 1.984741 1_555
Co17 O44 2.021094 1_545
O0 P0 1.560149 1_555
O1 P0 1.552011 1_555
O2 P0 1.560712 1_555
O3 P0 1.557934 1_555
O4 P1 1.549028 1_555
O5 P2 1.561793 1_555
O6 P2 1.553035 1_555
O7 P1 1.555904 1_555
O8 P2 1.557692 1_554
O9 P1 1.560558 1_555
O10 P1 1.562250 1_555
O11 P4 1.562264 1_555
O12 P5 1.560712 1_555
O13 P2 1.561164 1_555
O14 P3 1.561177 1_555
O15 P3 1.557692 1_554
O16 P3 1.561785 1_555
O17 P5 1.557934 1_555
O18 P4 1.549028 1_555
O19 P4 1.555912 1_555
O20 P5 1.552011 1_555
O21 P5 1.560162 1_555
O22 P4 1.560561 1_555
O23 P6 1.560549 1_555
O24 P3 1.553027 1_555
O25 P8 1.560712 1_555
O26 P7 1.553042 1_555
O27 P8 1.560158 1_555
O28 P7 1.561173 1_555
O29 P6 1.555908 1_555
O30 P8 1.552011 1_555
O31 P7 1.557692 1_554
O32 P6 1.562257 1_555
O33 P6 1.549028 1_555
O34 P10 1.561781 1_555
O35 P9 1.557934 1_555
O36 P8 1.557934 1_555
O37 P7 1.561781 1_555
O38 P11 1.549028 1_555
O39 P11 1.562257 1_555
O40 P10 1.557692 1_555
O41 P9 1.552011 1_555
O42 P11 1.555908 1_554
O43 P10 1.561173 1_555
O44 P9 1.560158 1_555
O45 P10 1.553042 1_555
O46 P9 1.560712 1_555
O47 P14 1.553027 1_555
O48 P11 1.560549 1_555
O49 P13 1.560561 1_555
O50 P12 1.560162 1_555
O51 P12 1.552011 1_555
O52 P13 1.555912 1_554
O53 P13 1.549028 1_555
O54 P12 1.557934 1_555
O55 P14 1.561785 1_555
O56 P14 1.557692 1_555
O57 P14 1.561177 1_555
O58 P15 1.561164 1_555
O59 P12 1.560712 1_555
O60 P13 1.562264 1_555
O61 P16 1.562250 1_555
O62 P16 1.560558 1_555
O63 P15 1.557692 1_555
O64 P16 1.555904 1_554
O65 P15 1.553035 1_555
O66 P15 1.561793 1_555
O67 P16 1.549028 1_555
O68 P17 1.557934 1_555
O69 P17 1.560712 1_555
O70 P17 1.552011 1_555
O71 P17 1.560149 1_555
