# generated using pymatgen
data_Ti2MoIr
_symmetry_space_group_name_H-M   'P 1'
_cell_length_a   4.40266133
_cell_length_b   4.40266136
_cell_length_c   4.40266073
_cell_angle_alpha   59.99991993
_cell_angle_beta   59.99991250
_cell_angle_gamma   59.99992296
_symmetry_Int_Tables_number   1
_chemical_formula_structural   Ti2MoIr
_chemical_formula_sum   'Ti2 Mo1 Ir1'
_cell_volume   60.34342849
_cell_formula_units_Z   1
loop_
 _symmetry_equiv_pos_site_id
 _symmetry_equiv_pos_as_xyz
  1  'x, y, z'
loop_
 _atom_site_type_symbol
 _atom_site_label
 _atom_site_symmetry_multiplicity
 _atom_site_fract_x
 _atom_site_fract_y
 _atom_site_fract_z
 _atom_site_occupancy
  Ti  Ti0  1  -0.00000003  -0.00000001  -0.00000001  1
  Ti  Ti1  1  0.50000077  0.50000079  0.50000079  1
  Mo  Mo0  1  0.74999924  0.74999922  0.74999922  1
  Ir  Ir0  1  0.25000002  0.25000000  0.25000000  1
loop_
_geom_bond_atom_site_label_1
_geom_bond_atom_site_label_2
_geom_bond_distance
_geom_bond_site_symmetry_2
Mo0 Ti1 2.696053 1_555
Mo0 Ti0 2.696062 1_665
Mo0 Ti0 2.696063 1_566
Mo0 Ti0 2.696063 1_656
Mo0 Ti1 2.696071 1_556
Mo0 Ti1 2.696071 1_655
Mo0 Ti1 2.696071 1_565
Mo0 Ti0 2.696078 1_666
Ir0 Ti1 2.696062 1_554
Ir0 Ti1 2.696063 1_455
Ir0 Ti1 2.696063 1_545
Ir0 Ti0 2.696065 1_556
Ir0 Ti0 2.696065 1_655
Ir0 Ti0 2.696066 1_565
Ir0 Ti0 2.696070 1_555
Ir0 Ti1 2.696078 1_555
