# generated using pymatgen
data_PrHg3
_symmetry_space_group_name_H-M   'P 1'
_cell_length_a   6.81912673
_cell_length_b   6.81912633
_cell_length_c   5.01936353
_cell_angle_alpha   90.00000000
_cell_angle_beta   90.00000000
_cell_angle_gamma   119.99999688
_symmetry_Int_Tables_number   1
_chemical_formula_structural   PrHg3
_chemical_formula_sum   'Pr2 Hg6'
_cell_volume   202.13280080
_cell_formula_units_Z   2
loop_
 _symmetry_equiv_pos_site_id
 _symmetry_equiv_pos_as_xyz
  1  'x, y, z'
loop_
 _atom_site_type_symbol
 _atom_site_label
 _atom_site_symmetry_multiplicity
 _atom_site_fract_x
 _atom_site_fract_y
 _atom_site_fract_z
 _atom_site_occupancy
  Pr  Pr0  1  0.33333300  0.66666600  0.75000000  1
  Pr  Pr1  1  0.66666500  0.33333300  0.24999900  1
  Hg  Hg0  1  0.16109336  0.32218672  0.24999900  1
  Hg  Hg1  1  0.67781428  0.83890764  0.24999900  1
  Hg  Hg2  1  0.16109236  0.83890764  0.24999900  1
  Hg  Hg3  1  0.83890764  0.67781528  0.75000000  1
  Hg  Hg4  1  0.32218672  0.16109336  0.75000000  1
  Hg  Hg5  1  0.83890864  0.16109336  0.75000000  1
loop_
_geom_bond_atom_site_label_1
_geom_bond_atom_site_label_2
_geom_bond_distance
_geom_bond_site_symmetry_2
Hg0 Hg5 3.149388 1_454
Hg0 Hg4 3.149395 1_554
Hg0 Hg5 3.149396 1_455
Hg0 Hg4 3.149403 1_555
Hg0 Pr0 3.230634 1_554
Hg0 Pr0 3.230642 1_555
Hg0 Hg2 3.295538 1_545
Hg0 Hg1 3.295541 1_445
Hg0 Pr1 3.410188 1_555
Hg0 Pr1 3.410209 1_455
Hg1 Hg3 3.149392 1_554
Hg1 Hg5 3.149392 1_564
Hg1 Hg3 3.149400 1_555
Hg1 Hg5 3.149400 1_565
Hg1 Pr0 3.230642 1_554
Hg1 Pr0 3.230649 1_555
Hg1 Hg2 3.295534 1_655
Hg1 Pr1 3.410199 1_565
Hg1 Pr1 3.410199 1_555
Hg2 Hg3 3.149388 1_454
Hg2 Hg4 3.149392 1_564
Hg2 Hg3 3.149396 1_455
Hg2 Hg4 3.149400 1_565
Hg2 Pr0 3.230645 1_554
Hg2 Pr0 3.230653 1_555
Hg2 Pr1 3.410192 1_565
Hg2 Pr1 3.410206 1_455
Hg3 Pr1 3.230645 1_556
Hg3 Pr1 3.230653 1_555
Hg3 Hg5 3.295531 1_565
Hg3 Hg4 3.295538 1_665
Hg3 Pr0 3.410199 1_655
Hg3 Pr0 3.410199 1_555
Hg4 Pr1 3.230630 1_556
Hg4 Pr1 3.230638 1_555
Hg4 Hg5 3.295534 1_455
Hg4 Pr0 3.410195 1_555
Hg4 Pr0 3.410202 1_545
Hg5 Pr1 3.230649 1_556
Hg5 Pr1 3.230657 1_555
Hg5 Pr0 3.410189 1_655
Hg5 Pr0 3.410209 1_545
