# generated using pymatgen
data_Ni3OF5
_symmetry_space_group_name_H-M   'P 1'
_cell_length_a   5.62176300
_cell_length_b   5.62569940
_cell_length_c   7.32502022
_cell_angle_alpha   72.28285671
_cell_angle_beta   72.25820578
_cell_angle_gamma   72.36261123
_symmetry_Int_Tables_number   1
_chemical_formula_structural   Ni3OF5
_chemical_formula_sum   'Ni6 O2 F10'
_cell_volume   204.45845965
_cell_formula_units_Z   2
loop_
 _symmetry_equiv_pos_site_id
 _symmetry_equiv_pos_as_xyz
  1  'x, y, z'
loop_
 _atom_site_type_symbol
 _atom_site_label
 _atom_site_symmetry_multiplicity
 _atom_site_fract_x
 _atom_site_fract_y
 _atom_site_fract_z
 _atom_site_occupancy
  Ni  Ni0  1  0.33319500  0.34266500  0.16209900  1
  Ni  Ni1  1  0.32939500  0.33245300  0.66530400  1
  Ni  Ni2  1  0.67237100  0.67492800  0.33506900  1
  Ni  Ni3  1  0.65706400  0.66773500  0.83752900  1
  Ni  Ni4  1  0.99599600  0.99755600  0.49495600  1
  Ni  Ni5  1  0.00894700  0.98774500  0.00627100  1
  O  O0  1  0.90234500  0.89791600  0.29659200  1
  O  O1  1  0.30484300  0.69467400  0.00102700  1
  F  F0  1  0.36364600  0.97680000  0.33052700  1
  F  F1  1  0.02477400  0.63616200  0.66995500  1
  F  F2  1  0.09822700  0.09693000  0.70221100  1
  F  F3  1  0.43821600  0.43997700  0.36735900  1
  F  F4  1  0.76707300  0.76549000  0.03587300  1
  F  F5  1  0.23329600  0.23258100  0.96278500  1
  F  F6  1  0.56276800  0.56473800  0.63218400  1
  F  F7  1  0.63398100  0.03067700  0.66639400  1
  F  F8  1  0.97094300  0.36495500  0.33400100  1
  F  F9  1  0.70292200  0.29601900  0.99986300  1
loop_
_geom_bond_atom_site_label_1
_geom_bond_atom_site_label_2
_geom_bond_distance
_geom_bond_site_symmetry_2
Ni0 O1 1.959674 1_555
Ni2 O0 1.967268 1_555
Ni3 O1 1.965051 1_556
Ni4 O0 1.960472 1_555
Ni5 O1 1.955636 1_555
Ni5 O0 1.972231 1_455
F0 Ni2 2.027824 1_555
F0 Ni0 2.038986 1_565
F0 Ni4 2.039198 1_455
F1 Ni1 2.019868 1_555
F1 Ni4 2.035609 1_455
F1 Ni3 2.043340 1_455
F2 Ni1 2.031960 1_555
F2 Ni4 2.047101 1_445
F2 Ni5 2.064631 1_546
F3 Ni1 2.027386 1_555
F3 Ni0 2.036353 1_555
F3 Ni2 2.051864 1_555
F4 Ni3 2.008919 1_554
F4 Ni2 2.029743 1_555
F4 Ni5 2.035896 1_655
F5 Ni1 2.019192 1_555
F5 Ni0 2.022686 1_556
F5 Ni5 2.032282 1_546
F6 Ni3 2.020346 1_555
F6 Ni2 2.023260 1_555
F6 Ni1 2.034634 1_555
F7 Ni1 2.013145 1_555
F7 Ni4 2.026973 1_545
F7 Ni3 2.034203 1_545
F8 Ni2 2.021115 1_555
F8 Ni4 2.030640 1_545
F8 Ni0 2.031525 1_655
F9 Ni0 2.038437 1_556
F9 Ni5 2.039920 1_646
F9 Ni3 2.049411 1_555
