# generated using pymatgen
data_LiMnPO4
_symmetry_space_group_name_H-M   'P 1'
_cell_length_a   9.88533455
_cell_length_b   9.88533455
_cell_length_c   22.48206600
_cell_angle_alpha   90.00000000
_cell_angle_beta   90.00000000
_cell_angle_gamma   120.00000366
_symmetry_Int_Tables_number   1
_chemical_formula_structural   LiMnPO4
_chemical_formula_sum   'Li24 Mn24 P24 O96'
_cell_volume   1902.60913379
_cell_formula_units_Z   24
loop_
 _symmetry_equiv_pos_site_id
 _symmetry_equiv_pos_as_xyz
  1  'x, y, z'
loop_
 _atom_site_type_symbol
 _atom_site_label
 _atom_site_symmetry_multiplicity
 _atom_site_fract_x
 _atom_site_fract_y
 _atom_site_fract_z
 _atom_site_occupancy
  Li  Li0  1  0.14871200  0.83157000  0.67878400  1
  Li  Li1  1  0.18387900  0.88000000  0.01056200  1
  Li  Li2  1  0.17982500  0.79047000  0.37569700  1
  Li  Li3  1  0.12000000  0.30388000  0.67722900  1
  Li  Li4  1  0.33076800  0.67597400  0.81896000  1
  Li  Li5  1  0.32402600  0.65479300  0.48562600  1
  Li  Li6  1  0.34520700  0.66923200  0.15229300  1
  Li  Li7  1  0.16843000  0.31714200  0.34545100  1
  Li  Li8  1  0.20953000  0.38935600  0.04236300  1
  Li  Li9  1  0.61064400  0.82017500  0.70903000  1
  Li  Li10  1  0.30388000  0.18387900  0.84389600  1
  Li  Li11  1  0.31714200  0.14871200  0.51211700  1
  Li  Li12  1  0.68285800  0.85128800  0.01211700  1
  Li  Li13  1  0.69612000  0.81612100  0.34389600  1
  Li  Li14  1  0.38935600  0.17982500  0.20903000  1
  Li  Li15  1  0.79047000  0.61064400  0.54236300  1
  Li  Li16  1  0.83157000  0.68285800  0.84545100  1
  Li  Li17  1  0.65479300  0.33076800  0.65229300  1
  Li  Li18  1  0.67597400  0.34520700  0.98562600  1
  Li  Li19  1  0.66923200  0.32402600  0.31896000  1
  Li  Li20  1  0.88000000  0.69612000  0.17722900  1
  Li  Li21  1  0.82017500  0.20953000  0.87569700  1
  Li  Li22  1  0.81612100  0.12000000  0.51056200  1
  Li  Li23  1  0.85128800  0.16843000  0.17878400  1
  Mn  Mn0  1  0.00507000  0.96245600  0.41994000  1
  Mn  Mn1  1  0.05163500  0.55280400  0.91309000  1
  Mn  Mn2  1  0.04028600  0.50687300  0.25150000  1
  Mn  Mn3  1  0.02006500  0.48209100  0.59015400  1
  Mn  Mn4  1  0.46202600  0.97993500  0.92348800  1
  Mn  Mn5  1  0.46658700  0.95971400  0.58483300  1
  Mn  Mn6  1  0.03754400  0.04261400  0.08660600  1
  Mn  Mn7  1  0.50116900  0.94836500  0.24642300  1
  Mn  Mn8  1  0.04261400  0.00507000  0.25327300  1
  Mn  Mn9  1  0.44719600  0.49883100  0.57975600  1
  Mn  Mn10  1  0.49312700  0.53341300  0.91816600  1
  Mn  Mn11  1  0.51790900  0.53797400  0.25682100  1
  Mn  Mn12  1  0.48209100  0.46202600  0.75682100  1
  Mn  Mn13  1  0.50687300  0.46658700  0.41816600  1
  Mn  Mn14  1  0.55280400  0.50116900  0.07975600  1
  Mn  Mn15  1  0.95738600  0.99493000  0.75327300  1
  Mn  Mn16  1  0.49883100  0.05163500  0.74642300  1
  Mn  Mn17  1  0.96245600  0.95738600  0.58660600  1
  Mn  Mn18  1  0.53341300  0.04028600  0.08483300  1
  Mn  Mn19  1  0.53797400  0.02006500  0.42348800  1
  Mn  Mn20  1  0.97993500  0.51790900  0.09015400  1
  Mn  Mn21  1  0.95971400  0.49312700  0.75150000  1
  Mn  Mn22  1  0.94836500  0.44719600  0.41309000  1
  Mn  Mn23  1  0.99493000  0.03754400  0.91994000  1
  P  P0  1  0.16969200  0.85715200  0.81475700  1
  P  P1  1  0.12797600  0.77611300  0.50695700  1
  P  P2  1  0.21335000  0.87996100  0.14675100  1
  P  P3  1  0.12003900  0.33338900  0.81341800  1
  P  P4  1  0.32609100  0.68942400  0.01211900  1
  P  P5  1  0.14284800  0.31254000  0.48142300  1
  P  P6  1  0.31057600  0.63666700  0.67878600  1
  P  P7  1  0.36333300  0.67390900  0.34545300  1
  P  P8  1  0.22388700  0.35186300  0.17362300  1
  P  P9  1  0.64813700  0.87202400  0.84029000  1
  P  P10  1  0.33338900  0.21335000  0.98008400  1
  P  P11  1  0.31254000  0.16969200  0.64809000  1
  P  P12  1  0.68746000  0.83030800  0.14809000  1
  P  P13  1  0.66661100  0.78665000  0.48008400  1
  P  P14  1  0.35186300  0.12797600  0.34029000  1
  P  P15  1  0.77611300  0.64813700  0.67362300  1
  P  P16  1  0.63666700  0.32609100  0.84545300  1
  P  P17  1  0.68942400  0.36333300  0.17878600  1
  P  P18  1  0.85715200  0.68746000  0.98142300  1
  P  P19  1  0.67390900  0.31057600  0.51211900  1
  P  P20  1  0.87996100  0.66661100  0.31341800  1
  P  P21  1  0.78665000  0.12003900  0.64675100  1
  P  P22  1  0.87202400  0.22388700  0.00695700  1
  P  P23  1  0.83030800  0.14284800  0.31475700  1
  O  O0  1  0.01738000  0.70076000  0.80130800  1
  O  O1  1  0.12260200  0.97472600  0.84080800  1
  O  O2  1  0.01244400  0.67863600  0.55750000  1
  O  O3  1  0.12538700  0.93223800  0.49818400  1
  O  O4  1  0.17736800  0.99179100  0.18323800  1
  O  O5  1  0.05996800  0.72706800  0.13463900  1
  O  O6  1  0.07482500  0.67872600  0.44875300  1
  O  O7  1  0.25603900  0.92183000  0.75473300  1
  O  O8  1  0.28547200  0.96336900  0.08674300  1
  O  O9  1  0.14672900  0.62699500  0.67792000  1
  O  O10  1  0.20701200  0.71153900  0.97415600  1
  O  O11  1  0.27956200  0.83138300  0.85725100  1
  O  O12  1  0.20687600  0.64678200  0.31873300  1
  O  O13  1  0.29404800  0.81151200  0.52424700  1
  O  O14  1  0.03663100  0.32210300  0.75341000  1
  O  O15  1  0.33532100  0.85104400  0.17937700  1
  O  O16  1  0.14895600  0.48427700  0.84604400  1
  O  O17  1  0.00820900  0.18557700  0.84990500  1
  O  O18  1  0.07817000  0.33421000  0.42139900  1
  O  O19  1  0.02527400  0.14787700  0.50747500  1
  O  O20  1  0.25564000  0.63577600  0.07438400  1
  O  O21  1  0.06776200  0.19314900  0.16485100  1
  O  O22  1  0.16861700  0.44817900  0.52391800  1
  O  O23  1  0.18848800  0.48253600  0.19091400  1
  O  O24  1  0.38013700  0.74436000  0.40771700  1
  O  O25  1  0.28846100  0.49547300  0.64082200  1
  O  O26  1  0.36422400  0.61986300  0.74105100  1
  O  O27  1  0.35321800  0.56009400  0.98539900  1
  O  O28  1  0.43990600  0.79312400  0.65206600  1
  O  O29  1  0.48026600  0.85327100  0.01125300  1
  O  O30  1  0.37300500  0.51973400  0.34458600  1
  O  O31  1  0.14787700  0.12260200  0.67414200  1
  O  O32  1  0.18557700  0.17736800  0.01657200  1
  O  O33  1  0.27293200  0.33290000  0.80130500  1
  O  O34  1  0.32127400  0.39609900  0.11541900  1
  O  O35  1  0.50452700  0.79298800  0.30748900  1
  O  O36  1  0.19314900  0.12538700  0.33151700  1
  O  O37  1  0.29924000  0.31662000  0.46797500  1
  O  O38  1  0.32136400  0.33380900  0.22416700  1
  O  O39  1  0.51746400  0.70595200  0.85758000  1
  O  O40  1  0.60390100  0.92517500  0.78208600  1
  O  O41  1  0.55182100  0.72043800  0.19058400  1
  O  O42  1  0.32210300  0.28547200  0.92007700  1
  O  O43  1  0.66619100  0.98755600  0.89083300  1
  O  O44  1  0.51572300  0.66467900  0.51271000  1
  O  O45  1  0.33421000  0.25603900  0.58806600  1
  O  O46  1  0.66710000  0.94003200  0.46797200  1
  O  O47  1  0.68338000  0.98262000  0.13464100  1
  O  O48  1  0.31662000  0.01738000  0.63464100  1
  O  O49  1  0.33290000  0.05996800  0.96797200  1
  O  O50  1  0.66579000  0.74396100  0.08806600  1
  O  O51  1  0.48427700  0.33532100  0.01271000  1
  O  O52  1  0.33380900  0.01244400  0.39083300  1
  O  O53  1  0.67789700  0.71452800  0.42007700  1
  O  O54  1  0.44817900  0.27956200  0.69058400  1
  O  O55  1  0.39609900  0.07482500  0.28208600  1
  O  O56  1  0.48253600  0.29404800  0.35758000  1
  O  O57  1  0.67863600  0.66619100  0.72416700  1
  O  O58  1  0.70076000  0.68338000  0.96797500  1
  O  O59  1  0.80685100  0.87461300  0.83151700  1
  O  O60  1  0.49547300  0.20701200  0.80748900  1
  O  O61  1  0.67872600  0.60390100  0.61541900  1
  O  O62  1  0.72706800  0.66710000  0.30130500  1
  O  O63  1  0.81442300  0.82263200  0.51657200  1
  O  O64  1  0.85212300  0.87739800  0.17414200  1
  O  O65  1  0.62699500  0.48026600  0.84458600  1
  O  O66  1  0.51973400  0.14672900  0.51125300  1
  O  O67  1  0.56009400  0.20687600  0.15206600  1
  O  O68  1  0.64678200  0.43990600  0.48539900  1
  O  O69  1  0.63577600  0.38013700  0.24105100  1
  O  O70  1  0.71153900  0.50452700  0.14082200  1
  O  O71  1  0.61986300  0.25564000  0.90771700  1
  O  O72  1  0.81151200  0.51746400  0.69091400  1
  O  O73  1  0.83138300  0.55182100  0.02391800  1
  O  O74  1  0.93223800  0.80685100  0.66485100  1
  O  O75  1  0.74436000  0.36422400  0.57438400  1
  O  O76  1  0.97472600  0.85212300  0.00747500  1
  O  O77  1  0.92183000  0.66579000  0.92139900  1
  O  O78  1  0.99179100  0.81442300  0.34990500  1
  O  O79  1  0.85104400  0.51572300  0.34604400  1
  O  O80  1  0.66467900  0.14895600  0.67937700  1
  O  O81  1  0.96336900  0.67789700  0.25341000  1
  O  O82  1  0.70595200  0.18848800  0.02424700  1
  O  O83  1  0.79312400  0.35321800  0.81873300  1
  O  O84  1  0.72043800  0.16861700  0.35725100  1
  O  O85  1  0.79298800  0.28846100  0.47415600  1
  O  O86  1  0.85327100  0.37300500  0.17792000  1
  O  O87  1  0.71452800  0.03663100  0.58674300  1
  O  O88  1  0.74396100  0.07817000  0.25473300  1
  O  O89  1  0.92517500  0.32127400  0.94875300  1
  O  O90  1  0.94003200  0.27293200  0.63463900  1
  O  O91  1  0.82263200  0.00820900  0.68323800  1
  O  O92  1  0.87461300  0.06776200  0.99818400  1
  O  O93  1  0.98755600  0.32136400  0.05750000  1
  O  O94  1  0.87739800  0.02527400  0.34080800  1
  O  O95  1  0.98262000  0.29924000  0.30130800  1
loop_
_geom_bond_atom_site_label_1
_geom_bond_atom_site_label_2
_geom_bond_distance
_geom_bond_site_symmetry_2
Li0 O7 1.972469 1_555
Li0 O9 2.012656 1_555
Li0 O48 2.016181 1_565
Li0 O74 2.052846 1_455
Li1 O49 1.905562 1_564
Li1 O76 1.945700 1_455
Li1 O8 1.947685 1_555
Li1 O10 1.968813 1_554
Li2 O6 1.961796 1_555
Li2 O52 1.976772 1_565
Li2 O12 2.027065 1_555
Li2 O78 2.070625 1_455
Li2 O24 2.355751 1_555
Li3 O90 1.905559 1_455
Li3 O31 1.945720 1_555
Li3 O14 1.947682 1_555
Li3 O25 1.968817 1_555
Li4 O26 1.915316 1_555
Li4 O39 1.923756 1_555
Li4 O16 1.945797 1_555
Li4 O11 2.033489 1_555
Li5 O24 1.915316 1_555
Li5 O13 1.923775 1_555
Li5 O44 1.945792 1_555
Li5 O22 2.033492 1_555
Li6 O20 1.915316 1_555
Li6 O23 1.923769 1_555
Li6 O15 1.945802 1_555
Li6 O41 2.033480 1_555
Li7 O18 1.972452 1_555
Li7 O30 2.012656 1_555
Li7 O95 2.016181 1_455
Li7 O36 2.052850 1_555
Li8 O34 1.961799 1_555
Li8 O93 1.976772 1_455
Li8 O27 2.027060 1_554
Li8 O32 2.070628 1_555
Li8 O20 2.355739 1_555
Li9 O40 1.961793 1_555
Li9 O57 1.976790 1_555
Li9 O28 2.027058 1_555
Li9 O91 2.070631 1_565
Li9 O26 2.355746 1_555
Li10 O33 1.905578 1_555
Li10 O1 1.945708 1_545
Li10 O42 1.947686 1_555
Li10 O60 1.968813 1_555
Li11 O45 1.972467 1_555
Li11 O66 2.012656 1_555
Li11 O37 2.016170 1_555
Li11 O3 2.052846 1_545
Li12 O50 1.972467 1_555
Li12 O29 2.012656 1_555
Li12 O58 2.016170 1_554
Li12 O92 2.052846 1_564
Li13 O62 1.905578 1_555
Li13 O94 1.945708 1_565
Li13 O53 1.947686 1_555
Li13 O35 1.968813 1_555
Li14 O55 1.961793 1_555
Li14 O38 1.976790 1_555
Li14 O67 2.027058 1_555
Li14 O4 2.070631 1_545
Li14 O69 2.355746 1_555
Li15 O61 1.961799 1_555
Li15 O2 1.976772 1_655
Li15 O68 2.027060 1_555
Li15 O63 2.070628 1_555
Li15 O75 2.355739 1_555
Li16 O77 1.972452 1_555
Li16 O65 2.012656 1_555
Li16 O0 2.016181 1_655
Li16 O59 2.052850 1_555
Li17 O75 1.915316 1_555
Li17 O72 1.923769 1_555
Li17 O80 1.945802 1_555
Li17 O54 2.033480 1_555
Li18 O71 1.915316 1_555
Li18 O82 1.923775 1_556
Li18 O51 1.945792 1_556
Li18 O73 2.033492 1_556
Li19 O69 1.915316 1_555
Li19 O56 1.923756 1_555
Li19 O79 1.945797 1_555
Li19 O84 2.033489 1_555
Li20 O5 1.905559 1_655
Li20 O64 1.945720 1_555
Li20 O81 1.947682 1_555
Li20 O70 1.968817 1_555
Li21 O89 1.961796 1_555
Li21 O43 1.976772 1_545
Li21 O83 2.027065 1_555
Li21 O17 2.070625 1_655
Li21 O71 2.355751 1_555
Li22 O46 1.905562 1_545
Li22 O19 1.945700 1_655
Li22 O87 1.947685 1_555
Li22 O85 1.968813 1_555
Li23 O88 1.972469 1_555
Li23 O86 2.012656 1_555
Li23 O47 2.016181 1_545
Li23 O21 2.052846 1_655
Mn0 O78 2.108483 1_455
Mn0 O3 2.225648 1_555
Mn0 O94 2.434585 1_465
Mn0 O19 2.628004 1_565
Mn0 O36 2.647298 1_565
Mn0 O63 2.752640 1_455
Mn1 O10 2.072696 1_555
Mn1 O16 2.075617 1_555
Mn1 O77 2.088554 1_455
Mn1 O89 2.140750 1_455
Mn2 O23 2.100464 1_555
Mn2 O95 2.149811 1_455
Mn2 O12 2.152187 1_555
Mn2 O81 2.173402 1_455
Mn2 O86 2.336439 1_455
Mn3 O90 2.065274 1_455
Mn3 O2 2.113269 1_555
Mn3 O22 2.231278 1_555
Mn3 O9 2.391534 1_555
Mn3 O75 2.394939 1_455
Mn4 O49 2.065263 1_565
Mn4 O43 2.113267 1_555
Mn4 O11 2.231292 1_555
Mn4 O29 2.391516 1_556
Mn4 O71 2.394941 1_565
Mn5 O13 2.100464 1_555
Mn5 O48 2.149811 1_565
Mn5 O28 2.152187 1_555
Mn5 O87 2.173402 1_565
Mn5 O66 2.336439 1_565
Mn6 O32 2.108466 1_555
Mn6 O21 2.225666 1_555
Mn6 O76 2.434575 1_445
Mn6 O64 2.628018 1_445
Mn6 O92 2.647282 1_454
Mn6 O4 2.752640 1_545
Mn7 O35 2.072696 1_555
Mn7 O15 2.075617 1_555
Mn7 O88 2.088565 1_565
Mn7 O55 2.140751 1_565
Mn8 O4 2.108483 1_545
Mn8 O36 2.225648 1_555
Mn8 O64 2.434574 1_445
Mn8 O94 2.627997 1_455
Mn8 O21 2.647282 1_555
Mn8 O78 2.752640 1_445
Mn9 O25 2.072696 1_555
Mn9 O44 2.075617 1_555
Mn9 O45 2.088565 1_555
Mn9 O61 2.140750 1_555
Mn10 O39 2.100464 1_555
Mn10 O58 2.149822 1_555
Mn10 O27 2.152187 1_555
Mn10 O42 2.173402 1_555
Mn10 O65 2.336439 1_555
Mn11 O62 2.065263 1_555
Mn11 O38 2.113264 1_555
Mn11 O41 2.231293 1_555
Mn11 O30 2.391516 1_555
Mn11 O69 2.394930 1_555
Mn12 O33 2.065263 1_555
Mn12 O57 2.113264 1_555
Mn12 O54 2.231293 1_555
Mn12 O65 2.391516 1_555
Mn12 O26 2.394930 1_555
Mn13 O56 2.100464 1_555
Mn13 O37 2.149822 1_555
Mn13 O68 2.152187 1_555
Mn13 O53 2.173402 1_555
Mn13 O30 2.336439 1_555
Mn14 O70 2.072696 1_555
Mn14 O51 2.075617 1_555
Mn14 O50 2.088565 1_555
Mn14 O34 2.140750 1_555
Mn15 O91 2.108483 1_565
Mn15 O59 2.225648 1_555
Mn15 O31 2.434574 1_665
Mn15 O1 2.627997 1_655
Mn15 O74 2.647282 1_555
Mn15 O17 2.752640 1_665
Mn16 O60 2.072696 1_555
Mn16 O80 2.075617 1_555
Mn16 O7 2.088565 1_545
Mn16 O40 2.140751 1_545
Mn17 O63 2.108466 1_555
Mn17 O74 2.225666 1_555
Mn17 O19 2.434575 1_665
Mn17 O31 2.628018 1_665
Mn17 O3 2.647282 1_655
Mn17 O91 2.752640 1_565
Mn18 O82 2.100464 1_555
Mn18 O47 2.149811 1_545
Mn18 O67 2.152187 1_555
Mn18 O8 2.173402 1_545
Mn18 O29 2.336439 1_545
Mn19 O46 2.065263 1_545
Mn19 O52 2.113267 1_555
Mn19 O84 2.231292 1_555
Mn19 O66 2.391516 1_555
Mn19 O24 2.394941 1_545
Mn20 O5 2.065274 1_655
Mn20 O93 2.113269 1_555
Mn20 O73 2.231278 1_555
Mn20 O86 2.391534 1_555
Mn20 O20 2.394939 1_655
Mn21 O72 2.100464 1_555
Mn21 O0 2.149811 1_655
Mn21 O83 2.152187 1_555
Mn21 O14 2.173402 1_655
Mn21 O9 2.336439 1_655
Mn22 O85 2.072696 1_555
Mn22 O79 2.075617 1_555
Mn22 O18 2.088554 1_655
Mn22 O6 2.140750 1_655
Mn23 O17 2.108483 1_655
Mn23 O92 2.225648 1_555
Mn23 O1 2.434585 1_645
Mn23 O76 2.628004 1_546
Mn23 O59 2.647298 1_545
Mn23 O32 2.752640 1_656
O0 P0 1.555883 1_555
O1 P0 1.565755 1_555
O2 P1 1.556776 1_555
O3 P1 1.568751 1_555
O4 P2 1.553933 1_555
O5 P2 1.538117 1_555
O6 P1 1.552202 1_555
O7 P0 1.553279 1_555
O8 P2 1.555753 1_555
O9 P6 1.574177 1_555
O10 P4 1.555384 1_556
O11 P0 1.560088 1_555
O12 P7 1.552448 1_555
O13 P1 1.547314 1_555
O14 P3 1.555753 1_555
O15 P2 1.555046 1_555
O16 P3 1.555046 1_555
O17 P3 1.553933 1_555
O18 P5 1.553283 1_555
O19 P5 1.565757 1_555
O20 P4 1.535088 1_555
O21 P8 1.568748 1_555
O22 P5 1.560102 1_555
O23 P8 1.547320 1_555
O24 P7 1.535067 1_555
O25 P6 1.555396 1_555
O26 P6 1.535091 1_555
O27 P4 1.552448 1_556
O28 P6 1.552448 1_555
O29 P4 1.574177 1_555
O30 P7 1.574177 1_555
O31 P11 1.565754 1_555
O32 P10 1.553944 1_554
O33 P3 1.538121 1_555
O34 P8 1.552202 1_555
O35 P7 1.555396 1_555
O36 P14 1.568751 1_555
O37 P5 1.555879 1_555
O38 P8 1.556788 1_555
O39 P9 1.547314 1_555
O40 P9 1.552203 1_555
O41 P12 1.560088 1_555
O42 P10 1.555733 1_555
O43 P9 1.556778 1_555
O44 P13 1.555046 1_555
O45 P11 1.553278 1_555
O46 P13 1.538117 1_555
O47 P12 1.555883 1_555
O48 P11 1.555883 1_555
O49 P10 1.538117 1_555
O50 P12 1.553278 1_555
O51 P10 1.555046 1_554
O52 P14 1.556778 1_555
O53 P13 1.555733 1_555
O54 P11 1.560088 1_555
O55 P14 1.552203 1_555
O56 P14 1.547314 1_555
O57 P15 1.556788 1_555
O58 P18 1.555879 1_555
O59 P9 1.568751 1_555
O60 P16 1.555396 1_555
O61 P15 1.552202 1_555
O62 P20 1.538121 1_555
O63 P13 1.553944 1_555
O64 P12 1.565754 1_555
O65 P16 1.574177 1_555
O66 P19 1.574177 1_555
O67 P17 1.552448 1_555
O68 P19 1.552448 1_555
O69 P17 1.535091 1_555
O70 P17 1.555396 1_555
O71 P16 1.535067 1_555
O72 P15 1.547320 1_555
O73 P18 1.560102 1_554
O74 P15 1.568748 1_555
O75 P19 1.535088 1_555
O76 P18 1.565757 1_554
O77 P18 1.553283 1_555
O78 P20 1.553933 1_555
O79 P20 1.555046 1_555
O80 P21 1.555046 1_555
O81 P20 1.555753 1_555
O82 P22 1.547314 1_555
O83 P16 1.552448 1_555
O84 P23 1.560088 1_555
O85 P19 1.555384 1_555
O86 P17 1.574177 1_555
O87 P21 1.555753 1_555
O88 P23 1.553279 1_555
O89 P22 1.552202 1_556
O90 P21 1.538117 1_555
O91 P21 1.553933 1_555
O92 P22 1.568751 1_556
O93 P22 1.556776 1_555
O94 P23 1.565755 1_555
O95 P23 1.555883 1_555
