# generated using pymatgen
data_Ti3Pb
_symmetry_space_group_name_H-M   'P 1'
_cell_length_a   5.95498301
_cell_length_b   5.95498293
_cell_length_c   4.80581012
_cell_angle_alpha   90.00000000
_cell_angle_beta   90.00000000
_cell_angle_gamma   119.99999463
_symmetry_Int_Tables_number   1
_chemical_formula_structural   Ti3Pb
_chemical_formula_sum   'Ti6 Pb2'
_cell_volume   147.59046819
_cell_formula_units_Z   2
loop_
 _symmetry_equiv_pos_site_id
 _symmetry_equiv_pos_as_xyz
  1  'x, y, z'
loop_
 _atom_site_type_symbol
 _atom_site_label
 _atom_site_symmetry_multiplicity
 _atom_site_fract_x
 _atom_site_fract_y
 _atom_site_fract_z
 _atom_site_occupancy
  Ti  Ti0  1  0.16163075  0.32326350  0.25000000  1
  Ti  Ti1  1  0.67673550  0.83836925  0.25000000  1
  Ti  Ti2  1  0.16163275  0.83836925  0.25000000  1
  Ti  Ti3  1  0.83836825  0.67673450  0.75000000  1
  Ti  Ti4  1  0.32326550  0.16163275  0.75000000  1
  Ti  Ti5  1  0.83836825  0.16163275  0.75000000  1
  Pb  Pb0  1  0.33333400  0.66666700  0.75000000  1
  Pb  Pb1  1  0.66666600  0.33333300  0.25000000  1
loop_
_geom_bond_atom_site_label_1
_geom_bond_atom_site_label_2
_geom_bond_distance
_geom_bond_site_symmetry_2
Pb0 Ti3 2.977941 1_455
Pb0 Ti4 2.977944 1_565
Pb0 Ti4 2.977944 1_555
Pb0 Ti5 2.977944 1_455
Pb0 Ti5 2.977944 1_565
Pb0 Ti3 2.977947 1_555
Pb0 Ti1 2.985016 1_555
Pb0 Ti1 2.985016 1_556
Pb0 Ti2 2.985022 1_555
Pb0 Ti2 2.985022 1_556
Pb0 Ti0 2.985022 1_556
Pb0 Ti0 2.985022 1_555
Pb1 Ti1 2.977935 1_545
Pb1 Ti2 2.977936 1_545
Pb1 Ti0 2.977941 1_655
Pb1 Ti0 2.977947 1_555
Pb1 Ti1 2.977953 1_555
Pb1 Ti2 2.977953 1_655
Pb1 Ti4 2.985013 1_555
Pb1 Ti4 2.985013 1_554
Pb1 Ti3 2.985016 1_555
Pb1 Ti3 2.985016 1_554
Pb1 Ti5 2.985019 1_554
Pb1 Ti5 2.985019 1_555
