# generated using pymatgen
data_Ba3In(BO3)3
_symmetry_space_group_name_H-M   'P 1'
_cell_length_a   8.04297546
_cell_length_b   8.04297546
_cell_length_c   8.04297535
_cell_angle_alpha   105.72080171
_cell_angle_beta   105.72080172
_cell_angle_gamma   105.72079908
_symmetry_Int_Tables_number   1
_chemical_formula_structural   Ba3In(BO3)3
_chemical_formula_sum   'Ba6 In2 B6 O18'
_cell_volume   447.56784825
_cell_formula_units_Z   2
loop_
 _symmetry_equiv_pos_site_id
 _symmetry_equiv_pos_as_xyz
  1  'x, y, z'
loop_
 _atom_site_type_symbol
 _atom_site_label
 _atom_site_symmetry_multiplicity
 _atom_site_fract_x
 _atom_site_fract_y
 _atom_site_fract_z
 _atom_site_occupancy
  Ba  Ba0  1  0.15601692  0.66484355  0.76303213  1
  Ba  Ba1  1  0.76303213  0.15601692  0.66484355  1
  Ba  Ba2  1  0.66484355  0.76303213  0.15601692  1
  Ba  Ba3  1  0.84398308  0.33515645  0.23696787  1
  Ba  Ba4  1  0.23696787  0.84398308  0.33515645  1
  Ba  Ba5  1  0.33515645  0.23696787  0.84398308  1
  In  In0  1  -0.00000000  -0.00000000  -0.00000000  1
  In  In1  1  0.50000000  0.50000000  0.50000000  1
  B  B0  1  0.13480867  0.20923157  0.45070520  1
  B  B1  1  0.45070520  0.13480867  0.20923157  1
  B  B2  1  0.20923157  0.45070520  0.13480867  1
  B  B3  1  0.86519133  0.79076843  0.54929480  1
  B  B4  1  0.54929480  0.86519133  0.79076843  1
  B  B5  1  0.79076843  0.54929480  0.86519133  1
  O  O0  1  0.32360628  0.23788198  0.50194470  1
  O  O1  1  0.50194470  0.32360628  0.23788198  1
  O  O2  1  0.23788198  0.50194470  0.32360628  1
  O  O3  1  0.67639372  0.76211802  0.49805530  1
  O  O4  1  0.49805530  0.67639372  0.76211802  1
  O  O5  1  0.76211802  0.49805530  0.67639372  1
  O  O6  1  0.06833751  0.30098596  0.57124714  1
  O  O7  1  0.57124714  0.06833751  0.30098596  1
  O  O8  1  0.30098596  0.57124714  0.06833751  1
  O  O9  1  0.93166249  0.69901404  0.42875286  1
  O  O10  1  0.42875286  0.93166249  0.69901404  1
  O  O11  1  0.69901404  0.42875286  0.93166249  1
  O  O12  1  0.00827695  0.06999328  0.28205591  1
  O  O13  1  0.28205591  0.00827695  0.06999328  1
  O  O14  1  0.06999328  0.28205591  0.00827695  1
  O  O15  1  0.99172305  0.93000672  0.71794409  1
  O  O16  1  0.71794409  0.99172305  0.93000672  1
  O  O17  1  0.93000672  0.71794409  0.99172305  1
loop_
_geom_bond_atom_site_label_1
_geom_bond_atom_site_label_2
_geom_bond_distance
_geom_bond_site_symmetry_2
Ba0 O6 2.699445 1_555
Ba0 O4 2.729388 1_555
Ba0 O8 2.807461 1_556
Ba0 O15 2.848272 1_455
Ba0 O13 2.860719 1_566
Ba0 O5 2.883779 1_455
Ba0 O10 2.888300 1_555
Ba0 O9 2.932638 1_455
Ba0 O17 2.945658 1_455
Ba1 O7 2.699445 1_555
Ba1 O5 2.729388 1_555
Ba1 O6 2.807461 1_655
Ba1 O16 2.848272 1_545
Ba1 O14 2.860719 1_656
Ba1 O3 2.883779 1_545
Ba1 O11 2.888300 1_555
Ba1 O10 2.932638 1_545
Ba1 O15 2.945657 1_545
Ba2 O8 2.699445 1_555
Ba2 O3 2.729388 1_555
Ba2 O7 2.807461 1_565
Ba2 O17 2.848272 1_554
Ba2 O12 2.860720 1_665
Ba2 O4 2.883779 1_554
Ba2 O9 2.888300 1_555
Ba2 O11 2.932638 1_554
Ba2 O16 2.945658 1_554
Ba3 O9 2.699445 1_555
Ba3 O1 2.729388 1_555
Ba3 O11 2.807461 1_554
Ba3 O12 2.848272 1_655
Ba3 O16 2.860719 1_544
Ba3 O2 2.883779 1_655
Ba3 O7 2.888300 1_555
Ba3 O6 2.932638 1_655
Ba3 O14 2.945658 1_655
Ba4 O10 2.699445 1_555
Ba4 O2 2.729388 1_555
Ba4 O9 2.807461 1_455
Ba4 O13 2.848272 1_565
Ba4 O17 2.860719 1_454
Ba4 O0 2.883779 1_565
Ba4 O8 2.888300 1_555
Ba4 O7 2.932638 1_565
Ba4 O12 2.945657 1_565
Ba5 O11 2.699445 1_555
Ba5 O0 2.729388 1_555
Ba5 O10 2.807461 1_545
Ba5 O14 2.848272 1_556
Ba5 O15 2.860720 1_445
Ba5 O1 2.883779 1_556
Ba5 O6 2.888300 1_555
Ba5 O8 2.932638 1_556
Ba5 O13 2.945658 1_556
In0 O15 2.161838 1_444
In0 O12 2.161838 1_555
In0 O16 2.161839 1_444
In0 O13 2.161839 1_555
In0 O17 2.161839 1_444
In0 O14 2.161839 1_555
In1 O1 2.206052 1_555
In1 O4 2.206052 1_555
In1 O5 2.206052 1_555
In1 O2 2.206052 1_555
In1 O3 2.206053 1_555
In1 O0 2.206053 1_555
B0 O6 1.370169 1_555
B0 O12 1.393176 1_555
B0 O0 1.395911 1_555
B1 O7 1.370169 1_555
B1 O13 1.393176 1_555
B1 O1 1.395911 1_555
B2 O8 1.370169 1_555
B2 O14 1.393176 1_555
B2 O2 1.395911 1_555
B3 O9 1.370169 1_555
B3 O15 1.393176 1_555
B3 O3 1.395911 1_555
B4 O10 1.370169 1_555
B4 O16 1.393176 1_555
B4 O4 1.395911 1_555
B5 O11 1.370169 1_555
B5 O17 1.393176 1_555
B5 O5 1.395911 1_555
