# generated using pymatgen
data_Tm2Mg
_symmetry_space_group_name_H-M   'P 1'
_cell_length_a   7.26407794
_cell_length_b   17.31215943
_cell_length_c   10.72797290
_cell_angle_alpha   89.99980226
_cell_angle_beta   89.99982528
_cell_angle_gamma   77.87635303
_symmetry_Int_Tables_number   1
_chemical_formula_structural   Tm2Mg
_chemical_formula_sum   'Tm32 Mg16'
_cell_volume   1319.02652503
_cell_formula_units_Z   16
loop_
 _symmetry_equiv_pos_site_id
 _symmetry_equiv_pos_as_xyz
  1  'x, y, z'
loop_
 _atom_site_type_symbol
 _atom_site_label
 _atom_site_symmetry_multiplicity
 _atom_site_fract_x
 _atom_site_fract_y
 _atom_site_fract_z
 _atom_site_occupancy
  Tm  Tm0_0  1  0.49086282  0.01825362  0.99999850  1
  Tm  Tm0_1  1  0.49086282  0.01825362  0.49999850  1
  Tm  Tm0_2  1  0.49086281  0.51825362  0.99999850  1
  Tm  Tm0_3  1  0.49086281  0.51825362  0.49999850  1
  Tm  Tm0_4  1  0.99086281  0.01825362  0.99999850  1
  Tm  Tm0_5  1  0.99086281  0.01825362  0.49999850  1
  Tm  Tm0_6  1  0.99086281  0.51825362  0.99999850  1
  Tm  Tm0_7  1  0.99086282  0.51825362  0.49999850  1
  Tm  Tm1_0  1  0.33013873  0.33904378  0.00000075  1
  Tm  Tm1_1  1  0.33013873  0.33904378  0.50000075  1
  Tm  Tm1_2  1  0.33013873  0.83904378  0.00000075  1
  Tm  Tm1_3  1  0.33013873  0.83904378  0.50000075  1
  Tm  Tm1_4  1  0.83013873  0.33904377  0.00000075  1
  Tm  Tm1_5  1  0.83013873  0.33904377  0.50000075  1
  Tm  Tm1_6  1  0.83013873  0.83904378  0.00000075  1
  Tm  Tm1_7  1  0.83013873  0.83904378  0.50000075  1
  Tm  Tm2_0  1  0.39780383  0.20403275  0.25000099  1
  Tm  Tm2_1  1  0.39780383  0.20403275  0.75000099  1
  Tm  Tm2_2  1  0.39780383  0.70403274  0.25000099  1
  Tm  Tm2_3  1  0.39780383  0.70403275  0.75000099  1
  Tm  Tm2_4  1  0.89780383  0.20403275  0.25000099  1
  Tm  Tm2_5  1  0.89780383  0.20403275  0.75000099  1
  Tm  Tm2_6  1  0.89780383  0.70403275  0.25000099  1
  Tm  Tm2_7  1  0.89780383  0.70403275  0.75000099  1
  Tm  Tm3_0  1  0.05804881  0.38327501  0.24999995  1
  Tm  Tm3_1  1  0.05804881  0.38327501  0.74999995  1
  Tm  Tm3_2  1  0.05804881  0.88327501  0.24999995  1
  Tm  Tm3_3  1  0.05804881  0.88327502  0.74999995  1
  Tm  Tm3_4  1  0.55804881  0.38327501  0.24999995  1
  Tm  Tm3_5  1  0.55804881  0.38327501  0.74999995  1
  Tm  Tm3_6  1  0.55804881  0.88327502  0.24999995  1
  Tm  Tm3_7  1  0.55804881  0.88327502  0.74999995  1
  Mg  Mg0_0  1  0.16105305  0.17769458  0.00000097  1
  Mg  Mg0_1  1  0.16105305  0.17769458  0.50000097  1
  Mg  Mg0_2  1  0.16105305  0.67769458  0.00000096  1
  Mg  Mg0_3  1  0.16105305  0.67769458  0.50000097  1
  Mg  Mg0_4  1  0.66105305  0.17769458  0.00000097  1
  Mg  Mg0_5  1  0.66105305  0.17769458  0.50000097  1
  Mg  Mg0_6  1  0.66105305  0.67769458  0.00000096  1
  Mg  Mg0_7  1  0.66105305  0.67769458  0.50000097  1
  Mg  Mg1_0  1  0.22875975  0.04436827  0.24999735  1
  Mg  Mg1_1  1  0.22875975  0.04436827  0.74999735  1
  Mg  Mg1_2  1  0.22875976  0.54436827  0.24999735  1
  Mg  Mg1_3  1  0.22875975  0.54436827  0.74999735  1
  Mg  Mg1_4  1  0.72875976  0.04436827  0.24999735  1
  Mg  Mg1_5  1  0.72875976  0.04436827  0.74999735  1
  Mg  Mg1_6  1  0.72875976  0.54436827  0.24999735  1
  Mg  Mg1_7  1  0.72875976  0.54436827  0.74999735  1
loop_
_geom_bond_atom_site_label_1
_geom_bond_atom_site_label_2
_geom_bond_distance
_geom_bond_site_symmetry_2
Tm0_0 Tm3_7 3.523164 1_545
Tm0_0 Tm3_6 3.523178 1_546
Tm0_0 Tm1_6 3.533795 1_546
Tm0_0 Tm1_2 3.536968 1_546
Tm0_0 Tm0_4 3.632039 1_555
Tm0_0 Tm0_4 3.632039 1_455
Tm0_1 Tm3_6 3.523164 1_545
Tm0_1 Tm3_7 3.523178 1_545
Tm0_1 Tm1_7 3.533795 1_545
Tm0_1 Tm1_3 3.536968 1_545
Tm0_1 Tm0_5 3.632039 1_555
Tm0_1 Tm0_5 3.632039 1_455
Tm0_2 Tm3_5 3.523164 1_555
Tm0_2 Tm3_4 3.523178 1_556
Tm0_2 Tm1_4 3.533795 1_556
Tm0_2 Tm1_0 3.536968 1_556
Tm0_2 Tm0_6 3.632039 1_555
Tm0_2 Tm0_6 3.632039 1_455
Tm0_3 Tm3_4 3.523164 1_555
Tm0_3 Tm3_5 3.523178 1_555
Tm0_3 Tm1_5 3.533795 1_555
Tm0_3 Tm1_1 3.536968 1_555
Tm0_3 Tm0_7 3.632039 1_455
Tm0_3 Tm0_7 3.632039 1_555
Tm0_4 Tm3_3 3.523164 1_645
Tm0_4 Tm3_2 3.523178 1_646
Tm0_4 Tm1_2 3.533795 1_646
Tm0_4 Tm1_6 3.536968 1_546
Tm0_5 Tm3_2 3.523164 1_645
Tm0_5 Tm3_3 3.523178 1_645
Tm0_5 Tm1_3 3.533795 1_645
Tm0_5 Tm1_7 3.536968 1_545
Tm0_6 Tm3_1 3.523164 1_655
Tm0_6 Tm3_0 3.523178 1_656
Tm0_6 Tm1_0 3.533795 1_656
Tm0_6 Tm1_4 3.536968 1_556
Tm0_7 Tm3_0 3.523164 1_655
Tm0_7 Tm3_1 3.523178 1_655
Tm0_7 Tm1_1 3.533795 1_655
Tm0_7 Tm1_5 3.536968 1_555
Tm1_0 Tm3_0 3.324175 1_555
Tm1_0 Tm3_1 3.324194 1_554
Tm1_0 Tm3_4 3.324576 1_555
Tm1_0 Tm3_5 3.324577 1_554
Tm1_0 Tm2_0 3.523523 1_555
Tm1_0 Tm2_1 3.523529 1_554
Tm1_0 Tm1_4 3.632039 1_455
Tm1_0 Tm1_4 3.632039 1_555
Tm1_1 Tm3_1 3.324175 1_555
Tm1_1 Tm3_0 3.324194 1_555
Tm1_1 Tm3_5 3.324576 1_555
Tm1_1 Tm3_4 3.324577 1_555
Tm1_1 Tm2_1 3.523523 1_555
Tm1_1 Tm2_0 3.523529 1_555
Tm1_1 Tm1_5 3.632039 1_455
Tm1_1 Tm1_5 3.632039 1_555
Tm1_2 Tm3_2 3.324175 1_555
Tm1_2 Tm3_3 3.324194 1_554
Tm1_2 Tm3_6 3.324576 1_555
Tm1_2 Tm3_7 3.324577 1_554
Tm1_2 Tm2_2 3.523523 1_555
Tm1_2 Tm2_3 3.523529 1_554
Tm1_2 Tm1_6 3.632039 1_455
Tm1_2 Tm1_6 3.632039 1_555
Tm1_3 Tm3_3 3.324175 1_555
Tm1_3 Tm3_2 3.324194 1_555
Tm1_3 Tm3_7 3.324576 1_555
Tm1_3 Tm3_6 3.324577 1_555
Tm1_3 Tm2_3 3.523523 1_555
Tm1_3 Tm2_2 3.523529 1_555
Tm1_3 Tm1_7 3.632039 1_555
Tm1_3 Tm1_7 3.632039 1_455
Tm1_4 Tm3_4 3.324175 1_555
Tm1_4 Tm3_5 3.324194 1_554
Tm1_4 Tm3_0 3.324576 1_655
Tm1_4 Tm3_1 3.324577 1_654
Tm1_4 Tm2_4 3.523523 1_555
Tm1_4 Tm2_5 3.523529 1_554
Tm1_5 Tm3_5 3.324175 1_555
Tm1_5 Tm3_4 3.324194 1_555
Tm1_5 Tm3_1 3.324576 1_655
Tm1_5 Tm3_0 3.324577 1_655
Tm1_5 Tm2_5 3.523523 1_555
Tm1_5 Tm2_4 3.523529 1_555
Tm1_6 Tm3_6 3.324175 1_555
Tm1_6 Tm3_7 3.324194 1_554
Tm1_6 Tm3_2 3.324576 1_655
Tm1_6 Tm3_3 3.324577 1_654
Tm1_6 Tm2_6 3.523523 1_555
Tm1_6 Tm2_7 3.523529 1_554
Tm1_7 Tm3_7 3.324175 1_555
Tm1_7 Tm3_6 3.324194 1_555
Tm1_7 Tm3_3 3.324576 1_655
Tm1_7 Tm3_2 3.324577 1_655
Tm1_7 Tm2_7 3.523523 1_555
Tm1_7 Tm2_6 3.523529 1_555
Tm2_0 Tm3_4 3.535711 1_555
Tm2_0 Tm3_0 3.535992 1_555
Tm2_0 Tm2_4 3.632039 1_555
Tm2_0 Tm2_4 3.632039 1_455
Tm2_1 Tm3_5 3.535711 1_555
Tm2_1 Tm3_1 3.535992 1_555
Tm2_1 Tm2_5 3.632039 1_555
Tm2_1 Tm2_5 3.632039 1_455
Tm2_2 Tm3_6 3.535711 1_555
Tm2_2 Tm3_2 3.535992 1_555
Tm2_2 Tm2_6 3.632039 1_555
Tm2_2 Tm2_6 3.632039 1_455
Tm2_3 Tm3_7 3.535711 1_555
Tm2_3 Tm3_3 3.535992 1_555
Tm2_3 Tm2_7 3.632039 1_555
Tm2_3 Tm2_7 3.632039 1_455
Tm2_4 Tm3_0 3.535711 1_655
Tm2_4 Tm3_4 3.535992 1_555
Tm2_5 Tm3_1 3.535711 1_655
Tm2_5 Tm3_5 3.535992 1_555
Tm2_6 Tm3_2 3.535711 1_655
Tm2_6 Tm3_6 3.535992 1_555
Tm2_7 Tm3_3 3.535711 1_655
Tm2_7 Tm3_7 3.535992 1_555
Tm3_0 Tm3_4 3.632039 1_555
Tm3_0 Tm3_4 3.632039 1_455
Tm3_1 Tm3_5 3.632039 1_455
Tm3_1 Tm3_5 3.632039 1_555
Tm3_2 Tm3_6 3.632039 1_455
Tm3_2 Tm3_6 3.632039 1_555
Tm3_3 Tm3_7 3.632039 1_455
Tm3_3 Tm3_7 3.632039 1_555
Mg0_0 Tm0_4 3.252819 1_454
Mg0_0 Tm0_0 3.252849 1_554
Mg0_0 Tm2_1 3.269247 1_554
Mg0_0 Tm2_0 3.269258 1_555
Mg0_0 Tm2_4 3.269782 1_455
Mg0_0 Tm2_5 3.269788 1_454
Mg0_0 Tm1_0 3.279065 1_555
Mg0_0 Tm1_4 3.280297 1_455
Mg0_1 Tm0_5 3.252819 1_455
Mg0_1 Tm0_1 3.252849 1_555
Mg0_1 Tm2_0 3.269247 1_555
Mg0_1 Tm2_1 3.269258 1_555
Mg0_1 Tm2_5 3.269782 1_455
Mg0_1 Tm2_4 3.269788 1_455
Mg0_1 Tm1_1 3.279065 1_555
Mg0_1 Tm1_5 3.280297 1_455
Mg0_2 Tm0_6 3.252819 1_454
Mg0_2 Tm0_2 3.252849 1_554
Mg0_2 Tm2_3 3.269247 1_554
Mg0_2 Tm2_2 3.269258 1_555
Mg0_2 Tm2_6 3.269782 1_455
Mg0_2 Tm2_7 3.269788 1_454
Mg0_2 Tm1_2 3.279065 1_555
Mg0_2 Tm1_6 3.280297 1_455
Mg0_3 Tm0_7 3.252819 1_455
Mg0_3 Tm0_3 3.252849 1_555
Mg0_3 Tm2_2 3.269247 1_555
Mg0_3 Tm2_3 3.269258 1_555
Mg0_3 Tm2_7 3.269782 1_455
Mg0_3 Tm2_6 3.269788 1_455
Mg0_3 Tm1_3 3.279065 1_555
Mg0_3 Tm1_7 3.280297 1_455
Mg0_4 Tm0_0 3.252819 1_554
Mg0_4 Tm0_4 3.252849 1_554
Mg0_4 Tm2_5 3.269247 1_554
Mg0_4 Tm2_4 3.269258 1_555
Mg0_4 Tm2_0 3.269782 1_555
Mg0_4 Tm2_1 3.269788 1_554
Mg0_4 Tm1_4 3.279065 1_555
Mg0_4 Tm1_0 3.280297 1_555
Mg0_5 Tm0_1 3.252819 1_555
Mg0_5 Tm0_5 3.252849 1_555
Mg0_5 Tm2_4 3.269247 1_555
Mg0_5 Tm2_5 3.269258 1_555
Mg0_5 Tm2_1 3.269782 1_555
Mg0_5 Tm2_0 3.269788 1_555
Mg0_5 Tm1_5 3.279065 1_555
Mg0_5 Tm1_1 3.280297 1_555
Mg0_6 Tm0_2 3.252819 1_554
Mg0_6 Tm0_6 3.252849 1_554
Mg0_6 Tm2_7 3.269247 1_554
Mg0_6 Tm2_6 3.269258 1_555
Mg0_6 Tm2_2 3.269782 1_555
Mg0_6 Tm2_3 3.269788 1_554
Mg0_6 Tm1_6 3.279065 1_555
Mg0_6 Tm1_2 3.280297 1_555
Mg0_7 Tm0_3 3.252819 1_555
Mg0_7 Tm0_7 3.252849 1_555
Mg0_7 Tm2_6 3.269247 1_555
Mg0_7 Tm2_7 3.269258 1_555
Mg0_7 Tm2_3 3.269782 1_555
Mg0_7 Tm2_2 3.269788 1_555
Mg0_7 Tm1_7 3.279065 1_555
Mg0_7 Tm1_3 3.280297 1_555
Mg1_0 Tm2_0 3.251774 1_555
Mg1_0 Tm2_4 3.260185 1_455
Mg1_0 Tm0_0 3.265089 1_554
Mg1_0 Tm0_1 3.265117 1_555
Mg1_0 Tm3_6 3.270672 1_545
Mg1_0 Tm0_4 3.272913 1_454
Mg1_0 Tm0_5 3.272922 1_455
Mg1_0 Tm3_2 3.281496 1_545
Mg1_1 Tm2_1 3.251774 1_555
Mg1_1 Tm2_5 3.260185 1_455
Mg1_1 Tm0_1 3.265089 1_555
Mg1_1 Tm0_0 3.265117 1_555
Mg1_1 Tm3_7 3.270672 1_545
Mg1_1 Tm0_5 3.272913 1_455
Mg1_1 Tm0_4 3.272922 1_455
Mg1_1 Tm3_3 3.281496 1_545
Mg1_2 Tm2_2 3.251774 1_555
Mg1_2 Tm2_6 3.260185 1_455
Mg1_2 Tm0_2 3.265089 1_554
Mg1_2 Tm0_3 3.265117 1_555
Mg1_2 Tm3_4 3.270672 1_555
Mg1_2 Tm0_6 3.272913 1_454
Mg1_2 Tm0_7 3.272922 1_455
Mg1_2 Tm3_0 3.281496 1_555
Mg1_3 Tm2_3 3.251774 1_555
Mg1_3 Tm2_7 3.260185 1_455
Mg1_3 Tm0_3 3.265089 1_555
Mg1_3 Tm0_2 3.265117 1_555
Mg1_3 Tm3_5 3.270672 1_555
Mg1_3 Tm0_7 3.272913 1_455
Mg1_3 Tm0_6 3.272922 1_455
Mg1_3 Tm3_1 3.281496 1_555
Mg1_4 Tm2_4 3.251774 1_555
Mg1_4 Tm2_0 3.260185 1_555
Mg1_4 Tm0_4 3.265089 1_554
Mg1_4 Tm0_5 3.265117 1_555
Mg1_4 Tm3_2 3.270672 1_645
Mg1_4 Tm0_0 3.272913 1_554
Mg1_4 Tm0_1 3.272922 1_555
Mg1_4 Tm3_6 3.281496 1_545
Mg1_5 Tm2_5 3.251774 1_555
Mg1_5 Tm2_1 3.260185 1_555
Mg1_5 Tm0_5 3.265089 1_555
Mg1_5 Tm0_4 3.265117 1_555
Mg1_5 Tm3_3 3.270672 1_645
Mg1_5 Tm0_1 3.272913 1_555
Mg1_5 Tm0_0 3.272922 1_555
Mg1_5 Tm3_7 3.281496 1_545
Mg1_6 Tm2_6 3.251774 1_555
Mg1_6 Tm2_2 3.260185 1_555
Mg1_6 Tm0_6 3.265089 1_554
Mg1_6 Tm0_7 3.265117 1_555
Mg1_6 Tm3_0 3.270672 1_655
Mg1_6 Tm0_2 3.272913 1_554
Mg1_6 Tm0_3 3.272922 1_555
Mg1_6 Tm3_4 3.281496 1_555
Mg1_7 Tm2_7 3.251774 1_555
Mg1_7 Tm2_3 3.260185 1_555
Mg1_7 Tm0_7 3.265089 1_555
Mg1_7 Tm0_6 3.265117 1_555
Mg1_7 Tm3_1 3.270672 1_655
Mg1_7 Tm0_3 3.272913 1_555
Mg1_7 Tm0_2 3.272922 1_555
Mg1_7 Tm3_5 3.281496 1_555
