# generated using pymatgen
data_Li2SiNiO4
_symmetry_space_group_name_H-M   'P 1'
_cell_length_a   4.96235100
_cell_length_b   6.22173100
_cell_length_c   10.92235900
_cell_angle_alpha   90.00000000
_cell_angle_beta   90.00000000
_cell_angle_gamma   90.00000000
_symmetry_Int_Tables_number   1
_chemical_formula_structural   Li2SiNiO4
_chemical_formula_sum   'Li8 Si4 Ni4 O16'
_cell_volume   337.22142324
_cell_formula_units_Z   4
loop_
 _symmetry_equiv_pos_site_id
 _symmetry_equiv_pos_as_xyz
  1  'x, y, z'
loop_
 _atom_site_type_symbol
 _atom_site_label
 _atom_site_symmetry_multiplicity
 _atom_site_fract_x
 _atom_site_fract_y
 _atom_site_fract_z
 _atom_site_occupancy
  Li  Li0  1  0.75578000  0.99807200  0.67484700  1
  Li  Li1  1  0.75601300  0.25691200  0.41185300  1
  Li  Li2  1  0.75601300  0.24308800  0.91185300  1
  Li  Li3  1  0.75578000  0.50192800  0.17484700  1
  Li  Li4  1  0.25578000  0.49807200  0.82515300  1
  Li  Li5  1  0.25601300  0.75691200  0.08814700  1
  Li  Li6  1  0.25601300  0.74308800  0.58814700  1
  Li  Li7  1  0.25578000  0.00192800  0.32515300  1
  Si  Si0  1  0.26438100  0.99758200  0.83541700  1
  Si  Si1  1  0.26438100  0.50241800  0.33541700  1
  Si  Si2  1  0.76438100  0.49758200  0.66458300  1
  Si  Si3  1  0.76438100  0.00241800  0.16458300  1
  Ni  Ni0  1  0.25351300  0.25618400  0.08202400  1
  Ni  Ni1  1  0.25351300  0.24381600  0.58202400  1
  Ni  Ni2  1  0.75351300  0.75618400  0.41797600  1
  Ni  Ni3  1  0.75351300  0.74381600  0.91797600  1
  O  O0  1  0.09722100  0.00605100  0.16385400  1
  O  O1  1  0.15944300  0.00134100  0.69158300  1
  O  O2  1  0.16139600  0.28230100  0.40699900  1
  O  O3  1  0.65536500  0.22230200  0.09345000  1
  O  O4  1  0.65536500  0.27769800  0.59345000  1
  O  O5  1  0.16139600  0.21769900  0.90699900  1
  O  O6  1  0.15944300  0.49865900  0.19158300  1
  O  O7  1  0.09722100  0.49394900  0.66385400  1
  O  O8  1  0.59722100  0.50605100  0.33614600  1
  O  O9  1  0.65944300  0.50134100  0.80841700  1
  O  O10  1  0.66139600  0.78230100  0.09300100  1
  O  O11  1  0.15536500  0.72230200  0.40655000  1
  O  O12  1  0.15536500  0.77769800  0.90655000  1
  O  O13  1  0.66139600  0.71769900  0.59300100  1
  O  O14  1  0.65944300  0.99865900  0.30841700  1
  O  O15  1  0.59722100  0.99394900  0.83614600  1
loop_
_geom_bond_atom_site_label_1
_geom_bond_atom_site_label_2
_geom_bond_distance
_geom_bond_site_symmetry_2
Li0 O15 1.929655 1_555
Li0 O1 2.011544 1_665
Li0 O13 2.015308 1_555
Li0 O4 2.016298 1_565
Li1 O8 1.925464 1_555
Li1 O2 2.018542 1_655
Li1 O14 2.021821 1_545
Li1 O4 2.049468 1_555
Li2 O15 1.925464 1_545
Li2 O5 2.018542 1_655
Li2 O9 2.021821 1_555
Li2 O3 2.049468 1_556
Li3 O8 1.929655 1_555
Li3 O6 2.011544 1_655
Li3 O10 2.015308 1_555
Li3 O3 2.016298 1_555
Li4 O7 1.929655 1_555
Li4 O9 2.011544 1_555
Li4 O5 2.015308 1_555
Li4 O12 2.016298 1_555
Li5 O0 1.925464 1_565
Li5 O10 2.018542 1_555
Li5 O6 2.021821 1_555
Li5 O12 2.049468 1_554
Li6 O7 1.925464 1_555
Li6 O13 2.018542 1_555
Li6 O1 2.021821 1_565
Li6 O11 2.049468 1_555
Li7 O0 1.929655 1_555
Li7 O14 2.011544 1_545
Li7 O2 2.015308 1_555
Li7 O11 2.016298 1_545
Ni0 O0 1.955070 1_555
Ni0 O5 1.980109 1_554
Ni0 O6 1.981358 1_555
Ni0 O3 2.009122 1_555
Ni1 O7 1.955070 1_555
Ni1 O2 1.980109 1_555
Ni1 O1 1.981358 1_555
Ni1 O4 2.009122 1_555
Ni2 O8 1.955070 1_555
Ni2 O13 1.980109 1_555
Ni2 O14 1.981358 1_555
Ni2 O11 2.009122 1_655
Ni3 O15 1.955070 1_555
Ni3 O10 1.980109 1_556
Ni3 O9 1.981358 1_555
Ni3 O12 2.009122 1_655
O0 Si3 1.651843 1_455
O1 Si0 1.655227 1_545
O2 Si1 1.657711 1_555
O3 Si3 1.663694 1_555
O4 Si2 1.663694 1_555
O5 Si0 1.657711 1_545
O6 Si1 1.655227 1_555
O7 Si2 1.651843 1_455
O8 Si1 1.651843 1_555
O9 Si2 1.655227 1_555
O10 Si3 1.657711 1_565
O11 Si1 1.663694 1_555
O12 Si0 1.663694 1_555
O13 Si2 1.657711 1_555
O14 Si3 1.655227 1_565
O15 Si0 1.651843 1_555
