# generated using pymatgen
data_Dy2PdRu
_symmetry_space_group_name_H-M   'P 1'
_cell_length_a   4.84674066
_cell_length_b   4.84674066
_cell_length_c   4.84674066
_cell_angle_alpha   60.00000000
_cell_angle_beta   60.00000000
_cell_angle_gamma   60.00000000
_symmetry_Int_Tables_number   1
_chemical_formula_structural   Dy2PdRu
_chemical_formula_sum   'Dy2 Pd1 Ru1'
_cell_volume   80.50713086
_cell_formula_units_Z   1
loop_
 _symmetry_equiv_pos_site_id
 _symmetry_equiv_pos_as_xyz
  1  'x, y, z'
loop_
 _atom_site_type_symbol
 _atom_site_label
 _atom_site_symmetry_multiplicity
 _atom_site_fract_x
 _atom_site_fract_y
 _atom_site_fract_z
 _atom_site_occupancy
  Dy  Dy0  1  0.49999900  0.49999900  0.49999900  1
  Dy  Dy1  1  0.00000000  0.00000000  -0.00000000  1
  Pd  Pd0  1  0.25000000  0.25000000  0.25000000  1
  Ru  Ru0  1  0.75000100  0.75000100  0.75000100  1
loop_
_geom_bond_atom_site_label_1
_geom_bond_atom_site_label_2
_geom_bond_distance
_geom_bond_site_symmetry_2
Dy0 Pd0 2.967999 1_555
Dy0 Ru0 2.968002 1_545
Dy0 Ru0 2.968002 1_554
Dy0 Ru0 2.968002 1_455
Dy0 Pd0 2.968014 1_556
Dy0 Pd0 2.968014 1_565
Dy0 Pd0 2.968014 1_655
Dy0 Ru0 2.968034 1_555
Dy1 Ru0 2.967999 1_444
Dy1 Pd0 2.968010 1_545
Dy1 Pd0 2.968010 1_554
Dy1 Pd0 2.968010 1_555
Dy1 Pd0 2.968010 1_455
Dy1 Ru0 2.968014 1_544
Dy1 Ru0 2.968014 1_454
Dy1 Ru0 2.968014 1_445
