# generated using pymatgen
data_Na2MnPCO7
_symmetry_space_group_name_H-M   'P 1'
_cell_length_a   6.76178300
_cell_length_b   10.17108673
_cell_length_c   10.37635118
_cell_angle_alpha   60.95014425
_cell_angle_beta   89.37178718
_cell_angle_gamma   89.24001942
_symmetry_Int_Tables_number   1
_chemical_formula_structural   Na2MnPCO7
_chemical_formula_sum   'Na8 Mn4 P4 C4 O28'
_cell_volume   623.79055880
_cell_formula_units_Z   4
loop_
 _symmetry_equiv_pos_site_id
 _symmetry_equiv_pos_as_xyz
  1  'x, y, z'
loop_
 _atom_site_type_symbol
 _atom_site_label
 _atom_site_symmetry_multiplicity
 _atom_site_fract_x
 _atom_site_fract_y
 _atom_site_fract_z
 _atom_site_occupancy
  Na  Na0  1  0.01505100  0.74295300  0.25211500  1
  Na  Na1  1  0.48338200  0.74403000  0.25405200  1
  Na  Na2  1  0.00633000  0.75914900  0.74162900  1
  Na  Na3  1  0.49332200  0.76092900  0.74151300  1
  Na  Na4  1  0.98624100  0.24658300  0.26534000  1
  Na  Na5  1  0.50705300  0.24950100  0.73814500  1
  Na  Na6  1  0.99644200  0.24991700  0.74211800  1
  Na  Na7  1  0.73837200  0.08423300  0.08246300  1
  Mn  Mn0  1  0.74869900  0.64550200  0.06809100  1
  Mn  Mn1  1  0.75081400  0.64846000  0.56456100  1
  Mn  Mn2  1  0.26137800  0.34694800  0.42838700  1
  Mn  Mn3  1  0.25447300  0.34911800  0.93659500  1
  P  P0  1  0.24874900  0.57830400  0.06551000  1
  P  P1  1  0.25095800  0.57767100  0.56506900  1
  P  P2  1  0.75237600  0.41803200  0.43965600  1
  P  P3  1  0.75121800  0.42184700  0.93480700  1
  C  C0  1  0.74919900  0.92882400  0.90358900  1
  C  C1  1  0.75128100  0.92921200  0.39606900  1
  C  C2  1  0.24847200  0.07206900  0.59753100  1
  C  C3  1  0.24701500  0.07236600  0.09885200  1
  O  O0  1  0.24610700  0.93227500  0.67509000  1
  O  O1  1  0.24669300  0.93136800  0.17088400  1
  O  O2  1  0.74607600  0.85111100  0.05084400  1
  O  O3  1  0.74824800  0.85417700  0.54246700  1
  O  O4  1  0.74855200  0.84607700  0.84094600  1
  O  O5  1  0.74765300  0.83945900  0.33744700  1
  O  O6  1  0.06172700  0.67484400  0.05090700  1
  O  O7  1  0.43617000  0.66920100  0.05516500  1
  O  O8  1  0.06337500  0.67152400  0.55277500  1
  O  O9  1  0.43721500  0.66917700  0.55380900  1
  O  O10  1  0.25201000  0.54381100  0.43122400  1
  O  O11  1  0.74806100  0.57260100  0.29488100  1
  O  O12  1  0.25050400  0.54566100  0.93075000  1
  O  O13  1  0.75170700  0.57587600  0.79102800  1
  O  O14  1  0.24176900  0.42657600  0.20945800  1
  O  O15  1  0.75673100  0.45647700  0.06739500  1
  O  O16  1  0.25029800  0.42476800  0.71104700  1
  O  O17  1  0.75830700  0.45401300  0.57402400  1
  O  O18  1  0.56582200  0.32643900  0.46243300  1
  O  O19  1  0.93966100  0.32728100  0.44966600  1
  O  O20  1  0.56918300  0.32672800  0.94524600  1
  O  O21  1  0.93354900  0.32215100  0.94836900  1
  O  O22  1  0.25182600  0.16638300  0.65010500  1
  O  O23  1  0.23770700  0.16328800  0.15320000  1
  O  O24  1  0.24890900  0.14153000  0.45247400  1
  O  O25  1  0.25884500  0.14566800  0.95161600  1
  O  O26  1  0.75242100  0.07074900  0.84109500  1
  O  O27  1  0.75794700  0.06841300  0.32149800  1
loop_
_geom_bond_atom_site_label_1
_geom_bond_atom_site_label_2
_geom_bond_distance
_geom_bond_site_symmetry_2
Na0 O1 2.306149 1_555
Na0 O11 2.403535 1_455
Na0 O5 2.403852 1_455
Na0 O6 2.514509 1_555
Na0 O10 2.539164 1_555
Na0 O2 2.584325 1_455
Na0 O8 2.860486 1_555
Na1 O1 2.299849 1_555
Na1 O11 2.374699 1_555
Na1 O5 2.404092 1_555
Na1 O10 2.521930 1_555
Na1 O7 2.546834 1_555
Na1 O2 2.554674 1_555
Na1 O9 2.834938 1_555
Na2 O0 2.253126 1_555
Na2 O4 2.384645 1_455
Na2 O13 2.416545 1_455
Na2 O3 2.518897 1_455
Na2 O8 2.540390 1_555
Na2 O12 2.670152 1_555
Na2 O6 2.918880 1_556
Na3 O0 2.255676 1_555
Na3 O4 2.395709 1_555
Na3 O13 2.419182 1_555
Na3 O3 2.489895 1_555
Na3 O9 2.568861 1_555
Na3 O12 2.682323 1_555
Na3 O7 2.940265 1_556
Na4 O27 2.243984 1_555
Na4 O14 2.388344 1_655
Na4 O23 2.416340 1_655
Na4 O19 2.436296 1_555
Na4 O24 2.465174 1_655
Na4 O15 2.628374 1_555
Na5 O26 2.296096 1_555
Na5 O22 2.313198 1_555
Na5 O16 2.390160 1_555
Na5 O25 2.555832 1_555
Na5 O17 2.589109 1_555
Na5 O18 2.600790 1_555
Na5 O20 2.660691 1_555
Na6 O26 2.307221 1_555
Na6 O22 2.308281 1_655
Na6 O16 2.392739 1_655
Na6 O17 2.530013 1_555
Na6 O25 2.606572 1_655
Na6 O21 2.607591 1_555
Na6 O19 2.770179 1_555
Na7 O27 2.411308 1_555
Na7 O20 2.443318 1_554
Na7 O21 2.511605 1_554
Na7 O2 2.546434 1_545
Na7 O26 2.574580 1_554
Na7 O5 2.608632 1_545
Mn0 O15 1.926151 1_555
Mn0 O2 2.010316 1_555
Mn0 O11 2.095933 1_555
Mn0 O7 2.122083 1_555
Mn0 O6 2.134894 1_655
Mn0 O4 2.246658 1_554
Mn1 O17 1.931971 1_555
Mn1 O3 1.991013 1_555
Mn1 O13 2.093447 1_555
Mn1 O8 2.125174 1_655
Mn1 O9 2.126928 1_555
Mn1 O5 2.209536 1_555
Mn2 O24 1.982911 1_555
Mn2 O14 2.012730 1_555
Mn2 O10 2.016919 1_555
Mn2 O18 2.083045 1_555
Mn2 O22 2.136951 1_555
Mn2 O19 2.186130 1_455
Mn3 O12 1.970150 1_555
Mn3 O25 1.998114 1_555
Mn3 O16 2.078993 1_555
Mn3 O23 2.124018 1_556
Mn3 O20 2.135366 1_555
Mn3 O21 2.185537 1_455
C0 O26 1.263418 1_565
C0 O4 1.289301 1_555
C0 O2 1.336695 1_556
C1 O27 1.241908 1_565
C1 O5 1.320666 1_555
C1 O3 1.328277 1_555
C2 O0 1.248465 1_545
C2 O22 1.314298 1_555
C2 O24 1.316022 1_555
C3 O1 1.254750 1_545
C3 O23 1.296662 1_555
C3 O25 1.337563 1_554
O6 P0 1.553418 1_555
O7 P0 1.550494 1_555
O8 P1 1.545803 1_555
O9 P1 1.545415 1_555
O10 P1 1.584835 1_555
O11 P2 1.560563 1_555
O12 P0 1.586210 1_556
O13 P3 1.552531 1_555
O14 P0 1.541642 1_555
O15 P3 1.578066 1_554
O16 P1 1.557354 1_555
O17 P2 1.605182 1_555
O18 P2 1.525049 1_555
O19 P2 1.531429 1_555
O20 P3 1.545860 1_555
O21 P3 1.549224 1_555
