# generated using pymatgen
data_CeAu3
_symmetry_space_group_name_H-M   'P 1'
_cell_length_a   6.57459601
_cell_length_b   6.57112222
_cell_length_c   4.72731811
_cell_angle_alpha   90.00000000
_cell_angle_beta   90.00000000
_cell_angle_gamma   120.50381702
_symmetry_Int_Tables_number   1
_chemical_formula_structural   CeAu3
_chemical_formula_sum   'Ce2 Au6'
_cell_volume   175.96520093
_cell_formula_units_Z   2
loop_
 _symmetry_equiv_pos_site_id
 _symmetry_equiv_pos_as_xyz
  1  'x, y, z'
loop_
 _atom_site_type_symbol
 _atom_site_label
 _atom_site_symmetry_multiplicity
 _atom_site_fract_x
 _atom_site_fract_y
 _atom_site_fract_z
 _atom_site_occupancy
  Ce  Ce0  1  0.33348291  0.66700850  0.74999900  1
  Ce  Ce1  1  0.66645911  0.33291626  0.25000000  1
  Au  Au0  1  0.15402000  0.30549694  0.25000000  1
  Au  Au1  1  0.69499603  0.84610601  0.25000000  1
  Au  Au2  1  0.15283693  0.84678734  0.25000000  1
  Au  Au3  1  0.84592711  0.69442577  0.74999900  1
  Au  Au4  1  0.30531343  0.15403595  0.74999900  1
  Au  Au5  1  0.84696548  0.15322923  0.74999900  1
loop_
_geom_bond_atom_site_label_1
_geom_bond_atom_site_label_2
_geom_bond_distance
_geom_bond_site_symmetry_2
Au0 Au4 2.927774 1_555
Au0 Au4 2.927782 1_554
Au0 Au5 2.934757 1_455
Au0 Au5 2.934764 1_454
Au0 Au1 2.995292 1_445
Au0 Au2 3.010296 1_545
Au0 Ce0 3.126775 1_555
Au0 Ce0 3.126783 1_554
Au0 Ce1 3.281298 1_555
Au0 Ce1 3.300625 1_455
Au1 Au3 2.927293 1_555
Au1 Au3 2.927300 1_554
Au1 Au5 2.934452 1_565
Au1 Au5 2.934459 1_564
Au1 Au2 3.007849 1_655
Au1 Ce0 3.127522 1_555
Au1 Ce0 3.127529 1_554
Au1 Ce1 3.280983 1_555
Au1 Ce1 3.298088 1_565
Au2 Au3 2.934262 1_455
Au2 Au3 2.934270 1_454
Au2 Ce0 3.133271 1_555
Au2 Ce0 3.133278 1_554
Au2 Ce1 3.264428 1_565
Au2 Ce1 3.265858 1_455
Au3 Au4 2.997188 1_665
Au3 Au5 3.011394 1_565
Au3 Ce1 3.126767 1_555
Au3 Ce1 3.126775 1_556
Au3 Ce0 3.281338 1_555
Au3 Ce0 3.300584 1_655
Au4 Ce1 3.126162 1_555
Au4 Ce1 3.126169 1_556
Au4 Ce0 3.280680 1_555
Au4 Ce0 3.298187 1_545
Au5 Ce1 3.132404 1_555
Au5 Ce1 3.132411 1_556
Au5 Ce0 3.264209 1_545
Au5 Ce0 3.265951 1_655
