# generated using pymatgen
data_MnZnRh2
_symmetry_space_group_name_H-M   'P 1'
_cell_length_a   4.25262291
_cell_length_b   4.25262291
_cell_length_c   4.25262291
_cell_angle_alpha   60.00000000
_cell_angle_beta   60.00000000
_cell_angle_gamma   60.00000000
_symmetry_Int_Tables_number   1
_chemical_formula_structural   MnZnRh2
_chemical_formula_sum   'Mn1 Zn1 Rh2'
_cell_volume   54.38205651
_cell_formula_units_Z   1
loop_
 _symmetry_equiv_pos_site_id
 _symmetry_equiv_pos_as_xyz
  1  'x, y, z'
loop_
 _atom_site_type_symbol
 _atom_site_label
 _atom_site_symmetry_multiplicity
 _atom_site_fract_x
 _atom_site_fract_y
 _atom_site_fract_z
 _atom_site_occupancy
  Mn  Mn0  1  0.24999900  0.24999900  0.24999900  1
  Zn  Zn0  1  0.75000100  0.75000100  0.75000100  1
  Rh  Rh0  1  0.00000000  -0.00000000  -0.00000000  1
  Rh  Rh1  1  0.49999900  0.49999900  0.49999900  1
loop_
_geom_bond_atom_site_label_1
_geom_bond_atom_site_label_2
_geom_bond_distance
_geom_bond_site_symmetry_2
Mn0 Rh0 2.604179 1_555
Mn0 Rh1 2.604189 1_545
Mn0 Rh1 2.604189 1_455
Mn0 Rh1 2.604189 1_554
Mn0 Rh1 2.604189 1_555
Mn0 Rh0 2.604193 1_655
Mn0 Rh0 2.604193 1_556
Mn0 Rh0 2.604193 1_565
Rh0 Zn0 2.604179 1_444
Rh0 Zn0 2.604193 1_544
Rh0 Zn0 2.604193 1_445
Rh0 Zn0 2.604193 1_454
Rh1 Zn0 2.604182 1_455
Rh1 Zn0 2.604182 1_545
Rh1 Zn0 2.604182 1_554
Rh1 Zn0 2.604210 1_555
