# generated using pymatgen
data_Li15Mn15SiO32
_symmetry_space_group_name_H-M   'P 1'
_cell_length_a   8.34371400
_cell_length_b   8.42799415
_cell_length_c   8.47213676
_cell_angle_alpha   90.02394032
_cell_angle_beta   90.19460811
_cell_angle_gamma   90.67053547
_symmetry_Int_Tables_number   1
_chemical_formula_structural   Li15Mn15SiO32
_chemical_formula_sum   'Li15 Mn15 Si1 O32'
_cell_volume   595.72290694
_cell_formula_units_Z   1
loop_
 _symmetry_equiv_pos_site_id
 _symmetry_equiv_pos_as_xyz
  1  'x, y, z'
loop_
 _atom_site_type_symbol
 _atom_site_label
 _atom_site_symmetry_multiplicity
 _atom_site_fract_x
 _atom_site_fract_y
 _atom_site_fract_z
 _atom_site_occupancy
  Li  Li0  1  0.74028100  0.12757700  0.12721000  1
  Li  Li1  1  0.01811100  0.39176800  0.12743800  1
  Li  Li2  1  0.74477000  0.61736300  0.12337900  1
  Li  Li3  1  0.25523800  0.38598200  0.36937400  1
  Li  Li4  1  0.50027200  0.11861800  0.36953800  1
  Li  Li5  1  0.25142200  0.87136200  0.38055300  1
  Li  Li6  1  0.48596300  0.62289000  0.36758200  1
  Li  Li7  1  0.99988700  0.37938000  0.62064000  1
  Li  Li8  1  0.74706900  0.12255500  0.62509500  1
  Li  Li9  1  0.00083700  0.87430800  0.63579700  1
  Li  Li10  1  0.74941200  0.62827300  0.62758500  1
  Li  Li11  1  0.50027700  0.12230300  0.88186700  1
  Li  Li12  1  0.25689700  0.38133900  0.87827700  1
  Li  Li13  1  0.48572700  0.62063100  0.88431300  1
  Li  Li14  1  0.25275800  0.87441300  0.87172100  1
  Mn  Mn0  1  0.25000400  0.12950800  0.12625700  1
  Mn  Mn1  1  0.49189400  0.38014800  0.12605600  1
  Mn  Mn2  1  0.46684800  0.84191100  0.12676800  1
  Mn  Mn3  1  0.74518900  0.37823900  0.37457800  1
  Mn  Mn4  1  0.74921800  0.87159100  0.37139300  1
  Mn  Mn5  1  0.00539800  0.62375100  0.37074000  1
  Mn  Mn6  1  0.00201100  0.12958300  0.37876800  1
  Mn  Mn7  1  0.49681800  0.87371500  0.62752700  1
  Mn  Mn8  1  0.50401800  0.37585600  0.62370200  1
  Mn  Mn9  1  0.25141400  0.12503400  0.62430700  1
  Mn  Mn10  1  0.24685000  0.62545800  0.62673800  1
  Mn  Mn11  1  0.99869600  0.13473100  0.87371000  1
  Mn  Mn12  1  0.01116100  0.62093000  0.87463000  1
  Mn  Mn13  1  0.74676400  0.87311400  0.88020000  1
  Mn  Mn14  1  0.75291200  0.37652600  0.87635400  1
  Si  Si0  1  0.00494900  0.86773400  0.12065500  1
  O  O0  1  0.50514400  0.60666000  0.12557800  1
  O  O1  1  0.21574500  0.89682000  0.12205800  1
  O  O2  1  0.78793000  0.88066700  0.11351900  1
  O  O3  1  0.00482600  0.66067900  0.10803000  1
  O  O4  1  0.01073000  0.10595600  0.13955700  1
  O  O5  1  0.73300700  0.37124500  0.14136600  1
  O  O6  1  0.25700600  0.35374100  0.12467100  1
  O  O7  1  0.47983100  0.13227600  0.12529000  1
  O  O8  1  0.76976600  0.63894500  0.37710400  1
  O  O9  1  0.99375800  0.86305900  0.33819200  1
  O  O10  1  0.51688100  0.87104800  0.36536700  1
  O  O11  1  0.23318200  0.62641200  0.40007700  1
  O  O12  1  0.23566700  0.12592200  0.38542100  1
  O  O13  1  0.51127200  0.37343700  0.38940100  1
  O  O14  1  0.98413800  0.39021500  0.37097300  1
  O  O15  1  0.76804900  0.10842800  0.37825200  1
  O  O16  1  0.25567500  0.88755000  0.62567000  1
  O  O17  1  0.48289600  0.64037500  0.62525100  1
  O  O18  1  0.01207900  0.62871900  0.63864200  1
  O  O19  1  0.74016400  0.87556100  0.64494300  1
  O  O20  1  0.73922800  0.37533300  0.60982500  1
  O  O21  1  0.01524200  0.12346500  0.61254400  1
  O  O22  1  0.48416300  0.10918600  0.62646700  1
  O  O23  1  0.26711800  0.36291700  0.62504200  1
  O  O24  1  0.99186900  0.89313400  0.90120600  1
  O  O25  1  0.77459800  0.60960100  0.87383500  1
  O  O26  1  0.23959400  0.62688200  0.85310200  1
  O  O27  1  0.51615800  0.87147100  0.89012500  1
  O  O28  1  0.51891200  0.37452900  0.85890800  1
  O  O29  1  0.23267900  0.12774700  0.86345500  1
  O  O30  1  0.76561400  0.14071100  0.87529000  1
  O  O31  1  0.98981700  0.36592000  0.87888800  1
loop_
_geom_bond_atom_site_label_1
_geom_bond_atom_site_label_2
_geom_bond_distance
_geom_bond_site_symmetry_2
Li0 O5 2.058697 1_555
Li0 O2 2.126351 1_545
Li0 O15 2.145013 1_555
Li0 O30 2.148228 1_554
Li0 O7 2.173950 1_555
Li0 O4 2.268082 1_655
Li1 O6 2.022785 1_555
Li1 O14 2.083622 1_455
Li1 O31 2.128945 1_454
Li1 O3 2.276372 1_555
Li1 O5 2.386409 1_455
Li1 O4 2.411127 1_555
Li2 O0 2.000500 1_555
Li2 O5 2.081129 1_555
Li2 O25 2.130675 1_554
Li2 O8 2.166350 1_555
Li2 O3 2.200403 1_655
Li2 O2 2.245625 1_555
Li3 O11 2.053340 1_555
Li3 O6 2.090901 1_555
Li3 O13 2.146270 1_555
Li3 O23 2.176867 1_555
Li3 O12 2.200247 1_555
Li3 O14 2.262766 1_455
Li4 O7 2.079089 1_555
Li4 O10 2.093025 1_545
Li4 O13 2.154986 1_555
Li4 O22 2.182763 1_555
Li4 O12 2.213915 1_555
Li4 O15 2.237878 1_555
Li5 O11 2.074976 1_555
Li5 O16 2.081240 1_555
Li5 O12 2.151375 1_565
Li5 O9 2.178733 1_455
Li5 O10 2.219116 1_555
Li5 O1 2.219962 1_555
Li6 O0 2.061680 1_555
Li6 O10 2.104425 1_555
Li6 O13 2.123500 1_555
Li6 O11 2.128501 1_555
Li6 O17 2.188170 1_555
Li6 O8 2.371349 1_555
Li7 O18 2.108134 1_655
Li7 O14 2.120916 1_555
Li7 O21 2.163221 1_655
Li7 O20 2.176350 1_555
Li7 O31 2.192743 1_555
Li7 O23 2.235818 1_655
Li8 O19 2.088653 1_545
Li8 O15 2.102634 1_555
Li8 O30 2.130111 1_555
Li8 O20 2.136143 1_555
Li8 O22 2.195258 1_555
Li8 O21 2.240368 1_655
Li9 O18 2.073190 1_555
Li9 O21 2.111258 1_565
Li9 O16 2.129939 1_555
Li9 O19 2.176773 1_455
Li9 O24 2.255663 1_455
Li9 O9 2.523557 1_455
Li10 O19 2.091605 1_555
Li10 O25 2.102259 1_555
Li10 O8 2.131321 1_555
Li10 O20 2.137695 1_555
Li10 O18 2.193261 1_655
Li10 O17 2.227284 1_555
Li11 O7 2.071686 1_556
Li11 O27 2.120875 1_545
Li11 O28 2.138616 1_555
Li11 O22 2.170192 1_555
Li11 O30 2.218404 1_555
Li11 O29 2.238682 1_555
Li12 O26 2.087115 1_555
Li12 O6 2.100497 1_556
Li12 O29 2.148029 1_555
Li12 O23 2.153038 1_555
Li12 O28 2.194302 1_555
Li12 O31 2.230730 1_455
Li13 O0 2.053429 1_556
Li13 O26 2.071010 1_555
Li13 O28 2.106786 1_555
Li13 O27 2.126848 1_555
Li13 O17 2.201245 1_555
Li13 O25 2.415068 1_555
Li14 O16 2.087771 1_555
Li14 O26 2.093652 1_555
Li14 O29 2.144768 1_565
Li14 O1 2.152832 1_556
Li14 O24 2.199404 1_455
Li14 O27 2.203160 1_555
Mn0 O6 1.890109 1_555
Mn0 O7 1.917525 1_555
Mn0 O1 1.978791 1_545
Mn0 O4 2.007515 1_555
Mn0 O12 2.199536 1_555
Mn0 O29 2.230724 1_554
Mn1 O0 1.910955 1_555
Mn1 O6 1.969840 1_555
Mn1 O5 2.017789 1_555
Mn1 O7 2.090316 1_555
Mn1 O13 2.237184 1_555
Mn1 O28 2.275803 1_554
Mn2 O0 2.011992 1_555
Mn2 O27 2.062637 1_554
Mn2 O10 2.076599 1_555
Mn2 O1 2.151155 1_555
Mn2 O7 2.448363 1_565
Mn2 O2 2.697779 1_555
Mn3 O13 1.956145 1_555
Mn3 O5 1.978890 1_555
Mn3 O20 1.993988 1_555
Mn3 O14 1.995433 1_555
Mn3 O8 2.204474 1_555
Mn3 O15 2.284390 1_555
Mn4 O10 1.939004 1_555
Mn4 O8 1.970818 1_555
Mn4 O15 2.001205 1_565
Mn4 O9 2.062698 1_555
Mn4 O2 2.210801 1_555
Mn4 O19 2.319280 1_555
Mn5 O11 1.915780 1_555
Mn5 O8 1.972625 1_455
Mn5 O14 1.974151 1_455
Mn5 O9 2.039159 1_455
Mn5 O3 2.247495 1_555
Mn5 O18 2.270554 1_555
Mn6 O12 1.950787 1_555
Mn6 O15 1.958148 1_455
Mn6 O21 1.984007 1_555
Mn6 O4 2.037933 1_555
Mn6 O14 2.204404 1_455
Mn6 O9 2.272485 1_445
Mn7 O17 1.968741 1_555
Mn7 O22 1.988611 1_565
Mn7 O16 2.016774 1_555
Mn7 O19 2.035141 1_555
Mn7 O10 2.228046 1_555
Mn7 O27 2.230168 1_555
Mn8 O20 1.966498 1_555
Mn8 O23 1.978428 1_555
Mn8 O13 1.986261 1_555
Mn8 O28 1.996191 1_555
Mn8 O17 2.238411 1_555
Mn8 O22 2.251794 1_555
Mn9 O22 1.948162 1_555
Mn9 O21 1.972621 1_555
Mn9 O16 2.002283 1_545
Mn9 O23 2.007629 1_555
Mn9 O12 2.027712 1_555
Mn9 O29 2.032785 1_555
Mn10 O26 1.918985 1_555
Mn10 O11 1.923325 1_555
Mn10 O18 1.962312 1_555
Mn10 O17 1.972123 1_555
Mn10 O16 2.209299 1_555
Mn10 O23 2.221164 1_555
Mn11 O30 1.946103 1_555
Mn11 O31 1.951214 1_555
Mn11 O29 1.956087 1_655
Mn11 O24 2.049708 1_545
Mn11 O21 2.219466 1_655
Mn11 O4 2.267423 1_656
Mn12 O26 1.915378 1_555
Mn12 O25 1.974994 1_455
Mn12 O18 2.000465 1_555
Mn12 O3 2.006412 1_556
Mn12 O31 2.154838 1_455
Mn12 O24 2.312599 1_455
Mn13 O27 1.926120 1_555
Mn13 O19 1.993825 1_555
Mn13 O2 2.006037 1_556
Mn13 O24 2.057169 1_555
Mn13 O25 2.236344 1_555
Mn13 O30 2.259357 1_565
Mn14 O28 1.957390 1_555
Mn14 O25 1.970692 1_555
Mn14 O31 1.979776 1_555
Mn14 O30 1.991528 1_555
Mn14 O5 2.252335 1_556
Mn14 O20 2.260580 1_555
O1 Si0 1.772978 1_555
O2 Si0 1.816098 1_655
O3 Si0 1.748277 1_555
O4 Si0 2.014045 1_545
O9 Si0 1.846097 1_655
O24 Si0 1.874532 1_656
