# generated using pymatgen
data_LiFeP2O7
_symmetry_space_group_name_H-M   'P 1'
_cell_length_a   9.73147100
_cell_length_b   9.78538144
_cell_length_c   11.14188748
_cell_angle_alpha   90.06032792
_cell_angle_beta   101.85303290
_cell_angle_gamma   90.23802214
_symmetry_Int_Tables_number   1
_chemical_formula_structural   LiFeP2O7
_chemical_formula_sum   'Li8 Fe8 P16 O56'
_cell_volume   1038.36522844
_cell_formula_units_Z   8
loop_
 _symmetry_equiv_pos_site_id
 _symmetry_equiv_pos_as_xyz
  1  'x, y, z'
loop_
 _atom_site_type_symbol
 _atom_site_label
 _atom_site_symmetry_multiplicity
 _atom_site_fract_x
 _atom_site_fract_y
 _atom_site_fract_z
 _atom_site_occupancy
  Li  Li0  1  0.09441800  0.10602900  0.02821500  1
  Li  Li1  1  0.41890600  0.59975400  0.98067000  1
  Li  Li2  1  0.39391800  0.96382200  0.50295400  1
  Li  Li3  1  0.85075200  0.59149400  0.95159500  1
  Li  Li4  1  0.64716700  0.11216700  0.04557900  1
  Li  Li5  1  0.90692600  0.88988000  0.96922900  1
  Li  Li6  1  0.85630200  0.57679700  0.47815800  1
  Li  Li7  1  0.88185400  0.28210300  0.54454300  1
  Fe  Fe0  1  0.20272800  0.91484200  0.67269500  1
  Fe  Fe1  1  0.24907200  0.21181300  0.82542000  1
  Fe  Fe2  1  0.25602300  0.70453300  0.17811600  1
  Fe  Fe3  1  0.29256000  0.41514500  0.33602700  1
  Fe  Fe4  1  0.69867800  0.58458400  0.67139100  1
  Fe  Fe5  1  0.74093100  0.29423000  0.82467200  1
  Fe  Fe6  1  0.74380700  0.77480900  0.17455800  1
  Fe  Fe7  1  0.79187600  0.07023900  0.33282500  1
  P  P0  1  0.01671100  0.44994100  0.74960600  1
  P  P1  1  0.11765400  0.70792100  0.88545600  1
  P  P2  1  0.05859700  0.92002900  0.23325700  1
  P  P3  1  0.12408100  0.14054900  0.42536800  1
  P  P4  1  0.37192800  0.64316900  0.57195400  1
  P  P5  1  0.42856300  0.42273800  0.76287200  1
  P  P6  1  0.51842200  0.04886100  0.74771200  1
  P  P7  1  0.38590300  0.21443400  0.11823200  1
  P  P8  1  0.60854300  0.78782900  0.88192900  1
  P  P9  1  0.47423700  0.94566900  0.24557600  1
  P  P10  1  0.57300000  0.58465900  0.24424600  1
  P  P11  1  0.62397000  0.35659500  0.41871200  1
  P  P12  1  0.87322000  0.85824900  0.57366200  1
  P  P13  1  0.93466600  0.07784700  0.76233100  1
  P  P14  1  0.89125500  0.28442000  0.11942900  1
  P  P15  1  0.97855900  0.55223100  0.24253500  1
  O  O0  1  0.00196600  0.43103800  0.61439600  1
  O  O1  1  0.02890500  0.84799900  0.57135000  1
  O  O2  1  0.08627600  0.08560900  0.73541600  1
  O  O3  1  0.10646900  0.58665000  0.78608600  1
  O  O4  1  0.09650100  0.33952600  0.83378600  1
  O  O5  1  0.17735800  0.82767500  0.82460900  1
  O  O6  1  0.22170600  0.65793100  0.00286300  1
  O  O7  1  0.03602200  0.25313800  0.10594300  1
  O  O8  1  0.12015000  0.05817300  0.29903300  1
  O  O9  1  0.05978400  0.93495800  0.09922800  1
  O  O10  1  0.13172400  0.53399400  0.22020300  1
  O  O11  1  0.18248500  0.28084800  0.40324800  1
  O  O12  1  0.15833300  0.80401800  0.28755800  1
  O  O13  1  0.21402100  0.05641600  0.52676300  1
  O  O14  1  0.29084500  0.56913200  0.46031400  1
  O  O15  1  0.34138300  0.29799800  0.70578200  1
  O  O16  1  0.31869200  0.78707500  0.59493600  1
  O  O17  1  0.36787400  0.03232800  0.77847800  1
  O  O18  1  0.35971100  0.55519400  0.69194800  1
  O  O19  1  0.41969100  0.43364500  0.89512600  1
  O  O20  1  0.46510600  0.75072800  0.89551600  1
  O  O21  1  0.27860900  0.16885800  0.99814200  1
  O  O22  1  0.32333900  0.32767600  0.18460700  1
  O  O23  1  0.38911300  0.08494000  0.20996400  1
  O  O24  1  0.41767100  0.58652600  0.25957600  1
  O  O25  1  0.39619500  0.83850200  0.15398800  1
  O  O26  1  0.47282000  0.34701900  0.43245100  1
  O  O27  1  0.52083500  0.07293300  0.61706800  1
  O  O28  1  0.47589300  0.91727900  0.37620200  1
  O  O29  1  0.53043100  0.65287600  0.57429700  1
  O  O30  1  0.60527900  0.15046900  0.84358900  1
  O  O31  1  0.58467600  0.41738000  0.73977000  1
  O  O32  1  0.60225600  0.90703500  0.78323100  1
  O  O33  1  0.69121100  0.67318900  0.83103000  1
  O  O34  1  0.70968800  0.84474900  0.00166100  1
  O  O35  1  0.52839900  0.23771500  0.09417300  1
  O  O36  1  0.59012400  0.60664300  0.11231800  1
  O  O37  1  0.62893200  0.43747400  0.29219400  1
  O  O38  1  0.62688600  0.96459100  0.21546700  1
  O  O39  1  0.69436400  0.21957700  0.40395100  1
  O  O40  1  0.67493400  0.69143900  0.31733100  1
  O  O41  1  0.71895400  0.43929200  0.52246100  1
  O  O42  1  0.78808200  0.93296700  0.46423700  1
  O  O43  1  0.84293700  0.20136100  0.70740600  1
  O  O44  1  0.81590900  0.71537800  0.59671100  1
  O  O45  1  0.86691200  0.47154400  0.78602000  1
  O  O46  1  0.93081300  0.06390400  0.89591500  1
  O  O47  1  0.86163400  0.94457600  0.69520700  1
  O  O48  1  0.97332300  0.72972700  0.90931400  1
  O  O49  1  0.79633100  0.33654700  0.99561400  1
  O  O50  1  0.81201500  0.16899000  0.17274500  1
  O  O51  1  0.89477500  0.64778100  0.14005400  1
  O  O52  1  0.89667600  0.40773500  0.21562900  1
  O  O53  1  0.90556900  0.90554700  0.25798900  1
  O  O54  1  0.96887600  0.15288200  0.43713800  1
  O  O55  1  0.96917500  0.59172600  0.36869300  1
loop_
_geom_bond_atom_site_label_1
_geom_bond_atom_site_label_2
_geom_bond_distance
_geom_bond_site_symmetry_2
Li0 O7 1.830716 1_555
Li0 O9 1.910375 1_545
Li0 O46 1.976561 1_454
Li0 O21 1.985230 1_554
Li1 O20 1.859437 1_555
Li1 O19 1.884247 1_555
Li1 O36 1.981705 1_556
Li1 O6 2.066805 1_556
Li2 O28 1.817350 1_555
Li2 O27 1.903435 1_565
Li2 O13 2.039511 1_565
Li2 O16 2.208835 1_555
Li3 O48 1.921759 1_555
Li3 O33 2.002461 1_555
Li3 O51 2.126517 1_556
Li3 O45 2.218545 1_555
Li3 O49 2.615935 1_555
Li4 O35 1.845469 1_555
Li4 O50 1.986802 1_555
Li4 O30 2.235574 1_554
Li4 O38 2.421604 1_545
Li5 O48 1.871506 1_555
Li5 O9 1.900889 1_656
Li5 O46 1.923220 1_565
Li5 O34 2.070746 1_556
Li6 O55 1.806875 1_555
Li6 O44 1.988009 1_555
Li6 O41 2.024382 1_555
Li6 O0 2.342075 1_655
Li6 O40 2.511178 1_555
Li7 O0 1.925021 1_655
Li7 O54 2.042098 1_555
Li7 O43 2.084058 1_555
Li7 O41 2.190964 1_555
Li7 O39 2.229739 1_555
Fe0 O1 1.941341 1_555
Fe0 O5 1.956114 1_555
Fe0 O16 1.999586 1_555
Fe0 O17 2.120686 1_565
Fe0 O13 2.156829 1_565
Fe0 O2 2.214393 1_565
Fe1 O21 1.933461 1_555
Fe1 O15 1.945017 1_555
Fe1 O4 1.961369 1_555
Fe1 O2 2.090232 1_555
Fe1 O17 2.226700 1_555
Fe2 O25 1.946297 1_555
Fe2 O12 1.954428 1_555
Fe2 O6 1.965017 1_555
Fe2 O24 2.015573 1_555
Fe2 O10 2.164672 1_555
Fe3 O11 1.937872 1_555
Fe3 O22 1.968581 1_555
Fe3 O26 1.978091 1_555
Fe3 O14 2.047864 1_555
Fe3 O10 2.157822 1_555
Fe3 O24 2.330757 1_555
Fe4 O29 1.892245 1_555
Fe4 O33 1.992762 1_555
Fe4 O44 2.002993 1_555
Fe4 O45 2.166586 1_555
Fe4 O31 2.196133 1_555
Fe4 O41 2.223875 1_555
Fe5 O49 1.914249 1_555
Fe5 O30 1.966095 1_555
Fe5 O43 2.013987 1_555
Fe5 O31 2.021375 1_555
Fe5 O45 2.213551 1_555
Fe6 O34 2.007872 1_555
Fe6 O40 2.020262 1_555
Fe6 O51 2.024215 1_555
Fe6 O53 2.087691 1_555
Fe6 O36 2.230828 1_555
Fe6 O38 2.275957 1_555
Fe7 O42 1.993856 1_545
Fe7 O39 1.995493 1_555
Fe7 O54 2.033653 1_555
Fe7 O50 2.073411 1_555
Fe7 O38 2.115982 1_545
Fe7 O53 2.215288 1_545
O0 P0 1.494898 1_555
O1 P12 1.524261 1_455
O2 P13 1.566316 1_455
O3 P0 1.600326 1_555
O3 P1 1.610137 1_555
O4 P0 1.536203 1_555
O5 P1 1.525851 1_555
O6 P1 1.561134 1_554
O7 P14 1.480349 1_455
O8 P2 1.591882 1_545
O8 P3 1.614878 1_555
O9 P2 1.503017 1_555
O10 P15 1.571586 1_455
O11 P3 1.523267 1_555
O12 P2 1.538227 1_555
O13 P3 1.523771 1_555
O14 P4 1.511579 1_555
O15 P5 1.543496 1_555
O16 P4 1.541660 1_555
O17 P6 1.579404 1_555
O18 P5 1.595375 1_555
O18 P4 1.615414 1_555
O19 P5 1.497408 1_555
O20 P8 1.478458 1_555
O21 P7 1.581257 1_556
O22 P7 1.527868 1_555
O23 P9 1.605124 1_545
O23 P7 1.625178 1_555
O24 P10 1.555850 1_555
O25 P9 1.546154 1_555
O26 P11 1.512342 1_555
O27 P6 1.479725 1_555
O28 P9 1.478830 1_555
O29 P4 1.539852 1_555
O30 P6 1.569723 1_555
O31 P5 1.593197 1_555
O32 P8 1.596673 1_555
O32 P6 1.620547 1_565
O33 P8 1.555896 1_555
O34 P8 1.585302 1_554
O35 P7 1.482191 1_555
O36 P10 1.528309 1_555
O37 P10 1.595211 1_555
O37 P11 1.626592 1_555
O38 P9 1.598781 1_555
O39 P11 1.532138 1_555
O40 P10 1.548107 1_555
O41 P11 1.548661 1_555
O42 P12 1.516380 1_555
O43 P13 1.555070 1_555
O44 P12 1.544233 1_555
O45 P0 1.606151 1_655
O46 P13 1.502864 1_555
O47 P13 1.592806 1_565
O47 P12 1.619067 1_555
O48 P1 1.498236 1_655
O49 P14 1.580665 1_556
O50 P14 1.551032 1_555
O51 P15 1.571275 1_555
O52 P14 1.606627 1_555
O52 P15 1.617310 1_555
O53 P2 1.574993 1_655
O54 P3 1.547849 1_655
O55 P15 1.478310 1_555
