# generated using pymatgen
data_Sc2IrRu
_symmetry_space_group_name_H-M   'P 1'
_cell_length_a   4.53407299
_cell_length_b   4.53407299
_cell_length_c   4.53407299
_cell_angle_alpha   60.00000000
_cell_angle_beta   60.00000000
_cell_angle_gamma   60.00000000
_symmetry_Int_Tables_number   1
_chemical_formula_structural   Sc2IrRu
_chemical_formula_sum   'Sc2 Ir1 Ru1'
_cell_volume   65.90988056
_cell_formula_units_Z   1
loop_
 _symmetry_equiv_pos_site_id
 _symmetry_equiv_pos_as_xyz
  1  'x, y, z'
loop_
 _atom_site_type_symbol
 _atom_site_label
 _atom_site_symmetry_multiplicity
 _atom_site_fract_x
 _atom_site_fract_y
 _atom_site_fract_z
 _atom_site_occupancy
  Sc  Sc0  1  0.00000000  0.00000000  0.00000000  1
  Sc  Sc1  1  0.50000000  0.50000000  0.50000000  1
  Ir  Ir0  1  0.25000000  0.25000000  0.25000000  1
  Ru  Ru0  1  0.75000000  0.75000000  0.75000000  1
loop_
_geom_bond_atom_site_label_1
_geom_bond_atom_site_label_2
_geom_bond_distance
_geom_bond_site_symmetry_2
Ir0 Sc1 2.776541 1_455
Ir0 Sc0 2.776541 1_655
Ir0 Sc0 2.776541 1_565
Ir0 Sc1 2.776541 1_545
Ir0 Sc0 2.776541 1_555
Ir0 Sc0 2.776541 1_556
Ir0 Sc1 2.776541 1_554
Ir0 Sc1 2.776541 1_555
Ru0 Sc1 2.776541 1_655
Ru0 Sc0 2.776541 1_566
Ru0 Sc1 2.776541 1_556
Ru0 Sc0 2.776541 1_665
Ru0 Sc1 2.776541 1_565
Ru0 Sc0 2.776541 1_666
Ru0 Sc0 2.776541 1_656
Ru0 Sc1 2.776541 1_555
