# generated using pymatgen
data_TbVB4
_symmetry_space_group_name_H-M   'P 1'
_cell_length_a   3.45226897
_cell_length_b   6.01418546
_cell_length_c   11.64372236
_cell_angle_alpha   90.00000000
_cell_angle_beta   90.00000000
_cell_angle_gamma   90.00000000
_symmetry_Int_Tables_number   1
_chemical_formula_structural   TbVB4
_chemical_formula_sum   'Tb4 V4 B16'
_cell_volume   241.75378504
_cell_formula_units_Z   4
loop_
 _symmetry_equiv_pos_site_id
 _symmetry_equiv_pos_as_xyz
  1  'x, y, z'
loop_
 _atom_site_type_symbol
 _atom_site_label
 _atom_site_symmetry_multiplicity
 _atom_site_fract_x
 _atom_site_fract_y
 _atom_site_fract_z
 _atom_site_occupancy
  Tb  Tb0  1  0.00000000  0.12404229  0.15148267  1
  Tb  Tb1  1  0.00000000  0.87595771  0.84851733  1
  Tb  Tb2  1  0.00000000  0.62404229  0.34851733  1
  Tb  Tb3  1  -0.00000000  0.37595771  0.65148267  1
  V  V0  1  -0.00000000  0.12676591  0.41723715  1
  V  V1  1  0.00000000  0.87323409  0.58276285  1
  V  V2  1  -0.00000000  0.62676591  0.08276285  1
  V  V3  1  0.00000000  0.37323409  0.91723715  1
  B  B0  1  0.50000000  0.47669173  0.19159859  1
  B  B1  1  0.50000000  0.52330827  0.80840141  1
  B  B2  1  0.50000000  0.97669173  0.30840141  1
  B  B3  1  0.50000000  0.02330827  0.69159859  1
  B  B4  1  0.50000000  0.28517605  0.31472190  1
  B  B5  1  0.50000000  0.71482395  0.68527810  1
  B  B6  1  0.50000000  0.78517605  0.18527810  1
  B  B7  1  0.50000000  0.21482395  0.81472190  1
  B  B8  1  0.50000000  0.36319969  0.46746334  1
  B  B9  1  0.50000000  0.63680031  0.53253666  1
  B  B10  1  0.50000000  0.86319969  0.03253666  1
  B  B11  1  0.50000000  0.13680031  0.96746334  1
  B  B12  1  0.50000000  0.38562401  0.04721500  1
  B  B13  1  0.50000000  0.61437599  0.95278500  1
  B  B14  1  0.50000000  0.88562401  0.45278500  1
  B  B15  1  0.50000000  0.11437599  0.54721500  1
loop_
_geom_bond_atom_site_label_1
_geom_bond_atom_site_label_2
_geom_bond_distance
_geom_bond_site_symmetry_2
B0 B12 1.768129 1_555
B0 B4 1.838999 1_555
B0 B6 1.856741 1_555
B0 V2 2.323814 1_655
B0 V2 2.323814 1_555
B0 Tb2 2.665191 1_655
B0 Tb2 2.665191 1_555
B0 Tb0 2.774155 1_655
B0 Tb0 2.774155 1_555
B1 B13 1.768129 1_555
B1 B5 1.838999 1_555
B1 B7 1.856741 1_555
B1 V3 2.323814 1_555
B1 V3 2.323814 1_655
B1 Tb3 2.665191 1_555
B1 Tb3 2.665191 1_655
B1 Tb1 2.774155 1_555
B1 Tb1 2.774155 1_655
B2 B6 1.838999 1_555
B2 B4 1.856741 1_565
B2 V0 2.323814 1_565
B2 V0 2.323814 1_665
B2 Tb0 2.665191 1_665
B2 Tb0 2.665191 1_565
B2 Tb2 2.774155 1_655
B2 Tb2 2.774155 1_555
B3 B7 1.838999 1_555
B3 B5 1.856741 1_545
B3 V1 2.323814 1_545
B3 V1 2.323814 1_645
B3 Tb1 2.665191 1_545
B3 Tb1 2.665191 1_645
B3 Tb3 2.774155 1_655
B3 Tb3 2.774155 1_555
B4 B8 1.839343 1_555
B4 V0 2.304781 1_655
B4 V0 2.304781 1_555
B4 Tb2 2.699601 1_555
B4 Tb2 2.699601 1_655
B4 Tb0 2.744336 1_655
B4 Tb0 2.744336 1_555
B5 B9 1.839343 1_555
B5 V1 2.304781 1_555
B5 V1 2.304781 1_655
B5 Tb3 2.699601 1_655
B5 Tb3 2.699601 1_555
B5 Tb1 2.744336 1_555
B5 Tb1 2.744336 1_655
B6 V2 2.304781 1_655
B6 V2 2.304781 1_555
B6 Tb0 2.699601 1_665
B6 Tb0 2.699601 1_565
B6 Tb2 2.744336 1_555
B6 Tb2 2.744336 1_655
B7 V3 2.304781 1_655
B7 V3 2.304781 1_555
B7 Tb1 2.699601 1_645
B7 Tb1 2.699601 1_545
B7 Tb3 2.744336 1_655
B7 Tb3 2.744336 1_555
B8 B9 1.811553 1_555
B8 V0 2.311604 1_555
B8 V0 2.311604 1_655
B8 Tb2 2.712690 1_555
B8 Tb2 2.712690 1_655
B8 Tb3 2.752537 1_655
B8 Tb3 2.752537 1_555
B9 V1 2.311604 1_655
B9 V1 2.311604 1_555
B9 Tb3 2.712690 1_655
B9 Tb3 2.712690 1_555
B9 Tb2 2.752537 1_555
B9 Tb2 2.752537 1_655
B10 B13 1.761175 1_554
B10 B11 1.811553 1_564
B10 B6 1.839343 1_555
B10 V2 2.311604 1_655
B10 V2 2.311604 1_555
B10 Tb0 2.712690 1_665
B10 Tb0 2.712690 1_565
B10 Tb1 2.752537 1_554
B10 Tb1 2.752537 1_654
B11 B12 1.761175 1_556
B11 B7 1.839343 1_555
B11 V3 2.311604 1_555
B11 V3 2.311604 1_655
B11 Tb1 2.712690 1_545
B11 Tb1 2.712690 1_645
B11 Tb0 2.752537 1_556
B11 Tb0 2.752537 1_656
B12 B13 1.761148 1_554
B12 V2 2.292193 1_555
B12 V2 2.292193 1_655
B12 V3 2.296857 1_654
B12 V3 2.296857 1_554
B12 Tb0 2.632195 1_555
B12 Tb0 2.632195 1_655
B13 V3 2.292193 1_555
B13 V3 2.292193 1_655
B13 V2 2.296857 1_656
B13 V2 2.296857 1_556
B13 Tb1 2.632195 1_555
B13 Tb1 2.632195 1_655
B14 B15 1.761148 1_565
B14 B9 1.761175 1_555
B14 B2 1.768129 1_555
B14 V0 2.292193 1_565
B14 V0 2.292193 1_665
B14 V1 2.296857 1_655
B14 V1 2.296857 1_555
B14 Tb2 2.632195 1_555
B14 Tb2 2.632195 1_655
B15 B8 1.761175 1_555
B15 B3 1.768129 1_555
B15 V1 2.292193 1_645
B15 V1 2.292193 1_545
B15 V0 2.296857 1_555
B15 V0 2.296857 1_655
B15 Tb3 2.632195 1_655
B15 Tb3 2.632195 1_555
