# generated using pymatgen
data_AsPd2
_symmetry_space_group_name_H-M   'P 1'
_cell_length_a   3.40125164
_cell_length_b   6.56825071
_cell_length_c   8.60668133
_cell_angle_alpha   90.00000000
_cell_angle_beta   101.39627134
_cell_angle_gamma   90.00000000
_symmetry_Int_Tables_number   1
_chemical_formula_structural   AsPd2
_chemical_formula_sum   'As4 Pd8'
_cell_volume   188.48471544
_cell_formula_units_Z   4
loop_
 _symmetry_equiv_pos_site_id
 _symmetry_equiv_pos_as_xyz
  1  'x, y, z'
loop_
 _atom_site_type_symbol
 _atom_site_label
 _atom_site_symmetry_multiplicity
 _atom_site_fract_x
 _atom_site_fract_y
 _atom_site_fract_z
 _atom_site_occupancy
  As  As0  1  0.20053440  0.23129032  0.40106980  1
  As  As1  1  0.79946560  0.73129032  0.59893020  1
  As  As2  1  0.55859241  0.69823094  0.11718282  1
  As  As3  1  0.44140759  0.19823094  0.88281718  1
  Pd  Pd0  1  0.67751754  0.96275740  0.35503507  1
  Pd  Pd1  1  0.32248246  0.46275740  0.64496493  1
  Pd  Pd2  1  0.41659887  0.82565902  0.83319575  1
  Pd  Pd3  1  0.58340113  0.32565902  0.16680425  1
  Pd  Pd4  1  0.16663725  0.61246916  0.33327550  1
  Pd  Pd5  1  0.83336275  0.11246916  0.66672450  1
  Pd  Pd6  1  0.95930479  0.48389518  0.91860859  1
  Pd  Pd7  1  0.04069521  0.98389518  0.08139241  1
loop_
_geom_bond_atom_site_label_1
_geom_bond_atom_site_label_2
_geom_bond_distance
_geom_bond_site_symmetry_2
As0 Pd0 2.480712 1_445
As0 Pd0 2.480715 1_545
As0 Pd1 2.558459 1_555
As0 Pd4 2.568183 1_555
As0 Pd3 2.680086 1_555
As0 Pd3 2.680088 1_455
As0 Pd5 2.919719 1_455
As0 Pd5 2.919723 1_555
As1 Pd1 2.480712 1_655
As1 Pd1 2.480715 1_555
As1 Pd0 2.558459 1_555
As1 Pd5 2.568183 1_565
As1 Pd2 2.680086 1_555
As1 Pd2 2.680088 1_655
As1 Pd4 2.919719 1_655
As1 Pd4 2.919723 1_555
As2 Pd3 2.482699 1_555
As2 Pd2 2.537979 1_554
As2 Pd7 2.550263 1_655
As2 Pd7 2.550272 1_555
As2 Pd4 2.556048 1_655
As2 Pd4 2.556054 1_555
As2 Pd0 2.654411 1_555
As2 Pd6 2.771446 1_554
As2 Pd6 2.771449 1_454
As3 Pd2 2.482699 1_545
As3 Pd3 2.537979 1_556
As3 Pd6 2.550265 1_455
As3 Pd6 2.550272 1_555
As3 Pd5 2.556048 1_455
As3 Pd5 2.556054 1_555
As3 Pd1 2.654411 1_555
As3 Pd7 2.771453 1_546
As3 Pd7 2.771453 1_646
Pd0 Pd5 2.807561 1_565
Pd0 Pd3 2.864220 1_565
Pd0 Pd4 2.866953 1_655
Pd0 Pd4 2.866955 1_555
Pd0 Pd7 2.870816 1_655
Pd0 Pd7 2.870820 1_555
Pd1 Pd4 2.807561 1_555
Pd1 Pd2 2.864220 1_555
Pd1 Pd5 2.866953 1_455
Pd1 Pd5 2.866955 1_555
Pd1 Pd6 2.870824 1_455
Pd1 Pd6 2.870826 1_555
Pd2 Pd7 2.890899 1_656
Pd2 Pd7 2.890907 1_556
Pd2 Pd5 2.900628 1_565
Pd2 Pd5 2.900631 1_465
Pd2 Pd6 2.906976 1_555
Pd2 Pd6 2.906978 1_455
Pd3 Pd6 2.890894 1_454
Pd3 Pd6 2.890900 1_554
Pd3 Pd4 2.900628 1_555
Pd3 Pd4 2.900631 1_655
Pd3 Pd7 2.906975 1_645
Pd3 Pd7 2.906975 1_545
