# generated using pymatgen
data_Li4V3CrO8
_symmetry_space_group_name_H-M   'P 1'
_cell_length_a   5.18830000
_cell_length_b   6.00054696
_cell_length_c   10.35904586
_cell_angle_alpha   89.85321184
_cell_angle_beta   99.76347887
_cell_angle_gamma   106.90817166
_symmetry_Int_Tables_number   1
_chemical_formula_structural   Li4V3CrO8
_chemical_formula_sum   'Li8 V6 Cr2 O16'
_cell_volume   303.71993204
_cell_formula_units_Z   2
loop_
 _symmetry_equiv_pos_site_id
 _symmetry_equiv_pos_as_xyz
  1  'x, y, z'
loop_
 _atom_site_type_symbol
 _atom_site_label
 _atom_site_symmetry_multiplicity
 _atom_site_fract_x
 _atom_site_fract_y
 _atom_site_fract_z
 _atom_site_occupancy
  Li  Li0  1  0.49765400  0.24661000  0.25013800  1
  Li  Li1  1  0.49908600  0.24773100  0.75091300  1
  Li  Li2  1  0.50000000  0.00000000  0.00000000  1
  Li  Li3  1  0.50000000  0.00000000  0.50000000  1
  Li  Li4  1  0.50091400  0.75226900  0.24908700  1
  Li  Li5  1  0.50234600  0.75339000  0.74986200  1
  Li  Li6  1  0.50000000  0.50000000  0.00000000  1
  Li  Li7  1  0.50000000  0.50000000  0.50000000  1
  V  V0  1  0.99971800  0.12510700  0.37482300  1
  V  V1  1  0.00028200  0.87489300  0.62517700  1
  V  V2  1  0.00024600  0.62412700  0.87515300  1
  V  V3  1  0.99974700  0.62495500  0.37422600  1
  V  V4  1  0.99975400  0.37587300  0.12484700  1
  V  V5  1  0.00025300  0.37504500  0.62577400  1
  Cr  Cr0  1  0.00107100  0.12401200  0.87586900  1
  Cr  Cr1  1  0.99892900  0.87598800  0.12413100  1
  O  O0  1  0.77324100  0.06690800  0.18905600  1
  O  O1  1  0.77533100  0.06777900  0.69107900  1
  O  O2  1  0.22465700  0.18001700  0.06073700  1
  O  O3  1  0.22945300  0.18258900  0.56125300  1
  O  O4  1  0.77534300  0.81998300  0.93926300  1
  O  O5  1  0.22675900  0.93309200  0.81094400  1
  O  O6  1  0.77054700  0.81741100  0.43874700  1
  O  O7  1  0.22466900  0.93222100  0.30892100  1
  O  O8  1  0.77151500  0.57068800  0.18738000  1
  O  O9  1  0.22600700  0.68531600  0.06048400  1
  O  O10  1  0.77189300  0.56710200  0.68901600  1
  O  O11  1  0.23068900  0.68268900  0.56049600  1
  O  O12  1  0.77399300  0.31468400  0.93951600  1
  O  O13  1  0.22848500  0.42931200  0.81262000  1
  O  O14  1  0.76931100  0.31731100  0.43950400  1
  O  O15  1  0.22810700  0.43289800  0.31098400  1
loop_
_geom_bond_atom_site_label_1
_geom_bond_atom_site_label_2
_geom_bond_distance
_geom_bond_site_symmetry_2
Li0 O7 2.160585 1_545
Li0 O14 2.175615 1_555
Li0 O2 2.178901 1_555
Li0 O15 2.194197 1_555
Li0 O0 2.194245 1_555
Li0 O8 2.218729 1_555
Li1 O5 2.165160 1_545
Li1 O3 2.173367 1_555
Li1 O12 2.176799 1_555
Li1 O13 2.182812 1_555
Li1 O1 2.193012 1_555
Li1 O10 2.193356 1_555
Li2 O12 2.171087 1_554
Li2 O9 2.171087 1_545
Li2 O0 2.176633 1_555
Li2 O5 2.176633 1_544
Li2 O2 2.193039 1_555
Li2 O4 2.193039 1_544
Li3 O14 2.171128 1_555
Li3 O11 2.171128 1_545
Li3 O6 2.184848 1_545
Li3 O3 2.184848 1_555
Li3 O1 2.198001 1_555
Li3 O7 2.198001 1_545
Li4 O0 2.165160 1_565
Li4 O6 2.173367 1_555
Li4 O9 2.176799 1_555
Li4 O8 2.182812 1_555
Li4 O7 2.193012 1_555
Li4 O15 2.193356 1_555
Li5 O1 2.160585 1_565
Li5 O11 2.175615 1_555
Li5 O4 2.178901 1_555
Li5 O10 2.194197 1_555
Li5 O5 2.194245 1_555
Li5 O13 2.218729 1_555
Li6 O13 2.159024 1_554
Li6 O8 2.159024 1_555
Li6 O4 2.196926 1_554
Li6 O2 2.196926 1_555
Li6 O9 2.207961 1_555
Li6 O12 2.207961 1_554
Li7 O10 2.173200 1_555
Li7 O15 2.173200 1_555
Li7 O14 2.176761 1_555
Li7 O11 2.176761 1_555
Li7 O6 2.177466 1_555
Li7 O3 2.177466 1_555
Cr0 O4 2.035429 1_445
Cr0 O2 2.036941 1_556
Cr0 O1 2.040334 1_455
Cr0 O13 2.043592 1_555
Cr0 O12 2.045284 1_455
Cr0 O5 2.046272 1_545
Cr1 O2 2.035429 1_665
Cr1 O4 2.036941 1_554
Cr1 O7 2.040334 1_655
Cr1 O8 2.043592 1_555
Cr1 O9 2.045284 1_655
Cr1 O0 2.046272 1_565
O0 V0 2.050290 1_555
O0 V4 2.062076 1_555
O1 V1 2.056178 1_645
O1 V5 2.056390 1_655
O2 V4 2.061148 1_455
O3 V1 2.060348 1_545
O3 V0 2.062257 1_455
O3 V5 2.065627 1_555
O4 V2 2.061148 1_655
O5 V1 2.050290 1_555
O5 V2 2.062076 1_555
O6 V0 2.060348 1_565
O6 V1 2.062257 1_655
O6 V3 2.065627 1_555
O7 V0 2.056178 1_465
O7 V3 2.056390 1_455
O8 V3 2.063044 1_555
O8 V4 2.063419 1_555
O9 V2 2.045332 1_554
O9 V4 2.064354 1_455
O10 V5 2.054856 1_655
O10 V2 2.057055 1_655
O10 V1 2.058895 1_655
O11 V3 2.063199 1_455
O11 V5 2.068454 1_555
O11 V1 2.070200 1_555
O12 V4 2.045332 1_556
O12 V2 2.064354 1_655
O13 V5 2.063044 1_555
O13 V2 2.063419 1_555
O14 V5 2.063199 1_655
O14 V3 2.068454 1_555
O14 V0 2.070200 1_555
O15 V3 2.054856 1_455
O15 V4 2.057055 1_455
O15 V0 2.058895 1_455
