# generated using pymatgen
data_Dy
_symmetry_space_group_name_H-M   'P 1'
_cell_length_a   7.28124384
_cell_length_b   7.28124409
_cell_length_c   11.15287302
_cell_angle_alpha   90.00000000
_cell_angle_beta   90.00000000
_cell_angle_gamma   120.00001825
_symmetry_Int_Tables_number   1
_chemical_formula_structural   Dy
_chemical_formula_sum   Dy16
_cell_volume   512.06898784
_cell_formula_units_Z   16
loop_
 _symmetry_equiv_pos_site_id
 _symmetry_equiv_pos_as_xyz
  1  'x, y, z'
loop_
 _atom_site_type_symbol
 _atom_site_label
 _atom_site_symmetry_multiplicity
 _atom_site_fract_x
 _atom_site_fract_y
 _atom_site_fract_z
 _atom_site_occupancy
  Dy  Dy0_0  1  0.16666650  0.33333350  0.12500000  1
  Dy  Dy0_1  1  0.16666650  0.33333350  0.62500000  1
  Dy  Dy0_2  1  0.16666650  0.83333350  0.12500000  1
  Dy  Dy0_3  1  0.16666650  0.83333350  0.62500000  1
  Dy  Dy0_4  1  0.66666650  0.33333350  0.12500000  1
  Dy  Dy0_5  1  0.66666650  0.33333350  0.62500000  1
  Dy  Dy0_6  1  0.66666650  0.83333350  0.12500000  1
  Dy  Dy0_7  1  0.66666650  0.83333350  0.62500000  1
  Dy  Dy1_0  1  0.33333350  0.16666650  0.37500000  1
  Dy  Dy1_1  1  0.33333350  0.16666650  0.87500000  1
  Dy  Dy1_2  1  0.33333350  0.66666650  0.37500000  1
  Dy  Dy1_3  1  0.33333350  0.66666650  0.87500000  1
  Dy  Dy1_4  1  0.83333350  0.16666650  0.37500000  1
  Dy  Dy1_5  1  0.83333350  0.16666650  0.87500000  1
  Dy  Dy1_6  1  0.83333350  0.66666650  0.37500000  1
  Dy  Dy1_7  1  0.83333350  0.66666650  0.87500000  1
loop_
_geom_bond_atom_site_label_1
_geom_bond_atom_site_label_2
_geom_bond_distance
_geom_bond_site_symmetry_2
Dy0_0 Dy1_5 3.491732 1_454
Dy0_0 Dy1_4 3.491732 1_455
Dy0_0 Dy1_3 3.491732 1_554
Dy0_0 Dy1_2 3.491732 1_555
Dy0_0 Dy1_0 3.491736 1_555
Dy0_0 Dy1_1 3.491736 1_554
Dy0_0 Dy0_6 3.640621 1_445
Dy0_0 Dy0_6 3.640621 1_555
Dy0_0 Dy0_4 3.640622 1_555
Dy0_0 Dy0_4 3.640622 1_455
Dy0_0 Dy0_2 3.640622 1_555
Dy0_0 Dy0_2 3.640622 1_545
Dy0_1 Dy1_4 3.491732 1_455
Dy0_1 Dy1_5 3.491732 1_455
Dy0_1 Dy1_3 3.491732 1_555
Dy0_1 Dy1_2 3.491732 1_555
Dy0_1 Dy1_1 3.491736 1_555
Dy0_1 Dy1_0 3.491736 1_555
Dy0_1 Dy0_7 3.640621 1_445
Dy0_1 Dy0_7 3.640621 1_555
Dy0_1 Dy0_5 3.640622 1_555
Dy0_1 Dy0_5 3.640622 1_455
Dy0_1 Dy0_3 3.640622 1_555
Dy0_1 Dy0_3 3.640622 1_545
Dy0_2 Dy1_7 3.491732 1_454
Dy0_2 Dy1_6 3.491732 1_455
Dy0_2 Dy1_1 3.491732 1_564
Dy0_2 Dy1_0 3.491732 1_565
Dy0_2 Dy1_3 3.491736 1_554
Dy0_2 Dy1_2 3.491736 1_555
Dy0_2 Dy0_4 3.640621 1_455
Dy0_2 Dy0_4 3.640621 1_565
Dy0_2 Dy0_6 3.640622 1_555
Dy0_2 Dy0_6 3.640622 1_455
Dy0_3 Dy1_7 3.491732 1_455
Dy0_3 Dy1_6 3.491732 1_455
Dy0_3 Dy1_1 3.491732 1_565
Dy0_3 Dy1_0 3.491732 1_565
Dy0_3 Dy1_2 3.491736 1_555
Dy0_3 Dy1_3 3.491736 1_555
Dy0_3 Dy0_5 3.640621 1_455
Dy0_3 Dy0_5 3.640621 1_565
Dy0_3 Dy0_7 3.640622 1_555
Dy0_3 Dy0_7 3.640622 1_455
Dy0_4 Dy1_1 3.491732 1_554
Dy0_4 Dy1_0 3.491732 1_555
Dy0_4 Dy1_7 3.491732 1_554
Dy0_4 Dy1_6 3.491732 1_555
Dy0_4 Dy1_4 3.491736 1_555
Dy0_4 Dy1_5 3.491736 1_554
Dy0_4 Dy0_6 3.640622 1_545
Dy0_4 Dy0_6 3.640622 1_555
Dy0_5 Dy1_1 3.491732 1_555
Dy0_5 Dy1_0 3.491732 1_555
Dy0_5 Dy1_7 3.491732 1_555
Dy0_5 Dy1_6 3.491732 1_555
Dy0_5 Dy1_4 3.491736 1_555
Dy0_5 Dy1_5 3.491736 1_555
Dy0_5 Dy0_7 3.640622 1_545
Dy0_5 Dy0_7 3.640622 1_555
Dy0_6 Dy1_3 3.491732 1_554
Dy0_6 Dy1_2 3.491732 1_555
Dy0_6 Dy1_4 3.491732 1_565
Dy0_6 Dy1_5 3.491732 1_564
Dy0_6 Dy1_7 3.491736 1_554
Dy0_6 Dy1_6 3.491736 1_555
Dy0_7 Dy1_2 3.491732 1_555
Dy0_7 Dy1_3 3.491732 1_555
Dy0_7 Dy1_4 3.491732 1_565
Dy0_7 Dy1_5 3.491732 1_565
Dy0_7 Dy1_7 3.491736 1_555
Dy0_7 Dy1_6 3.491736 1_555
Dy1_0 Dy1_6 3.640621 1_445
Dy1_0 Dy1_6 3.640621 1_555
Dy1_0 Dy1_4 3.640622 1_555
Dy1_0 Dy1_4 3.640622 1_455
Dy1_0 Dy1_2 3.640622 1_545
Dy1_0 Dy1_2 3.640622 1_555
Dy1_1 Dy1_7 3.640621 1_445
Dy1_1 Dy1_7 3.640621 1_555
Dy1_1 Dy1_5 3.640622 1_555
Dy1_1 Dy1_5 3.640622 1_455
Dy1_1 Dy1_3 3.640622 1_545
Dy1_1 Dy1_3 3.640622 1_555
Dy1_2 Dy1_4 3.640621 1_565
Dy1_2 Dy1_4 3.640621 1_455
Dy1_2 Dy1_6 3.640622 1_455
Dy1_2 Dy1_6 3.640622 1_555
Dy1_3 Dy1_5 3.640621 1_565
Dy1_3 Dy1_5 3.640621 1_455
Dy1_3 Dy1_7 3.640622 1_455
Dy1_3 Dy1_7 3.640622 1_555
Dy1_4 Dy1_6 3.640622 1_555
Dy1_4 Dy1_6 3.640622 1_545
Dy1_5 Dy1_7 3.640622 1_555
Dy1_5 Dy1_7 3.640622 1_545
