# generated using pymatgen
data_K2Mg(CO3)2
_symmetry_space_group_name_H-M   'P 1'
_cell_length_a   6.43225800
_cell_length_b   6.43225800
_cell_length_c   6.43225774
_cell_angle_alpha   47.29312894
_cell_angle_beta   47.29312894
_cell_angle_gamma   47.29312529
_symmetry_Int_Tables_number   1
_chemical_formula_structural   K2Mg(CO3)2
_chemical_formula_sum   'K2 Mg1 C2 O6'
_cell_volume   131.44533435
_cell_formula_units_Z   1
loop_
 _symmetry_equiv_pos_site_id
 _symmetry_equiv_pos_as_xyz
  1  'x, y, z'
loop_
 _atom_site_type_symbol
 _atom_site_label
 _atom_site_symmetry_multiplicity
 _atom_site_fract_x
 _atom_site_fract_y
 _atom_site_fract_z
 _atom_site_occupancy
  K  K0  1  0.78951765  0.78951765  0.78951765  1
  K  K1  1  0.21048235  0.21048235  0.21048235  1
  Mg  Mg0  1  -0.00000000  0.00000000  0.00000000  1
  C  C0  1  0.59593238  0.59593238  0.59593238  1
  C  C1  1  0.40406762  0.40406762  0.40406762  1
  O  O0  1  0.26070569  0.69457929  0.26070569  1
  O  O1  1  0.26070569  0.26070569  0.69457929  1
  O  O2  1  0.69457929  0.26070569  0.26070569  1
  O  O3  1  0.30542071  0.73929431  0.73929431  1
  O  O4  1  0.73929431  0.73929431  0.30542071  1
  O  O5  1  0.73929431  0.30542071  0.73929431  1
loop_
_geom_bond_atom_site_label_1
_geom_bond_atom_site_label_2
_geom_bond_distance
_geom_bond_site_symmetry_2
K0 O1 2.729709 1_655
K0 O1 2.729709 1_565
K0 O0 2.729709 1_655
K0 O2 2.729709 1_565
K0 O2 2.729709 1_556
K0 O0 2.729709 1_556
K0 O4 2.907549 1_556
K0 O3 2.907549 1_655
K0 O5 2.907549 1_565
K1 O4 2.729709 1_455
K1 O4 2.729709 1_545
K1 O5 2.729709 1_455
K1 O3 2.729709 1_545
K1 O3 2.729709 1_554
K1 O5 2.729709 1_554
K1 O1 2.907549 1_554
K1 O0 2.907549 1_545
K1 O2 2.907549 1_455
Mg0 O3 2.088182 1_544
Mg0 O5 2.088182 1_454
Mg0 O2 2.088182 1_455
Mg0 O0 2.088182 1_545
Mg0 O1 2.088183 1_554
Mg0 O4 2.088183 1_445
C0 O3 1.292714 1_555
C0 O5 1.292714 1_555
C0 O4 1.292714 1_555
C1 O2 1.292714 1_555
C1 O0 1.292714 1_555
C1 O1 1.292714 1_555
