# generated using pymatgen
data_LiV2(PO4)3
_symmetry_space_group_name_H-M   'P 1'
_cell_length_a   8.57074400
_cell_length_b   8.53684500
_cell_length_c   14.81507883
_cell_angle_alpha   54.96063502
_cell_angle_beta   90.00000000
_cell_angle_gamma   90.00000000
_symmetry_Int_Tables_number   1
_chemical_formula_structural   LiV2(PO4)3
_chemical_formula_sum   'Li4 V8 P12 O48'
_cell_volume   887.51422793
_cell_formula_units_Z   4
loop_
 _symmetry_equiv_pos_site_id
 _symmetry_equiv_pos_as_xyz
  1  'x, y, z'
loop_
 _atom_site_type_symbol
 _atom_site_label
 _atom_site_symmetry_multiplicity
 _atom_site_fract_x
 _atom_site_fract_y
 _atom_site_fract_z
 _atom_site_occupancy
  Li  Li0  1  0.08865300  0.22796500  0.70309100  1
  Li  Li1  1  0.58865300  0.77203500  0.79690900  1
  Li  Li2  1  0.41134700  0.22796500  0.20309100  1
  Li  Li3  1  0.91134700  0.77203500  0.29690900  1
  V  V0  1  0.03242400  0.85708100  0.88884400  1
  V  V1  1  0.53242400  0.14291900  0.61115600  1
  V  V2  1  0.96879900  0.35900200  0.38342800  1
  V  V3  1  0.46879900  0.64099800  0.11657200  1
  V  V4  1  0.53120100  0.35900200  0.88342800  1
  V  V5  1  0.03120100  0.64099800  0.61657200  1
  V  V6  1  0.46757600  0.85708100  0.38884400  1
  V  V7  1  0.96757600  0.14291900  0.11115600  1
  P  P0  1  0.24755100  0.47139000  0.49460400  1
  P  P1  1  0.39095000  0.03569300  0.85383900  1
  P  P2  1  0.10901100  0.74823900  0.14452900  1
  P  P3  1  0.89095000  0.96430700  0.64616100  1
  P  P4  1  0.60901100  0.25176100  0.35547100  1
  P  P5  1  0.74755100  0.52861000  0.00539600  1
  P  P6  1  0.25244900  0.47139000  0.99460400  1
  P  P7  1  0.39098900  0.74823900  0.64452900  1
  P  P8  1  0.10905000  0.03569300  0.35383900  1
  P  P9  1  0.89098900  0.25176100  0.85547100  1
  P  P10  1  0.60905000  0.96430700  0.14616100  1
  P  P11  1  0.75244900  0.52861000  0.50539600  1
  O  O0  1  0.86689500  0.51412500  0.42982100  1
  O  O1  1  0.89694400  0.05704100  0.86910400  1
  O  O2  1  0.67571200  0.33362100  0.59177200  1
  O  O3  1  0.57763200  0.76566800  0.17049100  1
  O  O4  1  0.36270700  0.31505900  0.57577200  1
  O  O5  1  0.43036500  0.87316300  0.97236500  1
  O  O6  1  0.21351500  0.03576300  0.83065200  1
  O  O7  1  0.99814400  0.61481900  0.24158000  1
  O  O8  1  0.27721100  0.66791000  0.17192900  1
  O  O9  1  0.16000400  0.40164800  0.43298700  1
  O  O10  1  0.05453700  0.76819400  0.04020500  1
  O  O11  1  0.49270300  0.01265900  0.77516500  1
  O  O12  1  0.99270300  0.98734100  0.72483500  1
  O  O13  1  0.55453700  0.23180600  0.45979500  1
  O  O14  1  0.66000400  0.59835200  0.06701300  1
  O  O15  1  0.77721100  0.33209000  0.32807100  1
  O  O16  1  0.71351500  0.96423700  0.66934800  1
  O  O17  1  0.93036500  0.12683700  0.52763500  1
  O  O18  1  0.49814400  0.38518100  0.25842000  1
  O  O19  1  0.86270700  0.68494100  0.92422800  1
  O  O20  1  0.17571200  0.66637900  0.90822800  1
  O  O21  1  0.39694400  0.94295900  0.63089600  1
  O  O22  1  0.07763200  0.23433200  0.32950900  1
  O  O23  1  0.36689500  0.48587500  0.07017900  1
  O  O24  1  0.63310500  0.51412500  0.92982100  1
  O  O25  1  0.92236800  0.76566800  0.67049100  1
  O  O26  1  0.60305600  0.05704100  0.36910400  1
  O  O27  1  0.82428800  0.33362100  0.09177200  1
  O  O28  1  0.13729300  0.31505900  0.07577200  1
  O  O29  1  0.50185600  0.61481900  0.74158000  1
  O  O30  1  0.06963500  0.87316300  0.47236500  1
  O  O31  1  0.28648500  0.03576300  0.33065200  1
  O  O32  1  0.22278900  0.66791000  0.67192900  1
  O  O33  1  0.33999600  0.40164800  0.93298700  1
  O  O34  1  0.44546300  0.76819400  0.54020500  1
  O  O35  1  0.00729700  0.01265900  0.27516500  1
  O  O36  1  0.50729700  0.98734100  0.22483500  1
  O  O37  1  0.94546300  0.23180600  0.95979500  1
  O  O38  1  0.83999600  0.59835200  0.56701300  1
  O  O39  1  0.72278900  0.33209000  0.82807100  1
  O  O40  1  0.00185600  0.38518100  0.75842000  1
  O  O41  1  0.78648500  0.96423700  0.16934800  1
  O  O42  1  0.56963500  0.12683700  0.02763500  1
  O  O43  1  0.63729300  0.68494100  0.42422800  1
  O  O44  1  0.42236800  0.23433200  0.82950900  1
  O  O45  1  0.32428800  0.66637900  0.40822800  1
  O  O46  1  0.10305600  0.94295900  0.13089600  1
  O  O47  1  0.13310500  0.48587500  0.57017900  1
loop_
_geom_bond_atom_site_label_1
_geom_bond_atom_site_label_2
_geom_bond_distance
_geom_bond_site_symmetry_2
Li0 O6 1.961708 1_555
Li0 O47 1.972781 1_555
Li0 O12 2.059082 1_445
Li0 O40 2.071209 1_555
Li1 O16 1.961708 1_555
Li1 O24 1.972781 1_555
Li1 O11 2.059082 1_565
Li1 O29 2.071209 1_555
Li2 O31 1.961708 1_555
Li2 O23 1.972781 1_555
Li2 O36 2.059082 1_545
Li2 O18 2.071209 1_555
Li3 O41 1.961708 1_555
Li3 O0 1.972781 1_555
Li3 O35 2.059082 1_665
Li3 O7 2.071209 1_555
O0 P11 1.545971 1_555
O0 V2 2.008490 1_555
O1 P9 1.555988 1_555
O1 V0 1.942815 1_645
O2 P11 1.547578 1_555
O2 V1 1.924625 1_555
O3 P10 1.541472 1_555
O3 V3 1.901873 1_555
O4 P0 1.535719 1_555
O4 V1 1.914579 1_555
O5 P1 1.524805 1_565
O5 V3 1.933609 1_556
O6 P1 1.558990 1_555
O6 V0 1.992222 1_545
O7 P2 1.545002 1_655
O7 V2 1.994722 1_555
O8 P2 1.547128 1_555
O8 V3 1.907371 1_555
O9 P0 1.541067 1_555
O9 V2 1.914190 1_455
O10 P2 1.527563 1_555
O10 V0 1.919973 1_554
O11 P1 1.555935 1_555
O11 V1 2.038090 1_555
O12 P3 1.555935 1_555
O12 V0 2.038090 1_655
O13 P4 1.527563 1_555
O13 V1 1.919973 1_555
O14 P5 1.541067 1_555
O14 V3 1.914190 1_555
O15 P4 1.547128 1_555
O15 V2 1.907371 1_555
O16 P3 1.558990 1_555
O16 V1 1.992222 1_565
O17 P3 1.524805 1_545
O17 V2 1.933609 1_555
O18 P4 1.545002 1_555
O18 V3 1.994722 1_555
O19 P5 1.535719 1_556
O19 V0 1.914579 1_655
O20 P6 1.547578 1_555
O20 V0 1.924625 1_555
O21 P7 1.555988 1_555
O21 V1 1.942815 1_565
O22 P8 1.541472 1_555
O22 V2 1.901873 1_455
O23 P6 1.545971 1_554
O23 V3 2.008490 1_555
O24 P5 1.545971 1_556
O24 V4 2.008490 1_555
O25 P3 1.541472 1_555
O25 V5 1.901873 1_655
O26 P4 1.555988 1_555
O26 V6 1.942815 1_545
O27 P5 1.547578 1_555
O27 V7 1.924625 1_555
O28 P6 1.535719 1_554
O28 V7 1.914579 1_455
O29 P7 1.545002 1_555
O29 V4 1.994722 1_555
O30 P8 1.524805 1_565
O30 V5 1.933609 1_555
O31 P8 1.558990 1_555
O31 V6 1.992222 1_545
O32 P7 1.547128 1_555
O32 V5 1.907371 1_555
O33 P6 1.541067 1_555
O33 V4 1.914190 1_555
O34 P7 1.527563 1_555
O34 V6 1.919973 1_555
O35 P8 1.555935 1_555
O35 V7 2.038090 1_455
O36 P10 1.555935 1_555
O36 V6 2.038090 1_555
O37 P9 1.527563 1_555
O37 V7 1.919973 1_556
O38 P11 1.541067 1_555
O38 V5 1.914190 1_655
O39 P9 1.547128 1_555
O39 V4 1.907371 1_555
O40 P9 1.545002 1_455
O40 V5 1.994722 1_555
O41 P10 1.558990 1_555
O41 V7 1.992222 1_565
O42 P10 1.524805 1_545
O42 V4 1.933609 1_554
O43 P11 1.535719 1_555
O43 V6 1.914579 1_555
O44 P1 1.541472 1_555
O44 V4 1.901873 1_555
O45 P0 1.547578 1_555
O45 V6 1.924625 1_555
O46 P2 1.555988 1_555
O46 V7 1.942815 1_465
O47 P0 1.545971 1_555
O47 V5 2.008490 1_555
