# generated using pymatgen
data_NaNb6O15F
_symmetry_space_group_name_H-M   'P 1'
_cell_length_a   9.14351117
_cell_length_b   9.14351117
_cell_length_c   3.95245100
_cell_angle_alpha   90.00000000
_cell_angle_beta   90.00000000
_cell_angle_gamma   109.84196557
_symmetry_Int_Tables_number   1
_chemical_formula_structural   NaNb6O15F
_chemical_formula_sum   'Na1 Nb6 O15 F1'
_cell_volume   310.82248908
_cell_formula_units_Z   1
loop_
 _symmetry_equiv_pos_site_id
 _symmetry_equiv_pos_as_xyz
  1  'x, y, z'
loop_
 _atom_site_type_symbol
 _atom_site_label
 _atom_site_symmetry_multiplicity
 _atom_site_fract_x
 _atom_site_fract_y
 _atom_site_fract_z
 _atom_site_occupancy
  Na  Na0  1  0.59566900  0.40433100  0.50000000  1
  Nb  Nb0  1  0.00545900  0.62769200  0.00000000  1
  Nb  Nb1  1  0.62247900  0.73672900  0.00000000  1
  Nb  Nb2  1  0.26327100  0.37752100  0.00000000  1
  Nb  Nb3  1  0.78235900  0.21764100  0.00000000  1
  Nb  Nb4  1  0.00080900  0.99919100  0.00000000  1
  Nb  Nb5  1  0.37230800  0.99454100  0.00000000  1
  O  O0  1  0.36084100  0.99058200  0.50000000  1
  O  O1  1  0.48676900  0.51323100  0.00000000  1
  O  O2  1  0.13691300  0.86308700  0.00000000  1
  O  O3  1  0.46825900  0.83416100  0.00000000  1
  O  O4  1  0.16583900  0.53174100  0.00000000  1
  O  O5  1  0.23110500  0.14313100  0.00000000  1
  O  O6  1  0.85686900  0.76889500  0.00000000  1
  O  O7  1  0.77774000  0.22226000  0.50000000  1
  O  O8  1  0.28386200  0.36419600  0.50000000  1
  O  O9  1  0.63580400  0.71613800  0.50000000  1
  O  O10  1  0.00941800  0.63915900  0.50000000  1
  O  O11  1  0.81981900  0.44604500  0.00000000  1
  O  O12  1  0.00992900  0.22756100  0.00000000  1
  O  O13  1  0.77243900  0.99007100  0.00000000  1
  O  O14  1  0.55395500  0.18018100  0.00000000  1
  F  F0  1  0.00008700  0.99991300  0.50000000  1
loop_
_geom_bond_atom_site_label_1
_geom_bond_atom_site_label_2
_geom_bond_distance
_geom_bond_site_symmetry_2
Na0 O1 2.561539 1_555
Na0 O1 2.561539 1_556
Na0 O7 2.724760 1_555
Na0 O8 2.748214 1_555
Na0 O9 2.748214 1_555
Na0 O11 2.778633 1_556
Na0 O11 2.778633 1_555
Na0 O14 2.778633 1_555
Na0 O14 2.778633 1_556
Nb0 O11 1.930261 1_455
Nb0 O4 1.947696 1_555
Nb0 O10 1.978685 1_555
Nb0 O10 1.978685 1_554
Nb0 O2 2.078712 1_555
Nb0 O6 2.168777 1_455
Nb1 O3 1.906531 1_555
Nb1 O9 1.992820 1_554
Nb1 O9 1.992820 1_555
Nb1 O1 1.998611 1_555
Nb1 O6 2.061962 1_555
Nb1 O13 2.256053 1_555
Nb2 O4 1.906531 1_555
Nb2 O8 1.992820 1_555
Nb2 O8 1.992820 1_554
Nb2 O1 1.998611 1_555
Nb2 O5 2.061962 1_555
Nb2 O12 2.256053 1_555
Nb3 O7 1.977434 1_555
Nb3 O7 1.977434 1_554
Nb3 O11 1.998299 1_555
Nb3 O14 1.998299 1_555
Nb3 O13 2.051776 1_545
Nb3 O12 2.051776 1_655
Nb4 O2 2.036847 1_555
Nb4 O13 2.061292 1_455
Nb4 O12 2.061292 1_565
Nb4 O5 2.069986 1_565
Nb4 O6 2.069986 1_455
Nb5 O14 1.930261 1_565
Nb5 O3 1.947696 1_555
Nb5 O0 1.978685 1_554
Nb5 O0 1.978685 1_555
Nb5 O2 2.078712 1_555
Nb5 O5 2.168777 1_565
F0 Nb4 1.976255 1_556
F0 Nb4 1.976255 1_555
