# generated using pymatgen
data_Li4V3FeO8
_symmetry_space_group_name_H-M   'P 1'
_cell_length_a   5.98387800
_cell_length_b   5.98471417
_cell_length_c   5.99649469
_cell_angle_alpha   119.81698751
_cell_angle_beta   90.22107178
_cell_angle_gamma   119.84120295
_symmetry_Int_Tables_number   1
_chemical_formula_structural   Li4V3FeO8
_chemical_formula_sum   'Li4 V3 Fe1 O8'
_cell_volume   152.33800847
_cell_formula_units_Z   1
loop_
 _symmetry_equiv_pos_site_id
 _symmetry_equiv_pos_as_xyz
  1  'x, y, z'
loop_
 _atom_site_type_symbol
 _atom_site_label
 _atom_site_symmetry_multiplicity
 _atom_site_fract_x
 _atom_site_fract_y
 _atom_site_fract_z
 _atom_site_occupancy
  Li  Li0  1  0.00223000  0.99400600  0.50140000  1
  Li  Li1  1  0.49920700  0.49891600  0.50031900  1
  Li  Li2  1  0.99530200  0.49280300  0.50084800  1
  Li  Li3  1  0.50127800  0.99722800  0.49988800  1
  V  V0  1  0.50004400  0.49802200  0.00046000  1
  V  V1  1  0.49986300  0.99796100  0.00030900  1
  V  V2  1  0.00031300  0.49817900  0.99996500  1
  Fe  Fe0  1  0.99846900  0.99687500  0.00078800  1
  O  O0  1  0.20823000  0.97114000  0.77195600  1
  O  O1  1  0.28981900  0.03051700  0.22588700  1
  O  O2  1  0.71333800  0.46262500  0.77057500  1
  O  O3  1  0.22174600  0.47547200  0.77150700  1
  O  O4  1  0.77764000  0.51999300  0.22902000  1
  O  O5  1  0.28630300  0.53382400  0.22997800  1
  O  O6  1  0.70944600  0.96497900  0.77504300  1
  O  O7  1  0.79207400  0.02501300  0.22850400  1
loop_
_geom_bond_atom_site_label_1
_geom_bond_atom_site_label_2
_geom_bond_distance
_geom_bond_site_symmetry_2
Li0 O4 2.025483 1_455
Li0 O3 2.056004 1_565
Li0 O0 2.131572 1_555
Li0 O7 2.193644 1_465
Li0 O1 2.396962 1_565
Li0 O6 2.407269 1_455
Li1 O6 1.999704 1_555
Li1 O1 2.009282 1_555
Li1 O5 2.209161 1_555
Li1 O2 2.219517 1_555
Li1 O3 2.331655 1_555
Li1 O4 2.335441 1_555
Li2 O7 2.008328 1_555
Li2 O0 2.046302 1_655
Li2 O3 2.184324 1_655
Li2 O4 2.199580 1_555
Li2 O2 2.346001 1_555
Li2 O5 2.392413 1_655
Li3 O5 1.983796 1_555
Li3 O2 1.993346 1_565
Li3 O6 2.202581 1_555
Li3 O1 2.213762 1_565
Li3 O7 2.388897 1_565
Li3 O0 2.400817 1_555
Fe0 O7 1.846508 1_565
Fe0 O0 1.864839 1_654
Fe0 O6 2.063102 1_554
Fe0 O1 2.064998 1_665
Fe0 O2 2.281034 1_554
Fe0 O5 2.294212 1_665
O0 V1 2.104844 1_556
O0 V0 2.252714 1_566
O1 V1 1.855310 1_545
O1 V2 2.276716 1_544
O2 V0 1.888493 1_556
O2 V2 2.052632 1_655
O3 V2 1.912849 1_555
O3 V0 2.061741 1_556
O3 V1 2.228642 1_556
O4 V2 1.920405 1_654
O4 V0 2.059326 1_555
O4 V1 2.226611 1_545
O5 V0 1.889183 1_555
O5 V2 2.049978 1_554
O6 V1 1.852223 1_556
O6 V2 2.281605 1_665
O7 V1 2.106084 1_545
O7 V0 2.253529 1_545
