# generated using pymatgen
data_KLiS
_symmetry_space_group_name_H-M   'P 1'
_cell_length_a   4.31172379
_cell_length_b   4.31172379
_cell_length_c   6.94187150
_cell_angle_alpha   90.00000000
_cell_angle_beta   90.00000000
_cell_angle_gamma   90.00000000
_symmetry_Int_Tables_number   1
_chemical_formula_structural   KLiS
_chemical_formula_sum   'K2 Li2 S2'
_cell_volume   129.05606955
_cell_formula_units_Z   2
loop_
 _symmetry_equiv_pos_site_id
 _symmetry_equiv_pos_as_xyz
  1  'x, y, z'
loop_
 _atom_site_type_symbol
 _atom_site_label
 _atom_site_symmetry_multiplicity
 _atom_site_fract_x
 _atom_site_fract_y
 _atom_site_fract_z
 _atom_site_occupancy
  K  K0  1  0.25000000  0.25000000  0.66023995  1
  K  K1  1  0.75000000  0.75000000  0.33976005  1
  Li  Li0  1  0.25000000  0.75000000  -0.00000000  1
  Li  Li1  1  0.75000000  0.25000000  -0.00000000  1
  S  S0  1  0.25000000  0.25000000  0.18727250  1
  S  S1  1  0.75000000  0.75000000  0.81272750  1
loop_
_geom_bond_atom_site_label_1
_geom_bond_atom_site_label_2
_geom_bond_distance
_geom_bond_site_symmetry_2
K0 S1 3.227384 1_555
K0 S1 3.227384 1_455
K0 S1 3.227384 1_445
K0 S1 3.227384 1_545
K0 S0 3.283279 1_555
K1 S0 3.227384 1_555
K1 S0 3.227384 1_565
K1 S0 3.227384 1_655
K1 S0 3.227384 1_665
K1 S1 3.283279 1_555
Li0 S1 2.517498 1_454
Li0 S1 2.517498 1_554
Li0 S0 2.517498 1_565
Li0 S0 2.517498 1_555
Li1 S1 2.517498 1_554
Li1 S1 2.517498 1_544
Li1 S0 2.517498 1_555
Li1 S0 2.517498 1_655
