# generated using pymatgen
data_Sr(CdP)2
_symmetry_space_group_name_H-M   'P 1'
_cell_length_a   4.35952244
_cell_length_b   4.35952200
_cell_length_c   7.31153407
_cell_angle_alpha   90.00000000
_cell_angle_beta   90.00000000
_cell_angle_gamma   119.99999545
_symmetry_Int_Tables_number   1
_chemical_formula_structural   Sr(CdP)2
_chemical_formula_sum   'Sr1 Cd2 P2'
_cell_volume   120.34192409
_cell_formula_units_Z   1
loop_
 _symmetry_equiv_pos_site_id
 _symmetry_equiv_pos_as_xyz
  1  'x, y, z'
loop_
 _atom_site_type_symbol
 _atom_site_label
 _atom_site_symmetry_multiplicity
 _atom_site_fract_x
 _atom_site_fract_y
 _atom_site_fract_z
 _atom_site_occupancy
  Sr  Sr0  1  -0.00000000  0.00000000  -0.00000000  1
  Cd  Cd0  1  0.33333300  0.66666700  0.63487128  1
  Cd  Cd1  1  0.66666700  0.33333300  0.36512872  1
  P  P0  1  0.66666700  0.33333300  0.74567479  1
  P  P1  1  0.33333300  0.66666700  0.25432521  1
loop_
_geom_bond_atom_site_label_1
_geom_bond_atom_site_label_2
_geom_bond_distance
_geom_bond_site_symmetry_2
Cd0 P0 2.644138 1_565
Cd0 P0 2.644138 1_455
Cd0 P0 2.644145 1_555
Cd0 P1 2.782376 1_555
Cd1 P1 2.644138 1_545
Cd1 P1 2.644138 1_655
Cd1 P1 2.644145 1_555
Cd1 P0 2.782376 1_555
P0 Sr0 3.129361 1_656
P0 Sr0 3.129364 1_666
P0 Sr0 3.129364 1_556
P1 Sr0 3.129361 1_565
P1 Sr0 3.129364 1_555
P1 Sr0 3.129364 1_665
