# generated using pymatgen
data_Al11AgO17
_symmetry_space_group_name_H-M   'P 1'
_cell_length_a   5.65470995
_cell_length_b   5.65470995
_cell_length_c   22.75298600
_cell_angle_alpha   90.00000000
_cell_angle_beta   90.00000000
_cell_angle_gamma   119.97133267
_symmetry_Int_Tables_number   1
_chemical_formula_structural   Al11AgO17
_chemical_formula_sum   'Al22 Ag2 O34'
_cell_volume   630.25323171
_cell_formula_units_Z   2
loop_
 _symmetry_equiv_pos_site_id
 _symmetry_equiv_pos_as_xyz
  1  'x, y, z'
loop_
 _atom_site_type_symbol
 _atom_site_label
 _atom_site_symmetry_multiplicity
 _atom_site_fract_x
 _atom_site_fract_y
 _atom_site_fract_z
 _atom_site_occupancy
  Al  Al0  1  0.33467600  0.16699200  0.89247300  1
  Al  Al1  1  0.33467600  0.16699200  0.60752700  1
  Al  Al2  1  0.66836000  0.33415100  0.32419300  1
  Al  Al3  1  0.66671500  0.33346100  0.47512900  1
  Al  Al4  1  0.00032700  0.00032700  0.50000000  1
  Al  Al5  1  0.00032700  0.00032700  0.00000000  1
  Al  Al6  1  0.83223000  0.16694900  0.89247700  1
  Al  Al7  1  0.66836000  0.33415100  0.17580700  1
  Al  Al8  1  0.83223000  0.16694900  0.60752300  1
  Al  Al9  1  0.66671500  0.33346100  0.02487100  1
  Al  Al10  1  0.83287000  0.66587200  0.89311800  1
  Al  Al11  1  0.83287000  0.66587200  0.60688200  1
  Al  Al12  1  0.16699200  0.33467600  0.10752700  1
  Al  Al13  1  0.16699200  0.33467600  0.39247300  1
  Al  Al14  1  0.16694900  0.83223000  0.10752300  1
  Al  Al15  1  0.33415100  0.66836000  0.67580700  1
  Al  Al16  1  0.16694900  0.83223000  0.39247700  1
  Al  Al17  1  0.33415100  0.66836000  0.82419300  1
  Al  Al18  1  0.33346100  0.66671500  0.52487100  1
  Al  Al19  1  0.33346100  0.66671500  0.97512900  1
  Al  Al20  1  0.66587200  0.83287000  0.39311800  1
  Al  Al21  1  0.66587200  0.83287000  0.10688200  1
  Ag  Ag0  1  0.70478000  0.40957000  0.75000000  1
  Ag  Ag1  1  0.40957000  0.70478000  0.25000000  1
  O  O0  1  0.31468500  0.15740200  0.44990000  1
  O  O1  1  0.31468500  0.15740200  0.05010000  1
  O  O2  1  0.50289000  0.00578400  0.85430100  1
  O  O3  1  0.50289000  0.00578400  0.64569900  1
  O  O4  1  0.66258000  0.33128100  0.25000000  1
  O  O5  1  0.84255800  0.15693800  0.04988100  1
  O  O6  1  0.50423500  0.49728800  0.85360400  1
  O  O7  1  0.50423500  0.49728800  0.64639600  1
  O  O8  1  0.99962200  0.99985100  0.35815400  1
  O  O9  1  0.99962200  0.99985100  0.14184600  1
  O  O10  1  0.99985100  0.99962200  0.85815400  1
  O  O11  1  0.99985100  0.99962200  0.64184600  1
  O  O12  1  0.66686300  0.33372400  0.94449300  1
  O  O13  1  0.66686300  0.33372400  0.55550700  1
  O  O14  1  0.84255800  0.15693800  0.45011900  1
  O  O15  1  0.15740200  0.31468500  0.94990000  1
  O  O16  1  0.15740200  0.31468500  0.55010000  1
  O  O17  1  0.99305300  0.49729300  0.64639000  1
  O  O18  1  0.99305300  0.49729300  0.85361000  1
  O  O19  1  0.00578400  0.50289000  0.14569900  1
  O  O20  1  0.00578400  0.50289000  0.35430100  1
  O  O21  1  0.84255600  0.68568900  0.45007800  1
  O  O22  1  0.84255600  0.68568900  0.04992200  1
  O  O23  1  0.33372400  0.66686300  0.05550700  1
  O  O24  1  0.33128100  0.66258000  0.75000000  1
  O  O25  1  0.49728800  0.50423500  0.14639600  1
  O  O26  1  0.49728800  0.50423500  0.35360400  1
  O  O27  1  0.15693800  0.84255800  0.54988100  1
  O  O28  1  0.15693800  0.84255800  0.95011900  1
  O  O29  1  0.33372400  0.66686300  0.44449300  1
  O  O30  1  0.49729300  0.99305300  0.35361000  1
  O  O31  1  0.49729300  0.99305300  0.14639000  1
  O  O32  1  0.68568900  0.84255600  0.54992200  1
  O  O33  1  0.68568900  0.84255600  0.95007800  1
loop_
_geom_bond_atom_site_label_1
_geom_bond_atom_site_label_2
_geom_bond_distance
_geom_bond_site_symmetry_2
Al0 O10 1.816547 1_445
Al0 O2 1.832064 1_555
Al0 O6 1.844077 1_555
Al0 O12 2.012171 1_555
Al0 O15 2.060614 1_555
Al0 O28 2.062500 1_545
Al1 O11 1.816547 1_445
Al1 O3 1.832064 1_555
Al1 O7 1.844077 1_555
Al1 O13 2.012171 1_555
Al1 O16 2.060614 1_555
Al1 O27 2.062500 1_545
Al2 O4 1.688350 1_555
Al2 O20 1.789222 1_655
Al2 O26 1.799498 1_555
Al2 O30 1.799959 1_545
Al3 O14 1.816752 1_555
Al3 O21 1.817112 1_555
Al3 O0 1.817466 1_555
Al3 O13 1.828840 1_555
Al4 O27 1.912500 1_545
Al4 O14 1.912500 1_455
Al4 O21 1.914608 1_445
Al4 O32 1.914608 1_445
Al4 O0 1.915908 1_555
Al4 O16 1.915908 1_555
Al5 O28 1.912500 1_544
Al5 O5 1.912500 1_455
Al5 O22 1.914608 1_445
Al5 O33 1.914608 1_444
Al5 O1 1.915908 1_555
Al5 O15 1.915908 1_554
Al6 O10 1.816488 1_545
Al6 O2 1.832360 1_555
Al6 O18 1.844235 1_555
Al6 O12 2.011368 1_555
Al6 O33 2.061659 1_545
Al6 O15 2.061844 1_655
Al7 O4 1.688350 1_555
Al7 O19 1.789222 1_655
Al7 O25 1.799498 1_555
Al7 O31 1.799959 1_545
Al8 O11 1.816488 1_545
Al8 O3 1.832360 1_555
Al8 O17 1.844235 1_555
Al8 O13 2.011368 1_555
Al8 O32 2.061659 1_545
Al8 O16 2.061844 1_655
Al9 O5 1.816752 1_555
Al9 O22 1.817112 1_555
Al9 O1 1.817466 1_555
Al9 O12 1.828840 1_554
Al10 O10 1.818167 1_555
Al10 O18 1.843893 1_555
Al10 O6 1.844041 1_555
Al10 O12 2.003413 1_555
Al10 O33 2.049706 1_555
Al10 O28 2.051605 1_655
Al11 O11 1.818167 1_555
Al11 O17 1.843893 1_555
Al11 O7 1.844041 1_555
Al11 O13 2.003413 1_555
Al11 O32 2.049706 1_555
Al11 O27 2.051605 1_655
Al12 O9 1.816547 1_445
Al12 O19 1.832064 1_555
Al12 O25 1.844077 1_555
Al12 O23 2.012171 1_555
Al12 O1 2.060614 1_555
Al12 O5 2.062500 1_455
Al13 O8 1.816547 1_445
Al13 O20 1.832064 1_555
Al13 O26 1.844077 1_555
Al13 O29 2.012171 1_555
Al13 O0 2.060614 1_555
Al13 O14 2.062500 1_455
Al14 O9 1.816488 1_455
Al14 O19 1.832360 1_555
Al14 O31 1.844235 1_555
Al14 O23 2.011368 1_555
Al14 O22 2.061659 1_455
Al14 O1 2.061844 1_565
Al15 O24 1.688350 1_555
Al15 O3 1.789222 1_565
Al15 O7 1.799498 1_555
Al15 O17 1.799959 1_455
Al16 O8 1.816488 1_455
Al16 O20 1.832360 1_555
Al16 O30 1.844235 1_555
Al16 O29 2.011368 1_555
Al16 O21 2.061659 1_455
Al16 O0 2.061844 1_565
Al17 O24 1.688350 1_555
Al17 O2 1.789222 1_565
Al17 O6 1.799498 1_555
Al17 O18 1.799959 1_455
Al18 O27 1.816752 1_555
Al18 O32 1.817112 1_555
Al18 O16 1.817466 1_555
Al18 O29 1.828840 1_555
Al19 O28 1.816752 1_555
Al19 O33 1.817112 1_555
Al19 O15 1.817466 1_555
Al19 O23 1.828840 1_556
Al20 O8 1.818167 1_555
Al20 O30 1.843893 1_555
Al20 O26 1.844041 1_555
Al20 O29 2.003413 1_555
Al20 O21 2.049706 1_555
Al20 O14 2.051605 1_565
Al21 O9 1.818167 1_555
Al21 O31 1.843893 1_555
Al21 O25 1.844041 1_555
Al21 O23 2.003413 1_555
Al21 O22 2.049706 1_555
Al21 O5 2.051605 1_565
Ag0 O6 2.766030 1_555
Ag0 O7 2.766030 1_555
Ag0 O18 2.766386 1_555
Ag0 O17 2.766386 1_555
Ag1 O26 2.766030 1_555
Ag1 O25 2.766030 1_555
Ag1 O30 2.766386 1_555
Ag1 O31 2.766386 1_555
