# generated using pymatgen
data_Li2TlPd
_symmetry_space_group_name_H-M   'P 1'
_cell_length_a   4.43440783
_cell_length_b   4.43440783
_cell_length_c   4.43440783
_cell_angle_alpha   60.00000000
_cell_angle_beta   60.00000000
_cell_angle_gamma   60.00000000
_symmetry_Int_Tables_number   1
_chemical_formula_structural   Li2TlPd
_chemical_formula_sum   'Li2 Tl1 Pd1'
_cell_volume   61.65835028
_cell_formula_units_Z   1
loop_
 _symmetry_equiv_pos_site_id
 _symmetry_equiv_pos_as_xyz
  1  'x, y, z'
loop_
 _atom_site_type_symbol
 _atom_site_label
 _atom_site_symmetry_multiplicity
 _atom_site_fract_x
 _atom_site_fract_y
 _atom_site_fract_z
 _atom_site_occupancy
  Li  Li0  1  -0.00000000  -0.00000000  0.00000000  1
  Li  Li1  1  0.49999900  0.49999900  0.49999900  1
  Tl  Tl0  1  0.74999900  0.74999900  0.74999900  1
  Pd  Pd0  1  0.25000000  0.25000000  0.25000000  1
loop_
_geom_bond_atom_site_label_1
_geom_bond_atom_site_label_2
_geom_bond_distance
_geom_bond_site_symmetry_2
Li0 Tl0 2.715506 1_544
Li0 Tl0 2.715506 1_454
Li0 Tl0 2.715506 1_445
Li0 Pd0 2.715509 1_554
Li0 Pd0 2.715509 1_455
Li0 Pd0 2.715509 1_555
Li0 Pd0 2.715509 1_545
Li0 Tl0 2.715520 1_444
Li1 Pd0 2.715498 1_555
Li1 Tl0 2.715509 1_555
Li1 Tl0 2.715509 1_455
Li1 Tl0 2.715509 1_545
Li1 Tl0 2.715509 1_554
Li1 Pd0 2.715513 1_556
Li1 Pd0 2.715513 1_565
Li1 Pd0 2.715513 1_655
