# generated using pymatgen
data_LiMgTl2
_symmetry_space_group_name_H-M   'P 1'
_cell_length_a   5.04571890
_cell_length_b   5.04571890
_cell_length_c   5.04571890
_cell_angle_alpha   60.00000000
_cell_angle_beta   60.00000000
_cell_angle_gamma   60.00000000
_symmetry_Int_Tables_number   1
_chemical_formula_structural   LiMgTl2
_chemical_formula_sum   'Li1 Mg1 Tl2'
_cell_volume   90.83519613
_cell_formula_units_Z   1
loop_
 _symmetry_equiv_pos_site_id
 _symmetry_equiv_pos_as_xyz
  1  'x, y, z'
loop_
 _atom_site_type_symbol
 _atom_site_label
 _atom_site_symmetry_multiplicity
 _atom_site_fract_x
 _atom_site_fract_y
 _atom_site_fract_z
 _atom_site_occupancy
  Li  Li0  1  0.25000000  0.25000000  0.25000000  1
  Mg  Mg0  1  0.74999900  0.74999900  0.74999900  1
  Tl  Tl0  1  0.00000000  0.00000000  0.00000000  1
  Tl  Tl1  1  0.50000100  0.50000100  0.50000100  1
loop_
_geom_bond_atom_site_label_1
_geom_bond_atom_site_label_2
_geom_bond_distance
_geom_bond_site_symmetry_2
Li0 Tl1 3.089855 1_554
Li0 Tl1 3.089855 1_455
Li0 Tl1 3.089855 1_545
Li0 Tl0 3.089859 1_556
Li0 Tl0 3.089859 1_555
Li0 Tl0 3.089859 1_565
Li0 Tl0 3.089859 1_655
Li0 Tl1 3.089872 1_555
Mg0 Tl1 3.089834 1_555
Mg0 Tl0 3.089855 1_665
Mg0 Tl0 3.089855 1_656
Mg0 Tl0 3.089855 1_566
Mg0 Tl1 3.089867 1_655
Mg0 Tl1 3.089867 1_556
Mg0 Tl1 3.089867 1_565
Mg0 Tl0 3.089872 1_666
