# generated using pymatgen
data_Ce3Zn11
_symmetry_space_group_name_H-M   'P 1'
_cell_length_a   4.46691937
_cell_length_b   8.25379458
_cell_length_c   8.25378166
_cell_angle_alpha   106.98371412
_cell_angle_beta   105.69986763
_cell_angle_gamma   105.69984241
_symmetry_Int_Tables_number   1
_chemical_formula_structural   Ce3Zn11
_chemical_formula_sum   'Ce3 Zn11'
_cell_volume   259.19087524
_cell_formula_units_Z   1
loop_
 _symmetry_equiv_pos_site_id
 _symmetry_equiv_pos_as_xyz
  1  'x, y, z'
loop_
 _atom_site_type_symbol
 _atom_site_label
 _atom_site_symmetry_multiplicity
 _atom_site_fract_x
 _atom_site_fract_y
 _atom_site_fract_z
 _atom_site_occupancy
  Ce  Ce0  1  -0.00000000  -0.00000000  -0.00000000  1
  Ce  Ce1  1  0.00000200  0.70558266  0.29441834  1
  Ce  Ce2  1  0.00000000  0.29441734  0.70558166  1
  Zn  Zn0  1  0.35719473  0.70063089  0.01375858  1
  Zn  Zn1  1  0.28541516  0.42643118  0.14439714  1
  Zn  Zn2  1  0.64280727  0.98624242  0.29936811  1
  Zn  Zn3  1  0.82056714  0.32056714  0.32056614  1
  Zn  Zn4  1  0.28541416  0.14439714  0.42643118  1
  Zn  Zn5  1  0.50000000  0.50000000  0.50000000  1
  Zn  Zn6  1  0.71458684  0.85560286  0.57356882  1
  Zn  Zn7  1  0.17943386  0.67943286  0.67943386  1
  Zn  Zn8  1  0.35719473  0.01375858  0.70063189  1
  Zn  Zn9  1  0.71458584  0.57356882  0.85560286  1
  Zn  Zn10  1  0.64280727  0.29936911  0.98624242  1
loop_
_geom_bond_atom_site_label_1
_geom_bond_atom_site_label_2
_geom_bond_distance
_geom_bond_site_symmetry_2
Ce0 Zn4 3.119692 1_555
Ce0 Zn6 3.119692 1_444
Ce0 Zn9 3.119698 1_444
Ce0 Zn1 3.119698 1_555
Ce0 Zn2 3.296003 1_445
Ce0 Zn8 3.296010 1_554
Ce0 Zn10 3.296013 1_454
Ce0 Zn8 3.296013 1_454
Ce0 Zn2 3.296015 1_545
Ce0 Zn0 3.296020 1_545
Ce0 Zn0 3.296020 1_445
Ce0 Zn10 3.296022 1_554
Ce0 Zn3 3.584620 1_455
Ce0 Zn7 3.584620 1_444
Ce0 Zn7 3.584622 1_544
Ce0 Zn3 3.584623 1_555
Ce1 Zn6 3.040512 1_555
Ce1 Zn6 3.040514 1_455
Ce1 Zn1 3.040518 1_555
Ce1 Zn1 3.040522 1_455
Ce1 Zn0 3.145464 1_555
Ce1 Zn0 3.145474 1_455
Ce1 Zn2 3.145474 1_455
Ce1 Zn2 3.145478 1_555
Ce1 Zn3 3.146979 1_455
Ce1 Zn7 3.146981 1_555
Ce1 Zn8 3.191121 1_565
Ce1 Zn10 3.191123 1_454
Ce1 Zn4 3.220927 1_565
Ce1 Zn9 3.220928 1_454
Ce2 Zn4 3.040511 1_555
Ce2 Zn4 3.040515 1_455
Ce2 Zn9 3.040519 1_555
Ce2 Zn9 3.040522 1_455
Ce2 Zn8 3.145467 1_555
Ce2 Zn10 3.145471 1_455
Ce2 Zn8 3.145474 1_455
Ce2 Zn10 3.145478 1_555
Ce2 Zn7 3.146979 1_555
Ce2 Zn3 3.146981 1_455
Ce2 Zn2 3.191118 1_445
Ce2 Zn0 3.191126 1_556
Ce2 Zn6 3.220927 1_445
Ce2 Zn1 3.220928 1_556
Zn0 Zn2 2.498040 1_555
Zn0 Zn9 2.566448 1_554
Zn0 Zn9 2.566449 1_454
Zn0 Zn7 2.594721 1_554
Zn0 Zn1 2.758168 1_555
Zn1 Zn10 2.566444 1_454
Zn1 Zn10 2.566447 1_554
Zn1 Zn5 2.650164 1_555
Zn1 Zn3 2.929796 1_555
Zn1 Zn3 2.929799 1_455
Zn2 Zn4 2.566440 1_665
Zn2 Zn4 2.566455 1_565
Zn2 Zn3 2.594726 1_565
Zn2 Zn6 2.758178 1_555
Zn3 Zn5 2.729705 1_655
Zn3 Zn5 2.729708 1_555
Zn3 Zn4 2.929805 1_655
Zn3 Zn4 2.929808 1_555
Zn3 Zn7 3.138762 1_655
Zn4 Zn5 2.650169 1_555
Zn4 Zn8 2.758173 1_555
Zn5 Zn9 2.650164 1_555
Zn5 Zn6 2.650169 1_555
Zn5 Zn7 2.729705 1_555
Zn5 Zn7 2.729709 1_655
Zn6 Zn8 2.566445 1_665
Zn6 Zn8 2.566456 1_565
Zn6 Zn7 2.929805 1_655
Zn6 Zn7 2.929808 1_555
Zn7 Zn8 2.594734 1_565
Zn7 Zn9 2.929796 1_555
Zn7 Zn9 2.929799 1_455
Zn10 Zn8 2.498040 1_555
Zn10 Zn3 2.594713 1_556
Zn10 Zn9 2.758173 1_555
