# generated using pymatgen
data_Tm2ZnPt
_symmetry_space_group_name_H-M   'P 1'
_cell_length_a   4.88006222
_cell_length_b   4.88006366
_cell_length_c   4.88005932
_cell_angle_alpha   60.00000968
_cell_angle_beta   60.00001965
_cell_angle_gamma   59.99999022
_symmetry_Int_Tables_number   1
_chemical_formula_structural   Tm2ZnPt
_chemical_formula_sum   'Tm2 Zn1 Pt1'
_cell_volume   82.17903045
_cell_formula_units_Z   1
loop_
 _symmetry_equiv_pos_site_id
 _symmetry_equiv_pos_as_xyz
  1  'x, y, z'
loop_
 _atom_site_type_symbol
 _atom_site_label
 _atom_site_symmetry_multiplicity
 _atom_site_fract_x
 _atom_site_fract_y
 _atom_site_fract_z
 _atom_site_occupancy
  Tm  Tm0  1  -0.00000000  -0.00000000  0.00000000  1
  Tm  Tm1  1  0.50000000  0.50000000  0.50000000  1
  Zn  Zn0  1  0.75000100  0.75000100  0.75000100  1
  Pt  Pt0  1  0.25000100  0.25000100  0.25000100  1
loop_
_geom_bond_atom_site_label_1
_geom_bond_atom_site_label_2
_geom_bond_distance
_geom_bond_site_symmetry_2
Tm0 Zn0 2.988403 1_444
Tm0 Zn0 2.988419 1_445
Tm0 Zn0 2.988420 1_544
Tm0 Zn0 2.988420 1_454
Tm1 Zn0 2.988411 1_554
Tm1 Zn0 2.988412 1_455
Tm1 Zn0 2.988412 1_545
Tm1 Zn0 2.988427 1_555
Pt0 Tm1 2.988403 1_555
Pt0 Tm0 2.988411 1_556
Pt0 Tm0 2.988412 1_655
Pt0 Tm0 2.988412 1_565
Pt0 Tm1 2.988419 1_554
Pt0 Tm1 2.988420 1_455
Pt0 Tm1 2.988420 1_545
Pt0 Tm0 2.988427 1_555
