# generated using pymatgen
data_Li2MnSiO4
_symmetry_space_group_name_H-M   'P 1'
_cell_length_a   5.45265700
_cell_length_b   10.61562700
_cell_length_c   13.18727000
_cell_angle_alpha   90.00000000
_cell_angle_beta   90.00000000
_cell_angle_gamma   90.00000000
_symmetry_Int_Tables_number   1
_chemical_formula_structural   Li2MnSiO4
_chemical_formula_sum   'Li16 Mn8 Si8 O32'
_cell_volume   763.32366656
_cell_formula_units_Z   8
loop_
 _symmetry_equiv_pos_site_id
 _symmetry_equiv_pos_as_xyz
  1  'x, y, z'
loop_
 _atom_site_type_symbol
 _atom_site_label
 _atom_site_symmetry_multiplicity
 _atom_site_fract_x
 _atom_site_fract_y
 _atom_site_fract_z
 _atom_site_occupancy
  Li  Li0  1  0.96904200  0.97197600  0.56080200  1
  Li  Li1  1  0.46128500  0.95284800  0.94272500  1
  Li  Li2  1  0.36782300  0.21261900  0.30051200  1
  Li  Li3  1  0.85103400  0.20748100  0.20227300  1
  Li  Li4  1  0.85103400  0.29251900  0.70227300  1
  Li  Li5  1  0.36782300  0.28738100  0.80051200  1
  Li  Li6  1  0.96904200  0.52802400  0.06080200  1
  Li  Li7  1  0.46128500  0.54715200  0.44272500  1
  Li  Li8  1  0.53871500  0.45284800  0.94272500  1
  Li  Li9  1  0.03095800  0.47197600  0.56080200  1
  Li  Li10  1  0.63217700  0.71261900  0.30051200  1
  Li  Li11  1  0.14896600  0.70748100  0.20227300  1
  Li  Li12  1  0.14896600  0.79251900  0.70227300  1
  Li  Li13  1  0.63217700  0.78738100  0.80051200  1
  Li  Li14  1  0.03095800  0.02802400  0.06080200  1
  Li  Li15  1  0.53871500  0.04715200  0.44272500  1
  Mn  Mn0  1  0.96877400  0.03577700  0.81266600  1
  Mn  Mn1  1  0.51765400  0.20637600  0.05700100  1
  Mn  Mn2  1  0.51765400  0.29362400  0.55700100  1
  Mn  Mn3  1  0.96877400  0.46422300  0.31266600  1
  Mn  Mn4  1  0.03122600  0.53577700  0.81266600  1
  Mn  Mn5  1  0.48234600  0.70637600  0.05700100  1
  Mn  Mn6  1  0.48234600  0.79362400  0.55700100  1
  Mn  Mn7  1  0.03122600  0.96422300  0.31266600  1
  Si  Si0  1  0.47812900  0.03508200  0.69037300  1
  Si  Si1  1  0.02433200  0.21092300  0.43717100  1
  Si  Si2  1  0.02433200  0.28907700  0.93717100  1
  Si  Si3  1  0.47812900  0.46491800  0.19037300  1
  Si  Si4  1  0.52187100  0.53508200  0.69037300  1
  Si  Si5  1  0.97566800  0.71092300  0.43717100  1
  Si  Si6  1  0.97566800  0.78907700  0.93717100  1
  Si  Si7  1  0.52187100  0.96491800  0.19037300  1
  O  O0  1  0.39454300  0.02301000  0.29483900  1
  O  O1  1  0.81328200  0.01092800  0.18809700  1
  O  O2  1  0.89813600  0.07027300  0.43378500  1
  O  O3  1  0.39303500  0.02727200  0.08832000  1
  O  O4  1  0.52479600  0.19006100  0.69213300  1
  O  O5  1  0.01235800  0.22884400  0.82076700  1
  O  O6  1  0.32205800  0.19548800  0.45576500  1
  O  O7  1  0.89478600  0.19824300  0.02350200  1
  O  O8  1  0.89478600  0.30175700  0.52350200  1
  O  O9  1  0.32205800  0.30451200  0.95576500  1
  O  O10  1  0.01235800  0.27115600  0.32076700  1
  O  O11  1  0.52479600  0.30993900  0.19213300  1
  O  O12  1  0.39303500  0.47272800  0.58832000  1
  O  O13  1  0.89813600  0.42972700  0.93378500  1
  O  O14  1  0.81328200  0.48907200  0.68809700  1
  O  O15  1  0.39454300  0.47699000  0.79483900  1
  O  O16  1  0.60545700  0.52301000  0.29483900  1
  O  O17  1  0.18671800  0.51092800  0.18809700  1
  O  O18  1  0.10186400  0.57027300  0.43378500  1
  O  O19  1  0.60696500  0.52727200  0.08832000  1
  O  O20  1  0.47520400  0.69006100  0.69213300  1
  O  O21  1  0.98764200  0.72884400  0.82076700  1
  O  O22  1  0.67794200  0.69548800  0.45576500  1
  O  O23  1  0.10521400  0.69824300  0.02350200  1
  O  O24  1  0.10521400  0.80175700  0.52350200  1
  O  O25  1  0.67794200  0.80451200  0.95576500  1
  O  O26  1  0.98764200  0.77115600  0.32076700  1
  O  O27  1  0.47520400  0.80993900  0.19213300  1
  O  O28  1  0.60696500  0.97272800  0.58832000  1
  O  O29  1  0.10186400  0.92972700  0.93378500  1
  O  O30  1  0.18671800  0.98907200  0.68809700  1
  O  O31  1  0.60545700  0.97699000  0.79483900  1
loop_
_geom_bond_atom_site_label_1
_geom_bond_atom_site_label_2
_geom_bond_distance
_geom_bond_site_symmetry_2
Li0 O28 2.007371 1_555
Li0 O2 2.010967 1_565
Li0 O24 2.014557 1_655
Li0 O30 2.063890 1_655
Li1 O25 1.976054 1_555
Li1 O29 1.978625 1_555
Li1 O3 2.109285 1_566
Li1 O31 2.118253 1_555
Li2 O11 1.960255 1_555
Li2 O0 2.019471 1_555
Li2 O10 2.052858 1_555
Li2 O6 2.070516 1_555
Li3 O10 1.916361 1_655
Li3 O11 2.089314 1_555
Li3 O1 2.104980 1_555
Li3 O7 2.371570 1_555
Li4 O5 1.916361 1_655
Li4 O4 2.089314 1_555
Li4 O14 2.104980 1_555
Li4 O8 2.371570 1_555
Li5 O4 1.960255 1_555
Li5 O15 2.019471 1_555
Li5 O5 2.052858 1_555
Li5 O9 2.070516 1_555
Li6 O19 2.007371 1_555
Li6 O13 2.010967 1_554
Li6 O23 2.014557 1_655
Li6 O17 2.063890 1_655
Li7 O22 1.976054 1_555
Li7 O18 1.978625 1_555
Li7 O12 2.109285 1_555
Li7 O16 2.118253 1_555
Li8 O9 1.976054 1_555
Li8 O13 1.978625 1_555
Li8 O19 2.109285 1_556
Li8 O15 2.118253 1_555
Li9 O12 2.007371 1_555
Li9 O18 2.010967 1_555
Li9 O8 2.014557 1_455
Li9 O14 2.063890 1_455
Li10 O27 1.960255 1_555
Li10 O16 2.019471 1_555
Li10 O26 2.052858 1_555
Li10 O22 2.070516 1_555
Li11 O26 1.916361 1_455
Li11 O27 2.089314 1_555
Li11 O17 2.104980 1_555
Li11 O23 2.371570 1_555
Li12 O21 1.916361 1_455
Li12 O20 2.089314 1_555
Li12 O30 2.104980 1_555
Li12 O24 2.371570 1_555
Li13 O20 1.960255 1_555
Li13 O31 2.019471 1_555
Li13 O21 2.052858 1_555
Li13 O25 2.070516 1_555
Li14 O3 2.007371 1_555
Li14 O29 2.010967 1_544
Li14 O7 2.014557 1_455
Li14 O1 2.063890 1_455
Li15 O6 1.976054 1_555
Li15 O2 1.978625 1_555
Li15 O28 2.109285 1_545
Li15 O0 2.118253 1_555
Mn0 O5 2.066023 1_655
Mn0 O29 2.084507 1_645
Mn0 O30 2.087247 1_645
Mn0 O31 2.090275 1_545
Mn1 O9 2.001263 1_554
Mn1 O3 2.060886 1_555
Mn1 O11 2.094223 1_555
Mn1 O7 2.105058 1_555
Mn2 O6 2.001263 1_555
Mn2 O12 2.060886 1_555
Mn2 O4 2.094223 1_555
Mn2 O8 2.105058 1_555
Mn3 O10 2.066023 1_655
Mn3 O18 2.084507 1_655
Mn3 O17 2.087247 1_655
Mn3 O16 2.090275 1_555
Mn4 O21 2.066023 1_455
Mn4 O13 2.084507 1_455
Mn4 O14 2.087247 1_455
Mn4 O15 2.090275 1_555
Mn5 O25 2.001263 1_554
Mn5 O19 2.060886 1_555
Mn5 O27 2.094223 1_555
Mn5 O23 2.105058 1_555
Mn6 O22 2.001263 1_555
Mn6 O28 2.060886 1_555
Mn6 O20 2.094223 1_555
Mn6 O24 2.105058 1_555
Mn7 O26 2.066023 1_455
Mn7 O2 2.084507 1_465
Mn7 O1 2.087247 1_465
Mn7 O0 2.090275 1_565
O0 Si7 1.661372 1_545
O1 Si7 1.662609 1_545
O2 Si1 1.644625 1_655
O3 Si7 1.656149 1_545
O4 Si0 1.664923 1_555
O5 Si2 1.664179 1_555
O6 Si1 1.649968 1_555
O7 Si2 1.650718 1_654
O8 Si1 1.650718 1_655
O9 Si2 1.649968 1_555
O10 Si1 1.664179 1_555
O11 Si3 1.664923 1_555
O12 Si4 1.656149 1_555
O13 Si2 1.644625 1_655
O14 Si4 1.662609 1_555
O15 Si4 1.661372 1_555
O16 Si3 1.661372 1_555
O17 Si3 1.662609 1_555
O18 Si5 1.644625 1_455
O19 Si3 1.656149 1_555
O20 Si4 1.664923 1_555
O21 Si6 1.664179 1_555
O22 Si5 1.649968 1_555
O23 Si6 1.650718 1_454
O24 Si5 1.650718 1_455
O25 Si6 1.649968 1_555
O26 Si5 1.664179 1_555
O27 Si7 1.664923 1_555
O28 Si0 1.656149 1_565
O29 Si6 1.644625 1_455
O30 Si0 1.662609 1_565
O31 Si0 1.661372 1_565
