# generated using pymatgen
data_La3ScBeS7
_symmetry_space_group_name_H-M   'P 1'
_cell_length_a   10.24003573
_cell_length_b   10.24003573
_cell_length_c   6.05843100
_cell_angle_alpha   90.00000000
_cell_angle_beta   90.00000000
_cell_angle_gamma   119.99999826
_symmetry_Int_Tables_number   1
_chemical_formula_structural   La3ScBeS7
_chemical_formula_sum   'La6 Sc2 Be2 S14'
_cell_volume   550.16600214
_cell_formula_units_Z   2
loop_
 _symmetry_equiv_pos_site_id
 _symmetry_equiv_pos_as_xyz
  1  'x, y, z'
loop_
 _atom_site_type_symbol
 _atom_site_label
 _atom_site_symmetry_multiplicity
 _atom_site_fract_x
 _atom_site_fract_y
 _atom_site_fract_z
 _atom_site_occupancy
  La  La0  1  0.13947900  0.39357400  0.24733200  1
  La  La1  1  0.86052100  0.60642600  0.74733200  1
  La  La2  1  0.60642600  0.74590600  0.24733200  1
  La  La3  1  0.25409400  0.86052100  0.24733200  1
  La  La4  1  0.74590600  0.13947900  0.74733200  1
  La  La5  1  0.39357400  0.25409400  0.74733200  1
  Sc  Sc0  1  0.00000000  0.00000000  0.01854000  1
  Sc  Sc1  1  0.00000000  0.00000000  0.51854000  1
  Be  Be0  1  0.33333300  0.66666700  0.65854400  1
  Be  Be1  1  0.66666700  0.33333300  0.15854400  1
  S  S0  1  0.33333300  0.66666700  0.00938400  1
  S  S1  1  0.66666700  0.33333300  0.50938400  1
  S  S2  1  0.40638900  0.52013300  0.52967200  1
  S  S3  1  0.59361100  0.47986700  0.02967200  1
  S  S4  1  0.47986700  0.88625600  0.52967200  1
  S  S5  1  0.11374400  0.59361100  0.52967200  1
  S  S6  1  0.88625600  0.40638900  0.02967200  1
  S  S7  1  0.52013300  0.11374400  0.02967200  1
  S  S8  1  0.08075200  0.23119600  0.77153300  1
  S  S9  1  0.91924800  0.76880400  0.27153300  1
  S  S10  1  0.76880400  0.84955700  0.77153300  1
  S  S11  1  0.15044300  0.91924800  0.77153300  1
  S  S12  1  0.84955700  0.08075200  0.27153300  1
  S  S13  1  0.23119600  0.15044300  0.27153300  1
loop_
_geom_bond_atom_site_label_1
_geom_bond_atom_site_label_2
_geom_bond_distance
_geom_bond_site_symmetry_2
La0 S5 2.780481 1_555
La0 S0 2.878852 1_555
La0 S2 2.921229 1_555
La0 S6 2.969868 1_455
La0 S13 3.072505 1_555
La0 S12 3.096208 1_455
La0 S8 3.230454 1_554
La0 S8 3.494625 1_555
La1 S6 2.780481 1_556
La1 S1 2.878852 1_555
La1 S3 2.921229 1_556
La1 S5 2.969868 1_655
La1 S10 3.072505 1_555
La1 S11 3.096208 1_655
La1 S9 3.230454 1_555
La1 S9 3.494625 1_556
La2 S2 2.780486 1_555
La2 S0 2.878852 1_555
La2 S4 2.921222 1_555
La2 S3 2.969877 1_555
La2 S12 3.072490 1_565
La2 S9 3.096217 1_555
La2 S10 3.230454 1_554
La2 S10 3.494625 1_555
La3 S4 2.780489 1_555
La3 S0 2.878852 1_555
La3 S5 2.921229 1_555
La3 S7 2.969873 1_565
La3 S9 3.072485 1_455
La3 S13 3.096197 1_565
La3 S11 3.230454 1_554
La3 S11 3.494625 1_555
La4 S7 2.780489 1_556
La4 S1 2.878852 1_555
La4 S6 2.921229 1_556
La4 S4 2.969873 1_545
La4 S8 3.072485 1_655
La4 S10 3.096197 1_545
La4 S12 3.230454 1_555
La4 S12 3.494625 1_556
La5 S3 2.780486 1_556
La5 S1 2.878852 1_555
La5 S7 2.921222 1_556
La5 S2 2.969877 1_555
La5 S11 3.072490 1_545
La5 S8 3.096217 1_555
La5 S13 3.230454 1_555
La5 S13 3.494625 1_556
Be0 S0 2.125540 1_556
Be0 S5 2.131494 1_555
Be0 S4 2.131496 1_555
Be0 S2 2.131503 1_555
Be1 S1 2.125540 1_555
Be1 S6 2.131494 1_555
Be1 S7 2.131496 1_555
Be1 S3 2.131503 1_555
S8 Sc0 2.563278 1_556
S8 Sc1 2.584618 1_555
S9 Sc1 2.563278 1_665
S9 Sc0 2.584618 1_665
S10 Sc0 2.563277 1_666
S10 Sc1 2.584617 1_665
S11 Sc0 2.563270 1_566
S11 Sc1 2.584610 1_565
S12 Sc1 2.563270 1_655
S12 Sc0 2.584610 1_655
S13 Sc1 2.563277 1_555
S13 Sc0 2.584617 1_555
