# generated using pymatgen
data_Li5Mn6(BO3)6
_symmetry_space_group_name_H-M   'P 1'
_cell_length_a   8.25186800
_cell_length_b   8.84833837
_cell_length_c   12.70842527
_cell_angle_alpha   92.43150437
_cell_angle_beta   108.91899458
_cell_angle_gamma   117.73845591
_symmetry_Int_Tables_number   1
_chemical_formula_structural   Li5Mn6(BO3)6
_chemical_formula_sum   'Li10 Mn12 B12 O36'
_cell_volume   755.91269687
_cell_formula_units_Z   2
loop_
 _symmetry_equiv_pos_site_id
 _symmetry_equiv_pos_as_xyz
  1  'x, y, z'
loop_
 _atom_site_type_symbol
 _atom_site_label
 _atom_site_symmetry_multiplicity
 _atom_site_fract_x
 _atom_site_fract_y
 _atom_site_fract_z
 _atom_site_occupancy
  Li  Li0  1  0.82313400  0.10375100  0.80240200  1
  Li  Li1  1  0.89361600  0.91807500  0.19303300  1
  Li  Li2  1  0.91226000  0.60985800  0.62613000  1
  Li  Li3  1  0.65992900  0.35832100  0.37846700  1
  Li  Li4  1  0.16122300  0.86378900  0.88057000  1
  Li  Li5  1  0.07250200  0.34635900  0.05086500  1
  Li  Li6  1  0.56866200  0.84962200  0.55554400  1
  Li  Li7  1  0.14931500  0.15803100  0.44310600  1
  Li  Li8  1  0.39476400  0.40901800  0.69330900  1
  Li  Li9  1  0.41065900  0.11361700  0.13086800  1
  Mn  Mn0  1  0.39245300  0.75231000  0.75188900  1
  Mn  Mn1  1  0.53202600  0.53175800  0.15511000  1
  Mn  Mn2  1  0.76411700  0.76768300  0.41045700  1
  Mn  Mn3  1  0.58407500  0.21539400  0.59327800  1
  Mn  Mn4  1  0.82011800  0.48174500  0.83949000  1
  Mn  Mn5  1  0.63883700  0.00789500  0.99781600  1
  Mn  Mn6  1  0.28609800  0.27459400  0.90675200  1
  Mn  Mn7  1  0.03541200  0.02034300  0.65812600  1
  Mn  Mn8  1  0.33340100  0.96097600  0.34438000  1
  Mn  Mn9  1  0.07162500  0.71060400  0.09477000  1
  Mn  Mn10  1  0.14812400  0.51112700  0.49848200  1
  Mn  Mn11  1  0.90298300  0.26781900  0.25093700  1
  B  B0  1  0.20630500  0.86983500  0.54041200  1
  B  B1  1  0.04416900  0.37772700  0.71000700  1
  B  B2  1  0.28640600  0.62953200  0.96657500  1
  B  B3  1  0.25628500  0.24389600  0.24850400  1
  B  B4  1  0.00530300  0.00451200  0.00234800  1
  B  B5  1  0.50309600  0.49532600  0.50531300  1
  B  B6  1  0.75256100  0.75352900  0.74364500  1
  B  B7  1  0.46160300  0.12257700  0.79418000  1
  B  B8  1  0.52877900  0.87503100  0.19759500  1
  B  B9  1  0.71832400  0.38553100  0.04834500  1
  B  B10  1  0.79492700  0.12420200  0.45681000  1
  B  B11  1  0.94052700  0.62102400  0.28538700  1
  O  O0  1  0.32178600  0.79315000  0.57638000  1
  O  O1  1  0.38118300  0.53444400  0.99969700  1
  O  O2  1  0.35212700  0.76598200  0.91473900  1
  O  O3  1  0.10189700  0.51946800  0.65993000  1
  O  O4  1  0.03924400  0.14383700  0.94680600  1
  O  O5  1  0.85333200  0.94287700  0.03981700  1
  O  O6  1  0.87510200  0.31663100  0.73463600  1
  O  O7  1  0.02847200  0.80810100  0.55549600  1
  O  O8  1  0.11089400  0.57478300  0.98524700  1
  O  O9  1  0.75646000  0.56253700  0.29653100  1
  O  O10  1  0.63336100  0.43033800  0.52009600  1
  O  O11  1  0.38745700  0.18004600  0.27467200  1
  O  O12  1  0.89104600  0.69677500  0.76582400  1
  O  O13  1  0.57144600  0.03944800  0.82454000  1
  O  O14  1  0.63359900  0.78652600  0.22737100  1
  O  O15  1  0.78942500  0.53457300  0.00443500  1
  O  O16  1  0.27028900  0.01107500  0.48903100  1
  O  O17  1  0.52312400  0.26536500  0.74390200  1
  O  O18  1  0.28712300  0.37535500  0.18977600  1
  O  O19  1  0.54624100  0.64950500  0.47068300  1
  O  O20  1  0.79221200  0.90652000  0.70342800  1
  O  O21  1  0.33173700  0.40280100  0.52777300  1
  O  O22  1  0.57956700  0.65739300  0.75995600  1
  O  O23  1  0.09293600  0.16881700  0.28029300  1
  O  O24  1  0.28839000  0.06424300  0.81407200  1
  O  O25  1  0.34768900  0.81605900  0.20875100  1
  O  O26  1  0.13070400  0.93391200  0.02188900  1
  O  O27  1  0.90856800  0.04377800  0.48195200  1
  O  O28  1  0.82028300  0.29586300  0.07359200  1
  O  O29  1  0.15769800  0.29671000  0.73623100  1
  O  O30  1  0.04968900  0.54538900  0.32650100  1
  O  O31  1  0.60862200  0.02636700  0.15974900  1
  O  O32  1  0.00584600  0.75940100  0.22997500  1
  O  O33  1  0.85182200  0.26914100  0.41004500  1
  O  O34  1  0.62222700  0.05476000  0.47884500  1
  O  O35  1  0.54254400  0.33037400  0.06652100  1
loop_
_geom_bond_atom_site_label_1
_geom_bond_atom_site_label_2
_geom_bond_distance
_geom_bond_site_symmetry_2
Li0 O20 1.970759 1_545
Li0 O4 1.976754 1_655
Li0 O13 2.002213 1_555
Li0 O6 2.024559 1_555
Li1 O5 1.906419 1_555
Li1 O32 2.008397 1_655
Li1 O23 2.017172 1_665
Li1 O14 2.115286 1_555
Li2 O7 1.981988 1_655
Li2 O12 1.996189 1_555
Li2 O3 2.007811 1_655
Li2 O10 2.009963 1_555
Li3 O11 1.970348 1_555
Li3 O10 1.995573 1_555
Li3 O33 2.017188 1_555
Li3 O9 2.083642 1_555
Li4 O12 1.980621 1_455
Li4 O24 1.982664 1_565
Li4 O26 2.004498 1_556
Li4 O2 2.067976 1_555
Li5 O18 1.957034 1_555
Li5 O4 2.034973 1_554
Li5 O28 2.037127 1_455
Li5 O8 2.144567 1_554
Li6 O19 1.932950 1_555
Li6 O0 1.970630 1_555
Li6 O20 1.998873 1_555
Li6 O34 2.030472 1_565
Li7 O21 1.957434 1_555
Li7 O16 1.980628 1_555
Li7 O23 1.985090 1_555
Li7 O27 2.005279 1_455
Li8 O22 1.938441 1_555
Li8 O21 1.988250 1_555
Li8 O17 2.007983 1_555
Li8 O29 2.010040 1_555
Li9 O11 1.990602 1_555
Li9 O26 2.025409 1_545
Li9 O31 2.051454 1_555
Li9 O35 2.073349 1_555
Mn0 O22 2.052248 1_555
Mn0 O3 2.177041 1_555
Mn0 O0 2.206045 1_555
Mn0 O2 2.207099 1_555
Mn0 O13 2.216431 1_565
Mn1 O1 1.971827 1_554
Mn1 O9 2.016110 1_555
Mn1 O14 2.047918 1_555
Mn1 O18 2.054020 1_555
Mn1 O35 2.118336 1_555
Mn2 O19 2.030226 1_555
Mn2 O27 2.147832 1_565
Mn2 O7 2.212339 1_655
Mn2 O9 2.237421 1_555
Mn2 O14 2.275199 1_555
Mn3 O10 2.079158 1_555
Mn3 O34 2.184551 1_555
Mn3 O6 2.204597 1_555
Mn3 O17 2.207290 1_555
Mn3 O16 2.223258 1_555
Mn4 O12 2.075796 1_555
Mn4 O17 2.156810 1_555
Mn4 O6 2.227083 1_555
Mn4 O8 2.239627 1_655
Mn4 O15 2.246777 1_556
Mn5 O5 2.027319 1_546
Mn5 O13 2.153808 1_555
Mn5 O31 2.160095 1_556
Mn5 O2 2.183638 1_545
Mn5 O28 2.228701 1_556
Mn6 O4 2.067752 1_555
Mn6 O29 2.144087 1_555
Mn6 O24 2.170966 1_555
Mn6 O1 2.187825 1_555
Mn6 O35 2.236245 1_556
Mn7 O20 2.071280 1_445
Mn7 O29 2.197937 1_555
Mn7 O27 2.207492 1_455
Mn7 O7 2.207906 1_545
Mn7 O24 2.221130 1_555
Mn8 O11 2.082844 1_565
Mn8 O16 2.147930 1_565
Mn8 O34 2.164880 1_565
Mn8 O25 2.171178 1_555
Mn8 O32 2.311902 1_555
Mn9 O15 1.976126 1_455
Mn9 O25 1.981209 1_555
Mn9 O8 1.999911 1_554
Mn9 O32 2.047786 1_555
Mn9 O26 2.133335 1_555
Mn10 O21 2.090312 1_555
Mn10 O30 2.159352 1_555
Mn10 O0 2.191441 1_555
Mn10 O3 2.209416 1_555
Mn10 O33 2.228565 1_455
Mn11 O23 2.071287 1_655
Mn11 O30 2.167511 1_655
Mn11 O28 2.194200 1_555
Mn11 O33 2.196143 1_555
Mn11 O31 2.222916 1_555
B0 O0 1.386791 1_555
B0 O7 1.390566 1_555
B0 O16 1.394835 1_565
B1 O3 1.383128 1_555
B1 O6 1.389973 1_455
B1 O29 1.394838 1_555
B2 O2 1.369459 1_555
B2 O1 1.387753 1_555
B2 O8 1.402877 1_555
B3 O18 1.376982 1_555
B3 O11 1.397560 1_555
B3 O23 1.401352 1_555
B4 O5 1.367265 1_445
B4 O26 1.403913 1_545
B4 O4 1.406084 1_554
B5 O19 1.371851 1_555
B5 O21 1.398262 1_555
B5 O10 1.405361 1_555
B6 O22 1.371445 1_555
B6 O20 1.398448 1_555
B6 O12 1.405300 1_555
B7 O13 1.389031 1_555
B7 O24 1.389939 1_555
B7 O17 1.394287 1_555
B8 O31 1.377461 1_565
B8 O25 1.393994 1_555
B8 O14 1.395734 1_555
B9 O28 1.381400 1_555
B9 O15 1.396169 1_555
B9 O35 1.401209 1_555
B10 O33 1.379665 1_555
B10 O27 1.390703 1_555
B10 O34 1.394680 1_555
B11 O30 1.348315 1_655
B11 O32 1.410868 1_655
B11 O9 1.417365 1_555
