# generated using pymatgen
data_Li2Mn5(CuO6)2
_symmetry_space_group_name_H-M   'P 1'
_cell_length_a   5.37320549
_cell_length_b   8.76543311
_cell_length_c   9.73039045
_cell_angle_alpha   90.00000172
_cell_angle_beta   98.11039652
_cell_angle_gamma   89.99999445
_symmetry_Int_Tables_number   1
_chemical_formula_structural   Li2Mn5(CuO6)2
_chemical_formula_sum   'Li4 Mn10 Cu4 O24'
_cell_volume   453.70278701
_cell_formula_units_Z   2
loop_
 _symmetry_equiv_pos_site_id
 _symmetry_equiv_pos_as_xyz
  1  'x, y, z'
loop_
 _atom_site_type_symbol
 _atom_site_label
 _atom_site_symmetry_multiplicity
 _atom_site_fract_x
 _atom_site_fract_y
 _atom_site_fract_z
 _atom_site_occupancy
  Li  Li0  1  0.77933400  0.09447000  0.51567500  1
  Li  Li1  1  0.50286800  0.42086600  0.74248400  1
  Li  Li2  1  0.72066600  0.59447000  0.98432500  1
  Li  Li3  1  0.99713200  0.92086600  0.75751600  1
  Mn  Mn0  1  0.00378800  0.07548600  0.24823600  1
  Mn  Mn1  1  0.49435200  0.08571300  0.74981900  1
  Mn  Mn2  1  0.25280900  0.25664300  0.50567400  1
  Mn  Mn3  1  0.99243500  0.41297600  0.24980300  1
  Mn  Mn4  1  0.74193500  0.24648800  0.99316400  1
  Mn  Mn5  1  0.00564800  0.58571300  0.75018100  1
  Mn  Mn6  1  0.49621200  0.57548600  0.25176400  1
  Mn  Mn7  1  0.24719100  0.75664300  0.99432600  1
  Mn  Mn8  1  0.75806500  0.74648800  0.50683600  1
  Mn  Mn9  1  0.50756500  0.91297600  0.25019700  1
  Cu  Cu0  1  0.00241800  0.26036000  0.75676800  1
  Cu  Cu1  1  0.49163800  0.24666800  0.24095800  1
  Cu  Cu2  1  0.00836200  0.74666800  0.25904200  1
  Cu  Cu3  1  0.49758200  0.76036000  0.74323200  1
  O  O0  1  0.13961300  0.11094700  0.64744200  1
  O  O1  1  0.34976900  0.08562000  0.34900800  1
  O  O2  1  0.06162300  0.24923600  0.12373900  1
  O  O3  1  0.65942300  0.08050900  0.15045800  1
  O  O4  1  0.42854200  0.23824000  0.87810000  1
  O  O5  1  0.84109800  0.10544500  0.84926600  1
  O  O6  1  0.12831800  0.41214900  0.65093700  1
  O  O7  1  0.57326500  0.23313600  0.61529500  1
  O  O8  1  0.33516400  0.40119300  0.35151300  1
  O  O9  1  0.92967900  0.24223000  0.38366100  1
  O  O10  1  0.15023100  0.58562000  0.15099200  1
  O  O11  1  0.65448100  0.40930400  0.13753700  1
  O  O12  1  0.36038700  0.61094700  0.85255800  1
  O  O13  1  0.87462300  0.41765500  0.85905400  1
  O  O14  1  0.07145800  0.73824000  0.62190000  1
  O  O15  1  0.65890200  0.60544500  0.65073400  1
  O  O16  1  0.43837700  0.74923600  0.37626100  1
  O  O17  1  0.84057700  0.58050900  0.34954200  1
  O  O18  1  0.16483600  0.90119300  0.14848700  1
  O  O19  1  0.57032100  0.74223000  0.11633900  1
  O  O20  1  0.37168200  0.91214900  0.84906300  1
  O  O21  1  0.92673500  0.73313600  0.88470500  1
  O  O22  1  0.62537700  0.91765500  0.64094600  1
  O  O23  1  0.84551900  0.90930400  0.36246300  1
loop_
_geom_bond_atom_site_label_1
_geom_bond_atom_site_label_2
_geom_bond_distance
_geom_bond_site_symmetry_2
Li0 O7 1.986412 1_555
Li0 O9 2.067112 1_555
Li0 O0 2.170701 1_655
Li0 O22 2.203797 1_545
Li0 O23 2.265593 1_545
Li0 O1 2.628188 1_555
Li1 O15 2.080575 1_555
Li1 O6 2.084177 1_555
Li1 O7 2.124759 1_555
Li1 O4 2.147575 1_555
Li1 O13 2.153633 1_555
Li1 O12 2.177312 1_555
Li2 O21 1.986413 1_555
Li2 O19 2.067112 1_556
Li2 O12 2.170701 1_555
Li2 O13 2.203797 1_555
Li2 O11 2.265593 1_556
Li2 O10 2.628188 1_656
Li3 O5 2.080575 1_565
Li3 O20 2.084177 1_655
Li3 O21 2.124759 1_555
Li3 O14 2.147575 1_655
Li3 O22 2.153633 1_555
Li3 O0 2.177312 1_665
Mn0 O3 1.958105 1_455
Mn0 O1 1.977627 1_555
Mn0 O2 1.997449 1_555
Mn0 O9 2.044329 1_455
Mn0 O18 2.064436 1_545
Mn0 O23 2.084976 1_445
Mn1 O4 1.896081 1_555
Mn1 O7 1.928640 1_555
Mn1 O20 1.964979 1_545
Mn1 O5 1.982134 1_555
Mn1 O22 1.999600 1_545
Mn1 O0 2.034373 1_555
Mn2 O7 1.904425 1_555
Mn2 O9 1.964281 1_455
Mn2 O0 2.034831 1_555
Mn2 O8 2.058798 1_555
Mn2 O6 2.137778 1_555
Mn2 O1 2.250923 1_555
Mn3 O2 1.957422 1_655
Mn3 O8 1.966519 1_655
Mn3 O11 1.982957 1_555
Mn3 O17 1.996897 1_555
Mn3 O10 2.040442 1_655
Mn3 O9 2.043064 1_555
Mn4 O4 1.887432 1_555
Mn4 O2 1.987390 1_656
Mn4 O5 1.995837 1_555
Mn4 O11 2.101742 1_556
Mn4 O13 2.173652 1_555
Mn4 O3 2.201642 1_556
Mn5 O14 1.896081 1_555
Mn5 O21 1.928639 1_455
Mn5 O6 1.964979 1_555
Mn5 O15 1.982134 1_455
Mn5 O13 1.999600 1_455
Mn5 O12 2.034373 1_555
Mn6 O17 1.958105 1_555
Mn6 O10 1.977627 1_555
Mn6 O16 1.997449 1_555
Mn6 O19 2.044330 1_555
Mn6 O8 2.064436 1_555
Mn6 O11 2.084976 1_555
Mn7 O21 1.904425 1_455
Mn7 O19 1.964281 1_556
Mn7 O12 2.034831 1_555
Mn7 O18 2.058798 1_556
Mn7 O20 2.137778 1_555
Mn7 O10 2.250923 1_556
Mn8 O14 1.887432 1_655
Mn8 O16 1.987390 1_555
Mn8 O15 1.995837 1_555
Mn8 O23 2.101742 1_555
Mn8 O22 2.173652 1_555
Mn8 O17 2.201642 1_555
Mn9 O16 1.957422 1_555
Mn9 O18 1.966519 1_555
Mn9 O23 1.982957 1_555
Mn9 O3 1.996897 1_565
Mn9 O1 2.040441 1_565
Mn9 O19 2.043064 1_555
Cu0 O6 1.866777 1_555
Cu0 O13 1.885713 1_455
Cu0 O0 1.900414 1_555
Cu0 O5 1.904060 1_455
Cu0 O4 2.431296 1_555
Cu0 O7 2.524593 1_455
Cu1 O1 1.976202 1_555
Cu1 O3 1.983307 1_555
Cu1 O8 1.988448 1_555
Cu1 O11 2.014699 1_555
Cu1 O2 2.428275 1_555
Cu1 O9 2.558762 1_555
Cu2 O10 1.976202 1_555
Cu2 O17 1.983307 1_455
Cu2 O18 1.988448 1_555
Cu2 O23 2.014699 1_455
Cu2 O16 2.428275 1_555
Cu2 O19 2.558762 1_455
Cu3 O20 1.866777 1_555
Cu3 O22 1.885714 1_555
Cu3 O12 1.900414 1_555
Cu3 O15 1.904059 1_555
Cu3 O14 2.431296 1_555
Cu3 O21 2.524593 1_555
