# generated using pymatgen
data_LiMnPO4
_symmetry_space_group_name_H-M   'P 1'
_cell_length_a   5.14234702
_cell_length_b   10.37908701
_cell_length_c   6.97333601
_cell_angle_alpha   89.99960376
_cell_angle_beta   89.99279414
_cell_angle_gamma   89.99389988
_symmetry_Int_Tables_number   1
_chemical_formula_structural   LiMnPO4
_chemical_formula_sum   'Li4 Mn4 P4 O16'
_cell_volume   372.18693163
_cell_formula_units_Z   4
loop_
 _symmetry_equiv_pos_site_id
 _symmetry_equiv_pos_as_xyz
  1  'x, y, z'
loop_
 _atom_site_type_symbol
 _atom_site_label
 _atom_site_symmetry_multiplicity
 _atom_site_fract_x
 _atom_site_fract_y
 _atom_site_fract_z
 _atom_site_occupancy
  Li  Li0  1  0.24541800  0.15066300  0.49626000  1
  Li  Li1  1  0.74528700  0.34938100  0.99626600  1
  Li  Li2  1  0.24536400  0.65063600  0.00379800  1
  Li  Li3  1  0.74536900  0.84939100  0.50377200  1
  Mn  Mn0  1  0.24387800  0.65709800  0.50283300  1
  Mn  Mn1  1  0.74372900  0.84291900  0.00277600  1
  Mn  Mn2  1  0.24326100  0.15685800  0.99707900  1
  Mn  Mn3  1  0.74399500  0.34311500  0.49711700  1
  P  P0  1  0.75026300  0.09715700  0.74725300  1
  P  P1  1  0.25043300  0.40286500  0.24724400  1
  P  P2  1  0.75044500  0.59712000  0.75274900  1
  P  P3  1  0.25043100  0.90284100  0.25274700  1
  O  O0  1  0.19762200  0.05019200  0.24846600  1
  O  O1  1  0.69763700  0.44978900  0.74849300  1
  O  O2  1  0.19761900  0.55021500  0.25152400  1
  O  O3  1  0.69756200  0.94979600  0.75155100  1
  O  O4  1  0.04826500  0.12494600  0.74016800  1
  O  O5  1  0.54838700  0.37502900  0.24019100  1
  O  O6  1  0.04838800  0.62497200  0.75980700  1
  O  O7  1  0.54838300  0.87500700  0.25982800  1
  O  O8  1  0.61987600  0.15704400  0.56732900  1
  O  O9  1  0.11986600  0.34296500  0.06736400  1
  O  O10  1  0.61992400  0.65698500  0.93271400  1
  O  O11  1  0.11987900  0.84299100  0.43266700  1
  O  O12  1  0.64033300  0.16169900  0.93280200  1
  O  O13  1  0.14061300  0.33834000  0.43283200  1
  O  O14  1  0.64059600  0.66167100  0.56719500  1
  O  O15  1  0.14057700  0.83831600  0.06717500  1
loop_
_geom_bond_atom_site_label_1
_geom_bond_atom_site_label_2
_geom_bond_distance
_geom_bond_site_symmetry_2
Li0 O8 1.989515 1_555
Li0 O4 1.997902 1_555
Li0 O0 2.033184 1_555
Li0 O13 2.068887 1_555
Li1 O9 1.990166 1_656
Li1 O5 1.997222 1_556
Li1 O1 2.032594 1_555
Li1 O12 2.069303 1_555
Li2 O10 1.989917 1_554
Li2 O6 1.998080 1_554
Li2 O2 2.032418 1_555
Li2 O15 2.068793 1_555
Li3 O11 1.989709 1_655
Li3 O7 1.997728 1_555
Li3 O3 2.032671 1_555
Li3 O14 2.069336 1_555
Mn0 O6 2.081470 1_555
Mn0 O2 2.087714 1_555
Mn0 O14 2.089448 1_555
Mn0 O11 2.090068 1_555
Mn1 O7 2.081487 1_555
Mn1 O3 2.087096 1_554
Mn1 O10 2.090119 1_554
Mn1 O15 2.090153 1_655
Mn2 O4 2.079732 1_555
Mn2 O0 2.086551 1_556
Mn2 O12 2.091053 1_555
Mn2 O9 2.091337 1_556
Mn3 O5 2.081307 1_555
Mn3 O1 2.086936 1_555
Mn3 O13 2.088759 1_655
Mn3 O8 2.092125 1_555
O0 P3 1.553551 1_545
O1 P2 1.553399 1_555
O2 P1 1.553544 1_555
O3 P0 1.553614 1_565
O4 P0 1.560143 1_455
O5 P1 1.559923 1_555
O6 P2 1.559972 1_455
O7 P3 1.559928 1_555
O8 P0 1.552490 1_555
O9 P1 1.552761 1_555
O10 P2 1.552798 1_555
O11 P3 1.552602 1_555
O12 P0 1.562762 1_555
O13 P1 1.562751 1_555
O14 P2 1.562790 1_555
O15 P3 1.562847 1_555
