# generated using pymatgen
data_Li2CaSi
_symmetry_space_group_name_H-M   'P 1'
_cell_length_a   4.62464209
_cell_length_b   4.62464209
_cell_length_c   4.62464209
_cell_angle_alpha   60.00000000
_cell_angle_beta   60.00000000
_cell_angle_gamma   60.00000000
_symmetry_Int_Tables_number   1
_chemical_formula_structural   Li2CaSi
_chemical_formula_sum   'Li2 Ca1 Si1'
_cell_volume   69.93899441
_cell_formula_units_Z   1
loop_
 _symmetry_equiv_pos_site_id
 _symmetry_equiv_pos_as_xyz
  1  'x, y, z'
loop_
 _atom_site_type_symbol
 _atom_site_label
 _atom_site_symmetry_multiplicity
 _atom_site_fract_x
 _atom_site_fract_y
 _atom_site_fract_z
 _atom_site_occupancy
  Li  Li0  1  -0.00000000  -0.00000000  -0.00000000  1
  Li  Li1  1  0.50000000  0.50000000  0.50000000  1
  Ca  Ca0  1  0.25000000  0.25000000  0.25000000  1
  Si  Si0  1  0.75000100  0.75000100  0.75000100  1
loop_
_geom_bond_atom_site_label_1
_geom_bond_atom_site_label_2
_geom_bond_distance
_geom_bond_site_symmetry_2
Li0 Si0 2.831992 1_444
Li0 Si0 2.832007 1_544
Li0 Si0 2.832007 1_454
Li0 Si0 2.832007 1_445
Li1 Si0 2.832000 1_554
Li1 Si0 2.832000 1_545
Li1 Si0 2.832000 1_455
Li1 Si0 2.832015 1_555
Ca0 Li1 2.832003 1_455
Ca0 Li0 2.832003 1_655
Ca0 Li0 2.832003 1_555
Ca0 Li1 2.832003 1_555
Ca0 Li0 2.832003 1_565
Ca0 Li1 2.832003 1_545
Ca0 Li0 2.832003 1_556
Ca0 Li1 2.832003 1_554
Ca0 Si0 3.270109 1_544
Ca0 Si0 3.270109 1_445
Ca0 Si0 3.270109 1_454
Ca0 Si0 3.270122 1_554
Ca0 Si0 3.270122 1_455
Ca0 Si0 3.270122 1_545
