# generated using pymatgen
data_Li3VCrP2(HO5)2
_symmetry_space_group_name_H-M   'P 1'
_cell_length_a   5.22824300
_cell_length_b   5.57622197
_cell_length_c   7.53242272
_cell_angle_alpha   110.89997842
_cell_angle_beta   106.99775479
_cell_angle_gamma   94.91723561
_symmetry_Int_Tables_number   1
_chemical_formula_structural   Li3VCrP2(HO5)2
_chemical_formula_sum   'Li3 V1 Cr1 P2 H2 O10'
_cell_volume   191.70048333
_cell_formula_units_Z   1
loop_
 _symmetry_equiv_pos_site_id
 _symmetry_equiv_pos_as_xyz
  1  'x, y, z'
loop_
 _atom_site_type_symbol
 _atom_site_label
 _atom_site_symmetry_multiplicity
 _atom_site_fract_x
 _atom_site_fract_y
 _atom_site_fract_z
 _atom_site_occupancy
  Li  Li0  1  0.40645400  0.77524900  0.82843400  1
  Li  Li1  1  0.51405000  0.14720800  0.26054300  1
  Li  Li2  1  0.32381800  0.99301700  0.15632600  1
  V  V0  1  0.48226100  0.48892000  0.50717900  1
  Cr  Cr0  1  0.01130000  0.00866900  0.99153000  1
  P  P0  1  0.12084200  0.41568000  0.22244300  1
  P  P1  1  0.90703300  0.61149600  0.75526800  1
  H  H0  1  0.31685400  0.56289000  0.34803000  1
  H  H1  1  0.69017400  0.39868400  0.66315900  1
  O  O0  1  0.43344700  0.22102400  0.73001100  1
  O  O1  1  0.91412400  0.42195300  0.36602600  1
  O  O2  1  0.99581100  0.98857000  0.66620500  1
  O  O3  1  0.58209600  0.68518400  0.06694200  1
  O  O4  1  0.02287700  0.55397300  0.11196700  1
  O  O5  1  0.99223000  0.45229600  0.87182600  1
  O  O6  1  0.43201900  0.31141700  0.92839800  1
  O  O7  1  0.00648900  0.02152400  0.32444900  1
  O  O8  1  0.11861700  0.64157100  0.59775300  1
  O  O9  1  0.56728800  0.79347100  0.26164200  1
loop_
_geom_bond_atom_site_label_1
_geom_bond_atom_site_label_2
_geom_bond_distance
_geom_bond_site_symmetry_2
Li0 O8 1.787254 1_555
Li0 O3 2.020225 1_556
Li1 Li2 1.122516 1_545
Li1 O9 2.018115 1_545
Li1 V0 2.195196 1_555
Li1 O1 2.228014 1_555
Li2 O9 1.941640 1_555
Li2 O7 2.347653 1_565
Cr0 Li2 1.770336 1_546
Cr0 P1 2.187003 1_445
Cr0 P0 2.209652 1_556
Cr0 O2 2.389659 1_445
Cr0 O7 2.490622 1_556
H0 P0 1.163560 1_555
H0 V0 1.470673 1_555
H1 P1 1.377344 1_555
H1 V0 1.607501 1_555
O0 O6 1.398901 1_555
O1 P0 1.732597 1_655
O3 O9 1.401424 1_555
O3 O6 1.933314 1_554
O4 P0 1.351241 1_555
O5 P1 1.467149 1_555
O8 P1 1.880711 1_455
