# generated using pymatgen
data_Li2Si4(NiO4)3
_symmetry_space_group_name_H-M   'P 1'
_cell_length_a   7.48123800
_cell_length_b   9.93766900
_cell_length_c   13.32537800
_cell_angle_alpha   90.00000000
_cell_angle_beta   90.00000000
_cell_angle_gamma   90.00000000
_symmetry_Int_Tables_number   1
_chemical_formula_structural   Li2Si4(NiO4)3
_chemical_formula_sum   'Li8 Si16 Ni12 O48'
_cell_volume   990.68944498
_cell_formula_units_Z   4
loop_
 _symmetry_equiv_pos_site_id
 _symmetry_equiv_pos_as_xyz
  1  'x, y, z'
loop_
 _atom_site_type_symbol
 _atom_site_label
 _atom_site_symmetry_multiplicity
 _atom_site_fract_x
 _atom_site_fract_y
 _atom_site_fract_z
 _atom_site_occupancy
  Li  Li0  1  0.04323500  0.75000000  0.14416800  1
  Li  Li1  1  0.23283100  0.75000000  0.49728700  1
  Li  Li2  1  0.26716900  0.25000000  0.99728700  1
  Li  Li3  1  0.45676500  0.25000000  0.64416800  1
  Li  Li4  1  0.54323500  0.75000000  0.35583200  1
  Li  Li5  1  0.73283100  0.75000000  0.00271300  1
  Li  Li6  1  0.76716900  0.25000000  0.50271300  1
  Li  Li7  1  0.95676500  0.25000000  0.85583200  1
  Si  Si0  1  0.18311800  0.03703100  0.61770900  1
  Si  Si1  1  0.18311800  0.46296900  0.61770900  1
  Si  Si2  1  0.22009900  0.53735500  0.33552300  1
  Si  Si3  1  0.22009900  0.96264500  0.33552300  1
  Si  Si4  1  0.27990100  0.46264500  0.83552300  1
  Si  Si5  1  0.27990100  0.03735500  0.83552300  1
  Si  Si6  1  0.31688200  0.53703100  0.11770900  1
  Si  Si7  1  0.31688200  0.96296900  0.11770900  1
  Si  Si8  1  0.68311800  0.03703100  0.88229100  1
  Si  Si9  1  0.68311800  0.46296900  0.88229100  1
  Si  Si10  1  0.72009900  0.53735500  0.16447700  1
  Si  Si11  1  0.72009900  0.96264500  0.16447700  1
  Si  Si12  1  0.77990100  0.03735500  0.66447700  1
  Si  Si13  1  0.77990100  0.46264500  0.66447700  1
  Si  Si14  1  0.81688200  0.53703100  0.38229100  1
  Si  Si15  1  0.81688200  0.96296900  0.38229100  1
  Ni  Ni0  1  0.00000000  0.00000000  0.00000000  1
  Ni  Ni1  1  0.00000000  0.50000000  0.00000000  1
  Ni  Ni2  1  0.23641300  0.75000000  0.71461600  1
  Ni  Ni3  1  0.24127800  0.75000000  0.92900500  1
  Ni  Ni4  1  0.25872200  0.25000000  0.42900500  1
  Ni  Ni5  1  0.26358700  0.25000000  0.21461600  1
  Ni  Ni6  1  0.50000000  0.00000000  0.50000000  1
  Ni  Ni7  1  0.50000000  0.50000000  0.50000000  1
  Ni  Ni8  1  0.73641300  0.75000000  0.78538400  1
  Ni  Ni9  1  0.74127800  0.75000000  0.57099500  1
  Ni  Ni10  1  0.75872200  0.25000000  0.07099500  1
  Ni  Ni11  1  0.76358700  0.25000000  0.28538400  1
  O  O0  1  0.02775800  0.58315000  0.38553900  1
  O  O1  1  0.02775800  0.91685000  0.38553900  1
  O  O2  1  0.12469800  0.10520200  0.90375300  1
  O  O3  1  0.12469800  0.39479800  0.90375300  1
  O  O4  1  0.21306400  0.87709500  0.61183800  1
  O  O5  1  0.21306400  0.62290500  0.61183800  1
  O  O6  1  0.20801900  0.61052700  0.02498900  1
  O  O7  1  0.20801900  0.88947300  0.02498900  1
  O  O8  1  0.23740700  0.12622900  0.32305100  1
  O  O9  1  0.23740700  0.37377100  0.32305100  1
  O  O10  1  0.22578000  0.60178200  0.22094700  1
  O  O11  1  0.22578000  0.89821800  0.22094700  1
  O  O12  1  0.27422000  0.10178200  0.72094700  1
  O  O13  1  0.27422000  0.39821800  0.72094700  1
  O  O14  1  0.26259300  0.62622900  0.82305100  1
  O  O15  1  0.26259300  0.87377100  0.82305100  1
  O  O16  1  0.29198100  0.11052700  0.52498900  1
  O  O17  1  0.29198100  0.38947300  0.52498900  1
  O  O18  1  0.28693600  0.37709500  0.11183800  1
  O  O19  1  0.28693600  0.12290500  0.11183800  1
  O  O20  1  0.37530200  0.60520200  0.40375300  1
  O  O21  1  0.37530200  0.89479800  0.40375300  1
  O  O22  1  0.47224200  0.08315000  0.88553900  1
  O  O23  1  0.47224200  0.41685000  0.88553900  1
  O  O24  1  0.52775800  0.91685000  0.11446100  1
  O  O25  1  0.52775800  0.58315000  0.11446100  1
  O  O26  1  0.62469800  0.10520200  0.59624700  1
  O  O27  1  0.62469800  0.39479800  0.59624700  1
  O  O28  1  0.71306400  0.62290500  0.88816200  1
  O  O29  1  0.71306400  0.87709500  0.88816200  1
  O  O30  1  0.70801900  0.61052700  0.47501100  1
  O  O31  1  0.70801900  0.88947300  0.47501100  1
  O  O32  1  0.73740700  0.12622900  0.17694900  1
  O  O33  1  0.73740700  0.37377100  0.17694900  1
  O  O34  1  0.72578000  0.60178200  0.27905300  1
  O  O35  1  0.72578000  0.89821800  0.27905300  1
  O  O36  1  0.77422000  0.10178200  0.77905300  1
  O  O37  1  0.77422000  0.39821800  0.77905300  1
  O  O38  1  0.76259300  0.62622900  0.67694900  1
  O  O39  1  0.76259300  0.87377100  0.67694900  1
  O  O40  1  0.79198100  0.11052700  0.97501100  1
  O  O41  1  0.79198100  0.38947300  0.97501100  1
  O  O42  1  0.78693600  0.12290500  0.38816200  1
  O  O43  1  0.78693600  0.37709500  0.38816200  1
  O  O44  1  0.87530200  0.60520200  0.09624700  1
  O  O45  1  0.87530200  0.89479800  0.09624700  1
  O  O46  1  0.97224200  0.08315000  0.61446100  1
  O  O47  1  0.97224200  0.41685000  0.61446100  1
loop_
_geom_bond_atom_site_label_1
_geom_bond_atom_site_label_2
_geom_bond_distance
_geom_bond_site_symmetry_2
Li0 O45 2.014141 1_455
Li0 O44 2.014141 1_455
Li0 O11 2.254183 1_555
Li0 O10 2.254183 1_555
Li0 O7 2.441914 1_555
Li0 O6 2.441914 1_555
Li1 O4 1.986734 1_555
Li1 O5 1.986734 1_555
Li1 O21 2.181765 1_555
Li1 O20 2.181765 1_555
Li2 O18 1.986734 1_556
Li2 O19 1.986734 1_556
Li2 O3 2.181765 1_555
Li2 O2 2.181765 1_555
Li3 O27 2.014141 1_555
Li3 O26 2.014141 1_555
Li3 O13 2.254183 1_555
Li3 O12 2.254183 1_555
Li3 O17 2.441914 1_555
Li3 O16 2.441914 1_555
Li4 O20 2.014141 1_555
Li4 O21 2.014141 1_555
Li4 O35 2.254183 1_555
Li4 O34 2.254183 1_555
Li4 O31 2.441914 1_555
Li4 O30 2.441914 1_555
Li5 O29 1.986734 1_554
Li5 O28 1.986734 1_554
Li5 O45 2.181765 1_555
Li5 O44 2.181765 1_555
Li6 O43 1.986734 1_555
Li6 O42 1.986734 1_555
Li6 O27 2.181765 1_555
Li6 O26 2.181765 1_555
Li7 O3 2.014141 1_655
Li7 O2 2.014141 1_655
Li7 O37 2.254183 1_555
Li7 O36 2.254183 1_555
Li7 O41 2.441914 1_555
Li7 O40 2.441914 1_555
Ni0 O2 1.899517 1_554
Ni0 O45 1.899517 1_445
Ni0 O7 1.933702 1_545
Ni0 O40 1.933702 1_454
Ni1 O44 1.899517 1_455
Ni1 O3 1.899517 1_554
Ni1 O6 1.933702 1_555
Ni1 O41 1.933702 1_454
Ni2 O4 1.871212 1_555
Ni2 O5 1.871212 1_555
Ni2 O15 1.907641 1_555
Ni2 O14 1.907641 1_555
Ni3 O15 1.879285 1_555
Ni3 O14 1.879285 1_555
Ni3 O7 1.902343 1_556
Ni3 O6 1.902343 1_556
Ni4 O9 1.879285 1_555
Ni4 O8 1.879285 1_555
Ni4 O17 1.902343 1_555
Ni4 O16 1.902343 1_555
Ni5 O18 1.871212 1_555
Ni5 O19 1.871212 1_555
Ni5 O9 1.907641 1_555
Ni5 O8 1.907641 1_555
Ni6 O26 1.899517 1_555
Ni6 O21 1.899517 1_545
Ni6 O16 1.933702 1_555
Ni6 O31 1.933702 1_545
Ni7 O27 1.899517 1_555
Ni7 O20 1.899517 1_555
Ni7 O30 1.933702 1_555
Ni7 O17 1.933702 1_555
Ni8 O29 1.871212 1_555
Ni8 O28 1.871212 1_555
Ni8 O39 1.907641 1_555
Ni8 O38 1.907641 1_555
Ni9 O39 1.879285 1_555
Ni9 O38 1.879285 1_555
Ni9 O31 1.902343 1_555
Ni9 O30 1.902343 1_555
Ni10 O33 1.879285 1_555
Ni10 O32 1.879285 1_555
Ni10 O41 1.902343 1_554
Ni10 O40 1.902343 1_554
Ni11 O43 1.871212 1_555
Ni11 O42 1.871212 1_555
Ni11 O33 1.907641 1_555
Ni11 O32 1.907641 1_555
O0 Si14 1.643408 1_455
O0 Si2 1.649813 1_555
O1 Si15 1.643408 1_455
O1 Si3 1.649813 1_555
O2 Si5 1.621544 1_555
O3 Si4 1.621544 1_555
O4 Si0 1.607008 1_565
O5 Si1 1.607008 1_555
O6 Si6 1.650237 1_555
O7 Si7 1.650237 1_555
O8 Si3 1.639239 1_545
O9 Si2 1.639239 1_555
O10 Si2 1.656126 1_555
O10 Si6 1.664658 1_555
O11 Si3 1.656126 1_555
O11 Si7 1.664658 1_555
O12 Si5 1.656126 1_555
O12 Si0 1.664658 1_555
O13 Si4 1.656126 1_555
O13 Si1 1.664658 1_555
O14 Si4 1.639239 1_555
O15 Si5 1.639239 1_565
O16 Si0 1.650237 1_555
O17 Si1 1.650237 1_555
O18 Si6 1.607008 1_555
O19 Si7 1.607008 1_545
O20 Si2 1.621544 1_555
O21 Si3 1.621544 1_555
O22 Si8 1.643408 1_555
O22 Si5 1.649813 1_555
O23 Si9 1.643408 1_555
O23 Si4 1.649813 1_555
O24 Si7 1.643408 1_555
O24 Si11 1.649813 1_555
O25 Si6 1.643408 1_555
O25 Si10 1.649813 1_555
O26 Si12 1.621544 1_555
O27 Si13 1.621544 1_555
O28 Si9 1.607008 1_555
O29 Si8 1.607008 1_565
O30 Si14 1.650237 1_555
O31 Si15 1.650237 1_555
O32 Si11 1.639239 1_545
O33 Si10 1.639239 1_555
O34 Si10 1.656126 1_555
O34 Si14 1.664658 1_555
O35 Si11 1.656126 1_555
O35 Si15 1.664658 1_555
O36 Si12 1.656126 1_555
O36 Si8 1.664658 1_555
O37 Si13 1.656126 1_555
O37 Si9 1.664658 1_555
O38 Si13 1.639239 1_555
O39 Si12 1.639239 1_565
O40 Si8 1.650237 1_555
O41 Si9 1.650237 1_555
O42 Si15 1.607008 1_545
O43 Si14 1.607008 1_555
O44 Si10 1.621544 1_555
O45 Si11 1.621544 1_555
O46 Si0 1.643408 1_655
O46 Si12 1.649813 1_555
O47 Si1 1.643408 1_655
O47 Si13 1.649813 1_555
