# generated using pymatgen
data_K2Pu2O5
_symmetry_space_group_name_H-M   'P 1'
_cell_length_a   4.28864029
_cell_length_b   4.28862399
_cell_length_c   8.60525538
_cell_angle_alpha   90.00000000
_cell_angle_beta   90.00000000
_cell_angle_gamma   90.00000000
_symmetry_Int_Tables_number   1
_chemical_formula_structural   K2Pu2O5
_chemical_formula_sum   'K2 Pu2 O5'
_cell_volume   158.27100331
_cell_formula_units_Z   1
loop_
 _symmetry_equiv_pos_site_id
 _symmetry_equiv_pos_as_xyz
  1  'x, y, z'
loop_
 _atom_site_type_symbol
 _atom_site_label
 _atom_site_symmetry_multiplicity
 _atom_site_fract_x
 _atom_site_fract_y
 _atom_site_fract_z
 _atom_site_occupancy
  K  K0  1  0.00000000  -0.00000000  0.00000000  1
  K  K1  1  0.00000000  -0.00000000  0.50000000  1
  Pu  Pu0  1  0.50000000  0.50000000  0.74743000  1
  Pu  Pu1  1  0.50000000  0.50000000  0.25257000  1
  O  O0  1  0.00000000  0.50000000  0.78058269  1
  O  O1  1  0.00000000  0.50000000  0.21941731  1
  O  O2  1  0.50000000  0.50000000  0.50000000  1
  O  O3  1  0.50000000  -0.00000000  0.78058269  1
  O  O4  1  0.50000000  -0.00000000  0.21941731  1
loop_
_geom_bond_atom_site_label_1
_geom_bond_atom_site_label_2
_geom_bond_distance
_geom_bond_site_symmetry_2
K0 O1 2.857123 1_555
K0 O1 2.857123 1_545
K0 O0 2.857123 1_554
K0 O0 2.857123 1_544
K0 O3 2.857130 1_454
K0 O3 2.857130 1_554
K0 O4 2.857130 1_455
K0 O4 2.857130 1_555
K1 O2 3.032521 1_545
K1 O2 3.032521 1_555
K1 O2 3.032521 1_445
K1 O2 3.032521 1_455
K1 O1 3.229213 1_545
K1 O0 3.229213 1_555
K1 O1 3.229213 1_555
K1 O0 3.229213 1_545
K1 O3 3.229218 1_455
K1 O3 3.229218 1_555
K1 O4 3.229218 1_455
K1 O4 3.229218 1_555
O0 Pu0 2.163215 1_555
O0 Pu0 2.163215 1_455
O1 Pu1 2.163215 1_455
O1 Pu1 2.163215 1_555
O2 Pu1 2.129198 1_555
O2 Pu0 2.129198 1_555
O3 Pu0 2.163207 1_545
O3 Pu0 2.163207 1_555
O4 Pu1 2.163207 1_555
O4 Pu1 2.163207 1_545
