# generated using pymatgen
data_V3Au
_symmetry_space_group_name_H-M   'P 1'
_cell_length_a   4.85320954
_cell_length_b   4.85317936
_cell_length_c   4.85318408
_cell_angle_alpha   89.99999740
_cell_angle_beta   90.00000024
_cell_angle_gamma   90.00000094
_symmetry_Int_Tables_number   1
_chemical_formula_structural   V3Au
_chemical_formula_sum   'V6 Au2'
_cell_volume   114.30945361
_cell_formula_units_Z   2
loop_
 _symmetry_equiv_pos_site_id
 _symmetry_equiv_pos_as_xyz
  1  'x, y, z'
loop_
 _atom_site_type_symbol
 _atom_site_label
 _atom_site_symmetry_multiplicity
 _atom_site_fract_x
 _atom_site_fract_y
 _atom_site_fract_z
 _atom_site_occupancy
  V  V0  1  0.49999990  0.24999789  0.00000001  1
  V  V1  1  0.49999992  0.75000211  0.00000001  1
  V  V2  1  0.25000057  0.00000002  0.50000000  1
  V  V3  1  0.74999944  0.00000000  0.49999998  1
  V  V4  1  0.00000100  0.49999999  0.25000185  1
  V  V5  1  0.00000099  0.49999999  0.74999815  1
  Au  Au0  1  0.50000223  0.49999999  0.49999997  1
  Au  Au1  1  -0.00000204  0.00000001  0.00000003  1
loop_
_geom_bond_atom_site_label_1
_geom_bond_atom_site_label_2
_geom_bond_distance
_geom_bond_site_symmetry_2
V0 V1 2.426569 1_545
V0 V1 2.426610 1_555
V2 V3 2.426599 1_555
V2 V3 2.426610 1_455
V4 V5 2.426574 1_555
V4 V5 2.426610 1_554
Au0 V3 2.713007 1_555
Au0 V3 2.713007 1_565
Au0 V4 2.713014 1_655
Au0 V5 2.713014 1_655
Au0 V1 2.713016 1_555
Au0 V0 2.713016 1_555
Au0 V0 2.713017 1_556
Au0 V2 2.713017 1_555
Au0 V1 2.713017 1_556
Au0 V2 2.713017 1_565
Au0 V4 2.713025 1_555
Au0 V5 2.713025 1_555
Au1 V1 2.713010 1_445
Au1 V0 2.713010 1_455
Au1 V3 2.713012 1_455
Au1 V3 2.713012 1_454
Au1 V4 2.713014 1_555
Au1 V5 2.713014 1_554
Au1 V4 2.713014 1_545
Au1 V5 2.713014 1_544
Au1 V2 2.713021 1_555
Au1 V2 2.713021 1_554
Au1 V0 2.713027 1_555
Au1 V1 2.713027 1_545
