# generated using pymatgen
data_AcTiO3
_symmetry_space_group_name_H-M   'P 1'
_cell_length_a   3.99582001
_cell_length_b   3.99582001
_cell_length_c   3.99582001
_cell_angle_alpha   90.00000000
_cell_angle_beta   90.00000000
_cell_angle_gamma   90.00000000
_symmetry_Int_Tables_number   1
_chemical_formula_structural   AcTiO3
_chemical_formula_sum   'Ac1 Ti1 O3'
_cell_volume   63.79957007
_cell_formula_units_Z   1
loop_
 _symmetry_equiv_pos_site_id
 _symmetry_equiv_pos_as_xyz
  1  'x, y, z'
loop_
 _atom_site_type_symbol
 _atom_site_label
 _atom_site_symmetry_multiplicity
 _atom_site_fract_x
 _atom_site_fract_y
 _atom_site_fract_z
 _atom_site_occupancy
  Ac  Ac0  1  -0.00000000  -0.00000000  -0.00000000  1
  Ti  Ti0  1  0.49999900  0.49999900  0.49999900  1
  O  O0  1  0.49999900  0.49999900  -0.00000000  1
  O  O1  1  0.49999900  0.00000000  0.49999900  1
  O  O2  1  -0.00000000  0.49999900  0.49999900  1
loop_
_geom_bond_atom_site_label_1
_geom_bond_atom_site_label_2
_geom_bond_distance
_geom_bond_site_symmetry_2
Ac0 O1 2.825466 1_555
Ac0 O0 2.825466 1_555
Ac0 O2 2.825466 1_555
Ac0 O2 2.825471 1_554
Ac0 O0 2.825471 1_455
Ac0 O0 2.825471 1_545
Ac0 O2 2.825471 1_545
Ac0 O1 2.825471 1_455
Ac0 O1 2.825471 1_554
Ac0 O2 2.825477 1_544
Ac0 O1 2.825477 1_454
Ac0 O0 2.825477 1_445
O0 Ti0 1.997906 1_555
O0 Ti0 1.997914 1_554
O1 Ti0 1.997906 1_555
O1 Ti0 1.997914 1_545
O2 Ti0 1.997906 1_555
O2 Ti0 1.997914 1_455
