# generated using pymatgen
data_Li2Cr2FeSbO8
_symmetry_space_group_name_H-M   'P 1'
_cell_length_a   5.98894800
_cell_length_b   9.66813984
_cell_length_c   10.33666095
_cell_angle_alpha   90.12983274
_cell_angle_beta   90.18053476
_cell_angle_gamma   90.07746199
_symmetry_Int_Tables_number   1
_chemical_formula_structural   Li2Cr2FeSbO8
_chemical_formula_sum   'Li8 Cr8 Fe4 Sb4 O32'
_cell_volume   598.50814475
_cell_formula_units_Z   4
loop_
 _symmetry_equiv_pos_site_id
 _symmetry_equiv_pos_as_xyz
  1  'x, y, z'
loop_
 _atom_site_type_symbol
 _atom_site_label
 _atom_site_symmetry_multiplicity
 _atom_site_fract_x
 _atom_site_fract_y
 _atom_site_fract_z
 _atom_site_occupancy
  Li  Li0  1  0.00024900  0.09069700  0.66732200  1
  Li  Li1  1  0.99935700  0.00097800  0.99723200  1
  Li  Li2  1  0.99958500  0.50331000  0.99924200  1
  Li  Li3  1  0.00077600  0.58944800  0.33356700  1
  Li  Li4  1  0.49941000  0.09010000  0.16733500  1
  Li  Li5  1  0.50092500  0.59030300  0.83390300  1
  Li  Li6  1  0.50024800  0.00137500  0.50022200  1
  Li  Li7  1  0.49983600  0.50255300  0.49993200  1
  Cr  Cr0  1  0.00079400  0.27970600  0.17080100  1
  Cr  Cr1  1  0.75508800  0.27912400  0.41535500  1
  Cr  Cr2  1  0.74336200  0.77929400  0.08289900  1
  Cr  Cr3  1  0.50096900  0.27814700  0.66971700  1
  Cr  Cr4  1  0.49873800  0.77965100  0.32951800  1
  Cr  Cr5  1  0.25703800  0.27879200  0.91536900  1
  Cr  Cr6  1  0.24302500  0.77914200  0.58610000  1
  Cr  Cr7  1  0.24562700  0.27892100  0.41544400  1
  Fe  Fe0  1  0.99932500  0.77748200  0.82775300  1
  Fe  Fe1  1  0.75249800  0.77822200  0.58767600  1
  Fe  Fe2  1  0.74654800  0.27843700  0.91517200  1
  Fe  Fe3  1  0.25460900  0.77933600  0.08170900  1
  Sb  Sb0  1  0.00243100  0.50506500  0.66699600  1
  Sb  Sb1  1  0.99848600  0.00582800  0.33287400  1
  Sb  Sb2  1  0.50086300  0.50524700  0.16799200  1
  Sb  Sb3  1  0.49786400  0.00456500  0.83303400  1
  O  O0  1  0.99718300  0.88258600  0.67032200  1
  O  O1  1  0.00036900  0.14963900  0.48166500  1
  O  O2  1  0.00024300  0.69047500  0.99440300  1
  O  O3  1  0.99898900  0.18773800  0.99927600  1
  O  O4  1  0.00485500  0.39672700  0.83338000  1
  O  O5  1  0.99747700  0.89779000  0.16541300  1
  O  O6  1  0.00043100  0.38404000  0.33448400  1
  O  O7  1  0.00356400  0.64683600  0.51909000  1
  O  O8  1  0.77829100  0.15048300  0.25892900  1
  O  O9  1  0.78208700  0.64665400  0.74463300  1
  O  O10  1  0.74887200  0.89829800  0.41658900  1
  O  O11  1  0.74942200  0.39782300  0.58321600  1
  O  O12  1  0.75045200  0.89681200  0.91544400  1
  O  O13  1  0.75223400  0.39789600  0.08558600  1
  O  O14  1  0.71919400  0.14577600  0.75701700  1
  O  O15  1  0.72206100  0.65129700  0.24093200  1
  O  O16  1  0.49673600  0.88454600  0.16489800  1
  O  O17  1  0.49586400  0.14611400  0.98202600  1
  O  O18  1  0.50106300  0.68861200  0.50105500  1
  O  O19  1  0.49637300  0.89711600  0.66607000  1
  O  O20  1  0.50402100  0.38445500  0.83451800  1
  O  O21  1  0.50023400  0.18632700  0.49936700  1
  O  O22  1  0.50352100  0.64586500  0.01855200  1
  O  O23  1  0.50084800  0.39715100  0.33523000  1
  O  O24  1  0.27817200  0.15083300  0.75887400  1
  O  O25  1  0.27935700  0.64678600  0.24216600  1
  O  O26  1  0.24551700  0.89671500  0.91360900  1
  O  O27  1  0.24868400  0.39829100  0.08338500  1
  O  O28  1  0.24970500  0.89780900  0.41729300  1
  O  O29  1  0.25422200  0.39771800  0.58324200  1
  O  O30  1  0.22148500  0.14929000  0.25935300  1
  O  O31  1  0.22112800  0.65210200  0.74251600  1
loop_
_geom_bond_atom_site_label_1
_geom_bond_atom_site_label_2
_geom_bond_distance
_geom_bond_site_symmetry_2
Li0 O14 1.996605 1_455
Li0 O24 1.997249 1_555
Li0 O1 2.003134 1_555
Li0 O0 2.012415 1_445
Li1 O3 1.805702 1_555
Li1 O12 1.983740 1_545
Li1 O26 1.986143 1_645
Li1 O5 2.006364 1_546
Li2 O2 1.810341 1_655
Li2 O4 1.998658 1_655
Li2 O27 2.003223 1_656
Li2 O13 2.009500 1_556
Li3 O6 1.985956 1_555
Li3 O7 1.995144 1_555
Li3 O25 1.998326 1_555
Li3 O15 2.013932 1_455
Li4 O16 1.987470 1_545
Li4 O17 1.991797 1_554
Li4 O8 2.002916 1_555
Li4 O30 2.003186 1_555
Li5 O22 1.981643 1_556
Li5 O20 1.990303 1_555
Li5 O9 1.998320 1_555
Li5 O31 2.013094 1_555
Li6 O21 1.788184 1_555
Li6 O19 1.990848 1_545
Li6 O10 1.991432 1_545
Li6 O28 1.993188 1_545
Li7 O18 1.798861 1_555
Li7 O23 1.982196 1_555
Li7 O29 1.985078 1_555
Li7 O11 2.000148 1_555
Cr0 O6 1.967855 1_555
Cr0 O3 1.981652 1_454
Cr0 O8 2.043212 1_455
Cr0 O30 2.043691 1_555
Cr0 O13 2.073271 1_455
Cr0 O27 2.084110 1_555
Cr1 O6 1.973376 1_655
Cr1 O21 1.974042 1_555
Cr1 O8 2.042879 1_555
Cr1 O1 2.048759 1_655
Cr1 O23 2.075453 1_555
Cr1 O11 2.078518 1_555
Cr2 O16 1.985843 1_555
Cr2 O2 1.987426 1_654
Cr2 O22 2.038343 1_555
Cr2 O15 2.055758 1_555
Cr2 O12 2.073176 1_554
Cr2 O5 2.082967 1_555
Cr3 O21 1.970160 1_555
Cr3 O20 1.987564 1_555
Cr3 O24 2.037957 1_555
Cr3 O14 2.040235 1_555
Cr3 O29 2.078493 1_555
Cr3 O11 2.088229 1_555
Cr4 O18 1.981366 1_555
Cr4 O16 1.982892 1_555
Cr4 O15 2.043111 1_555
Cr4 O25 2.043111 1_555
Cr4 O10 2.086186 1_555
Cr4 O28 2.088312 1_555
Cr5 O3 1.980866 1_455
Cr5 O20 1.984326 1_555
Cr5 O24 2.038600 1_555
Cr5 O17 2.041750 1_555
Cr5 O4 2.073725 1_555
Cr5 O27 2.084495 1_556
Cr6 O0 1.983433 1_455
Cr6 O18 1.983879 1_555
Cr6 O31 2.037100 1_555
Cr6 O7 2.038988 1_555
Cr6 O19 2.066290 1_555
Cr6 O28 2.090918 1_555
Cr7 O21 1.969240 1_555
Cr7 O6 1.972243 1_555
Cr7 O30 2.045427 1_555
Cr7 O1 2.047821 1_555
Cr7 O29 2.078568 1_555
Cr7 O23 2.082778 1_555
Fe0 O2 1.918731 1_655
Fe0 O0 1.920491 1_555
Fe0 O9 2.003579 1_555
Fe0 O31 2.004278 1_655
Fe0 O26 2.067104 1_655
Fe0 O12 2.093470 1_555
Fe1 O18 1.950452 1_555
Fe1 O0 1.969648 1_555
Fe1 O9 2.071183 1_555
Fe1 O19 2.083084 1_555
Fe1 O7 2.094002 1_655
Fe1 O10 2.117734 1_555
Fe2 O3 1.951712 1_555
Fe2 O20 1.963577 1_555
Fe2 O14 2.081504 1_555
Fe2 O17 2.091304 1_555
Fe2 O4 2.103266 1_655
Fe2 O13 2.104348 1_556
Fe3 O2 1.964050 1_554
Fe3 O16 1.964949 1_555
Fe3 O26 2.078113 1_554
Fe3 O22 2.078733 1_555
Fe3 O25 2.103273 1_555
Fe3 O5 2.107197 1_455
O1 Sb1 2.070967 1_455
O4 Sb0 2.015754 1_555
O5 Sb1 2.019681 1_565
O7 Sb0 2.055649 1_555
O8 Sb1 2.069467 1_555
O9 Sb0 2.065408 1_655
O10 Sb1 2.018026 1_565
O11 Sb0 2.025933 1_655
O12 Sb3 2.024712 1_565
O13 Sb2 2.019268 1_555
O14 Sb3 2.060314 1_555
O15 Sb2 2.073898 1_555
O17 Sb3 2.058017 1_555
O19 Sb3 2.012353 1_565
O22 Sb2 2.060165 1_555
O23 Sb2 2.022063 1_555
O24 Sb3 2.078974 1_555
O25 Sb2 2.055922 1_555
O26 Sb3 2.018053 1_565
O27 Sb2 2.024465 1_555
O28 Sb1 2.028753 1_465
O29 Sb0 2.027058 1_555
O30 Sb1 2.071508 1_455
O31 Sb0 2.080679 1_555
