# generated using pymatgen
data_LiFe(Si2O5)2
_symmetry_space_group_name_H-M   'P 1'
_cell_length_a   5.25851500
_cell_length_b   7.85472500
_cell_length_c   12.08244346
_cell_angle_alpha   67.24685981
_cell_angle_beta   90.00000000
_cell_angle_gamma   90.00000000
_symmetry_Int_Tables_number   1
_chemical_formula_structural   LiFe(Si2O5)2
_chemical_formula_sum   'Li2 Fe2 Si8 O20'
_cell_volume   460.21891771
_cell_formula_units_Z   2
loop_
 _symmetry_equiv_pos_site_id
 _symmetry_equiv_pos_as_xyz
  1  'x, y, z'
loop_
 _atom_site_type_symbol
 _atom_site_label
 _atom_site_symmetry_multiplicity
 _atom_site_fract_x
 _atom_site_fract_y
 _atom_site_fract_z
 _atom_site_occupancy
  Li  Li0  1  0.25404900  0.50000000  0.75000000  1
  Li  Li1  1  0.74595100  0.50000000  0.25000000  1
  Fe  Fe0  1  0.75363500  0.50000000  0.75000000  1
  Fe  Fe1  1  0.24636500  0.50000000  0.25000000  1
  Si  Si0  1  0.47919300  0.79401900  0.50012000  1
  Si  Si1  1  0.01997300  0.20596400  0.64766300  1
  Si  Si2  1  0.01997300  0.79403600  0.85233700  1
  Si  Si3  1  0.47919300  0.20598100  0.99988000  1
  Si  Si4  1  0.52080700  0.79401900  0.00012000  1
  Si  Si5  1  0.98002700  0.20596400  0.14766300  1
  Si  Si6  1  0.98002700  0.79403600  0.35233700  1
  Si  Si7  1  0.52080700  0.20598100  0.49988000  1
  O  O0  1  0.50000000  0.00000000  0.50000000  1
  O  O1  1  0.51438200  0.63875500  0.63511400  1
  O  O2  1  0.99318600  0.36033200  0.70588100  1
  O  O3  1  0.80444200  0.23646800  0.54437000  1
  O  O4  1  0.30495500  0.22867900  0.59023700  1
  O  O5  1  0.99318600  0.63966800  0.79411900  1
  O  O6  1  0.51438200  0.36124500  0.86488600  1
  O  O7  1  0.98460400  0.00000000  0.75000000  1
  O  O8  1  0.30495500  0.77132100  0.90976300  1
  O  O9  1  0.19555800  0.23646800  0.04437000  1
  O  O10  1  0.80444200  0.76353200  0.95563000  1
  O  O11  1  0.69504500  0.22867900  0.09023700  1
  O  O12  1  0.50000000  0.00000000  0.00000000  1
  O  O13  1  0.01539600  0.00000000  0.25000000  1
  O  O14  1  0.48561800  0.63875500  0.13511400  1
  O  O15  1  0.00681400  0.36033200  0.20588100  1
  O  O16  1  0.69504500  0.77132100  0.40976300  1
  O  O17  1  0.19555800  0.76353200  0.45563000  1
  O  O18  1  0.00681400  0.63966800  0.29411900  1
  O  O19  1  0.48561800  0.36124500  0.36488600  1
loop_
_geom_bond_atom_site_label_1
_geom_bond_atom_site_label_2
_geom_bond_distance
_geom_bond_site_symmetry_2
Li0 O6 1.954098 1_555
Li0 O1 1.954098 1_555
Li0 O2 1.954929 1_455
Li0 O5 1.954929 1_455
Li1 O19 1.954098 1_555
Li1 O14 1.954098 1_555
Li1 O18 1.954929 1_655
Li1 O15 1.954929 1_655
Fe0 O5 1.877989 1_555
Fe0 O2 1.877989 1_555
Fe0 O6 1.878108 1_555
Fe0 O1 1.878108 1_555
Fe1 O18 1.877989 1_555
Fe1 O15 1.877989 1_555
Fe1 O19 1.878108 1_555
Fe1 O14 1.878108 1_555
O0 Si7 1.621061 1_555
O0 Si0 1.621061 1_545
O1 Si0 1.625804 1_555
O2 Si1 1.626215 1_655
O3 Si1 1.633469 1_655
O3 Si7 1.634149 1_555
O4 Si7 1.631745 1_555
O4 Si1 1.631945 1_555
O5 Si2 1.626215 1_655
O6 Si3 1.625804 1_555
O7 Si1 1.622773 1_655
O7 Si2 1.622773 1_645
O8 Si4 1.631745 1_556
O8 Si2 1.631945 1_555
O9 Si5 1.633469 1_455
O9 Si3 1.634149 1_554
O10 Si2 1.633469 1_655
O10 Si4 1.634149 1_556
O11 Si3 1.631745 1_554
O11 Si5 1.631945 1_555
O12 Si3 1.621061 1_554
O12 Si4 1.621061 1_545
O13 Si5 1.622773 1_455
O13 Si6 1.622773 1_445
O14 Si4 1.625804 1_555
O15 Si5 1.626215 1_455
O16 Si0 1.631745 1_555
O16 Si6 1.631945 1_555
O17 Si6 1.633469 1_455
O17 Si0 1.634149 1_555
O18 Si6 1.626215 1_455
O19 Si7 1.625804 1_555
