# generated using pymatgen
data_V4(OF3)3
_symmetry_space_group_name_H-M   'P 1'
_cell_length_a   5.27839907
_cell_length_b   5.27839907
_cell_length_c   8.82286905
_cell_angle_alpha   73.97425369
_cell_angle_beta   73.97425369
_cell_angle_gamma   57.70697921
_symmetry_Int_Tables_number   1
_chemical_formula_structural   V4(OF3)3
_chemical_formula_sum   'V4 O3 F9'
_cell_volume   197.20452357
_cell_formula_units_Z   1
loop_
 _symmetry_equiv_pos_site_id
 _symmetry_equiv_pos_as_xyz
  1  'x, y, z'
loop_
 _atom_site_type_symbol
 _atom_site_label
 _atom_site_symmetry_multiplicity
 _atom_site_fract_x
 _atom_site_fract_y
 _atom_site_fract_z
 _atom_site_occupancy
  V  V0  1  0.75129554  0.47208744  0.62301870  1
  V  V1  1  0.52791256  0.24870446  0.37698130  1
  V  V2  1  0.21564721  0.02342515  0.12891727  1
  V  V3  1  0.97657485  0.78435279  0.87108273  1
  O  O0  1  0.71256486  0.28743514  0.50000000  1
  O  O1  1  0.82959863  0.15433178  0.79422774  1
  O  O2  1  0.84566822  0.17040137  0.20577226  1
  F  F0  1  0.32452364  0.67827518  0.30150283  1
  F  F1  1  0.32172482  0.67547636  0.69849717  1
  F  F2  1  0.77235112  0.70813572  0.75142723  1
  F  F3  1  0.17753391  0.31719871  0.55019814  1
  F  F4  1  0.17871573  0.33434521  0.94623671  1
  F  F5  1  0.29186428  0.22764888  0.24857277  1
  F  F6  1  0.22556657  0.77443343  0.00000000  1
  F  F7  1  0.66565479  0.82128427  0.05376329  1
  F  F8  1  0.68280129  0.82246609  0.44980186  1
loop_
_geom_bond_atom_site_label_1
_geom_bond_atom_site_label_2
_geom_bond_distance
_geom_bond_site_symmetry_2
O0 V0 1.757651 1_555
O0 V1 1.757651 1_555
O1 V3 1.678073 1_545
O1 V0 1.863027 1_555
O2 V2 1.678073 1_655
O2 V1 1.863027 1_555
F0 V1 1.922850 1_555
F0 V2 1.949549 1_565
F1 V0 1.922850 1_555
F1 V3 1.949549 1_455
F2 V3 1.940262 1_555
F2 V0 1.960910 1_555
F3 V0 1.915610 1_455
F3 V1 1.979086 1_555
F4 V2 1.923627 1_556
F4 V3 2.008293 1_455
F5 V2 1.940262 1_555
F5 V1 1.960910 1_555
F6 V3 1.934623 1_454
F6 V2 1.934623 1_565
F7 V3 1.923627 1_554
F7 V2 2.008293 1_565
F8 V1 1.915610 1_565
F8 V0 1.979086 1_555
