# generated using pymatgen
data_Li3Mn5(CuO6)2
_symmetry_space_group_name_H-M   'P 1'
_cell_length_a   5.17573955
_cell_length_b   5.17574029
_cell_length_c   9.75420782
_cell_angle_alpha   85.77704517
_cell_angle_beta   94.22295887
_cell_angle_gamma   62.08941745
_symmetry_Int_Tables_number   1
_chemical_formula_structural   Li3Mn5(CuO6)2
_chemical_formula_sum   'Li3 Mn5 Cu2 O12'
_cell_volume   228.53796166
_cell_formula_units_Z   1
loop_
 _symmetry_equiv_pos_site_id
 _symmetry_equiv_pos_as_xyz
  1  'x, y, z'
loop_
 _atom_site_type_symbol
 _atom_site_label
 _atom_site_symmetry_multiplicity
 _atom_site_fract_x
 _atom_site_fract_y
 _atom_site_fract_z
 _atom_site_occupancy
  Li  Li0  1  0.32346500  0.86047900  0.98634000  1
  Li  Li1  1  0.86047900  0.32346500  0.51366000  1
  Li  Li2  1  0.91846400  0.91846400  0.75000000  1
  Mn  Mn0  1  0.07526100  0.07526100  0.25000000  1
  Mn  Mn1  1  0.41045600  0.41045600  0.25000000  1
  Mn  Mn2  1  0.58251000  0.58251000  0.75000000  1
  Mn  Mn3  1  0.50370100  0.99783500  0.50705400  1
  Mn  Mn4  1  0.99783500  0.50370100  0.99294600  1
  Cu  Cu0  1  0.26402600  0.26402600  0.75000000  1
  Cu  Cu1  1  0.74916100  0.74916100  0.25000000  1
  O  O0  1  0.16778000  0.31397800  0.38254800  1
  O  O1  1  0.06889700  0.74320800  0.13857100  1
  O  O2  1  0.31397800  0.16778000  0.11745200  1
  O  O3  1  0.28728200  0.55346000  0.85697400  1
  O  O4  1  0.25570700  0.96281900  0.64469600  1
  O  O5  1  0.55346000  0.28728200  0.64302600  1
  O  O6  1  0.43198100  0.73732800  0.34968000  1
  O  O7  1  0.74320800  0.06889700  0.36142900  1
  O  O8  1  0.73732800  0.43198100  0.15032000  1
  O  O9  1  0.65673200  0.80945000  0.88221700  1
  O  O10  1  0.96281900  0.25570700  0.85530400  1
  O  O11  1  0.80945000  0.65673200  0.61778300  1
loop_
_geom_bond_atom_site_label_1
_geom_bond_atom_site_label_2
_geom_bond_distance
_geom_bond_site_symmetry_2
Li0 O9 1.986852 1_555
Li0 O2 2.098430 1_566
Li0 O3 2.166000 1_555
Li0 O10 2.234115 1_465
Li0 O1 2.283290 1_556
Li0 O8 2.567268 1_556
Li1 O11 1.986853 1_555
Li1 O0 2.098430 1_655
Li1 O5 2.166000 1_555
Li1 O4 2.234115 1_645
Li1 O7 2.283290 1_555
Li1 O6 2.567268 1_555
Li2 O3 2.083716 1_655
Li2 O5 2.083716 1_565
Li2 O9 2.163884 1_555
Li2 O11 2.163884 1_555
Li2 O4 2.181495 1_655
Li2 O10 2.181495 1_565
Mn0 O6 1.968582 1_545
Mn0 O8 1.968582 1_455
Mn0 O2 2.031112 1_555
Mn0 O0 2.031112 1_555
Mn0 O7 2.111617 1_455
Mn0 O1 2.111617 1_545
Mn1 O1 1.965620 1_555
Mn1 O7 1.965620 1_555
Mn1 O8 2.054930 1_555
Mn1 O6 2.054931 1_555
Mn1 O0 2.056646 1_555
Mn1 O2 2.056646 1_555
Mn2 O11 1.939853 1_555
Mn2 O9 1.939853 1_555
Mn2 O3 1.968004 1_555
Mn2 O5 1.968004 1_555
Mn2 O10 2.029773 1_555
Mn2 O4 2.029773 1_555
Mn3 O11 1.907767 1_555
Mn3 O0 1.976913 1_565
Mn3 O4 1.979555 1_555
Mn3 O7 2.073371 1_565
Mn3 O5 2.161765 1_565
Mn3 O6 2.236430 1_555
Mn4 O9 1.907767 1_555
Mn4 O2 1.976913 1_656
Mn4 O10 1.979555 1_555
Mn4 O1 2.073371 1_656
Mn4 O3 2.161765 1_655
Mn4 O8 2.236430 1_556
Cu0 O5 1.930776 1_555
Cu0 O3 1.930777 1_555
Cu0 O10 1.944081 1_455
Cu0 O4 1.944081 1_545
Cu0 O11 2.453595 1_455
Cu0 O9 2.453596 1_545
Cu1 O6 1.991114 1_555
Cu1 O8 1.991114 1_555
Cu1 O1 2.035436 1_655
Cu1 O7 2.035436 1_565
Cu1 O2 2.455423 1_565
Cu1 O0 2.455423 1_655
