# generated using pymatgen
data_Li4Cu3Sn(PO4)4
_symmetry_space_group_name_H-M   'P 1'
_cell_length_a   6.00254300
_cell_length_b   4.82272100
_cell_length_c   10.66230554
_cell_angle_alpha   88.07335128
_cell_angle_beta   90.00000000
_cell_angle_gamma   90.00000000
_symmetry_Int_Tables_number   1
_chemical_formula_structural   Li4Cu3Sn(PO4)4
_chemical_formula_sum   'Li4 Cu3 Sn1 P4 O16'
_cell_volume   308.48422466
_cell_formula_units_Z   1
loop_
 _symmetry_equiv_pos_site_id
 _symmetry_equiv_pos_as_xyz
  1  'x, y, z'
loop_
 _atom_site_type_symbol
 _atom_site_label
 _atom_site_symmetry_multiplicity
 _atom_site_fract_x
 _atom_site_fract_y
 _atom_site_fract_z
 _atom_site_occupancy
  Li  Li0  1  0.23312100  0.02326500  0.02295900  1
  Li  Li1  1  0.76687900  0.02326500  0.02295900  1
  Li  Li2  1  0.76334400  0.49830600  0.48133400  1
  Li  Li3  1  0.23665600  0.49830600  0.48133400  1
  Cu  Cu0  1  0.00000000  0.99725600  0.27974300  1
  Cu  Cu1  1  0.00000000  0.47650100  0.80368600  1
  Cu  Cu2  1  0.50000000  0.51723200  0.22452900  1
  Sn  Sn0  1  0.50000000  0.98602700  0.71375500  1
  P  P0  1  0.50000000  0.08327400  0.40765700  1
  P  P1  1  0.50000000  0.40194400  0.89586700  1
  P  P2  1  0.00000000  0.59185000  0.09595900  1
  P  P3  1  0.00000000  0.91846500  0.59106800  1
  O  O0  1  0.50000000  0.21742900  0.54628500  1
  O  O1  1  0.29241500  0.21599200  0.34160000  1
  O  O2  1  0.70758500  0.21599200  0.34160000  1
  O  O3  1  0.00000000  0.23374500  0.58763200  1
  O  O4  1  0.00000000  0.27370100  0.09110400  1
  O  O5  1  0.29888800  0.26347500  0.82321500  1
  O  O6  1  0.70111200  0.26347500  0.82321500  1
  O  O7  1  0.50000000  0.29418300  0.03185000  1
  O  O8  1  0.00000000  0.73102600  0.96104900  1
  O  O9  1  0.79200300  0.71589000  0.16541600  1
  O  O10  1  0.20799700  0.71589000  0.16541600  1
  O  O11  1  0.50000000  0.72137200  0.87980000  1
  O  O12  1  0.50000000  0.76786000  0.42329300  1
  O  O13  1  0.79236400  0.78783200  0.66684900  1
  O  O14  1  0.20763600  0.78783200  0.66684900  1
  O  O15  1  0.00000000  0.77861500  0.46397500  1
loop_
_geom_bond_atom_site_label_1
_geom_bond_atom_site_label_2
_geom_bond_distance
_geom_bond_site_symmetry_2
Li0 O4 2.000940 1_555
Li0 O7 2.071394 1_555
Li0 O10 2.091871 1_545
Li0 O8 2.107785 1_544
Li0 O5 2.422343 1_554
Li1 O4 2.000940 1_655
Li1 O7 2.071394 1_555
Li1 O9 2.091871 1_545
Li1 O8 2.107785 1_644
Li1 O6 2.422343 1_554
Li2 O15 1.965417 1_655
Li2 O2 2.078923 1_555
Li2 O12 2.125455 1_555
Li2 O0 2.179485 1_555
Li2 O3 2.198449 1_655
Li2 O13 2.465415 1_555
Li3 O15 1.965417 1_555
Li3 O1 2.078923 1_555
Li3 O12 2.125455 1_555
Li3 O0 2.179485 1_555
Li3 O3 2.198449 1_555
Li3 O14 2.465415 1_555
Cu0 O2 2.162276 1_465
Cu0 O1 2.162276 1_565
Cu0 O15 2.198000 1_555
Cu0 O9 2.235453 1_455
Cu0 O10 2.235453 1_555
Cu0 O4 2.375415 1_565
Cu1 O5 2.074417 1_555
Cu1 O6 2.074417 1_455
Cu1 O8 2.111975 1_555
Cu1 O14 2.406063 1_555
Cu1 O13 2.406063 1_455
Cu1 O3 2.618915 1_555
Cu2 O9 2.084879 1_555
Cu2 O10 2.084879 1_555
Cu2 O1 2.258188 1_555
Cu2 O2 2.258188 1_555
Cu2 O7 2.350809 1_555
Cu2 O12 2.474788 1_555
O0 P0 1.633298 1_555
O0 Sn0 2.073611 1_545
O1 P0 1.558218 1_555
O2 P0 1.558218 1_555
O3 P3 1.519717 1_545
O4 P2 1.536955 1_555
O5 P1 1.593139 1_555
O5 Sn0 2.171359 1_545
O6 P1 1.593139 1_555
O6 Sn0 2.171359 1_545
O7 P1 1.523683 1_554
O8 P2 1.566762 1_556
O9 P2 1.579516 1_655
O10 P2 1.579516 1_555
O11 P1 1.544273 1_555
O11 Sn0 2.147450 1_555
O12 P0 1.524681 1_565
O13 P3 1.602784 1_655
O13 Sn0 2.067769 1_555
O14 P3 1.602784 1_555
O14 Sn0 2.067769 1_555
O15 P3 1.533837 1_555
