# generated using pymatgen
data_Cs2KU2(Si2O7)2
_symmetry_space_group_name_H-M   'P 1'
_cell_length_a   7.28732350
_cell_length_b   7.28732350
_cell_length_c   7.69981600
_cell_angle_alpha   90.00000000
_cell_angle_beta   90.00000000
_cell_angle_gamma   108.24301286
_symmetry_Int_Tables_number   1
_chemical_formula_structural   Cs2KU2(Si2O7)2
_chemical_formula_sum   'Cs2 K1 U2 Si4 O14'
_cell_volume   388.34699058
_cell_formula_units_Z   1
loop_
 _symmetry_equiv_pos_site_id
 _symmetry_equiv_pos_as_xyz
  1  'x, y, z'
loop_
 _atom_site_type_symbol
 _atom_site_label
 _atom_site_symmetry_multiplicity
 _atom_site_fract_x
 _atom_site_fract_y
 _atom_site_fract_z
 _atom_site_occupancy
  Cs  Cs0  1  0.78325200  0.21674800  0.00000000  1
  Cs  Cs1  1  0.21674800  0.78325200  0.00000000  1
  K  K0  1  0.00000000  0.00000000  0.50000000  1
  U  U0  1  0.50000000  0.00000000  0.50000000  1
  U  U1  1  0.00000000  0.50000000  0.50000000  1
  Si  Si0  1  0.69144600  0.69144600  0.20545200  1
  Si  Si1  1  0.30855400  0.30855400  0.20545200  1
  Si  Si2  1  0.69144600  0.69144600  0.79454800  1
  Si  Si3  1  0.30855400  0.30855400  0.79454800  1
  O  O0  1  0.75219800  0.24780200  0.50000000  1
  O  O1  1  0.50000000  0.50000000  0.79757300  1
  O  O2  1  0.50000000  0.50000000  0.20242700  1
  O  O3  1  0.24780200  0.75219800  0.50000000  1
  O  O4  1  0.64449500  0.87396100  0.70513600  1
  O  O5  1  0.35550500  0.12603900  0.70513600  1
  O  O6  1  0.87396100  0.64449500  0.29486400  1
  O  O7  1  0.12603900  0.35550500  0.29486400  1
  O  O8  1  0.35550500  0.12603900  0.29486400  1
  O  O9  1  0.64449500  0.87396100  0.29486400  1
  O  O10  1  0.12603900  0.35550500  0.70513600  1
  O  O11  1  0.87396100  0.64449500  0.70513600  1
  O  O12  1  0.24880100  0.24880100  0.00000000  1
  O  O13  1  0.75119900  0.75119900  0.00000000  1
loop_
_geom_bond_atom_site_label_1
_geom_bond_atom_site_label_2
_geom_bond_distance
_geom_bond_site_symmetry_2
Cs0 O9 3.291765 1_545
Cs0 O4 3.291765 1_544
Cs0 O10 3.291765 1_654
Cs0 O7 3.291765 1_655
Cs0 O12 3.326889 1_655
Cs0 O13 3.326889 1_545
Cs1 O6 3.291765 1_455
Cs1 O11 3.291765 1_454
Cs1 O8 3.291765 1_565
Cs1 O5 3.291765 1_564
Cs1 O13 3.326889 1_455
Cs1 O12 3.326889 1_565
K0 O11 2.925798 1_445
K0 O9 2.925798 1_445
K0 O6 2.925798 1_445
K0 O4 2.925798 1_445
K0 O10 2.925798 1_555
K0 O8 2.925798 1_555
K0 O5 2.925798 1_555
K0 O7 2.925798 1_555
K0 O3 2.926363 1_545
K0 O0 2.926363 1_455
O0 U1 2.135592 1_655
O0 U0 2.135592 1_555
O1 Si3 1.635447 1_555
O1 Si2 1.635447 1_555
O2 Si0 1.635447 1_555
O2 Si1 1.635447 1_555
O3 U0 2.135592 1_565
O3 U1 2.135592 1_555
O4 Si2 1.626338 1_555
O4 U0 2.247836 1_565
O5 Si3 1.626338 1_555
O5 U0 2.247836 1_555
O6 Si0 1.626338 1_555
O6 U1 2.247836 1_655
O7 Si1 1.626338 1_555
O7 U1 2.247836 1_555
O8 Si1 1.626338 1_555
O8 U0 2.247836 1_555
O9 Si0 1.626338 1_555
O9 U0 2.247836 1_565
O10 Si3 1.626338 1_555
O10 U1 2.247836 1_555
O11 Si2 1.626338 1_555
O11 U1 2.247836 1_655
O12 Si3 1.662241 1_554
O12 Si1 1.662241 1_555
O13 Si2 1.662241 1_554
O13 Si0 1.662241 1_555
