# generated using pymatgen
data_Li2PmSn
_symmetry_space_group_name_H-M   'P 1'
_cell_length_a   4.85239582
_cell_length_b   4.85239582
_cell_length_c   4.85239582
_cell_angle_alpha   60.00000000
_cell_angle_beta   60.00000000
_cell_angle_gamma   60.00000000
_symmetry_Int_Tables_number   1
_chemical_formula_structural   Li2PmSn
_chemical_formula_sum   'Li2 Pm1 Sn1'
_cell_volume   80.78926597
_cell_formula_units_Z   1
loop_
 _symmetry_equiv_pos_site_id
 _symmetry_equiv_pos_as_xyz
  1  'x, y, z'
loop_
 _atom_site_type_symbol
 _atom_site_label
 _atom_site_symmetry_multiplicity
 _atom_site_fract_x
 _atom_site_fract_y
 _atom_site_fract_z
 _atom_site_occupancy
  Li  Li0  1  -0.00000000  -0.00000000  -0.00000000  1
  Li  Li1  1  0.49999900  0.49999900  0.49999900  1
  Pm  Pm0  1  0.25000000  0.25000000  0.25000000  1
  Sn  Sn0  1  0.75000000  0.75000000  0.75000000  1
loop_
_geom_bond_atom_site_label_1
_geom_bond_atom_site_label_2
_geom_bond_distance
_geom_bond_site_symmetry_2
Li0 Sn0 2.971473 1_445
Li0 Sn0 2.971473 1_454
Li0 Pm0 2.971473 1_554
Li0 Pm0 2.971473 1_555
Li0 Sn0 2.971473 1_444
Li0 Pm0 2.971473 1_545
Li0 Sn0 2.971473 1_544
Li0 Pm0 2.971473 1_455
Li1 Pm0 2.971462 1_555
Li1 Sn0 2.971469 1_554
Li1 Sn0 2.971469 1_455
Li1 Sn0 2.971469 1_545
Li1 Pm0 2.971477 1_565
Li1 Pm0 2.971477 1_655
Li1 Pm0 2.971477 1_556
Li1 Sn0 2.971485 1_555
