# generated using pymatgen
data_Dy2IrRu
_symmetry_space_group_name_H-M   'P 1'
_cell_length_a   4.79347987
_cell_length_b   4.79347987
_cell_length_c   4.79347987
_cell_angle_alpha   60.00000000
_cell_angle_beta   60.00000000
_cell_angle_gamma   60.00000000
_symmetry_Int_Tables_number   1
_chemical_formula_structural   Dy2IrRu
_chemical_formula_sum   'Dy2 Ir1 Ru1'
_cell_volume   77.88211292
_cell_formula_units_Z   1
loop_
 _symmetry_equiv_pos_site_id
 _symmetry_equiv_pos_as_xyz
  1  'x, y, z'
loop_
 _atom_site_type_symbol
 _atom_site_label
 _atom_site_symmetry_multiplicity
 _atom_site_fract_x
 _atom_site_fract_y
 _atom_site_fract_z
 _atom_site_occupancy
  Dy  Dy0  1  0.50000000  0.50000000  0.50000000  1
  Dy  Dy1  1  0.00000000  0.00000000  0.00000000  1
  Ir  Ir0  1  0.25000100  0.25000100  0.25000100  1
  Ru  Ru0  1  0.75000000  0.75000000  0.75000000  1
loop_
_geom_bond_atom_site_label_1
_geom_bond_atom_site_label_2
_geom_bond_distance
_geom_bond_site_symmetry_2
Dy0 Ir0 2.935383 1_555
Dy0 Ru0 2.935395 1_554
Dy0 Ru0 2.935395 1_455
Dy0 Ru0 2.935395 1_555
Dy0 Ru0 2.935395 1_545
Dy0 Ir0 2.935399 1_556
Dy0 Ir0 2.935399 1_565
Dy0 Ir0 2.935399 1_655
Dy1 Ir0 2.935391 1_545
Dy1 Ir0 2.935391 1_554
Dy1 Ir0 2.935391 1_455
Dy1 Ru0 2.935395 1_444
Dy1 Ru0 2.935395 1_454
Dy1 Ru0 2.935395 1_544
Dy1 Ru0 2.935395 1_445
Dy1 Ir0 2.935407 1_555
