# generated using pymatgen
data_YSnF7
_symmetry_space_group_name_H-M   'P 1'
_cell_length_a   5.72577750
_cell_length_b   5.95049900
_cell_length_c   8.13821318
_cell_angle_alpha   76.89292719
_cell_angle_beta   90.00000000
_cell_angle_gamma   90.00000000
_symmetry_Int_Tables_number   1
_chemical_formula_structural   YSnF7
_chemical_formula_sum   'Y2 Sn2 F14'
_cell_volume   270.05528313
_cell_formula_units_Z   2
loop_
 _symmetry_equiv_pos_site_id
 _symmetry_equiv_pos_as_xyz
  1  'x, y, z'
loop_
 _atom_site_type_symbol
 _atom_site_label
 _atom_site_symmetry_multiplicity
 _atom_site_fract_x
 _atom_site_fract_y
 _atom_site_fract_z
 _atom_site_occupancy
  Y  Y0  1  0.75424774  0.15483367  0.81010810  1
  Y  Y1  1  0.25424774  0.84516633  0.18989190  1
  Sn  Sn0  1  0.76025385  0.31458917  0.27364163  1
  Sn  Sn1  1  0.26025385  0.68541083  0.72635837  1
  F  F0  1  0.47074910  0.02851517  0.98632039  1
  F  F1  1  0.97074910  0.97148483  0.01367961  1
  F  F2  1  0.49162719  0.43634469  0.73598722  1
  F  F3  1  0.99162719  0.56365531  0.26401278  1
  F  F4  1  0.75561336  0.27266246  0.52046348  1
  F  F5  1  0.25561336  0.72733754  0.47953652  1
  F  F6  1  0.01711793  0.44348699  0.74247522  1
  F  F7  1  0.51711793  0.55651301  0.25752478  1
  F  F8  1  0.52672590  0.90313771  0.70393670  1
  F  F9  1  0.02672590  0.09686229  0.29606330  1
  F  F10  1  0.52421232  0.06746280  0.29673581  1
  F  F11  1  0.02421232  0.93253720  0.70326419  1
  F  F12  1  0.76135261  0.36994957  0.02557093  1
  F  F13  1  0.26135261  0.63005043  0.97442907  1
loop_
_geom_bond_atom_site_label_1
_geom_bond_atom_site_label_2
_geom_bond_distance
_geom_bond_site_symmetry_2
F0 Y1 2.156833 1_546
F0 Y0 2.183474 1_555
F1 Y0 2.156833 1_564
F1 Y1 2.183474 1_655
F2 Sn1 1.976124 1_555
F2 Y0 2.229972 1_555
F3 Sn0 1.976124 1_555
F3 Y1 2.229972 1_655
F4 Sn0 1.967357 1_555
F4 Y0 2.301830 1_555
F5 Sn1 1.967357 1_555
F5 Y1 2.301830 1_555
F6 Sn1 1.985442 1_555
F6 Y0 2.256073 1_455
F7 Sn0 1.985442 1_555
F7 Y1 2.256073 1_555
F8 Sn1 1.983067 1_555
F8 Y0 2.296473 1_565
F9 Sn0 1.983067 1_455
F9 Y1 2.296473 1_545
F10 Sn0 1.974596 1_555
F10 Y1 2.327405 1_545
F11 Sn1 1.974596 1_555
F11 Y0 2.327405 1_465
F12 Sn0 1.970455 1_555
F12 Y0 2.394342 1_554
F13 Sn1 1.970455 1_555
F13 Y1 2.394342 1_556
