# generated using pymatgen
data_Na2Li2V3P2O13
_symmetry_space_group_name_H-M   'P 1'
_cell_length_a   12.34869800
_cell_length_b   8.81368200
_cell_length_c   10.30745982
_cell_angle_alpha   88.10605487
_cell_angle_beta   90.00000000
_cell_angle_gamma   90.00000000
_symmetry_Int_Tables_number   1
_chemical_formula_structural   Na2Li2V3P2O13
_chemical_formula_sum   'Na8 Li8 V12 P8 O52'
_cell_volume   1121.22528583
_cell_formula_units_Z   4
loop_
 _symmetry_equiv_pos_site_id
 _symmetry_equiv_pos_as_xyz
  1  'x, y, z'
loop_
 _atom_site_type_symbol
 _atom_site_label
 _atom_site_symmetry_multiplicity
 _atom_site_fract_x
 _atom_site_fract_y
 _atom_site_fract_z
 _atom_site_occupancy
  Na  Na0  1  0.47224000  0.37956300  0.71540300  1
  Na  Na1  1  0.02776000  0.87956300  0.71540300  1
  Na  Na2  1  0.47155100  0.93223700  0.79829300  1
  Na  Na3  1  0.02844900  0.43223700  0.79829300  1
  Na  Na4  1  0.52844900  0.06776300  0.20170700  1
  Na  Na5  1  0.97155100  0.56776300  0.20170700  1
  Na  Na6  1  0.52776000  0.62043700  0.28459700  1
  Na  Na7  1  0.97224000  0.12043700  0.28459700  1
  Li  Li0  1  0.91389200  0.19020400  0.73685900  1
  Li  Li1  1  0.58610800  0.69020400  0.73685900  1
  Li  Li2  1  0.26339600  0.63150700  0.75788300  1
  Li  Li3  1  0.23660400  0.13150700  0.75788300  1
  Li  Li4  1  0.76339600  0.86849300  0.24211700  1
  Li  Li5  1  0.73660400  0.36849300  0.24211700  1
  Li  Li6  1  0.41389200  0.30979600  0.26314100  1
  Li  Li7  1  0.08610800  0.80979600  0.26314100  1
  V  V0  1  0.12276000  0.24301300  0.52650700  1
  V  V1  1  0.37724000  0.74301300  0.52650700  1
  V  V2  1  0.74314800  0.42737400  0.74701700  1
  V  V3  1  0.75685200  0.92737400  0.74701700  1
  V  V4  1  0.14212000  0.75796600  0.97409800  1
  V  V5  1  0.35788000  0.25796600  0.97409800  1
  V  V6  1  0.64212000  0.74203400  0.02590200  1
  V  V7  1  0.85788000  0.24203400  0.02590200  1
  V  V8  1  0.24314800  0.07262600  0.25298300  1
  V  V9  1  0.25685200  0.57262600  0.25298300  1
  V  V10  1  0.87724000  0.75698700  0.47349300  1
  V  V11  1  0.62276000  0.25698700  0.47349300  1
  P  P0  1  0.37350200  0.12026400  0.52277900  1
  P  P1  1  0.12649800  0.62026400  0.52277900  1
  P  P2  1  0.11519700  0.12831700  0.98010300  1
  P  P3  1  0.38480300  0.62831700  0.98010300  1
  P  P4  1  0.61519700  0.37168300  0.01989700  1
  P  P5  1  0.88480300  0.87168300  0.01989700  1
  P  P6  1  0.87350200  0.37973600  0.47722100  1
  P  P7  1  0.62649800  0.87973600  0.47722100  1
  O  O0  1  0.28123300  0.21875600  0.58062400  1
  O  O1  1  0.21876700  0.71875600  0.58062400  1
  O  O2  1  0.48154800  0.19239400  0.56256000  1
  O  O3  1  0.01845200  0.69239400  0.56256000  1
  O  O4  1  0.13937800  0.45821400  0.58474200  1
  O  O5  1  0.36062200  0.95821400  0.58474200  1
  O  O6  1  0.85600300  0.87152700  0.61293300  1
  O  O7  1  0.64399700  0.37152700  0.61293300  1
  O  O8  1  0.62960800  0.88098800  0.62832900  1
  O  O9  1  0.87039200  0.38098800  0.62832900  1
  O  O10  1  0.43040600  0.65379700  0.66382300  1
  O  O11  1  0.06959400  0.15379700  0.66382300  1
  O  O12  1  0.75985100  0.11790700  0.74380000  1
  O  O13  1  0.74014900  0.61790700  0.74380000  1
  O  O14  1  0.39626000  0.16053300  0.84327500  1
  O  O15  1  0.10374000  0.66053300  0.84327500  1
  O  O16  1  0.61711500  0.39290400  0.87107800  1
  O  O17  1  0.88288500  0.89290400  0.87107800  1
  O  O18  1  0.65383800  0.85932800  0.87654500  1
  O  O19  1  0.84616200  0.35932800  0.87654500  1
  O  O20  1  0.35400600  0.47922900  0.90965600  1
  O  O21  1  0.14599400  0.97922900  0.90965600  1
  O  O22  1  0.49772100  0.68736300  0.93615800  1
  O  O23  1  0.00227900  0.18736300  0.93615800  1
  O  O24  1  0.30146700  0.75008400  0.92865200  1
  O  O25  1  0.19853300  0.25008400  0.92865200  1
  O  O26  1  0.80146700  0.74991600  0.07134800  1
  O  O27  1  0.69853300  0.24991600  0.07134800  1
  O  O28  1  0.99772100  0.81263700  0.06384200  1
  O  O29  1  0.50227900  0.31263700  0.06384200  1
  O  O30  1  0.85400600  0.02077100  0.09034400  1
  O  O31  1  0.64599400  0.52077100  0.09034400  1
  O  O32  1  0.34616200  0.14067200  0.12345500  1
  O  O33  1  0.15383800  0.64067200  0.12345500  1
  O  O34  1  0.11711500  0.10709600  0.12892200  1
  O  O35  1  0.38288500  0.60709600  0.12892200  1
  O  O36  1  0.89626000  0.33946700  0.15672500  1
  O  O37  1  0.60374000  0.83946700  0.15672500  1
  O  O38  1  0.25985100  0.38209300  0.25620000  1
  O  O39  1  0.24014900  0.88209300  0.25620000  1
  O  O40  1  0.56959400  0.34620300  0.33617700  1
  O  O41  1  0.93040600  0.84620300  0.33617700  1
  O  O42  1  0.37039200  0.11901200  0.37167100  1
  O  O43  1  0.12960800  0.61901200  0.37167100  1
  O  O44  1  0.35600300  0.62847300  0.38706700  1
  O  O45  1  0.14399700  0.12847300  0.38706700  1
  O  O46  1  0.63937800  0.04178600  0.41525800  1
  O  O47  1  0.86062200  0.54178600  0.41525800  1
  O  O48  1  0.98154800  0.30760600  0.43744000  1
  O  O49  1  0.51845200  0.80760600  0.43744000  1
  O  O50  1  0.71876700  0.78124400  0.41937600  1
  O  O51  1  0.78123300  0.28124400  0.41937600  1
loop_
_geom_bond_atom_site_label_1
_geom_bond_atom_site_label_2
_geom_bond_distance
_geom_bond_site_symmetry_2
Na0 O2 2.321270 1_555
Na0 O7 2.371512 1_555
Na0 O16 2.408665 1_555
Na0 O14 2.485163 1_555
Na0 O10 2.511282 1_555
Na0 O20 2.651154 1_555
Na1 O3 2.321270 1_555
Na1 O6 2.371512 1_455
Na1 O17 2.408665 1_455
Na1 O15 2.485163 1_555
Na1 O11 2.511282 1_565
Na1 O21 2.651154 1_555
Na2 O14 2.278097 1_565
Na2 O18 2.469063 1_555
Na2 O22 2.564970 1_555
Na2 O5 2.596282 1_555
Na2 O8 2.671140 1_555
Na2 O10 2.902864 1_555
Na2 O24 2.941364 1_555
Na3 O15 2.278097 1_555
Na3 O19 2.469063 1_455
Na3 O23 2.564970 1_555
Na3 O4 2.596282 1_555
Na3 O9 2.671140 1_455
Na3 O11 2.902864 1_555
Na3 O25 2.941364 1_555
Na4 O37 2.278097 1_545
Na4 O32 2.469063 1_555
Na4 O29 2.564970 1_555
Na4 O46 2.596282 1_555
Na4 O42 2.671140 1_555
Na4 O40 2.902864 1_555
Na4 O27 2.941364 1_555
Na5 O36 2.278097 1_555
Na5 O33 2.469063 1_655
Na5 O28 2.564970 1_555
Na5 O47 2.596282 1_555
Na5 O43 2.671140 1_655
Na5 O41 2.902864 1_555
Na5 O26 2.941364 1_555
Na6 O49 2.321270 1_555
Na6 O44 2.371512 1_555
Na6 O35 2.408665 1_555
Na6 O37 2.485163 1_555
Na6 O40 2.511282 1_555
Na6 O31 2.651154 1_555
Na7 O48 2.321270 1_555
Na7 O45 2.371512 1_655
Na7 O34 2.408665 1_655
Na7 O36 2.485163 1_555
Na7 O41 2.511282 1_545
Na7 O30 2.651154 1_555
Li0 O12 2.006619 1_555
Li0 O9 2.059880 1_555
Li0 O11 2.093443 1_655
Li0 O19 2.266349 1_555
Li0 O23 2.325625 1_655
Li1 O13 2.006619 1_555
Li1 O8 2.059880 1_555
Li1 O10 2.093443 1_555
Li1 O18 2.266349 1_555
Li1 O22 2.325625 1_555
Li2 O1 2.034809 1_555
Li2 O24 2.129116 1_555
Li2 O15 2.177619 1_555
Li2 O10 2.284576 1_555
Li2 O20 2.315563 1_555
Li3 O0 2.034809 1_555
Li3 O25 2.129116 1_555
Li3 O14 2.177619 1_555
Li3 O11 2.284576 1_555
Li3 O21 2.315563 1_545
Li4 O50 2.034809 1_555
Li4 O26 2.129116 1_555
Li4 O37 2.177619 1_555
Li4 O41 2.284576 1_555
Li4 O30 2.315563 1_565
Li5 O51 2.034809 1_555
Li5 O27 2.129116 1_555
Li5 O36 2.177619 1_555
Li5 O40 2.284576 1_555
Li5 O31 2.315563 1_555
Li6 O38 2.006619 1_555
Li6 O42 2.059880 1_555
Li6 O40 2.093443 1_555
Li6 O32 2.266349 1_555
Li6 O29 2.325625 1_555
Li7 O39 2.006619 1_555
Li7 O43 2.059880 1_555
Li7 O41 2.093443 1_455
Li7 O33 2.266349 1_555
Li7 O28 2.325625 1_455
O0 P0 1.562531 1_555
O0 V0 2.044155 1_555
O1 P1 1.562531 1_555
O1 V1 2.044155 1_555
O2 P0 1.539377 1_555
O2 V11 2.042833 1_555
O3 P1 1.539377 1_555
O3 V10 2.042833 1_455
O4 P1 1.553330 1_555
O4 V0 2.018711 1_555
O5 P0 1.553330 1_565
O5 V1 2.018711 1_555
O6 V10 1.802654 1_555
O6 V3 1.922620 1_555
O7 V11 1.802654 1_555
O7 V2 1.922620 1_555
O8 P7 1.558417 1_555
O8 V3 2.041034 1_555
O9 P6 1.558417 1_555
O9 V2 2.041034 1_555
O10 V1 1.725998 1_555
O11 V0 1.725998 1_555
O12 V3 1.678937 1_545
O13 V2 1.678937 1_555
O14 V5 1.690245 1_555
O15 V4 1.690245 1_555
O16 P4 1.539340 1_556
O16 V2 2.030772 1_555
O17 P5 1.539340 1_556
O17 V3 2.030772 1_555
O18 V6 1.831530 1_556
O18 V3 1.925479 1_555
O19 V7 1.831530 1_556
O19 V2 1.925479 1_555
O20 P3 1.568947 1_555
O20 V5 2.039835 1_555
O21 P2 1.568947 1_565
O21 V4 2.039835 1_555
O22 P3 1.550724 1_555
O22 V6 2.072901 1_556
O23 P2 1.550724 1_555
O23 V7 2.072901 1_456
O24 P3 1.566668 1_555
O24 V4 2.024441 1_555
O25 P2 1.566668 1_555
O25 V5 2.024441 1_555
O26 P5 1.566668 1_555
O26 V6 2.024441 1_555
O27 P4 1.566668 1_555
O27 V7 2.024441 1_555
O28 P5 1.550724 1_555
O28 V4 2.072901 1_654
O29 P4 1.550724 1_555
O29 V5 2.072901 1_554
O30 P5 1.568947 1_545
O30 V7 2.039835 1_555
O31 P4 1.568947 1_555
O31 V6 2.039835 1_555
O32 V5 1.831530 1_554
O32 V8 1.925479 1_555
O33 V4 1.831530 1_554
O33 V9 1.925479 1_555
O34 P2 1.539340 1_554
O34 V8 2.030772 1_555
O35 P3 1.539340 1_554
O35 V9 2.030772 1_555
O36 V7 1.690245 1_555
O37 V6 1.690245 1_555
O38 V9 1.678937 1_555
O39 V8 1.678937 1_565
O40 V11 1.725998 1_555
O41 V10 1.725998 1_555
O42 P0 1.558417 1_555
O42 V8 2.041034 1_555
O43 P1 1.558417 1_555
O43 V9 2.041034 1_555
O44 V1 1.802654 1_555
O44 V9 1.922620 1_555
O45 V0 1.802654 1_555
O45 V8 1.922620 1_555
O46 P7 1.553330 1_545
O46 V11 2.018711 1_555
O47 P6 1.553330 1_555
O47 V10 2.018711 1_555
O48 P6 1.539377 1_555
O48 V0 2.042833 1_655
O49 P7 1.539377 1_555
O49 V1 2.042833 1_555
O50 P7 1.562531 1_555
O50 V10 2.044155 1_555
O51 P6 1.562531 1_555
O51 V11 2.044155 1_555
