# generated using pymatgen
data_Mn2AlW
_symmetry_space_group_name_H-M   'P 1'
_cell_length_a   4.14333389
_cell_length_b   4.14333389
_cell_length_c   4.14333389
_cell_angle_alpha   60.00000000
_cell_angle_beta   60.00000000
_cell_angle_gamma   60.00000000
_symmetry_Int_Tables_number   1
_chemical_formula_structural   Mn2AlW
_chemical_formula_sum   'Mn2 Al1 W1'
_cell_volume   50.29615652
_cell_formula_units_Z   1
loop_
 _symmetry_equiv_pos_site_id
 _symmetry_equiv_pos_as_xyz
  1  'x, y, z'
loop_
 _atom_site_type_symbol
 _atom_site_label
 _atom_site_symmetry_multiplicity
 _atom_site_fract_x
 _atom_site_fract_y
 _atom_site_fract_z
 _atom_site_occupancy
  Mn  Mn0  1  -0.00000000  0.00000000  -0.00000000  1
  Mn  Mn1  1  0.50000000  0.50000000  0.50000000  1
  Al  Al0  1  0.24999900  0.24999900  0.24999900  1
  W  W0  1  0.74999900  0.74999900  0.74999900  1
loop_
_geom_bond_atom_site_label_1
_geom_bond_atom_site_label_2
_geom_bond_distance
_geom_bond_site_symmetry_2
Mn0 W0 2.537260 1_445
Mn0 W0 2.537260 1_454
Mn0 W0 2.537260 1_544
Mn0 W0 2.537274 1_444
Mn1 W0 2.537253 1_555
Mn1 W0 2.537267 1_455
Mn1 W0 2.537267 1_554
Mn1 W0 2.537267 1_545
Al0 Mn0 2.537253 1_555
Al0 Mn1 2.537260 1_554
Al0 Mn1 2.537260 1_545
Al0 Mn1 2.537260 1_455
Al0 Mn0 2.537267 1_556
Al0 Mn0 2.537267 1_565
Al0 Mn0 2.537267 1_655
Al0 Mn1 2.537274 1_555
