# generated using pymatgen
data_Li3Cr2(PO4)3
_symmetry_space_group_name_H-M   'P 1'
_cell_length_a   8.36751800
_cell_length_b   8.37831605
_cell_length_c   8.98036359
_cell_angle_alpha   117.67066876
_cell_angle_beta   89.98888583
_cell_angle_gamma   119.89519732
_symmetry_Int_Tables_number   1
_chemical_formula_structural   Li3Cr2(PO4)3
_chemical_formula_sum   'Li6 Cr4 P6 O24'
_cell_volume   460.93098182
_cell_formula_units_Z   2
loop_
 _symmetry_equiv_pos_site_id
 _symmetry_equiv_pos_as_xyz
  1  'x, y, z'
loop_
 _atom_site_type_symbol
 _atom_site_label
 _atom_site_symmetry_multiplicity
 _atom_site_fract_x
 _atom_site_fract_y
 _atom_site_fract_z
 _atom_site_occupancy
  Li  Li0  1  0.08213800  0.11610800  0.15163100  1
  Li  Li1  1  0.32849000  0.77673300  0.14346400  1
  Li  Li2  1  0.74561000  0.18467700  0.37342800  1
  Li  Li3  1  0.26918500  0.46481200  0.86217400  1
  Li  Li4  1  0.67187000  0.20496700  0.86492900  1
  Li  Li5  1  0.92121000  0.86823800  0.86558500  1
  Cr  Cr0  1  0.35225000  0.61028000  0.04482400  1
  Cr  Cr1  1  0.14673500  0.41632000  0.43609100  1
  Cr  Cr2  1  0.85645100  0.57569100  0.56795900  1
  Cr  Cr3  1  0.65448100  0.38901100  0.95871500  1
  P  P0  1  0.03822400  0.29220900  0.24823600  1
  P  P1  1  0.46053500  0.99815600  0.25298600  1
  P  P2  1  0.74952000  0.70526100  0.25260800  1
  P  P3  1  0.25264300  0.28958300  0.75024800  1
  P  P4  1  0.53666600  0.99925000  0.74904700  1
  P  P5  1  0.96133200  0.69886700  0.75636100  1
  O  O0  1  0.17347800  0.30877300  0.19914800  1
  O  O1  1  0.13251800  0.48479500  0.26313400  1
  O  O2  1  0.46360500  0.10901300  0.10022200  1
  O  O3  1  0.25405700  0.85049300  0.26947300  1
  O  O4  1  0.99970700  0.97086500  0.41975700  1
  O  O5  1  0.49120300  0.26542900  0.20132200  1
  O  O6  1  0.53203600  0.63422200  0.19703000  1
  O  O7  1  0.79387600  0.05709600  0.09454700  1
  O  O8  1  0.84576700  0.44454100  0.09147200  1
  O  O9  1  0.19758300  0.41827000  0.58192500  1
  O  O10  1  0.12476300  0.40370000  0.73303500  1
  O  O11  1  0.62024800  0.78892300  0.42454700  1
  O  O12  1  0.38652200  0.22480300  0.57267700  1
  O  O13  1  0.87244400  0.56902600  0.28133700  1
  O  O14  1  0.79989700  0.58409400  0.41753300  1
  O  O15  1  0.15945200  0.55425600  0.90699100  1
  O  O16  1  0.21034000  0.93641600  0.90776800  1
  O  O17  1  0.46902100  0.36202600  0.80646700  1
  O  O18  1  0.50703300  0.72134000  0.80956100  1
  O  O19  1  0.98723100  0.02524000  0.57890800  1
  O  O20  1  0.74470800  0.14273600  0.73343500  1
  O  O21  1  0.52405800  0.90347400  0.89207400  1
  O  O22  1  0.86729600  0.50686300  0.74146500  1
  O  O23  1  0.83244300  0.68495100  0.80725300  1
loop_
_geom_bond_atom_site_label_1
_geom_bond_atom_site_label_2
_geom_bond_distance
_geom_bond_site_symmetry_2
Li0 O0 1.225747 1_555
Li0 P0 1.554355 1_555
Li0 O7 2.213925 1_455
Li0 O16 2.600020 1_544
Li1 O3 1.335752 1_555
Li1 P1 1.375587 1_555
Li1 O15 1.918690 1_554
Li2 P1 2.004307 1_545
Li2 O7 2.349793 1_555
Li3 P3 1.269554 1_555
Li3 O10 1.378302 1_555
Li3 O15 1.404379 1_555
Li3 O18 2.341450 1_555
Li4 P4 1.313153 1_545
Li4 O20 1.335063 1_555
Li4 O8 1.892659 1_556
Li5 O23 1.140308 1_555
Li5 P5 1.506819 1_555
Li5 O16 2.178215 1_655
Li5 O7 2.554346 1_566
Cr0 Li1 1.377695 1_555
Cr0 Li3 1.399378 1_554
Cr0 O15 1.749661 1_554
Cr0 O6 1.901841 1_555
Cr1 O9 1.367432 1_555
Cr1 P0 1.477102 1_555
Cr2 P5 1.474398 1_555
Cr2 O14 1.474977 1_555
Cr3 Li4 1.457951 1_555
Cr3 O8 1.715506 1_556
Cr3 O17 1.921628 1_555
O0 P0 1.180885 1_555
O1 P0 1.332081 1_555
O2 O5 1.090129 1_555
O2 P1 1.976109 1_545
O3 P1 1.605248 1_555
O4 P2 1.960282 1_555
O6 P2 1.599935 1_555
O7 P0 1.851152 1_655
O10 O15 1.385937 1_555
O10 P3 1.800050 1_555
O11 O6 1.728201 1_555
O11 P2 1.948194 1_555
O12 O17 1.781530 1_555
O12 P3 1.973309 1_555
O13 O14 1.346505 1_555
O13 O8 1.470116 1_555
O13 P2 1.967556 1_555
O16 P5 1.872211 1_455
O17 P3 1.587980 1_555
O18 O21 1.277149 1_555
O19 O4 1.305281 1_545
O19 P3 2.034215 1_655
O20 P4 1.601745 1_545
O21 P4 1.782596 1_555
O22 P5 1.327875 1_555
O23 P5 1.144354 1_555
