# generated using pymatgen
data_Li5Mn6(BO3)6
_symmetry_space_group_name_H-M   'P 1'
_cell_length_a   10.47346900
_cell_length_b   8.81138779
_cell_length_c   8.87269092
_cell_angle_alpha   107.88670069
_cell_angle_beta   98.84830565
_cell_angle_gamma   98.50441137
_symmetry_Int_Tables_number   1
_chemical_formula_structural   Li5Mn6(BO3)6
_chemical_formula_sum   'Li10 Mn12 B12 O36'
_cell_volume   753.21246872
_cell_formula_units_Z   2
loop_
 _symmetry_equiv_pos_site_id
 _symmetry_equiv_pos_as_xyz
  1  'x, y, z'
loop_
 _atom_site_type_symbol
 _atom_site_label
 _atom_site_symmetry_multiplicity
 _atom_site_fract_x
 _atom_site_fract_y
 _atom_site_fract_z
 _atom_site_occupancy
  Li  Li0  1  0.91372500  0.18924600  0.20745700  1
  Li  Li1  1  0.18788000  0.20587200  0.90630500  1
  Li  Li2  1  0.52274800  0.22731600  0.50580400  1
  Li  Li3  1  0.15257100  0.43875600  0.45543100  1
  Li  Li4  1  0.43720100  0.45258100  0.15252600  1
  Li  Li5  1  0.40586500  0.69003000  0.70385800  1
  Li  Li6  1  0.68357000  0.70492600  0.39946000  1
  Li  Li7  1  0.02882200  0.73380000  0.01361200  1
  Li  Li8  1  0.93866100  0.95330000  0.65989300  1
  Li  Li9  1  0.27885900  0.98123600  0.25889000  1
  Mn  Mn0  1  0.80552700  0.18963100  0.82010400  1
  Mn  Mn1  1  0.16745300  0.15192400  0.52363700  1
  Mn  Mn2  1  0.53765800  0.15574400  0.14649600  1
  Mn  Mn3  1  0.42527900  0.41045900  0.76933600  1
  Mn  Mn4  1  0.76744400  0.41430400  0.41809900  1
  Mn  Mn5  1  0.06017300  0.43649000  0.06887300  1
  Mn  Mn6  1  0.66540200  0.65994100  0.01543300  1
  Mn  Mn7  1  0.02241100  0.66001800  0.65502300  1
  Mn  Mn8  1  0.30773800  0.68500700  0.32311100  1
  Mn  Mn9  1  0.90884900  0.90540100  0.27176000  1
  Mn  Mn10  1  0.27756100  0.90915200  0.89931100  1
  Mn  Mn11  1  0.56426200  0.92627900  0.59101600  1
  B  B0  1  0.79169300  0.12400400  0.46404700  1
  B  B1  1  0.47166800  0.13342900  0.79741800  1
  B  B2  1  0.00608500  0.00507900  0.00286700  1
  B  B3  1  0.25372500  0.25094500  0.24626200  1
  B  B4  1  0.04491400  0.36281700  0.70719200  1
  B  B5  1  0.70251500  0.36694600  0.04124700  1
  B  B6  1  0.48715600  0.49900200  0.48983500  1
  B  B7  1  0.95205400  0.62279800  0.29020600  1
  B  B8  1  0.29289300  0.62480100  0.95767400  1
  B  B9  1  0.75278300  0.74917800  0.74416200  1
  B  B10  1  0.54099400  0.88177900  0.21911900  1
  B  B11  1  0.20654500  0.87754600  0.54221300  1
  O  O0  1  0.98437500  0.07305000  0.87362900  1
  O  O1  1  0.91559700  0.05811400  0.47903900  1
  O  O2  1  0.91817800  0.01902000  0.10533700  1
  O  O3  1  0.60478100  0.07373400  0.81496000  1
  O  O4  1  0.70746800  0.12710600  0.57428500  1
  O  O5  1  0.38884700  0.12416900  0.90944400  1
  O  O6  1  0.74738200  0.19171900  0.33652000  1
  O  O7  1  0.42325500  0.19973300  0.67334000  1
  O  O8  1  0.36925700  0.17201700  0.27517000  1
  O  O9  1  0.95671500  0.34381800  0.81260900  1
  O  O10  1  0.82559700  0.29557800  0.04337500  1
  O  O11  1  0.17540200  0.30276700  0.72229600  1
  O  O12  1  0.15200600  0.25932400  0.33972500  1
  O  O13  1  0.66859200  0.45184900  0.94010500  1
  O  O14  1  0.61349000  0.34618900  0.14754800  1
  O  O15  1  0.58948800  0.41239500  0.51841900  1
  O  O16  1  0.23827000  0.32194000  0.12275300  1
  O  O17  1  0.00476900  0.44094100  0.59361300  1
  O  O18  1  0.41392200  0.55368800  0.97413300  1
  O  O19  1  0.38155200  0.51113100  0.57826300  1
  O  O20  1  0.86358200  0.61148800  0.39575500  1
  O  O21  1  0.48476800  0.57231500  0.36877400  1
  O  O22  1  0.88224600  0.68971900  0.79481900  1
  O  O23  1  0.07465500  0.55227600  0.29872300  1
  O  O24  1  0.63413800  0.74390900  0.81537200  1
  O  O25  1  0.26318600  0.70018700  0.83858100  1
  O  O26  1  0.91994600  0.70420500  0.17824300  1
  O  O27  1  0.19916200  0.62185500  0.05887700  1
  O  O28  1  0.74155700  0.81854000  0.61636300  1
  O  O29  1  0.65830200  0.80948400  0.21996900  1
  O  O30  1  0.32992800  0.80762500  0.55607900  1
  O  O31  1  0.45399400  0.87418300  0.32455000  1
  O  O32  1  0.12045300  0.87171900  0.64949900  1
  O  O33  1  0.17077400  0.95253400  0.42327700  1
  O  O34  1  0.50190700  0.96440400  0.10701400  1
  O  O35  1  0.12253200  0.92659700  0.03098900  1
loop_
_geom_bond_atom_site_label_1
_geom_bond_atom_site_label_2
_geom_bond_distance
_geom_bond_site_symmetry_2
Li0 O2 1.507249 1_555
Li0 O10 2.128275 1_555
Li0 O6 2.226361 1_555
Li0 O12 2.486923 1_655
Li1 O16 1.826135 1_556
Li1 O11 2.057958 1_555
Li1 O0 2.204613 1_455
Li1 O5 2.322024 1_555
Li2 O15 1.639297 1_555
Li2 O7 1.994524 1_555
Li2 O8 2.270038 1_555
Li2 O4 2.316238 1_555
Li3 O12 1.597501 1_555
Li3 O23 2.084812 1_555
Li3 O17 2.116140 1_555
Li3 O19 2.379619 1_555
Li4 O21 1.830220 1_555
Li4 O18 2.042106 1_554
Li4 O16 2.161101 1_555
Li4 O14 2.191214 1_555
Li5 O19 1.583181 1_555
Li5 O30 2.045223 1_555
Li5 O25 2.047759 1_555
Li5 O24 2.359735 1_555
Li6 O28 1.830826 1_555
Li6 O29 2.073365 1_555
Li6 O21 2.164579 1_555
Li6 O20 2.166802 1_555
Li7 O35 1.781127 1_555
Li7 O26 2.039723 1_455
Li7 O22 2.172511 1_454
Li7 O27 2.204657 1_555
Li8 O0 1.811371 1_565
Li8 O1 2.084066 1_565
Li8 O32 2.137414 1_655
Li8 O28 2.137457 1_555
Li9 O8 1.755334 1_565
Li9 O33 2.030439 1_555
Li9 O31 2.261485 1_555
Li9 O35 2.269735 1_555
Mn0 O10 1.875620 1_556
Mn0 O9 1.951711 1_555
Mn0 O4 2.126217 1_555
Mn0 O3 2.184557 1_555
Mn0 O0 2.320476 1_555
Mn1 O33 1.716812 1_545
Mn1 O11 1.833972 1_555
Mn1 O12 2.120646 1_555
Mn1 O1 2.575060 1_455
Mn1 O7 2.710577 1_555
Mn2 O34 1.586049 1_545
Mn2 O14 1.743774 1_555
Mn2 O8 2.242433 1_555
Mn2 O5 2.331133 1_554
Mn2 O6 2.468682 1_555
Mn3 O7 1.784631 1_555
Mn3 O18 1.900255 1_555
Mn3 O19 2.162370 1_555
Mn3 O11 2.570976 1_555
Mn3 O13 2.668445 1_555
Mn4 O6 1.836843 1_555
Mn4 O20 1.956398 1_555
Mn4 O15 2.185563 1_555
Mn4 O14 2.522027 1_555
Mn4 O17 2.659064 1_655
Mn5 O23 1.950377 1_555
Mn5 O27 2.054297 1_555
Mn5 O9 2.202429 1_454
Mn5 O16 2.303382 1_555
Mn5 O10 2.526467 1_455
Mn6 O13 1.755574 1_554
Mn6 O29 1.907051 1_555
Mn6 O24 2.122529 1_554
Mn6 O18 2.590573 1_554
Mn6 O26 2.740041 1_555
Mn7 O17 1.809641 1_555
Mn7 O32 2.010362 1_555
Mn7 O22 2.058268 1_455
Mn7 O20 2.500007 1_455
Mn7 O25 2.693591 1_555
Mn8 O30 1.974878 1_555
Mn8 O31 2.085871 1_555
Mn8 O21 2.269023 1_555
Mn8 O27 2.300131 1_555
Mn8 O23 2.492316 1_555
Mn9 O26 1.741232 1_555
Mn9 O1 1.899937 1_565
Mn9 O2 2.028736 1_565
Mn9 O29 2.558487 1_555
Mn10 O25 1.728264 1_555
Mn10 O5 2.041099 1_565
Mn10 O35 2.138250 1_556
Mn10 O32 2.449004 1_555
Mn10 O34 2.632991 1_556
Mn11 O3 1.951413 1_565
Mn11 O4 2.201781 1_565
Mn11 O28 2.218991 1_555
Mn11 O31 2.338974 1_555
Mn11 O30 2.453700 1_555
B0 O4 1.411289 1_555
B0 O6 1.478770 1_555
B0 O1 1.501993 1_555
B1 O5 1.428702 1_555
B1 O7 1.456502 1_555
B1 O3 1.563648 1_555
B2 O2 1.382658 1_455
B2 O0 1.451631 1_454
B2 O35 1.513189 1_545
B3 O16 1.419477 1_555
B3 O12 1.444144 1_555
B3 O8 1.508842 1_555
B4 O17 1.430944 1_555
B4 O9 1.439595 1_455
B4 O11 1.538438 1_555
B5 O13 1.372647 1_554
B5 O14 1.455497 1_555
B5 O10 1.515635 1_555
B6 O21 1.412247 1_555
B6 O15 1.439637 1_555
B6 O19 1.449398 1_555
B7 O26 1.421542 1_555
B7 O20 1.429178 1_555
B7 O23 1.508523 1_655
B8 O25 1.430296 1_555
B8 O27 1.431311 1_556
B8 O18 1.501646 1_555
B9 O28 1.441902 1_555
B9 O24 1.479176 1_555
B9 O22 1.575538 1_555
B10 O31 1.411551 1_555
B10 O34 1.447316 1_555
B10 O29 1.465247 1_555
B11 O32 1.414989 1_555
B11 O33 1.438915 1_555
B11 O30 1.515834 1_555
