# generated using pymatgen
data_TmCdAu2
_symmetry_space_group_name_H-M   'P 1'
_cell_length_a   4.84829741
_cell_length_b   4.84829380
_cell_length_c   4.84829887
_cell_angle_alpha   60.00008400
_cell_angle_beta   59.99997038
_cell_angle_gamma   60.00004443
_symmetry_Int_Tables_number   1
_chemical_formula_structural   TmCdAu2
_chemical_formula_sum   'Tm1 Cd1 Au2'
_cell_volume   80.58475538
_cell_formula_units_Z   1
loop_
 _symmetry_equiv_pos_site_id
 _symmetry_equiv_pos_as_xyz
  1  'x, y, z'
loop_
 _atom_site_type_symbol
 _atom_site_label
 _atom_site_symmetry_multiplicity
 _atom_site_fract_x
 _atom_site_fract_y
 _atom_site_fract_z
 _atom_site_occupancy
  Tm  Tm0  1  0.74999900  0.74999900  0.74999900  1
  Cd  Cd0  1  0.25000100  0.25000100  0.25000100  1
  Au  Au0  1  0.50000000  0.50000000  0.49999900  1
  Au  Au1  1  0.00000000  0.00000000  0.00000100  1
loop_
_geom_bond_atom_site_label_1
_geom_bond_atom_site_label_2
_geom_bond_distance
_geom_bond_site_symmetry_2
Au0 Cd0 2.968947 1_555
Au0 Tm0 2.968955 1_555
Au0 Tm0 2.968965 1_554
Au0 Tm0 2.968967 1_455
Au0 Cd0 2.968967 1_655
Au0 Tm0 2.968969 1_545
Au0 Cd0 2.968969 1_565
Au0 Cd0 2.968973 1_556
Au1 Tm0 2.968958 1_445
Au1 Cd0 2.968959 1_455
Au1 Tm0 2.968959 1_544
Au1 Cd0 2.968961 1_545
Au1 Tm0 2.968961 1_454
Au1 Cd0 2.968965 1_554
Au1 Cd0 2.968970 1_555
Au1 Tm0 2.968978 1_444
