# generated using pymatgen
data_Ba8(Bi2O7)3
_symmetry_space_group_name_H-M   'P 1'
_cell_length_a   8.88862300
_cell_length_b   10.80962898
_cell_length_c   14.10079286
_cell_angle_alpha   96.97688562
_cell_angle_beta   90.52091843
_cell_angle_gamma   113.46421916
_symmetry_Int_Tables_number   1
_chemical_formula_structural   Ba8(Bi2O7)3
_chemical_formula_sum   'Ba16 Bi12 O42'
_cell_volume   1231.14771107
_cell_formula_units_Z   2
loop_
 _symmetry_equiv_pos_site_id
 _symmetry_equiv_pos_as_xyz
  1  'x, y, z'
loop_
 _atom_site_type_symbol
 _atom_site_label
 _atom_site_symmetry_multiplicity
 _atom_site_fract_x
 _atom_site_fract_y
 _atom_site_fract_z
 _atom_site_occupancy
  Ba  Ba0  1  0.17670900  0.85168200  0.78661100  1
  Ba  Ba1  1  0.67417800  0.85827800  0.78843400  1
  Ba  Ba2  1  0.10563000  0.71388800  0.06698500  1
  Ba  Ba3  1  0.03511100  0.56562000  0.35896100  1
  Ba  Ba4  1  0.74525300  0.00120000  0.50185100  1
  Ba  Ba5  1  0.39475400  0.28606200  0.92802400  1
  Ba  Ba6  1  0.53302200  0.57201500  0.35903300  1
  Ba  Ba7  1  0.07018700  0.14219500  0.71182000  1
  Ba  Ba8  1  0.92981300  0.85780500  0.28818000  1
  Ba  Ba9  1  0.46697800  0.42798500  0.64096700  1
  Ba  Ba10  1  0.60524600  0.71393800  0.07197600  1
  Ba  Ba11  1  0.96488900  0.43438000  0.64103900  1
  Ba  Ba12  1  0.25474700  0.99880000  0.49814900  1
  Ba  Ba13  1  0.89437000  0.28611200  0.93301500  1
  Ba  Ba14  1  0.32582200  0.14172200  0.21156600  1
  Ba  Ba15  1  0.82329100  0.14831800  0.21338900  1
  Bi  Bi0  1  0.29108300  0.57678100  0.85814500  1
  Bi  Bi1  1  0.35716900  0.71543500  0.57241700  1
  Bi  Bi2  1  0.42892600  0.85640500  0.28538900  1
  Bi  Bi3  1  0.78471500  0.57096800  0.85735200  1
  Bi  Bi4  1  0.85424500  0.70766100  0.57599200  1
  Bi  Bi5  1  0.14575500  0.29233900  0.42400800  1
  Bi  Bi6  1  0.21528500  0.42903200  0.14264800  1
  Bi  Bi7  1  0.57107400  0.14359500  0.71461100  1
  Bi  Bi8  1  0.64283100  0.28456500  0.42758300  1
  Bi  Bi9  1  0.70891700  0.42321900  0.14185500  1
  Bi  Bi10  1  0.00000000  0.00000000  0.00000000  1
  Bi  Bi11  1  0.50000000  0.00000000  0.00000000  1
  O  O0  1  0.10283500  0.71556100  0.60564100  1
  O  O1  1  0.36083700  0.77686200  0.94507100  1
  O  O2  1  0.50766000  0.94194900  0.62808500  1
  O  O3  1  0.03680200  0.56150200  0.83634400  1
  O  O4  1  0.75071100  0.99210700  0.97091300  1
  O  O5  1  0.19420400  0.84026900  0.25043100  1
  O  O6  1  0.21582700  0.48584400  0.99139800  1
  O  O7  1  0.34382200  0.76748200  0.41950100  1
  O  O8  1  0.36129400  0.67720400  0.73042300  1
  O  O9  1  0.51670300  0.95075200  0.15408300  1
  O  O10  1  0.54904900  0.60331200  0.88483900  1
  O  O11  1  0.66238800  0.87332100  0.32172100  1
  O  O12  1  0.21029500  0.49230900  0.50944200  1
  O  O13  1  0.90913700  0.88990200  0.66540800  1
  O  O14  1  0.23631300  0.38894200  0.77735800  1
  O  O15  1  0.93150700  0.79930500  0.90932600  1
  O  O16  1  0.36635700  0.65417600  0.20091700  1
  O  O17  1  0.59690000  0.68152600  0.54933900  1
  O  O18  1  0.77769000  0.59871300  0.70190500  1
  O  O19  1  0.06248500  0.19542900  0.54376000  1
  O  O20  1  0.08308200  0.10202800  0.88323400  1
  O  O21  1  0.91691800  0.89797200  0.11676600  1
  O  O22  1  0.93751500  0.80457100  0.45624000  1
  O  O23  1  0.22231000  0.40128700  0.29809500  1
  O  O24  1  0.40310000  0.31847400  0.45066100  1
  O  O25  1  0.63364300  0.34582400  0.79908300  1
  O  O26  1  0.06849300  0.20069500  0.09067400  1
  O  O27  1  0.76368700  0.61105800  0.22264200  1
  O  O28  1  0.78970500  0.50769100  0.49055800  1
  O  O29  1  0.09086300  0.11009800  0.33459200  1
  O  O30  1  0.33761200  0.12667900  0.67827900  1
  O  O31  1  0.45095100  0.39668800  0.11516100  1
  O  O32  1  0.48329700  0.04924800  0.84591700  1
  O  O33  1  0.63870600  0.32279600  0.26957700  1
  O  O34  1  0.65617800  0.23251800  0.58049900  1
  O  O35  1  0.78417300  0.51415600  0.00860200  1
  O  O36  1  0.80579600  0.15973100  0.74956900  1
  O  O37  1  0.24928900  0.00789300  0.02908700  1
  O  O38  1  0.96319800  0.43849800  0.16365600  1
  O  O39  1  0.49234000  0.05805100  0.37191500  1
  O  O40  1  0.63916300  0.22313800  0.05492900  1
  O  O41  1  0.89716500  0.28443900  0.39435900  1
loop_
_geom_bond_atom_site_label_1
_geom_bond_atom_site_label_2
_geom_bond_distance
_geom_bond_site_symmetry_2
Ba0 O15 2.718256 1_455
Ba0 O0 2.719550 1_555
Ba0 O32 2.752568 1_565
Ba0 O8 3.000281 1_555
Ba0 O3 3.053073 1_555
Ba0 O13 3.102938 1_455
Ba0 O1 3.122813 1_555
Ba0 O20 3.284886 1_565
Ba0 O30 3.312493 1_565
Ba1 O13 2.670083 1_555
Ba1 O4 2.730669 1_555
Ba1 O8 2.733044 1_555
Ba1 O10 3.029447 1_555
Ba1 O2 3.102120 1_555
Ba1 O36 3.114010 1_565
Ba1 O15 3.146155 1_555
Ba1 O32 3.194493 1_565
Ba2 O5 2.724940 1_555
Ba2 O1 2.773073 1_554
Ba2 O35 2.848873 1_455
Ba2 O37 3.034732 1_565
Ba2 O6 3.078234 1_554
Ba2 O21 3.099377 1_455
Ba2 O15 3.124792 1_454
Ba2 O38 3.215368 1_455
Ba2 O16 3.280526 1_555
Ba2 O3 3.394767 1_554
Ba3 O7 2.785025 1_555
Ba3 O28 2.803880 1_455
Ba3 O38 2.868845 1_455
Ba3 O41 2.898747 1_455
Ba3 O23 2.944532 1_555
Ba3 O12 2.980986 1_555
Ba3 O22 3.201744 1_455
Ba3 O27 3.293235 1_455
Ba3 O5 3.309925 1_555
Ba4 O11 2.684587 1_545
Ba4 O2 2.703107 1_545
Ba4 O19 2.768039 1_655
Ba4 O34 3.004653 1_555
Ba4 O39 3.176028 1_555
Ba4 O22 3.229913 1_545
Ba4 O13 3.301057 1_545
Ba4 O17 3.328299 1_545
Ba4 O41 3.371512 1_555
Ba5 O20 2.702824 1_555
Ba5 O31 2.715957 1_556
Ba5 O25 2.737706 1_555
Ba5 O32 3.068184 1_555
Ba5 O14 3.082285 1_555
Ba5 O40 3.128284 1_556
Ba5 O6 3.206851 1_555
Ba5 O37 3.274520 1_556
Ba5 O10 3.284703 1_555
Ba5 O35 3.435545 1_556
Ba6 O23 2.698971 1_555
Ba6 O17 2.754997 1_555
Ba6 O27 2.767743 1_555
Ba6 O24 2.980138 1_555
Ba6 O16 3.069704 1_555
Ba6 O11 3.106759 1_555
Ba6 O7 3.230759 1_555
Ba6 O28 3.260096 1_555
Ba6 O33 3.307920 1_555
Ba7 O36 2.488994 1_455
Ba7 O30 2.494153 1_555
Ba7 O19 2.512246 1_555
Ba7 O20 2.516635 1_555
Ba7 O13 2.521014 1_445
Ba7 O14 2.527561 1_555
Ba8 O5 2.488994 1_655
Ba8 O11 2.494153 1_555
Ba8 O22 2.512246 1_555
Ba8 O21 2.516635 1_555
Ba8 O29 2.521014 1_665
Ba8 O27 2.527561 1_555
Ba9 O18 2.698971 1_555
Ba9 O24 2.754997 1_555
Ba9 O14 2.767743 1_555
Ba9 O17 2.980138 1_555
Ba9 O25 3.069704 1_555
Ba9 O30 3.106759 1_555
Ba9 O34 3.230759 1_555
Ba9 O12 3.260096 1_555
Ba9 O8 3.307920 1_555
Ba10 O21 2.702824 1_555
Ba10 O10 2.715957 1_554
Ba10 O16 2.737706 1_555
Ba10 O9 3.068184 1_555
Ba10 O27 3.082285 1_555
Ba10 O1 3.128284 1_554
Ba10 O35 3.206851 1_555
Ba10 O4 3.274520 1_554
Ba10 O31 3.284703 1_555
Ba10 O6 3.435545 1_554
Ba11 O34 2.785025 1_555
Ba11 O12 2.803880 1_655
Ba11 O3 2.868845 1_655
Ba11 O0 2.898747 1_655
Ba11 O18 2.944532 1_555
Ba11 O28 2.980986 1_555
Ba11 O19 3.201744 1_655
Ba11 O14 3.293235 1_655
Ba11 O36 3.309925 1_555
Ba12 O30 2.684587 1_565
Ba12 O39 2.703107 1_565
Ba12 O22 2.768039 1_455
Ba12 O7 3.004653 1_555
Ba12 O2 3.176028 1_555
Ba12 O19 3.229913 1_565
Ba12 O29 3.301057 1_565
Ba12 O24 3.328299 1_565
Ba12 O0 3.371512 1_555
Ba13 O36 2.724940 1_555
Ba13 O40 2.773073 1_556
Ba13 O6 2.848873 1_655
Ba13 O4 3.034732 1_545
Ba13 O35 3.078234 1_556
Ba13 O20 3.099377 1_655
Ba13 O26 3.124792 1_656
Ba13 O3 3.215368 1_655
Ba13 O25 3.280526 1_555
Ba13 O38 3.394767 1_556
Ba14 O29 2.670083 1_555
Ba14 O37 2.730669 1_555
Ba14 O33 2.733044 1_555
Ba14 O31 3.029447 1_555
Ba14 O39 3.102120 1_555
Ba14 O5 3.114010 1_545
Ba14 O26 3.146155 1_555
Ba14 O9 3.194493 1_545
Ba15 O26 2.718256 1_655
Ba15 O41 2.719550 1_555
Ba15 O9 2.752568 1_545
Ba15 O33 3.000281 1_555
Ba15 O38 3.053073 1_555
Ba15 O29 3.102938 1_655
Ba15 O40 3.122813 1_555
Ba15 O21 3.284886 1_545
Ba15 O11 3.312493 1_545
Bi0 O14 2.073235 1_555
Bi0 O8 2.183412 1_555
Bi0 O1 2.199727 1_555
Bi0 O6 2.211832 1_555
Bi0 O3 2.215418 1_555
Bi0 O10 2.217207 1_555
Bi1 O12 2.293746 1_555
Bi1 O2 2.303583 1_555
Bi1 O7 2.307201 1_555
Bi1 O0 2.313375 1_555
Bi1 O8 2.317418 1_555
Bi1 O17 2.320889 1_555
Bi2 O11 2.063468 1_555
Bi2 O5 2.072896 1_555
Bi2 O16 2.212234 1_555
Bi2 O39 2.218218 1_565
Bi2 O9 2.219978 1_555
Bi2 O7 2.227319 1_555
Bi3 O18 2.251781 1_555
Bi3 O10 2.285935 1_555
Bi3 O35 2.289494 1_556
Bi3 O25 2.300629 1_555
Bi3 O3 2.303536 1_655
Bi3 O15 2.304399 1_555
Bi4 O13 2.080499 1_555
Bi4 O22 2.081245 1_555
Bi4 O28 2.195492 1_555
Bi4 O0 2.211057 1_655
Bi4 O18 2.212250 1_555
Bi4 O17 2.213008 1_555
Bi5 O29 2.080499 1_555
Bi5 O19 2.081245 1_555
Bi5 O12 2.195492 1_555
Bi5 O41 2.211057 1_455
Bi5 O23 2.212250 1_555
Bi5 O24 2.213008 1_555
Bi6 O23 2.251781 1_555
Bi6 O31 2.285935 1_555
Bi6 O6 2.289494 1_554
Bi6 O16 2.300629 1_555
Bi6 O38 2.303536 1_455
Bi6 O26 2.304399 1_555
Bi7 O30 2.063468 1_555
Bi7 O36 2.072896 1_555
Bi7 O25 2.212234 1_555
Bi7 O2 2.218218 1_545
Bi7 O32 2.219978 1_555
Bi7 O34 2.227319 1_555
Bi8 O28 2.293746 1_555
Bi8 O39 2.303583 1_555
Bi8 O34 2.307201 1_555
Bi8 O41 2.313375 1_555
Bi8 O33 2.317418 1_555
Bi8 O24 2.320889 1_555
Bi9 O27 2.073235 1_555
Bi9 O33 2.183412 1_555
Bi9 O40 2.199727 1_555
Bi9 O35 2.211832 1_555
Bi9 O38 2.215418 1_555
Bi9 O31 2.217207 1_555
Bi10 O21 2.070583 1_445
Bi10 O20 2.070583 1_554
Bi10 O37 2.215818 1_555
Bi10 O4 2.215818 1_444
Bi10 O26 2.229810 1_555
Bi10 O15 2.229810 1_444
Bi11 O40 2.258461 1_555
Bi11 O1 2.258461 1_544
Bi11 O4 2.302420 1_544
Bi11 O37 2.302420 1_555
Bi11 O9 2.316053 1_545
Bi11 O32 2.316053 1_554
