# generated using pymatgen
data_NaSbO2
_symmetry_space_group_name_H-M   'P 1'
_cell_length_a   5.50822300
_cell_length_b   6.76966900
_cell_length_c   16.61708300
_cell_angle_alpha   90.00000000
_cell_angle_beta   90.00000000
_cell_angle_gamma   90.00000000
_symmetry_Int_Tables_number   1
_chemical_formula_structural   NaSbO2
_chemical_formula_sum   'Na8 Sb8 O16'
_cell_volume   619.63185707
_cell_formula_units_Z   8
loop_
 _symmetry_equiv_pos_site_id
 _symmetry_equiv_pos_as_xyz
  1  'x, y, z'
loop_
 _atom_site_type_symbol
 _atom_site_label
 _atom_site_symmetry_multiplicity
 _atom_site_fract_x
 _atom_site_fract_y
 _atom_site_fract_z
 _atom_site_occupancy
  Na  Na0  1  0.76080500  0.40709100  0.20400400  1
  Na  Na1  1  0.26080500  0.09290900  0.20400400  1
  Na  Na2  1  0.76080500  0.90709100  0.29599600  1
  Na  Na3  1  0.26080500  0.59290900  0.29599600  1
  Na  Na4  1  0.73919500  0.40709100  0.70400400  1
  Na  Na5  1  0.23919500  0.09290900  0.70400400  1
  Na  Na6  1  0.73919500  0.90709100  0.79599600  1
  Na  Na7  1  0.23919500  0.59290900  0.79599600  1
  Sb  Sb0  1  0.75090100  0.91675000  0.08316700  1
  Sb  Sb1  1  0.25090100  0.58325000  0.08316700  1
  Sb  Sb2  1  0.75090100  0.41675000  0.41683300  1
  Sb  Sb3  1  0.25090100  0.08325000  0.41683300  1
  Sb  Sb4  1  0.74909900  0.91675000  0.58316700  1
  Sb  Sb5  1  0.24909900  0.58325000  0.58316700  1
  Sb  Sb6  1  0.74909900  0.41675000  0.91683300  1
  Sb  Sb7  1  0.24909900  0.08325000  0.91683300  1
  O  O0  1  0.07765800  0.82775300  0.12459900  1
  O  O1  1  0.57765800  0.67224700  0.12459900  1
  O  O2  1  0.68133100  0.08042800  0.17404400  1
  O  O3  1  0.18133100  0.41957200  0.17404400  1
  O  O4  1  0.18133100  0.91957200  0.32595600  1
  O  O5  1  0.68133100  0.58042800  0.32595600  1
  O  O6  1  0.07765800  0.32775300  0.37540100  1
  O  O7  1  0.57765800  0.17224700  0.37540100  1
  O  O8  1  0.42234200  0.82775300  0.62459900  1
  O  O9  1  0.92234200  0.67224700  0.62459900  1
  O  O10  1  0.31866900  0.41957200  0.67404400  1
  O  O11  1  0.81866900  0.08042800  0.67404400  1
  O  O12  1  0.31866900  0.91957200  0.82595600  1
  O  O13  1  0.81866900  0.58042800  0.82595600  1
  O  O14  1  0.42234200  0.32775300  0.87540100  1
  O  O15  1  0.92234200  0.17224700  0.87540100  1
loop_
_geom_bond_atom_site_label_1
_geom_bond_atom_site_label_2
_geom_bond_distance
_geom_bond_site_symmetry_2
Na0 O2 2.308631 1_555
Na0 O3 2.370754 1_655
Na0 O5 2.382274 1_555
Na0 O1 2.445572 1_555
Na1 O3 2.308631 1_555
Na1 O2 2.370754 1_555
Na1 O4 2.382274 1_545
Na1 O0 2.445572 1_545
Na2 O5 2.308631 1_555
Na2 O4 2.370754 1_655
Na2 O2 2.382274 1_565
Na2 O7 2.445572 1_565
Na3 O4 2.308631 1_555
Na3 O5 2.370754 1_555
Na3 O3 2.382274 1_555
Na3 O6 2.445572 1_555
Na4 O11 2.308631 1_555
Na4 O10 2.370754 1_555
Na4 O13 2.382274 1_555
Na4 O9 2.445572 1_555
Na5 O10 2.308631 1_555
Na5 O11 2.370754 1_455
Na5 O12 2.382274 1_545
Na5 O8 2.445572 1_545
Na6 O13 2.308631 1_555
Na6 O12 2.370754 1_555
Na6 O11 2.382274 1_565
Na6 O15 2.445572 1_565
Na7 O12 2.308631 1_555
Na7 O13 2.370754 1_455
Na7 O10 2.382274 1_555
Na7 O14 2.445572 1_555
O0 Sb0 2.019021 1_455
O0 Sb1 2.030842 1_555
O1 Sb1 2.019021 1_555
O1 Sb0 2.030842 1_555
O2 Sb0 1.911818 1_545
O3 Sb1 1.911818 1_555
O4 Sb3 1.911818 1_565
O5 Sb2 1.911818 1_555
O6 Sb2 2.019021 1_455
O6 Sb3 2.030842 1_555
O7 Sb3 2.019021 1_555
O7 Sb2 2.030842 1_555
O8 Sb4 2.019021 1_555
O8 Sb5 2.030842 1_555
O9 Sb5 2.019021 1_655
O9 Sb4 2.030842 1_555
O10 Sb5 1.911818 1_555
O11 Sb4 1.911818 1_545
O12 Sb7 1.911818 1_565
O13 Sb6 1.911818 1_555
O14 Sb6 2.019021 1_555
O14 Sb7 2.030842 1_555
O15 Sb7 2.019021 1_655
O15 Sb6 2.030842 1_555
