# generated using pymatgen
data_LiY2Os
_symmetry_space_group_name_H-M   'P 1'
_cell_length_a   4.90216712
_cell_length_b   4.90216932
_cell_length_c   4.90216639
_cell_angle_alpha   60.00004943
_cell_angle_beta   60.00006427
_cell_angle_gamma   60.00006437
_symmetry_Int_Tables_number   1
_chemical_formula_structural   LiY2Os
_chemical_formula_sum   'Li1 Y2 Os1'
_cell_volume   83.30096947
_cell_formula_units_Z   1
loop_
 _symmetry_equiv_pos_site_id
 _symmetry_equiv_pos_as_xyz
  1  'x, y, z'
loop_
 _atom_site_type_symbol
 _atom_site_label
 _atom_site_symmetry_multiplicity
 _atom_site_fract_x
 _atom_site_fract_y
 _atom_site_fract_z
 _atom_site_occupancy
  Li  Li0  1  0.25000100  0.25000100  0.25000100  1
  Y  Y0  1  -0.00000000  0.00000000  -0.00000000  1
  Y  Y1  1  0.50000000  0.50000000  0.50000000  1
  Os  Os0  1  0.75000000  0.75000000  0.75000000  1
loop_
_geom_bond_atom_site_label_1
_geom_bond_atom_site_label_2
_geom_bond_distance
_geom_bond_site_symmetry_2
Li0 Y1 3.001939 1_555
Li0 Y0 3.001950 1_556
Li0 Y0 3.001951 1_655
Li0 Y0 3.001951 1_565
Li0 Y1 3.001958 1_554
Li0 Y1 3.001959 1_455
Li0 Y1 3.001959 1_545
Li0 Y0 3.001963 1_555
Os0 Y0 3.001951 1_666
Os0 Y1 3.001951 1_555
Os0 Y1 3.001954 1_556
Os0 Y0 3.001954 1_665
Os0 Y0 3.001955 1_566
Os0 Y1 3.001955 1_655
Os0 Y1 3.001955 1_565
Os0 Y0 3.001955 1_656
