# generated using pymatgen
data_LiSiIr2
_symmetry_space_group_name_H-M   'P 1'
_cell_length_a   4.08669727
_cell_length_b   4.08669727
_cell_length_c   4.08669726
_cell_angle_alpha   60.00002931
_cell_angle_beta   60.00003034
_cell_angle_gamma   60.00002965
_symmetry_Int_Tables_number   1
_chemical_formula_structural   LiSiIr2
_chemical_formula_sum   'Li1 Si1 Ir2'
_cell_volume   48.26170915
_cell_formula_units_Z   1
loop_
 _symmetry_equiv_pos_site_id
 _symmetry_equiv_pos_as_xyz
  1  'x, y, z'
loop_
 _atom_site_type_symbol
 _atom_site_label
 _atom_site_symmetry_multiplicity
 _atom_site_fract_x
 _atom_site_fract_y
 _atom_site_fract_z
 _atom_site_occupancy
  Li  Li0  1  0.24999919  0.24999919  0.24999920  1
  Si  Si0  1  0.74999924  0.74999925  0.74999925  1
  Ir  Ir0  1  0.00000023  0.00000020  0.00000020  1
  Ir  Ir1  1  0.50000033  0.50000036  0.50000035  1
loop_
_geom_bond_atom_site_label_1
_geom_bond_atom_site_label_2
_geom_bond_distance
_geom_bond_site_symmetry_2
Li0 Si0 2.889732 1_454
Li0 Si0 2.889732 1_445
Li0 Si0 2.889732 1_544
Li0 Si0 2.889732 1_545
Li0 Si0 2.889732 1_554
Li0 Si0 2.889732 1_455
Ir0 Li0 2.502570 1_555
Ir0 Si0 2.502578 1_544
Ir0 Si0 2.502579 1_454
Ir0 Si0 2.502579 1_445
Ir0 Li0 2.502585 1_554
Ir0 Li0 2.502585 1_545
Ir0 Li0 2.502585 1_455
Ir0 Si0 2.502590 1_444
Ir1 Si0 2.502569 1_555
Ir1 Li0 2.502578 1_565
Ir1 Li0 2.502578 1_556
Ir1 Li0 2.502578 1_655
Ir1 Si0 2.502585 1_455
Ir1 Si0 2.502585 1_554
Ir1 Si0 2.502585 1_545
Ir1 Li0 2.502592 1_555
