# generated using pymatgen
data_NaHgPO4
_symmetry_space_group_name_H-M   'P 1'
_cell_length_a   5.64559515
_cell_length_b   5.64559515
_cell_length_c   6.54723000
_cell_angle_alpha   90.00000000
_cell_angle_beta   90.00000000
_cell_angle_gamma   116.03454916
_symmetry_Int_Tables_number   1
_chemical_formula_structural   NaHgPO4
_chemical_formula_sum   'Na2 Hg2 P2 O8'
_cell_volume   187.50351938
_cell_formula_units_Z   2
loop_
 _symmetry_equiv_pos_site_id
 _symmetry_equiv_pos_as_xyz
  1  'x, y, z'
loop_
 _atom_site_type_symbol
 _atom_site_label
 _atom_site_symmetry_multiplicity
 _atom_site_fract_x
 _atom_site_fract_y
 _atom_site_fract_z
 _atom_site_occupancy
  Na  Na0  1  0.50000000  0.50000000  0.00000000  1
  Na  Na1  1  0.50000000  0.50000000  0.50000000  1
  Hg  Hg0  1  0.81187300  0.18812700  0.25000000  1
  Hg  Hg1  1  0.18812700  0.81187300  0.75000000  1
  P  P0  1  0.13923200  0.86076800  0.25000000  1
  P  P1  1  0.86076800  0.13923200  0.75000000  1
  O  O0  1  0.73989000  0.83472800  0.75000000  1
  O  O1  1  0.26011000  0.16527200  0.25000000  1
  O  O2  1  0.83472800  0.73989000  0.25000000  1
  O  O3  1  0.16527200  0.26011000  0.75000000  1
  O  O4  1  0.75454700  0.24545300  0.93454300  1
  O  O5  1  0.24545300  0.75454700  0.43454300  1
  O  O6  1  0.75454700  0.24545300  0.56545700  1
  O  O7  1  0.24545300  0.75454700  0.06545700  1
loop_
_geom_bond_atom_site_label_1
_geom_bond_atom_site_label_2
_geom_bond_distance
_geom_bond_site_symmetry_2
Na0 O2 2.416155 1_555
Na0 O0 2.416155 1_554
Na0 O3 2.416155 1_554
Na0 O1 2.416155 1_555
Na0 O7 2.475250 1_555
Na0 O4 2.475250 1_554
Na1 O0 2.416155 1_555
Na1 O2 2.416155 1_555
Na1 O3 2.416155 1_555
Na1 O1 2.416155 1_555
Na1 O6 2.475250 1_555
Na1 O5 2.475250 1_555
Hg0 O6 2.137097 1_555
Hg0 O4 2.137097 1_554
Hg0 O2 2.589794 1_545
Hg0 O1 2.589794 1_655
Hg1 O7 2.137097 1_556
Hg1 O5 2.137097 1_555
Hg1 O0 2.589794 1_455
Hg1 O3 2.589794 1_565
O0 P1 1.546350 1_565
O1 P0 1.546350 1_545
O2 P0 1.546350 1_655
O3 P1 1.546350 1_455
O4 P1 1.579485 1_555
O5 P0 1.579485 1_555
O6 P1 1.579485 1_555
O7 P0 1.579485 1_555
