# generated using pymatgen
data_RbBaTaS4
_symmetry_space_group_name_H-M   'P 1'
_cell_length_a   7.11535300
_cell_length_b   9.46771400
_cell_length_c   12.64334600
_cell_angle_alpha   90.00000000
_cell_angle_beta   90.00000000
_cell_angle_gamma   90.00000000
_symmetry_Int_Tables_number   1
_chemical_formula_structural   RbBaTaS4
_chemical_formula_sum   'Rb4 Ba4 Ta4 S16'
_cell_volume   851.73325503
_cell_formula_units_Z   4
loop_
 _symmetry_equiv_pos_site_id
 _symmetry_equiv_pos_as_xyz
  1  'x, y, z'
loop_
 _atom_site_type_symbol
 _atom_site_label
 _atom_site_symmetry_multiplicity
 _atom_site_fract_x
 _atom_site_fract_y
 _atom_site_fract_z
 _atom_site_occupancy
  Rb  Rb0  1  0.75000000  0.36298600  0.08840000  1
  Rb  Rb1  1  0.25000000  0.13701400  0.58840000  1
  Rb  Rb2  1  0.75000000  0.86298600  0.41160000  1
  Rb  Rb3  1  0.25000000  0.63701400  0.91160000  1
  Ba  Ba0  1  0.75000000  0.02017300  0.82520400  1
  Ba  Ba1  1  0.25000000  0.47982700  0.32520400  1
  Ba  Ba2  1  0.75000000  0.52017300  0.67479600  1
  Ba  Ba3  1  0.25000000  0.97982700  0.17479600  1
  Ta  Ta0  1  0.75000000  0.26951000  0.42124200  1
  Ta  Ta1  1  0.25000000  0.23049000  0.92124200  1
  Ta  Ta2  1  0.75000000  0.76951000  0.07875800  1
  Ta  Ta3  1  0.25000000  0.73049000  0.57875800  1
  S  S0  1  0.75000000  0.19406500  0.59293100  1
  S  S1  1  0.25000000  0.30593500  0.09293100  1
  S  S2  1  0.75000000  0.69406500  0.90706900  1
  S  S3  1  0.25000000  0.80593500  0.40706900  1
  S  S4  1  0.75000000  0.01046500  0.08453000  1
  S  S5  1  0.25000000  0.48953500  0.58453000  1
  S  S6  1  0.75000000  0.51046500  0.41547000  1
  S  S7  1  0.25000000  0.98953500  0.91547000  1
  S  S8  1  0.00830500  0.18432700  0.33745000  1
  S  S9  1  0.99169500  0.31567300  0.83745000  1
  S  S10  1  0.49169500  0.68432700  0.16255000  1
  S  S11  1  0.50830500  0.81567300  0.66255000  1
  S  S12  1  0.99169500  0.81567300  0.66255000  1
  S  S13  1  0.00830500  0.68432700  0.16255000  1
  S  S14  1  0.50830500  0.31567300  0.83745000  1
  S  S15  1  0.49169500  0.18432700  0.33745000  1
loop_
_geom_bond_atom_site_label_1
_geom_bond_atom_site_label_2
_geom_bond_distance
_geom_bond_site_symmetry_2
Rb0 S4 3.337927 1_555
Rb0 S1 3.598902 1_555
Rb0 S1 3.598902 1_655
Rb0 S14 3.636639 1_554
Rb0 S9 3.636639 1_554
Rb0 S10 3.675988 1_555
Rb0 S13 3.675988 1_655
Rb1 S5 3.337927 1_555
Rb1 S0 3.598902 1_455
Rb1 S0 3.598902 1_555
Rb1 S15 3.636639 1_555
Rb1 S8 3.636639 1_555
Rb1 S12 3.675988 1_445
Rb1 S11 3.675988 1_545
Rb2 S6 3.337927 1_555
Rb2 S3 3.598902 1_655
Rb2 S3 3.598902 1_555
Rb2 S11 3.636639 1_555
Rb2 S12 3.636639 1_555
Rb2 S8 3.675988 1_665
Rb2 S15 3.675988 1_565
Rb3 S7 3.337927 1_555
Rb3 S2 3.598902 1_455
Rb3 S2 3.598902 1_555
Rb3 S10 3.636639 1_556
Rb3 S13 3.636639 1_556
Rb3 S14 3.675988 1_555
Rb3 S9 3.675988 1_455
Ba0 S2 3.256373 1_545
Ba0 S4 3.280036 1_556
Ba0 S9 3.287655 1_555
Ba0 S14 3.287655 1_555
Ba0 S12 3.306863 1_545
Ba0 S11 3.306863 1_545
Ba0 S0 3.366713 1_555
Ba0 S7 3.747491 1_645
Ba0 S7 3.747491 1_545
Ba1 S3 3.256373 1_555
Ba1 S5 3.280036 1_555
Ba1 S15 3.287655 1_555
Ba1 S8 3.287655 1_555
Ba1 S13 3.306863 1_555
Ba1 S10 3.306863 1_555
Ba1 S1 3.366713 1_555
Ba1 S6 3.747491 1_455
Ba1 S6 3.747491 1_555
Ba2 S0 3.256373 1_555
Ba2 S6 3.280036 1_555
Ba2 S11 3.287655 1_555
Ba2 S12 3.287655 1_555
Ba2 S9 3.306863 1_555
Ba2 S14 3.306863 1_555
Ba2 S2 3.366713 1_555
Ba2 S5 3.747491 1_555
Ba2 S5 3.747491 1_655
Ba3 S1 3.256373 1_565
Ba3 S7 3.280036 1_554
Ba3 S10 3.287655 1_555
Ba3 S13 3.287655 1_555
Ba3 S8 3.306863 1_565
Ba3 S15 3.306863 1_565
Ba3 S3 3.366713 1_555
Ba3 S4 3.747491 1_565
Ba3 S4 3.747491 1_465
S0 Ta0 2.285225 1_555
S1 Ta1 2.285225 1_554
S2 Ta2 2.285225 1_556
S3 Ta3 2.285225 1_555
S4 Ta2 2.282460 1_545
S5 Ta3 2.282460 1_555
S6 Ta0 2.282460 1_555
S7 Ta1 2.282460 1_565
S8 Ta0 2.269530 1_455
S9 Ta1 2.269530 1_655
S10 Ta2 2.269530 1_555
S11 Ta3 2.269530 1_555
S12 Ta3 2.269530 1_655
S13 Ta2 2.269530 1_455
S14 Ta1 2.269530 1_555
S15 Ta0 2.269530 1_555
