# generated using pymatgen
data_Li6V(OF)3
_symmetry_space_group_name_H-M   'P 1'
_cell_length_a   5.21866000
_cell_length_b   6.64960862
_cell_length_c   7.87553509
_cell_angle_alpha   89.86991482
_cell_angle_beta   91.47715211
_cell_angle_gamma   106.58086932
_symmetry_Int_Tables_number   1
_chemical_formula_structural   Li6V(OF)3
_chemical_formula_sum   'Li12 V2 O6 F6'
_cell_volume   261.84218338
_cell_formula_units_Z   2
loop_
 _symmetry_equiv_pos_site_id
 _symmetry_equiv_pos_as_xyz
  1  'x, y, z'
loop_
 _atom_site_type_symbol
 _atom_site_label
 _atom_site_symmetry_multiplicity
 _atom_site_fract_x
 _atom_site_fract_y
 _atom_site_fract_z
 _atom_site_occupancy
  Li  Li0  1  0.88445000  0.08653800  0.34078900  1
  Li  Li1  1  0.75102700  0.66388600  0.22256200  1
  Li  Li2  1  0.71422200  0.17332800  0.75743100  1
  Li  Li3  1  0.07216500  0.45478400  0.13961900  1
  Li  Li4  1  0.39539800  0.80293400  0.91097000  1
  Li  Li5  1  0.44313200  0.32348100  0.41310300  1
  Li  Li6  1  0.56606000  0.67797900  0.60681200  1
  Li  Li7  1  0.61074200  0.19590300  0.10598800  1
  Li  Li8  1  0.93193600  0.54396600  0.85289400  1
  Li  Li9  1  0.27956600  0.34878100  0.76255900  1
  Li  Li10  1  0.31477100  0.83327500  0.23260400  1
  Li  Li11  1  0.10136900  0.90889700  0.65627600  1
  V  V0  1  0.96861500  0.49383600  0.51038700  1
  V  V1  1  0.97777900  0.99420900  0.01011900  1
  O  O0  1  0.78420700  0.36782100  0.29786200  1
  O  O1  1  0.96724300  0.27646400  0.94232100  1
  O  O2  1  0.65395300  0.41616000  0.64549700  1
  O  O3  1  0.66063300  0.92028500  0.13931300  1
  O  O4  1  0.06147100  0.72665100  0.05046300  1
  O  O5  1  0.21928100  0.64667400  0.69070600  1
  F  F0  1  0.89677200  0.78706500  0.44892100  1
  F  F1  1  0.23334900  0.11778500  0.22802600  1
  F  F2  1  0.34430400  0.07606700  0.85085500  1
  F  F3  1  0.33187100  0.57355800  0.34687200  1
  F  F4  1  0.76394000  0.88250100  0.77924200  1
  F  F5  1  0.07174100  0.20717400  0.55781200  1
loop_
_geom_bond_atom_site_label_1
_geom_bond_atom_site_label_2
_geom_bond_distance
_geom_bond_site_symmetry_2
Li0 O3 2.068720 1_545
Li0 O0 2.105447 1_555
Li1 O3 1.999316 1_555
Li1 O4 2.088224 1_655
Li1 O0 2.107480 1_555
Li2 O1 1.929428 1_555
Li2 O2 1.937142 1_555
Li3 O1 1.927215 1_454
Li3 O0 1.934714 1_455
Li3 O4 1.952973 1_555
Li4 O4 2.023038 1_556
Li4 O5 2.077138 1_555
Li4 O3 2.240624 1_556
Li5 O0 1.965051 1_555
Li5 O2 2.110523 1_555
Li6 O5 1.897624 1_555
Li6 O2 1.944332 1_555
Li7 O0 1.938168 1_555
Li7 O3 1.939662 1_545
Li7 O1 2.227417 1_554
Li8 O4 1.959429 1_656
Li8 O5 1.963905 1_655
Li8 O1 1.966906 1_555
Li8 O2 2.162208 1_555
Li9 O2 2.111728 1_555
Li9 O1 2.135568 1_455
Li9 O5 2.164362 1_555
Li10 O3 1.898098 1_555
Li10 O4 1.918252 1_555
Li11 O5 2.023418 1_555
O0 V0 1.973021 1_555
O1 V1 1.965618 1_546
O2 V0 1.923295 1_555
O3 V1 1.906929 1_555
O4 V1 1.972533 1_455
O5 V0 1.978086 1_455
F0 Li11 1.971184 1_655
F0 Li1 2.002145 1_555
F0 Li6 2.107862 1_555
F0 V0 2.140196 1_555
F0 Li0 2.181170 1_565
F1 Li0 2.003423 1_455
F1 Li10 2.053964 1_545
F1 Li5 2.065455 1_555
F1 Li7 2.140999 1_555
F1 V1 2.159187 1_445
F2 Li4 1.964665 1_545
F2 Li2 2.011183 1_555
F2 Li9 2.053799 1_555
F2 Li11 2.072322 1_545
F2 V1 2.248239 1_446
F2 Li7 2.415888 1_556
F3 Li10 1.969053 1_555
F3 Li5 1.976362 1_555
F3 Li3 2.098977 1_555
F3 V0 2.254393 1_455
F3 Li1 2.337083 1_555
F3 Li6 2.357925 1_555
F4 Li6 1.973479 1_555
F4 Li11 1.995059 1_655
F4 Li2 2.029609 1_565
F4 V1 2.128773 1_556
F4 Li4 2.138892 1_555
F5 Li0 1.998174 1_455
F5 Li9 1.999236 1_555
F5 V0 2.152813 1_455
F5 Li11 2.172805 1_545
F5 Li5 2.215357 1_555
F5 Li2 2.431713 1_455
