# generated using pymatgen
data_LiFeSiO4
_symmetry_space_group_name_H-M   'P 1'
_cell_length_a   4.80452500
_cell_length_b   5.87748700
_cell_length_c   10.20029100
_cell_angle_alpha   90.00000000
_cell_angle_beta   90.00000000
_cell_angle_gamma   90.00000000
_symmetry_Int_Tables_number   1
_chemical_formula_structural   LiFeSiO4
_chemical_formula_sum   'Li4 Fe4 Si4 O16'
_cell_volume   288.04125635
_cell_formula_units_Z   4
loop_
 _symmetry_equiv_pos_site_id
 _symmetry_equiv_pos_as_xyz
  1  'x, y, z'
loop_
 _atom_site_type_symbol
 _atom_site_label
 _atom_site_symmetry_multiplicity
 _atom_site_fract_x
 _atom_site_fract_y
 _atom_site_fract_z
 _atom_site_occupancy
  Li  Li0  1  0.00000000  0.00000000  0.50000000  1
  Li  Li1  1  0.00000000  0.50000000  0.50000000  1
  Li  Li2  1  0.50000000  0.50000000  0.00000000  1
  Li  Li3  1  0.50000000  0.00000000  0.00000000  1
  Fe  Fe0  1  0.99338200  0.25000000  0.22688900  1
  Fe  Fe1  1  0.50661800  0.25000000  0.72688900  1
  Fe  Fe2  1  0.49338200  0.75000000  0.27311100  1
  Fe  Fe3  1  0.00661800  0.75000000  0.77311100  1
  Si  Si0  1  0.94085700  0.75000000  0.09333400  1
  Si  Si1  1  0.55914300  0.75000000  0.59333400  1
  Si  Si2  1  0.44085700  0.25000000  0.40666600  1
  Si  Si3  1  0.05914300  0.25000000  0.90666600  1
  O  O0  1  0.31368700  0.25000000  0.55588700  1
  O  O1  1  0.77789600  0.25000000  0.39773000  1
  O  O2  1  0.71643700  0.96489500  0.67107900  1
  O  O3  1  0.71643700  0.53510500  0.67107900  1
  O  O4  1  0.78356300  0.96489500  0.17107900  1
  O  O5  1  0.78356300  0.53510500  0.17107900  1
  O  O6  1  0.72210400  0.25000000  0.89773000  1
  O  O7  1  0.18631300  0.25000000  0.05588700  1
  O  O8  1  0.81368700  0.75000000  0.94411300  1
  O  O9  1  0.27789600  0.75000000  0.10227000  1
  O  O10  1  0.28356300  0.46489500  0.32892100  1
  O  O11  1  0.28356300  0.03510500  0.32892100  1
  O  O12  1  0.21643700  0.46489500  0.82892100  1
  O  O13  1  0.21643700  0.03510500  0.82892100  1
  O  O14  1  0.22210400  0.75000000  0.60227000  1
  O  O15  1  0.68631300  0.75000000  0.44411300  1
loop_
_geom_bond_atom_site_label_1
_geom_bond_atom_site_label_2
_geom_bond_distance
_geom_bond_site_symmetry_2
Li0 O14 2.094277 1_545
Li0 O1 2.094277 1_455
Li0 O0 2.180694 1_555
Li0 O15 2.180694 1_445
Li0 O2 2.223485 1_445
Li0 O11 2.223485 1_555
Li1 O14 2.094277 1_555
Li1 O1 2.094277 1_455
Li1 O0 2.180694 1_555
Li1 O15 2.180694 1_455
Li1 O3 2.223485 1_455
Li1 O10 2.223485 1_555
Li2 O9 2.094277 1_555
Li2 O6 2.094277 1_554
Li2 O8 2.180694 1_554
Li2 O7 2.180694 1_555
Li2 O5 2.223485 1_555
Li2 O12 2.223485 1_554
Li3 O6 2.094277 1_554
Li3 O9 2.094277 1_545
Li3 O8 2.180694 1_544
Li3 O7 2.180694 1_555
Li3 O4 2.223485 1_545
Li3 O13 2.223485 1_554
Fe0 O7 1.975272 1_655
Fe0 O1 2.026972 1_555
Fe0 O5 2.036732 1_555
Fe0 O4 2.036732 1_545
Fe0 O11 2.149929 1_655
Fe0 O10 2.149929 1_655
Fe1 O0 1.975272 1_555
Fe1 O6 2.026972 1_555
Fe1 O3 2.036732 1_555
Fe1 O2 2.036732 1_545
Fe1 O13 2.149929 1_555
Fe1 O12 2.149929 1_555
Fe2 O15 1.975272 1_555
Fe2 O9 2.026972 1_555
Fe2 O11 2.036732 1_565
Fe2 O10 2.036732 1_555
Fe2 O4 2.149929 1_555
Fe2 O5 2.149929 1_555
Fe3 O8 1.975272 1_455
Fe3 O14 2.026972 1_555
Fe3 O13 2.036732 1_565
Fe3 O12 2.036732 1_555
Fe3 O2 2.149929 1_455
Fe3 O3 2.149929 1_455
O0 Si2 1.640150 1_555
O1 Si2 1.621876 1_555
O2 Si1 1.671908 1_555
O3 Si1 1.671908 1_555
O4 Si0 1.671908 1_555
O5 Si0 1.671908 1_555
O6 Si3 1.621876 1_655
O7 Si3 1.640150 1_554
O8 Si0 1.640150 1_556
O9 Si0 1.621876 1_455
O10 Si2 1.671908 1_555
O11 Si2 1.671908 1_555
O12 Si3 1.671908 1_555
O13 Si3 1.671908 1_555
O14 Si1 1.621876 1_555
O15 Si1 1.640150 1_555
