# generated using pymatgen
data_ThNF
_symmetry_space_group_name_H-M   'P 1'
_cell_length_a   7.15177764
_cell_length_b   7.15177764
_cell_length_c   7.15177718
_cell_angle_alpha   32.55212628
_cell_angle_beta   32.55212628
_cell_angle_gamma   32.55212735
_symmetry_Int_Tables_number   1
_chemical_formula_structural   ThNF
_chemical_formula_sum   'Th2 N2 F2'
_cell_volume   94.17791876
_cell_formula_units_Z   2
loop_
 _symmetry_equiv_pos_site_id
 _symmetry_equiv_pos_as_xyz
  1  'x, y, z'
loop_
 _atom_site_type_symbol
 _atom_site_label
 _atom_site_symmetry_multiplicity
 _atom_site_fract_x
 _atom_site_fract_y
 _atom_site_fract_z
 _atom_site_occupancy
  Th  Th0  1  0.73884446  0.73884446  0.73884446  1
  Th  Th1  1  0.26115554  0.26115554  0.26115554  1
  N  N0  1  0.62213807  0.62213807  0.62213807  1
  N  N1  1  0.37786193  0.37786193  0.37786193  1
  F  F0  1  0.13195481  0.13195481  0.13195481  1
  F  F1  1  0.86804519  0.86804519  0.86804519  1
loop_
_geom_bond_atom_site_label_1
_geom_bond_atom_site_label_2
_geom_bond_distance
_geom_bond_site_symmetry_2
N0 Th0 2.369226 1_555
N0 Th1 2.381569 1_556
N0 Th1 2.381569 1_565
N0 Th1 2.381569 1_655
N1 Th1 2.369226 1_555
N1 Th0 2.381569 1_554
N1 Th0 2.381569 1_455
N1 Th0 2.381569 1_545
F0 Th0 2.613320 1_454
F0 Th0 2.613320 1_544
F0 Th0 2.613320 1_445
F0 Th1 2.622870 1_555
F1 Th1 2.613320 1_656
F1 Th1 2.613320 1_566
F1 Th1 2.613320 1_665
F1 Th0 2.622870 1_555
