# generated using pymatgen
data_Li5Co7O3F13
_symmetry_space_group_name_H-M   'P 1'
_cell_length_a   6.03837000
_cell_length_b   6.09113041
_cell_length_c   10.58232110
_cell_angle_alpha   73.37318603
_cell_angle_beta   73.47831820
_cell_angle_gamma   60.48032964
_symmetry_Int_Tables_number   1
_chemical_formula_structural   Li5Co7O3F13
_chemical_formula_sum   'Li5 Co7 O3 F13'
_cell_volume   319.70028107
_cell_formula_units_Z   1
loop_
 _symmetry_equiv_pos_site_id
 _symmetry_equiv_pos_as_xyz
  1  'x, y, z'
loop_
 _atom_site_type_symbol
 _atom_site_label
 _atom_site_symmetry_multiplicity
 _atom_site_fract_x
 _atom_site_fract_y
 _atom_site_fract_z
 _atom_site_occupancy
  Li  Li0  1  0.75350400  0.73545000  0.74990200  1
  Li  Li1  1  0.19534900  0.69759400  0.43484500  1
  Li  Li2  1  0.80460000  0.30553700  0.56410300  1
  Li  Li3  1  0.75508900  0.25037900  0.25273700  1
  Li  Li4  1  0.31589500  0.80450500  0.06452100  1
  Co  Co0  1  0.68030300  0.22165700  0.92607900  1
  Co  Co1  1  0.00311300  0.48430400  0.99185300  1
  Co  Co2  1  0.25851800  0.73385300  0.75226200  1
  Co  Co3  1  0.23839600  0.25785100  0.75978600  1
  Co  Co4  1  0.50026900  0.99485500  0.49521400  1
  Co  Co5  1  0.25301000  0.23190600  0.25829300  1
  Co  Co6  1  0.73565300  0.75030800  0.25812300  1
  O  O0  1  0.34939600  0.39894000  0.87022100  1
  O  O1  1  0.89134300  0.39000800  0.86821000  1
  O  O2  1  0.39745900  0.89488600  0.36937700  1
  F  F0  1  0.87782600  0.87040300  0.86884600  1
  F  F1  1  0.11720600  0.63405000  0.63188600  1
  F  F2  1  0.61979900  0.64002200  0.62537000  1
  F  F3  1  0.37967100  0.87469100  0.86389900  1
  F  F4  1  0.13808300  0.10578500  0.63210900  1
  F  F5  1  0.59753600  0.11823400  0.62638500  1
  F  F6  1  0.86515000  0.89069100  0.36784300  1
  F  F7  1  0.62844200  0.12669500  0.13227600  1
  F  F8  1  0.39009400  0.36217200  0.36969400  1
  F  F9  1  0.11871900  0.13380600  0.13178800  1
  F  F10  1  0.88010100  0.37691900  0.37014400  1
  F  F11  1  0.10707100  0.60465500  0.13524800  1
  F  F12  1  0.64840200  0.60984400  0.12898800  1
loop_
_geom_bond_atom_site_label_1
_geom_bond_atom_site_label_2
_geom_bond_distance
_geom_bond_site_symmetry_2
Li0 O1 2.011682 1_555
Li1 O2 1.975214 1_555
Co0 O1 1.880165 1_555
Co0 O0 1.920479 1_555
Co0 F0 2.045237 1_545
Co0 F7 2.064344 1_556
Co1 O1 1.952363 1_455
Co1 O0 2.019943 1_555
Co1 F12 2.128743 1_456
Co1 F9 2.132644 1_556
Co1 F0 2.202844 1_455
Co1 F11 2.205893 1_556
Co2 O0 1.962160 1_555
Co2 F1 2.071944 1_555
Co2 F3 2.087283 1_555
Co2 F2 2.105551 1_555
Co2 F4 2.128824 1_565
Co2 F0 2.142020 1_455
Co3 O1 1.963354 1_455
Co3 O0 2.035057 1_555
Co3 F3 2.118876 1_545
Co3 F5 2.132472 1_555
Co3 F1 2.180427 1_555
Co3 F4 2.187448 1_555
Co4 O2 1.958627 1_555
Co4 F5 2.081391 1_565
Co4 F2 2.100939 1_555
Co4 F6 2.120510 1_555
Co4 F8 2.132572 1_565
Co4 F4 2.154110 1_565
Co5 O2 1.947939 1_545
Co5 F9 2.087934 1_555
Co5 F10 2.091424 1_455
Co5 F8 2.107631 1_555
Co5 F11 2.148517 1_555
Co5 F7 2.160161 1_555
Co6 O2 1.945672 1_555
Co6 F12 2.097582 1_555
Co6 F10 2.104530 1_555
Co6 F6 2.105761 1_555
Co6 F11 2.132747 1_655
Co6 F7 2.174689 1_565
F0 Li0 2.135708 1_555
F1 Li1 1.969475 1_555
F1 Li0 2.075840 1_455
F2 Li2 1.980042 1_555
F2 Li0 2.057271 1_555
F3 Li4 2.004050 1_556
F3 Li0 2.102442 1_555
F4 Li2 1.990471 1_455
F5 Li2 1.950909 1_555
F5 Li0 2.196348 1_545
F6 Li1 1.969119 1_655
F6 Li3 2.055193 1_565
F7 Li3 2.109316 1_555
F8 Li1 2.002456 1_555
F8 Li3 2.074835 1_555
F9 Li4 1.982234 1_545
F9 Li3 2.085401 1_455
F10 Li2 1.939641 1_555
F10 Li3 2.088633 1_555
F11 Li4 2.021511 1_555
F12 Li4 1.967917 1_555
F12 Li3 2.091166 1_555
