# generated using pymatgen
data_K4HgP2
_symmetry_space_group_name_H-M   'P 1'
_cell_length_a   9.60060390
_cell_length_b   9.60060406
_cell_length_c   9.60060400
_cell_angle_alpha   34.35144400
_cell_angle_beta   34.35144240
_cell_angle_gamma   34.35144302
_symmetry_Int_Tables_number   1
_chemical_formula_structural   K4HgP2
_chemical_formula_sum   'K4 Hg1 P2'
_cell_volume   251.29393569
_cell_formula_units_Z   1
loop_
 _symmetry_equiv_pos_site_id
 _symmetry_equiv_pos_as_xyz
  1  'x, y, z'
loop_
 _atom_site_type_symbol
 _atom_site_label
 _atom_site_symmetry_multiplicity
 _atom_site_fract_x
 _atom_site_fract_y
 _atom_site_fract_z
 _atom_site_occupancy
  K  K0  1  0.20753849  0.20753849  0.20753849  1
  K  K1  1  0.79246151  0.79246151  0.79246151  1
  K  K2  1  0.39031279  0.39031279  0.39031279  1
  K  K3  1  0.60968721  0.60968721  0.60968721  1
  Hg  Hg0  1  0.00000000  0.00000000  -0.00000000  1
  P  P0  1  0.08840669  0.08840669  0.08840669  1
  P  P1  1  0.91159331  0.91159331  0.91159331  1
loop_
_geom_bond_atom_site_label_1
_geom_bond_atom_site_label_2
_geom_bond_distance
_geom_bond_site_symmetry_2
K0 P0 3.225573 1_555
K0 P1 3.426623 1_544
K0 P1 3.426623 1_445
K0 P1 3.426623 1_454
K1 P1 3.225573 1_555
K1 P0 3.426623 1_566
K1 P0 3.426623 1_665
K1 P0 3.426623 1_656
K2 P0 3.382459 1_655
K2 P0 3.382459 1_556
K2 P0 3.382459 1_565
K3 P1 3.382459 1_455
K3 P1 3.382459 1_554
K3 P1 3.382459 1_545
Hg0 P0 2.393670 1_555
Hg0 P1 2.393670 1_444
Hg0 K2 3.618988 1_455
Hg0 K3 3.618988 1_544
Hg0 K3 3.618988 1_445
Hg0 K2 3.618988 1_554
Hg0 K3 3.618988 1_454
Hg0 K2 3.618988 1_545
