# generated using pymatgen
data_Li2Mn2(SiO3)3
_symmetry_space_group_name_H-M   'P 1'
_cell_length_a   6.35629100
_cell_length_b   9.73064600
_cell_length_c   12.45932600
_cell_angle_alpha   90.00000000
_cell_angle_beta   90.00000000
_cell_angle_gamma   90.00000000
_symmetry_Int_Tables_number   1
_chemical_formula_structural   Li2Mn2(SiO3)3
_chemical_formula_sum   'Li8 Mn8 Si12 O36'
_cell_volume   770.61949977
_cell_formula_units_Z   4
loop_
 _symmetry_equiv_pos_site_id
 _symmetry_equiv_pos_as_xyz
  1  'x, y, z'
loop_
 _atom_site_type_symbol
 _atom_site_label
 _atom_site_symmetry_multiplicity
 _atom_site_fract_x
 _atom_site_fract_y
 _atom_site_fract_z
 _atom_site_occupancy
  Li  Li0  1  0.14031500  0.55827800  0.08638800  1
  Li  Li1  1  0.14031500  0.94172200  0.08638800  1
  Li  Li2  1  0.64031500  0.05827800  0.41361200  1
  Li  Li3  1  0.64031500  0.44172200  0.41361200  1
  Li  Li4  1  0.35968500  0.55827800  0.58638800  1
  Li  Li5  1  0.35968500  0.94172200  0.58638800  1
  Li  Li6  1  0.85968500  0.05827800  0.91361200  1
  Li  Li7  1  0.85968500  0.44172200  0.91361200  1
  Mn  Mn0  1  0.69242000  0.49543300  0.15636500  1
  Mn  Mn1  1  0.69242000  0.00456700  0.15636500  1
  Mn  Mn2  1  0.19242000  0.99543300  0.34363500  1
  Mn  Mn3  1  0.19242000  0.50456700  0.34363500  1
  Mn  Mn4  1  0.80758000  0.49543300  0.65636500  1
  Mn  Mn5  1  0.80758000  0.00456700  0.65636500  1
  Mn  Mn6  1  0.30758000  0.99543300  0.84363500  1
  Mn  Mn7  1  0.30758000  0.50456700  0.84363500  1
  Si  Si0  1  0.52207700  0.75000000  0.03281800  1
  Si  Si1  1  0.04348400  0.25000000  0.07652100  1
  Si  Si2  1  0.42718700  0.25000000  0.21722300  1
  Si  Si3  1  0.92718700  0.75000000  0.28277700  1
  Si  Si4  1  0.54348400  0.75000000  0.42347900  1
  Si  Si5  1  0.02207700  0.25000000  0.46718200  1
  Si  Si6  1  0.97792300  0.75000000  0.53281800  1
  Si  Si7  1  0.45651600  0.25000000  0.57652100  1
  Si  Si8  1  0.07281300  0.25000000  0.71722300  1
  Si  Si9  1  0.57281300  0.75000000  0.78277700  1
  Si  Si10  1  0.95651600  0.75000000  0.92347900  1
  Si  Si11  1  0.47792300  0.25000000  0.96718200  1
  O  O0  1  0.78484300  0.75000000  0.02518200  1
  O  O1  1  0.92128400  0.10517500  0.06688800  1
  O  O2  1  0.92128400  0.39482500  0.06688800  1
  O  O3  1  0.44745500  0.60929800  0.09075900  1
  O  O4  1  0.44745500  0.89070200  0.09075900  1
  O  O5  1  0.54506800  0.25000000  0.09815500  1
  O  O6  1  0.98968400  0.89440200  0.22449000  1
  O  O7  1  0.98968400  0.60559800  0.22449000  1
  O  O8  1  0.17192700  0.25000000  0.19322700  1
  O  O9  1  0.67192700  0.75000000  0.30677300  1
  O  O10  1  0.48968400  0.10559800  0.27551000  1
  O  O11  1  0.48968400  0.39440200  0.27551000  1
  O  O12  1  0.04506800  0.75000000  0.40184500  1
  O  O13  1  0.94745500  0.10929800  0.40924100  1
  O  O14  1  0.94745500  0.39070200  0.40924100  1
  O  O15  1  0.42128400  0.60517500  0.43311200  1
  O  O16  1  0.42128400  0.89482500  0.43311200  1
  O  O17  1  0.28484300  0.25000000  0.47481800  1
  O  O18  1  0.71515700  0.75000000  0.52518200  1
  O  O19  1  0.57871600  0.10517500  0.56688800  1
  O  O20  1  0.57871600  0.39482500  0.56688800  1
  O  O21  1  0.05254500  0.60929800  0.59075900  1
  O  O22  1  0.05254500  0.89070200  0.59075900  1
  O  O23  1  0.95493200  0.25000000  0.59815500  1
  O  O24  1  0.51031600  0.60559800  0.72449000  1
  O  O25  1  0.51031600  0.89440200  0.72449000  1
  O  O26  1  0.32807300  0.25000000  0.69322700  1
  O  O27  1  0.82807300  0.75000000  0.80677300  1
  O  O28  1  0.01031600  0.10559800  0.77551000  1
  O  O29  1  0.01031600  0.39440200  0.77551000  1
  O  O30  1  0.45493200  0.75000000  0.90184500  1
  O  O31  1  0.55254500  0.10929800  0.90924100  1
  O  O32  1  0.55254500  0.39070200  0.90924100  1
  O  O33  1  0.07871600  0.60517500  0.93311200  1
  O  O34  1  0.07871600  0.89482500  0.93311200  1
  O  O35  1  0.21515700  0.25000000  0.97481800  1
loop_
_geom_bond_atom_site_label_1
_geom_bond_atom_site_label_2
_geom_bond_distance
_geom_bond_site_symmetry_2
Li0 O33 2.002140 1_554
Li0 O3 2.015142 1_555
Li0 O7 2.022227 1_455
Li0 O2 2.127679 1_455
Li1 O34 2.002140 1_554
Li1 O4 2.015142 1_555
Li1 O6 2.022227 1_455
Li1 O1 2.127679 1_465
Li2 O19 2.002140 1_555
Li2 O13 2.015142 1_555
Li2 O10 2.022227 1_555
Li2 O16 2.127679 1_545
Li3 O20 2.002140 1_555
Li3 O14 2.015142 1_555
Li3 O11 2.022227 1_555
Li3 O15 2.127679 1_555
Li4 O15 2.002140 1_555
Li4 O21 2.015142 1_555
Li4 O24 2.022227 1_555
Li4 O20 2.127679 1_555
Li5 O16 2.002140 1_555
Li5 O22 2.015142 1_555
Li5 O25 2.022227 1_555
Li5 O19 2.127679 1_565
Li6 O1 2.002140 1_556
Li6 O31 2.015142 1_555
Li6 O28 2.022227 1_655
Li6 O34 2.127679 1_645
Li7 O2 2.002140 1_556
Li7 O32 2.015142 1_555
Li7 O29 2.022227 1_655
Li7 O33 2.127679 1_655
Mn0 O2 2.077850 1_555
Mn0 O3 2.078518 1_555
Mn0 O11 2.197894 1_555
Mn0 O7 2.332333 1_555
Mn0 O5 2.665866 1_555
Mn1 O1 2.077850 1_555
Mn1 O4 2.078518 1_545
Mn1 O10 2.197894 1_555
Mn1 O6 2.332333 1_545
Mn1 O5 2.665866 1_555
Mn2 O16 2.077850 1_555
Mn2 O13 2.078518 1_465
Mn2 O6 2.197894 1_455
Mn2 O10 2.332333 1_565
Mn2 O12 2.665866 1_555
Mn3 O15 2.077850 1_555
Mn3 O14 2.078518 1_455
Mn3 O7 2.197894 1_455
Mn3 O11 2.332333 1_555
Mn3 O12 2.665866 1_555
Mn4 O20 2.077850 1_555
Mn4 O21 2.078518 1_655
Mn4 O29 2.197894 1_655
Mn4 O24 2.332333 1_555
Mn4 O23 2.665866 1_555
Mn5 O19 2.077850 1_555
Mn5 O22 2.078518 1_645
Mn5 O28 2.197894 1_655
Mn5 O25 2.332333 1_545
Mn5 O23 2.665866 1_555
Mn6 O34 2.077850 1_555
Mn6 O31 2.078518 1_565
Mn6 O25 2.197894 1_555
Mn6 O28 2.332333 1_565
Mn6 O30 2.665866 1_555
Mn7 O33 2.077850 1_555
Mn7 O32 2.078518 1_555
Mn7 O24 2.197894 1_555
Mn7 O29 2.332333 1_555
Mn7 O30 2.665866 1_555
O0 Si10 1.672243 1_554
O0 Si0 1.672925 1_555
O1 Si1 1.613595 1_655
O2 Si1 1.613595 1_655
O3 Si0 1.618833 1_555
O4 Si0 1.618833 1_555
O5 Si2 1.661994 1_555
O5 Si11 1.686724 1_554
O6 Si3 1.630820 1_555
O7 Si3 1.630820 1_555
O8 Si2 1.649822 1_555
O8 Si1 1.667599 1_555
O9 Si3 1.649822 1_555
O9 Si4 1.667599 1_555
O10 Si2 1.630820 1_555
O11 Si2 1.630820 1_555
O12 Si3 1.661994 1_455
O12 Si6 1.686724 1_455
O13 Si5 1.618833 1_655
O14 Si5 1.618833 1_655
O15 Si4 1.613595 1_555
O16 Si4 1.613595 1_555
O17 Si7 1.672243 1_555
O17 Si5 1.672925 1_555
O18 Si4 1.672243 1_555
O18 Si6 1.672925 1_555
O19 Si7 1.613595 1_555
O20 Si7 1.613595 1_555
O21 Si6 1.618833 1_455
O22 Si6 1.618833 1_455
O23 Si8 1.661994 1_655
O23 Si5 1.686724 1_655
O24 Si9 1.630820 1_555
O25 Si9 1.630820 1_555
O26 Si8 1.649822 1_555
O26 Si7 1.667599 1_555
O27 Si9 1.649822 1_555
O27 Si10 1.667599 1_555
O28 Si8 1.630820 1_555
O29 Si8 1.630820 1_555
O30 Si9 1.661994 1_555
O30 Si0 1.686724 1_556
O31 Si11 1.618833 1_555
O32 Si11 1.618833 1_555
O33 Si10 1.613595 1_455
O34 Si10 1.613595 1_455
O35 Si1 1.672243 1_556
O35 Si11 1.672925 1_555
