# generated using pymatgen
data_LiMn4(PO4)3
_symmetry_space_group_name_H-M   'P 1'
_cell_length_a   6.59007800
_cell_length_b   10.16624400
_cell_length_c   15.96927000
_cell_angle_alpha   90.00000000
_cell_angle_beta   90.00000000
_cell_angle_gamma   90.00000000
_symmetry_Int_Tables_number   1
_chemical_formula_structural   LiMn4(PO4)3
_chemical_formula_sum   'Li4 Mn16 P12 O48'
_cell_volume   1069.88265728
_cell_formula_units_Z   4
loop_
 _symmetry_equiv_pos_site_id
 _symmetry_equiv_pos_as_xyz
  1  'x, y, z'
loop_
 _atom_site_type_symbol
 _atom_site_label
 _atom_site_symmetry_multiplicity
 _atom_site_fract_x
 _atom_site_fract_y
 _atom_site_fract_z
 _atom_site_occupancy
  Li  Li0  1  0.75000000  0.25831500  0.21189000  1
  Li  Li1  1  0.75000000  0.75831500  0.28811000  1
  Li  Li2  1  0.25000000  0.74168500  0.78811000  1
  Li  Li3  1  0.25000000  0.24168500  0.71189000  1
  Mn  Mn0  1  0.99996100  0.74519300  0.55256200  1
  Mn  Mn1  1  0.99996100  0.24519300  0.94743800  1
  Mn  Mn2  1  0.75000000  0.42780000  0.62634300  1
  Mn  Mn3  1  0.75000000  0.03488700  0.63192800  1
  Mn  Mn4  1  0.75000000  0.53488700  0.86807200  1
  Mn  Mn5  1  0.75000000  0.92780000  0.87365700  1
  Mn  Mn6  1  0.50003900  0.74519300  0.55256200  1
  Mn  Mn7  1  0.50003900  0.24519300  0.94743800  1
  Mn  Mn8  1  0.49996100  0.25480700  0.44743800  1
  Mn  Mn9  1  0.49996100  0.75480700  0.05256200  1
  Mn  Mn10  1  0.25000000  0.57220000  0.37365700  1
  Mn  Mn11  1  0.25000000  0.46511300  0.13192800  1
  Mn  Mn12  1  0.25000000  0.96511300  0.36807200  1
  Mn  Mn13  1  0.25000000  0.07220000  0.12634300  1
  Mn  Mn14  1  0.00003900  0.75480700  0.05256200  1
  Mn  Mn15  1  0.00003900  0.25480700  0.44743800  1
  P  P0  1  0.75000000  0.47337000  0.06325300  1
  P  P1  1  0.75000000  0.05147600  0.05639700  1
  P  P2  1  0.75000000  0.55147600  0.44360300  1
  P  P3  1  0.75000000  0.20419100  0.77409000  1
  P  P4  1  0.75000000  0.97337000  0.43674700  1
  P  P5  1  0.75000000  0.70419100  0.72591000  1
  P  P6  1  0.25000000  0.29580900  0.27409000  1
  P  P7  1  0.25000000  0.79580900  0.22591000  1
  P  P8  1  0.25000000  0.44852400  0.55639700  1
  P  P9  1  0.25000000  0.52663000  0.93674700  1
  P  P10  1  0.25000000  0.94852400  0.94360300  1
  P  P11  1  0.25000000  0.02663000  0.56325300  1
  O  O0  1  0.94002600  0.61009700  0.40237300  1
  O  O1  1  0.94002600  0.11009700  0.09762700  1
  O  O2  1  0.93877500  0.44410900  0.11498800  1
  O  O3  1  0.93877500  0.94410900  0.38501200  1
  O  O4  1  0.94574200  0.75641300  0.68268700  1
  O  O5  1  0.94574200  0.25641300  0.81731300  1
  O  O6  1  0.75000000  0.89772000  0.05338200  1
  O  O7  1  0.75000000  0.62057000  0.02982500  1
  O  O8  1  0.75000000  0.24230500  0.68018800  1
  O  O9  1  0.75000000  0.55026200  0.72978200  1
  O  O10  1  0.75000000  0.59957100  0.53865900  1
  O  O11  1  0.75000000  0.38540500  0.98013900  1
  O  O12  1  0.75000000  0.09957100  0.96134100  1
  O  O13  1  0.75000000  0.88540500  0.51986100  1
  O  O14  1  0.75000000  0.05026300  0.77021800  1
  O  O15  1  0.75000000  0.39772000  0.44661800  1
  O  O16  1  0.75000000  0.12057000  0.47017500  1
  O  O17  1  0.75000000  0.74230500  0.81981200  1
  O  O18  1  0.55425800  0.75641300  0.68268700  1
  O  O19  1  0.55425800  0.25641300  0.81731300  1
  O  O20  1  0.56122500  0.44410900  0.11498800  1
  O  O21  1  0.56122500  0.94410900  0.38501200  1
  O  O22  1  0.55997400  0.11009700  0.09762700  1
  O  O23  1  0.55997400  0.61009700  0.40237300  1
  O  O24  1  0.44002600  0.38990300  0.59762700  1
  O  O25  1  0.44002600  0.88990300  0.90237300  1
  O  O26  1  0.43877500  0.05589100  0.61498800  1
  O  O27  1  0.43877500  0.55589100  0.88501200  1
  O  O28  1  0.44574200  0.74358700  0.18268700  1
  O  O29  1  0.44574200  0.24358700  0.31731300  1
  O  O30  1  0.25000000  0.40042900  0.46134100  1
  O  O31  1  0.25000000  0.37943000  0.97017500  1
  O  O32  1  0.25000000  0.61459500  0.01986100  1
  O  O33  1  0.25000000  0.90042900  0.03865900  1
  O  O34  1  0.25000000  0.94973800  0.22978200  1
  O  O35  1  0.25000000  0.44973800  0.27021800  1
  O  O36  1  0.25000000  0.75769500  0.31981200  1
  O  O37  1  0.25000000  0.25769500  0.18018800  1
  O  O38  1  0.25000000  0.87943000  0.52982500  1
  O  O39  1  0.25000000  0.60228000  0.55338200  1
  O  O40  1  0.25000000  0.11459500  0.48013900  1
  O  O41  1  0.25000000  0.10228000  0.94661800  1
  O  O42  1  0.05425800  0.74358700  0.18268700  1
  O  O43  1  0.05425800  0.24358700  0.31731300  1
  O  O44  1  0.06122500  0.55589100  0.88501200  1
  O  O45  1  0.06122500  0.05589100  0.61498800  1
  O  O46  1  0.05997400  0.38990300  0.59762700  1
  O  O47  1  0.05997400  0.88990300  0.90237300  1
loop_
_geom_bond_atom_site_label_1
_geom_bond_atom_site_label_2
_geom_bond_distance
_geom_bond_site_symmetry_2
Li0 O43 2.622413 1_655
Li0 O29 2.622413 1_555
Li0 O1 2.677358 1_555
Li0 O22 2.677358 1_555
Li0 O2 2.740424 1_555
Li0 O20 2.740424 1_555
Li1 O42 2.622413 1_655
Li1 O28 2.622413 1_555
Li1 O0 2.677358 1_555
Li1 O23 2.677358 1_555
Li1 O3 2.740424 1_555
Li1 O21 2.740424 1_555
Li2 O4 2.622413 1_455
Li2 O18 2.622413 1_555
Li2 O47 2.677358 1_555
Li2 O25 2.677358 1_555
Li2 O27 2.740424 1_555
Li2 O44 2.740424 1_555
Li3 O5 2.622413 1_455
Li3 O19 2.622413 1_555
Li3 O46 2.677358 1_555
Li3 O24 2.677358 1_555
Li3 O26 2.740424 1_555
Li3 O45 2.740424 1_555
Mn0 O4 2.111580 1_555
Mn0 O38 2.170109 1_655
Mn0 O39 2.196867 1_655
Mn0 O10 2.225856 1_555
Mn0 O13 2.240095 1_555
Mn1 O5 2.111580 1_555
Mn1 O31 2.170109 1_655
Mn1 O41 2.196867 1_655
Mn1 O12 2.225856 1_555
Mn1 O11 2.240095 1_555
Mn2 O9 2.068469 1_555
Mn2 O8 2.072574 1_555
Mn2 O46 2.128747 1_655
Mn2 O24 2.128747 1_555
Mn2 O10 2.238335 1_555
Mn3 O45 2.079751 1_655
Mn3 O26 2.079751 1_555
Mn3 O14 2.213916 1_555
Mn3 O8 2.245083 1_555
Mn3 O13 2.347801 1_545
Mn3 O16 2.725997 1_555
Mn4 O44 2.079751 1_655
Mn4 O27 2.079751 1_555
Mn4 O9 2.213915 1_555
Mn4 O17 2.245083 1_555
Mn4 O11 2.347801 1_555
Mn4 O7 2.725997 1_556
Mn5 O14 2.068475 1_565
Mn5 O17 2.072574 1_555
Mn5 O47 2.128747 1_655
Mn5 O25 2.128747 1_555
Mn5 O12 2.238335 1_565
Mn6 O18 2.111580 1_555
Mn6 O38 2.170109 1_555
Mn6 O39 2.196867 1_555
Mn6 O10 2.225856 1_555
Mn6 O13 2.240095 1_555
Mn7 O19 2.111580 1_555
Mn7 O31 2.170109 1_555
Mn7 O41 2.196867 1_555
Mn7 O12 2.225856 1_555
Mn7 O11 2.240095 1_555
Mn8 O29 2.111580 1_555
Mn8 O16 2.170109 1_555
Mn8 O15 2.196867 1_555
Mn8 O30 2.225856 1_555
Mn8 O40 2.240095 1_555
Mn9 O28 2.111580 1_555
Mn9 O7 2.170109 1_555
Mn9 O6 2.196867 1_555
Mn9 O33 2.225856 1_555
Mn9 O32 2.240095 1_555
Mn10 O35 2.068469 1_555
Mn10 O36 2.072574 1_555
Mn10 O23 2.128747 1_555
Mn10 O0 2.128747 1_455
Mn10 O30 2.238335 1_555
Mn11 O20 2.079751 1_555
Mn11 O2 2.079751 1_455
Mn11 O35 2.213915 1_555
Mn11 O37 2.245083 1_555
Mn11 O32 2.347801 1_555
Mn11 O31 2.725997 1_554
Mn12 O21 2.079751 1_555
Mn12 O3 2.079751 1_455
Mn12 O34 2.213915 1_555
Mn12 O36 2.245083 1_555
Mn12 O40 2.347801 1_565
Mn12 O38 2.725997 1_555
Mn13 O34 2.068469 1_545
Mn13 O37 2.072574 1_555
Mn13 O22 2.128747 1_555
Mn13 O1 2.128747 1_455
Mn13 O33 2.238335 1_545
Mn14 O42 2.111580 1_555
Mn14 O7 2.170109 1_455
Mn14 O6 2.196867 1_455
Mn14 O33 2.225856 1_555
Mn14 O32 2.240095 1_555
Mn15 O43 2.111580 1_555
Mn15 O16 2.170109 1_455
Mn15 O15 2.196867 1_455
Mn15 O30 2.225856 1_555
Mn15 O40 2.240095 1_555
O0 P2 1.535217 1_555
O1 P1 1.535217 1_555
O2 P0 1.522724 1_555
O3 P4 1.522724 1_555
O4 P5 1.556365 1_555
O5 P3 1.556365 1_555
O6 P1 1.563862 1_565
O7 P0 1.588833 1_555
O8 P3 1.548799 1_555
O9 P5 1.566101 1_555
O10 P2 1.594778 1_555
O11 P0 1.600428 1_556
O12 P1 1.594778 1_556
O13 P4 1.600428 1_555
O14 P3 1.566091 1_555
O15 P2 1.563862 1_555
O16 P4 1.588833 1_545
O17 P5 1.548799 1_555
O18 P5 1.556365 1_555
O19 P3 1.556365 1_555
O20 P0 1.522724 1_555
O21 P4 1.522724 1_555
O22 P1 1.535217 1_555
O23 P2 1.535217 1_555
O24 P8 1.535217 1_555
O25 P10 1.535217 1_555
O26 P11 1.522724 1_555
O27 P9 1.522724 1_555
O28 P7 1.556365 1_555
O29 P6 1.556365 1_555
O30 P8 1.594778 1_555
O31 P9 1.588833 1_555
O32 P9 1.600428 1_554
O33 P10 1.594778 1_554
O34 P7 1.566101 1_555
O35 P6 1.566101 1_555
O36 P7 1.548799 1_555
O37 P6 1.548799 1_555
O38 P11 1.588833 1_565
O39 P8 1.563862 1_555
O40 P11 1.600428 1_555
O41 P10 1.563862 1_545
O42 P7 1.556365 1_555
O43 P6 1.556365 1_555
O44 P9 1.522724 1_555
O45 P11 1.522724 1_555
O46 P8 1.535217 1_555
O47 P10 1.535217 1_555
