# generated using pymatgen
data_Li2V3SbO8
_symmetry_space_group_name_H-M   'P 1'
_cell_length_a   8.61757300
_cell_length_b   8.61757300
_cell_length_c   8.61757300
_cell_angle_alpha   90.00000000
_cell_angle_beta   90.00000000
_cell_angle_gamma   90.00000000
_symmetry_Int_Tables_number   1
_chemical_formula_structural   Li2V3SbO8
_chemical_formula_sum   'Li8 V12 Sb4 O32'
_cell_volume   639.96306997
_cell_formula_units_Z   4
loop_
 _symmetry_equiv_pos_site_id
 _symmetry_equiv_pos_as_xyz
  1  'x, y, z'
loop_
 _atom_site_type_symbol
 _atom_site_label
 _atom_site_symmetry_multiplicity
 _atom_site_fract_x
 _atom_site_fract_y
 _atom_site_fract_z
 _atom_site_occupancy
  Li  Li0  1  0.00342200  0.00342200  0.00342200  1
  Li  Li1  1  0.24657800  0.24657800  0.24657800  1
  Li  Li2  1  0.25342200  0.75342200  0.74657800  1
  Li  Li3  1  0.49657800  0.99657800  0.50342200  1
  Li  Li4  1  0.50342200  0.49657800  0.99657800  1
  Li  Li5  1  0.74657800  0.25342200  0.75342200  1
  Li  Li6  1  0.75342200  0.74657800  0.25342200  1
  Li  Li7  1  0.99657800  0.50342200  0.49657800  1
  V  V0  1  0.11787800  0.13212200  0.62500000  1
  V  V1  1  0.12500000  0.38212200  0.86787800  1
  V  V2  1  0.13212200  0.62500000  0.11787800  1
  V  V3  1  0.36787800  0.37500000  0.61787800  1
  V  V4  1  0.37500000  0.61787800  0.36787800  1
  V  V5  1  0.38212200  0.86787800  0.12500000  1
  V  V6  1  0.61787800  0.36787800  0.37500000  1
  V  V7  1  0.62500000  0.11787800  0.13212200  1
  V  V8  1  0.63212200  0.87500000  0.88212200  1
  V  V9  1  0.86787800  0.12500000  0.38212200  1
  V  V10  1  0.87500000  0.88212200  0.63212200  1
  V  V11  1  0.88212200  0.63212200  0.87500000  1
  Sb  Sb0  1  0.12500000  0.87500000  0.37500000  1
  Sb  Sb1  1  0.37500000  0.12500000  0.87500000  1
  Sb  Sb2  1  0.62500000  0.62500000  0.62500000  1
  Sb  Sb3  1  0.87500000  0.37500000  0.12500000  1
  O  O0  1  0.10737000  0.10994300  0.38176900  1
  O  O1  1  0.11823100  0.89263000  0.60994300  1
  O  O2  1  0.11582800  0.61582800  0.88417200  1
  O  O3  1  0.14005700  0.14263000  0.86823100  1
  O  O4  1  0.10994300  0.38176900  0.10737000  1
  O  O5  1  0.13417200  0.36582800  0.63417200  1
  O  O6  1  0.13176900  0.64005700  0.35737000  1
  O  O7  1  0.14263000  0.86823100  0.14005700  1
  O  O8  1  0.35737000  0.13176900  0.64005700  1
  O  O9  1  0.36823100  0.35994300  0.85737000  1
  O  O10  1  0.36582800  0.63417200  0.13417200  1
  O  O11  1  0.39005700  0.61823100  0.60737000  1
  O  O12  1  0.35994300  0.85737000  0.36823100  1
  O  O13  1  0.38417200  0.38417200  0.38417200  1
  O  O14  1  0.38176900  0.10737000  0.10994300  1
  O  O15  1  0.39263000  0.89005700  0.88176900  1
  O  O16  1  0.60737000  0.39005700  0.61823100  1
  O  O17  1  0.61823100  0.60737000  0.39005700  1
  O  O18  1  0.61582800  0.88417200  0.11582800  1
  O  O19  1  0.64005700  0.35737000  0.13176900  1
  O  O20  1  0.60994300  0.11823100  0.89263000  1
  O  O21  1  0.63417200  0.13417200  0.36582800  1
  O  O22  1  0.63176900  0.85994300  0.64263000  1
  O  O23  1  0.64263000  0.63176900  0.85994300  1
  O  O24  1  0.85737000  0.36823100  0.35994300  1
  O  O25  1  0.86823100  0.14005700  0.14263000  1
  O  O26  1  0.86582800  0.86582800  0.86582800  1
  O  O27  1  0.89005700  0.88176900  0.39263000  1
  O  O28  1  0.85994300  0.64263000  0.63176900  1
  O  O29  1  0.88417200  0.11582800  0.61582800  1
  O  O30  1  0.88176900  0.39263000  0.89005700  1
  O  O31  1  0.89263000  0.60994300  0.11823100  1
loop_
_geom_bond_atom_site_label_1
_geom_bond_atom_site_label_2
_geom_bond_distance
_geom_bond_site_symmetry_2
Li0 O3 2.045192 1_554
Li0 O25 2.045192 1_455
Li0 O7 2.045192 1_545
Li0 O26 2.053738 1_444
Li1 O14 2.045192 1_555
Li1 O4 2.045192 1_555
Li1 O0 2.045192 1_555
Li1 O13 2.053738 1_555
Li2 O11 2.045192 1_555
Li2 O15 2.045192 1_555
Li2 O1 2.045192 1_555
Li2 O2 2.053738 1_555
Li3 O12 2.045192 1_555
Li3 O8 2.045192 1_565
Li3 O22 2.045192 1_555
Li3 O21 2.053738 1_565
Li4 O9 2.045192 1_555
Li4 O19 2.045192 1_556
Li4 O23 2.045192 1_555
Li4 O10 2.053738 1_556
Li5 O16 2.045192 1_555
Li5 O30 2.045192 1_555
Li5 O20 2.045192 1_555
Li5 O29 2.053738 1_555
Li6 O17 2.045192 1_555
Li6 O27 2.045192 1_555
Li6 O31 2.045192 1_555
Li6 O18 2.053738 1_555
Li7 O24 2.045192 1_555
Li7 O6 2.045192 1_655
Li7 O28 2.045192 1_555
Li7 O5 2.053738 1_655
O0 Sb0 2.031169 1_545
O0 V9 2.067917 1_455
O0 V0 2.106704 1_555
O1 Sb0 2.031169 1_555
O1 V0 2.067917 1_565
O1 V10 2.106704 1_455
O2 V2 2.020414 1_556
O2 V1 2.020414 1_555
O2 V11 2.020414 1_455
O3 Sb1 2.031169 1_555
O3 V1 2.067917 1_555
O3 V0 2.106704 1_555
O4 Sb3 2.031169 1_455
O4 V1 2.067917 1_554
O4 V2 2.106704 1_555
O5 V1 2.020414 1_555
O5 V0 2.020414 1_555
O5 V3 2.020414 1_555
O6 Sb0 2.031169 1_555
O6 V2 2.067917 1_555
O6 V4 2.106704 1_555
O7 Sb0 2.031169 1_555
O7 V5 2.067917 1_555
O7 V2 2.106704 1_555
O8 Sb1 2.031169 1_555
O8 V0 2.067917 1_555
O8 V3 2.106704 1_555
O9 Sb1 2.031169 1_555
O9 V3 2.067917 1_555
O9 V1 2.106704 1_555
O10 V5 2.020414 1_555
O10 V2 2.020414 1_555
O10 V4 2.020414 1_555
O11 Sb2 2.031169 1_555
O11 V4 2.067917 1_555
O11 V3 2.106704 1_555
O12 Sb0 2.031169 1_555
O12 V4 2.067917 1_555
O12 V5 2.106704 1_555
O13 V4 2.020414 1_555
O13 V6 2.020414 1_555
O13 V3 2.020414 1_555
O14 Sb1 2.031169 1_554
O14 V5 2.067917 1_545
O14 V7 2.106704 1_555
O15 Sb1 2.031169 1_565
O15 V8 2.067917 1_555
O15 V5 2.106704 1_556
O16 Sb2 2.031169 1_555
O16 V3 2.067917 1_555
O16 V6 2.106704 1_555
O17 Sb2 2.031169 1_555
O17 V6 2.067917 1_555
O17 V4 2.106704 1_555
O18 V7 2.020414 1_565
O18 V8 2.020414 1_554
O18 V5 2.020414 1_555
O19 Sb3 2.031169 1_555
O19 V7 2.067917 1_555
O19 V6 2.106704 1_555
O20 Sb1 2.031169 1_555
O20 V7 2.067917 1_556
O20 V8 2.106704 1_545
O21 V9 2.020414 1_555
O21 V7 2.020414 1_555
O21 V6 2.020414 1_555
O22 Sb2 2.031169 1_555
O22 V8 2.067917 1_555
O22 V10 2.106704 1_555
O23 Sb2 2.031169 1_555
O23 V11 2.067917 1_555
O23 V8 2.106704 1_555
O24 Sb3 2.031169 1_555
O24 V6 2.067917 1_555
O24 V9 2.106704 1_555
O25 Sb3 2.031169 1_555
O25 V9 2.067917 1_555
O25 V7 2.106704 1_555
O26 V8 2.020414 1_555
O26 V10 2.020414 1_555
O26 V11 2.020414 1_555
O27 Sb0 2.031169 1_655
O27 V10 2.067917 1_555
O27 V9 2.106704 1_565
O28 Sb2 2.031169 1_555
O28 V10 2.067917 1_555
O28 V11 2.106704 1_555
O29 V0 2.020414 1_655
O29 V9 2.020414 1_555
O29 V10 2.020414 1_545
O30 Sb3 2.031169 1_556
O30 V11 2.067917 1_555
O30 V1 2.106704 1_655
O31 Sb3 2.031169 1_555
O31 V2 2.067917 1_655
O31 V11 2.106704 1_554
