# generated using pymatgen
data_Li2Mn2P2(H4O5)3
_symmetry_space_group_name_H-M   'P 1'
_cell_length_a   11.46016070
_cell_length_b   11.46016070
_cell_length_c   12.17377356
_cell_angle_alpha   86.05775786
_cell_angle_beta   86.05775786
_cell_angle_gamma   24.66662312
_symmetry_Int_Tables_number   1
_chemical_formula_structural   Li2Mn2P2(H4O5)3
_chemical_formula_sum   'Li4 Mn4 P4 H24 O30'
_cell_volume   665.60441712
_cell_formula_units_Z   2
loop_
 _symmetry_equiv_pos_site_id
 _symmetry_equiv_pos_as_xyz
  1  'x, y, z'
loop_
 _atom_site_type_symbol
 _atom_site_label
 _atom_site_symmetry_multiplicity
 _atom_site_fract_x
 _atom_site_fract_y
 _atom_site_fract_z
 _atom_site_occupancy
  Li  Li0  1  0.23853900  0.97427900  0.07083100  1
  Li  Li1  1  0.97427900  0.23853900  0.57083100  1
  Li  Li2  1  0.02765900  0.74759100  0.43003500  1
  Li  Li3  1  0.74759100  0.02765900  0.93003500  1
  Mn  Mn0  1  0.42505100  0.06956400  0.12368600  1
  Mn  Mn1  1  0.92501800  0.56835500  0.37773300  1
  Mn  Mn2  1  0.06956400  0.42505100  0.62368600  1
  Mn  Mn3  1  0.56835500  0.92501800  0.87773300  1
  P  P0  1  0.82107700  0.50412100  0.21305700  1
  P  P1  1  0.50412100  0.82107700  0.71305700  1
  P  P2  1  0.49112500  0.17132500  0.28845100  1
  P  P3  1  0.17132500  0.49112500  0.78845100  1
  H  H0  1  0.46912500  0.56091600  0.14926900  1
  H  H1  1  0.83900100  0.22584100  0.22963600  1
  H  H2  1  0.56091600  0.46912500  0.64926900  1
  H  H3  1  0.01640300  0.11119400  0.37473500  1
  H  H4  1  0.22584100  0.83900100  0.72963600  1
  H  H5  1  0.11119400  0.01640300  0.87473500  1
  H  H6  1  0.26936500  0.95979200  0.39362000  1
  H  H7  1  0.95979200  0.26936500  0.89362000  1
  H  H8  1  0.89985500  0.62847200  0.06585100  1
  H  H9  1  0.36431200  0.09416500  0.43323700  1
  H  H10  1  0.62847200  0.89985500  0.56585100  1
  H  H11  1  0.09416500  0.36431200  0.93323700  1
  H  H12  1  0.02714800  0.73277100  0.10933000  1
  H  H13  1  0.73277100  0.02714800  0.60933000  1
  H  H14  1  0.88399200  0.98112900  0.12526000  1
  H  H15  1  0.76346300  0.15474900  0.27375100  1
  H  H16  1  0.98112900  0.88399200  0.62526000  1
  H  H17  1  0.43220200  0.52590600  0.34960400  1
  H  H18  1  0.26214200  0.72338300  0.05729700  1
  H  H19  1  0.15474900  0.76346300  0.77375100  1
  H  H20  1  0.26889700  0.73617200  0.44003900  1
  H  H21  1  0.52590600  0.43220200  0.84960400  1
  H  H22  1  0.72338300  0.26214200  0.55729700  1
  H  H23  1  0.73617200  0.26889700  0.94003900  1
  O  O0  1  0.35000200  0.70865400  0.09234400  1
  O  O1  1  0.70865400  0.35000200  0.59234400  1
  O  O2  1  0.14750500  0.01218700  0.43126300  1
  O  O3  1  0.93614800  0.28135500  0.18605400  1
  O  O4  1  0.01218700  0.14750500  0.93126300  1
  O  O5  1  0.74979100  0.57830100  0.33835000  1
  O  O6  1  0.28135500  0.93614800  0.68605400  1
  O  O7  1  0.55872200  0.77973000  0.14372900  1
  O  O8  1  0.57830100  0.74979100  0.83835000  1
  O  O9  1  0.77973000  0.55872200  0.64372900  1
  O  O10  1  0.04883600  0.39772400  0.19024300  1
  O  O11  1  0.18357900  0.24430800  0.47045500  1
  O  O12  1  0.39772400  0.04883600  0.69024300  1
  O  O13  1  0.74768600  0.81230100  0.02996700  1
  O  O14  1  0.24430800  0.18357900  0.97045500  1
  O  O15  1  0.59635600  0.94433400  0.31127700  1
  O  O16  1  0.81230100  0.74768600  0.52996700  1
  O  O17  1  0.94433400  0.59635600  0.81127700  1
  O  O18  1  0.21653300  0.43333100  0.35807200  1
  O  O19  1  0.41627400  0.24340900  0.16343100  1
  O  O20  1  0.43333100  0.21653300  0.85807200  1
  O  O21  1  0.71608000  0.05328300  0.31557300  1
  O  O22  1  0.24340900  0.41627400  0.66343100  1
  O  O23  1  0.98052800  0.84955400  0.06976900  1
  O  O24  1  0.05328300  0.71608000  0.81557300  1
  O  O25  1  0.84955400  0.98052800  0.56976900  1
  O  O26  1  0.28094300  0.65053500  0.40538200  1
  O  O27  1  0.69497500  0.29675700  0.25015900  1
  O  O28  1  0.65053500  0.28094300  0.90538200  1
  O  O29  1  0.29675700  0.69497500  0.75015900  1
loop_
_geom_bond_atom_site_label_1
_geom_bond_atom_site_label_2
_geom_bond_distance
_geom_bond_site_symmetry_2
Li0 O0 1.958548 1_555
Li0 O3 2.050958 1_465
Li0 O4 2.083159 1_564
Li0 O7 2.128203 1_555
Li1 O1 1.958548 1_555
Li1 O6 2.050958 1_645
Li1 O2 2.083159 1_655
Li1 O9 2.128203 1_555
Li2 O26 1.952158 1_555
Li2 O21 2.059624 1_465
Li2 O18 2.104290 1_555
Li2 O25 2.104741 1_455
Li3 O28 1.952158 1_555
Li3 O24 2.059624 1_645
Li3 O20 2.104290 1_555
Li3 O23 2.104741 1_546
Mn0 O13 1.932572 1_545
Mn0 O10 1.964061 1_555
Mn0 O19 1.993761 1_555
Mn0 O7 2.032471 1_545
Mn0 O14 2.180498 1_554
Mn0 O15 2.484762 1_545
Mn1 O11 1.931083 1_655
Mn1 O15 1.962142 1_555
Mn1 O5 1.996070 1_555
Mn1 O18 2.039123 1_655
Mn1 O16 2.167117 1_555
Mn1 O10 2.484391 1_655
Mn2 O16 1.932572 1_455
Mn2 O12 1.964061 1_555
Mn2 O22 1.993761 1_555
Mn2 O9 2.032471 1_455
Mn2 O11 2.180498 1_555
Mn2 O17 2.484762 1_455
Mn3 O14 1.931083 1_565
Mn3 O17 1.962142 1_555
Mn3 O8 1.996070 1_555
Mn3 O20 2.039123 1_565
Mn3 O13 2.167117 1_556
Mn3 O12 2.484391 1_565
H0 O0 0.989115 1_555
H1 O27 0.990172 1_555
H2 O1 0.989115 1_555
H3 O2 0.977120 1_555
H4 O29 0.990172 1_555
H5 O4 0.977120 1_555
H6 O2 0.972942 1_565
H7 O4 0.972942 1_655
H8 O13 0.985470 1_555
H9 O11 0.978131 1_555
H10 O16 0.985470 1_555
H11 O14 0.978131 1_555
H12 O23 0.977617 1_455
H13 O25 0.977617 1_545
H14 O23 0.979454 1_555
H15 O27 0.996101 1_555
H15 O21 1.713018 1_555
H16 O25 0.979454 1_555
H17 O26 0.988714 1_555
H18 O0 0.982150 1_555
H19 O29 0.996101 1_555
H19 O24 1.713018 1_555
H20 O26 0.981285 1_555
H21 O28 0.988714 1_555
H22 O1 0.982150 1_555
H23 O28 0.981285 1_555
O3 P0 1.517071 1_555
O5 P0 1.568855 1_555
O6 P1 1.517071 1_555
O7 P0 1.565515 1_555
O8 P1 1.568855 1_555
O9 P1 1.565515 1_555
O10 P0 1.593501 1_455
O12 P1 1.593501 1_545
O15 P2 1.594845 1_565
O17 P3 1.594845 1_655
O18 P2 1.564203 1_555
O19 P2 1.566315 1_555
O20 P3 1.564203 1_555
O21 P2 1.517338 1_555
O22 P3 1.566315 1_555
O24 P3 1.517338 1_555
