# generated using pymatgen
data_Li2MnVP2(O4F)2
_symmetry_space_group_name_H-M   'P 1'
_cell_length_a   10.43011200
_cell_length_b   5.35221689
_cell_length_c   7.47906753
_cell_angle_alpha   108.95135432
_cell_angle_beta   105.73505663
_cell_angle_gamma   97.53264736
_symmetry_Int_Tables_number   1
_chemical_formula_structural   Li2MnVP2(O4F)2
_chemical_formula_sum   'Li4 Mn2 V2 P4 O16 F4'
_cell_volume   368.90486998
_cell_formula_units_Z   2
loop_
 _symmetry_equiv_pos_site_id
 _symmetry_equiv_pos_as_xyz
  1  'x, y, z'
loop_
 _atom_site_type_symbol
 _atom_site_label
 _atom_site_symmetry_multiplicity
 _atom_site_fract_x
 _atom_site_fract_y
 _atom_site_fract_z
 _atom_site_occupancy
  Li  Li0  1  0.81321600  0.04108000  0.42954100  1
  Li  Li1  1  0.81056700  0.53986600  0.42789000  1
  Li  Li2  1  0.18757100  0.45993200  0.57372300  1
  Li  Li3  1  0.18823200  0.95803500  0.56978800  1
  Mn  Mn0  1  0.99934800  0.49888400  0.00108400  1
  Mn  Mn1  1  0.50025900  0.74857700  0.49984700  1
  V  V0  1  0.00260900  0.00207500  0.00051900  1
  V  V1  1  0.49838100  0.25040500  0.49768700  1
  P  P0  1  0.76152200  0.22136100  0.11854900  1
  P  P1  1  0.23540600  0.27920200  0.87805400  1
  P  P2  1  0.76281500  0.72245600  0.11942200  1
  P  P3  1  0.24031200  0.77762900  0.88227700  1
  O  O0  1  0.91362200  0.14252600  0.16150400  1
  O  O1  1  0.61291100  0.18209900  0.82554300  1
  O  O2  1  0.65675900  0.17746400  0.31562000  1
  O  O3  1  0.11500200  0.12092500  0.78015300  1
  O  O4  1  0.88254500  0.37983000  0.21768200  1
  O  O5  1  0.34027300  0.32330300  0.68229900  1
  O  O6  1  0.38321800  0.31806200  0.17142000  1
  O  O7  1  0.08112600  0.35735000  0.83423600  1
  O  O8  1  0.91168400  0.63985500  0.16011400  1
  O  O9  1  0.61402800  0.68356200  0.82562900  1
  O  O10  1  0.66096200  0.67960000  0.32124400  1
  O  O11  1  0.11473300  0.61967000  0.78287600  1
  O  O12  1  0.88849600  0.87979800  0.21837600  1
  O  O13  1  0.34299900  0.82177800  0.68156600  1
  O  O14  1  0.38865400  0.81647600  0.17728000  1
  O  O15  1  0.09231700  0.85967100  0.84419500  1
  F  F0  1  0.26361500  0.06837200  0.33727100  1
  F  F1  1  0.72502300  0.43046200  0.64991800  1
  F  F2  1  0.26466400  0.56011600  0.34236300  1
  F  F3  1  0.74713200  0.93958200  0.67233000  1
loop_
_geom_bond_atom_site_label_1
_geom_bond_atom_site_label_2
_geom_bond_distance
_geom_bond_site_symmetry_2
Li0 O12 1.954653 1_545
Li0 O2 1.970767 1_555
Li0 O10 2.097619 1_545
Li1 O10 1.910169 1_555
Li1 O4 1.924330 1_555
Li1 O2 2.106319 1_555
Li2 O11 1.923856 1_555
Li2 O5 1.928846 1_555
Li2 O13 2.117167 1_555
Li3 O3 1.937593 1_565
Li3 O13 1.951719 1_555
Li3 O5 2.107069 1_565
Mn0 O7 1.729522 1_654
Mn0 O8 1.734301 1_555
Mn1 O13 2.392221 1_555
Mn1 O10 2.405492 1_555
Mn1 O14 2.542531 1_555
Mn1 O9 2.560610 1_555
Mn1 O1 2.599939 1_565
Mn1 O6 2.606347 1_555
Mn1 V1 2.658588 1_555
Mn1 V1 2.693783 1_565
O0 O4 1.315273 1_555
O0 O12 1.606011 1_545
O0 P0 1.668859 1_555
O0 V0 1.754239 1_655
O1 P0 2.241027 1_556
O1 V1 2.584818 1_555
O2 P0 2.110143 1_555
O2 V1 2.403995 1_555
O3 P1 1.284648 1_555
O4 P0 1.290615 1_555
O4 O8 1.601214 1_555
O5 P1 2.102584 1_555
O5 V1 2.414923 1_555
O6 P1 2.240318 1_554
O6 V1 2.574219 1_555
O8 P2 1.646232 1_555
O9 P2 2.246881 1_556
O9 V1 2.610416 1_555
O10 P2 2.119035 1_555
O11 O15 1.292006 1_555
O11 P3 1.325261 1_555
O12 O8 1.293338 1_555
O12 P2 1.324705 1_555
O13 P3 2.119531 1_555
O14 P3 2.251947 1_554
O14 V1 2.578154 1_565
O15 O3 1.627991 1_565
O15 P3 1.636196 1_555
O15 V0 1.739199 1_566
F0 Li3 2.297391 1_545
F0 V1 2.325158 1_555
F1 V1 2.245734 1_555
F1 Li1 2.279168 1_555
F2 Li2 2.274306 1_555
F2 Mn1 2.334876 1_555
F3 Li0 2.299747 1_565
F3 Mn1 2.447665 1_555
