# generated using pymatgen
data_MnSiTc2
_symmetry_space_group_name_H-M   'P 1'
_cell_length_a   4.19046230
_cell_length_b   4.19046230
_cell_length_c   4.19046230
_cell_angle_alpha   60.00000000
_cell_angle_beta   60.00000000
_cell_angle_gamma   60.00000000
_symmetry_Int_Tables_number   1
_chemical_formula_structural   MnSiTc2
_chemical_formula_sum   'Mn1 Si1 Tc2'
_cell_volume   52.03203554
_cell_formula_units_Z   1
loop_
 _symmetry_equiv_pos_site_id
 _symmetry_equiv_pos_as_xyz
  1  'x, y, z'
loop_
 _atom_site_type_symbol
 _atom_site_label
 _atom_site_symmetry_multiplicity
 _atom_site_fract_x
 _atom_site_fract_y
 _atom_site_fract_z
 _atom_site_occupancy
  Mn  Mn0  1  0.25000000  0.25000000  0.25000000  1
  Si  Si0  1  0.75000000  0.75000000  0.75000000  1
  Tc  Tc0  1  0.00000000  0.00000000  0.00000000  1
  Tc  Tc1  1  0.50000000  0.50000000  0.50000000  1
loop_
_geom_bond_atom_site_label_1
_geom_bond_atom_site_label_2
_geom_bond_distance
_geom_bond_site_symmetry_2
Mn0 Tc1 2.566124 1_545
Mn0 Tc0 2.566124 1_556
Mn0 Tc1 2.566124 1_455
Mn0 Tc0 2.566124 1_565
Mn0 Tc1 2.566124 1_554
Mn0 Tc0 2.566124 1_555
Mn0 Tc0 2.566124 1_655
Mn0 Tc1 2.566124 1_555
Mn0 Si0 2.963104 1_554
Mn0 Si0 2.963104 1_454
Mn0 Si0 2.963104 1_545
Mn0 Si0 2.963104 1_455
Mn0 Si0 2.963104 1_544
Mn0 Si0 2.963104 1_445
Si0 Tc1 2.566124 1_565
Si0 Tc0 2.566124 1_665
Si0 Tc0 2.566124 1_666
Si0 Tc1 2.566124 1_655
Si0 Tc1 2.566124 1_556
Si0 Tc0 2.566124 1_566
Si0 Tc0 2.566124 1_656
Si0 Tc1 2.566124 1_555
