# generated using pymatgen
data_U(MoO6)2
_symmetry_space_group_name_H-M   'P 1'
_cell_length_a   6.69387700
_cell_length_b   11.59232600
_cell_length_c   13.53998800
_cell_angle_alpha   90.00000000
_cell_angle_beta   90.00000000
_cell_angle_gamma   90.00000000
_symmetry_Int_Tables_number   1
_chemical_formula_structural   U(MoO6)2
_chemical_formula_sum   'U4 Mo8 O48'
_cell_volume   1050.67063224
_cell_formula_units_Z   4
loop_
 _symmetry_equiv_pos_site_id
 _symmetry_equiv_pos_as_xyz
  1  'x, y, z'
loop_
 _atom_site_type_symbol
 _atom_site_label
 _atom_site_symmetry_multiplicity
 _atom_site_fract_x
 _atom_site_fract_y
 _atom_site_fract_z
 _atom_site_occupancy
  U  U0  1  0.69343200  0.75000000  0.99803200  1
  U  U1  1  0.30656800  0.25000000  0.00196800  1
  U  U2  1  0.69343200  0.25000000  0.50196800  1
  U  U3  1  0.30656800  0.75000000  0.49803200  1
  Mo  Mo0  1  0.16538700  0.59220100  0.04268700  1
  Mo  Mo1  1  0.83461300  0.09220100  0.95731300  1
  Mo  Mo2  1  0.16538700  0.40779900  0.45731300  1
  Mo  Mo3  1  0.83461300  0.90779900  0.54268700  1
  Mo  Mo4  1  0.83461300  0.40779900  0.95731300  1
  Mo  Mo5  1  0.16538700  0.90779900  0.04268700  1
  Mo  Mo6  1  0.83461300  0.59220100  0.54268700  1
  Mo  Mo7  1  0.16538700  0.09220100  0.45731300  1
  O  O0  1  0.68903500  0.75000000  0.13087200  1
  O  O1  1  0.31096500  0.25000000  0.86912800  1
  O  O2  1  0.68903500  0.25000000  0.36912800  1
  O  O3  1  0.31096500  0.75000000  0.63087200  1
  O  O4  1  0.70697100  0.75000000  0.86570900  1
  O  O5  1  0.29302900  0.25000000  0.13429100  1
  O  O6  1  0.70697100  0.25000000  0.63429100  1
  O  O7  1  0.29302900  0.75000000  0.36570900  1
  O  O8  1  0.41189800  0.62569100  0.00159400  1
  O  O9  1  0.58810200  0.12569100  0.99840600  1
  O  O10  1  0.41189800  0.37430900  0.49840600  1
  O  O11  1  0.58810200  0.87430900  0.50159400  1
  O  O12  1  0.58810200  0.37430900  0.99840600  1
  O  O13  1  0.41189800  0.87430900  0.00159400  1
  O  O14  1  0.58810200  0.62569100  0.50159400  1
  O  O15  1  0.41189800  0.12569100  0.49840600  1
  O  O16  1  0.14285100  0.43390500  0.99794500  1
  O  O17  1  0.85714900  0.93390500  0.00205500  1
  O  O18  1  0.14285100  0.56609500  0.50205500  1
  O  O19  1  0.85714900  0.06609500  0.49794500  1
  O  O20  1  0.85714900  0.56609500  0.00205500  1
  O  O21  1  0.14285100  0.06609500  0.99794500  1
  O  O22  1  0.85714900  0.43390500  0.49794500  1
  O  O23  1  0.14285100  0.93390500  0.50205500  1
  O  O24  1  0.06366400  0.75000000  0.01439400  1
  O  O25  1  0.93633600  0.25000000  0.98560600  1
  O  O26  1  0.06366400  0.25000000  0.48560600  1
  O  O27  1  0.93633600  0.75000000  0.51439400  1
  O  O28  1  0.21403200  0.56730700  0.80711300  1
  O  O29  1  0.78596800  0.06730700  0.19288700  1
  O  O30  1  0.21403200  0.43269300  0.69288700  1
  O  O31  1  0.78596800  0.93269300  0.30711300  1
  O  O32  1  0.78596800  0.43269300  0.19288700  1
  O  O33  1  0.21403200  0.93269300  0.80711300  1
  O  O34  1  0.78596800  0.56730700  0.30711300  1
  O  O35  1  0.21403200  0.06730700  0.69288700  1
  O  O36  1  0.18266500  0.58767800  0.16817100  1
  O  O37  1  0.81733500  0.08767800  0.83182900  1
  O  O38  1  0.18266500  0.41232200  0.33182900  1
  O  O39  1  0.81733500  0.91232200  0.66817100  1
  O  O40  1  0.81733500  0.41232200  0.83182900  1
  O  O41  1  0.18266500  0.91232200  0.16817100  1
  O  O42  1  0.81733500  0.58767800  0.66817100  1
  O  O43  1  0.18266500  0.08767800  0.33182900  1
  O  O44  1  0.31326700  0.50000000  0.75000000  1
  O  O45  1  0.68673300  0.00000000  0.25000000  1
  O  O46  1  0.68673300  0.50000000  0.25000000  1
  O  O47  1  0.31326700  0.00000000  0.75000000  1
loop_
_geom_bond_atom_site_label_1
_geom_bond_atom_site_label_2
_geom_bond_distance
_geom_bond_site_symmetry_2
Mo0 O36 1.703791 1_555
Mo0 O8 1.784146 1_555
Mo0 O16 1.938312 1_554
Mo0 O24 1.989118 1_555
Mo0 O20 2.156732 1_455
Mo1 O37 1.703791 1_555
Mo1 O9 1.784146 1_555
Mo1 O17 1.938312 1_546
Mo1 O25 1.989118 1_555
Mo1 O21 2.156732 1_655
Mo2 O38 1.703791 1_555
Mo2 O10 1.784146 1_555
Mo2 O18 1.938312 1_555
Mo2 O26 1.989118 1_555
Mo2 O22 2.156732 1_455
Mo3 O39 1.703791 1_555
Mo3 O11 1.784146 1_555
Mo3 O19 1.938312 1_565
Mo3 O27 1.989118 1_555
Mo3 O23 2.156732 1_655
Mo4 O40 1.703791 1_555
Mo4 O12 1.784146 1_555
Mo4 O20 1.938312 1_556
Mo4 O25 1.989118 1_555
Mo4 O16 2.156732 1_655
Mo5 O41 1.703791 1_555
Mo5 O13 1.784146 1_555
Mo5 O21 1.938312 1_564
Mo5 O24 1.989118 1_555
Mo5 O17 2.156732 1_455
Mo6 O42 1.703791 1_555
Mo6 O14 1.784146 1_555
Mo6 O22 1.938312 1_555
Mo6 O27 1.989118 1_555
Mo6 O18 2.156732 1_655
Mo7 O43 1.703791 1_555
Mo7 O15 1.784146 1_555
Mo7 O23 1.938312 1_545
Mo7 O26 1.989118 1_555
Mo7 O19 2.156732 1_455
O0 U0 1.798893 1_554
O1 U1 1.798893 1_556
O2 U2 1.798893 1_555
O3 U3 1.798893 1_555
O4 U0 1.793943 1_555
O5 U1 1.793943 1_555
O6 U2 1.793943 1_555
O7 U3 1.793943 1_555
O8 U0 2.372855 1_554
O9 U1 2.372855 1_556
O10 U2 2.372855 1_555
O11 U3 2.372855 1_555
O12 U1 2.372855 1_556
O13 U0 2.372855 1_554
O14 U3 2.372855 1_555
O15 U2 2.372855 1_555
O16 U1 2.397688 1_556
O17 U0 2.397688 1_554
O18 U3 2.397688 1_555
O19 U2 2.397688 1_555
O20 U0 2.397688 1_554
O21 U1 2.397688 1_556
O22 U2 2.397688 1_555
O23 U3 2.397688 1_555
O24 U0 2.488170 1_454
O25 U1 2.488170 1_656
O26 U2 2.488170 1_455
O27 U3 2.488170 1_655
O28 O44 1.283760 1_555
O29 O45 1.283760 1_555
O30 O44 1.283760 1_555
O31 O45 1.283760 1_565
O32 O46 1.283760 1_555
O33 O47 1.283760 1_565
O34 O46 1.283760 1_555
O35 O47 1.283760 1_555
