# generated using pymatgen
data_LiHoIn2
_symmetry_space_group_name_H-M   'P 1'
_cell_length_a   5.08339301
_cell_length_b   5.08339301
_cell_length_c   5.08339301
_cell_angle_alpha   60.00000000
_cell_angle_beta   60.00000000
_cell_angle_gamma   60.00000000
_symmetry_Int_Tables_number   1
_chemical_formula_structural   LiHoIn2
_chemical_formula_sum   'Li1 Ho1 In2'
_cell_volume   92.88510253
_cell_formula_units_Z   1
loop_
 _symmetry_equiv_pos_site_id
 _symmetry_equiv_pos_as_xyz
  1  'x, y, z'
loop_
 _atom_site_type_symbol
 _atom_site_label
 _atom_site_symmetry_multiplicity
 _atom_site_fract_x
 _atom_site_fract_y
 _atom_site_fract_z
 _atom_site_occupancy
  Li  Li0  1  0.75000000  0.75000000  0.75000000  1
  Ho  Ho0  1  0.25000000  0.25000000  0.25000000  1
  In  In0  1  -0.00000000  -0.00000000  -0.00000000  1
  In  In1  1  0.50000100  0.50000100  0.50000100  1
loop_
_geom_bond_atom_site_label_1
_geom_bond_atom_site_label_2
_geom_bond_distance
_geom_bond_site_symmetry_2
Ho0 In1 3.112926 1_455
Ho0 In1 3.112926 1_545
Ho0 In1 3.112926 1_554
Ho0 In0 3.112930 1_556
Ho0 In0 3.112930 1_555
Ho0 In0 3.112930 1_655
Ho0 In0 3.112930 1_565
Ho0 In1 3.112942 1_555
In0 Li0 3.112930 1_444
In0 Li0 3.112930 1_445
In0 Li0 3.112930 1_544
In0 Li0 3.112930 1_454
In1 Li0 3.112917 1_555
In1 Li0 3.112934 1_554
In1 Li0 3.112934 1_545
In1 Li0 3.112934 1_455
