# generated using pymatgen
data_Ba7Fe6(OF16)2
_symmetry_space_group_name_H-M   'P 1'
_cell_length_a   10.39131570
_cell_length_b   10.39131570
_cell_length_c   7.65147864
_cell_angle_alpha   80.92188565
_cell_angle_beta   80.92188565
_cell_angle_gamma   68.21802231
_symmetry_Int_Tables_number   1
_chemical_formula_structural   Ba7Fe6(OF16)2
_chemical_formula_sum   'Ba7 Fe6 O2 F32'
_cell_volume   753.15446529
_cell_formula_units_Z   1
loop_
 _symmetry_equiv_pos_site_id
 _symmetry_equiv_pos_as_xyz
  1  'x, y, z'
loop_
 _atom_site_type_symbol
 _atom_site_label
 _atom_site_symmetry_multiplicity
 _atom_site_fract_x
 _atom_site_fract_y
 _atom_site_fract_z
 _atom_site_occupancy
  Ba  Ba0  1  0.00000000  0.00000000  0.00000000  1
  Ba  Ba1  1  0.26622200  0.26622200  0.87023500  1
  Ba  Ba2  1  0.73377800  0.73377800  0.12976500  1
  Ba  Ba3  1  0.84772100  0.43402100  0.69699600  1
  Ba  Ba4  1  0.43402100  0.84772100  0.69699600  1
  Ba  Ba5  1  0.15227900  0.56597900  0.30300400  1
  Ba  Ba6  1  0.56597900  0.15227900  0.30300400  1
  Fe  Fe0  1  0.17553400  0.17553400  0.45559900  1
  Fe  Fe1  1  0.82446600  0.82446600  0.54440100  1
  Fe  Fe2  1  0.86544300  0.35506100  0.19973700  1
  Fe  Fe3  1  0.35506100  0.86544300  0.19973700  1
  Fe  Fe4  1  0.13455700  0.64493900  0.80026300  1
  Fe  Fe5  1  0.64493900  0.13455700  0.80026300  1
  O  O0  1  0.46232800  0.46232800  0.26657300  1
  O  O1  1  0.53767200  0.53767200  0.73342700  1
  F  F0  1  0.25312100  0.51535700  0.97106100  1
  F  F1  1  0.51535700  0.25312100  0.97106100  1
  F  F2  1  0.74687900  0.48464300  0.02893900  1
  F  F3  1  0.48464300  0.74687900  0.02893900  1
  F  F4  1  0.26056800  0.55020000  0.61019800  1
  F  F5  1  0.55020000  0.26056800  0.61019800  1
  F  F6  1  0.73943200  0.44980000  0.38980200  1
  F  F7  1  0.44980000  0.73943200  0.38980200  1
  F  F8  1  0.03549600  0.51787700  0.81174300  1
  F  F9  1  0.51787700  0.03549600  0.81174300  1
  F  F10  1  0.96450400  0.48212300  0.18825700  1
  F  F11  1  0.48212300  0.96450400  0.18825700  1
  F  F12  1  0.00117800  0.26544500  0.00120600  1
  F  F13  1  0.26544500  0.00117800  0.00120600  1
  F  F14  1  0.99882200  0.73455500  0.99879400  1
  F  F15  1  0.73455500  0.99882200  0.99879400  1
  F  F16  1  0.12079800  0.35647200  0.54587000  1
  F  F17  1  0.35647200  0.12079800  0.54587000  1
  F  F18  1  0.87920200  0.64352800  0.45413000  1
  F  F19  1  0.64352800  0.87920200  0.45413000  1
  F  F20  1  0.79372200  0.20829600  0.20350100  1
  F  F21  1  0.20829600  0.79372200  0.20350100  1
  F  F22  1  0.20627800  0.79170400  0.79649900  1
  F  F23  1  0.79170400  0.20627800  0.79649900  1
  F  F24  1  0.98944500  0.22946800  0.38183300  1
  F  F25  1  0.22946800  0.98944500  0.38183300  1
  F  F26  1  0.01055500  0.77053200  0.61816700  1
  F  F27  1  0.77053200  0.01055500  0.61816700  1
  F  F28  1  0.25738800  0.25738800  0.23859400  1
  F  F29  1  0.74261200  0.74261200  0.76140600  1
  F  F30  1  0.11249000  0.11249000  0.69300600  1
  F  F31  1  0.88751000  0.88751000  0.30699400  1
loop_
_geom_bond_atom_site_label_1
_geom_bond_atom_site_label_2
_geom_bond_distance
_geom_bond_site_symmetry_2
Ba0 F31 2.744358 1_445
Ba0 F30 2.744358 1_554
Ba0 F13 2.764364 1_555
Ba0 F12 2.764364 1_555
Ba0 F15 2.764364 1_444
Ba0 F14 2.764364 1_444
Ba0 F21 2.875950 1_545
Ba0 F20 2.875950 1_455
Ba0 F23 2.875950 1_454
Ba0 F22 2.875950 1_544
Ba1 F1 2.766104 1_555
Ba1 F0 2.766104 1_555
Ba1 F13 2.780771 1_556
Ba1 F12 2.780771 1_556
Ba1 F28 2.793512 1_556
Ba1 F9 2.846604 1_555
Ba1 F8 2.846604 1_555
Ba1 F16 2.952967 1_555
Ba1 F17 2.952967 1_555
Ba1 F30 3.194353 1_555
Ba1 F4 3.274985 1_555
Ba1 F5 3.274985 1_555
Ba2 F2 2.766104 1_555
Ba2 F3 2.766104 1_555
Ba2 F14 2.780771 1_554
Ba2 F15 2.780771 1_554
Ba2 F29 2.793512 1_554
Ba2 F10 2.846604 1_555
Ba2 F11 2.846604 1_555
Ba2 F18 2.952967 1_555
Ba2 F19 2.952967 1_555
Ba2 F31 3.194353 1_555
Ba2 F7 3.274985 1_555
Ba2 F6 3.274985 1_555
Ba3 F23 2.613994 1_555
Ba3 F2 2.645427 1_556
Ba3 F18 2.712909 1_555
Ba3 F8 2.716857 1_655
Ba3 F6 2.719190 1_555
Ba3 F16 2.756843 1_655
Ba3 F12 2.973359 1_656
Ba3 O1 2.975546 1_555
Ba3 F29 3.073772 1_555
Ba3 F24 3.267369 1_555
Ba4 F22 2.613994 1_555
Ba4 F3 2.645427 1_556
Ba4 F19 2.712909 1_555
Ba4 F9 2.716857 1_565
Ba4 F7 2.719190 1_555
Ba4 F17 2.756843 1_565
Ba4 F13 2.973359 1_566
Ba4 O1 2.975546 1_555
Ba4 F29 3.073772 1_555
Ba4 F25 3.267369 1_555
Ba5 F21 2.613994 1_555
Ba5 F0 2.645427 1_554
Ba5 F16 2.712909 1_555
Ba5 F10 2.716857 1_455
Ba5 F4 2.719190 1_555
Ba5 F18 2.756843 1_455
Ba5 F14 2.973359 1_454
Ba5 O0 2.975546 1_555
Ba5 F28 3.073772 1_555
Ba5 F26 3.267369 1_555
Ba6 F20 2.613994 1_555
Ba6 F1 2.645427 1_554
Ba6 F17 2.712909 1_555
Ba6 F11 2.716857 1_545
Ba6 F5 2.719190 1_555
Ba6 F19 2.756843 1_545
Ba6 F15 2.973359 1_544
Ba6 O0 2.975546 1_555
Ba6 F28 3.073772 1_555
Ba6 F27 3.267369 1_555
F0 Fe4 1.939201 1_555
F1 Fe5 1.939201 1_555
F2 Fe2 1.939201 1_555
F3 Fe3 1.939201 1_555
F4 Fe4 1.921681 1_555
F5 Fe5 1.921681 1_555
F6 Fe2 1.921681 1_555
F7 Fe3 1.921681 1_555
F8 Fe4 1.937569 1_555
F9 Fe5 1.937569 1_555
F10 Fe2 1.937569 1_555
F11 Fe3 1.937569 1_555
F12 Fe2 1.989878 1_455
F13 Fe3 1.989878 1_545
F14 Fe4 1.989878 1_655
F15 Fe5 1.989878 1_565
F16 Fe0 1.956489 1_555
F17 Fe0 1.956489 1_555
F18 Fe1 1.956489 1_555
F19 Fe1 1.956489 1_555
F20 Fe2 1.924848 1_555
F21 Fe3 1.924848 1_555
F22 Fe4 1.924848 1_555
F23 Fe5 1.924848 1_555
F24 Fe0 1.952484 1_655
F24 Fe2 2.012351 1_555
F25 Fe0 1.952484 1_565
F25 Fe3 2.012351 1_555
F26 Fe1 1.952484 1_455
F26 Fe4 2.012351 1_555
F27 Fe1 1.952484 1_545
F27 Fe5 2.012351 1_555
F28 Fe0 1.962012 1_555
F29 Fe1 1.962012 1_555
F30 Fe0 1.930162 1_555
F31 Fe1 1.930162 1_555
