# generated using pymatgen
data_Li5Co2O2F5
_symmetry_space_group_name_H-M   'P 1'
_cell_length_a   14.62900426
_cell_length_b   14.62900426
_cell_length_c   14.62900426
_cell_angle_alpha   168.43291069
_cell_angle_beta   168.43291069
_cell_angle_gamma   16.38635759
_symmetry_Int_Tables_number   1
_chemical_formula_structural   Li5Co2O2F5
_chemical_formula_sum   'Li5 Co2 O2 F5'
_cell_volume   125.86823164
_cell_formula_units_Z   1
loop_
 _symmetry_equiv_pos_site_id
 _symmetry_equiv_pos_as_xyz
  1  'x, y, z'
loop_
 _atom_site_type_symbol
 _atom_site_label
 _atom_site_symmetry_multiplicity
 _atom_site_fract_x
 _atom_site_fract_y
 _atom_site_fract_z
 _atom_site_occupancy
  Li  Li0  1  0.63879000  0.63879000  0.00000000  1
  Li  Li1  1  0.36121000  0.36121000  0.00000000  1
  Li  Li2  1  0.93122500  0.93122500  0.00000000  1
  Li  Li3  1  0.50000000  0.50000000  0.00000000  1
  Li  Li4  1  0.06877500  0.06877500  0.00000000  1
  Co  Co0  1  0.21868500  0.21868500  0.00000000  1
  Co  Co1  1  0.78131500  0.78131500  0.00000000  1
  O  O0  1  0.71025100  0.71025100  0.00000000  1
  O  O1  1  0.28974900  0.28974900  0.00000000  1
  F  F0  1  0.13842200  0.13842200  0.00000000  1
  F  F1  1  0.86157800  0.86157800  0.00000000  1
  F  F2  1  0.43106600  0.43106600  0.00000000  1
  F  F3  1  0.00000000  0.00000000  0.00000000  1
  F  F4  1  0.56893400  0.56893400  0.00000000  1
loop_
_geom_bond_atom_site_label_1
_geom_bond_atom_site_label_2
_geom_bond_distance
_geom_bond_site_symmetry_2
Li0 O0 2.069466 1_555
Li1 O1 2.069466 1_555
Co0 O1 2.057969 1_555
Co0 O0 2.099054 1_444
Co0 O0 2.099054 1_556
Co0 O0 2.099054 1_545
Co0 O0 2.099054 1_455
Co0 F0 2.324367 1_555
Co1 O0 2.057969 1_555
Co1 O1 2.099054 1_655
Co1 O1 2.099054 1_666
Co1 O1 2.099054 1_554
Co1 O1 2.099054 1_565
Co1 F1 2.324367 1_555
F0 Li4 2.016934 1_555
F0 Li0 2.084823 1_556
F0 Li0 2.084823 1_444
F0 Li0 2.084823 1_545
F0 Li0 2.084823 1_455
F1 Li2 2.016934 1_555
F1 Li1 2.084823 1_666
F1 Li1 2.084823 1_554
F1 Li1 2.084823 1_565
F1 Li1 2.084823 1_655
F2 Li3 1.996286 1_555
F2 Li1 2.022986 1_555
F2 Li2 2.084801 1_545
F2 Li2 2.084801 1_455
F2 Li2 2.084801 1_556
F2 Li2 2.084801 1_444
F3 Li4 1.991681 1_555
F3 Li2 1.991681 1_445
F3 Li3 2.084795 1_556
F3 Li3 2.084795 1_444
F3 Li3 2.084795 1_455
F3 Li3 2.084795 1_545
F4 Li3 1.996286 1_555
F4 Li0 2.022986 1_555
F4 Li4 2.084801 1_565
F4 Li4 2.084801 1_666
F4 Li4 2.084801 1_655
F4 Li4 2.084801 1_554
