# generated using pymatgen
data_NiC2(SN)2
_symmetry_space_group_name_H-M   'P 1'
_cell_length_a   5.52917780
_cell_length_b   5.52917780
_cell_length_c   6.50747993
_cell_angle_alpha   75.82896775
_cell_angle_beta   75.82896775
_cell_angle_gamma   39.08493250
_symmetry_Int_Tables_number   1
_chemical_formula_structural   NiC2(SN)2
_chemical_formula_sum   'Ni1 C2 S2 N2'
_cell_volume   121.12311546
_cell_formula_units_Z   1
loop_
 _symmetry_equiv_pos_site_id
 _symmetry_equiv_pos_as_xyz
  1  'x, y, z'
loop_
 _atom_site_type_symbol
 _atom_site_label
 _atom_site_symmetry_multiplicity
 _atom_site_fract_x
 _atom_site_fract_y
 _atom_site_fract_z
 _atom_site_occupancy
  Ni  Ni0  1  0.00000000  0.00000000  0.00000000  1
  C  C0  1  0.76285000  0.76285000  0.80205300  1
  C  C1  1  0.23715000  0.23715000  0.19794700  1
  S  S0  1  0.38465500  0.38465500  0.24438200  1
  S  S1  1  0.61534500  0.61534500  0.75561800  1
  N  N0  1  0.86623800  0.86623800  0.84393400  1
  N  N1  1  0.13376200  0.13376200  0.15606600  1
loop_
_geom_bond_atom_site_label_1
_geom_bond_atom_site_label_2
_geom_bond_distance
_geom_bond_site_symmetry_2
Ni0 S1 2.530137 1_544
Ni0 S1 2.530137 1_454
Ni0 S0 2.530137 1_455
Ni0 S0 2.530137 1_545
C0 N0 1.178016 1_555
C0 S1 1.641836 1_555
C1 N1 1.178016 1_555
C1 S0 1.641836 1_555
N0 Ni0 1.926179 1_666
N1 Ni0 1.926179 1_555
