# generated using pymatgen
data_YbHg3
_symmetry_space_group_name_H-M   'P 1'
_cell_length_a   5.20162100
_cell_length_b   6.67545422
_cell_length_c   6.67545400
_cell_angle_alpha   60.00000109
_cell_angle_beta   90.00000000
_cell_angle_gamma   90.00000000
_symmetry_Int_Tables_number   1
_chemical_formula_structural   YbHg3
_chemical_formula_sum   'Yb2 Hg6'
_cell_volume   200.73863719
_cell_formula_units_Z   2
loop_
 _symmetry_equiv_pos_site_id
 _symmetry_equiv_pos_as_xyz
  1  'x, y, z'
loop_
 _atom_site_type_symbol
 _atom_site_label
 _atom_site_symmetry_multiplicity
 _atom_site_fract_x
 _atom_site_fract_y
 _atom_site_fract_z
 _atom_site_occupancy
  Yb  Yb0  1  0.25000000  0.66666600  0.66666700  1
  Yb  Yb1  1  0.75000000  0.33333400  0.33333300  1
  Hg  Hg0  1  0.75000000  0.83430300  0.83430200  1
  Hg  Hg1  1  0.75000000  0.83430300  0.33139500  1
  Hg  Hg2  1  0.75000000  0.33139600  0.83430200  1
  Hg  Hg3  1  0.25000000  0.16569700  0.16569800  1
  Hg  Hg4  1  0.25000000  0.16569700  0.66860500  1
  Hg  Hg5  1  0.25000000  0.66860400  0.16569800  1
loop_
_geom_bond_atom_site_label_1
_geom_bond_atom_site_label_2
_geom_bond_distance
_geom_bond_site_symmetry_2
Hg0 Yb0 3.243611 1_655
Hg0 Yb0 3.243611 1_555
Hg0 Yb1 3.337746 1_565
Hg0 Yb1 3.337746 1_556
Hg1 Yb0 3.243611 1_655
Hg1 Yb0 3.243611 1_555
Hg1 Yb1 3.337746 1_565
Hg1 Yb1 3.337746 1_555
Hg2 Yb0 3.243604 1_555
Hg2 Yb0 3.243604 1_655
Hg2 Yb1 3.337746 1_555
Hg2 Yb1 3.337746 1_556
Hg3 Yb1 3.243611 1_455
Hg3 Yb1 3.243611 1_555
Hg3 Yb0 3.337746 1_545
Hg3 Yb0 3.337746 1_554
Hg4 Yb1 3.243611 1_455
Hg4 Yb1 3.243611 1_555
Hg4 Yb0 3.337746 1_545
Hg4 Yb0 3.337746 1_555
Hg5 Yb1 3.243604 1_555
Hg5 Yb1 3.243604 1_455
Hg5 Yb0 3.337746 1_554
Hg5 Yb0 3.337746 1_555
