# generated using pymatgen
data_AcAg3
_symmetry_space_group_name_H-M   'P 1'
_cell_length_a   7.01184134
_cell_length_b   7.01225627
_cell_length_c   4.74934570
_cell_angle_alpha   90.00002514
_cell_angle_beta   89.99997923
_cell_angle_gamma   120.51602339
_symmetry_Int_Tables_number   1
_chemical_formula_structural   AcAg3
_chemical_formula_sum   'Ac2 Ag6'
_cell_volume   201.17428470
_cell_formula_units_Z   2
loop_
 _symmetry_equiv_pos_site_id
 _symmetry_equiv_pos_as_xyz
  1  'x, y, z'
loop_
 _atom_site_type_symbol
 _atom_site_label
 _atom_site_symmetry_multiplicity
 _atom_site_fract_x
 _atom_site_fract_y
 _atom_site_fract_z
 _atom_site_occupancy
  Ac  Ac0  1  0.33184162  0.66815668  0.74999900  1
  Ac  Ac1  1  0.66815838  0.33184232  0.24999900  1
  Ag  Ag0  1  0.14028813  0.27727504  0.25000000  1
  Ag  Ag1  1  0.72270623  0.85972206  0.25000000  1
  Ag  Ag2  1  0.13762574  0.86240333  0.25000000  1
  Ag  Ag3  1  0.85971087  0.72272496  0.75000100  1
  Ag  Ag4  1  0.27729377  0.14027894  0.75000100  1
  Ag  Ag5  1  0.86237526  0.13759667  0.75000100  1
loop_
_geom_bond_atom_site_label_1
_geom_bond_atom_site_label_2
_geom_bond_distance
_geom_bond_site_symmetry_2
Ac0 Ag1 3.349029 1_555
Ac0 Ag1 3.349036 1_556
Ac0 Ag0 3.349204 1_555
Ac0 Ag0 3.349212 1_556
Ac0 Ag2 3.351524 1_555
Ac0 Ag2 3.351529 1_556
Ac0 Ag5 3.498356 1_565
Ac0 Ag5 3.498589 1_455
Ac0 Ag3 3.520274 1_455
Ac0 Ag4 3.520313 1_565
Ac0 Ag3 3.522494 1_555
Ac0 Ag4 3.522842 1_555
Ac1 Ag4 3.349026 1_554
Ac1 Ag4 3.349039 1_555
Ac1 Ag3 3.349206 1_554
Ac1 Ag3 3.349219 1_555
Ac1 Ag5 3.351519 1_554
Ac1 Ag5 3.351534 1_555
Ac1 Ag2 3.498349 1_545
Ac1 Ag2 3.498596 1_655
Ac1 Ag0 3.520263 1_655
Ac1 Ag1 3.520299 1_545
Ac1 Ag0 3.522504 1_555
Ac1 Ag1 3.522856 1_555
Ag0 Ag2 2.899752 1_545
Ag0 Ag4 2.902066 1_554
Ag0 Ag4 2.902075 1_555
Ag0 Ag1 2.905136 1_445
Ag0 Ag5 2.908161 1_454
Ag0 Ag5 2.908168 1_455
Ag1 Ag2 2.899848 1_655
Ag1 Ag3 2.902066 1_554
Ag1 Ag3 2.902075 1_555
Ag1 Ag5 2.908085 1_564
Ag1 Ag5 2.908092 1_565
Ag2 Ag4 2.908088 1_564
Ag2 Ag4 2.908095 1_565
Ag2 Ag3 2.908168 1_454
Ag2 Ag3 2.908175 1_455
Ag3 Ag5 2.899745 1_565
Ag3 Ag4 2.905143 1_665
Ag4 Ag5 2.899837 1_455
