# generated using pymatgen
data_GeTe7As4
_symmetry_space_group_name_H-M   'P 1'
_cell_length_a   4.12339850
_cell_length_b   4.12339850
_cell_length_c   23.52967600
_cell_angle_alpha   90.00000000
_cell_angle_beta   90.00000000
_cell_angle_gamma   120.00000809
_symmetry_Int_Tables_number   1
_chemical_formula_structural   GeTe7As4
_chemical_formula_sum   'Ge1 Te7 As4'
_cell_volume   346.46323919
_cell_formula_units_Z   1
loop_
 _symmetry_equiv_pos_site_id
 _symmetry_equiv_pos_as_xyz
  1  'x, y, z'
loop_
 _atom_site_type_symbol
 _atom_site_label
 _atom_site_symmetry_multiplicity
 _atom_site_fract_x
 _atom_site_fract_y
 _atom_site_fract_z
 _atom_site_occupancy
  Ge  Ge0  1  0.00000000  0.00000000  0.50000000  1
  Te  Te0  1  0.00000000  0.00000000  0.27833300  1
  Te  Te1  1  0.00000000  0.00000000  0.72166700  1
  Te  Te2  1  0.66666700  0.33333300  0.85407200  1
  Te  Te3  1  0.33333300  0.66666700  0.14592800  1
  Te  Te4  1  0.33333300  0.66666700  0.42444400  1
  Te  Te5  1  0.66666700  0.33333300  0.57555600  1
  Te  Te6  1  0.00000000  0.00000000  0.00000000  1
  As  As0  1  0.66666700  0.33333300  0.07849000  1
  As  As1  1  0.33333300  0.66666700  0.92151000  1
  As  As2  1  0.33333300  0.66666700  0.65504300  1
  As  As3  1  0.66666700  0.33333300  0.34495700  1
loop_
_geom_bond_atom_site_label_1
_geom_bond_atom_site_label_2
_geom_bond_distance
_geom_bond_site_symmetry_2
Ge0 Te5 2.971206 1_455
Ge0 Te4 2.971206 1_545
Ge0 Te5 2.971208 1_445
Ge0 Te5 2.971208 1_555
Ge0 Te4 2.971208 1_555
Ge0 Te4 2.971208 1_445
As0 Te3 2.861010 1_545
As0 Te3 2.861010 1_655
As0 Te3 2.861016 1_555
As0 Te6 3.013021 1_655
As0 Te6 3.013023 1_665
As0 Te6 3.013023 1_555
As1 Te2 2.861010 1_455
As1 Te2 2.861010 1_565
As1 Te2 2.861016 1_555
As1 Te6 3.013021 1_566
As1 Te6 3.013023 1_666
As1 Te6 3.013023 1_556
As2 Te1 2.850431 1_565
As2 Te1 2.850434 1_665
As2 Te1 2.850434 1_555
As2 Te5 3.027457 1_565
As2 Te5 3.027457 1_455
As2 Te5 3.027463 1_555
As3 Te0 2.850431 1_655
As3 Te0 2.850434 1_665
As3 Te0 2.850434 1_555
As3 Te4 3.027457 1_655
As3 Te4 3.027457 1_545
As3 Te4 3.027463 1_555
