# generated using pymatgen
data_Na3H7Os
_symmetry_space_group_name_H-M   'P 1'
_cell_length_a   9.49250597
_cell_length_b   9.49250597
_cell_length_c   5.23048139
_cell_angle_alpha   90.00000000
_cell_angle_beta   90.00000000
_cell_angle_gamma   90.00000000
_symmetry_Int_Tables_number   1
_chemical_formula_structural   Na3H7Os
_chemical_formula_sum   'Na12 H28 Os4'
_cell_volume   471.30648889
_cell_formula_units_Z   4
loop_
 _symmetry_equiv_pos_site_id
 _symmetry_equiv_pos_as_xyz
  1  'x, y, z'
loop_
 _atom_site_type_symbol
 _atom_site_label
 _atom_site_symmetry_multiplicity
 _atom_site_fract_x
 _atom_site_fract_y
 _atom_site_fract_z
 _atom_site_occupancy
  Na  Na0  1  0.69996556  0.96569021  0.50000000  1
  Na  Na1  1  0.30003444  0.03430979  0.50000000  1
  Na  Na2  1  0.19996556  0.53430979  0.00000000  1
  Na  Na3  1  0.80003444  0.46569021  0.00000000  1
  Na  Na4  1  0.96569021  0.69996556  0.50000000  1
  Na  Na5  1  0.03430979  0.30003444  0.50000000  1
  Na  Na6  1  0.53430979  0.19996556  0.00000000  1
  Na  Na7  1  0.46569021  0.80003444  0.00000000  1
  Na  Na8  1  0.38296866  0.38296866  0.50000000  1
  Na  Na9  1  0.61703134  0.61703134  0.50000000  1
  Na  Na10  1  0.88296866  0.11703134  0.00000000  1
  Na  Na11  1  0.11703134  0.88296866  0.00000000  1
  H  H0  1  0.60315489  0.39684511  0.69824594  1
  H  H1  1  0.39684511  0.60315489  0.69824594  1
  H  H2  1  0.10315489  0.10315489  0.19824594  1
  H  H3  1  0.89684511  0.89684511  0.19824594  1
  H  H4  1  0.39684511  0.60315489  0.30175406  1
  H  H5  1  0.60315489  0.39684511  0.30175406  1
  H  H6  1  0.89684511  0.89684511  0.80175406  1
  H  H7  1  0.10315489  0.10315489  0.80175406  1
  H  H8  1  0.74199562  0.25800438  0.20176120  1
  H  H9  1  0.25800438  0.74199562  0.20176120  1
  H  H10  1  0.24199562  0.24199562  0.70176120  1
  H  H11  1  0.75800438  0.75800438  0.70176120  1
  H  H12  1  0.25800438  0.74199562  0.79823880  1
  H  H13  1  0.74199562  0.25800438  0.79823880  1
  H  H14  1  0.75800438  0.75800438  0.29823880  1
  H  H15  1  0.24199562  0.24199562  0.29823880  1
  H  H16  1  0.56854751  0.17447489  0.50000000  1
  H  H17  1  0.43145249  0.82552511  0.50000000  1
  H  H18  1  0.06854751  0.32552511  0.00000000  1
  H  H19  1  0.93145249  0.67447489  0.00000000  1
  H  H20  1  0.17447489  0.56854751  0.50000000  1
  H  H21  1  0.82552511  0.43145249  0.50000000  1
  H  H22  1  0.32552511  0.06854751  0.00000000  1
  H  H23  1  0.67447489  0.93145249  0.00000000  1
  H  H24  1  0.82629278  0.17370722  0.50000000  1
  H  H25  1  0.17370722  0.82629278  0.50000000  1
  H  H26  1  0.32629278  0.32629278  0.00000000  1
  H  H27  1  0.67370722  0.67370722  0.00000000  1
  Os  Os0  1  0.70178095  0.29821905  0.50000000  1
  Os  Os1  1  0.29821905  0.70178095  0.50000000  1
  Os  Os2  1  0.20178095  0.20178095  0.00000000  1
  Os  Os3  1  0.79821905  0.79821905  0.00000000  1
loop_
_geom_bond_atom_site_label_1
_geom_bond_atom_site_label_2
_geom_bond_distance
_geom_bond_site_symmetry_2
H0 Os0 1.681719 1_555
H0 Na8 2.336911 1_555
H0 Na9 2.336911 1_555
H0 Na6 2.531972 1_556
H0 Na3 2.531972 1_556
H1 Os1 1.681719 1_555
H1 Na8 2.336911 1_555
H1 Na9 2.336911 1_555
H1 Na2 2.531972 1_556
H1 Na7 2.531972 1_556
H2 Os2 1.681719 1_555
H2 Na11 2.336911 1_545
H2 Na10 2.336911 1_455
H2 Na5 2.531972 1_555
H2 Na1 2.531972 1_555
H3 Os3 1.681719 1_555
H3 Na11 2.336911 1_655
H3 Na10 2.336911 1_565
H3 Na0 2.531972 1_555
H3 Na4 2.531972 1_555
H4 Os1 1.681719 1_555
H4 Na8 2.336911 1_555
H4 Na9 2.336911 1_555
H4 Na2 2.531972 1_555
H4 Na7 2.531972 1_555
H5 Os0 1.681719 1_555
H5 Na8 2.336911 1_555
H5 Na9 2.336911 1_555
H5 Na6 2.531972 1_555
H5 Na3 2.531972 1_555
H6 Os3 1.681719 1_556
H6 Na10 2.336911 1_566
H6 Na11 2.336911 1_656
H6 Na0 2.531972 1_555
H6 Na4 2.531972 1_555
H7 Os2 1.681719 1_556
H7 Na10 2.336911 1_456
H7 Na11 2.336911 1_546
H7 Na5 2.531972 1_555
H7 Na1 2.531972 1_555
H8 Os0 1.650708 1_555
H8 Na10 2.166833 1_555
H8 Na6 2.303010 1_555
H8 Na3 2.303010 1_555
H9 Os1 1.650708 1_555
H9 Na11 2.166833 1_555
H9 Na7 2.303010 1_555
H9 Na2 2.303010 1_555
H10 Os2 1.650708 1_556
H10 Na8 2.166833 1_555
H10 Na5 2.303010 1_555
H10 Na1 2.303010 1_555
H11 Os3 1.650708 1_556
H11 Na9 2.166833 1_555
H11 Na0 2.303010 1_555
H11 Na4 2.303010 1_555
H12 Os1 1.650708 1_555
H12 Na11 2.166833 1_556
H12 Na7 2.303010 1_556
H12 Na2 2.303010 1_556
H13 Os0 1.650708 1_555
H13 Na10 2.166833 1_556
H13 Na6 2.303010 1_556
H13 Na3 2.303010 1_556
H14 Os3 1.650708 1_555
H14 Na9 2.166833 1_555
H14 Na4 2.303010 1_555
H14 Na0 2.303010 1_555
H15 Os2 1.650708 1_555
H15 Na8 2.166833 1_555
H15 Na1 2.303010 1_555
H15 Na5 2.303010 1_555
H16 Os0 1.726065 1_555
H16 Na0 2.341818 1_545
H16 Na6 2.646443 1_555
H16 Na6 2.646443 1_556
H16 Na8 2.649568 1_555
H17 Os1 1.726065 1_555
H17 Na1 2.341818 1_565
H17 Na7 2.646443 1_556
H17 Na7 2.646443 1_555
H17 Na9 2.649568 1_555
H18 Os2 1.726065 1_555
H18 Na2 2.341818 1_555
H18 Na5 2.646443 1_555
H18 Na5 2.646443 1_554
H18 Na10 2.649568 1_455
H19 Os3 1.726065 1_555
H19 Na3 2.341818 1_555
H19 Na4 2.646443 1_554
H19 Na4 2.646443 1_555
H19 Na11 2.649568 1_655
H20 Os1 1.726065 1_555
H20 Na4 2.341818 1_455
H20 Na2 2.646443 1_556
H20 Na2 2.646443 1_555
H20 Na8 2.649568 1_555
H21 Os0 1.726065 1_555
H21 Na5 2.341818 1_655
H21 Na3 2.646443 1_556
H21 Na3 2.646443 1_555
H21 Na9 2.649568 1_555
H22 Os2 1.726065 1_555
H22 Na6 2.341818 1_555
H22 Na1 2.646443 1_555
H22 Na1 2.646443 1_554
H22 Na11 2.649568 1_545
H23 Os3 1.726065 1_555
H23 Na7 2.341818 1_555
H23 Na0 2.646443 1_555
H23 Na0 2.646443 1_554
H23 Na10 2.649568 1_565
H24 Os0 1.671500 1_555
H24 Na5 2.310205 1_655
H24 Na0 2.310205 1_545
H25 Os1 1.671500 1_555
H25 Na1 2.310205 1_565
H25 Na4 2.310205 1_455
H26 Os2 1.671500 1_555
H26 Na6 2.310205 1_555
H26 Na2 2.310205 1_555
H27 Os3 1.671500 1_555
H27 Na7 2.310205 1_555
H27 Na3 2.310205 1_555
