# generated using pymatgen
data_Li4Ti4Cr5O18
_symmetry_space_group_name_H-M   'P 1'
_cell_length_a   2.96953800
_cell_length_b   9.12013200
_cell_length_c   25.13047300
_cell_angle_alpha   90.00000000
_cell_angle_beta   90.00000000
_cell_angle_gamma   90.00000000
_symmetry_Int_Tables_number   1
_chemical_formula_structural   Li4Ti4Cr5O18
_chemical_formula_sum   'Li8 Ti8 Cr10 O36'
_cell_volume   680.59800875
_cell_formula_units_Z   2
loop_
 _symmetry_equiv_pos_site_id
 _symmetry_equiv_pos_as_xyz
  1  'x, y, z'
loop_
 _atom_site_type_symbol
 _atom_site_label
 _atom_site_symmetry_multiplicity
 _atom_site_fract_x
 _atom_site_fract_y
 _atom_site_fract_z
 _atom_site_occupancy
  Li  Li0  1  0.00000000  0.19562900  0.99483700  1
  Li  Li1  1  0.00000000  0.20344000  0.19652200  1
  Li  Li2  1  0.00000000  0.29656000  0.69652200  1
  Li  Li3  1  0.00000000  0.30437100  0.49483700  1
  Li  Li4  1  0.00000000  0.69562900  0.50516300  1
  Li  Li5  1  0.00000000  0.70344000  0.30347800  1
  Li  Li6  1  0.00000000  0.79656000  0.80347800  1
  Li  Li7  1  0.00000000  0.80437100  0.00516300  1
  Ti  Ti0  1  0.00000000  0.00437800  0.10257800  1
  Ti  Ti1  1  0.50000000  0.14929600  0.80492600  1
  Ti  Ti2  1  0.50000000  0.35070400  0.30492600  1
  Ti  Ti3  1  0.00000000  0.49562200  0.60257800  1
  Ti  Ti4  1  0.00000000  0.50437800  0.39742200  1
  Ti  Ti5  1  0.50000000  0.64929600  0.69507400  1
  Ti  Ti6  1  0.50000000  0.85070400  0.19507400  1
  Ti  Ti7  1  0.00000000  0.99562200  0.89742200  1
  Cr  Cr0  1  0.00000000  0.00000000  0.50000000  1
  Cr  Cr1  1  0.00000000  0.01295200  0.31030100  1
  Cr  Cr2  1  0.50000000  0.14362200  0.58737600  1
  Cr  Cr3  1  0.50000000  0.35637800  0.08737600  1
  Cr  Cr4  1  0.00000000  0.48704800  0.81030100  1
  Cr  Cr5  1  0.00000000  0.50000000  0.00000000  1
  Cr  Cr6  1  0.00000000  0.51295200  0.18969900  1
  Cr  Cr7  1  0.50000000  0.64362200  0.91262400  1
  Cr  Cr8  1  0.50000000  0.85637800  0.41262400  1
  Cr  Cr9  1  0.00000000  0.98704800  0.68969900  1
  O  O0  1  0.00000000  0.99409700  0.42088200  1
  O  O1  1  0.00000000  0.00590300  0.57911800  1
  O  O2  1  0.50000000  0.05288600  0.94120200  1
  O  O3  1  0.50000000  0.04892400  0.15944900  1
  O  O4  1  0.50000000  0.11607700  0.66478500  1
  O  O5  1  0.00000000  0.09921000  0.75568600  1
  O  O6  1  0.50000000  0.14800800  0.50694900  1
  O  O7  1  0.50000000  0.14566700  0.28600600  1
  O  O8  1  0.00000000  0.18446400  0.85427300  1
  O  O9  1  0.00000000  0.20632000  0.08538500  1
  O  O10  1  0.00000000  0.29368000  0.58538500  1
  O  O11  1  0.00000000  0.31553600  0.35427300  1
  O  O12  1  0.50000000  0.35433300  0.78600600  1
  O  O13  1  0.50000000  0.35199200  0.00694900  1
  O  O14  1  0.00000000  0.40079000  0.25568600  1
  O  O15  1  0.50000000  0.38392300  0.16478500  1
  O  O16  1  0.50000000  0.45107600  0.65944900  1
  O  O17  1  0.50000000  0.44711400  0.44120200  1
  O  O18  1  0.00000000  0.49409700  0.07911800  1
  O  O19  1  0.00000000  0.50590300  0.92088200  1
  O  O20  1  0.50000000  0.55288600  0.55879800  1
  O  O21  1  0.50000000  0.54892400  0.34055100  1
  O  O22  1  0.50000000  0.61607700  0.83521500  1
  O  O23  1  0.00000000  0.59921000  0.74431400  1
  O  O24  1  0.50000000  0.64800800  0.99305100  1
  O  O25  1  0.50000000  0.64566700  0.21399400  1
  O  O26  1  0.00000000  0.68446400  0.64572700  1
  O  O27  1  0.00000000  0.70632000  0.41461500  1
  O  O28  1  0.00000000  0.79368000  0.91461500  1
  O  O29  1  0.00000000  0.81553600  0.14572700  1
  O  O30  1  0.50000000  0.85433300  0.71399400  1
  O  O31  1  0.50000000  0.85199200  0.49305100  1
  O  O32  1  0.00000000  0.90079000  0.24431400  1
  O  O33  1  0.50000000  0.88392300  0.33521500  1
  O  O34  1  0.50000000  0.95107600  0.84055100  1
  O  O35  1  0.50000000  0.94711400  0.05879800  1
loop_
_geom_bond_atom_site_label_1
_geom_bond_atom_site_label_2
_geom_bond_distance
_geom_bond_site_symmetry_2
Li0 O13 2.081059 1_456
Li0 O13 2.081059 1_556
Li0 O9 2.277602 1_556
Li0 O2 2.390831 1_555
Li0 O2 2.390831 1_455
Li1 O3 2.249088 1_455
Li1 O3 2.249088 1_555
Li1 O14 2.334549 1_555
Li1 O15 2.355857 1_455
Li1 O15 2.355857 1_555
Li2 O16 2.249088 1_455
Li2 O16 2.249088 1_555
Li2 O5 2.334549 1_555
Li2 O4 2.355857 1_555
Li2 O4 2.355857 1_455
Li3 O6 2.081059 1_455
Li3 O6 2.081059 1_555
Li3 O10 2.277602 1_555
Li3 O17 2.390831 1_455
Li3 O17 2.390831 1_555
Li4 O31 2.081059 1_555
Li4 O31 2.081059 1_455
Li4 O27 2.277602 1_555
Li4 O20 2.390831 1_555
Li4 O20 2.390831 1_455
Li5 O21 2.249088 1_455
Li5 O21 2.249088 1_555
Li5 O32 2.334549 1_555
Li5 O33 2.355857 1_455
Li5 O33 2.355857 1_555
Li6 O34 2.249088 1_555
Li6 O34 2.249088 1_455
Li6 O23 2.334549 1_555
Li6 O22 2.355857 1_455
Li6 O22 2.355857 1_555
Li7 O24 2.081059 1_454
Li7 O24 2.081059 1_554
Li7 O28 2.277602 1_554
Li7 O35 2.390831 1_555
Li7 O35 2.390831 1_455
Cr0 O1 1.989001 1_555
Cr0 O0 1.989001 1_545
Cr0 O6 2.014234 1_555
Cr0 O6 2.014234 1_455
Cr0 O31 2.014234 1_545
Cr0 O31 2.014234 1_445
Cr1 O32 1.948409 1_545
Cr1 O33 1.995322 1_445
Cr1 O33 1.995322 1_545
Cr1 O7 2.010552 1_455
Cr1 O7 2.010552 1_555
Cr2 O1 1.955807 1_555
Cr2 O1 1.955807 1_655
Cr2 O4 1.961478 1_555
Cr2 O10 2.019893 1_655
Cr2 O10 2.019893 1_555
Cr2 O6 2.021564 1_555
Cr3 O18 1.955807 1_655
Cr3 O18 1.955807 1_555
Cr3 O15 1.961478 1_555
Cr3 O9 2.019893 1_555
Cr3 O9 2.019893 1_655
Cr3 O13 2.021564 1_555
Cr4 O23 1.948409 1_555
Cr4 O22 1.995322 1_455
Cr4 O22 1.995322 1_555
Cr4 O12 2.010552 1_455
Cr4 O12 2.010552 1_555
Cr5 O18 1.989001 1_555
Cr5 O19 1.989001 1_554
Cr5 O24 2.014234 1_454
Cr5 O24 2.014234 1_554
Cr5 O13 2.014234 1_455
Cr5 O13 2.014234 1_555
Cr6 O14 1.948409 1_555
Cr6 O15 1.995322 1_455
Cr6 O15 1.995322 1_555
Cr6 O25 2.010552 1_555
Cr6 O25 2.010552 1_455
Cr7 O19 1.955807 1_555
Cr7 O19 1.955807 1_655
Cr7 O22 1.961478 1_555
Cr7 O28 2.019893 1_555
Cr7 O28 2.019893 1_655
Cr7 O24 2.021564 1_555
Cr8 O0 1.955807 1_555
Cr8 O0 1.955807 1_655
Cr8 O33 1.961478 1_555
Cr8 O27 2.019893 1_555
Cr8 O27 2.019893 1_655
Cr8 O31 2.021564 1_555
Cr9 O5 1.948409 1_565
Cr9 O4 1.995322 1_465
Cr9 O4 1.995322 1_565
Cr9 O30 2.010552 1_455
Cr9 O30 2.010552 1_555
O2 Ti7 1.920353 1_545
O2 Ti7 1.920353 1_645
O3 Ti6 2.017332 1_545
O3 Ti0 2.100521 1_555
O3 Ti0 2.100521 1_655
O5 Ti1 1.986055 1_455
O5 Ti1 1.986055 1_555
O7 Ti2 1.929466 1_555
O8 Ti1 1.960942 1_455
O8 Ti1 1.960942 1_555
O8 Ti7 2.035195 1_545
O9 Ti0 1.891740 1_555
O10 Ti3 1.891740 1_555
O11 Ti2 1.960942 1_555
O11 Ti2 1.960942 1_455
O11 Ti4 2.035195 1_555
O12 Ti1 1.929466 1_555
O14 Ti2 1.986055 1_555
O14 Ti2 1.986055 1_455
O16 Ti5 2.017332 1_555
O16 Ti3 2.100521 1_555
O16 Ti3 2.100521 1_655
O17 Ti4 1.920353 1_555
O17 Ti4 1.920353 1_655
O20 Ti3 1.920353 1_655
O20 Ti3 1.920353 1_555
O21 Ti2 2.017332 1_555
O21 Ti4 2.100521 1_555
O21 Ti4 2.100521 1_655
O23 Ti5 1.986055 1_455
O23 Ti5 1.986055 1_555
O25 Ti6 1.929466 1_555
O26 Ti5 1.960942 1_555
O26 Ti5 1.960942 1_455
O26 Ti3 2.035195 1_555
O27 Ti4 1.891740 1_555
O28 Ti7 1.891740 1_555
O29 Ti6 1.960942 1_555
O29 Ti6 1.960942 1_455
O29 Ti0 2.035195 1_565
O30 Ti5 1.929466 1_555
O32 Ti6 1.986055 1_555
O32 Ti6 1.986055 1_455
O34 Ti1 2.017332 1_565
O34 Ti7 2.100521 1_555
O34 Ti7 2.100521 1_655
O35 Ti0 1.920353 1_665
O35 Ti0 1.920353 1_565
