# generated using pymatgen
data_Mn
_symmetry_space_group_name_H-M   'P 1'
_cell_length_a   4.90696977
_cell_length_b   4.90696910
_cell_length_c   4.90697012
_cell_angle_alpha   59.99999309
_cell_angle_beta   59.99999767
_cell_angle_gamma   59.99998601
_symmetry_Int_Tables_number   1
_chemical_formula_structural   Mn
_chemical_formula_sum   Mn8
_cell_volume   83.54588136
_cell_formula_units_Z   8
loop_
 _symmetry_equiv_pos_site_id
 _symmetry_equiv_pos_as_xyz
  1  'x, y, z'
loop_
 _atom_site_type_symbol
 _atom_site_label
 _atom_site_symmetry_multiplicity
 _atom_site_fract_x
 _atom_site_fract_y
 _atom_site_fract_z
 _atom_site_occupancy
  Mn  Mn0_0  1  0.00000000  0.00000000  0.00000000  1
  Mn  Mn0_1  1  0.00000000  0.00000000  0.50000000  1
  Mn  Mn0_2  1  0.00000000  0.50000000  0.00000000  1
  Mn  Mn0_3  1  0.00000000  0.50000000  0.50000000  1
  Mn  Mn0_4  1  0.50000000  0.00000000  0.00000000  1
  Mn  Mn0_5  1  0.50000000  0.00000000  0.50000000  1
  Mn  Mn0_6  1  0.50000000  0.50000000  0.00000000  1
  Mn  Mn0_7  1  0.50000000  0.50000000  0.50000000  1
loop_
_geom_bond_atom_site_label_1
_geom_bond_atom_site_label_2
_geom_bond_distance
_geom_bond_site_symmetry_2
Mn0_0 Mn0_6 2.453484 1_545
Mn0_0 Mn0_6 2.453484 1_455
Mn0_0 Mn0_2 2.453485 1_545
Mn0_0 Mn0_2 2.453485 1_555
Mn0_0 Mn0_3 2.453485 1_545
Mn0_0 Mn0_3 2.453485 1_554
Mn0_0 Mn0_4 2.453485 1_555
Mn0_0 Mn0_5 2.453485 1_455
Mn0_0 Mn0_4 2.453485 1_455
Mn0_0 Mn0_5 2.453485 1_554
Mn0_0 Mn0_1 2.453485 1_554
Mn0_0 Mn0_1 2.453485 1_555
Mn0_1 Mn0_7 2.453484 1_455
Mn0_1 Mn0_7 2.453484 1_545
Mn0_1 Mn0_2 2.453485 1_546
Mn0_1 Mn0_3 2.453485 1_555
Mn0_1 Mn0_3 2.453485 1_545
Mn0_1 Mn0_2 2.453485 1_555
Mn0_1 Mn0_4 2.453485 1_456
Mn0_1 Mn0_4 2.453485 1_555
Mn0_1 Mn0_5 2.453485 1_455
Mn0_1 Mn0_5 2.453485 1_555
Mn0_2 Mn0_4 2.453484 1_555
Mn0_2 Mn0_4 2.453484 1_465
Mn0_2 Mn0_7 2.453485 1_554
Mn0_2 Mn0_6 2.453485 1_555
Mn0_2 Mn0_6 2.453485 1_455
Mn0_2 Mn0_7 2.453485 1_455
Mn0_2 Mn0_3 2.453485 1_555
Mn0_2 Mn0_3 2.453485 1_554
Mn0_3 Mn0_5 2.453484 1_465
Mn0_3 Mn0_5 2.453484 1_555
Mn0_3 Mn0_6 2.453485 1_456
Mn0_3 Mn0_7 2.453485 1_555
Mn0_3 Mn0_6 2.453485 1_555
Mn0_3 Mn0_7 2.453485 1_455
Mn0_4 Mn0_6 2.453485 1_555
Mn0_4 Mn0_7 2.453485 1_554
Mn0_4 Mn0_6 2.453485 1_545
Mn0_4 Mn0_7 2.453485 1_545
Mn0_4 Mn0_5 2.453485 1_554
Mn0_4 Mn0_5 2.453485 1_555
Mn0_5 Mn0_6 2.453485 1_555
Mn0_5 Mn0_7 2.453485 1_555
Mn0_5 Mn0_6 2.453485 1_546
Mn0_5 Mn0_7 2.453485 1_545
Mn0_6 Mn0_7 2.453485 1_554
Mn0_6 Mn0_7 2.453485 1_555
