# generated using pymatgen
data_Li6Mn9O20
_symmetry_space_group_name_H-M   'P 1'
_cell_length_a   5.85164434
_cell_length_b   5.85164434
_cell_length_c   24.29773196
_cell_angle_alpha   84.18317561
_cell_angle_beta   84.18317561
_cell_angle_gamma   60.56760912
_symmetry_Int_Tables_number   1
_chemical_formula_structural   Li6Mn9O20
_chemical_formula_sum   'Li12 Mn18 O40'
_cell_volume   719.60810500
_cell_formula_units_Z   2
loop_
 _symmetry_equiv_pos_site_id
 _symmetry_equiv_pos_as_xyz
  1  'x, y, z'
loop_
 _atom_site_type_symbol
 _atom_site_label
 _atom_site_symmetry_multiplicity
 _atom_site_fract_x
 _atom_site_fract_y
 _atom_site_fract_z
 _atom_site_occupancy
  Li  Li0  1  0.12860300  0.12860300  0.62045200  1
  Li  Li1  1  0.00000000  0.00000000  0.00000000  1
  Li  Li2  1  0.07874700  0.07874700  0.77212500  1
  Li  Li3  1  0.32366300  0.32366300  0.02957500  1
  Li  Li4  1  0.92125300  0.92125300  0.22787500  1
  Li  Li5  1  0.72087200  0.72087200  0.82779000  1
  Li  Li6  1  0.87139700  0.87139700  0.37954800  1
  Li  Li7  1  0.67633700  0.67633700  0.97042500  1
  Li  Li8  1  0.27912800  0.27912800  0.17221000  1
  Li  Li9  1  0.53181700  0.53181700  0.42584600  1
  Li  Li10  1  0.46818300  0.46818300  0.57415400  1
  Li  Li11  1  0.00000000  0.00000000  0.50000000  1
  Mn  Mn0  1  0.60247200  0.60247200  0.69892200  1
  Mn  Mn1  1  0.10098400  0.60513800  0.69877200  1
  Mn  Mn2  1  0.80167300  0.80167300  0.59725200  1
  Mn  Mn3  1  0.70259600  0.19346000  0.90118400  1
  Mn  Mn4  1  0.39928900  0.39928900  0.80018900  1
  Mn  Mn5  1  0.60513800  0.10098400  0.69877200  1
  Mn  Mn6  1  0.19346000  0.70259600  0.90118400  1
  Mn  Mn7  1  0.19597300  0.19597300  0.90121100  1
  Mn  Mn8  1  0.80402700  0.80402700  0.09878900  1
  Mn  Mn9  1  0.29740400  0.80654000  0.09881600  1
  Mn  Mn10  1  0.39752800  0.39752800  0.30107800  1
  Mn  Mn11  1  0.39486200  0.89901600  0.30122800  1
  Mn  Mn12  1  0.00000000  0.50000000  0.50000000  1
  Mn  Mn13  1  0.80654000  0.29740400  0.09881600  1
  Mn  Mn14  1  0.60071100  0.60071100  0.19981100  1
  Mn  Mn15  1  0.19832700  0.19832700  0.40274800  1
  Mn  Mn16  1  0.50000000  0.00000000  0.50000000  1
  Mn  Mn17  1  0.89901600  0.39486200  0.30122800  1
  O  O0  1  0.92806100  0.48620800  0.65316100  1
  O  O1  1  0.48620800  0.92806100  0.65316100  1
  O  O2  1  0.45364200  0.45364200  0.65610400  1
  O  O3  1  0.72934200  0.27157600  0.74286100  1
  O  O4  1  0.04323900  0.04323900  0.85758100  1
  O  O5  1  0.86652900  0.32490900  0.94204900  1
  O  O6  1  0.27157600  0.72934200  0.74286100  1
  O  O7  1  0.27218800  0.27218800  0.74642200  1
  O  O8  1  0.52673200  0.52673200  0.85345100  1
  O  O9  1  0.93233300  0.93233300  0.65101800  1
  O  O10  1  0.52792400  0.07461100  0.85583700  1
  O  O11  1  0.07461100  0.52792400  0.85583700  1
  O  O12  1  0.67509100  0.13347100  0.05795100  1
  O  O13  1  0.74935700  0.74935700  0.74361600  1
  O  O14  1  0.35353000  0.35353000  0.94251400  1
  O  O15  1  0.95676100  0.95676100  0.14241900  1
  O  O16  1  0.32490900  0.86652900  0.94204900  1
  O  O17  1  0.47207600  0.92538900  0.14416300  1
  O  O18  1  0.86623800  0.86623800  0.94195800  1
  O  O19  1  0.47326800  0.47326800  0.14654900  1
  O  O20  1  0.13347100  0.67509100  0.05795100  1
  O  O21  1  0.13376200  0.13376200  0.05804200  1
  O  O22  1  0.72781200  0.72781200  0.25357800  1
  O  O23  1  0.27065800  0.72842400  0.25713900  1
  O  O24  1  0.83524400  0.83524400  0.45931900  1
  O  O25  1  0.64647000  0.64647000  0.05748600  1
  O  O26  1  0.92538900  0.47207600  0.14416300  1
  O  O27  1  0.25064300  0.25064300  0.25638400  1
  O  O28  1  0.51379200  0.07193900  0.34683900  1
  O  O29  1  0.07193900  0.51379200  0.34683900  1
  O  O30  1  0.06766700  0.06766700  0.34898200  1
  O  O31  1  0.66547000  0.66547000  0.54632600  1
  O  O32  1  0.33453000  0.33453000  0.45367400  1
  O  O33  1  0.34679200  0.89282500  0.44805200  1
  O  O34  1  0.72842400  0.27065800  0.25713900  1
  O  O35  1  0.89282500  0.34679200  0.44805200  1
  O  O36  1  0.16475600  0.16475600  0.54068100  1
  O  O37  1  0.54635800  0.54635800  0.34389600  1
  O  O38  1  0.10717500  0.65320800  0.55194800  1
  O  O39  1  0.65320800  0.10717500  0.55194800  1
loop_
_geom_bond_atom_site_label_1
_geom_bond_atom_site_label_2
_geom_bond_distance
_geom_bond_site_symmetry_2
Li0 O36 1.929792 1_555
Li0 O0 2.030343 1_455
Li0 O1 2.030343 1_545
Li0 O9 2.034764 1_445
Li1 O21 2.064912 1_555
Li1 O18 2.064912 1_444
Li1 O16 2.104363 1_544
Li1 O5 2.104363 1_454
Li1 O12 2.104363 1_455
Li1 O20 2.104363 1_545
Li2 O3 1.955471 1_455
Li2 O6 1.955471 1_545
Li2 O7 1.981241 1_555
Li2 O4 2.065250 1_555
Li3 O20 1.955882 1_555
Li3 O12 1.955882 1_555
Li3 O21 1.962167 1_555
Li3 O14 2.101448 1_554
Li4 O34 1.955471 1_565
Li4 O23 1.955471 1_655
Li4 O22 1.981241 1_555
Li4 O15 2.065250 1_555
Li5 O10 1.963921 1_565
Li5 O11 1.963921 1_655
Li5 O8 1.987749 1_555
Li5 O13 2.031666 1_555
Li6 O24 1.929792 1_555
Li6 O29 2.030343 1_655
Li6 O28 2.030343 1_565
Li6 O30 2.034764 1_665
Li7 O5 1.955882 1_555
Li7 O16 1.955882 1_555
Li7 O18 1.962167 1_555
Li7 O25 2.101448 1_556
Li8 O17 1.963921 1_545
Li8 O26 1.963921 1_455
Li8 O19 1.987749 1_555
Li8 O27 2.031666 1_555
Li9 O33 1.946988 1_555
Li9 O35 1.946988 1_555
Li9 O37 1.979339 1_555
Li9 O32 2.028816 1_555
Li10 O38 1.946988 1_555
Li10 O39 1.946988 1_555
Li10 O2 1.979339 1_555
Li10 O31 2.028816 1_555
Li11 O36 2.033668 1_555
Li11 O24 2.033668 1_445
Li11 O35 2.120158 1_455
Li11 O33 2.120158 1_545
Li11 O38 2.120158 1_545
Li11 O39 2.120158 1_455
Mn0 O2 1.926670 1_555
Mn0 O13 1.939412 1_555
Mn0 O3 1.941403 1_555
Mn0 O6 1.941403 1_555
Mn0 O1 1.943992 1_555
Mn0 O0 1.943992 1_555
Mn1 O6 1.939058 1_555
Mn1 O0 1.952478 1_455
Mn1 O9 1.977592 1_455
Mn1 O7 1.999906 1_555
Mn1 O2 2.018409 1_555
Mn1 O13 2.039247 1_455
Mn2 O39 1.852274 1_565
Mn2 O38 1.852274 1_655
Mn2 O31 1.955935 1_555
Mn2 O9 1.963479 1_555
Mn2 O0 2.038051 1_555
Mn2 O1 2.038051 1_555
Mn3 O18 1.889617 1_545
Mn3 O5 1.889663 1_555
Mn3 O10 1.955667 1_555
Mn3 O4 1.976648 1_655
Mn3 O14 1.988122 1_555
Mn3 O8 2.004616 1_555
Mn4 O8 1.930007 1_555
Mn4 O7 1.936645 1_555
Mn4 O10 2.069914 1_555
Mn4 O11 2.069914 1_555
Mn4 O6 2.115676 1_555
Mn4 O3 2.115676 1_555
Mn5 O3 1.939058 1_555
Mn5 O1 1.952478 1_545
Mn5 O9 1.977592 1_545
Mn5 O7 1.999906 1_555
Mn5 O2 2.018409 1_555
Mn5 O13 2.039247 1_545
Mn6 O18 1.889617 1_455
Mn6 O16 1.889663 1_555
Mn6 O11 1.955667 1_555
Mn6 O4 1.976648 1_565
Mn6 O14 1.988122 1_555
Mn6 O8 2.004616 1_555
Mn7 O5 1.898624 1_455
Mn7 O16 1.898624 1_545
Mn7 O10 1.965158 1_555
Mn7 O11 1.965158 1_555
Mn7 O4 1.972442 1_555
Mn7 O14 1.979316 1_555
Mn8 O12 1.898624 1_565
Mn8 O20 1.898624 1_655
Mn8 O26 1.965158 1_555
Mn8 O17 1.965158 1_555
Mn8 O15 1.972442 1_555
Mn8 O25 1.979316 1_555
Mn9 O21 1.889617 1_565
Mn9 O20 1.889663 1_555
Mn9 O17 1.955667 1_555
Mn9 O15 1.976648 1_455
Mn9 O25 1.988122 1_555
Mn9 O19 2.004616 1_555
Mn10 O37 1.926670 1_555
Mn10 O27 1.939412 1_555
Mn10 O34 1.941403 1_555
Mn10 O23 1.941403 1_555
Mn10 O29 1.943992 1_555
Mn10 O28 1.943992 1_555
Mn11 O23 1.939058 1_555
Mn11 O28 1.952478 1_565
Mn11 O30 1.977592 1_565
Mn11 O22 1.999906 1_555
Mn11 O37 2.018409 1_555
Mn11 O27 2.039247 1_565
Mn12 O36 1.922569 1_555
Mn12 O24 1.922569 1_455
Mn12 O35 1.932010 1_455
Mn12 O38 1.932010 1_555
Mn12 O32 1.986965 1_555
Mn12 O31 1.986965 1_455
Mn13 O21 1.889617 1_655
Mn13 O12 1.889663 1_555
Mn13 O26 1.955667 1_555
Mn13 O15 1.976648 1_545
Mn13 O25 1.988122 1_555
Mn13 O19 2.004616 1_555
Mn14 O19 1.930007 1_555
Mn14 O22 1.936645 1_555
Mn14 O26 2.069914 1_555
Mn14 O17 2.069914 1_555
Mn14 O34 2.115676 1_555
Mn14 O23 2.115676 1_555
Mn15 O35 1.852274 1_455
Mn15 O33 1.852274 1_545
Mn15 O32 1.955935 1_555
Mn15 O30 1.963479 1_555
Mn15 O29 2.038051 1_555
Mn15 O28 2.038051 1_555
Mn16 O36 1.922569 1_555
Mn16 O24 1.922569 1_545
Mn16 O33 1.932010 1_545
Mn16 O39 1.932010 1_555
Mn16 O31 1.986965 1_545
Mn16 O32 1.986965 1_555
Mn17 O34 1.939058 1_555
Mn17 O29 1.952478 1_655
Mn17 O30 1.977592 1_655
Mn17 O22 1.999906 1_555
Mn17 O37 2.018409 1_555
Mn17 O27 2.039247 1_655
