# generated using pymatgen
data_Na2P2H12O11F2
_symmetry_space_group_name_H-M   'P 1'
_cell_length_a   10.02812897
_cell_length_b   10.02812897
_cell_length_c   12.80715779
_cell_angle_alpha   70.98019060
_cell_angle_beta   70.98019060
_cell_angle_gamma   31.25919825
_symmetry_Int_Tables_number   1
_chemical_formula_structural   Na2P2H12O11F2
_chemical_formula_sum   'Na4 P4 H24 O22 F4'
_cell_volume   628.88957202
_cell_formula_units_Z   2
loop_
 _symmetry_equiv_pos_site_id
 _symmetry_equiv_pos_as_xyz
  1  'x, y, z'
loop_
 _atom_site_type_symbol
 _atom_site_label
 _atom_site_symmetry_multiplicity
 _atom_site_fract_x
 _atom_site_fract_y
 _atom_site_fract_z
 _atom_site_occupancy
  Na  Na0  1  0.89576700  0.06280300  0.87927100  1
  Na  Na1  1  0.93719700  0.10423300  0.62072900  1
  Na  Na2  1  0.10423300  0.93719700  0.12072900  1
  Na  Na3  1  0.06280300  0.89576700  0.37927100  1
  P  P0  1  0.99528800  0.68018400  0.77947400  1
  P  P1  1  0.31981600  0.00471200  0.72052600  1
  P  P2  1  0.00471300  0.31981600  0.22052600  1
  P  P3  1  0.68018400  0.99528700  0.27947400  1
  H  H0  1  0.26849800  0.27123100  0.81056400  1
  H  H1  1  0.72876900  0.73150200  0.68943600  1
  H  H2  1  0.73150200  0.72876900  0.18943600  1
  H  H3  1  0.27123100  0.26849800  0.31056400  1
  H  H4  1  0.44968200  0.25155500  0.93725300  1
  H  H5  1  0.74844500  0.55031800  0.56274700  1
  H  H6  1  0.55031800  0.74844500  0.06274700  1
  H  H7  1  0.25155500  0.44968200  0.43725300  1
  H  H8  1  0.56923800  0.12648200  0.05039600  1
  H  H9  1  0.87351800  0.43076200  0.44960400  1
  H  H10  1  0.43076200  0.87351800  0.94960400  1
  H  H11  1  0.12648200  0.56923800  0.55039600  1
  H  H12  1  0.55888200  0.27843500  0.51374600  1
  H  H13  1  0.72156500  0.44111800  0.98625400  1
  H  H14  1  0.44111800  0.72156500  0.48625400  1
  H  H15  1  0.27843500  0.55888200  0.01374600  1
  H  H16  1  0.76675700  0.01079900  0.58433900  1
  H  H17  1  0.98920100  0.23324300  0.91566100  1
  H  H18  1  0.23324300  0.98920100  0.41566100  1
  H  H19  1  0.01079900  0.76675700  0.08433900  1
  H  H20  1  0.42521500  0.49383400  0.75596900  1
  H  H21  1  0.50616600  0.57478500  0.74403100  1
  H  H22  1  0.57478500  0.50616600  0.24403100  1
  H  H23  1  0.49383400  0.42521500  0.25596900  1
  O  O0  1  0.02826500  0.80473200  0.76654500  1
  O  O1  1  0.19526800  0.97173500  0.73345500  1
  O  O2  1  0.97173500  0.19526800  0.23345500  1
  O  O3  1  0.80473200  0.02826500  0.26654500  1
  O  O4  1  0.89312100  0.72902300  0.68509600  1
  O  O5  1  0.27097700  0.10687900  0.81490400  1
  O  O6  1  0.10687900  0.27097700  0.31490400  1
  O  O7  1  0.72902300  0.89312100  0.18509600  1
  O  O8  1  0.25675600  0.38075900  0.81506200  1
  O  O9  1  0.61924100  0.74324400  0.68493800  1
  O  O10  1  0.74324400  0.61924100  0.18493800  1
  O  O11  1  0.38075900  0.25675600  0.31506200  1
  O  O12  1  0.52352400  0.23827300  0.98270300  1
  O  O13  1  0.76172700  0.47647600  0.51729700  1
  O  O14  1  0.47647600  0.76172700  0.01729700  1
  O  O15  1  0.23827300  0.52352400  0.48270300  1
  O  O16  1  0.73869800  0.12935600  0.53277300  1
  O  O17  1  0.87064400  0.26130200  0.96722700  1
  O  O18  1  0.26130200  0.87064400  0.46722700  1
  O  O19  1  0.12935600  0.73869800  0.03277300  1
  O  O20  1  0.58051300  0.41948700  0.75000000  1
  O  O21  1  0.41948700  0.58051300  0.25000000  1
  F  F0  1  0.79837000  0.77620500  0.88670300  1
  F  F1  1  0.22379500  0.20163000  0.61329700  1
  F  F2  1  0.20163000  0.22379500  0.11329700  1
  F  F3  1  0.77620500  0.79837000  0.38670300  1
loop_
_geom_bond_atom_site_label_1
_geom_bond_atom_site_label_2
_geom_bond_distance
_geom_bond_site_symmetry_2
Na0 O17 2.390383 1_555
Na0 O19 2.395031 1_646
Na0 O20 2.397594 1_555
Na0 O12 2.419075 1_555
Na0 O0 2.419370 1_645
Na0 O1 2.471555 1_645
Na1 O16 2.390383 1_555
Na1 O18 2.395031 1_645
Na1 O20 2.397594 1_555
Na1 O13 2.419075 1_555
Na1 O1 2.419370 1_645
Na1 O0 2.471555 1_645
Na2 O19 2.390383 1_555
Na2 O17 2.395031 1_464
Na2 O21 2.397594 1_555
Na2 O14 2.419075 1_555
Na2 O2 2.419370 1_465
Na2 O3 2.471555 1_465
Na3 O18 2.390383 1_555
Na3 O16 2.395031 1_465
Na3 O21 2.397594 1_555
Na3 O15 2.419075 1_555
Na3 O3 2.419370 1_465
Na3 O2 2.471555 1_465
H0 O8 1.019454 1_555
H0 O5 1.609728 1_555
H1 O9 1.019454 1_555
H1 O4 1.609728 1_555
H2 O10 1.019454 1_555
H2 O7 1.609728 1_555
H3 O11 1.019454 1_555
H3 O6 1.609728 1_555
H4 O12 0.983202 1_555
H5 O13 0.983202 1_555
H6 O14 0.983202 1_555
H7 O15 0.983202 1_555
H8 O12 0.982582 1_554
H9 O13 0.982582 1_555
H10 O14 0.982582 1_556
H11 O15 0.982582 1_555
H12 O16 0.992999 1_555
H13 O17 0.992999 1_555
H14 O18 0.992999 1_555
H15 O19 0.992999 1_555
H16 O16 0.982972 1_555
H17 O17 0.982972 1_555
H18 O18 0.982972 1_555
H19 O19 0.982972 1_555
H20 O20 0.980566 1_555
H21 O20 0.980566 1_555
H22 O21 0.980566 1_555
H23 O21 0.980566 1_555
O0 P0 1.494122 1_455
O1 P1 1.494122 1_565
O2 P2 1.494131 1_655
O3 P3 1.494131 1_545
O4 P0 1.521178 1_555
O5 P1 1.521178 1_555
O6 P2 1.521172 1_555
O7 P3 1.521172 1_555
O8 P0 1.589165 1_455
O9 P1 1.589165 1_565
O10 P2 1.589166 1_655
O11 P3 1.589166 1_545
F0 P0 1.598785 1_555
F1 P1 1.598785 1_555
F2 P2 1.598781 1_555
F3 P3 1.598781 1_555
