# generated using pymatgen
data_SmHg3
_symmetry_space_group_name_H-M   'P 1'
_cell_length_a   6.69798405
_cell_length_b   6.69798314
_cell_length_c   4.99613552
_cell_angle_alpha   90.00000000
_cell_angle_beta   90.00000000
_cell_angle_gamma   120.00001848
_symmetry_Int_Tables_number   1
_chemical_formula_structural   SmHg3
_chemical_formula_sum   'Sm2 Hg6'
_cell_volume   194.11223947
_cell_formula_units_Z   2
loop_
 _symmetry_equiv_pos_site_id
 _symmetry_equiv_pos_as_xyz
  1  'x, y, z'
loop_
 _atom_site_type_symbol
 _atom_site_label
 _atom_site_symmetry_multiplicity
 _atom_site_fract_x
 _atom_site_fract_y
 _atom_site_fract_z
 _atom_site_occupancy
  Sm  Sm0  1  0.33333400  0.66666700  0.75000000  1
  Sm  Sm1  1  0.66666700  0.33333400  0.24999900  1
  Hg  Hg0  1  0.16363911  0.32727821  0.24999900  1
  Hg  Hg1  1  0.67272079  0.83635989  0.24999900  1
  Hg  Hg2  1  0.16364011  0.83635989  0.24999900  1
  Hg  Hg3  1  0.83635989  0.67272279  0.75000000  1
  Hg  Hg4  1  0.32727921  0.16364111  0.75000000  1
  Hg  Hg5  1  0.83635989  0.16364111  0.75000000  1
loop_
_geom_bond_atom_site_label_1
_geom_bond_atom_site_label_2
_geom_bond_distance
_geom_bond_site_symmetry_2
Hg0 Sm0 3.180560 1_554
Hg0 Sm0 3.180568 1_555
Hg0 Sm1 3.349176 1_555
Hg0 Sm1 3.349176 1_455
Hg1 Sm0 3.180553 1_554
Hg1 Sm0 3.180561 1_555
Hg1 Sm1 3.349169 1_555
Hg1 Sm1 3.349182 1_565
Hg2 Sm0 3.180554 1_554
Hg2 Sm0 3.180561 1_555
Hg2 Sm1 3.349172 1_455
Hg2 Sm1 3.349178 1_565
Hg3 Sm1 3.180560 1_556
Hg3 Sm1 3.180568 1_555
Hg3 Sm0 3.349163 1_555
Hg3 Sm0 3.349190 1_655
Hg4 Sm1 3.180557 1_556
Hg4 Sm1 3.180565 1_555
Hg4 Sm0 3.349166 1_555
Hg4 Sm0 3.349186 1_545
Hg5 Sm1 3.180550 1_556
Hg5 Sm1 3.180558 1_555
Hg5 Sm0 3.349175 1_655
Hg5 Sm0 3.349175 1_545
