# generated using pymatgen
data_LaZn4
_symmetry_space_group_name_H-M   'P 1'
_cell_length_a   5.98646796
_cell_length_b   5.98646796
_cell_length_c   6.05112006
_cell_angle_alpha   90.00000000
_cell_angle_beta   90.00000000
_cell_angle_gamma   116.73500462
_symmetry_Int_Tables_number   1
_chemical_formula_structural   LaZn4
_chemical_formula_sum   'La2 Zn8'
_cell_volume   193.67590106
_cell_formula_units_Z   2
loop_
 _symmetry_equiv_pos_site_id
 _symmetry_equiv_pos_as_xyz
  1  'x, y, z'
loop_
 _atom_site_type_symbol
 _atom_site_label
 _atom_site_symmetry_multiplicity
 _atom_site_fract_x
 _atom_site_fract_y
 _atom_site_fract_z
 _atom_site_occupancy
  La  La0  1  0.26582812  0.73417188  0.25000000  1
  La  La1  1  0.73417188  0.26582812  0.75000100  1
  Zn  Zn0  1  0.21881172  0.21881172  -0.00000000  1
  Zn  Zn1  1  0.78118828  0.78118828  -0.00000000  1
  Zn  Zn2  1  0.85312591  0.14687409  0.25000000  1
  Zn  Zn3  1  0.61030141  0.38969859  0.25000000  1
  Zn  Zn4  1  0.21881172  0.21881172  0.49999900  1
  Zn  Zn5  1  0.78118828  0.78118828  0.49999900  1
  Zn  Zn6  1  0.38969859  0.61030141  0.75000100  1
  Zn  Zn7  1  0.14687409  0.85312591  0.75000100  1
loop_
_geom_bond_atom_site_label_1
_geom_bond_atom_site_label_2
_geom_bond_distance
_geom_bond_site_symmetry_2
La0 Zn7 3.259517 1_554
La0 Zn7 3.259528 1_555
La0 Zn2 3.263400 1_455
La0 Zn2 3.263400 1_565
La0 Zn6 3.278492 1_554
La0 Zn6 3.278504 1_555
La0 Zn5 3.332386 1_555
La0 Zn4 3.332386 1_555
La0 Zn0 3.332388 1_555
La0 Zn1 3.332388 1_555
La0 Zn4 3.394091 1_565
La0 Zn5 3.394091 1_455
La0 Zn0 3.394094 1_565
La0 Zn1 3.394094 1_455
La0 Zn3 3.511599 1_555
La0 Zn3 3.517313 1_455
La0 Zn3 3.517313 1_565
La1 Zn2 3.259517 1_556
La1 Zn2 3.259528 1_555
La1 Zn7 3.263400 1_545
La1 Zn7 3.263400 1_655
La1 Zn3 3.278492 1_556
La1 Zn3 3.278504 1_555
La1 Zn0 3.332386 1_556
La1 Zn1 3.332386 1_556
La1 Zn4 3.332394 1_555
La1 Zn5 3.332394 1_555
La1 Zn0 3.394091 1_656
La1 Zn1 3.394091 1_546
La1 Zn4 3.394100 1_655
La1 Zn5 3.394100 1_545
La1 Zn6 3.511599 1_555
La1 Zn6 3.517313 1_545
La1 Zn6 3.517313 1_655
Zn0 Zn7 2.533408 1_544
Zn0 Zn2 2.533412 1_455
Zn0 Zn6 2.582736 1_554
Zn0 Zn3 2.582739 1_555
Zn0 Zn1 2.748027 1_445
Zn0 Zn4 3.025554 1_555
Zn0 Zn4 3.025566 1_554
Zn1 Zn7 2.533408 1_654
Zn1 Zn2 2.533412 1_565
Zn1 Zn6 2.582736 1_554
Zn1 Zn3 2.582739 1_555
Zn1 Zn5 3.025554 1_555
Zn1 Zn5 3.025566 1_554
Zn2 Zn3 2.475380 1_555
Zn2 Zn4 2.533408 1_655
Zn2 Zn5 2.533408 1_545
Zn3 Zn4 2.582736 1_555
Zn3 Zn5 2.582736 1_555
Zn4 Zn7 2.533419 1_545
Zn4 Zn6 2.582746 1_555
Zn4 Zn5 2.748027 1_445
Zn5 Zn7 2.533419 1_655
Zn5 Zn6 2.582746 1_555
Zn6 Zn7 2.475380 1_555
