# generated using pymatgen
data_Sc2TcAu
_symmetry_space_group_name_H-M   'P 1'
_cell_length_a   4.65108089
_cell_length_b   4.65101601
_cell_length_c   4.65093621
_cell_angle_alpha   60.00040076
_cell_angle_beta   59.99842816
_cell_angle_gamma   59.99825976
_symmetry_Int_Tables_number   1
_chemical_formula_structural   Sc2TcAu
_chemical_formula_sum   'Sc2 Tc1 Au1'
_cell_volume   71.14060538
_cell_formula_units_Z   1
loop_
 _symmetry_equiv_pos_site_id
 _symmetry_equiv_pos_as_xyz
  1  'x, y, z'
loop_
 _atom_site_type_symbol
 _atom_site_label
 _atom_site_symmetry_multiplicity
 _atom_site_fract_x
 _atom_site_fract_y
 _atom_site_fract_z
 _atom_site_occupancy
  Sc  Sc0  1  0.00000258  0.00000176  0.00000031  1
  Sc  Sc1  1  0.49999846  0.50000363  0.49999729  1
  Tc  Tc0  1  0.74999855  0.74999176  0.75000702  1
  Au  Au0  1  0.25000141  0.25000485  0.24999739  1
loop_
_geom_bond_atom_site_label_1
_geom_bond_atom_site_label_2
_geom_bond_distance
_geom_bond_site_symmetry_2
Sc0 Tc0 2.848098 1_454
Sc0 Tc0 2.848104 1_544
Sc0 Tc0 2.848118 1_445
Sc0 Tc0 2.848200 1_444
Sc1 Tc0 2.848055 1_554
Sc1 Tc0 2.848119 1_455
Sc1 Tc0 2.848164 1_555
Sc1 Tc0 2.848182 1_545
Au0 Sc1 2.848093 1_554
Au0 Sc0 2.848104 1_556
Au0 Sc0 2.848124 1_655
Au0 Sc0 2.848125 1_565
Au0 Sc1 2.848131 1_455
Au0 Sc1 2.848141 1_545
Au0 Sc1 2.848156 1_555
Au0 Sc0 2.848168 1_555
