# generated using pymatgen
data_Li2Mn3(BO3)3
_symmetry_space_group_name_H-M   'P 1'
_cell_length_a   8.27542800
_cell_length_b   8.84913073
_cell_length_c   12.63806731
_cell_angle_alpha   69.81588902
_cell_angle_beta   71.03982696
_cell_angle_gamma   62.37672147
_symmetry_Int_Tables_number   1
_chemical_formula_structural   Li2Mn3(BO3)3
_chemical_formula_sum   'Li8 Mn12 B12 O36'
_cell_volume   754.35249831
_cell_formula_units_Z   4
loop_
 _symmetry_equiv_pos_site_id
 _symmetry_equiv_pos_as_xyz
  1  'x, y, z'
loop_
 _atom_site_type_symbol
 _atom_site_label
 _atom_site_symmetry_multiplicity
 _atom_site_fract_x
 _atom_site_fract_y
 _atom_site_fract_z
 _atom_site_occupancy
  Li  Li0  1  0.01443600  0.08450000  0.19598200  1
  Li  Li1  1  0.27871400  0.41151000  0.29824500  1
  Li  Li2  1  0.01494100  0.58871800  0.69233400  1
  Li  Li3  1  0.02766800  0.83966200  0.44062300  1
  Li  Li4  1  0.27667800  0.89659600  0.80282500  1
  Li  Li5  1  0.69766900  0.38577300  0.63194200  1
  Li  Li6  1  0.69443400  0.13567800  0.88303100  1
  Li  Li7  1  0.70764400  0.88855800  0.12955900  1
  Mn  Mn0  1  0.63792500  0.02285600  0.34480500  1
  Mn  Mn1  1  0.62228400  0.29627000  0.09560700  1
  Mn  Mn2  1  0.35976200  0.23806700  0.74529000  1
  Mn  Mn3  1  0.37232900  0.48313500  0.49754300  1
  Mn  Mn4  1  0.39358400  0.73853800  0.24781200  1
  Mn  Mn5  1  0.99850700  0.48091200  0.15833400  1
  Mn  Mn6  1  0.99267300  0.24103200  0.41235400  1
  Mn  Mn7  1  0.63486400  0.77940300  0.59212600  1
  Mn  Mn8  1  0.64837700  0.52349800  0.84341100  1
  Mn  Mn9  1  0.35420700  0.98951300  0.99788300  1
  Mn  Mn10  1  0.99413800  0.72355600  0.90976500  1
  Mn  Mn11  1  0.99608800  0.97507600  0.65768400  1
  B  B0  1  0.33461200  0.12316900  0.21002600  1
  B  B1  1  0.01126000  0.75517000  0.24616500  1
  B  B2  1  0.00002400  0.50724700  0.50304000  1
  B  B3  1  0.33357400  0.87168000  0.45345700  1
  B  B4  1  0.33329300  0.62370500  0.70889000  1
  B  B5  1  0.67225000  0.37804100  0.28157600  1
  B  B6  1  0.65982300  0.62759100  0.05190700  1
  B  B7  1  0.33824500  0.36511100  0.96085500  1
  B  B8  1  0.67543800  0.12464600  0.54082900  1
  B  B9  1  0.98230000  0.00756200  0.00224900  1
  B  B10  1  0.99341800  0.24743500  0.74796900  1
  B  B11  1  0.66493600  0.87142500  0.79353500  1
  O  O0  1  0.07599200  0.06747200  0.03934600  1
  O  O1  1  0.14458700  0.20176600  0.23532200  1
  O  O2  1  0.10599000  0.60269100  0.20801000  1
  O  O3  1  0.10061100  0.09455800  0.70992700  1
  O  O4  1  0.10606500  0.37720900  0.44340300  1
  O  O5  1  0.07829700  0.34045400  0.76062100  1
  O  O6  1  0.08491900  0.59470700  0.52563700  1
  O  O7  1  0.10540900  0.82681300  0.27658100  1
  O  O8  1  0.44240400  0.19775200  0.22251700  1
  O  O9  1  0.78723600  0.07776300  0.02468600  1
  O  O10  1  0.13930400  0.70916300  0.73201200  1
  O  O11  1  0.14413700  0.96391300  0.48377400  1
  O  O12  1  0.47853400  0.47216700  0.30704200  1
  O  O13  1  0.46770200  0.71501900  0.08830400  1
  O  O14  1  0.48556600  0.21159900  0.56856000  1
  O  O15  1  0.15247800  0.46719700  0.98912400  1
  O  O16  1  0.39315400  0.73065900  0.40333700  1
  O  O17  1  0.73807600  0.23609700  0.22986600  1
  O  O18  1  0.40359400  0.22378200  0.91262400  1
  O  O19  1  0.42546400  0.96836000  0.17146300  1
  O  O20  1  0.41578900  0.47945800  0.66130100  1
  O  O21  1  0.08250400  0.87648100  0.94206700  1
  O  O22  1  0.46248100  0.91149300  0.47156000  1
  O  O23  1  0.43956300  0.68509000  0.73437400  1
  O  O24  1  0.79271600  0.42141800  0.30409600  1
  O  O25  1  0.78272300  0.68416000  0.06239200  1
  O  O26  1  0.79172100  0.17926900  0.56473900  1
  O  O27  1  0.47063600  0.40632000  0.97874600  1
  O  O28  1  0.79946500  0.30610800  0.77352700  1
  O  O29  1  0.81061100  0.55342200  0.54154100  1
  O  O30  1  0.82071600  0.84023200  0.25568100  1
  O  O31  1  0.47183800  0.95218100  0.82328100  1
  O  O32  1  0.72239100  0.48336400  0.00648300  1
  O  O33  1  0.74533500  0.73032100  0.74086600  1
  O  O34  1  0.75301400  0.98285000  0.48916600  1
  O  O35  1  0.77918500  0.92802300  0.81536000  1
loop_
_geom_bond_atom_site_label_1
_geom_bond_atom_site_label_2
_geom_bond_distance
_geom_bond_site_symmetry_2
Li0 O0 1.918411 1_555
Li0 O7 2.026736 1_545
Li0 O17 2.031841 1_455
Li0 O1 2.055356 1_555
Li1 O2 1.921247 1_555
Li1 O4 1.952835 1_555
Li1 O12 2.004637 1_555
Li1 O8 2.087988 1_555
Li2 O5 1.940023 1_555
Li2 O6 1.983707 1_555
Li2 O33 1.993193 1_455
Li2 O10 2.041562 1_555
Li3 O6 1.961834 1_555
Li3 O7 1.988214 1_555
Li3 O34 2.026718 1_455
Li3 O11 2.042879 1_555
Li4 O3 1.973715 1_565
Li4 O21 1.980410 1_555
Li4 O31 2.003206 1_555
Li4 O23 2.021997 1_555
Li5 O29 1.949879 1_555
Li5 O28 1.991675 1_555
Li5 O26 1.997246 1_555
Li5 O20 2.030491 1_555
Li6 O28 1.984655 1_555
Li6 O9 1.988145 1_556
Li6 O35 2.024740 1_545
Li6 O18 2.101604 1_555
Li7 O30 1.930501 1_555
Li7 O9 1.979337 1_565
Li7 O25 2.013168 1_555
Li7 O19 2.038973 1_555
Mn0 O30 2.012605 1_545
Mn0 O22 2.090766 1_545
Mn0 O34 2.175266 1_545
Mn0 O8 2.248116 1_555
Mn0 O17 2.265856 1_555
Mn1 O27 1.945018 1_554
Mn1 O17 2.010147 1_555
Mn1 O32 2.018587 1_555
Mn1 O8 2.058016 1_555
Mn1 O9 2.087780 1_555
Mn2 O5 2.038312 1_555
Mn2 O14 2.179728 1_555
Mn2 O18 2.211632 1_555
Mn2 O31 2.220208 1_545
Mn2 O20 2.222279 1_555
Mn3 O6 2.067221 1_555
Mn3 O14 2.104207 1_555
Mn3 O16 2.159174 1_555
Mn3 O20 2.199987 1_555
Mn3 O12 2.298993 1_555
Mn4 O16 1.941473 1_555
Mn4 O13 1.962381 1_555
Mn4 O19 2.028454 1_555
Mn4 O12 2.049007 1_555
Mn4 O7 2.081974 1_555
Mn5 O2 2.016233 1_655
Mn5 O15 2.115761 1_654
Mn5 O24 2.166670 1_555
Mn5 O25 2.194907 1_555
Mn5 O1 2.201502 1_655
Mn6 O4 2.025048 1_655
Mn6 O24 2.161656 1_555
Mn6 O11 2.181011 1_645
Mn6 O26 2.192808 1_555
Mn6 O1 2.238421 1_655
Mn7 O29 2.025811 1_555
Mn7 O22 2.088111 1_555
Mn7 O33 2.177863 1_555
Mn7 O23 2.206329 1_555
Mn7 O34 2.253733 1_555
Mn8 O28 2.066024 1_555
Mn8 O27 2.172499 1_555
Mn8 O33 2.173071 1_555
Mn8 O23 2.196810 1_555
Mn8 O32 2.205022 1_556
Mn9 O0 2.010952 1_566
Mn9 O18 2.140971 1_565
Mn9 O31 2.175995 1_555
Mn9 O13 2.180504 1_556
Mn9 O19 2.376980 1_556
Mn10 O21 2.006384 1_655
Mn10 O15 2.096812 1_655
Mn10 O35 2.183192 1_555
Mn10 O10 2.192674 1_655
Mn10 O25 2.193566 1_556
Mn11 O3 2.000733 1_665
Mn11 O10 2.106204 1_655
Mn11 O26 2.120725 1_565
Mn11 O11 2.151574 1_655
Mn11 O35 2.272084 1_555
B0 O1 1.367974 1_555
B0 O19 1.395351 1_545
B0 O8 1.401986 1_555
B1 O2 1.374835 1_555
B1 O30 1.380599 1_455
B1 O7 1.406257 1_555
B2 O4 1.376445 1_555
B2 O29 1.381430 1_455
B2 O6 1.400436 1_555
B3 O22 1.370101 1_555
B3 O11 1.381859 1_555
B3 O16 1.404840 1_555
B4 O20 1.382757 1_555
B4 O23 1.385627 1_555
B4 O10 1.398675 1_555
B5 O24 1.355277 1_555
B5 O12 1.406681 1_555
B5 O17 1.414987 1_555
B6 O25 1.381304 1_555
B6 O32 1.387878 1_555
B6 O13 1.402710 1_555
B7 O15 1.372962 1_555
B7 O18 1.383033 1_555
B7 O27 1.404558 1_555
B8 O14 1.375097 1_555
B8 O34 1.399602 1_545
B8 O26 1.404292 1_555
B9 O0 1.375109 1_655
B9 O21 1.385143 1_644
B9 O9 1.402246 1_555
B10 O5 1.377122 1_655
B10 O3 1.380961 1_655
B10 O28 1.398620 1_555
B11 O35 1.387342 1_555
B11 O31 1.393412 1_555
B11 O33 1.400087 1_555
