# generated using pymatgen
data_Li5Fe8(BO3)8
_symmetry_space_group_name_H-M   'P 1'
_cell_length_a   5.27140300
_cell_length_b   9.07381103
_cell_length_c   11.36981919
_cell_angle_alpha   113.36190429
_cell_angle_beta   102.28490920
_cell_angle_gamma   89.58585938
_symmetry_Int_Tables_number   1
_chemical_formula_structural   Li5Fe8(BO3)8
_chemical_formula_sum   'Li5 Fe8 B8 O24'
_cell_volume   486.01377510
_cell_formula_units_Z   1
loop_
 _symmetry_equiv_pos_site_id
 _symmetry_equiv_pos_as_xyz
  1  'x, y, z'
loop_
 _atom_site_type_symbol
 _atom_site_label
 _atom_site_symmetry_multiplicity
 _atom_site_fract_x
 _atom_site_fract_y
 _atom_site_fract_z
 _atom_site_occupancy
  Li  Li0  1  0.64713200  0.30556100  0.58661700  1
  Li  Li1  1  0.39042300  0.04582000  0.09228000  1
  Li  Li2  1  0.08256800  0.41174100  0.83908500  1
  Li  Li3  1  0.31209800  0.67814900  0.33225100  1
  Li  Li4  1  0.58136200  0.90559800  0.84045500  1
  Fe  Fe0  1  0.60405400  0.59262300  0.87487100  1
  Fe  Fe1  1  0.89867700  0.89191000  0.12490200  1
  Fe  Fe2  1  0.15965100  0.48293200  0.62014800  1
  Fe  Fe3  1  0.34076300  0.03553500  0.37088100  1
  Fe  Fe4  1  0.65281900  0.97375400  0.61894700  1
  Fe  Fe5  1  0.84198200  0.50854200  0.36563900  1
  Fe  Fe6  1  0.09399100  0.09231500  0.86837300  1
  Fe  Fe7  1  0.39853500  0.39985900  0.11513500  1
  B  B0  1  0.36069400  0.36438100  0.37484600  1
  B  B1  1  0.10901200  0.76858900  0.87845700  1
  B  B2  1  0.84366900  0.84262400  0.36897800  1
  B  B3  1  0.59595900  0.26179700  0.86462900  1
  B  B4  1  0.14393800  0.14626700  0.62402000  1
  B  B5  1  0.39657500  0.74097900  0.12563800  1
  B  B6  1  0.65600400  0.64129900  0.62159700  1
  B  B7  1  0.90388300  0.22081500  0.12477700  1
  O  O0  1  0.87052200  0.79071200  0.91778000  1
  O  O1  1  0.55295500  0.53375500  0.66232200  1
  O  O2  1  0.76682000  0.08416100  0.11563900  1
  O  O3  1  0.49824300  0.24163200  0.38798500  1
  O  O4  1  0.12269100  0.38838100  0.40938500  1
  O  O5  1  0.19845600  0.61676900  0.83515900  1
  O  O6  1  0.74072600  0.38457200  0.86332300  1
  O  O7  1  0.94860900  0.94527500  0.32351200  1
  O  O8  1  0.28168600  0.89027400  0.15647200  1
  O  O9  1  0.38561300  0.11856800  0.58732200  1
  O  O10  1  0.02819900  0.28495500  0.63581000  1
  O  O11  1  0.62182400  0.73006800  0.07910600  1
  O  O12  1  0.35868300  0.28529400  0.90335100  1
  O  O13  1  0.61254300  0.87661500  0.41673700  1
  O  O14  1  0.68597400  0.10538000  0.82412400  1
  O  O15  1  0.02390100  0.03095300  0.65217600  1
  O  O16  1  0.29020800  0.61853800  0.14259700  1
  O  O17  1  0.79346100  0.36643300  0.16953000  1
  O  O18  1  0.86002300  0.59912200  0.56000000  1
  O  O19  1  0.55867900  0.78996900  0.64662000  1
  O  O20  1  0.96496200  0.70736500  0.36542200  1
  O  O21  1  0.25499100  0.90116500  0.88837200  1
  O  O22  1  0.45791100  0.47587300  0.33388900  1
  O  O23  1  0.13798600  0.20695200  0.08488400  1
loop_
_geom_bond_atom_site_label_1
_geom_bond_atom_site_label_2
_geom_bond_distance
_geom_bond_site_symmetry_2
Li0 O10 1.995569 1_655
Li0 O1 2.007039 1_555
Li0 O3 2.065483 1_555
Li0 O9 2.197442 1_555
Li1 O2 1.959805 1_555
Li1 O8 1.964675 1_545
Li1 O23 1.984256 1_555
Li1 O21 2.122102 1_544
Li2 O6 1.911937 1_455
Li2 O5 1.982450 1_555
Li2 O12 2.038877 1_555
Li2 O10 2.088415 1_555
Li3 O20 1.941240 1_455
Li3 O16 1.981328 1_555
Li3 O22 1.990106 1_555
Li3 O13 2.167024 1_555
Li4 O21 1.917178 1_555
Li4 O14 1.987394 1_565
Li4 O19 2.006988 1_555
Li4 O0 2.077663 1_555
Fe0 O6 1.980948 1_555
Fe0 O5 2.117567 1_555
Fe0 O0 2.119254 1_555
Fe0 O11 2.137460 1_556
Fe0 O1 2.213450 1_555
Fe1 O2 1.906396 1_565
Fe1 O11 1.912780 1_555
Fe1 O8 1.975044 1_655
Fe1 O7 2.069965 1_555
Fe1 O0 2.132891 1_554
Fe2 O10 2.015726 1_555
Fe2 O1 2.038728 1_555
Fe2 O18 2.040091 1_455
Fe2 O4 2.165570 1_555
Fe2 O5 2.220180 1_555
Fe3 O3 1.972180 1_555
Fe3 O7 2.105950 1_445
Fe3 O13 2.156913 1_545
Fe3 O8 2.216235 1_545
Fe3 O9 2.228025 1_555
Fe4 O19 1.902836 1_555
Fe4 O15 1.945045 1_665
Fe4 O9 1.993080 1_565
Fe4 O13 2.072594 1_555
Fe4 O14 2.125778 1_565
Fe5 O20 1.922524 1_555
Fe5 O4 1.928563 1_655
Fe5 O22 1.982412 1_555
Fe5 O18 2.009789 1_555
Fe5 O17 2.044915 1_555
Fe6 O21 1.997427 1_545
Fe6 O12 2.101930 1_555
Fe6 O14 2.115736 1_455
Fe6 O23 2.219341 1_556
Fe6 O15 2.240519 1_555
Fe7 O16 1.982162 1_555
Fe7 O17 2.097659 1_555
Fe7 O23 2.103533 1_555
Fe7 O12 2.173863 1_554
Fe7 O22 2.251921 1_555
B0 O3 1.364843 1_555
B0 O4 1.383320 1_555
B0 O22 1.409112 1_555
B1 O5 1.383454 1_555
B1 O21 1.385970 1_555
B1 O0 1.408917 1_455
B2 O20 1.370055 1_555
B2 O7 1.397072 1_555
B2 O13 1.420445 1_555
B3 O6 1.361577 1_555
B3 O12 1.399917 1_555
B3 O14 1.420046 1_555
B4 O10 1.365196 1_555
B4 O15 1.399684 1_555
B4 O9 1.413741 1_555
B5 O16 1.345665 1_555
B5 O11 1.386961 1_555
B5 O8 1.423614 1_555
B6 O18 1.376802 1_555
B6 O19 1.382639 1_555
B6 O1 1.390964 1_555
B7 O17 1.387553 1_555
B7 O23 1.391092 1_655
B7 O2 1.396133 1_555
