# generated using pymatgen
data_ThGa3
_symmetry_space_group_name_H-M   'P 1'
_cell_length_a   6.50158061
_cell_length_b   6.50158210
_cell_length_c   4.49649011
_cell_angle_alpha   90.00000000
_cell_angle_beta   90.00000000
_cell_angle_gamma   120.00001358
_symmetry_Int_Tables_number   1
_chemical_formula_structural   ThGa3
_chemical_formula_sum   'Th2 Ga6'
_cell_volume   164.60469468
_cell_formula_units_Z   2
loop_
 _symmetry_equiv_pos_site_id
 _symmetry_equiv_pos_as_xyz
  1  'x, y, z'
loop_
 _atom_site_type_symbol
 _atom_site_label
 _atom_site_symmetry_multiplicity
 _atom_site_fract_x
 _atom_site_fract_y
 _atom_site_fract_z
 _atom_site_occupancy
  Th  Th0  1  0.33333300  0.66666600  0.74999900  1
  Th  Th1  1  0.66666700  0.33333300  0.24999900  1
  Ga  Ga0  1  0.14031183  0.28062467  0.24999900  1
  Ga  Ga1  1  0.71937533  0.85968817  0.24999900  1
  Ga  Ga2  1  0.14031283  0.85968817  0.24999900  1
  Ga  Ga3  1  0.85968717  0.71937433  0.74999900  1
  Ga  Ga4  1  0.28062367  0.14031183  0.74999900  1
  Ga  Ga5  1  0.85968817  0.14031183  0.74999900  1
loop_
_geom_bond_atom_site_label_1
_geom_bond_atom_site_label_2
_geom_bond_distance
_geom_bond_site_symmetry_2
Ga0 Ga1 2.736752 1_445
Ga0 Ga2 2.736756 1_545
Ga0 Ga5 2.747944 1_455
Ga0 Ga5 2.747944 1_454
Ga0 Ga4 2.747948 1_555
Ga0 Ga4 2.747948 1_554
Ga0 Th0 3.127175 1_554
Ga0 Th0 3.127175 1_555
Ga0 Th1 3.264303 1_455
Ga0 Th1 3.264315 1_555
Ga1 Ga2 2.736759 1_655
Ga1 Ga5 2.747945 1_564
Ga1 Ga5 2.747945 1_565
Ga1 Ga3 2.747951 1_555
Ga1 Ga3 2.747951 1_554
Ga1 Th0 3.127179 1_554
Ga1 Th0 3.127179 1_555
Ga1 Th1 3.264303 1_565
Ga1 Th1 3.264316 1_555
Ga2 Ga4 2.747945 1_564
Ga2 Ga4 2.747945 1_565
Ga2 Ga3 2.747951 1_454
Ga2 Ga3 2.747951 1_455
Ga2 Th0 3.127179 1_554
Ga2 Th0 3.127179 1_555
Ga2 Th1 3.264306 1_565
Ga2 Th1 3.264313 1_455
Ga3 Ga4 2.736756 1_665
Ga3 Ga5 2.736756 1_565
Ga3 Th1 3.127175 1_555
Ga3 Th1 3.127175 1_556
Ga3 Th0 3.264309 1_555
Ga3 Th0 3.264309 1_655
Ga4 Ga5 2.736746 1_455
Ga4 Th1 3.127183 1_555
Ga4 Th1 3.127183 1_556
Ga4 Th0 3.264307 1_555
Ga4 Th0 3.264314 1_545
Ga5 Th1 3.127179 1_555
Ga5 Th1 3.127179 1_556
Ga5 Th0 3.264306 1_655
Ga5 Th0 3.264312 1_545
