# generated using pymatgen
data_Tl2CoP4(HO2)8
_symmetry_space_group_name_H-M   'P 1'
_cell_length_a   8.76210904
_cell_length_b   9.99248609
_cell_length_c   10.40437801
_cell_angle_alpha   107.34255155
_cell_angle_beta   106.79159687
_cell_angle_gamma   65.17229748
_symmetry_Int_Tables_number   1
_chemical_formula_structural   Tl2CoP4(HO2)8
_chemical_formula_sum   'Tl4 Co2 P8 H16 O32'
_cell_volume   774.95499873
_cell_formula_units_Z   2
loop_
 _symmetry_equiv_pos_site_id
 _symmetry_equiv_pos_as_xyz
  1  'x, y, z'
loop_
 _atom_site_type_symbol
 _atom_site_label
 _atom_site_symmetry_multiplicity
 _atom_site_fract_x
 _atom_site_fract_y
 _atom_site_fract_z
 _atom_site_occupancy
  Tl  Tl0  1  0.70310500  0.09280900  0.79850600  1
  Tl  Tl1  1  0.20285600  0.59259700  0.29885100  1
  Tl  Tl2  1  0.79714000  0.40741000  0.70115800  1
  Tl  Tl3  1  0.29689000  0.90718800  0.20149400  1
  Co  Co0  1  0.50000000  0.49999900  0.00000000  1
  Co  Co1  1  0.99999800  0.00000100  0.50000000  1
  P  P0  1  0.31690400  0.41481200  0.67069200  1
  P  P1  1  0.81691000  0.91481400  0.17077500  1
  P  P2  1  0.18309000  0.08518600  0.82922400  1
  P  P3  1  0.68309500  0.58519000  0.32930900  1
  P  P4  1  0.09451900  0.64800000  0.85647800  1
  P  P5  1  0.59452300  0.14788900  0.35656700  1
  P  P6  1  0.40547600  0.85211000  0.64343200  1
  P  P7  1  0.90548100  0.35200100  0.14352300  1
  H  H0  1  0.35994000  0.60015600  0.62623500  1
  H  H1  1  0.85991300  0.10018000  0.12637700  1
  H  H2  1  0.14008600  0.89982300  0.87362500  1
  H  H3  1  0.64006400  0.39984500  0.37376600  1
  H  H4  1  0.37429100  0.28651700  0.98917900  1
  H  H5  1  0.87441700  0.78645800  0.48905000  1
  H  H6  1  0.12558200  0.21354200  0.51094900  1
  H  H7  1  0.62571000  0.71348300  0.01082100  1
  H  H8  1  0.37768600  0.19870300  0.46081000  1
  H  H9  1  0.87785200  0.69865200  0.96086700  1
  H  H10  1  0.12214500  0.30135000  0.03913100  1
  H  H11  1  0.62231300  0.80129800  0.53918700  1
  H  H12  1  0.50972100  0.29625000  0.13026700  1
  H  H13  1  0.00991400  0.79612400  0.63007900  1
  H  H14  1  0.99008700  0.20387400  0.36991800  1
  H  H15  1  0.49028000  0.70374900  0.86973400  1
  O  O0  1  0.47569000  0.31515500  0.03541200  1
  O  O1  1  0.97599700  0.81486900  0.53517100  1
  O  O2  1  0.02400300  0.18513000  0.46482700  1
  O  O3  1  0.52431300  0.68484400  0.96458800  1
  O  O4  1  0.47064400  0.39988100  0.78766300  1
  O  O5  1  0.97073800  0.89992200  0.28771300  1
  O  O6  1  0.02926300  0.10007700  0.71228700  1
  O  O7  1  0.52935300  0.60011900  0.21233900  1
  O  O8  1  0.31309400  0.51371100  0.57576400  1
  O  O9  1  0.81286100  0.01386800  0.07590600  1
  O  O10  1  0.18713700  0.98613600  0.92409500  1
  O  O11  1  0.68690800  0.48628900  0.42423700  1
  O  O12  1  0.30033700  0.26906400  0.58154500  1
  O  O13  1  0.80047800  0.76904300  0.08162500  1
  O  O14  1  0.19952400  0.23095600  0.91837600  1
  O  O15  1  0.69966200  0.73093800  0.41845400  1
  O  O16  1  0.14227400  0.50128000  0.73249400  1
  O  O17  1  0.64236600  0.00107300  0.23270100  1
  O  O18  1  0.35763800  0.99892600  0.76730000  1
  O  O19  1  0.85772300  0.49872400  0.26750500  1
  O  O20  1  0.23089400  0.62434100  0.98490600  1
  O  O21  1  0.73078400  0.12420800  0.48506900  1
  O  O22  1  0.26921500  0.87579300  0.51493000  1
  O  O23  1  0.76910600  0.37566000  0.01509400  1
  O  O24  1  0.92312100  0.64217700  0.86887700  1
  O  O25  1  0.42294700  0.14227400  0.36881000  1
  O  O26  1  0.57705100  0.85772600  0.63118700  1
  O  O27  1  0.07687800  0.35782200  0.13112200  1
  O  O28  1  0.06181700  0.78533500  0.80162800  1
  O  O29  1  0.56210400  0.28514700  0.30172000  1
  O  O30  1  0.43789800  0.71484900  0.69827500  1
  O  O31  1  0.93818500  0.21466600  0.19837300  1
loop_
_geom_bond_atom_site_label_1
_geom_bond_atom_site_label_2
_geom_bond_distance
_geom_bond_site_symmetry_2
Co0 O0 2.091452 1_555
Co0 O3 2.091475 1_554
Co0 O4 2.125528 1_554
Co0 O7 2.125549 1_555
Co0 O23 2.137836 1_555
Co0 O20 2.137840 1_554
Co1 O2 2.091676 1_655
Co1 O1 2.091678 1_545
Co1 O6 2.124975 1_655
Co1 O5 2.124980 1_545
Co1 O21 2.138568 1_555
Co1 O22 2.138592 1_645
H0 O8 1.045554 1_555
H0 O30 1.480322 1_555
H1 O9 1.045511 1_555
H1 O31 1.480331 1_555
H2 O10 1.045512 1_555
H2 O28 1.480332 1_555
H3 O11 1.045536 1_555
H3 O29 1.480383 1_555
H4 O0 0.993565 1_556
H5 O1 0.993615 1_555
H6 O2 0.993614 1_555
H7 O3 0.993555 1_554
H8 O25 1.049394 1_555
H8 O12 1.448045 1_555
H9 O24 1.049383 1_555
H9 O13 1.448372 1_556
H10 O27 1.049381 1_555
H10 O14 1.448369 1_554
H11 O26 1.049396 1_555
H11 O15 1.448027 1_555
H12 O0 0.996192 1_555
H13 O1 0.996215 1_455
H14 O2 0.996222 1_655
H15 O3 0.996181 1_555
O4 P0 1.519953 1_555
O5 P1 1.520243 1_555
O6 P2 1.520232 1_555
O7 P3 1.519958 1_555
O8 P0 1.577457 1_555
O9 P1 1.577324 1_545
O10 P2 1.577316 1_565
O11 P3 1.577462 1_555
O12 P0 1.515536 1_555
O13 P1 1.515352 1_555
O14 P2 1.515356 1_555
O15 P3 1.515530 1_555
O16 P0 1.621203 1_555
O16 P4 1.630267 1_555
O17 P1 1.621196 1_545
O17 P5 1.630150 1_555
O18 P2 1.621215 1_565
O18 P6 1.630158 1_555
O19 P3 1.621199 1_555
O19 P7 1.630274 1_555
O20 P4 1.515842 1_555
O21 P5 1.515933 1_555
O22 P6 1.515935 1_555
O23 P7 1.515849 1_555
O24 P4 1.570112 1_655
O25 P5 1.570105 1_555
O26 P6 1.570109 1_555
O27 P7 1.570102 1_455
O28 P4 1.527491 1_555
O29 P5 1.527496 1_555
O30 P6 1.527491 1_555
O31 P7 1.527485 1_555
