# generated using pymatgen
data_AcAg
_symmetry_space_group_name_H-M   'P 1'
_cell_length_a   3.94785174
_cell_length_b   3.94785174
_cell_length_c   3.94785174
_cell_angle_alpha   90.00000000
_cell_angle_beta   90.00000000
_cell_angle_gamma   90.00000000
_symmetry_Int_Tables_number   1
_chemical_formula_structural   AcAg
_chemical_formula_sum   'Ac1 Ag1'
_cell_volume   61.52937500
_cell_formula_units_Z   1
loop_
 _symmetry_equiv_pos_site_id
 _symmetry_equiv_pos_as_xyz
  1  'x, y, z'
loop_
 _atom_site_type_symbol
 _atom_site_label
 _atom_site_symmetry_multiplicity
 _atom_site_fract_x
 _atom_site_fract_y
 _atom_site_fract_z
 _atom_site_occupancy
  Ac  Ac0  1  -0.00000000  0.00000000  -0.00000000  1
  Ag  Ag0  1  0.50000100  0.50000100  0.50000100  1
loop_
_geom_bond_atom_site_label_1
_geom_bond_atom_site_label_2
_geom_bond_distance
_geom_bond_site_symmetry_2
Ac0 Ag0 3.418933 1_444
Ac0 Ag0 3.418938 1_544
Ac0 Ag0 3.418938 1_445
Ac0 Ag0 3.418938 1_454
Ac0 Ag0 3.418942 1_554
Ac0 Ag0 3.418942 1_455
Ac0 Ag0 3.418942 1_545
Ac0 Ag0 3.418947 1_555
