# generated using pymatgen
data_LiAcTl2
_symmetry_space_group_name_H-M   'P 1'
_cell_length_a   5.49774728
_cell_length_b   5.49774728
_cell_length_c   5.49774728
_cell_angle_alpha   60.00000000
_cell_angle_beta   60.00000000
_cell_angle_gamma   60.00000000
_symmetry_Int_Tables_number   1
_chemical_formula_structural   LiAcTl2
_chemical_formula_sum   'Li1 Ac1 Tl2'
_cell_volume   117.50039275
_cell_formula_units_Z   1
loop_
 _symmetry_equiv_pos_site_id
 _symmetry_equiv_pos_as_xyz
  1  'x, y, z'
loop_
 _atom_site_type_symbol
 _atom_site_label
 _atom_site_symmetry_multiplicity
 _atom_site_fract_x
 _atom_site_fract_y
 _atom_site_fract_z
 _atom_site_occupancy
  Li  Li0  1  0.75000000  0.75000000  0.75000000  1
  Ac  Ac0  1  0.25000000  0.25000000  0.25000000  1
  Tl  Tl0  1  0.00000000  0.00000000  0.00000000  1
  Tl  Tl1  1  0.50000100  0.50000100  0.50000100  1
loop_
_geom_bond_atom_site_label_1
_geom_bond_atom_site_label_2
_geom_bond_distance
_geom_bond_site_symmetry_2
Li0 Tl1 3.366655 1_555
Li0 Tl0 3.366669 1_665
Li0 Tl0 3.366669 1_666
Li0 Tl0 3.366669 1_656
Li0 Tl0 3.366669 1_566
Li0 Tl1 3.366673 1_556
Li0 Tl1 3.366673 1_655
Li0 Tl1 3.366673 1_565
Ac0 Tl1 3.366664 1_455
Ac0 Tl1 3.366664 1_554
Ac0 Tl1 3.366664 1_545
Ac0 Tl0 3.366669 1_556
Ac0 Tl0 3.366669 1_555
Ac0 Tl0 3.366669 1_565
Ac0 Tl0 3.366669 1_655
Ac0 Tl1 3.366682 1_555
