# generated using pymatgen
data_NpAu3
_symmetry_space_group_name_H-M   'P 1'
_cell_length_a   4.91901411
_cell_length_b   4.91901411
_cell_length_c   4.91901411
_cell_angle_alpha   120.10962055
_cell_angle_beta   120.10962055
_cell_angle_gamma   89.81023626
_symmetry_Int_Tables_number   1
_chemical_formula_structural   NpAu3
_chemical_formula_sum   'Np1 Au3'
_cell_volume   84.02266295
_cell_formula_units_Z   1
loop_
 _symmetry_equiv_pos_site_id
 _symmetry_equiv_pos_as_xyz
  1  'x, y, z'
loop_
 _atom_site_type_symbol
 _atom_site_label
 _atom_site_symmetry_multiplicity
 _atom_site_fract_x
 _atom_site_fract_y
 _atom_site_fract_z
 _atom_site_occupancy
  Np  Np0  1  -0.00000000  0.00000000  0.00000000  1
  Au  Au0  1  0.74999800  0.24999900  0.49999800  1
  Au  Au1  1  0.24999900  0.74999800  0.49999800  1
  Au  Au2  1  0.49999900  0.49999900  0.00000000  1
loop_
_geom_bond_atom_site_label_1
_geom_bond_atom_site_label_2
_geom_bond_distance
_geom_bond_site_symmetry_2
Au0 Au2 3.010597 1_555
Au0 Np0 3.010597 1_555
Au0 Au2 3.010605 1_545
Au0 Np0 3.010605 1_655
Au0 Au2 3.010609 1_656
Au0 Np0 3.010609 1_656
Au0 Np0 3.010609 1_666
Au0 Au2 3.010609 1_556
Au1 Au2 3.010597 1_555
Au1 Np0 3.010597 1_555
Au1 Au2 3.010605 1_455
Au1 Np0 3.010605 1_565
Au1 Np0 3.010609 1_566
Au1 Au2 3.010609 1_566
Au1 Np0 3.010609 1_666
Au1 Au2 3.010609 1_556
Au2 Np0 3.472503 1_554
Au2 Np0 3.472503 1_565
Au2 Np0 3.472503 1_666
Au2 Np0 3.472503 1_655
Au2 Np0 3.484017 1_555
Au2 Np0 3.484030 1_665
