# generated using pymatgen
data_V4GeS8
_symmetry_space_group_name_H-M   'P 1'
_cell_length_a   6.85979879
_cell_length_b   6.85789470
_cell_length_c   6.84243055
_cell_angle_alpha   60.09273529
_cell_angle_beta   60.07155861
_cell_angle_gamma   59.84153345
_symmetry_Int_Tables_number   1
_chemical_formula_structural   V4GeS8
_chemical_formula_sum   'V4 Ge1 S8'
_cell_volume   227.62061329
_cell_formula_units_Z   1
loop_
 _symmetry_equiv_pos_site_id
 _symmetry_equiv_pos_as_xyz
  1  'x, y, z'
loop_
 _atom_site_type_symbol
 _atom_site_label
 _atom_site_symmetry_multiplicity
 _atom_site_fract_x
 _atom_site_fract_y
 _atom_site_fract_z
 _atom_site_occupancy
  V  V0  1  0.60672521  0.18982964  0.60102820  1
  V  V1  1  0.18973572  0.60675297  0.60248795  1
  V  V2  1  0.60249417  0.60102771  0.18971261  1
  V  V3  1  0.60102667  0.60241051  0.60671902  1
  Ge  Ge0  1  0.00001645  0.99997171  0.00002784  1
  S  S0  1  0.86419388  0.40549344  0.86525149  1
  S  S1  1  0.40553151  0.86420725  0.86502660  1
  S  S2  1  0.86501456  0.86526295  0.40552778  1
  S  S3  1  0.86521900  0.86506190  0.86420270  1
  S  S4  1  0.37716667  0.88645881  0.36705072  1
  S  S5  1  0.36707683  0.36933164  0.37716591  1
  S  S6  1  0.36937041  0.36702235  0.88643872  1
  S  S7  1  0.88643093  0.37716912  0.36936147  1
loop_
_geom_bond_atom_site_label_1
_geom_bond_atom_site_label_2
_geom_bond_distance
_geom_bond_site_symmetry_2
Ge0 S0 2.269146 1_464
Ge0 S2 2.269171 1_455
Ge0 S3 2.269215 1_454
Ge0 S1 2.269257 1_554
S0 V2 2.553968 1_556
S0 V3 2.562584 1_555
S0 V1 2.596260 1_655
S1 V3 2.554541 1_555
S1 V2 2.562264 1_556
S1 V0 2.596355 1_565
S2 V0 2.554333 1_565
S2 V1 2.562441 1_655
S2 V3 2.596490 1_555
S3 V1 2.554151 1_655
S3 V0 2.562433 1_565
S3 V2 2.596044 1_556
S4 V2 2.269390 1_555
S4 V3 2.272379 1_555
S4 V1 2.292951 1_555
S5 V1 2.269249 1_555
S5 V0 2.272263 1_555
S5 V2 2.292808 1_555
S6 V0 2.268723 1_555
S6 V1 2.272528 1_555
S6 V3 2.292603 1_555
S7 V3 2.268697 1_555
S7 V2 2.272514 1_555
S7 V0 2.292594 1_555
