# generated using pymatgen
data_GdAl3
_symmetry_space_group_name_H-M   'P 1'
_cell_length_a   6.32525056
_cell_length_b   6.32594426
_cell_length_c   4.58852631
_cell_angle_alpha   90.00000000
_cell_angle_beta   90.00000000
_cell_angle_gamma   119.99421454
_symmetry_Int_Tables_number   1
_chemical_formula_structural   GdAl3
_chemical_formula_sum   'Gd2 Al6'
_cell_volume   159.01286712
_cell_formula_units_Z   2
loop_
 _symmetry_equiv_pos_site_id
 _symmetry_equiv_pos_as_xyz
  1  'x, y, z'
loop_
 _atom_site_type_symbol
 _atom_site_label
 _atom_site_symmetry_multiplicity
 _atom_site_fract_x
 _atom_site_fract_y
 _atom_site_fract_z
 _atom_site_occupancy
  Gd  Gd0  1  0.66668858  0.33340840  0.25000000  1
  Gd  Gd1  1  0.33329972  0.66658552  0.75000000  1
  Al  Al0  1  0.85585305  0.14412231  0.75000000  1
  Al  Al1  1  0.28825644  0.14410852  0.75000000  1
  Al  Al2  1  0.85594614  0.71186807  0.75000000  1
  Al  Al3  1  0.14414994  0.85587629  0.25000000  1
  Al  Al4  1  0.71174486  0.85589331  0.25000000  1
  Al  Al5  1  0.14406127  0.28813358  0.25000000  1
loop_
_geom_bond_atom_site_label_1
_geom_bond_atom_site_label_2
_geom_bond_distance
_geom_bond_site_symmetry_2
Al0 Al2 2.734711 1_545
Al0 Al1 2.735103 1_655
Al0 Al5 2.785032 1_656
Al0 Al5 2.785032 1_655
Al0 Al4 2.785194 1_546
Al0 Al4 2.785194 1_545
Al0 Gd0 3.092176 1_555
Al0 Gd0 3.092176 1_556
Al0 Gd1 3.172420 1_655
Al0 Gd1 3.172926 1_545
Al1 Al2 2.734639 1_445
Al1 Al5 2.785040 1_555
Al1 Al5 2.785040 1_556
Al1 Al3 2.785204 1_546
Al1 Al3 2.785204 1_545
Al1 Gd0 3.092154 1_555
Al1 Gd0 3.092154 1_556
Al1 Gd1 3.172341 1_555
Al1 Gd1 3.172824 1_545
Al2 Al3 2.785018 1_655
Al2 Al3 2.785018 1_656
Al2 Al4 2.785059 1_556
Al2 Al4 2.785059 1_555
Al2 Gd0 3.092407 1_555
Al2 Gd0 3.092407 1_556
Al2 Gd1 3.172299 1_655
Al2 Gd1 3.172383 1_555
Al3 Al5 2.734716 1_565
Al3 Al4 2.735124 1_455
Al3 Gd1 3.092140 1_554
Al3 Gd1 3.092140 1_555
Al3 Gd0 3.172477 1_455
Al3 Gd0 3.172861 1_565
Al4 Al5 2.734658 1_665
Al4 Gd1 3.092202 1_554
Al4 Gd1 3.092202 1_555
Al4 Gd0 3.172356 1_555
Al4 Gd0 3.172820 1_565
Al5 Gd1 3.092379 1_554
Al5 Gd1 3.092379 1_555
Al5 Gd0 3.172283 1_555
Al5 Gd0 3.172392 1_455
