# generated using pymatgen
data_K2Mn(PSe3)2
_symmetry_space_group_name_H-M   'P 1'
_cell_length_a   12.88894500
_cell_length_b   6.56080900
_cell_length_c   8.98073983
_cell_angle_alpha   57.07410369
_cell_angle_beta   90.00000000
_cell_angle_gamma   90.00000000
_symmetry_Int_Tables_number   1
_chemical_formula_structural   K2Mn(PSe3)2
_chemical_formula_sum   'K4 Mn2 P4 Se12'
_cell_volume   637.44473162
_cell_formula_units_Z   2
loop_
 _symmetry_equiv_pos_site_id
 _symmetry_equiv_pos_as_xyz
  1  'x, y, z'
loop_
 _atom_site_type_symbol
 _atom_site_label
 _atom_site_symmetry_multiplicity
 _atom_site_fract_x
 _atom_site_fract_y
 _atom_site_fract_z
 _atom_site_occupancy
  K  K0  1  0.69401300  0.18537000  0.54102900  1
  K  K1  1  0.19401300  0.81463000  0.95897100  1
  K  K2  1  0.30598700  0.81463000  0.45897100  1
  K  K3  1  0.80598700  0.18537000  0.04102900  1
  Mn  Mn0  1  0.00000000  0.50000000  0.50000000  1
  Mn  Mn1  1  0.50000000  0.50000000  0.00000000  1
  P  P0  1  0.03323000  0.14819100  0.36694900  1
  P  P1  1  0.53323000  0.85180900  0.13305100  1
  P  P2  1  0.96677000  0.85180900  0.63305100  1
  P  P3  1  0.46677000  0.14819100  0.86694900  1
  Se  Se0  1  0.17140100  0.28806300  0.42956200  1
  Se  Se1  1  0.67140100  0.71193700  0.07043800  1
  Se  Se2  1  0.82859900  0.71193700  0.57043800  1
  Se  Se3  1  0.32859900  0.28806300  0.92956200  1
  Se  Se4  1  0.91557300  0.44034500  0.24629800  1
  Se  Se5  1  0.41557300  0.55965500  0.25370200  1
  Se  Se6  1  0.08442700  0.55965500  0.75370200  1
  Se  Se7  1  0.58442700  0.44034500  0.74629800  1
  Se  Se8  1  0.05698400  0.95341800  0.23232600  1
  Se  Se9  1  0.55698400  0.04658200  0.26767400  1
  Se  Se10  1  0.94301600  0.04658200  0.76767400  1
  Se  Se11  1  0.44301600  0.95341800  0.73232600  1
loop_
_geom_bond_atom_site_label_1
_geom_bond_atom_site_label_2
_geom_bond_distance
_geom_bond_site_symmetry_2
K0 Se7 3.397681 1_555
K0 Se2 3.440188 1_545
K0 Se9 3.522102 1_555
K0 Se11 3.590399 1_545
K0 Se4 3.625717 1_555
K0 Se10 3.641079 1_555
K0 Se1 3.742844 1_555
K1 Se6 3.397681 1_555
K1 Se3 3.440188 1_565
K1 Se8 3.522102 1_556
K1 Se10 3.590399 1_465
K1 Se5 3.625717 1_556
K1 Se11 3.641079 1_555
K1 Se0 3.742844 1_556
K2 Se5 3.397681 1_555
K2 Se0 3.440188 1_565
K2 Se11 3.522102 1_555
K2 Se9 3.590399 1_565
K2 Se6 3.625717 1_555
K2 Se8 3.641079 1_555
K2 Se3 3.742844 1_555
K3 Se4 3.397681 1_555
K3 Se1 3.440188 1_545
K3 Se10 3.522102 1_554
K3 Se8 3.590399 1_645
K3 Se7 3.625717 1_554
K3 Se9 3.641079 1_555
K3 Se2 3.742844 1_554
Mn0 Se8 2.719108 1_555
Mn0 Se10 2.719108 1_455
Mn0 Se6 2.738244 1_555
Mn0 Se4 2.738244 1_455
Mn0 Se0 2.858370 1_555
Mn0 Se2 2.858370 1_455
Mn1 Se11 2.719108 1_554
Mn1 Se9 2.719108 1_555
Mn1 Se7 2.738244 1_554
Mn1 Se5 2.738244 1_555
Mn1 Se3 2.858370 1_554
Mn1 Se1 2.858370 1_555
P0 Se8 2.206341 1_545
P0 Se4 2.211321 1_455
P0 Se0 2.211518 1_555
P1 Se9 2.206341 1_565
P1 Se5 2.211321 1_555
P1 Se1 2.211518 1_555
P2 Se10 2.206341 1_565
P2 Se6 2.211321 1_655
P2 Se2 2.211518 1_555
P3 Se11 2.206341 1_545
P3 Se7 2.211321 1_555
P3 Se3 2.211518 1_555
