# generated using pymatgen
data_TaTiOs2
_symmetry_space_group_name_H-M   'P 1'
_cell_length_a   4.42961325
_cell_length_b   4.42961325
_cell_length_c   4.42961325
_cell_angle_alpha   60.00000000
_cell_angle_beta   60.00000000
_cell_angle_gamma   60.00000000
_symmetry_Int_Tables_number   1
_chemical_formula_structural   TaTiOs2
_chemical_formula_sum   'Ta1 Ti1 Os2'
_cell_volume   61.45856733
_cell_formula_units_Z   1
loop_
 _symmetry_equiv_pos_site_id
 _symmetry_equiv_pos_as_xyz
  1  'x, y, z'
loop_
 _atom_site_type_symbol
 _atom_site_label
 _atom_site_symmetry_multiplicity
 _atom_site_fract_x
 _atom_site_fract_y
 _atom_site_fract_z
 _atom_site_occupancy
  Ta  Ta0  1  0.25000000  0.25000000  0.25000000  1
  Ti  Ti0  1  0.75000000  0.75000000  0.75000000  1
  Os  Os0  1  -0.00000000  -0.00000000  0.00000000  1
  Os  Os1  1  0.50000000  0.50000000  0.50000000  1
loop_
_geom_bond_atom_site_label_1
_geom_bond_atom_site_label_2
_geom_bond_distance
_geom_bond_site_symmetry_2
Os0 Ti0 2.712573 1_444
Os0 Ta0 2.712573 1_455
Os0 Ti0 2.712573 1_445
Os0 Ti0 2.712573 1_544
Os0 Ta0 2.712573 1_545
Os0 Ti0 2.712573 1_454
Os0 Ta0 2.712573 1_555
Os0 Ta0 2.712573 1_554
Os1 Ta0 2.712573 1_565
Os1 Ti0 2.712573 1_455
Os1 Ti0 2.712573 1_545
Os1 Ti0 2.712573 1_555
Os1 Ta0 2.712573 1_556
Os1 Ta0 2.712573 1_555
Os1 Ti0 2.712573 1_554
Os1 Ta0 2.712573 1_655
