# generated using pymatgen
data_Li5V3P8O29
_symmetry_space_group_name_H-M   'P 1'
_cell_length_a   9.75520300
_cell_length_b   9.79583159
_cell_length_c   14.01834074
_cell_angle_alpha   90.16505697
_cell_angle_beta   89.97884873
_cell_angle_gamma   119.85509536
_symmetry_Int_Tables_number   1
_chemical_formula_structural   Li5V3P8O29
_chemical_formula_sum   'Li10 V6 P16 O58'
_cell_volume   1161.80976576
_cell_formula_units_Z   2
loop_
 _symmetry_equiv_pos_site_id
 _symmetry_equiv_pos_as_xyz
  1  'x, y, z'
loop_
 _atom_site_type_symbol
 _atom_site_label
 _atom_site_symmetry_multiplicity
 _atom_site_fract_x
 _atom_site_fract_y
 _atom_site_fract_z
 _atom_site_occupancy
  Li  Li0  1  0.77271400  0.08676300  0.44212600  1
  Li  Li1  1  0.90450300  0.67673100  0.44275000  1
  Li  Li2  1  0.76441900  0.66253200  0.93726400  1
  Li  Li3  1  0.33272600  0.09478200  0.93888200  1
  Li  Li4  1  0.31873900  0.22617700  0.44068100  1
  Li  Li5  1  0.67010900  0.90656400  0.05824100  1
  Li  Li6  1  0.23616800  0.33727400  0.05827200  1
  Li  Li7  1  0.09162100  0.32286000  0.56265100  1
  Li  Li8  1  0.22591900  0.90331800  0.56017200  1
  Li  Li9  1  0.99725700  0.99785500  0.99532200  1
  V  V0  1  0.56833600  0.56936700  0.74513800  1
  V  V1  1  0.43361200  0.43453500  0.25324900  1
  V  V2  1  0.56718200  0.00015800  0.24971600  1
  V  V3  1  0.43430100  0.99912600  0.74933300  1
  V  V4  1  0.99541300  0.43194200  0.75823000  1
  V  V5  1  0.00356300  0.56865300  0.24279900  1
  P  P0  1  0.91683600  0.22365600  0.15894800  1
  P  P1  1  0.77244100  0.08932100  0.66021900  1
  P  P2  1  0.91247800  0.67945700  0.65633200  1
  P  P3  1  0.66348500  0.33557000  0.87234800  1
  P  P4  1  0.67102700  0.33470300  0.36952900  1
  P  P5  1  0.77091200  0.68554000  0.15691100  1
  P  P6  1  0.68498100  0.77155900  0.34126500  1
  P  P7  1  0.31513100  0.08944400  0.15675300  1
  P  P8  1  0.68686700  0.91149200  0.84313000  1
  P  P9  1  0.31996300  0.23064100  0.65775400  1
  P  P10  1  0.22960000  0.31545700  0.84071700  1
  P  P11  1  0.32712400  0.66282600  0.63181900  1
  P  P12  1  0.33505500  0.66507700  0.12740300  1
  P  P13  1  0.08545800  0.32045600  0.34501900  1
  P  P14  1  0.22884500  0.91039100  0.33920600  1
  P  P15  1  0.08436000  0.77816300  0.84082600  1
  O  O0  1  0.99776700  0.24833900  0.43569700  1
  O  O1  1  0.92029300  0.25795700  0.66574900  1
  O  O2  1  0.77718700  0.98633300  0.93335400  1
  O  O3  1  0.74567800  0.08319300  0.15848800  1
  O  O4  1  0.91671200  0.38226600  0.16904600  1
  O  O5  1  0.81142000  0.32881400  0.82612400  1
  O  O6  1  0.90582300  0.52135600  0.67885000  1
  O  O7  1  0.99189600  0.79011100  0.92238500  1
  O  O8  1  0.91679600  0.66103100  0.16493500  1
  O  O9  1  0.67462500  0.18584400  0.32949600  1
  O  O10  1  0.62051800  0.09967100  0.67996500  1
  O  O11  1  0.81702000  0.48347300  0.32244100  1
  O  O12  1  0.67335700  0.34039500  0.97861700  1
  O  O13  1  0.68120500  0.34248000  0.47576700  1
  O  O14  1  0.67693400  0.48991000  0.83144300  1
  O  O15  1  0.47157600  0.09033600  0.16983100  1
  O  O16  1  0.51044600  0.18955800  0.83335200  1
  O  O17  1  0.74670000  0.65827000  0.65896500  1
  O  O18  1  0.78844200  0.79846200  0.24475000  1
  O  O19  1  0.77130400  0.76126900  0.42525700  1
  O  O20  1  0.77954900  0.77303300  0.06633400  1
  O  O21  1  0.61894500  0.52931700  0.16979900  1
  O  O22  1  0.51466200  0.32732800  0.33300600  1
  O  O23  1  0.66190600  0.74255000  0.83615100  1
  O  O24  1  0.48115800  0.37709300  0.67615300  1
  O  O25  1  0.33478800  0.08071300  0.65672600  1
  O  O26  1  0.79371000  0.00066000  0.75058200  1
  O  O27  1  0.76588000  0.01114700  0.56837800  1
  O  O28  1  0.23946300  0.99818700  0.42963300  1
  O  O29  1  0.66173400  0.91688000  0.34171200  1
  O  O30  1  0.52288100  0.62011100  0.32324000  1
  O  O31  1  0.34030500  0.25913800  0.16611900  1
  O  O32  1  0.47767800  0.66945000  0.67460000  1
  O  O33  1  0.38448300  0.46917900  0.83068200  1
  O  O34  1  0.21980100  0.22217700  0.92929000  1
  O  O35  1  0.24114400  0.24361200  0.56845400  1
  O  O36  1  0.20728000  0.20679000  0.74848400  1
  O  O37  1  0.25075300  0.33529500  0.34399100  1
  O  O38  1  0.48892800  0.81094600  0.16629800  1
  O  O39  1  0.53067800  0.91153900  0.83169600  1
  O  O40  1  0.32311700  0.51112100  0.16789300  1
  O  O41  1  0.32442800  0.66085800  0.02138500  1
  O  O42  1  0.31484600  0.65187300  0.52566900  1
  O  O43  1  0.17948500  0.51361200  0.67800400  1
  O  O44  1  0.37875300  0.89890200  0.32124900  1
  O  O45  1  0.32315100  0.81341300  0.66945000  1
  O  O46  1  0.08579500  0.34260700  0.83738300  1
  O  O47  1  0.98974700  0.20356600  0.25815100  1
  O  O48  1  0.01085800  0.21409900  0.07772200  1
  O  O49  1  0.09643400  0.47962800  0.32171400  1
  O  O50  1  0.18793300  0.67165600  0.17525900  1
  O  O51  1  0.08382600  0.61949100  0.83197300  1
  O  O52  1  0.25617600  0.91775100  0.84060700  1
  O  O53  1  0.22820600  0.01770200  0.06568000  1
  O  O54  1  0.20613600  0.99842500  0.24858700  1
  O  O55  1  0.08016700  0.74368200  0.33836600  1
  O  O56  1  0.00137600  0.75197700  0.56575300  1
  O  O57  1  0.01057400  0.79769600  0.74240300  1
loop_
_geom_bond_atom_site_label_1
_geom_bond_atom_site_label_2
_geom_bond_distance
_geom_bond_site_symmetry_2
Li0 O27 1.908864 1_555
Li0 O0 1.968316 1_555
Li0 O29 2.028986 1_545
Li0 O9 2.298940 1_555
Li1 O19 1.872711 1_555
Li1 O56 1.926119 1_655
Li1 O55 2.095861 1_655
Li1 O11 2.351755 1_555
Li2 O7 1.941579 1_555
Li2 O20 2.072937 1_556
Li2 O14 2.082787 1_555
Li2 O23 2.100354 1_555
Li3 O53 2.002280 1_556
Li3 O34 2.039304 1_555
Li3 O52 2.039748 1_545
Li3 O16 2.111784 1_555
Li4 O28 1.971907 1_545
Li4 O35 1.984030 1_555
Li4 O37 2.033328 1_555
Li4 O22 2.243681 1_555
Li5 O2 1.990119 1_554
Li5 O3 2.056414 1_565
Li5 O20 2.062754 1_555
Li5 O38 2.157254 1_555
Li6 O48 1.929307 1_555
Li6 O34 2.091698 1_554
Li6 O40 2.128094 1_555
Li6 O31 2.164591 1_555
Li7 O35 1.965877 1_555
Li7 O0 1.966397 1_455
Li7 O1 2.057168 1_455
Li7 O43 2.286950 1_555
Li8 O56 1.941514 1_555
Li8 O28 2.029075 1_555
Li8 O25 2.032175 1_565
Li8 O45 2.205120 1_555
Li9 O7 2.252014 1_555
Li9 O2 2.266229 1_555
Li9 O48 2.354831 1_666
Li9 O53 2.377149 1_666
Li9 O34 2.378909 1_665
Li9 O20 2.388714 1_556
O0 P13 1.499793 1_655
O1 P1 1.562803 1_555
O1 V4 1.966462 1_555
O2 P8 1.505275 1_555
O3 P0 1.547174 1_555
O3 V2 1.980740 1_555
O4 P0 1.560346 1_555
O4 V5 1.889445 1_655
O5 P3 1.612779 1_555
O5 V4 1.829485 1_555
O6 P2 1.550846 1_555
O6 V4 1.880888 1_555
O7 P15 1.496019 1_655
O8 P5 1.560781 1_555
O8 V5 1.869683 1_655
O9 P4 1.577575 1_555
O9 V2 1.936218 1_555
O10 P1 1.559641 1_555
O10 V3 1.854325 1_545
O11 P4 1.589428 1_555
O11 V5 1.935545 1_655
O12 P3 1.491954 1_555
O13 P4 1.491825 1_555
O14 P3 1.561821 1_555
O14 V0 2.004800 1_555
O15 P7 1.532889 1_555
O15 V2 1.931580 1_555
O16 P3 1.563190 1_555
O16 V3 2.006802 1_545
O17 P2 1.524991 1_555
O17 V0 1.934183 1_555
O18 P5 1.604075 1_555
O18 P6 1.629383 1_555
O19 P6 1.480390 1_555
O20 P5 1.512678 1_555
O21 P5 1.521494 1_555
O21 V1 1.957728 1_555
O22 P4 1.576313 1_555
O22 V1 1.952485 1_555
O23 P8 1.550976 1_555
O23 V0 1.945676 1_555
O24 P9 1.532812 1_555
O24 V0 1.897709 1_555
O25 P9 1.545787 1_555
O25 V3 2.011419 1_545
O26 P1 1.608704 1_555
O26 P8 1.622216 1_545
O27 P1 1.481096 1_555
O28 P14 1.504132 1_555
O29 P6 1.548966 1_555
O29 V2 1.983811 1_565
O30 P6 1.558141 1_555
O30 V1 1.854699 1_555
O31 P7 1.559840 1_555
O31 V1 1.924608 1_555
O32 P11 1.557707 1_555
O32 V0 1.894881 1_555
O33 P10 1.518565 1_555
O33 V0 1.967401 1_555
O34 P10 1.518307 1_555
O35 P9 1.507759 1_555
O36 P10 1.616719 1_555
O36 P9 1.620369 1_555
O37 P13 1.545341 1_555
O37 V1 2.006024 1_555
O38 P12 1.566172 1_555
O38 V2 1.991251 1_565
O39 P8 1.532350 1_555
O39 V3 1.939792 1_555
O40 P12 1.562115 1_555
O40 V1 1.991904 1_555
O41 P12 1.488868 1_555
O42 P11 1.492166 1_555
O43 P11 1.593362 1_555
O43 V4 1.924229 1_455
O44 P14 1.542084 1_555
O44 V2 1.886094 1_565
O45 P11 1.583730 1_555
O45 V3 1.940228 1_555
O46 P10 1.553215 1_555
O46 V4 1.883857 1_455
O47 P13 1.610640 1_655
O47 P0 1.618713 1_555
O48 P0 1.493541 1_455
O49 P13 1.544688 1_555
O49 V5 1.896845 1_555
O50 P12 1.614048 1_555
O50 V5 1.829426 1_555
O51 P15 1.556336 1_555
O51 V4 1.897349 1_455
O52 P15 1.548306 1_555
O52 V3 1.979179 1_555
O53 P7 1.498399 1_555
O54 P14 1.613446 1_555
O54 P7 1.626204 1_565
O55 P14 1.553173 1_555
O55 V5 2.001191 1_555
O56 P2 1.503348 1_455
O57 P15 1.611752 1_555
O57 P2 1.613190 1_455
