# generated using pymatgen
data_SrAsPt
_symmetry_space_group_name_H-M   'P 1'
_cell_length_a   4.25751375
_cell_length_b   4.25751507
_cell_length_c   9.06349631
_cell_angle_alpha   90.00000000
_cell_angle_beta   90.00000000
_cell_angle_gamma   120.00000567
_symmetry_Int_Tables_number   1
_chemical_formula_structural   SrAsPt
_chemical_formula_sum   'Sr2 As2 Pt2'
_cell_volume   142.27828513
_cell_formula_units_Z   2
loop_
 _symmetry_equiv_pos_site_id
 _symmetry_equiv_pos_as_xyz
  1  'x, y, z'
loop_
 _atom_site_type_symbol
 _atom_site_label
 _atom_site_symmetry_multiplicity
 _atom_site_fract_x
 _atom_site_fract_y
 _atom_site_fract_z
 _atom_site_occupancy
  Sr  Sr0  1  -0.00000000  0.00000000  0.50000000  1
  Sr  Sr1  1  -0.00000000  0.00000000  0.00000000  1
  As  As0  1  0.33333300  0.66666700  0.75000000  1
  As  As1  1  0.66666700  0.33333300  0.25000000  1
  Pt  Pt0  1  0.33333300  0.66666700  0.25000000  1
  Pt  Pt1  1  0.66666700  0.33333300  0.75000000  1
loop_
_geom_bond_atom_site_label_1
_geom_bond_atom_site_label_2
_geom_bond_distance
_geom_bond_site_symmetry_2
As0 Pt1 2.458074 1_455
As0 Pt1 2.458075 1_565
As0 Pt1 2.458082 1_555
As0 Sr1 3.343100 1_566
As0 Sr0 3.343100 1_565
As0 Sr1 3.343102 1_666
As0 Sr0 3.343102 1_665
As0 Sr0 3.343103 1_555
As0 Sr1 3.343103 1_556
As1 Pt0 2.458074 1_655
As1 Pt0 2.458075 1_545
As1 Pt0 2.458082 1_555
As1 Sr1 3.343100 1_655
As1 Sr0 3.343100 1_655
As1 Sr1 3.343102 1_555
As1 Sr0 3.343102 1_555
As1 Sr0 3.343103 1_665
As1 Sr1 3.343103 1_665
Pt0 Sr0 3.343100 1_565
Pt0 Sr1 3.343100 1_565
Pt0 Sr1 3.343102 1_665
Pt0 Sr0 3.343102 1_665
Pt0 Sr0 3.343103 1_555
Pt0 Sr1 3.343103 1_555
Pt1 Sr1 3.343100 1_656
Pt1 Sr0 3.343100 1_655
Pt1 Sr1 3.343102 1_556
Pt1 Sr0 3.343102 1_555
Pt1 Sr0 3.343103 1_665
Pt1 Sr1 3.343103 1_666
