# generated using pymatgen
data_LiMnPO4
_symmetry_space_group_name_H-M   'P 1'
_cell_length_a   7.77550711
_cell_length_b   7.77550711
_cell_length_c   9.87430300
_cell_angle_alpha   90.00000000
_cell_angle_beta   90.00000000
_cell_angle_gamma   120.00000941
_symmetry_Int_Tables_number   1
_chemical_formula_structural   LiMnPO4
_chemical_formula_sum   'Li6 Mn6 P6 O24'
_cell_volume   517.00469311
_cell_formula_units_Z   6
loop_
 _symmetry_equiv_pos_site_id
 _symmetry_equiv_pos_as_xyz
  1  'x, y, z'
loop_
 _atom_site_type_symbol
 _atom_site_label
 _atom_site_symmetry_multiplicity
 _atom_site_fract_x
 _atom_site_fract_y
 _atom_site_fract_z
 _atom_site_occupancy
  Li  Li0  1  0.03414900  0.59162600  0.49063400  1
  Li  Li1  1  0.55747600  0.96585100  0.49063400  1
  Li  Li2  1  0.40837400  0.44252400  0.49063400  1
  Li  Li3  1  0.44252400  0.40837400  0.99063400  1
  Li  Li4  1  0.59162600  0.03414900  0.99063400  1
  Li  Li5  1  0.96585100  0.55747600  0.99063400  1
  Mn  Mn0  1  0.23241200  0.94716700  0.26778400  1
  Mn  Mn1  1  0.05283300  0.28524500  0.26778400  1
  Mn  Mn2  1  0.28524500  0.05283300  0.76778400  1
  Mn  Mn3  1  0.71475500  0.76758800  0.26778400  1
  Mn  Mn4  1  0.76758800  0.71475500  0.76778400  1
  Mn  Mn5  1  0.94716700  0.23241200  0.76778400  1
  P  P0  1  0.33333300  0.66666700  0.17638700  1
  P  P1  1  0.00000000  0.00000000  0.00241500  1
  P  P2  1  0.00000000  0.00000000  0.50241500  1
  P  P3  1  0.33333300  0.66666700  0.77421500  1
  P  P4  1  0.66666700  0.33333300  0.67638700  1
  P  P5  1  0.66666700  0.33333300  0.27421500  1
  O  O0  1  0.07910600  0.86466500  0.45088900  1
  O  O1  1  0.18607200  0.73295200  0.12491400  1
  O  O2  1  0.39164800  0.87640300  0.83182200  1
  O  O3  1  0.12359700  0.51524500  0.83182200  1
  O  O4  1  0.26704800  0.45312000  0.12491400  1
  O  O5  1  0.33333300  0.66666700  0.33401600  1
  O  O6  1  0.00000000  0.00000000  0.16411900  1
  O  O7  1  0.00000000  0.00000000  0.66411900  1
  O  O8  1  0.33333300  0.66666700  0.61775500  1
  O  O9  1  0.13533500  0.21444200  0.45088900  1
  O  O10  1  0.21444200  0.13533500  0.95088900  1
  O  O11  1  0.54688000  0.81392800  0.12491400  1
  O  O12  1  0.48475500  0.60835200  0.83182200  1
  O  O13  1  0.78555800  0.92089400  0.45088900  1
  O  O14  1  0.45312000  0.26704800  0.62491400  1
  O  O15  1  0.51524500  0.12359700  0.33182200  1
  O  O16  1  0.60835200  0.48475500  0.33182200  1
  O  O17  1  0.81392800  0.54688000  0.62491400  1
  O  O18  1  0.66666700  0.33333300  0.83401600  1
  O  O19  1  0.66666700  0.33333300  0.11775500  1
  O  O20  1  0.92089400  0.78555800  0.95088900  1
  O  O21  1  0.73295200  0.18607200  0.62491400  1
  O  O22  1  0.87640300  0.39164800  0.33182200  1
  O  O23  1  0.86466500  0.07910600  0.95088900  1
loop_
_geom_bond_atom_site_label_1
_geom_bond_atom_site_label_2
_geom_bond_distance
_geom_bond_site_symmetry_2
Li0 O0 2.010295 1_555
Li0 O17 2.053152 1_455
Li0 O22 2.115220 1_455
Li0 O8 2.443441 1_555
Li0 O5 2.605080 1_555
Li1 O13 2.010295 1_555
Li1 O21 2.053154 1_565
Li1 O15 2.115217 1_565
Li1 O8 2.443441 1_555
Li1 O5 2.605080 1_555
Li2 O9 2.010295 1_555
Li2 O14 2.053158 1_555
Li2 O16 2.115222 1_555
Li2 O8 2.443441 1_555
Li2 O5 2.605080 1_555
Li3 O10 2.010295 1_555
Li3 O4 2.053158 1_556
Li3 O12 2.115222 1_555
Li3 O19 2.443441 1_556
Li3 O18 2.605080 1_555
Li4 O23 2.010295 1_555
Li4 O11 2.053152 1_546
Li4 O2 2.115220 1_545
Li4 O19 2.443441 1_556
Li4 O18 2.605080 1_555
Li5 O20 2.010295 1_555
Li5 O1 2.053154 1_656
Li5 O3 2.115217 1_655
Li5 O19 2.443441 1_556
Li5 O18 2.605080 1_555
Mn0 O15 2.025147 1_565
Mn0 O1 2.072243 1_555
Mn0 O0 2.082489 1_555
Mn0 O6 2.285742 1_565
Mn1 O22 2.025148 1_455
Mn1 O4 2.072243 1_555
Mn1 O9 2.082486 1_555
Mn1 O6 2.285742 1_555
Mn2 O2 2.025148 1_545
Mn2 O14 2.072243 1_555
Mn2 O10 2.082486 1_555
Mn2 O7 2.285742 1_555
Mn3 O16 2.025147 1_555
Mn3 O11 2.072243 1_555
Mn3 O13 2.082489 1_555
Mn3 O6 2.285741 1_665
Mn4 O12 2.025147 1_555
Mn4 O17 2.072243 1_555
Mn4 O20 2.082489 1_555
Mn4 O7 2.285741 1_665
Mn5 O3 2.025147 1_655
Mn5 O21 2.072243 1_555
Mn5 O23 2.082489 1_555
Mn5 O7 2.285742 1_655
O0 P2 1.546540 1_565
O1 P0 1.557307 1_555
O2 P3 1.565002 1_555
O3 P3 1.565004 1_555
O4 P0 1.557313 1_555
O5 P0 1.556477 1_555
O6 P1 1.596714 1_555
O7 P2 1.596714 1_555
O8 P3 1.544933 1_555
O9 P2 1.546545 1_555
O10 P1 1.546545 1_556
O11 P0 1.557312 1_555
O12 P3 1.565009 1_555
O13 P2 1.546546 1_665
O14 P4 1.557313 1_555
O15 P5 1.565004 1_555
O16 P5 1.565009 1_555
O17 P4 1.557312 1_555
O18 P4 1.556477 1_555
O19 P5 1.544933 1_555
O20 P1 1.546546 1_666
O21 P4 1.557307 1_555
O22 P5 1.565002 1_555
O23 P1 1.546540 1_656
