# generated using pymatgen
data_FeO
_symmetry_space_group_name_H-M   'P 1'
_cell_length_a   5.30786258
_cell_length_b   5.30786258
_cell_length_c   10.60447000
_cell_angle_alpha   90.00000000
_cell_angle_beta   90.00000000
_cell_angle_gamma   120.00000721
_symmetry_Int_Tables_number   1
_chemical_formula_structural   FeO
_chemical_formula_sum   'Fe12 O12'
_cell_volume   258.73722070
_cell_formula_units_Z   12
loop_
 _symmetry_equiv_pos_site_id
 _symmetry_equiv_pos_as_xyz
  1  'x, y, z'
loop_
 _atom_site_type_symbol
 _atom_site_label
 _atom_site_symmetry_multiplicity
 _atom_site_fract_x
 _atom_site_fract_y
 _atom_site_fract_z
 _atom_site_occupancy
  Fe  Fe0  1  0.32723200  0.99311700  0.12481100  1
  Fe  Fe1  1  0.32723200  0.99311700  0.37518900  1
  Fe  Fe2  1  0.00688300  0.33411500  0.12481100  1
  Fe  Fe3  1  0.00688300  0.33411500  0.37518900  1
  Fe  Fe4  1  0.66588500  0.67276800  0.12481100  1
  Fe  Fe5  1  0.66588500  0.67276800  0.37518900  1
  Fe  Fe6  1  0.33411500  0.00688300  0.62481100  1
  Fe  Fe7  1  0.33411500  0.00688300  0.87518900  1
  Fe  Fe8  1  0.67276800  0.66588500  0.62481100  1
  Fe  Fe9  1  0.67276800  0.66588500  0.87518900  1
  Fe  Fe10  1  0.99311700  0.32723200  0.87518900  1
  Fe  Fe11  1  0.99311700  0.32723200  0.62481100  1
  O  O0  1  0.98876000  0.66494700  0.75000000  1
  O  O1  1  0.33333300  0.66666700  0.51447100  1
  O  O2  1  0.00000000  0.00000000  0.50000000  1
  O  O3  1  0.00000000  0.00000000  0.00000000  1
  O  O4  1  0.33333300  0.66666700  0.98552900  1
  O  O5  1  0.33505300  0.32381300  0.75000000  1
  O  O6  1  0.67618700  0.01124000  0.75000000  1
  O  O7  1  0.32381300  0.33505300  0.25000000  1
  O  O8  1  0.66666700  0.33333300  0.01447100  1
  O  O9  1  0.66666700  0.33333300  0.48552900  1
  O  O10  1  0.01124000  0.67618700  0.25000000  1
  O  O11  1  0.66494700  0.98876000  0.25000000  1
loop_
_geom_bond_atom_site_label_1
_geom_bond_atom_site_label_2
_geom_bond_distance
_geom_bond_site_symmetry_2
Fe0 O10 2.141014 1_555
Fe0 O8 2.150033 1_565
Fe0 O3 2.198503 1_565
Fe0 O11 2.240007 1_555
Fe0 O7 2.256043 1_565
Fe0 O4 2.289357 1_554
Fe1 O10 2.141014 1_555
Fe1 O9 2.150033 1_565
Fe1 O2 2.198503 1_565
Fe1 O11 2.240007 1_555
Fe1 O7 2.256043 1_565
Fe1 O1 2.289357 1_555
Fe2 O7 2.141014 1_555
Fe2 O8 2.150031 1_455
Fe2 O3 2.198503 1_555
Fe2 O10 2.240007 1_555
Fe2 O11 2.256043 1_445
Fe2 O4 2.289358 1_554
Fe3 O7 2.141014 1_555
Fe3 O9 2.150031 1_455
Fe3 O2 2.198503 1_555
Fe3 O10 2.240007 1_555
Fe3 O11 2.256043 1_445
Fe3 O1 2.289358 1_555
Fe4 O11 2.141014 1_555
Fe4 O8 2.150036 1_555
Fe4 O3 2.198503 1_665
Fe4 O7 2.240007 1_555
Fe4 O10 2.256043 1_655
Fe4 O4 2.289361 1_554
Fe5 O11 2.141014 1_555
Fe5 O9 2.150036 1_555
Fe5 O2 2.198503 1_665
Fe5 O7 2.240007 1_555
Fe5 O10 2.256043 1_655
Fe5 O1 2.289361 1_555
Fe6 O5 2.141014 1_555
Fe6 O1 2.150031 1_545
Fe6 O2 2.198503 1_555
Fe6 O6 2.240007 1_555
Fe6 O0 2.256043 1_445
Fe6 O9 2.289358 1_555
Fe7 O5 2.141014 1_555
Fe7 O4 2.150031 1_545
Fe7 O3 2.198503 1_556
Fe7 O6 2.240007 1_555
Fe7 O0 2.256043 1_445
Fe7 O8 2.289358 1_556
Fe8 O0 2.141014 1_555
Fe8 O1 2.150036 1_555
Fe8 O2 2.198503 1_665
Fe8 O5 2.240007 1_555
Fe8 O6 2.256043 1_565
Fe8 O9 2.289361 1_555
Fe9 O0 2.141014 1_555
Fe9 O4 2.150036 1_555
Fe9 O3 2.198503 1_666
Fe9 O5 2.240007 1_555
Fe9 O6 2.256043 1_565
Fe9 O8 2.289361 1_556
Fe10 O6 2.141014 1_555
Fe10 O4 2.150033 1_655
Fe10 O3 2.198503 1_656
Fe10 O0 2.240007 1_555
Fe10 O5 2.256043 1_655
Fe10 O8 2.289357 1_556
Fe11 O6 2.141014 1_555
Fe11 O1 2.150033 1_655
Fe11 O2 2.198503 1_655
Fe11 O0 2.240007 1_555
Fe11 O5 2.256043 1_655
Fe11 O9 2.289357 1_555
