# generated using pymatgen
data_Li6UO6
_symmetry_space_group_name_H-M   'P 1'
_cell_length_a   5.40065941
_cell_length_b   5.40066014
_cell_length_c   5.40066003
_cell_angle_alpha   101.17353400
_cell_angle_beta   101.17353458
_cell_angle_gamma   101.17353831
_symmetry_Int_Tables_number   1
_chemical_formula_structural   Li6UO6
_chemical_formula_sum   'Li6 U1 O6'
_cell_volume   147.16214972
_cell_formula_units_Z   1
loop_
 _symmetry_equiv_pos_site_id
 _symmetry_equiv_pos_as_xyz
  1  'x, y, z'
loop_
 _atom_site_type_symbol
 _atom_site_label
 _atom_site_symmetry_multiplicity
 _atom_site_fract_x
 _atom_site_fract_y
 _atom_site_fract_z
 _atom_site_occupancy
  Li  Li0  1  0.64372051  0.35400787  0.00308400  1
  Li  Li1  1  0.35627949  0.64599213  0.99691700  1
  Li  Li2  1  0.64599213  0.99691700  0.35627949  1
  Li  Li3  1  0.99691700  0.35627949  0.64599213  1
  Li  Li4  1  0.35400787  0.00308400  0.64372051  1
  Li  Li5  1  0.00308400  0.64372051  0.35400787  1
  U  U0  1  0.00000000  0.00000000  0.00000000  1
  O  O0  1  0.10351153  0.73132882  0.72886096  1
  O  O1  1  0.89648847  0.26867118  0.27113904  1
  O  O2  1  0.26867118  0.27113904  0.89648847  1
  O  O3  1  0.27113904  0.89648847  0.26867118  1
  O  O4  1  0.73132882  0.72886096  0.10351153  1
  O  O5  1  0.72886096  0.10351153  0.73132882  1
loop_
_geom_bond_atom_site_label_1
_geom_bond_atom_site_label_2
_geom_bond_distance
_geom_bond_site_symmetry_2
Li0 O4 1.928786 1_555
Li0 O2 1.931661 1_554
Li0 O1 1.976916 1_555
Li0 O5 1.982110 1_554
Li1 O2 1.928786 1_555
Li1 O4 1.931660 1_556
Li1 O0 1.976920 1_555
Li1 O3 1.982107 1_556
Li2 O3 1.928786 1_555
Li2 O5 1.931661 1_565
Li2 O4 1.976920 1_555
Li2 O1 1.982107 1_565
Li3 O1 1.928786 1_555
Li3 O0 1.931661 1_655
Li3 O5 1.976920 1_555
Li3 O2 1.982107 1_655
Li4 O5 1.928786 1_555
Li4 O3 1.931661 1_545
Li4 O2 1.976916 1_555
Li4 O0 1.982110 1_545
Li5 O0 1.928786 1_555
Li5 O1 1.931661 1_455
Li5 O3 1.976916 1_555
Li5 O4 1.982110 1_455
O0 U0 2.090537 1_566
O1 U0 2.090537 1_655
O2 U0 2.090537 1_556
O3 U0 2.090537 1_565
O4 U0 2.090537 1_665
O5 U0 2.090537 1_656
