# generated using pymatgen
data_YbGaPt
_symmetry_space_group_name_H-M   'P 1'
_cell_length_a   4.32133700
_cell_length_b   7.08072300
_cell_length_c   7.70945300
_cell_angle_alpha   90.00000000
_cell_angle_beta   90.00000000
_cell_angle_gamma   90.00000000
_symmetry_Int_Tables_number   1
_chemical_formula_structural   YbGaPt
_chemical_formula_sum   'Yb4 Ga4 Pt4'
_cell_volume   235.89530990
_cell_formula_units_Z   4
loop_
 _symmetry_equiv_pos_site_id
 _symmetry_equiv_pos_as_xyz
  1  'x, y, z'
loop_
 _atom_site_type_symbol
 _atom_site_label
 _atom_site_symmetry_multiplicity
 _atom_site_fract_x
 _atom_site_fract_y
 _atom_site_fract_z
 _atom_site_occupancy
  Yb  Yb0  1  0.25000000  0.98318600  0.31179200  1
  Yb  Yb1  1  0.25000000  0.48318600  0.18820800  1
  Yb  Yb2  1  0.75000000  0.01681400  0.68820800  1
  Yb  Yb3  1  0.75000000  0.51681400  0.81179200  1
  Ga  Ga0  1  0.25000000  0.33802600  0.57534500  1
  Ga  Ga1  1  0.25000000  0.83802600  0.92465500  1
  Ga  Ga2  1  0.75000000  0.66197400  0.42465500  1
  Ga  Ga3  1  0.75000000  0.16197400  0.07534500  1
  Pt  Pt0  1  0.25000000  0.21239600  0.89424300  1
  Pt  Pt1  1  0.25000000  0.71239600  0.60575700  1
  Pt  Pt2  1  0.75000000  0.78760400  0.10575700  1
  Pt  Pt3  1  0.75000000  0.28760400  0.39424300  1
loop_
_geom_bond_atom_site_label_1
_geom_bond_atom_site_label_2
_geom_bond_distance
_geom_bond_site_symmetry_2
Ga0 Pt3 2.597176 1_555
Ga0 Pt3 2.597176 1_455
Ga0 Pt0 2.614511 1_555
Ga0 Pt1 2.661159 1_555
Ga0 Yb3 3.097417 1_455
Ga0 Yb3 3.097417 1_555
Ga0 Yb1 3.156640 1_555
Ga0 Yb0 3.231283 1_545
Ga0 Yb2 3.255540 1_555
Ga0 Yb2 3.255540 1_455
Ga1 Pt2 2.597176 1_456
Ga1 Pt2 2.597176 1_556
Ga1 Pt1 2.614511 1_555
Ga1 Pt0 2.661159 1_565
Ga1 Yb2 3.097417 1_465
Ga1 Yb2 3.097417 1_565
Ga1 Yb0 3.156640 1_556
Ga1 Yb1 3.231283 1_556
Ga1 Yb3 3.255540 1_455
Ga1 Yb3 3.255540 1_555
Ga2 Pt1 2.597176 1_555
Ga2 Pt1 2.597176 1_655
Ga2 Pt2 2.614511 1_555
Ga2 Pt3 2.661159 1_555
Ga2 Yb1 3.097417 1_655
Ga2 Yb1 3.097417 1_555
Ga2 Yb3 3.156640 1_555
Ga2 Yb2 3.231283 1_565
Ga2 Yb0 3.255540 1_655
Ga2 Yb0 3.255540 1_555
Ga3 Pt0 2.597176 1_554
Ga3 Pt0 2.597176 1_654
Ga3 Pt3 2.614511 1_555
Ga3 Pt2 2.661159 1_545
Ga3 Yb0 3.097417 1_645
Ga3 Yb0 3.097417 1_545
Ga3 Yb2 3.156640 1_554
Ga3 Yb3 3.231283 1_554
Ga3 Yb1 3.255540 1_655
Ga3 Yb1 3.255540 1_555
Pt0 Yb1 2.968592 1_556
Pt0 Yb2 3.018178 1_455
Pt0 Yb2 3.018178 1_555
Pt0 Yb3 3.117486 1_455
Pt0 Yb3 3.117486 1_555
Pt1 Yb0 2.968592 1_555
Pt1 Yb3 3.018178 1_555
Pt1 Yb3 3.018178 1_455
Pt1 Yb2 3.117486 1_565
Pt1 Yb2 3.117486 1_465
Pt2 Yb3 2.968592 1_554
Pt2 Yb0 3.018178 1_555
Pt2 Yb0 3.018178 1_655
Pt2 Yb1 3.117486 1_655
Pt2 Yb1 3.117486 1_555
Pt3 Yb2 2.968592 1_555
Pt3 Yb1 3.018178 1_655
Pt3 Yb1 3.018178 1_555
Pt3 Yb0 3.117486 1_645
Pt3 Yb0 3.117486 1_545
