# generated using pymatgen
data_BaAsPt
_symmetry_space_group_name_H-M   'P 1'
_cell_length_a   6.78041633
_cell_length_b   6.78041633
_cell_length_c   6.78041633
_cell_angle_alpha   90.00000000
_cell_angle_beta   90.00000000
_cell_angle_gamma   90.00000000
_symmetry_Int_Tables_number   1
_chemical_formula_structural   BaAsPt
_chemical_formula_sum   'Ba4 As4 Pt4'
_cell_volume   311.72316960
_cell_formula_units_Z   4
loop_
 _symmetry_equiv_pos_site_id
 _symmetry_equiv_pos_as_xyz
  1  'x, y, z'
loop_
 _atom_site_type_symbol
 _atom_site_label
 _atom_site_symmetry_multiplicity
 _atom_site_fract_x
 _atom_site_fract_y
 _atom_site_fract_z
 _atom_site_occupancy
  Ba  Ba0  1  0.61215038  0.38784962  0.88784962  1
  Ba  Ba1  1  0.38784962  0.88784962  0.61215038  1
  Ba  Ba2  1  0.11215038  0.11215038  0.11215038  1
  Ba  Ba3  1  0.88784962  0.61215038  0.38784962  1
  As  As0  1  0.16957187  0.33042813  0.66957187  1
  As  As1  1  0.66957187  0.16957187  0.33042813  1
  As  As2  1  0.33042813  0.66957187  0.16957187  1
  As  As3  1  0.83042813  0.83042813  0.83042813  1
  Pt  Pt0  1  0.59663767  0.90336233  0.09663767  1
  Pt  Pt1  1  0.09663767  0.59663767  0.90336233  1
  Pt  Pt2  1  0.40336233  0.40336233  0.40336233  1
  Pt  Pt3  1  0.90336233  0.09663767  0.59663767  1
loop_
_geom_bond_atom_site_label_1
_geom_bond_atom_site_label_2
_geom_bond_distance
_geom_bond_site_symmetry_2
Ba0 Pt3 3.420001 1_555
Ba0 Pt0 3.578628 1_546
Ba0 Pt2 3.578628 1_555
Ba0 Pt1 3.578628 1_655
Ba1 Pt1 3.420001 1_555
Ba1 Pt0 3.578628 1_556
Ba1 Pt3 3.578628 1_465
Ba1 Pt2 3.578628 1_555
Ba2 Pt2 3.420001 1_555
Ba2 Pt1 3.578628 1_554
Ba2 Pt0 3.578628 1_545
Ba2 Pt3 3.578628 1_455
Ba3 Pt0 3.420001 1_555
Ba3 Pt3 3.578628 1_565
Ba3 Pt1 3.578628 1_654
Ba3 Pt2 3.578628 1_555
As0 Pt1 2.452645 1_555
As0 Pt3 2.452645 1_455
As0 Pt2 2.452645 1_555
As0 Ba3 3.308553 1_455
As0 Ba1 3.368565 1_545
As0 Ba0 3.368565 1_555
As0 Ba2 3.368565 1_556
As1 Pt0 2.452645 1_545
As1 Pt3 2.452645 1_555
As1 Pt2 2.452645 1_555
As1 Ba1 3.308553 1_545
As1 Ba2 3.368565 1_655
As1 Ba3 3.368565 1_555
As1 Ba0 3.368565 1_554
As2 Pt0 2.452645 1_555
As2 Pt2 2.452645 1_555
As2 Pt1 2.452645 1_554
As2 Ba0 3.308553 1_554
As2 Ba2 3.368565 1_565
As2 Ba1 3.368565 1_555
As2 Ba3 3.368565 1_455
As3 Pt1 2.452645 1_655
As3 Pt0 2.452645 1_556
As3 Pt3 2.452645 1_565
As3 Ba2 3.308553 1_666
As3 Ba1 3.368565 1_555
As3 Ba0 3.368565 1_555
As3 Ba3 3.368565 1_555
