# generated using pymatgen
data_CoPO4
_symmetry_space_group_name_H-M   'P 1'
_cell_length_a   10.38209747
_cell_length_b   10.38209747
_cell_length_c   24.72789300
_cell_angle_alpha   90.00000000
_cell_angle_beta   90.00000000
_cell_angle_gamma   119.99999662
_symmetry_Int_Tables_number   1
_chemical_formula_structural   CoPO4
_chemical_formula_sum   'Co24 P24 O96'
_cell_volume   2308.27720584
_cell_formula_units_Z   24
loop_
 _symmetry_equiv_pos_site_id
 _symmetry_equiv_pos_as_xyz
  1  'x, y, z'
loop_
 _atom_site_type_symbol
 _atom_site_label
 _atom_site_symmetry_multiplicity
 _atom_site_fract_x
 _atom_site_fract_y
 _atom_site_fract_z
 _atom_site_occupancy
  Co  Co0  1  0.30493000  0.11473900  0.15355200  1
  Co  Co1  1  0.14824500  0.31515500  0.31621800  1
  Co  Co2  1  0.31515500  0.16691000  0.48288400  1
  Co  Co3  1  0.19019100  0.30493000  0.98688500  1
  Co  Co4  1  0.16526000  0.36729600  0.62245800  1
  Co  Co5  1  0.36729600  0.20203500  0.78912500  1
  Co  Co6  1  0.11473900  0.80980900  0.32021800  1
  Co  Co7  1  0.79796500  0.16526000  0.45579100  1
  Co  Co8  1  0.83309000  0.14824500  0.14955100  1
  Co  Co9  1  0.65393600  0.33441900  0.34440900  1
  Co  Co10  1  0.31951700  0.65393600  0.17774200  1
  Co  Co11  1  0.33441900  0.68048300  0.51107600  1
  Co  Co12  1  0.66558100  0.31951700  0.01107600  1
  Co  Co13  1  0.68048300  0.34606400  0.67774200  1
  Co  Co14  1  0.34606400  0.66558100  0.84440900  1
  Co  Co15  1  0.16691000  0.85175500  0.64955100  1
  Co  Co16  1  0.20203500  0.83474000  0.95579100  1
  Co  Co17  1  0.88526100  0.19019100  0.82021800  1
  Co  Co18  1  0.63270400  0.79796500  0.28912500  1
  Co  Co19  1  0.83474000  0.63270400  0.12245800  1
  Co  Co20  1  0.80980900  0.69507000  0.48688500  1
  Co  Co21  1  0.68484500  0.83309000  0.98288400  1
  Co  Co22  1  0.85175500  0.68484500  0.81621800  1
  Co  Co23  1  0.69507000  0.88526100  0.65355200  1
  P  P0  1  0.32537300  0.11589500  0.02680700  1
  P  P1  1  0.30518800  0.14424600  0.35677400  1
  P  P2  1  0.16094300  0.30518800  0.19010700  1
  P  P3  1  0.13096800  0.34533300  0.49608800  1
  P  P4  1  0.20947800  0.32537300  0.86014100  1
  P  P5  1  0.34533300  0.21436500  0.66275500  1
  P  P6  1  0.11589500  0.79052200  0.19347400  1
  P  P7  1  0.78563500  0.13096800  0.32942200  1
  P  P8  1  0.64632300  0.31841100  0.14522000  1
  P  P9  1  0.32791200  0.64632300  0.97855400  1
  P  P10  1  0.14424600  0.83905700  0.52344000  1
  P  P11  1  0.31841100  0.67208800  0.31188700  1
  P  P12  1  0.68158900  0.32791200  0.81188700  1
  P  P13  1  0.85575400  0.16094300  0.02344000  1
  P  P14  1  0.67208800  0.35367700  0.47855400  1
  P  P15  1  0.35367700  0.68158900  0.64522000  1
  P  P16  1  0.21436500  0.86903200  0.82942200  1
  P  P17  1  0.88410500  0.20947800  0.69347400  1
  P  P18  1  0.65466700  0.78563500  0.16275500  1
  P  P19  1  0.79052200  0.67462700  0.36014100  1
  P  P20  1  0.86903200  0.65466700  0.99608800  1
  P  P21  1  0.83905700  0.69481200  0.69010700  1
  P  P22  1  0.69481200  0.85575400  0.85677400  1
  P  P23  1  0.67462700  0.88410500  0.52680700  1
  O  O0  1  0.18224600  0.01288400  0.32417000  1
  O  O1  1  0.20074200  0.99260900  0.99223000  1
  O  O2  1  0.22171300  0.04924200  0.66096200  1
  O  O3  1  0.99534600  0.26476000  0.19475500  1
  O  O4  1  0.16936200  0.18224600  0.15750300  1
  O  O5  1  0.00002900  0.30836900  0.45701600  1
  O  O6  1  0.17247100  0.22171300  0.49429500  1
  O  O7  1  0.32540900  0.05647300  0.08445700  1
  O  O8  1  0.20813300  0.20074200  0.82556400  1
  O  O9  1  0.04807800  0.29649200  0.86531500  1
  O  O10  1  0.31472100  0.09105500  0.41457500  1
  O  O11  1  0.08575500  0.36195900  0.55465800  1
  O  O12  1  0.22366600  0.31472100  0.24790900  1
  O  O13  1  0.26476000  0.26941400  0.36142200  1
  O  O14  1  0.26893600  0.32540900  0.91779000  1
  O  O15  1  0.29649200  0.24841400  0.03198200  1
  O  O16  1  0.47617100  0.16360900  0.99843200  1
  O  O17  1  0.30836900  0.30833900  0.62368300  1
  O  O18  1  0.45592300  0.20236800  0.32733500  1
  O  O19  1  0.19181900  0.51054900  0.32185000  1
  O  O20  1  0.36195900  0.27620400  0.72132500  1
  O  O21  1  0.49608400  0.23081800  0.64430400  1
  O  O22  1  0.69166100  0.00002900  0.29034900  1
  O  O23  1  0.22195000  0.49355800  0.00428900  1
  O  O24  1  0.73058600  0.99534600  0.02808900  1
  O  O25  1  0.25355500  0.45592300  0.16066800  1
  O  O26  1  0.23281900  0.53130000  0.67000300  1
  O  O27  1  0.26526600  0.49608400  0.47763700  1
  O  O28  1  0.05647300  0.73106400  0.25112400  1
  O  O29  1  0.49355800  0.27160800  0.17095600  1
  O  O30  1  0.72379600  0.08575500  0.38799200  1
  O  O31  1  0.75158600  0.04807800  0.69864900  1
  O  O32  1  0.31256200  0.47617100  0.83176600  1
  O  O33  1  0.16360900  0.68743800  0.16509900  1
  O  O34  1  0.68127000  0.19181900  0.15518300  1
  O  O35  1  0.99260900  0.79186700  0.15889700  1
  O  O36  1  0.09105500  0.77633400  0.58124200  1
  O  O37  1  0.51054900  0.31873000  0.48851600  1
  O  O38  1  0.53130000  0.29848100  0.83666900  1
  O  O39  1  0.70151900  0.23281900  0.50333600  1
  O  O40  1  0.01288400  0.83063800  0.49083600  1
  O  O41  1  0.29067800  0.64318200  0.91751700  1
  O  O42  1  0.64749600  0.29067800  0.75085000  1
  O  O43  1  0.04924200  0.82752900  0.82762900  1
  O  O44  1  0.20236800  0.74644500  0.49400100  1
  O  O45  1  0.23081800  0.73473400  0.81097000  1
  O  O46  1  0.72839200  0.22195000  0.83762300  1
  O  O47  1  0.64318200  0.35250400  0.08418400  1
  O  O48  1  0.35681800  0.64749600  0.58418400  1
  O  O49  1  0.27160800  0.77805000  0.33762300  1
  O  O50  1  0.76918200  0.26526600  0.31097000  1
  O  O51  1  0.79763200  0.25355500  0.99400100  1
  O  O52  1  0.95075800  0.17247100  0.32762900  1
  O  O53  1  0.35250400  0.70932200  0.25085000  1
  O  O54  1  0.70932200  0.35681800  0.41751700  1
  O  O55  1  0.98711600  0.16936200  0.99083600  1
  O  O56  1  0.29848100  0.76718100  0.00333600  1
  O  O57  1  0.46870000  0.70151900  0.33666900  1
  O  O58  1  0.48945100  0.68127000  0.98851600  1
  O  O59  1  0.90894500  0.22366600  0.08124200  1
  O  O60  1  0.00739100  0.20813300  0.65889700  1
  O  O61  1  0.31873000  0.80818100  0.65518300  1
  O  O62  1  0.83639100  0.31256200  0.66509900  1
  O  O63  1  0.68743800  0.52382900  0.33176600  1
  O  O64  1  0.24841400  0.95192200  0.19864900  1
  O  O65  1  0.27620400  0.91424500  0.88799200  1
  O  O66  1  0.50644200  0.72839200  0.67095600  1
  O  O67  1  0.94352700  0.26893600  0.75112400  1
  O  O68  1  0.73473400  0.50391600  0.97763700  1
  O  O69  1  0.76718100  0.46870000  0.17000300  1
  O  O70  1  0.74644500  0.54407700  0.66066800  1
  O  O71  1  0.26941400  0.00465400  0.52808900  1
  O  O72  1  0.77805000  0.50644200  0.50428900  1
  O  O73  1  0.30833900  0.99997100  0.79034900  1
  O  O74  1  0.50391600  0.76918200  0.14430400  1
  O  O75  1  0.63804100  0.72379600  0.22132500  1
  O  O76  1  0.80818100  0.48945100  0.82185000  1
  O  O77  1  0.54407700  0.79763200  0.82733500  1
  O  O78  1  0.69163100  0.69166100  0.12368300  1
  O  O79  1  0.52382900  0.83639100  0.49843200  1
  O  O80  1  0.70350800  0.75158600  0.53198200  1
  O  O81  1  0.73106400  0.67459100  0.41779000  1
  O  O82  1  0.73524000  0.73058600  0.86142200  1
  O  O83  1  0.77633400  0.68527900  0.74790900  1
  O  O84  1  0.91424500  0.63804100  0.05465800  1
  O  O85  1  0.68527900  0.90894500  0.91457500  1
  O  O86  1  0.95192200  0.70350800  0.36531500  1
  O  O87  1  0.79186700  0.79925800  0.32556400  1
  O  O88  1  0.67459100  0.94352700  0.58445700  1
  O  O89  1  0.82752900  0.77828700  0.99429500  1
  O  O90  1  0.99997100  0.69163100  0.95701600  1
  O  O91  1  0.83063800  0.81775400  0.65750300  1
  O  O92  1  0.00465400  0.73524000  0.69475500  1
  O  O93  1  0.77828700  0.95075800  0.16096200  1
  O  O94  1  0.79925800  0.00739100  0.49223000  1
  O  O95  1  0.81775400  0.98711600  0.82417000  1
loop_
_geom_bond_atom_site_label_1
_geom_bond_atom_site_label_2
_geom_bond_distance
_geom_bond_site_symmetry_2
Co0 O64 1.858333 1_545
Co0 O7 1.859833 1_555
Co0 O4 1.862313 1_555
Co0 O29 1.866378 1_555
Co1 O19 1.849743 1_555
Co1 O52 1.854891 1_455
Co1 O12 1.862758 1_555
Co1 O13 1.874234 1_555
Co2 O37 1.849743 1_555
Co2 O6 1.854891 1_555
Co2 O10 1.862758 1_555
Co2 O71 1.874249 1_555
Co3 O15 1.858333 1_556
Co3 O14 1.859833 1_555
Co3 O55 1.862313 1_455
Co3 O23 1.866378 1_556
Co4 O11 1.857280 1_555
Co4 O17 1.868832 1_555
Co4 O60 1.876291 1_555
Co4 O26 1.891859 1_555
Co5 O20 1.857285 1_555
Co5 O73 1.868812 1_545
Co5 O8 1.876295 1_555
Co5 O38 1.891845 1_555
Co6 O86 1.858333 1_455
Co6 O28 1.859810 1_555
Co6 O0 1.862314 1_565
Co6 O49 1.866383 1_555
Co7 O30 1.857260 1_555
Co7 O5 1.868817 1_655
Co7 O94 1.876286 1_555
Co7 O39 1.891866 1_555
Co8 O34 1.849743 1_555
Co8 O93 1.854891 1_545
Co8 O59 1.862758 1_555
Co8 O3 1.874234 1_555
Co9 O63 1.844385 1_555
Co9 O18 1.861628 1_555
Co9 O50 1.868103 1_555
Co9 O54 1.875946 1_555
Co10 O33 1.844385 1_555
Co10 O25 1.861628 1_555
Co10 O74 1.868092 1_555
Co10 O53 1.875946 1_555
Co11 O79 1.844389 1_555
Co11 O44 1.861634 1_555
Co11 O27 1.868103 1_555
Co11 O48 1.875946 1_555
Co12 O16 1.844389 1_554
Co12 O51 1.861634 1_554
Co12 O68 1.868103 1_554
Co12 O47 1.875946 1_555
Co13 O62 1.844385 1_555
Co13 O70 1.861628 1_555
Co13 O21 1.868092 1_555
Co13 O42 1.875946 1_555
Co14 O32 1.844385 1_555
Co14 O77 1.861628 1_555
Co14 O45 1.868103 1_555
Co14 O41 1.875946 1_555
Co15 O61 1.849743 1_555
Co15 O2 1.854891 1_565
Co15 O36 1.862758 1_555
Co15 O92 1.874234 1_555
Co16 O65 1.857260 1_555
Co16 O90 1.868817 1_455
Co16 O1 1.876286 1_555
Co16 O56 1.891866 1_556
Co17 O9 1.858333 1_655
Co17 O67 1.859810 1_555
Co17 O95 1.862314 1_545
Co17 O46 1.866383 1_555
Co18 O75 1.857285 1_555
Co18 O22 1.868812 1_565
Co18 O87 1.876295 1_555
Co18 O57 1.891845 1_555
Co19 O84 1.857280 1_555
Co19 O78 1.868832 1_555
Co19 O35 1.876291 1_555
Co19 O69 1.891859 1_555
Co20 O80 1.858333 1_555
Co20 O81 1.859833 1_555
Co20 O40 1.862313 1_655
Co20 O72 1.866378 1_555
Co21 O58 1.849743 1_555
Co21 O89 1.854891 1_555
Co21 O85 1.862758 1_555
Co21 O24 1.874249 1_556
Co22 O76 1.849743 1_555
Co22 O43 1.854891 1_655
Co22 O83 1.862758 1_555
Co22 O82 1.874234 1_555
Co23 O31 1.858333 1_565
Co23 O88 1.859833 1_555
Co23 O91 1.862313 1_555
Co23 O66 1.866378 1_555
O0 P1 1.548680 1_555
O1 P0 1.545134 1_566
O2 P5 1.545268 1_555
O3 P2 1.556781 1_655
O4 P2 1.548676 1_555
O5 P3 1.551479 1_555
O6 P3 1.545268 1_555
O7 P0 1.553402 1_555
O8 P4 1.545134 1_555
O9 P4 1.552967 1_555
O10 P1 1.553159 1_555
O11 P3 1.558452 1_555
O12 P2 1.553178 1_555
O13 P1 1.556771 1_555
O14 P4 1.553379 1_555
O15 P0 1.552969 1_555
O16 P0 1.553467 1_556
O17 P5 1.551471 1_555
O18 P1 1.548800 1_555
O19 P11 1.548080 1_555
O20 P5 1.558452 1_555
O21 P5 1.555498 1_555
O22 P7 1.551492 1_555
O23 P9 1.544628 1_554
O24 P13 1.556780 1_565
O25 P2 1.548798 1_555
O26 P15 1.557802 1_555
O27 P3 1.555498 1_555
O28 P6 1.553402 1_555
O29 P8 1.544638 1_555
O30 P7 1.558452 1_555
O31 P17 1.552969 1_555
O32 P4 1.553467 1_555
O33 P6 1.553467 1_555
O34 P8 1.548080 1_555
O35 P6 1.545133 1_655
O36 P10 1.553180 1_555
O37 P14 1.548076 1_555
O38 P12 1.557792 1_555
O39 P14 1.557792 1_555
O40 P10 1.548684 1_555
O41 P9 1.554325 1_555
O42 P12 1.554325 1_555
O43 P16 1.545268 1_555
O44 P10 1.548791 1_555
O45 P16 1.555505 1_555
O46 P12 1.544638 1_555
O47 P8 1.554301 1_555
O48 P15 1.554301 1_555
O49 P11 1.544638 1_555
O50 P7 1.555505 1_555
O51 P13 1.548791 1_556
O52 P7 1.545268 1_555
O53 P11 1.554325 1_555
O54 P14 1.554325 1_555
O55 P13 1.548684 1_556
O56 P9 1.557792 1_554
O57 P11 1.557792 1_555
O58 P9 1.548076 1_555
O59 P13 1.553180 1_555
O60 P17 1.545133 1_455
O61 P15 1.548080 1_555
O62 P17 1.553467 1_555
O63 P19 1.553467 1_555
O64 P6 1.552969 1_555
O65 P16 1.558452 1_555
O66 P15 1.544638 1_555
O67 P17 1.553402 1_555
O68 P20 1.555498 1_555
O69 P8 1.557802 1_555
O70 P21 1.548798 1_555
O71 P10 1.556780 1_545
O72 P14 1.544628 1_555
O73 P16 1.551492 1_555
O74 P18 1.555498 1_555
O75 P18 1.558452 1_555
O76 P12 1.548080 1_555
O77 P22 1.548800 1_555
O78 P18 1.551471 1_555
O79 P23 1.553467 1_555
O80 P23 1.552969 1_555
O81 P19 1.553379 1_555
O82 P22 1.556771 1_555
O83 P21 1.553178 1_555
O84 P20 1.558452 1_554
O85 P22 1.553159 1_555
O86 P19 1.552967 1_555
O87 P19 1.545134 1_555
O88 P23 1.553402 1_555
O89 P20 1.545268 1_555
O90 P20 1.551479 1_555
O91 P21 1.548676 1_555
O92 P21 1.556781 1_455
O93 P18 1.545268 1_555
O94 P23 1.545134 1_545
O95 P22 1.548680 1_555
