# generated using pymatgen
data_InH9(NCl)3
_symmetry_space_group_name_H-M   'P 1'
_cell_length_a   5.99813500
_cell_length_b   6.95178883
_cell_length_c   10.00562237
_cell_angle_alpha   86.24036701
_cell_angle_beta   86.70085990
_cell_angle_gamma   85.39740357
_symmetry_Int_Tables_number   1
_chemical_formula_structural   InH9(NCl)3
_chemical_formula_sum   'In2 H18 N6 Cl6'
_cell_volume   414.39793213
_cell_formula_units_Z   2
loop_
 _symmetry_equiv_pos_site_id
 _symmetry_equiv_pos_as_xyz
  1  'x, y, z'
loop_
 _atom_site_type_symbol
 _atom_site_label
 _atom_site_symmetry_multiplicity
 _atom_site_fract_x
 _atom_site_fract_y
 _atom_site_fract_z
 _atom_site_occupancy
  In  In0  1  0.00000000  0.50000000  0.00000000  1
  In  In1  1  0.50000000  0.00000000  0.50000000  1
  H  H0  1  0.09614900  0.12202200  0.10757500  1
  H  H1  1  0.08610400  0.53074100  0.72103700  1
  H  H2  1  0.09515000  0.85001100  0.45347300  1
  H  H3  1  0.30894100  0.17380900  0.00116600  1
  H  H4  1  0.29307500  0.25383000  0.15404200  1
  H  H5  1  0.26194700  0.82434000  0.31631600  1
  H  H6  1  0.27219000  0.36278300  0.78245900  1
  H  H7  1  0.29318500  0.67054500  0.44833800  1
  H  H8  1  0.31053900  0.59694600  0.79029100  1
  H  H9  1  0.68946100  0.40305400  0.20970900  1
  H  H10  1  0.70681500  0.32945500  0.55166200  1
  H  H11  1  0.72781000  0.63721700  0.21754100  1
  H  H12  1  0.73805300  0.17566000  0.68368400  1
  H  H13  1  0.70692500  0.74617000  0.84595800  1
  H  H14  1  0.69105900  0.82619100  0.99883400  1
  H  H15  1  0.90485000  0.14998900  0.54652700  1
  H  H16  1  0.91389600  0.46925900  0.27896300  1
  H  H17  1  0.90385100  0.87797800  0.89242500  1
  N  N0  1  0.20022500  0.22705500  0.07507700  1
  N  N1  1  0.19348100  0.49728400  0.79690500  1
  N  N2  1  0.25652700  0.81381000  0.41958300  1
  N  N3  1  0.74347300  0.18619000  0.58041700  1
  N  N4  1  0.80651900  0.50271600  0.20309500  1
  N  N5  1  0.79977500  0.77294500  0.92492300  1
  Cl  Cl0  1  0.26189200  0.30914000  0.41734800  1
  Cl  Cl1  1  0.28448200  0.71104000  0.08813800  1
  Cl  Cl2  1  0.27129700  0.99747400  0.72661100  1
  Cl  Cl3  1  0.72870300  0.00252600  0.27338900  1
  Cl  Cl4  1  0.71551800  0.28896000  0.91186200  1
  Cl  Cl5  1  0.73810800  0.69086000  0.58265200  1
loop_
_geom_bond_atom_site_label_1
_geom_bond_atom_site_label_2
_geom_bond_distance
_geom_bond_site_symmetry_2
In0 N0 2.271160 1_555
In0 N5 2.271160 1_454
In0 N1 2.281809 1_554
In0 N4 2.281809 1_455
In1 N3 2.242918 1_555
In1 N2 2.242918 1_545
H0 N0 1.023343 1_555
H1 N1 1.026758 1_555
H2 N2 1.024491 1_555
H3 N0 1.025083 1_555
H4 N0 1.027439 1_555
H5 N2 1.029864 1_555
H6 N1 1.028139 1_555
H7 N2 1.028395 1_555
H8 N1 1.021806 1_555
H9 N4 1.021806 1_555
H10 N3 1.028395 1_555
H11 N4 1.028139 1_555
H12 N3 1.029864 1_555
H13 N5 1.027439 1_555
H14 N5 1.025083 1_555
H15 N3 1.024491 1_555
H16 N4 1.026758 1_555
H17 N5 1.023343 1_555
Cl0 In1 2.598553 1_555
Cl1 In0 2.566401 1_555
Cl2 In1 2.581433 1_565
Cl3 In1 2.581433 1_555
Cl4 In0 2.566401 1_656
Cl5 In1 2.598553 1_565
