# generated using pymatgen
data_Mn7F16
_symmetry_space_group_name_H-M   'P 1'
_cell_length_a   6.42081010
_cell_length_b   9.40986559
_cell_length_c   6.42316569
_cell_angle_alpha   70.00609822
_cell_angle_beta   60.01908561
_cell_angle_gamma   70.04113748
_symmetry_Int_Tables_number   1
_chemical_formula_structural   Mn7F16
_chemical_formula_sum   'Mn7 F16'
_cell_volume   308.88611518
_cell_formula_units_Z   1
loop_
 _symmetry_equiv_pos_site_id
 _symmetry_equiv_pos_as_xyz
  1  'x, y, z'
loop_
 _atom_site_type_symbol
 _atom_site_label
 _atom_site_symmetry_multiplicity
 _atom_site_fract_x
 _atom_site_fract_y
 _atom_site_fract_z
 _atom_site_occupancy
  Mn  Mn0  1  0.88958625  0.33808272  0.52069164  1
  Mn  Mn1  1  0.47905651  0.66230632  0.74741866  1
  Mn  Mn2  1  0.74713119  0.66224181  0.11017521  1
  Mn  Mn3  1  0.25287167  0.33776059  0.88982230  1
  Mn  Mn4  1  0.52094132  0.33770192  0.25258115  1
  Mn  Mn5  1  0.11041619  0.66192125  0.47930135  1
  Mn  Mn6  1  0.00001488  -0.00002947  0.00002079  1
  F  F0  1  0.76255836  0.71185141  0.76227646  1
  F  F1  1  0.98377765  0.12118428  0.71702873  1
  F  F2  1  0.85436204  0.58796717  0.40208634  1
  F  F3  1  0.59759517  0.41213123  0.84497083  1
  F  F4  1  0.82208764  0.87870864  0.01638968  1
  F  F5  1  0.28275862  0.87872737  0.82246205  1
  F  F6  1  0.84494102  0.41206066  0.14561745  1
  F  F7  1  0.42483597  0.72473474  0.42479531  1
  F  F8  1  0.57517086  0.27526102  0.57520360  1
  F  F9  1  0.15506417  0.58793469  0.85438209  1
  F  F10  1  0.71719367  0.12129336  0.17756670  1
  F  F11  1  0.17790988  0.12129783  0.98360981  1
  F  F12  1  0.40241210  0.58786232  0.15502965  1
  F  F13  1  0.14564909  0.41202217  0.59791232  1
  F  F14  1  0.01621737  0.87883449  0.28293290  1
  F  F15  1  0.23744739  0.28814345  0.23772499  1
loop_
_geom_bond_atom_site_label_1
_geom_bond_atom_site_label_2
_geom_bond_distance
_geom_bond_site_symmetry_2
F0 Mn2 2.078031 1_556
F0 Mn5 2.079258 1_655
F0 Mn1 2.079281 1_555
F1 Mn6 1.818329 1_656
F1 Mn0 2.069109 1_555
F2 Mn2 2.131588 1_555
F2 Mn0 2.178225 1_555
F2 Mn5 2.294616 1_655
F2 Mn1 2.405113 1_555
F3 Mn0 2.129970 1_555
F3 Mn1 2.181393 1_555
F3 Mn4 2.298041 1_556
F3 Mn3 2.398794 1_555
F4 Mn6 1.818266 1_665
F4 Mn2 2.069778 1_555
F5 Mn6 1.817872 1_566
F5 Mn1 2.068818 1_555
F6 Mn4 2.127433 1_555
F6 Mn2 2.180692 1_555
F6 Mn3 2.298509 1_654
F6 Mn0 2.403738 1_555
F7 Mn1 2.123559 1_555
F7 Mn5 2.124697 1_555
F7 Mn2 2.124713 1_555
F8 Mn4 2.123573 1_555
F8 Mn0 2.124697 1_555
F8 Mn3 2.124735 1_555
F9 Mn1 2.127457 1_555
F9 Mn3 2.180631 1_555
F9 Mn2 2.298526 1_456
F9 Mn5 2.403780 1_555
F10 Mn6 1.818454 1_655
F10 Mn4 2.068622 1_555
F11 Mn6 1.818476 1_556
F11 Mn3 2.069754 1_555
F12 Mn5 2.129982 1_555
F12 Mn4 2.181266 1_555
F12 Mn1 2.298059 1_554
F12 Mn2 2.398806 1_555
F13 Mn3 2.131557 1_555
F13 Mn5 2.178348 1_555
F13 Mn0 2.294607 1_455
F13 Mn4 2.405025 1_555
F14 Mn6 1.817640 1_565
F14 Mn5 2.069300 1_555
F15 Mn3 2.078054 1_554
F15 Mn0 2.079261 1_455
F15 Mn4 2.079293 1_555
