# generated using pymatgen
data_Li3Ni(SbO3)4
_symmetry_space_group_name_H-M   'P 1'
_cell_length_a   7.64366393
_cell_length_b   7.65737692
_cell_length_c   7.65249143
_cell_angle_alpha   86.51143017
_cell_angle_beta   93.49993756
_cell_angle_gamma   93.59531011
_symmetry_Int_Tables_number   1
_chemical_formula_structural   Li3Ni(SbO3)4
_chemical_formula_sum   'Li6 Ni2 Sb8 O24'
_cell_volume   445.45665428
_cell_formula_units_Z   2
loop_
 _symmetry_equiv_pos_site_id
 _symmetry_equiv_pos_as_xyz
  1  'x, y, z'
loop_
 _atom_site_type_symbol
 _atom_site_label
 _atom_site_symmetry_multiplicity
 _atom_site_fract_x
 _atom_site_fract_y
 _atom_site_fract_z
 _atom_site_occupancy
  Li  Li0  1  0.71864100  0.78056600  0.78699500  1
  Li  Li1  1  0.21862700  0.28055700  0.78699100  1
  Li  Li2  1  0.71674200  0.28337000  0.78423900  1
  Li  Li3  1  0.21673000  0.78337200  0.78425800  1
  Li  Li4  1  0.22036700  0.27974800  0.27917400  1
  Li  Li5  1  0.72035300  0.77973800  0.27916600  1
  Ni  Ni0  1  0.20352000  0.79564800  0.29186700  1
  Ni  Ni1  1  0.70347700  0.29565600  0.29197300  1
  Sb  Sb0  1  0.00321500  0.99710600  0.99077600  1
  Sb  Sb1  1  0.50324100  0.49706900  0.99079900  1
  Sb  Sb2  1  0.00721800  0.49310200  0.49950300  1
  Sb  Sb3  1  0.50729200  0.99315600  0.49951500  1
  Sb  Sb4  1  0.00249400  0.00073700  0.50024100  1
  Sb  Sb5  1  0.50254800  0.50071000  0.50028200  1
  Sb  Sb6  1  0.50487800  0.99221600  0.99315500  1
  Sb  Sb7  1  0.00482100  0.49215100  0.99317700  1
  O  O0  1  0.95823400  0.74300200  0.41117200  1
  O  O1  1  0.45841100  0.24300300  0.41111000  1
  O  O2  1  0.94999600  0.91329000  0.74466400  1
  O  O3  1  0.45001300  0.41324800  0.74469900  1
  O  O4  1  0.75664500  0.91495900  0.04860100  1
  O  O5  1  0.25664200  0.41495300  0.04860700  1
  O  O6  1  0.75590100  0.05384300  0.40950200  1
  O  O7  1  0.25585200  0.55366500  0.40951600  1
  O  O8  1  0.45283100  0.74314900  0.91055400  1
  O  O9  1  0.95281600  0.24315100  0.91056100  1
  O  O10  1  0.58563200  0.05061900  0.74490800  1
  O  O11  1  0.08563900  0.55059400  0.74490000  1
  O  O12  1  0.44995500  0.90732000  0.24219800  1
  O  O13  1  0.94977400  0.40729000  0.24216100  1
  O  O14  1  0.58522700  0.24186800  0.05118100  1
  O  O15  1  0.08518700  0.74188200  0.05102800  1
  O  O16  1  0.25694200  0.90830100  0.54133200  1
  O  O17  1  0.75695000  0.40824800  0.54118100  1
  O  O18  1  0.25682900  0.04432000  0.91113600  1
  O  O19  1  0.75681000  0.54429600  0.91110900  1
  O  O20  1  0.09119700  0.04103600  0.24087900  1
  O  O21  1  0.59125900  0.54087400  0.24086900  1
  O  O22  1  0.09394300  0.24567900  0.54760900  1
  O  O23  1  0.59395300  0.74570500  0.54761700  1
loop_
_geom_bond_atom_site_label_1
_geom_bond_atom_site_label_2
_geom_bond_distance
_geom_bond_site_symmetry_2
Li0 O2 2.017311 1_555
Li0 O19 2.020813 1_555
Li0 O23 2.037076 1_555
Li0 O8 2.287523 1_555
Li0 O4 2.300741 1_556
Li0 O10 2.357160 1_565
Li1 O3 2.017348 1_555
Li1 O18 2.020731 1_555
Li1 O22 2.037111 1_555
Li1 O9 2.287565 1_455
Li1 O5 2.300824 1_556
Li1 O11 2.356976 1_555
Li2 O10 2.018866 1_555
Li2 O9 2.026306 1_555
Li2 O17 2.070006 1_555
Li2 O19 2.269681 1_555
Li2 O3 2.319406 1_555
Li2 O14 2.327252 1_556
Li3 O11 2.019016 1_555
Li3 O8 2.026409 1_555
Li3 O16 2.069279 1_555
Li3 O18 2.269874 1_565
Li3 O2 2.319607 1_455
Li3 O15 2.326170 1_556
Li4 O5 2.015770 1_555
Li4 O20 2.050724 1_555
Li4 O1 2.052940 1_555
Li4 O22 2.316707 1_555
Li4 O13 2.336697 1_455
Li4 O7 2.370259 1_555
Li5 O4 2.015833 1_555
Li5 O21 2.051497 1_555
Li5 O0 2.052082 1_555
Li5 O23 2.316723 1_555
Li5 O12 2.335478 1_555
Li5 O6 2.371554 1_565
Ni0 O15 2.055831 1_555
Ni0 O7 2.061546 1_555
Ni0 O12 2.066333 1_555
Ni0 O20 2.119509 1_565
Ni0 O0 2.140244 1_455
Ni0 O16 2.148561 1_555
Ni1 O14 2.055316 1_555
Ni1 O6 2.060212 1_555
Ni1 O13 2.065522 1_555
Ni1 O21 2.118070 1_555
Ni1 O1 2.138151 1_555
Ni1 O17 2.146624 1_555
O0 Sb2 2.039712 1_655
O0 Sb4 2.127402 1_665
O1 Sb3 2.039309 1_545
O1 Sb5 2.127415 1_555
O2 Sb4 2.003369 1_665
O2 Sb0 2.036001 1_655
O3 Sb5 2.003424 1_555
O3 Sb1 2.035938 1_555
O4 Sb0 2.015649 1_654
O4 Sb6 2.060570 1_554
O5 Sb1 2.015765 1_554
O5 Sb7 2.060791 1_554
O6 Sb4 2.025400 1_655
O6 Sb3 2.076443 1_545
O7 Sb5 2.025908 1_555
O7 Sb2 2.076406 1_555
O8 Sb1 1.999399 1_555
O8 Sb6 2.053311 1_555
O9 Sb0 1.999074 1_645
O9 Sb7 2.052834 1_655
O10 Sb3 2.002196 1_545
O10 Sb6 2.048183 1_545
O11 Sb2 2.002423 1_555
O11 Sb7 2.048609 1_555
O12 Sb6 2.035584 1_554
O12 Sb3 2.125447 1_555
O13 Sb7 2.035328 1_654
O13 Sb2 2.125667 1_655
O14 Sb6 2.037559 1_544
O14 Sb1 2.105554 1_554
O15 Sb7 2.037810 1_554
O15 Sb0 2.105538 1_554
O16 Sb3 2.019888 1_555
O16 Sb4 2.110326 1_565
O17 Sb2 2.019090 1_655
O17 Sb5 2.109969 1_555
O18 Sb6 2.016695 1_545
O18 Sb0 2.071135 1_545
O19 Sb7 2.016590 1_655
O19 Sb1 2.070951 1_555
O20 Sb0 2.030100 1_544
O20 Sb4 2.134889 1_555
O21 Sb1 2.029743 1_554
O21 Sb5 2.135208 1_555
O22 Sb4 2.006315 1_555
O22 Sb2 2.051181 1_555
O23 Sb5 2.006542 1_555
O23 Sb3 2.051197 1_555
