# generated using pymatgen
data_Cu2(SO4)3
_symmetry_space_group_name_H-M   'P 1'
_cell_length_a   8.41060703
_cell_length_b   8.49059382
_cell_length_c   24.01084667
_cell_angle_alpha   90.00549977
_cell_angle_beta   90.00129626
_cell_angle_gamma   90.00589784
_symmetry_Int_Tables_number   1
_chemical_formula_structural   Cu2(SO4)3
_chemical_formula_sum   'Cu16 S24 O96'
_cell_volume   1714.63970885
_cell_formula_units_Z   8
loop_
 _symmetry_equiv_pos_site_id
 _symmetry_equiv_pos_as_xyz
  1  'x, y, z'
loop_
 _atom_site_type_symbol
 _atom_site_label
 _atom_site_symmetry_multiplicity
 _atom_site_fract_x
 _atom_site_fract_y
 _atom_site_fract_z
 _atom_site_occupancy
  Cu  Cu0  1  0.00296721  0.40015531  0.06364156  1
  Cu  Cu1  1  0.00286934  0.09986392  0.56364456  1
  Cu  Cu2  1  0.99355975  0.79959676  0.17998731  1
  Cu  Cu3  1  0.99330202  0.69996573  0.67979770  1
  Cu  Cu4  1  0.50640281  0.29954098  0.17997938  1
  Cu  Cu5  1  0.50631179  0.20022442  0.67983006  1
  Cu  Cu6  1  0.49721968  0.59988088  0.56365353  1
  Cu  Cu7  1  0.49710512  0.90025126  0.06358973  1
  Cu  Cu8  1  0.50287820  0.40026406  0.43642678  1
  Cu  Cu9  1  0.50281137  0.09964522  0.93643015  1
  Cu  Cu10  1  0.49360825  0.70031132  0.81998623  1
  Cu  Cu11  1  0.49354642  0.79958610  0.31999653  1
  Cu  Cu12  1  0.00644010  0.29956160  0.31999548  1
  Cu  Cu13  1  0.00643025  0.20025347  0.82001621  1
  Cu  Cu14  1  0.99718101  0.90033750  0.43642374  1
  Cu  Cu15  1  0.99721424  0.59962995  0.93644223  1
  S  S0  1  0.14281771  0.94746991  0.29877433  1
  S  S1  1  0.14289819  0.55265067  0.79873808  1
  S  S2  1  0.14748756  0.25852747  0.44591180  1
  S  S3  1  0.14745478  0.24154647  0.94589691  1
  S  S4  1  0.19818618  0.08936701  0.11678965  1
  S  S5  1  0.19791795  0.41064918  0.61675432  1
  S  S6  1  0.30169773  0.58924972  0.11679855  1
  S  S7  1  0.30182818  0.91070068  0.61674725  1
  S  S8  1  0.35257962  0.74156647  0.94590288  1
  S  S9  1  0.35257872  0.75844423  0.44589643  1
  S  S10  1  0.35720755  0.44745925  0.29879517  1
  S  S11  1  0.35714320  0.05255188  0.79875716  1
  S  S12  1  0.64279624  0.55278029  0.70127283  1
  S  S13  1  0.64280320  0.94754048  0.20124310  1
  S  S14  1  0.64743479  0.25849980  0.05411271  1
  S  S15  1  0.64738920  0.24139813  0.55405249  1
  S  S16  1  0.69801528  0.08928782  0.38327859  1
  S  S17  1  0.69814595  0.41070365  0.88326369  1
  S  S18  1  0.80190806  0.58923300  0.38327958  1
  S  S19  1  0.80184345  0.91073695  0.88326280  1
  S  S20  1  0.85265662  0.75838271  0.05410031  1
  S  S21  1  0.85269721  0.74136862  0.55409091  1
  S  S22  1  0.85718582  0.44754607  0.20124271  1
  S  S23  1  0.85714192  0.05254853  0.70129408  1
  O  O0  1  0.05638371  0.39193369  0.46424732  1
  O  O1  1  0.05627507  0.10800170  0.96423377  1
  O  O2  1  0.08516135  0.10493347  0.27949445  1
  O  O3  1  0.08515221  0.39523300  0.77948363  1
  O  O4  1  0.08423817  0.10515314  0.47235137  1
  O  O5  1  0.08418659  0.39489593  0.97238532  1
  O  O6  1  0.08526302  0.90788879  0.35475090  1
  O  O7  1  0.08511409  0.59222624  0.85470627  1
  O  O8  1  0.09132172  0.18584492  0.08098936  1
  O  O9  1  0.09158448  0.31429657  0.58097908  1
  O  O10  1  0.08752971  0.82480817  0.25936066  1
  O  O11  1  0.08732944  0.67540141  0.75931483  1
  O  O12  1  0.09716324  0.00101791  0.15679549  1
  O  O13  1  0.09749957  0.49890630  0.65692976  1
  O  O14  1  0.14220895  0.23061450  0.38432471  1
  O  O15  1  0.14214135  0.26941103  0.88433634  1
  O  O16  1  0.17887462  0.45713264  0.29683743  1
  O  O17  1  0.17895284  0.04289759  0.79683164  1
  O  O18  1  0.19049667  0.68479714  0.14944201  1
  O  O19  1  0.19078620  0.81525267  0.64967094  1
  O  O20  1  0.18147350  0.73236880  0.96315698  1
  O  O21  1  0.18157412  0.76757258  0.46317978  1
  O  O22  1  0.21921307  0.01914453  0.57683255  1
  O  O23  1  0.21918260  0.48068965  0.07679159  1
  O  O24  1  0.28072240  0.51918771  0.57681444  1
  O  O25  1  0.28070036  0.98073301  0.07683186  1
  O  O26  1  0.31847996  0.23238625  0.96317414  1
  O  O27  1  0.31852659  0.26764883  0.46318228  1
  O  O28  1  0.30943183  0.18488289  0.14943865  1
  O  O29  1  0.30925400  0.31527001  0.64963107  1
  O  O30  1  0.32115275  0.95714566  0.29682351  1
  O  O31  1  0.32102613  0.54278483  0.79684127  1
  O  O32  1  0.35780287  0.73062415  0.38430377  1
  O  O33  1  0.35784878  0.76939716  0.88433163  1
  O  O34  1  0.40251414  0.99900326  0.65691115  1
  O  O35  1  0.40277029  0.50093108  0.15680434  1
  O  O36  1  0.41247338  0.32481271  0.25937859  1
  O  O37  1  0.41254559  0.17527828  0.75933114  1
  O  O38  1  0.40858168  0.68576774  0.08102234  1
  O  O39  1  0.40843557  0.81428250  0.58100655  1
  O  O40  1  0.41474895  0.09211169  0.85473408  1
  O  O41  1  0.41468569  0.40790254  0.35477010  1
  O  O42  1  0.41585355  0.89486935  0.97237694  1
  O  O43  1  0.41583316  0.60505063  0.47232015  1
  O  O44  1  0.41484311  0.60494395  0.27951131  1
  O  O45  1  0.41473808  0.89522303  0.77953466  1
  O  O46  1  0.44369997  0.60802512  0.96423590  1
  O  O47  1  0.44367726  0.89186048  0.46424529  1
  O  O48  1  0.55630194  0.39202310  0.03576436  1
  O  O49  1  0.55625085  0.10797791  0.53578630  1
  O  O50  1  0.58524208  0.10492972  0.22047517  1
  O  O51  1  0.58558431  0.39503150  0.72044378  1
  O  O52  1  0.58430414  0.10509917  0.02763081  1
  O  O53  1  0.58420515  0.39492771  0.52758656  1
  O  O54  1  0.58517645  0.59213882  0.64526980  1
  O  O55  1  0.58519824  0.90787247  0.14520379  1
  O  O56  1  0.59143580  0.18560730  0.41885859  1
  O  O57  1  0.59137850  0.31426374  0.91886209  1
  O  O58  1  0.58748135  0.82476881  0.24068862  1
  O  O59  1  0.58747942  0.67518053  0.74066851  1
  O  O60  1  0.59716798  0.00115969  0.34323974  1
  O  O61  1  0.59719300  0.49893276  0.84323544  1
  O  O62  1  0.64223039  0.23062490  0.11567035  1
  O  O63  1  0.64219729  0.26944769  0.61564647  1
  O  O64  1  0.67881560  0.45713893  0.20316812  1
  O  O65  1  0.67870359  0.04300329  0.70320008  1
  O  O66  1  0.69054242  0.68481329  0.35058140  1
  O  O67  1  0.69054636  0.81518796  0.85057635  1
  O  O68  1  0.68137218  0.76757197  0.03681377  1
  O  O69  1  0.68143915  0.73251842  0.53685688  1
  O  O70  1  0.71933121  0.48066651  0.42308087  1
  O  O71  1  0.71932315  0.01932388  0.92308949  1
  O  O72  1  0.78059749  0.98075777  0.42308457  1
  O  O73  1  0.78071569  0.51938317  0.92308315  1
  O  O74  1  0.81872981  0.26764809  0.03681267  1
  O  O75  1  0.81859167  0.23247772  0.53682966  1
  O  O76  1  0.80941426  0.18483887  0.35058453  1
  O  O77  1  0.80941977  0.31518818  0.85056757  1
  O  O78  1  0.82133011  0.54293012  0.70320422  1
  O  O79  1  0.82117079  0.95713025  0.20316858  1
  O  O80  1  0.85781419  0.73054933  0.11565764  1
  O  O81  1  0.85796610  0.76944637  0.61575348  1
  O  O82  1  0.90275666  0.50110079  0.34324612  1
  O  O83  1  0.90279688  0.99893744  0.84320367  1
  O  O84  1  0.91252502  0.32475026  0.24067754  1
  O  O85  1  0.91241995  0.17518784  0.74064921  1
  O  O86  1  0.90847662  0.68559714  0.41885337  1
  O  O87  1  0.90863039  0.81427336  0.91888776  1
  O  O88  1  0.91478490  0.40781432  0.14520711  1
  O  O89  1  0.91470130  0.09203497  0.64526821  1
  O  O90  1  0.91595328  0.60495816  0.02762261  1
  O  O91  1  0.91589973  0.89506531  0.52765517  1
  O  O92  1  0.91480488  0.60492231  0.22047121  1
  O  O93  1  0.91483860  0.89499722  0.72047074  1
  O  O94  1  0.94388665  0.60805689  0.53581182  1
  O  O95  1  0.94375969  0.89192133  0.03575528  1
loop_
_geom_bond_atom_site_label_1
_geom_bond_atom_site_label_2
_geom_bond_distance
_geom_bond_site_symmetry_2
Cu0 O23 1.968218 1_555
Cu0 O8 2.009268 1_555
Cu0 O74 2.020223 1_455
Cu0 O90 2.075532 1_455
Cu0 O88 2.095210 1_455
Cu0 O5 2.295599 1_554
Cu1 O22 1.970059 1_555
Cu1 O9 2.011054 1_555
Cu1 O75 2.021126 1_455
Cu1 O91 2.074810 1_445
Cu1 O89 2.096524 1_455
Cu1 O4 2.296830 1_555
Cu2 O12 1.998500 1_665
Cu2 O80 2.008135 1_555
Cu2 O92 2.028750 1_555
Cu2 O79 2.049718 1_555
Cu2 O18 2.057122 1_655
Cu2 O10 2.074232 1_655
Cu3 O13 1.995968 1_655
Cu3 O81 2.002143 1_555
Cu3 O93 2.032559 1_555
Cu3 O78 2.045834 1_555
Cu3 O19 2.059143 1_655
Cu3 O11 2.077084 1_655
Cu4 O35 1.998411 1_555
Cu4 O62 2.007929 1_555
Cu4 O50 2.028778 1_555
Cu4 O64 2.050053 1_555
Cu4 O28 2.056556 1_555
Cu4 O36 2.074775 1_555
Cu5 O34 1.995841 1_545
Cu5 O63 2.006672 1_555
Cu5 O51 2.032419 1_555
Cu5 O65 2.049294 1_555
Cu5 O29 2.056023 1_555
Cu5 O37 2.076239 1_555
Cu6 O24 1.970953 1_555
Cu6 O39 2.011269 1_555
Cu6 O69 2.020568 1_555
Cu6 O53 2.076873 1_555
Cu6 O54 2.095681 1_555
Cu6 O43 2.297749 1_555
Cu7 O25 1.970034 1_555
Cu7 O38 2.011416 1_555
Cu7 O68 2.021024 1_555
Cu7 O52 2.075690 1_565
Cu7 O55 2.095988 1_555
Cu7 O42 2.294672 1_554
Cu8 O70 1.970471 1_555
Cu8 O56 2.013600 1_555
Cu8 O27 2.021001 1_555
Cu8 O43 2.074129 1_555
Cu8 O41 2.097261 1_555
Cu8 O53 2.293649 1_555
Cu9 O71 1.970777 1_555
Cu9 O57 2.013269 1_555
Cu9 O26 2.021487 1_555
Cu9 O42 2.074340 1_545
Cu9 O40 2.097715 1_555
Cu9 O52 2.295011 1_556
Cu10 O61 1.998649 1_555
Cu10 O33 2.008696 1_555
Cu10 O45 2.030433 1_555
Cu10 O31 2.050380 1_555
Cu10 O67 2.057636 1_555
Cu10 O59 2.072668 1_555
Cu11 O60 1.999915 1_565
Cu11 O32 2.007626 1_555
Cu11 O44 2.028233 1_555
Cu11 O30 2.049889 1_555
Cu11 O66 2.057793 1_555
Cu11 O58 2.072722 1_555
Cu12 O82 2.000106 1_455
Cu12 O14 2.008145 1_555
Cu12 O2 2.028493 1_555
Cu12 O16 2.049921 1_555
Cu12 O76 2.057695 1_455
Cu12 O84 2.072869 1_455
Cu13 O83 1.997817 1_445
Cu13 O15 2.008067 1_555
Cu13 O3 2.031330 1_555
Cu13 O17 2.049551 1_555
Cu13 O77 2.058216 1_455
Cu13 O85 2.074094 1_455
Cu14 O72 1.971627 1_555
Cu14 O86 2.014564 1_555
Cu14 O21 2.022137 1_655
Cu14 O4 2.074574 1_665
Cu14 O6 2.097299 1_655
Cu14 O91 2.295193 1_555
Cu15 O73 1.970384 1_555
Cu15 O87 2.013576 1_555
Cu15 O20 2.020588 1_655
Cu15 O5 2.074161 1_655
Cu15 O7 2.098131 1_655
Cu15 O90 2.293976 1_556
O0 S2 1.436679 1_555
O1 S3 1.437899 1_555
O2 S0 1.495712 1_545
O3 S1 1.495251 1_555
O4 S2 1.543329 1_555
O5 S3 1.543677 1_555
O6 S0 1.467584 1_555
O7 S1 1.467991 1_555
O8 S4 1.489296 1_555
O9 S5 1.485479 1_555
O10 S0 1.481949 1_555
O11 S1 1.483564 1_555
O12 S4 1.485726 1_555
O13 S5 1.485065 1_555
O14 S2 1.498263 1_555
O15 S3 1.497625 1_555
O16 S10 1.502878 1_555
O17 S11 1.501631 1_555
O18 S6 1.465355 1_555
O19 S7 1.467625 1_555
O20 S8 1.499589 1_555
O21 S9 1.498945 1_555
O22 S7 1.499789 1_545
O23 S6 1.501221 1_555
O24 S5 1.501339 1_555
O25 S4 1.500956 1_565
O26 S3 1.499071 1_555
O27 S2 1.499101 1_555
O28 S4 1.465388 1_555
O29 S5 1.468355 1_555
O30 S0 1.502877 1_555
O31 S1 1.501205 1_555
O32 S9 1.498261 1_555
O33 S8 1.497822 1_555
O34 S7 1.486249 1_555
O35 S6 1.485896 1_555
O36 S10 1.481925 1_555
O37 S11 1.482967 1_555
O38 S6 1.489170 1_555
O39 S7 1.486819 1_555
O40 S11 1.467613 1_555
O41 S10 1.467291 1_555
O42 S8 1.543116 1_555
O43 S9 1.543407 1_555
O44 S10 1.495763 1_555
O45 S11 1.494023 1_565
O46 S8 1.437695 1_555
O47 S9 1.436685 1_555
O48 S14 1.437743 1_555
O49 S15 1.436283 1_555
O50 S13 1.494461 1_545
O51 S12 1.495782 1_555
O52 S14 1.543479 1_555
O53 S15 1.544595 1_555
O54 S12 1.467918 1_555
O55 S13 1.469193 1_555
O56 S16 1.483992 1_555
O57 S17 1.485754 1_555
O58 S13 1.483323 1_555
O59 S12 1.480270 1_555
O60 S16 1.484330 1_555
O61 S17 1.485286 1_555
O62 S14 1.497543 1_555
O63 S15 1.498592 1_555
O64 S22 1.503132 1_555
O65 S23 1.503651 1_555
O66 S18 1.467157 1_555
O67 S19 1.466301 1_555
O68 S20 1.501238 1_555
O69 S21 1.500510 1_555
O70 S18 1.498473 1_555
O71 S19 1.498724 1_545
O72 S16 1.498444 1_565
O73 S17 1.499181 1_555
O74 S14 1.501397 1_555
O75 S15 1.500050 1_555
O76 S16 1.467062 1_555
O77 S17 1.466272 1_555
O78 S12 1.504628 1_555
O79 S13 1.503089 1_555
O80 S20 1.497467 1_555
O81 S21 1.500271 1_555
O82 S18 1.484383 1_555
O83 S19 1.485583 1_555
O84 S22 1.483403 1_555
O85 S23 1.480891 1_555
O86 S18 1.483935 1_555
O87 S19 1.486409 1_555
O88 S22 1.469262 1_555
O89 S23 1.468498 1_555
O90 S20 1.544192 1_555
O91 S21 1.545465 1_555
O92 S22 1.494398 1_555
O93 S23 1.495723 1_565
O94 S21 1.436016 1_555
O95 S20 1.437574 1_555
