# generated using pymatgen
data_GdGa3
_symmetry_space_group_name_H-M   'P 1'
_cell_length_a   6.32773400
_cell_length_b   6.32726769
_cell_length_c   4.49592047
_cell_angle_alpha   90.00000000
_cell_angle_beta   90.00000000
_cell_angle_gamma   119.99169499
_symmetry_Int_Tables_number   1
_chemical_formula_structural   GdGa3
_chemical_formula_sum   'Gd2 Ga6'
_cell_volume   155.90139942
_cell_formula_units_Z   2
loop_
 _symmetry_equiv_pos_site_id
 _symmetry_equiv_pos_as_xyz
  1  'x, y, z'
loop_
 _atom_site_type_symbol
 _atom_site_label
 _atom_site_symmetry_multiplicity
 _atom_site_fract_x
 _atom_site_fract_y
 _atom_site_fract_z
 _atom_site_occupancy
  Gd  Gd0  1  0.33343350  0.66668974  0.75000100  1
  Gd  Gd1  1  0.66656750  0.33331226  0.25000100  1
  Ga  Ga0  1  0.14360145  0.28733123  0.25000100  1
  Ga  Ga1  1  0.71278307  0.85641713  0.25000100  1
  Ga  Ga2  1  0.14363032  0.85627752  0.25000100  1
  Ga  Ga3  1  0.85639855  0.71266877  0.75000100  1
  Ga  Ga4  1  0.28721693  0.14358287  0.75000100  1
  Ga  Ga5  1  0.85636968  0.14372348  0.75000100  1
loop_
_geom_bond_atom_site_label_1
_geom_bond_atom_site_label_2
_geom_bond_distance
_geom_bond_site_symmetry_2
Ga0 Ga1 2.726649 1_445
Ga0 Ga2 2.727484 1_545
Ga0 Ga5 2.744320 1_455
Ga0 Ga5 2.744320 1_454
Ga0 Ga4 2.744588 1_555
Ga0 Ga4 2.744588 1_554
Ga0 Gd0 3.061885 1_555
Ga0 Gd0 3.061885 1_554
Ga0 Gd1 3.173778 1_555
Ga0 Gd1 3.173992 1_455
Ga1 Ga2 2.726728 1_655
Ga1 Ga5 2.744488 1_565
Ga1 Ga5 2.744488 1_564
Ga1 Ga3 2.744588 1_555
Ga1 Ga3 2.744588 1_554
Ga1 Gd0 3.061956 1_555
Ga1 Gd0 3.061956 1_554
Ga1 Gd1 3.173749 1_565
Ga1 Gd1 3.173764 1_555
Ga2 Ga3 2.744320 1_455
Ga2 Ga3 2.744320 1_454
Ga2 Ga4 2.744485 1_565
Ga2 Ga4 2.744485 1_564
Ga2 Gd0 3.061881 1_555
Ga2 Gd0 3.061881 1_554
Ga2 Gd1 3.174062 1_565
Ga2 Gd1 3.174196 1_455
Ga3 Ga4 2.726649 1_665
Ga3 Ga5 2.727490 1_565
Ga3 Gd1 3.061878 1_555
Ga3 Gd1 3.061878 1_556
Ga3 Gd0 3.173777 1_555
Ga3 Gd0 3.173992 1_655
Ga4 Ga5 2.726732 1_455
Ga4 Gd1 3.061959 1_555
Ga4 Gd1 3.061959 1_556
Ga4 Gd0 3.173740 1_545
Ga4 Gd0 3.173774 1_555
Ga5 Gd1 3.061881 1_555
Ga5 Gd1 3.061881 1_556
Ga5 Gd0 3.174055 1_545
Ga5 Gd0 3.174202 1_655
