# generated using pymatgen
data_LiGa2Ni
_symmetry_space_group_name_H-M   'P 1'
_cell_length_a   4.12644510
_cell_length_b   4.12644508
_cell_length_c   4.12644517
_cell_angle_alpha   60.00159235
_cell_angle_beta   60.00159303
_cell_angle_gamma   60.00159297
_symmetry_Int_Tables_number   1
_chemical_formula_structural   LiGa2Ni
_chemical_formula_sum   'Li1 Ga2 Ni1'
_cell_volume   49.68541304
_cell_formula_units_Z   1
loop_
 _symmetry_equiv_pos_site_id
 _symmetry_equiv_pos_as_xyz
  1  'x, y, z'
loop_
 _atom_site_type_symbol
 _atom_site_label
 _atom_site_symmetry_multiplicity
 _atom_site_fract_x
 _atom_site_fract_y
 _atom_site_fract_z
 _atom_site_occupancy
  Li  Li0  1  0.25000082  0.25000082  0.25000082  1
  Ga  Ga0  1  -0.00000034  -0.00000033  -0.00000034  1
  Ga  Ga1  1  0.49999968  0.49999968  0.49999969  1
  Ni  Ni0  1  0.74999984  0.74999983  0.74999983  1
loop_
_geom_bond_atom_site_label_1
_geom_bond_atom_site_label_2
_geom_bond_distance
_geom_bond_site_symmetry_2
Ga0 Ni0 2.526889 1_444
Ga0 Li0 2.526903 1_555
Ga0 Li0 2.526968 1_545
Ga0 Li0 2.526968 1_455
Ga0 Li0 2.526968 1_554
Ga0 Ni0 2.526972 1_454
Ga0 Ni0 2.526973 1_445
Ga0 Ni0 2.526973 1_544
Ga1 Li0 2.526879 1_555
Ga1 Ni0 2.526892 1_555
Ga1 Ni0 2.526971 1_545
Ga1 Ni0 2.526971 1_455
Ga1 Ni0 2.526971 1_554
Ga1 Li0 2.526976 1_565
Ga1 Li0 2.526976 1_556
Ga1 Li0 2.526976 1_655
