# generated using pymatgen
data_Li2Fe(SiO3)2
_symmetry_space_group_name_H-M   'P 1'
_cell_length_a   7.18892200
_cell_length_b   9.89052000
_cell_length_c   10.28429400
_cell_angle_alpha   90.00000000
_cell_angle_beta   90.00000000
_cell_angle_gamma   90.00000000
_symmetry_Int_Tables_number   1
_chemical_formula_structural   Li2Fe(SiO3)2
_chemical_formula_sum   'Li12 Fe6 Si12 O36'
_cell_volume   731.23569045
_cell_formula_units_Z   6
loop_
 _symmetry_equiv_pos_site_id
 _symmetry_equiv_pos_as_xyz
  1  'x, y, z'
loop_
 _atom_site_type_symbol
 _atom_site_label
 _atom_site_symmetry_multiplicity
 _atom_site_fract_x
 _atom_site_fract_y
 _atom_site_fract_z
 _atom_site_occupancy
  Li  Li0  1  0.78832800  0.24395700  0.00000000  1
  Li  Li1  1  0.77256000  0.76766400  0.00000000  1
  Li  Li2  1  0.29038500  0.45806600  0.22894800  1
  Li  Li3  1  0.21770600  0.03513800  0.23206400  1
  Li  Li4  1  0.78229400  0.53513800  0.26793600  1
  Li  Li5  1  0.70961500  0.95806600  0.27105200  1
  Li  Li6  1  0.22744000  0.26766400  0.50000000  1
  Li  Li7  1  0.21167200  0.74395700  0.50000000  1
  Li  Li8  1  0.70961500  0.95806600  0.72894800  1
  Li  Li9  1  0.78229400  0.53513800  0.73206400  1
  Li  Li10  1  0.21770600  0.03513800  0.76793600  1
  Li  Li11  1  0.29038500  0.45806600  0.77105200  1
  Fe  Fe0  1  0.25018600  0.24632200  0.00000000  1
  Fe  Fe1  1  0.98373600  0.02170700  0.00000000  1
  Fe  Fe2  1  0.51821400  0.46823000  0.00000000  1
  Fe  Fe3  1  0.01626400  0.52170700  0.50000000  1
  Fe  Fe4  1  0.48178600  0.96823000  0.50000000  1
  Fe  Fe5  1  0.74981400  0.74632200  0.50000000  1
  Si  Si0  1  0.98435100  0.53004800  0.00000000  1
  Si  Si1  1  0.51612200  0.96568900  0.00000000  1
  Si  Si2  1  0.02563100  0.75337500  0.22553500  1
  Si  Si3  1  0.47662600  0.74248900  0.22504700  1
  Si  Si4  1  0.52337400  0.24248900  0.27495300  1
  Si  Si5  1  0.97436900  0.25337500  0.27446500  1
  Si  Si6  1  0.48387800  0.46568900  0.50000000  1
  Si  Si7  1  0.01564900  0.03004800  0.50000000  1
  Si  Si8  1  0.97436900  0.25337500  0.72553500  1
  Si  Si9  1  0.52337400  0.24248900  0.72504700  1
  Si  Si10  1  0.47662600  0.74248900  0.77495300  1
  Si  Si11  1  0.02563100  0.75337500  0.77446500  1
  O  O0  1  0.30582400  0.02496400  0.00000000  1
  O  O1  1  0.69368500  0.06567700  0.00000000  1
  O  O2  1  0.19224100  0.46853400  0.00000000  1
  O  O3  1  0.80596800  0.43136200  0.00000000  1
  O  O4  1  0.04369700  0.19410000  0.13553400  1
  O  O5  1  0.55761900  0.85731500  0.12120400  1
  O  O6  1  0.94694100  0.63653600  0.12320800  1
  O  O7  1  0.44346800  0.30201800  0.13912100  1
  O  O8  1  0.95065700  0.89958500  0.17535800  1
  O  O9  1  0.53727400  0.59095900  0.18113900  1
  O  O10  1  0.74906900  0.25675600  0.27638500  1
  O  O11  1  0.25093100  0.75675600  0.22361500  1
  O  O12  1  0.46272600  0.09095900  0.31886100  1
  O  O13  1  0.04934300  0.39958500  0.32464200  1
  O  O14  1  0.55653200  0.80201800  0.36087900  1
  O  O15  1  0.05305900  0.13653600  0.37679200  1
  O  O16  1  0.44238100  0.35731500  0.37879600  1
  O  O17  1  0.95630300  0.69410000  0.36446600  1
  O  O18  1  0.69417600  0.52496400  0.50000000  1
  O  O19  1  0.30631500  0.56567700  0.50000000  1
  O  O20  1  0.19403200  0.93136200  0.50000000  1
  O  O21  1  0.80775900  0.96853400  0.50000000  1
  O  O22  1  0.95630300  0.69410000  0.63553400  1
  O  O23  1  0.44238100  0.35731500  0.62120400  1
  O  O24  1  0.05305900  0.13653600  0.62320800  1
  O  O25  1  0.55653200  0.80201800  0.63912100  1
  O  O26  1  0.04934300  0.39958500  0.67535800  1
  O  O27  1  0.46272600  0.09095900  0.68113900  1
  O  O28  1  0.25093100  0.75675600  0.77638500  1
  O  O29  1  0.74906900  0.25675600  0.72361500  1
  O  O30  1  0.53727400  0.59095900  0.81886100  1
  O  O31  1  0.95065700  0.89958500  0.82464200  1
  O  O32  1  0.44346800  0.30201800  0.86087900  1
  O  O33  1  0.94694100  0.63653600  0.87679200  1
  O  O34  1  0.55761900  0.85731500  0.87879600  1
  O  O35  1  0.04369700  0.19410000  0.86446600  1
loop_
_geom_bond_atom_site_label_1
_geom_bond_atom_site_label_2
_geom_bond_distance
_geom_bond_site_symmetry_2
Li0 O3 1.857866 1_555
Li0 O1 1.889995 1_555
Li0 O4 2.357181 1_655
Li0 O35 2.357181 1_654
Li1 O5 2.174307 1_555
Li1 O34 2.174307 1_554
Li1 O33 2.204340 1_554
Li1 O6 2.204340 1_555
Li1 O8 2.567883 1_555
Li1 O31 2.567883 1_554
Li2 O13 2.075043 1_555
Li2 O7 2.108695 1_555
Li2 O16 2.135853 1_555
Li2 O9 2.262630 1_555
Li2 O2 2.460185 1_555
Li3 O12 2.050430 1_555
Li3 O15 2.149922 1_555
Li3 O4 2.241037 1_555
Li3 O8 2.413122 1_445
Li3 O0 2.471304 1_555
Li4 O9 2.050430 1_555
Li4 O6 2.149922 1_555
Li4 O17 2.241037 1_555
Li4 O13 2.413122 1_655
Li4 O18 2.471304 1_555
Li5 O8 2.075043 1_555
Li5 O14 2.108695 1_555
Li5 O5 2.135853 1_555
Li5 O12 2.262630 1_565
Li5 O21 2.460185 1_555
Li6 O23 2.174307 1_555
Li6 O16 2.174307 1_555
Li6 O24 2.204340 1_555
Li6 O15 2.204340 1_555
Li6 O26 2.567883 1_555
Li6 O13 2.567883 1_555
Li7 O20 1.857866 1_555
Li7 O19 1.889995 1_555
Li7 O22 2.357181 1_455
Li7 O17 2.357181 1_455
Li8 O31 2.075043 1_555
Li8 O25 2.108695 1_555
Li8 O34 2.135853 1_555
Li8 O27 2.262630 1_565
Li8 O21 2.460185 1_555
Li9 O30 2.050430 1_555
Li9 O33 2.149922 1_555
Li9 O22 2.241037 1_555
Li9 O26 2.413122 1_655
Li9 O18 2.471304 1_555
Li10 O27 2.050430 1_555
Li10 O24 2.149922 1_555
Li10 O35 2.241037 1_555
Li10 O31 2.413122 1_445
Li10 O0 2.471304 1_556
Li11 O26 2.075043 1_555
Li11 O32 2.108695 1_555
Li11 O23 2.135853 1_555
Li11 O30 2.262630 1_555
Li11 O2 2.460185 1_556
Fe0 O7 2.069108 1_555
Fe0 O32 2.069108 1_554
Fe0 O4 2.100761 1_555
Fe0 O35 2.100761 1_554
Fe0 O0 2.225582 1_555
Fe0 O2 2.236921 1_555
Fe1 O1 2.130022 1_555
Fe1 O8 2.183535 1_545
Fe1 O31 2.183535 1_544
Fe1 O4 2.244082 1_655
Fe1 O35 2.244082 1_654
Fe1 O0 2.315690 1_655
Fe2 O3 2.100533 1_555
Fe2 O9 2.227681 1_555
Fe2 O30 2.227681 1_554
Fe2 O7 2.244615 1_555
Fe2 O32 2.244615 1_554
Fe2 O2 2.343396 1_555
Fe3 O19 2.130022 1_555
Fe3 O13 2.183535 1_555
Fe3 O26 2.183535 1_555
Fe3 O22 2.244082 1_455
Fe3 O17 2.244082 1_455
Fe3 O18 2.315690 1_455
Fe4 O20 2.100533 1_555
Fe4 O27 2.227681 1_565
Fe4 O12 2.227681 1_565
Fe4 O25 2.244615 1_555
Fe4 O14 2.244615 1_555
Fe4 O21 2.343396 1_555
Fe5 O25 2.069108 1_555
Fe5 O14 2.069108 1_555
Fe5 O22 2.100761 1_555
Fe5 O17 2.100761 1_555
Fe5 O18 2.225582 1_555
Fe5 O21 2.236921 1_555
O0 Si1 1.621508 1_545
O1 Si1 1.614747 1_545
O2 Si0 1.613599 1_455
O3 Si0 1.611579 1_555
O4 Si5 1.622833 1_455
O5 Si3 1.664130 1_555
O5 Si1 1.670828 1_555
O6 Si2 1.662192 1_655
O6 Si0 1.669480 1_555
O7 Si4 1.621130 1_555
O8 Si2 1.627261 1_655
O9 Si3 1.624848 1_555
O10 Si5 1.620130 1_555
O10 Si4 1.628695 1_555
O11 Si2 1.620130 1_555
O11 Si3 1.628695 1_555
O12 Si4 1.624848 1_555
O13 Si5 1.627261 1_455
O14 Si3 1.621130 1_555
O15 Si5 1.662192 1_455
O15 Si7 1.669480 1_555
O16 Si4 1.664130 1_555
O16 Si6 1.670828 1_555
O17 Si2 1.622833 1_655
O18 Si6 1.621508 1_555
O19 Si6 1.614747 1_555
O20 Si7 1.611579 1_565
O21 Si7 1.613599 1_665
O22 Si11 1.622833 1_655
O23 Si9 1.664130 1_555
O23 Si6 1.670828 1_555
O24 Si8 1.662192 1_455
O24 Si7 1.669480 1_555
O25 Si10 1.621130 1_555
O26 Si8 1.627261 1_455
O27 Si9 1.624848 1_555
O28 Si11 1.620130 1_555
O28 Si10 1.628695 1_555
O29 Si8 1.620130 1_555
O29 Si9 1.628695 1_555
O30 Si10 1.624848 1_555
O31 Si11 1.627261 1_655
O32 Si9 1.621130 1_555
O33 Si11 1.662192 1_655
O33 Si0 1.669480 1_556
O34 Si10 1.664130 1_555
O34 Si1 1.670828 1_556
O35 Si8 1.622833 1_455
