# generated using pymatgen
data_Ti3O5
_symmetry_space_group_name_H-M   'P 1'
_cell_length_a   3.77145261
_cell_length_b   5.26389427
_cell_length_c   10.01151384
_cell_angle_alpha   89.99976343
_cell_angle_beta   89.99978833
_cell_angle_gamma   111.00604882
_symmetry_Int_Tables_number   1
_chemical_formula_structural   Ti3O5
_chemical_formula_sum   'Ti6 O10'
_cell_volume   185.54518944
_cell_formula_units_Z   2
loop_
 _symmetry_equiv_pos_site_id
 _symmetry_equiv_pos_as_xyz
  1  'x, y, z'
loop_
 _atom_site_type_symbol
 _atom_site_label
 _atom_site_symmetry_multiplicity
 _atom_site_fract_x
 _atom_site_fract_y
 _atom_site_fract_z
 _atom_site_occupancy
  Ti  Ti0  1  0.30071156  0.60129938  0.24998441  1
  Ti  Ti1  1  0.69928944  0.39870062  0.75001559  1
  Ti  Ti2  1  0.63011082  0.26042830  0.05809173  1
  Ti  Ti3  1  0.36988918  0.73957170  0.94190827  1
  Ti  Ti4  1  0.36989855  0.73959301  0.55809392  1
  Ti  Ti5  1  0.63010145  0.26040699  0.44190608  1
  O  O0  1  0.27090936  0.54186656  0.75003584  1
  O  O1  1  0.72909064  0.45813344  0.24996416  1
  O  O2  1  0.55205096  0.10424290  0.87741181  1
  O  O3  1  0.44794904  0.89575710  0.12258819  1
  O  O4  1  0.44792671  0.89569968  0.37741848  1
  O  O5  1  0.55207329  0.10430032  0.62258152  1
  O  O6  1  0.18274553  0.36554207  0.43223848  1
  O  O7  1  0.81725447  0.63445793  0.56776152  1
  O  O8  1  0.81726801  0.63447924  0.93228947  1
  O  O9  1  0.18273199  0.36552076  0.06771053  1
loop_
_geom_bond_atom_site_label_1
_geom_bond_atom_site_label_2
_geom_bond_distance
_geom_bond_site_symmetry_2
O0 Ti1 2.012658 1_455
O0 Ti1 2.012719 1_555
O0 Ti3 2.152647 1_555
O0 Ti4 2.153305 1_555
O1 Ti0 2.012661 1_655
O1 Ti0 2.012716 1_555
O1 Ti2 2.152647 1_555
O1 Ti5 2.153305 1_555
O2 Ti3 1.904799 1_545
O2 Ti1 1.928851 1_555
O2 Ti2 1.964975 1_556
O3 Ti2 1.904799 1_565
O3 Ti0 1.928851 1_555
O3 Ti3 1.964975 1_554
O4 Ti5 1.904943 1_565
O4 Ti0 1.928901 1_555
O4 Ti4 1.964774 1_555
O5 Ti4 1.904943 1_545
O5 Ti1 1.928901 1_555
O5 Ti5 1.964774 1_555
O6 Ti5 1.957457 1_555
O6 Ti5 1.957769 1_455
O6 Ti0 2.161358 1_555
O6 Ti4 2.228518 1_555
O7 Ti4 1.957457 1_555
O7 Ti4 1.957769 1_655
O7 Ti1 2.161358 1_555
O7 Ti5 2.228518 1_555
O8 Ti3 1.957383 1_555
O8 Ti3 1.957685 1_655
O8 Ti1 2.161593 1_555
O8 Ti2 2.228205 1_556
O9 Ti2 1.957383 1_555
O9 Ti2 1.957685 1_455
O9 Ti0 2.161593 1_555
O9 Ti3 2.228205 1_554
