# generated using pymatgen
data_MnAlOs2
_symmetry_space_group_name_H-M   'P 1'
_cell_length_a   4.22120453
_cell_length_b   4.22120453
_cell_length_c   4.22120453
_cell_angle_alpha   60.00000000
_cell_angle_beta   60.00000000
_cell_angle_gamma   60.00000000
_symmetry_Int_Tables_number   1
_chemical_formula_structural   MnAlOs2
_chemical_formula_sum   'Mn1 Al1 Os2'
_cell_volume   53.18561551
_cell_formula_units_Z   1
loop_
 _symmetry_equiv_pos_site_id
 _symmetry_equiv_pos_as_xyz
  1  'x, y, z'
loop_
 _atom_site_type_symbol
 _atom_site_label
 _atom_site_symmetry_multiplicity
 _atom_site_fract_x
 _atom_site_fract_y
 _atom_site_fract_z
 _atom_site_occupancy
  Mn  Mn0  1  0.75000100  0.75000100  0.75000100  1
  Al  Al0  1  0.25000000  0.25000000  0.25000000  1
  Os  Os0  1  -0.00000000  0.00000000  0.00000000  1
  Os  Os1  1  0.50000000  0.50000000  0.50000000  1
loop_
_geom_bond_atom_site_label_1
_geom_bond_atom_site_label_2
_geom_bond_distance
_geom_bond_site_symmetry_2
Mn0 Os0 2.584939 1_666
Mn0 Os1 2.584946 1_556
Mn0 Os1 2.584946 1_565
Mn0 Os1 2.584946 1_655
Mn0 Os0 2.584953 1_566
Mn0 Os0 2.584953 1_665
Mn0 Os0 2.584953 1_656
Mn0 Os1 2.584960 1_555
Al0 Os1 2.584949 1_554
Al0 Os0 2.584949 1_555
Al0 Os1 2.584949 1_555
Al0 Os1 2.584949 1_545
Al0 Os0 2.584949 1_565
Al0 Os0 2.584949 1_655
Al0 Os1 2.584949 1_455
Al0 Os0 2.584949 1_556
