# generated using pymatgen
data_NdAl
_symmetry_space_group_name_H-M   'P 1'
_cell_length_a   5.96969021
_cell_length_b   11.80976384
_cell_length_c   5.75118239
_cell_angle_alpha   89.99996424
_cell_angle_beta   90.00000000
_cell_angle_gamma   89.99977379
_symmetry_Int_Tables_number   1
_chemical_formula_structural   NdAl
_chemical_formula_sum   'Nd8 Al8'
_cell_volume   405.46199081
_cell_formula_units_Z   8
loop_
 _symmetry_equiv_pos_site_id
 _symmetry_equiv_pos_as_xyz
  1  'x, y, z'
loop_
 _atom_site_type_symbol
 _atom_site_label
 _atom_site_symmetry_multiplicity
 _atom_site_fract_x
 _atom_site_fract_y
 _atom_site_fract_z
 _atom_site_occupancy
  Nd  Nd0  1  0.16585308  0.00995862  0.24999900  1
  Nd  Nd1  1  0.40770135  0.33445748  0.25000000  1
  Nd  Nd2  1  0.83412520  0.50996829  0.25000000  1
  Nd  Nd3  1  0.59228288  0.83447678  0.25000000  1
  Nd  Nd4  1  0.40770409  0.16551848  0.75000000  1
  Nd  Nd5  1  0.16587528  0.49003436  0.75000000  1
  Nd  Nd6  1  0.59228619  0.66554502  0.74999900  1
  Nd  Nd7  1  0.83414971  0.99003846  0.75000000  1
  Al  Al0  1  0.92829084  0.24998811  0.99999800  1
  Al  Al1  1  0.07170816  0.75001280  0.00000270  1
  Al  Al2  1  0.66984967  0.10190819  0.25000000  1
  Al  Al3  1  0.33016158  0.60191336  0.25000000  1
  Al  Al4  1  0.92829184  0.24998811  0.50000200  1
  Al  Al5  1  0.07170816  0.75001280  0.49999730  1
  Al  Al6  1  0.66985495  0.39807762  0.74999900  1
  Al  Al7  1  0.33015602  0.89810152  0.74999900  1
loop_
_geom_bond_atom_site_label_1
_geom_bond_atom_site_label_2
_geom_bond_distance
_geom_bond_site_symmetry_2
Al0 Al2 2.739680 1_556
Al0 Al6 2.739717 1_555
Al0 Al4 2.875568 1_555
Al0 Al4 2.875614 1_556
Al0 Nd4 3.354563 1_655
Al0 Nd1 3.354564 1_656
Al0 Nd7 3.436224 1_545
Al0 Nd2 3.436576 1_556
Al0 Nd0 3.480507 1_656
Al0 Nd5 3.480724 1_655
Al0 Nd4 3.566573 1_555
Al0 Nd1 3.566589 1_556
Al1 Al7 2.739774 1_554
Al1 Al3 2.739846 1_555
Al1 Al5 2.875560 1_555
Al1 Al5 2.875622 1_554
Al1 Nd3 3.354602 1_455
Al1 Nd6 3.354621 1_454
Al1 Nd0 3.436183 1_565
Al1 Nd5 3.436560 1_554
Al1 Nd7 3.480465 1_454
Al1 Nd2 3.480702 1_455
Al1 Nd3 3.566491 1_555
Al1 Nd6 3.566528 1_554
Al2 Al4 2.739684 1_555
Al2 Nd0 3.153823 1_655
Al2 Nd1 3.160928 1_555
Al2 Nd3 3.192068 1_545
Al2 Nd0 3.198673 1_555
Al2 Nd7 3.313075 1_545
Al2 Nd7 3.313077 1_544
Al2 Nd4 3.358921 1_554
Al2 Nd4 3.358921 1_555
Al3 Al5 2.739847 1_555
Al3 Nd2 3.153998 1_455
Al3 Nd3 3.161004 1_555
Al3 Nd1 3.192327 1_555
Al3 Nd2 3.198462 1_555
Al3 Nd5 3.313098 1_555
Al3 Nd5 3.313099 1_554
Al3 Nd6 3.358917 1_555
Al3 Nd6 3.358926 1_554
Al4 Al6 2.739716 1_555
Al4 Nd4 3.354557 1_655
Al4 Nd1 3.354559 1_655
Al4 Nd7 3.436223 1_545
Al4 Nd2 3.436575 1_555
Al4 Nd0 3.480510 1_655
Al4 Nd5 3.480723 1_655
Al4 Nd4 3.566578 1_555
Al4 Nd1 3.566594 1_555
Al5 Al7 2.739769 1_555
Al5 Nd3 3.354602 1_455
Al5 Nd6 3.354616 1_455
Al5 Nd0 3.436186 1_565
Al5 Nd5 3.436559 1_555
Al5 Nd7 3.480466 1_455
Al5 Nd2 3.480703 1_455
Al5 Nd3 3.566490 1_555
Al5 Nd6 3.566523 1_555
Al6 Nd5 3.153955 1_655
Al6 Nd4 3.161047 1_555
Al6 Nd6 3.192486 1_555
Al6 Nd5 3.198598 1_555
Al6 Nd2 3.313120 1_555
Al6 Nd2 3.313131 1_556
Al6 Nd1 3.358968 1_555
Al6 Nd1 3.358977 1_556
Al7 Nd7 3.153788 1_455
Al7 Nd6 3.160949 1_555
Al7 Nd4 3.191883 1_565
Al7 Nd7 3.198606 1_555
Al7 Nd0 3.313021 1_565
Al7 Nd0 3.313023 1_566
Al7 Nd3 3.358903 1_555
Al7 Nd3 3.358912 1_556
