# generated using pymatgen
data_LaAu3
_symmetry_space_group_name_H-M   'P 1'
_cell_length_a   6.68087120
_cell_length_b   6.68086940
_cell_length_c   4.69999003
_cell_angle_alpha   89.99999968
_cell_angle_beta   89.99999115
_cell_angle_gamma   119.99996672
_symmetry_Int_Tables_number   1
_chemical_formula_structural   LaAu3
_chemical_formula_sum   'La2 Au6'
_cell_volume   181.67442537
_cell_formula_units_Z   2
loop_
 _symmetry_equiv_pos_site_id
 _symmetry_equiv_pos_as_xyz
  1  'x, y, z'
loop_
 _atom_site_type_symbol
 _atom_site_label
 _atom_site_symmetry_multiplicity
 _atom_site_fract_x
 _atom_site_fract_y
 _atom_site_fract_z
 _atom_site_occupancy
  La  La0  1  0.66666592  0.33333407  0.25000353  1
  La  La1  1  0.33333295  0.66666741  0.75000231  1
  Au  Au0  1  0.15085813  0.84914224  0.25000260  1
  Au  Au1  1  0.69828362  0.84914197  0.25000257  1
  Au  Au2  1  0.15085813  0.30171638  0.25000260  1
  Au  Au3  1  0.84914155  0.69828423  0.74999945  1
  Au  Au4  1  0.30171596  0.15085854  0.74999945  1
  Au  Au5  1  0.84914174  0.15085815  0.74999950  1
loop_
_geom_bond_atom_site_label_1
_geom_bond_atom_site_label_2
_geom_bond_distance
_geom_bond_site_symmetry_2
Au0 Au4 2.927418 1_565
Au0 Au3 2.927419 1_455
Au0 Au4 2.927442 1_564
Au0 Au3 2.927443 1_454
Au0 Au2 3.023589 1_565
Au0 Au1 3.023591 1_455
Au0 La1 3.159275 1_555
Au0 La1 3.159276 1_554
Au0 La0 3.345440 1_565
Au0 La0 3.345443 1_455
Au1 Au3 2.927416 1_555
Au1 Au5 2.927418 1_565
Au1 Au3 2.927439 1_554
Au1 Au5 2.927441 1_564
Au1 Au2 3.023593 1_665
Au1 La1 3.159279 1_555
Au1 La1 3.159281 1_554
Au1 La0 3.345434 1_555
Au1 La0 3.345446 1_565
Au2 Au4 2.927416 1_555
Au2 Au5 2.927419 1_455
Au2 Au4 2.927439 1_554
Au2 Au5 2.927442 1_454
Au2 La1 3.159280 1_555
Au2 La1 3.159282 1_554
Au2 La0 3.345434 1_555
Au2 La0 3.345448 1_455
Au3 Au5 3.023587 1_565
Au3 Au4 3.023592 1_665
Au3 La0 3.159264 1_555
Au3 La0 3.159292 1_556
Au3 La1 3.345439 1_655
Au3 La1 3.345442 1_555
Au4 Au5 3.023589 1_455
Au4 La0 3.159263 1_555
Au4 La0 3.159292 1_556
Au4 La1 3.345437 1_545
Au4 La1 3.345442 1_555
Au5 La0 3.159270 1_555
Au5 La0 3.159297 1_556
Au5 La1 3.345441 1_545
Au5 La1 3.345444 1_655
