# generated using pymatgen
data_RbUAuSe3
_symmetry_space_group_name_H-M   'P 1'
_cell_length_a   8.03493737
_cell_length_b   8.03493737
_cell_length_c   10.77095000
_cell_angle_alpha   90.00000000
_cell_angle_beta   90.00000000
_cell_angle_gamma   149.54146692
_symmetry_Int_Tables_number   1
_chemical_formula_structural   RbUAuSe3
_chemical_formula_sum   'Rb2 U2 Au2 Se6'
_cell_volume   352.49570965
_cell_formula_units_Z   2
loop_
 _symmetry_equiv_pos_site_id
 _symmetry_equiv_pos_as_xyz
  1  'x, y, z'
loop_
 _atom_site_type_symbol
 _atom_site_label
 _atom_site_symmetry_multiplicity
 _atom_site_fract_x
 _atom_site_fract_y
 _atom_site_fract_z
 _atom_site_occupancy
  Rb  Rb0  1  0.25047800  0.74952200  0.25000000  1
  Rb  Rb1  1  0.74952200  0.25047800  0.75000000  1
  U  U0  1  0.00000000  0.00000000  0.00000000  1
  U  U1  1  0.00000000  0.00000000  0.50000000  1
  Au  Au0  1  0.54289400  0.45710600  0.25000000  1
  Au  Au1  1  0.45710600  0.54289400  0.75000000  1
  Se  Se0  1  0.62336000  0.37664000  0.04127600  1
  Se  Se1  1  0.93477700  0.06522300  0.25000000  1
  Se  Se2  1  0.62336000  0.37664000  0.45872400  1
  Se  Se3  1  0.37664000  0.62336000  0.54127600  1
  Se  Se4  1  0.06522300  0.93477700  0.75000000  1
  Se  Se5  1  0.37664000  0.62336000  0.95872400  1
loop_
_geom_bond_atom_site_label_1
_geom_bond_atom_site_label_2
_geom_bond_distance
_geom_bond_site_symmetry_2
Rb0 Se1 3.552601 1_455
Rb0 Se1 3.552601 1_565
Rb0 Se2 3.659775 1_565
Rb0 Se2 3.659775 1_455
Rb0 Se0 3.659775 1_565
Rb0 Se0 3.659775 1_455
Rb0 Se3 3.697233 1_555
Rb0 Se5 3.697233 1_554
Rb1 Se4 3.552601 1_545
Rb1 Se4 3.552601 1_655
Rb1 Se5 3.659775 1_545
Rb1 Se5 3.659775 1_655
Rb1 Se3 3.659775 1_545
Rb1 Se3 3.659775 1_655
Rb1 Se0 3.697233 1_556
Rb1 Se2 3.697233 1_555
Au0 Se2 2.571164 1_555
Au0 Se0 2.571164 1_555
Au0 Se1 2.695391 1_455
Au0 Se1 2.695391 1_565
Au0 U0 3.485393 1_555
Au0 U1 3.485393 1_555
Au0 U0 3.485393 1_665
Au0 U1 3.485393 1_665
Au0 Rb0 3.849002 1_545
Au0 Rb0 3.849002 1_655
Au1 Se5 2.571164 1_555
Au1 Se3 2.571164 1_555
Au1 Se4 2.695391 1_545
Au1 Se4 2.695391 1_655
Au1 U1 3.485393 1_555
Au1 U0 3.485393 1_556
Au1 U0 3.485393 1_666
Au1 U1 3.485393 1_665
Au1 Rb1 3.849002 1_455
Au1 Rb1 3.849002 1_565
Se0 U0 2.882897 1_665
Se0 U0 2.882897 1_555
Se1 U1 2.876386 1_655
Se1 U0 2.876386 1_655
Se2 U1 2.882897 1_665
Se2 U1 2.882897 1_555
Se3 U1 2.882897 1_665
Se3 U1 2.882897 1_555
Se4 U1 2.876386 1_565
Se4 U0 2.876386 1_566
Se5 U0 2.882897 1_666
Se5 U0 2.882897 1_556
