# generated using pymatgen
data_Tm2MgTc
_symmetry_space_group_name_H-M   'P 1'
_cell_length_a   4.97379617
_cell_length_b   4.97379617
_cell_length_c   4.97379617
_cell_angle_alpha   60.00000000
_cell_angle_beta   60.00000000
_cell_angle_gamma   60.00000000
_symmetry_Int_Tables_number   1
_chemical_formula_structural   Tm2MgTc
_chemical_formula_sum   'Tm2 Mg1 Tc1'
_cell_volume   87.00594991
_cell_formula_units_Z   1
loop_
 _symmetry_equiv_pos_site_id
 _symmetry_equiv_pos_as_xyz
  1  'x, y, z'
loop_
 _atom_site_type_symbol
 _atom_site_label
 _atom_site_symmetry_multiplicity
 _atom_site_fract_x
 _atom_site_fract_y
 _atom_site_fract_z
 _atom_site_occupancy
  Tm  Tm0  1  0.25000000  0.25000000  0.25000000  1
  Tm  Tm1  1  0.75000000  0.75000000  0.75000000  1
  Mg  Mg0  1  0.50000000  0.50000000  0.50000000  1
  Tc  Tc0  1  0.00000000  0.00000000  0.00000000  1
loop_
_geom_bond_atom_site_label_1
_geom_bond_atom_site_label_2
_geom_bond_distance
_geom_bond_site_symmetry_2
Mg0 Tm1 3.045816 1_455
Mg0 Tm0 3.045816 1_655
Mg0 Tm1 3.045816 1_545
Mg0 Tm0 3.045816 1_555
Mg0 Tm0 3.045816 1_556
Mg0 Tm0 3.045816 1_565
Mg0 Tm1 3.045816 1_554
Mg0 Tm1 3.045816 1_555
Mg0 Tc0 3.517005 1_665
Mg0 Tc0 3.517005 1_556
Mg0 Tc0 3.517005 1_565
Mg0 Tc0 3.517005 1_655
Mg0 Tc0 3.517005 1_566
Mg0 Tc0 3.517005 1_656
Tc0 Tm1 3.045816 1_544
Tc0 Tm0 3.045816 1_455
Tc0 Tm0 3.045816 1_555
Tc0 Tm0 3.045816 1_554
Tc0 Tm0 3.045816 1_545
Tc0 Tm1 3.045816 1_445
Tc0 Tm1 3.045816 1_454
Tc0 Tm1 3.045816 1_444
