# generated using pymatgen
data_MnVRu2
_symmetry_space_group_name_H-M   'P 1'
_cell_length_a   4.24079625
_cell_length_b   4.24079603
_cell_length_c   4.24079631
_cell_angle_alpha   60.00004148
_cell_angle_beta   60.00004242
_cell_angle_gamma   60.00005113
_symmetry_Int_Tables_number   1
_chemical_formula_structural   MnVRu2
_chemical_formula_sum   'Mn1 V1 Ru2'
_cell_volume   53.92965606
_cell_formula_units_Z   1
loop_
 _symmetry_equiv_pos_site_id
 _symmetry_equiv_pos_as_xyz
  1  'x, y, z'
loop_
 _atom_site_type_symbol
 _atom_site_label
 _atom_site_symmetry_multiplicity
 _atom_site_fract_x
 _atom_site_fract_y
 _atom_site_fract_z
 _atom_site_occupancy
  Mn  Mn0  1  0.24999928  0.24999928  0.24999927  1
  V  V0  1  0.74999915  0.74999909  0.74999909  1
  Ru  Ru0  1  -0.00000007  -0.00000005  -0.00000005  1
  Ru  Ru1  1  0.50000064  0.50000068  0.50000070  1
loop_
_geom_bond_atom_site_label_1
_geom_bond_atom_site_label_2
_geom_bond_distance
_geom_bond_site_symmetry_2
Mn0 Ru0 2.596939 1_555
Mn0 Ru1 2.596943 1_554
Mn0 Ru1 2.596943 1_545
Mn0 Ru1 2.596944 1_455
Mn0 Ru0 2.596950 1_556
Mn0 Ru0 2.596950 1_565
Mn0 Ru0 2.596951 1_655
Mn0 Ru1 2.596960 1_555
Ru0 V0 2.596945 1_445
Ru0 V0 2.596945 1_454
Ru0 V0 2.596946 1_544
Ru0 V0 2.596954 1_444
Ru1 V0 2.596930 1_555
Ru1 V0 2.596953 1_455
Ru1 V0 2.596954 1_545
Ru1 V0 2.596954 1_554
