# generated using pymatgen
data_Li2Mn3(BO3)3
_symmetry_space_group_name_H-M   'P 1'
_cell_length_a   10.42292171
_cell_length_b   10.42292171
_cell_length_c   8.28653121
_cell_angle_alpha   66.60891563
_cell_angle_beta   66.60891563
_cell_angle_gamma   74.91326505
_symmetry_Int_Tables_number   1
_chemical_formula_structural   Li2Mn3(BO3)3
_chemical_formula_sum   'Li8 Mn12 B12 O36'
_cell_volume   752.68565196
_cell_formula_units_Z   4
loop_
 _symmetry_equiv_pos_site_id
 _symmetry_equiv_pos_as_xyz
  1  'x, y, z'
loop_
 _atom_site_type_symbol
 _atom_site_label
 _atom_site_symmetry_multiplicity
 _atom_site_fract_x
 _atom_site_fract_y
 _atom_site_fract_z
 _atom_site_occupancy
  Li  Li0  1  0.98114600  0.48753500  0.29699600  1
  Li  Li1  1  0.73594700  0.73594700  0.29736200  1
  Li  Li2  1  0.52602100  0.52602100  0.97223400  1
  Li  Li3  1  0.48753500  0.98114600  0.29699600  1
  Li  Li4  1  0.02453000  0.02453000  0.98371800  1
  Li  Li5  1  0.61513800  0.11113700  0.72678500  1
  Li  Li6  1  0.11113700  0.61513800  0.72678500  1
  Li  Li7  1  0.36641600  0.36641600  0.70878100  1
  Mn  Mn0  1  0.81382900  0.56369400  0.00521000  1
  Mn  Mn1  1  0.50775200  0.25569000  0.33919200  1
  Mn  Mn2  1  0.25569000  0.50775200  0.33919200  1
  Mn  Mn3  1  0.76119400  0.00510900  0.37739000  1
  Mn  Mn4  1  0.92982300  0.17491600  0.64241500  1
  Mn  Mn5  1  0.68176100  0.42843600  0.62837000  1
  Mn  Mn6  1  0.42843600  0.68176100  0.62837000  1
  Mn  Mn7  1  0.56369400  0.81382900  0.00521000  1
  Mn  Mn8  1  0.31450600  0.06292400  0.01444800  1
  Mn  Mn9  1  0.06292400  0.31450600  0.01444800  1
  Mn  Mn10  1  0.00510900  0.76119400  0.37739000  1
  Mn  Mn11  1  0.17491600  0.92982300  0.64241500  1
  B  B0  1  0.99990400  0.74607200  0.01578100  1
  B  B1  1  0.70728300  0.70728300  0.65820300  1
  B  B2  1  0.74607200  0.99990400  0.01578100  1
  B  B3  1  0.95822500  0.46591900  0.66178100  1
  B  B4  1  0.46591900  0.95822500  0.66178100  1
  B  B5  1  0.54335800  0.54335800  0.32424300  1
  B  B6  1  0.20824500  0.20824500  0.66631900  1
  B  B7  1  0.79699700  0.28179200  0.34547800  1
  B  B8  1  0.04001600  0.04001600  0.33706700  1
  B  B9  1  0.50149400  0.24971800  0.98846800  1
  B  B10  1  0.24971800  0.50149400  0.98846800  1
  B  B11  1  0.28179200  0.79699700  0.34547800  1
  O  O0  1  0.94298100  0.70072100  0.21118400  1
  O  O1  1  0.65233600  0.65233600  0.57680700  1
  O  O2  1  0.90636700  0.40619900  0.58275800  1
  O  O3  1  0.58636500  0.35610300  0.90617000  1
  O  O4  1  0.35610300  0.58636500  0.90617000  1
  O  O5  1  0.85103100  0.08597100  0.92138200  1
  O  O6  1  0.46273200  0.18194900  0.17818500  1
  O  O7  1  0.18194900  0.46273200  0.17818500  1
  O  O8  1  0.70072100  0.94298100  0.21118400  1
  O  O9  1  0.66886100  0.66886100  0.84848700  1
  O  O10  1  0.93071600  0.43069900  0.84889500  1
  O  O11  1  0.96747800  0.68433500  0.91948200  1
  O  O12  1  0.97506200  0.97506200  0.26495300  1
  O  O13  1  0.48737500  0.48737500  0.24175800  1
  O  O14  1  0.40619900  0.90636700  0.58275800  1
  O  O15  1  0.14543800  0.14543800  0.60281900  1
  O  O16  1  0.75188800  0.21083200  0.26911700  1
  O  O17  1  0.21083200  0.75188800  0.26911700  1
  O  O18  1  0.80482200  0.80482200  0.53977000  1
  O  O19  1  0.57088200  0.04995600  0.54362500  1
  O  O20  1  0.04995600  0.57088200  0.54362500  1
  O  O21  1  0.64076400  0.64076400  0.20986200  1
  O  O22  1  0.30421100  0.30421100  0.54592000  1
  O  O23  1  0.88171200  0.38706300  0.22659500  1
  O  O24  1  0.08597100  0.85103100  0.92138200  1
  O  O25  1  0.50323400  0.50323400  0.51595600  1
  O  O26  1  0.43069900  0.93071600  0.84889500  1
  O  O27  1  0.17106000  0.17106000  0.85822000  1
  O  O28  1  0.75506100  0.24584600  0.53822600  1
  O  O29  1  0.45599600  0.21151200  0.87787400  1
  O  O30  1  0.21151200  0.45599600  0.87787400  1
  O  O31  1  0.68433500  0.96747800  0.91948200  1
  O  O32  1  0.13227500  0.13227500  0.20792400  1
  O  O33  1  0.38706300  0.88171200  0.22659500  1
  O  O34  1  0.00366300  0.00366300  0.52424000  1
  O  O35  1  0.24584600  0.75506100  0.53822600  1
loop_
_geom_bond_atom_site_label_1
_geom_bond_atom_site_label_2
_geom_bond_distance
_geom_bond_site_symmetry_2
Li0 O7 1.923773 1_655
Li0 O23 2.010278 1_555
Li0 O0 2.027599 1_555
Li0 O2 2.053789 1_555
Li1 O8 1.968116 1_555
Li1 O0 1.968116 1_555
Li1 O1 2.017865 1_555
Li1 O21 2.036876 1_555
Li2 O4 1.936090 1_555
Li2 O3 1.936090 1_555
Li2 O13 1.992108 1_556
Li2 O9 2.052824 1_555
Li3 O6 1.923773 1_565
Li3 O33 2.010278 1_555
Li3 O8 2.027599 1_555
Li3 O14 2.053789 1_555
Li4 O5 1.955329 1_455
Li4 O24 1.955329 1_545
Li4 O12 2.047678 1_446
Li4 O27 2.106803 1_555
Li5 O31 1.940562 1_545
Li5 O29 1.975131 1_555
Li5 O28 2.013554 1_555
Li5 O19 2.097741 1_555
Li6 O11 1.940562 1_455
Li6 O30 1.975131 1_555
Li6 O35 2.013554 1_555
Li6 O20 2.097741 1_555
Li7 O29 1.974752 1_555
Li7 O30 1.974752 1_555
Li7 O25 2.015061 1_555
Li7 O22 2.066486 1_555
Mn0 O11 2.021434 1_554
Mn0 O10 2.092170 1_554
Mn0 O21 2.161825 1_555
Mn0 O9 2.176422 1_554
Mn0 O23 2.219517 1_555
Mn1 O6 2.022387 1_555
Mn1 O13 2.202156 1_555
Mn1 O22 2.221444 1_555
Mn1 O19 2.273148 1_555
Mn1 O16 2.335347 1_555
Mn2 O7 2.022387 1_555
Mn2 O13 2.202156 1_555
Mn2 O22 2.221444 1_555
Mn2 O20 2.273148 1_555
Mn2 O17 2.335347 1_555
Mn3 O16 1.960976 1_555
Mn3 O19 1.977306 1_555
Mn3 O18 2.033868 1_545
Mn3 O12 2.038228 1_545
Mn3 O8 2.079275 1_545
Mn4 O5 2.016192 1_555
Mn4 O15 2.094685 1_655
Mn4 O28 2.156574 1_555
Mn4 O34 2.193556 1_655
Mn4 O2 2.226725 1_555
Mn5 O3 2.012719 1_555
Mn5 O1 2.159277 1_555
Mn5 O28 2.163858 1_555
Mn5 O2 2.182116 1_555
Mn5 O25 2.232152 1_555
Mn6 O4 2.012719 1_555
Mn6 O1 2.159277 1_555
Mn6 O35 2.163858 1_555
Mn6 O14 2.182116 1_555
Mn6 O25 2.232152 1_555
Mn7 O31 2.021434 1_554
Mn7 O26 2.092170 1_554
Mn7 O21 2.161825 1_555
Mn7 O9 2.176422 1_554
Mn7 O33 2.219517 1_555
Mn8 O29 2.079964 1_554
Mn8 O32 2.118515 1_555
Mn8 O26 2.135567 1_544
Mn8 O27 2.163974 1_554
Mn8 O33 2.214816 1_545
Mn9 O30 2.079964 1_554
Mn9 O32 2.118515 1_555
Mn9 O10 2.135567 1_454
Mn9 O27 2.163974 1_554
Mn9 O23 2.214816 1_455
Mn10 O17 1.960976 1_555
Mn10 O20 1.977306 1_555
Mn10 O18 2.033868 1_455
Mn10 O12 2.038228 1_455
Mn10 O0 2.079275 1_455
Mn11 O24 2.016192 1_555
Mn11 O15 2.094685 1_565
Mn11 O35 2.156574 1_555
Mn11 O34 2.193556 1_565
Mn11 O14 2.226725 1_555
B0 O24 1.373913 1_654
B0 O11 1.378456 1_554
B0 O0 1.404553 1_555
B1 O9 1.373954 1_555
B1 O1 1.376626 1_555
B1 O18 1.408502 1_555
B2 O5 1.373913 1_564
B2 O31 1.378456 1_554
B2 O8 1.404553 1_555
B3 O10 1.367828 1_555
B3 O2 1.374124 1_555
B3 O20 1.421395 1_655
B4 O26 1.367828 1_555
B4 O14 1.374124 1_555
B4 O19 1.421395 1_565
B5 O25 1.381866 1_555
B5 O13 1.399554 1_555
B5 O21 1.402960 1_555
B6 O15 1.379880 1_555
B6 O27 1.388745 1_555
B6 O22 1.390125 1_555
B7 O23 1.381831 1_555
B7 O28 1.392224 1_555
B7 O16 1.399042 1_555
B8 O34 1.354350 1_555
B8 O32 1.357123 1_555
B8 O12 1.467936 1_445
B9 O6 1.377017 1_556
B9 O3 1.381419 1_555
B9 O29 1.398741 1_555
B10 O7 1.377017 1_556
B10 O4 1.381419 1_555
B10 O30 1.398741 1_555
B11 O33 1.381831 1_555
B11 O35 1.392224 1_555
B11 O17 1.399042 1_555
