# generated using pymatgen
data_Li2TlAu
_symmetry_space_group_name_H-M   'P 1'
_cell_length_a   4.59129680
_cell_length_b   4.59129680
_cell_length_c   4.59129680
_cell_angle_alpha   60.00000000
_cell_angle_beta   60.00000000
_cell_angle_gamma   60.00000000
_symmetry_Int_Tables_number   1
_chemical_formula_structural   Li2TlAu
_chemical_formula_sum   'Li2 Tl1 Au1'
_cell_volume   68.43702247
_cell_formula_units_Z   1
loop_
 _symmetry_equiv_pos_site_id
 _symmetry_equiv_pos_as_xyz
  1  'x, y, z'
loop_
 _atom_site_type_symbol
 _atom_site_label
 _atom_site_symmetry_multiplicity
 _atom_site_fract_x
 _atom_site_fract_y
 _atom_site_fract_z
 _atom_site_occupancy
  Li  Li0  1  0.50000000  0.50000000  0.50000000  1
  Li  Li1  1  0.00000000  0.00000000  -0.00000000  1
  Tl  Tl0  1  0.74999900  0.74999900  0.74999900  1
  Au  Au0  1  0.25000000  0.25000000  0.25000000  1
loop_
_geom_bond_atom_site_label_1
_geom_bond_atom_site_label_2
_geom_bond_distance
_geom_bond_site_symmetry_2
Li0 Tl0 2.811572 1_555
Li0 Tl0 2.811587 1_554
Li0 Tl0 2.811587 1_545
Li0 Tl0 2.811587 1_455
Li1 Tl0 2.811580 1_445
Li1 Tl0 2.811580 1_544
Li1 Tl0 2.811580 1_454
Li1 Tl0 2.811595 1_444
Au0 Li0 2.811584 1_545
Au0 Li0 2.811584 1_455
Au0 Li0 2.811584 1_555
Au0 Li1 2.811584 1_555
Au0 Li1 2.811584 1_556
Au0 Li0 2.811584 1_554
Au0 Li1 2.811584 1_565
Au0 Li1 2.811584 1_655
