# generated using pymatgen
data_Yb2AsAu
_symmetry_space_group_name_H-M   'P 1'
_cell_length_a   4.96611314
_cell_length_b   4.96611314
_cell_length_c   4.96611314
_cell_angle_alpha   60.00000000
_cell_angle_beta   60.00000000
_cell_angle_gamma   60.00000000
_symmetry_Int_Tables_number   1
_chemical_formula_structural   Yb2AsAu
_chemical_formula_sum   'Yb2 As1 Au1'
_cell_volume   86.60337761
_cell_formula_units_Z   1
loop_
 _symmetry_equiv_pos_site_id
 _symmetry_equiv_pos_as_xyz
  1  'x, y, z'
loop_
 _atom_site_type_symbol
 _atom_site_label
 _atom_site_symmetry_multiplicity
 _atom_site_fract_x
 _atom_site_fract_y
 _atom_site_fract_z
 _atom_site_occupancy
  Yb  Yb0  1  0.25000000  0.25000000  0.25000000  1
  Yb  Yb1  1  0.75000000  0.75000000  0.75000000  1
  As  As0  1  0.50000000  0.50000000  0.50000000  1
  Au  Au0  1  0.00000000  0.00000000  0.00000000  1
loop_
_geom_bond_atom_site_label_1
_geom_bond_atom_site_label_2
_geom_bond_distance
_geom_bond_site_symmetry_2
As0 Yb0 3.041111 1_555
As0 Yb0 3.041111 1_556
As0 Yb1 3.041111 1_554
As0 Yb1 3.041111 1_545
As0 Yb1 3.041111 1_555
As0 Yb0 3.041111 1_565
As0 Yb0 3.041111 1_655
As0 Yb1 3.041111 1_455
Au0 Yb1 3.041111 1_445
Au0 Yb0 3.041111 1_545
Au0 Yb0 3.041111 1_555
Au0 Yb1 3.041111 1_454
Au0 Yb0 3.041111 1_554
Au0 Yb1 3.041111 1_444
Au0 Yb0 3.041111 1_455
Au0 Yb1 3.041111 1_544
