# generated using pymatgen
data_Li3Fe4F19
_symmetry_space_group_name_H-M   'P 1'
_cell_length_a   5.26190200
_cell_length_b   10.55447001
_cell_length_c   12.48214024
_cell_angle_alpha   104.19743613
_cell_angle_beta   95.32519089
_cell_angle_gamma   100.99142380
_symmetry_Int_Tables_number   1
_chemical_formula_structural   Li3Fe4F19
_chemical_formula_sum   'Li6 Fe8 F38'
_cell_volume   652.58062593
_cell_formula_units_Z   2
loop_
 _symmetry_equiv_pos_site_id
 _symmetry_equiv_pos_as_xyz
  1  'x, y, z'
loop_
 _atom_site_type_symbol
 _atom_site_label
 _atom_site_symmetry_multiplicity
 _atom_site_fract_x
 _atom_site_fract_y
 _atom_site_fract_z
 _atom_site_occupancy
  Li  Li0  1  0.54579500  0.83927700  0.93063600  1
  Li  Li1  1  0.26040400  0.25121300  0.51363100  1
  Li  Li2  1  0.39718000  0.52106900  0.20847100  1
  Li  Li3  1  0.60282000  0.47893100  0.79152900  1
  Li  Li4  1  0.73959600  0.74878700  0.48636900  1
  Li  Li5  1  0.45420500  0.16072300  0.06936400  1
  Fe  Fe0  1  0.11294200  0.93578300  0.77962200  1
  Fe  Fe1  1  0.12182500  0.61705400  0.62737300  1
  Fe  Fe2  1  0.06202700  0.34611100  0.94982900  1
  Fe  Fe3  1  0.35571300  0.89222700  0.37072000  1
  Fe  Fe4  1  0.64428700  0.10777300  0.62928000  1
  Fe  Fe5  1  0.93797300  0.65388900  0.05017100  1
  Fe  Fe6  1  0.87817500  0.38294600  0.37262700  1
  Fe  Fe7  1  0.88705800  0.06421700  0.22037800  1
  F  F0  1  0.08720100  0.81486900  0.42949000  1
  F  F1  1  0.12178600  0.99032200  0.31324700  1
  F  F2  1  0.35363500  0.01939200  0.92077800  1
  F  F3  1  0.14706500  0.75770400  0.20147900  1
  F  F4  1  0.20550700  0.72441400  0.98857800  1
  F  F5  1  0.28613800  0.78961000  0.78958300  1
  F  F6  1  0.13275500  0.52873500  0.08863600  1
  F  F7  1  0.12663100  0.42102500  0.51108700  1
  F  F8  1  0.03019200  0.21749700  0.36151300  1
  F  F9  1  0.13622500  0.45371500  0.30778300  1
  F  F10  1  0.11824800  0.15346700  0.87343200  1
  F  F11  1  0.38216600  0.69154000  0.56445000  1
  F  F12  1  0.35016100  0.55054200  0.70656000  1
  F  F13  1  0.32055600  0.41446100  0.88389300  1
  F  F14  1  0.48606600  0.72985700  0.33487800  1
  F  F15  1  0.61242700  0.98077500  0.29794600  1
  F  F16  1  0.16274300  0.11435200  0.14975600  1
  F  F17  1  0.30225100  0.32453200  0.06009500  1
  F  F18  1  0.61985400  0.91830100  0.50231500  1
  F  F19  1  0.38014600  0.08169900  0.49768500  1
  F  F20  1  0.69774900  0.67546800  0.93990500  1
  F  F21  1  0.83725700  0.88564800  0.85024400  1
  F  F22  1  0.38757300  0.01922500  0.70205400  1
  F  F23  1  0.51393400  0.27014300  0.66512200  1
  F  F24  1  0.67944400  0.58553900  0.11610700  1
  F  F25  1  0.64983900  0.44945800  0.29344000  1
  F  F26  1  0.61783400  0.30846000  0.43555000  1
  F  F27  1  0.88175200  0.84653300  0.12656800  1
  F  F28  1  0.86377500  0.54628500  0.69221700  1
  F  F29  1  0.96980800  0.78250300  0.63848700  1
  F  F30  1  0.87336900  0.57897500  0.48891300  1
  F  F31  1  0.86724500  0.47126500  0.91136400  1
  F  F32  1  0.71386200  0.21039000  0.21041700  1
  F  F33  1  0.79449300  0.27558600  0.01142200  1
  F  F34  1  0.85293500  0.24229600  0.79852100  1
  F  F35  1  0.64636500  0.98060800  0.07922200  1
  F  F36  1  0.87821400  0.00967800  0.68675300  1
  F  F37  1  0.91279900  0.18513100  0.57051000  1
loop_
_geom_bond_atom_site_label_1
_geom_bond_atom_site_label_2
_geom_bond_distance
_geom_bond_site_symmetry_2
F0 Fe3 1.802025 1_555
F0 Li4 2.081698 1_455
F1 Fe3 1.946299 1_555
F1 Fe7 2.005641 1_465
F2 Fe0 1.970807 1_545
F2 Li5 2.025999 1_556
F2 Li0 2.340087 1_545
F3 Fe5 2.029178 1_455
F3 Fe3 2.277648 1_555
F4 Fe5 1.791338 1_456
F4 Li0 2.245355 1_555
F5 Fe0 1.958409 1_555
F5 Li0 2.017190 1_555
F5 Fe1 2.330182 1_555
F6 Fe5 1.939555 1_455
F6 Li2 1.973797 1_555
F6 Fe2 2.196428 1_554
F7 Fe6 1.974123 1_455
F7 Li1 2.052700 1_555
F7 Fe1 2.223021 1_555
F8 Fe6 2.035385 1_455
F8 Fe7 2.044272 1_455
F8 Li1 2.067981 1_555
F9 Fe6 1.780601 1_455
F9 Li2 2.074484 1_555
F10 Fe2 2.112257 1_555
F10 Fe0 2.302258 1_545
F11 Fe1 1.789816 1_555
F11 Li4 2.246773 1_555
F12 Fe1 1.831637 1_555
F12 Li3 1.994557 1_555
F13 Fe2 1.781344 1_555
F13 Li3 2.077358 1_555
F14 Fe3 1.933026 1_555
F14 Li4 2.154074 1_555
F14 Li2 2.308421 1_555
F15 Fe3 1.919908 1_555
F15 Fe7 1.998496 1_565
F16 Fe7 1.826156 1_455
F16 Li5 1.959306 1_555
F17 Fe2 1.866716 1_554
F17 Li5 2.061537 1_555
F17 Li2 2.351844 1_555
F18 Fe3 1.978446 1_555
F18 Li4 1.978901 1_555
F18 Fe4 2.199262 1_565
F19 Fe4 1.978446 1_555
F19 Li1 1.978901 1_555
F19 Fe3 2.199262 1_545
F20 Fe5 1.866716 1_556
F20 Li0 2.061537 1_555
F20 Li3 2.351844 1_555
F21 Fe0 1.826156 1_655
F21 Li0 1.959306 1_555
F22 Fe4 1.919908 1_555
F22 Fe0 1.998496 1_545
F23 Fe4 1.933026 1_555
F23 Li1 2.154074 1_555
F23 Li3 2.308421 1_555
F24 Fe5 1.781344 1_555
F24 Li2 2.077358 1_555
F25 Fe6 1.831637 1_555
F25 Li2 1.994557 1_555
F26 Fe6 1.789816 1_555
F26 Li1 2.246773 1_555
F27 Fe5 2.112257 1_555
F27 Fe7 2.302258 1_565
F28 Fe1 1.780601 1_655
F28 Li3 2.074484 1_555
F29 Fe1 2.035385 1_655
F29 Fe0 2.044272 1_655
F29 Li4 2.067981 1_555
F30 Fe1 1.974123 1_655
F30 Li4 2.052700 1_555
F30 Fe6 2.223021 1_555
F31 Fe2 1.939555 1_655
F31 Li3 1.973797 1_555
F31 Fe5 2.196428 1_556
F32 Fe7 1.958409 1_555
F32 Li5 2.017190 1_555
F32 Fe6 2.330182 1_555
F33 Fe2 1.791338 1_654
F33 Li5 2.245355 1_555
F34 Fe2 2.029178 1_655
F34 Fe4 2.277648 1_555
F35 Fe7 1.970807 1_565
F35 Li0 2.025999 1_554
F35 Li5 2.340087 1_565
F36 Fe4 1.946299 1_555
F36 Fe0 2.005641 1_645
F37 Fe4 1.802025 1_555
F37 Li1 2.081698 1_655
