# generated using pymatgen
data_LiAgF6
_symmetry_space_group_name_H-M   'P 1'
_cell_length_a   7.81788921
_cell_length_b   7.81788921
_cell_length_c   7.81788921
_cell_angle_alpha   109.47122063
_cell_angle_beta   109.47122063
_cell_angle_gamma   109.47122063
_symmetry_Int_Tables_number   1
_chemical_formula_structural   LiAgF6
_chemical_formula_sum   'Li4 Ag4 F24'
_cell_volume   367.82957393
_cell_formula_units_Z   4
loop_
 _symmetry_equiv_pos_site_id
 _symmetry_equiv_pos_as_xyz
  1  'x, y, z'
loop_
 _atom_site_type_symbol
 _atom_site_label
 _atom_site_symmetry_multiplicity
 _atom_site_fract_x
 _atom_site_fract_y
 _atom_site_fract_z
 _atom_site_occupancy
  Li  Li0  1  0.50000000  0.50000000  0.00000000  1
  Li  Li1  1  0.00000000  0.00000000  0.00000000  1
  Li  Li2  1  0.00000000  0.50000000  0.50000000  1
  Li  Li3  1  0.50000000  0.00000000  0.50000000  1
  Ag  Ag0  1  0.50000000  0.00000000  0.00000000  1
  Ag  Ag1  1  0.00000000  0.50000000  0.00000000  1
  Ag  Ag2  1  0.50000000  0.50000000  0.50000000  1
  Ag  Ag3  1  0.00000000  0.00000000  0.50000000  1
  F  F0  1  0.94405500  0.72472536  0.03448003  1
  F  F1  1  0.53448003  0.80975467  0.09042503  1
  F  F2  1  0.27527464  0.96551997  0.05594500  1
  F  F3  1  0.90957497  0.46551997  0.19024533  1
  F  F4  1  0.77527464  0.71932964  0.30975467  1
  F  F5  1  0.28067036  0.69024533  0.22472536  1
  F  F6  1  0.44405500  0.40957497  0.21932964  1
  F  F7  1  0.96551997  0.05594500  0.27527464  1
  F  F8  1  0.69024533  0.22472536  0.28067036  1
  F  F9  1  0.19024533  0.90957497  0.46551997  1
  F  F10  1  0.59042503  0.78067036  0.55594500  1
  F  F11  1  0.78067036  0.55594500  0.59042503  1
  F  F12  1  0.21932964  0.44405500  0.40957497  1
  F  F13  1  0.40957497  0.21932964  0.44405500  1
  F  F14  1  0.80975467  0.09042503  0.53448003  1
  F  F15  1  0.30975467  0.77527464  0.71932964  1
  F  F16  1  0.03448003  0.94405500  0.72472536  1
  F  F17  1  0.55594500  0.59042503  0.78067036  1
  F  F18  1  0.71932964  0.30975467  0.77527464  1
  F  F19  1  0.22472536  0.28067036  0.69024533  1
  F  F20  1  0.09042503  0.53448003  0.80975467  1
  F  F21  1  0.72472536  0.03448003  0.94405500  1
  F  F22  1  0.46551997  0.19024533  0.90957497  1
  F  F23  1  0.05594500  0.27527464  0.96551997  1
loop_
_geom_bond_atom_site_label_1
_geom_bond_atom_site_label_2
_geom_bond_distance
_geom_bond_site_symmetry_2
Ag0 F2 1.904134 1_545
Ag0 F21 1.904134 1_554
Ag0 F15 1.904134 1_544
Ag0 F22 1.904134 1_554
Ag0 F1 1.904134 1_545
Ag0 F8 1.904134 1_555
Ag1 F23 1.904134 1_554
Ag1 F0 1.904134 1_455
Ag1 F3 1.904134 1_455
Ag1 F20 1.904134 1_554
Ag1 F5 1.904134 1_555
Ag1 F18 1.904134 1_454
Ag2 F17 1.904134 1_555
Ag2 F6 1.904134 1_555
Ag2 F13 1.904134 1_555
Ag2 F10 1.904134 1_555
Ag2 F12 1.904134 1_555
Ag2 F11 1.904134 1_555
Ag3 F7 1.904134 1_455
Ag3 F4 1.904134 1_445
Ag3 F16 1.904134 1_545
Ag3 F19 1.904134 1_555
Ag3 F9 1.904134 1_545
Ag3 F14 1.904134 1_455
F0 Li1 2.175589 1_665
F1 Li0 2.175589 1_555
F2 Li1 2.175589 1_565
F3 Li2 2.175589 1_655
F4 Li0 2.175589 1_555
F5 Li3 2.175589 1_565
F6 Li0 2.175589 1_555
F7 Li1 2.175589 1_655
F8 Li2 2.175589 1_655
F9 Li3 2.175589 1_565
F10 Li3 2.175589 1_565
F11 Li2 2.175589 1_655
F12 Li2 2.175589 1_555
F13 Li3 2.175589 1_555
F14 Li3 2.175589 1_555
F15 Li2 2.175589 1_555
F16 Li1 2.175589 1_566
F17 Li0 2.175589 1_556
F18 Li3 2.175589 1_555
F19 Li0 2.175589 1_556
F20 Li2 2.175589 1_555
F21 Li1 2.175589 1_656
F22 Li0 2.175589 1_556
F23 Li1 2.175589 1_556
