# generated using pymatgen
data_CaSnS3
_symmetry_space_group_name_H-M   'P 1'
_cell_length_a   12.32244500
_cell_length_b   13.00183032
_cell_length_c   17.19045021
_cell_angle_alpha   100.89577021
_cell_angle_beta   86.54603308
_cell_angle_gamma   114.51282350
_symmetry_Int_Tables_number   1
_chemical_formula_structural   CaSnS3
_chemical_formula_sum   'Ca18 Sn18 S54'
_cell_volume   2460.23574388
_cell_formula_units_Z   18
loop_
 _symmetry_equiv_pos_site_id
 _symmetry_equiv_pos_as_xyz
  1  'x, y, z'
loop_
 _atom_site_type_symbol
 _atom_site_label
 _atom_site_symmetry_multiplicity
 _atom_site_fract_x
 _atom_site_fract_y
 _atom_site_fract_z
 _atom_site_occupancy
  Ca  Ca0  1  0.44393800  0.89452400  0.11209500  1
  Ca  Ca1  1  0.55606200  0.10547600  0.88790500  1
  Ca  Ca2  1  0.68189200  0.89285800  0.74873500  1
  Ca  Ca3  1  0.31810800  0.10714200  0.25126500  1
  Ca  Ca4  1  0.03618200  0.82163600  0.36290400  1
  Ca  Ca5  1  0.96381800  0.17836400  0.63709600  1
  Ca  Ca6  1  0.38102900  0.37181800  0.04374200  1
  Ca  Ca7  1  0.61897100  0.62818200  0.95625800  1
  Ca  Ca8  1  0.76617800  0.44614300  0.75284900  1
  Ca  Ca9  1  0.23382200  0.55385700  0.24715100  1
  Ca  Ca10  1  0.09762300  0.37932700  0.46892600  1
  Ca  Ca11  1  0.90237700  0.62067300  0.53107400  1
  Ca  Ca12  1  0.22090700  0.00987700  0.99860100  1
  Ca  Ca13  1  0.77909300  0.99012300  0.00139900  1
  Ca  Ca14  1  0.51629500  0.04535800  0.62826200  1
  Ca  Ca15  1  0.48370500  0.95464200  0.37173800  1
  Ca  Ca16  1  0.91236600  0.07737000  0.30309900  1
  Ca  Ca17  1  0.08763400  0.92263000  0.69690100  1
  Sn  Sn0  1  0.43166600  0.24248600  0.77407600  1
  Sn  Sn1  1  0.56833400  0.75751400  0.22592400  1
  Sn  Sn2  1  0.74987200  0.28699600  0.48847800  1
  Sn  Sn3  1  0.25012800  0.71300400  0.51152200  1
  Sn  Sn4  1  0.01161500  0.29388500  0.11724700  1
  Sn  Sn5  1  0.98838500  0.70611500  0.88275300  1
  Sn  Sn6  1  0.16677100  0.46801400  0.93924100  1
  Sn  Sn7  1  0.83322900  0.53198600  0.06075900  1
  Sn  Sn8  1  0.51704000  0.44466900  0.60729100  1
  Sn  Sn9  1  0.48296000  0.55533100  0.39270900  1
  Sn  Sn10  1  0.85760500  0.52018900  0.31212200  1
  Sn  Sn11  1  0.14239500  0.47981100  0.68787800  1
  Sn  Sn12  1  0.31598000  0.79951800  0.83110200  1
  Sn  Sn13  1  0.68402000  0.20048200  0.16889800  1
  Sn  Sn14  1  0.71828000  0.85283300  0.51067300  1
  Sn  Sn15  1  0.28172000  0.14716700  0.48932700  1
  Sn  Sn16  1  0.00371400  0.78097100  0.12486400  1
  Sn  Sn17  1  0.99628600  0.21902900  0.87513600  1
  S  S0  1  0.62108300  0.22081000  0.75850900  1
  S  S1  1  0.37891700  0.77919000  0.24149100  1
  S  S2  1  0.88273100  0.19149900  0.47925600  1
  S  S3  1  0.11726900  0.80850100  0.52074400  1
  S  S4  1  0.25129800  0.21723400  0.14700900  1
  S  S5  1  0.74870200  0.78276600  0.85299100  1
  S  S6  1  0.38495600  0.20453200  0.90856200  1
  S  S7  1  0.61504400  0.79546800  0.09143800  1
  S  S8  1  0.73690400  0.44025900  0.59309100  1
  S  S9  1  0.26309600  0.55974100  0.40690900  1
  S  S10  1  0.83388800  0.11693000  0.16267200  1
  S  S11  1  0.16611200  0.88307000  0.83732800  1
  S  S12  1  0.31347600  0.09864900  0.66291800  1
  S  S13  1  0.68652400  0.90135100  0.33708200  1
  S  S14  1  0.54706300  0.15613100  0.48578000  1
  S  S15  1  0.45293700  0.84386900  0.51422000  1
  S  S16  1  0.08300900  0.32175800  0.25167400  1
  S  S17  1  0.91699100  0.67824200  0.74832600  1
  S  S18  1  0.14326800  0.65410900  0.94097300  1
  S  S19  1  0.85673200  0.34589100  0.05902700  1
  S  S20  1  0.62039000  0.68014700  0.63762600  1
  S  S21  1  0.37961000  0.31985300  0.36237400  1
  S  S22  1  0.80292800  0.65517200  0.40107500  1
  S  S23  1  0.19707200  0.34482800  0.59892500  1
  S  S24  1  0.37153100  0.49120200  0.92579900  1
  S  S25  1  0.62846900  0.50879800  0.07420100  1
  S  S26  1  0.51981800  0.44685900  0.75792200  1
  S  S27  1  0.48018200  0.55314100  0.24207800  1
  S  S28  1  0.04273500  0.62926000  0.25430600  1
  S  S29  1  0.95726500  0.37074000  0.74569400  1
  S  S30  1  0.19087500  0.46275200  0.08322800  1
  S  S31  1  0.80912500  0.53724800  0.91677200  1
  S  S32  1  0.31848600  0.61375400  0.76449700  1
  S  S33  1  0.68151400  0.38624600  0.23550300  1
  S  S34  1  0.90205600  0.42196000  0.40816000  1
  S  S35  1  0.09794400  0.57804000  0.59184000  1
  S  S36  1  0.40063100  0.91367200  0.95758200  1
  S  S37  1  0.59936900  0.08632800  0.04241800  1
  S  S38  1  0.72985100  0.01445900  0.62414000  1
  S  S39  1  0.27014900  0.98554100  0.37586000  1
  S  S40  1  0.92412200  0.86379900  0.23844200  1
  S  S41  1  0.07587800  0.13620100  0.76155800  1
  S  S42  1  0.46902600  0.92279700  0.75342800  1
  S  S43  1  0.53097400  0.07720300  0.24657200  1
  S  S44  1  0.94000800  0.96756300  0.45212000  1
  S  S45  1  0.05999200  0.03243700  0.54788000  1
  S  S46  1  0.21584200  0.90209200  0.13189600  1
  S  S47  1  0.78415800  0.09790800  0.86810400  1
  S  S48  1  0.59926600  0.80982200  0.89587100  1
  S  S49  1  0.40073400  0.19017800  0.10412900  1
  S  S50  1  0.80215000  0.77069900  0.61674600  1
  S  S51  1  0.19785000  0.22930100  0.38325400  1
  S  S52  1  0.96624300  0.84763900  0.00088900  1
  S  S53  1  0.03375700  0.15236100  0.99911100  1
loop_
_geom_bond_atom_site_label_1
_geom_bond_atom_site_label_2
_geom_bond_distance
_geom_bond_site_symmetry_2
Ca0 S1 2.808512 1_555
Ca0 S36 2.816542 1_554
Ca0 S46 2.850813 1_555
Ca0 S37 2.865569 1_565
Ca0 S7 2.867146 1_555
Ca0 S43 2.871396 1_565
Ca1 S0 2.808512 1_555
Ca1 S37 2.816542 1_556
Ca1 S47 2.850813 1_555
Ca1 S36 2.865569 1_545
Ca1 S6 2.867146 1_555
Ca1 S42 2.871396 1_545
Ca2 S38 2.790837 1_565
Ca2 S42 2.801465 1_555
Ca2 S5 2.839739 1_555
Ca2 S20 2.882610 1_555
Ca2 S47 2.891719 1_565
Ca2 S48 2.899941 1_555
Ca2 S50 3.170532 1_555
Ca3 S39 2.790837 1_545
Ca3 S43 2.801465 1_555
Ca3 S4 2.839739 1_555
Ca3 S21 2.882610 1_555
Ca3 S46 2.891719 1_545
Ca3 S49 2.899941 1_555
Ca3 S51 3.170532 1_555
Ca4 S39 2.775376 1_555
Ca4 S44 2.811252 1_455
Ca4 S28 2.851669 1_555
Ca4 S40 2.865748 1_455
Ca4 S22 2.919571 1_455
Ca4 S3 3.005531 1_555
Ca5 S38 2.775376 1_555
Ca5 S45 2.811252 1_655
Ca5 S29 2.851669 1_555
Ca5 S41 2.865748 1_655
Ca5 S23 2.919571 1_655
Ca5 S2 3.005531 1_555
Ca6 S24 2.811205 1_554
Ca6 S25 2.841943 1_555
Ca6 S4 2.843813 1_555
Ca6 S49 2.854294 1_555
Ca6 S6 2.880305 1_554
Ca6 S30 3.025356 1_555
Ca7 S25 2.811205 1_556
Ca7 S24 2.841943 1_555
Ca7 S5 2.843813 1_555
Ca7 S48 2.854294 1_555
Ca7 S7 2.880305 1_556
Ca7 S31 3.025356 1_555
Ca8 S0 2.744037 1_555
Ca8 S8 2.774031 1_555
Ca8 S17 2.825593 1_555
Ca8 S31 2.832214 1_555
Ca8 S29 2.890630 1_555
Ca8 S26 3.035582 1_555
Ca9 S1 2.744037 1_555
Ca9 S9 2.774031 1_555
Ca9 S16 2.825593 1_555
Ca9 S30 2.832214 1_555
Ca9 S28 2.890630 1_555
Ca9 S27 3.035582 1_555
Ca10 S9 2.740652 1_555
Ca10 S2 2.783625 1_455
Ca10 S23 2.803936 1_555
Ca10 S51 2.862348 1_555
Ca10 S34 2.972632 1_455
Ca10 S35 3.011389 1_555
Ca11 S8 2.740652 1_555
Ca11 S3 2.783625 1_655
Ca11 S22 2.803936 1_555
Ca11 S50 2.862348 1_555
Ca11 S35 2.972632 1_655
Ca11 S34 3.011389 1_555
Ca12 S49 2.874507 1_556
Ca12 S46 2.888339 1_546
Ca12 S11 2.904128 1_545
Ca12 S36 2.956941 1_545
Ca12 S52 2.970246 1_446
Ca12 S6 3.121862 1_555
Ca12 S4 3.254918 1_556
Ca12 S53 3.505261 1_555
Ca13 S48 2.874507 1_554
Ca13 S47 2.888339 1_564
Ca13 S10 2.904128 1_565
Ca13 S37 2.956941 1_565
Ca13 S53 2.970246 1_664
Ca13 S7 3.121862 1_555
Ca13 S5 3.254918 1_554
Ca13 S52 3.505261 1_555
Ca14 S0 2.803129 1_555
Ca14 S15 2.803834 1_545
Ca14 S42 2.807706 1_545
Ca14 S38 2.816986 1_555
Ca14 S12 2.860525 1_555
Ca14 S14 2.997648 1_555
Ca15 S1 2.803129 1_555
Ca15 S14 2.803834 1_565
Ca15 S43 2.807706 1_565
Ca15 S39 2.816986 1_555
Ca15 S13 2.860525 1_555
Ca15 S15 2.997648 1_555
Ca16 S40 2.848626 1_545
Ca16 S10 2.861916 1_555
Ca16 S13 2.889315 1_545
Ca16 S2 3.181669 1_555
Ca16 S16 3.254716 1_655
Ca16 S44 3.257015 1_545
Ca16 S51 3.459020 1_655
Ca17 S41 2.848626 1_565
Ca17 S11 2.861916 1_555
Ca17 S12 2.889315 1_565
Ca17 S3 3.181669 1_555
Ca17 S17 3.254716 1_455
Ca17 S45 3.257015 1_565
Ca17 S50 3.459020 1_455
S0 Sn0 2.457853 1_555
S1 Sn1 2.457853 1_555
S2 Sn2 2.414149 1_555
S3 Sn3 2.414149 1_555
S4 S49 2.081791 1_555
S6 Sn0 2.440254 1_555
S7 Sn1 2.440254 1_555
S8 Sn2 2.470887 1_555
S8 Sn8 2.728901 1_555
S9 Sn3 2.470887 1_555
S9 Sn9 2.728901 1_555
S10 Sn13 2.489769 1_555
S10 Sn4 2.644138 1_655
S11 Sn12 2.489769 1_555
S11 Sn5 2.644138 1_455
S12 Sn0 2.448297 1_555
S13 Sn1 2.448297 1_555
S14 Sn2 2.366096 1_555
S15 Sn3 2.366096 1_555
S16 Sn4 2.430880 1_555
S17 Sn5 2.430880 1_555
S18 Sn6 2.548001 1_555
S18 Sn5 2.580353 1_455
S18 Sn12 3.032791 1_555
S19 Sn7 2.548001 1_555
S19 Sn4 2.580353 1_655
S19 Sn13 3.032791 1_555
S20 S50 2.099080 1_555
S20 Sn8 2.740161 1_555
S21 S51 2.099080 1_555
S21 Sn9 2.740161 1_555
S22 Sn10 2.390572 1_555
S23 Sn11 2.390572 1_555
S24 Sn6 2.415659 1_555
S25 Sn7 2.415659 1_555
S26 Sn0 2.483018 1_555
S26 Sn8 2.586320 1_555
S27 Sn1 2.483018 1_555
S27 Sn9 2.586320 1_555
S28 Sn10 2.403783 1_455
S29 Sn11 2.403783 1_655
S30 Sn4 2.519378 1_555
S30 Sn6 2.527645 1_554
S31 Sn5 2.519378 1_555
S31 Sn7 2.527645 1_556
S32 Sn11 2.411956 1_555
S32 Sn12 2.481456 1_555
S33 Sn10 2.411956 1_555
S33 Sn13 2.481456 1_555
S34 Sn10 2.478569 1_555
S34 Sn2 2.524998 1_555
S35 Sn11 2.478569 1_555
S35 Sn3 2.524998 1_555
S36 Sn12 2.405605 1_555
S37 Sn13 2.405605 1_555
S38 Sn14 2.544855 1_545
S39 Sn15 2.544855 1_565
S40 Sn16 2.405109 1_655
S41 Sn17 2.405109 1_455
S42 Sn12 2.430229 1_555
S43 Sn13 2.430229 1_555
S44 S45 2.083451 1_665
S44 Sn14 2.749126 1_555
S45 Sn15 2.749126 1_555
S46 Sn16 2.424373 1_555
S47 Sn17 2.424373 1_555
S48 S5 2.081791 1_555
S50 Sn14 2.722580 1_555
S51 Sn15 2.722580 1_555
S52 Sn5 2.553750 1_554
S52 Sn16 2.579837 1_655
S53 Sn4 2.553750 1_556
S53 Sn17 2.579837 1_455
