# generated using pymatgen
data_ScTc3
_symmetry_space_group_name_H-M   'P 1'
_cell_length_a   4.41798259
_cell_length_b   4.41798259
_cell_length_c   4.41798259
_cell_angle_alpha   60.00000000
_cell_angle_beta   60.00000000
_cell_angle_gamma   60.00000000
_symmetry_Int_Tables_number   1
_chemical_formula_structural   ScTc3
_chemical_formula_sum   'Sc1 Tc3'
_cell_volume   60.97572926
_cell_formula_units_Z   1
loop_
 _symmetry_equiv_pos_site_id
 _symmetry_equiv_pos_as_xyz
  1  'x, y, z'
loop_
 _atom_site_type_symbol
 _atom_site_label
 _atom_site_symmetry_multiplicity
 _atom_site_fract_x
 _atom_site_fract_y
 _atom_site_fract_z
 _atom_site_occupancy
  Sc  Sc0  1  0.75000100  0.75000100  0.75000100  1
  Tc  Tc0  1  -0.00000000  -0.00000000  -0.00000000  1
  Tc  Tc1  1  0.50000000  0.50000000  0.50000000  1
  Tc  Tc2  1  0.25000100  0.25000100  0.25000100  1
loop_
_geom_bond_atom_site_label_1
_geom_bond_atom_site_label_2
_geom_bond_distance
_geom_bond_site_symmetry_2
Sc0 Tc0 2.705440 1_666
Sc0 Tc1 2.705447 1_556
Sc0 Tc1 2.705447 1_565
Sc0 Tc1 2.705447 1_655
Sc0 Tc0 2.705454 1_656
Sc0 Tc0 2.705454 1_566
Sc0 Tc0 2.705454 1_665
Sc0 Tc1 2.705462 1_555
Tc0 Tc2 2.705447 1_545
Tc0 Tc2 2.705447 1_455
Tc0 Tc2 2.705447 1_554
Tc0 Tc2 2.705462 1_555
Tc1 Tc2 2.705440 1_555
Tc1 Tc2 2.705454 1_655
Tc1 Tc2 2.705454 1_556
Tc1 Tc2 2.705454 1_565
