# generated using pymatgen
data_Ce3(TaN3)2
_symmetry_space_group_name_H-M   'P 1'
_cell_length_a   10.30483974
_cell_length_b   10.30483974
_cell_length_c   10.30483974
_cell_angle_alpha   157.45984535
_cell_angle_beta   157.45984535
_cell_angle_gamma   32.08918425
_symmetry_Int_Tables_number   1
_chemical_formula_structural   Ce3(TaN3)2
_chemical_formula_sum   'Ce3 Ta2 N6'
_cell_volume   160.66767124
_cell_formula_units_Z   1
loop_
 _symmetry_equiv_pos_site_id
 _symmetry_equiv_pos_as_xyz
  1  'x, y, z'
loop_
 _atom_site_type_symbol
 _atom_site_label
 _atom_site_symmetry_multiplicity
 _atom_site_fract_x
 _atom_site_fract_y
 _atom_site_fract_z
 _atom_site_occupancy
  Ce  Ce0  1  0.00000000  0.00000000  0.00000000  1
  Ce  Ce1  1  0.18260163  0.18260163  0.00000000  1
  Ce  Ce2  1  0.81739837  0.81739837  -0.00000000  1
  Ta  Ta0  1  0.59964732  0.59964732  -0.00000000  1
  Ta  Ta1  1  0.40035268  0.40035268  0.00000000  1
  N  N0  1  0.08255497  0.58255497  0.50000000  1
  N  N1  1  0.58255497  0.08255497  0.50000000  1
  N  N2  1  0.69872556  0.69872556  0.00000000  1
  N  N3  1  0.30127444  0.30127444  -0.00000000  1
  N  N4  1  0.41744503  0.91744503  0.50000000  1
  N  N5  1  0.91744503  0.41744503  0.50000000  1
loop_
_geom_bond_atom_site_label_1
_geom_bond_atom_site_label_2
_geom_bond_distance
_geom_bond_site_symmetry_2
Ce0 N5 2.594145 1_455
Ce0 N0 2.594145 1_555
Ce0 N5 2.594145 1_444
Ce0 N1 2.594145 1_555
Ce0 N1 2.594145 1_454
Ce0 N0 2.594145 1_544
Ce0 N4 2.594145 1_545
Ce0 N4 2.594145 1_444
Ce1 N3 2.350537 1_555
Ce1 N0 2.825357 1_555
Ce1 N1 2.825357 1_555
Ce1 N1 2.825357 1_454
Ce1 N0 2.825357 1_544
Ce1 N2 2.865957 1_545
Ce1 N2 2.865957 1_444
Ce1 N2 2.865957 1_455
Ce1 N2 2.865957 1_556
Ce2 N2 2.350537 1_555
Ce2 N5 2.825357 1_554
Ce2 N4 2.825357 1_554
Ce2 N5 2.825357 1_565
Ce2 N4 2.825357 1_655
Ce2 N3 2.865957 1_554
Ce2 N3 2.865957 1_565
Ce2 N3 2.865957 1_655
Ce2 N3 2.865957 1_666
N0 Ta0 2.042173 1_455
N0 Ta0 2.042173 1_556
N1 Ta0 2.042173 1_556
N1 Ta0 2.042173 1_545
N2 Ta0 1.962430 1_555
N3 Ta1 1.962430 1_555
N4 Ta1 2.042173 1_555
N4 Ta1 2.042173 1_566
N5 Ta1 2.042173 1_555
N5 Ta1 2.042173 1_656
