# generated using pymatgen
data_FeSO6
_symmetry_space_group_name_H-M   'P 1'
_cell_length_a   9.41889400
_cell_length_b   7.08042900
_cell_length_c   10.79428590
_cell_angle_alpha   58.21981170
_cell_angle_beta   90.00000000
_cell_angle_gamma   90.00000000
_symmetry_Int_Tables_number   1
_chemical_formula_structural   FeSO6
_chemical_formula_sum   'Fe4 S4 O24'
_cell_volume   611.94243083
_cell_formula_units_Z   4
loop_
 _symmetry_equiv_pos_site_id
 _symmetry_equiv_pos_as_xyz
  1  'x, y, z'
loop_
 _atom_site_type_symbol
 _atom_site_label
 _atom_site_symmetry_multiplicity
 _atom_site_fract_x
 _atom_site_fract_y
 _atom_site_fract_z
 _atom_site_occupancy
  Fe  Fe0  1  0.69846200  0.86938800  0.31568700  1
  Fe  Fe1  1  0.80153800  0.86938800  0.81568700  1
  Fe  Fe2  1  0.30153800  0.13061200  0.68431300  1
  Fe  Fe3  1  0.19846200  0.13061200  0.18431300  1
  S  S0  1  0.60293400  0.43709800  0.21181100  1
  S  S1  1  0.89706600  0.43709800  0.71181100  1
  S  S2  1  0.39706600  0.56290200  0.78818900  1
  S  S3  1  0.10293400  0.56290200  0.28818900  1
  O  O0  1  0.67877200  0.48533900  0.08297600  1
  O  O1  1  0.82122800  0.48533900  0.58297600  1
  O  O2  1  0.32122800  0.51466100  0.91702400  1
  O  O3  1  0.17877200  0.51466100  0.41702400  1
  O  O4  1  0.66588600  0.48295300  0.31447400  1
  O  O5  1  0.83411400  0.48295300  0.81447400  1
  O  O6  1  0.33411400  0.51704700  0.68552600  1
  O  O7  1  0.16588600  0.51704700  0.18552600  1
  O  O8  1  0.96324900  0.65743100  0.26165800  1
  O  O9  1  0.53675100  0.65743100  0.76165800  1
  O  O10  1  0.03675100  0.34256900  0.73834200  1
  O  O11  1  0.46324900  0.34256900  0.23834200  1
  O  O12  1  0.81968000  0.98586100  0.36056800  1
  O  O13  1  0.68032000  0.98586100  0.86056800  1
  O  O14  1  0.18032000  0.01413900  0.63943200  1
  O  O15  1  0.31968000  0.01413900  0.13943200  1
  O  O16  1  0.55725100  0.79747700  0.41636900  1
  O  O17  1  0.94274900  0.79747700  0.91636900  1
  O  O18  1  0.44274900  0.20252300  0.58363100  1
  O  O19  1  0.05725100  0.20252300  0.08363100  1
  O  O20  1  0.68344600  0.97926400  0.14121500  1
  O  O21  1  0.81655400  0.97926400  0.64121500  1
  O  O22  1  0.31655400  0.02073600  0.85878500  1
  O  O23  1  0.18344600  0.02073600  0.35878500  1
loop_
_geom_bond_atom_site_label_1
_geom_bond_atom_site_label_2
_geom_bond_distance
_geom_bond_site_symmetry_2
Fe0 O16 1.620659 1_555
Fe0 O20 1.621352 1_555
Fe0 O12 1.624559 1_555
Fe1 O17 1.620659 1_555
Fe1 O21 1.621352 1_555
Fe1 O13 1.624559 1_555
Fe2 O18 1.620659 1_555
Fe2 O22 1.621352 1_555
Fe2 O14 1.624559 1_555
Fe3 O19 1.620659 1_555
Fe3 O23 1.621352 1_555
Fe3 O15 1.624559 1_555
O0 S0 1.435466 1_555
O1 S1 1.435466 1_555
O2 S2 1.435466 1_555
O3 S3 1.435466 1_555
O4 S0 1.436669 1_555
O5 S1 1.436669 1_555
O6 S2 1.436669 1_555
O7 S3 1.436669 1_555
O8 S3 1.434955 1_655
O9 S2 1.434955 1_555
O10 S1 1.434955 1_455
O11 S0 1.434955 1_555
