# generated using pymatgen
data_LiEr2Os
_symmetry_space_group_name_H-M   'P 1'
_cell_length_a   4.82657836
_cell_length_b   4.82657836
_cell_length_c   4.82657836
_cell_angle_alpha   60.00000000
_cell_angle_beta   60.00000000
_cell_angle_gamma   60.00000000
_symmetry_Int_Tables_number   1
_chemical_formula_structural   LiEr2Os
_chemical_formula_sum   'Li1 Er2 Os1'
_cell_volume   79.50658265
_cell_formula_units_Z   1
loop_
 _symmetry_equiv_pos_site_id
 _symmetry_equiv_pos_as_xyz
  1  'x, y, z'
loop_
 _atom_site_type_symbol
 _atom_site_label
 _atom_site_symmetry_multiplicity
 _atom_site_fract_x
 _atom_site_fract_y
 _atom_site_fract_z
 _atom_site_occupancy
  Li  Li0  1  0.25000100  0.25000100  0.25000100  1
  Er  Er0  1  0.50000000  0.50000000  0.50000000  1
  Er  Er1  1  -0.00000000  -0.00000000  -0.00000000  1
  Os  Os0  1  0.75000100  0.75000100  0.75000100  1
loop_
_geom_bond_atom_site_label_1
_geom_bond_atom_site_label_2
_geom_bond_distance
_geom_bond_site_symmetry_2
Er0 Li0 2.955652 1_555
Er0 Os0 2.955660 1_455
Er0 Os0 2.955660 1_554
Er0 Os0 2.955660 1_545
Er0 Li0 2.955667 1_556
Er0 Li0 2.955667 1_565
Er0 Li0 2.955667 1_655
Er0 Os0 2.955675 1_555
Er1 Os0 2.955652 1_444
Er1 Li0 2.955660 1_545
Er1 Li0 2.955660 1_455
Er1 Li0 2.955660 1_554
Er1 Os0 2.955667 1_544
Er1 Os0 2.955667 1_445
Er1 Os0 2.955667 1_454
Er1 Li0 2.955675 1_555
