# generated using pymatgen
data_LuNi5Sn
_symmetry_space_group_name_H-M   'P 1'
_cell_length_a   4.77849312
_cell_length_b   7.90320916
_cell_length_c   10.10311673
_cell_angle_alpha   90.00000000
_cell_angle_beta   90.00000000
_cell_angle_gamma   90.00000000
_symmetry_Int_Tables_number   1
_chemical_formula_structural   LuNi5Sn
_chemical_formula_sum   'Lu4 Ni20 Sn4'
_cell_volume   381.54855368
_cell_formula_units_Z   4
loop_
 _symmetry_equiv_pos_site_id
 _symmetry_equiv_pos_as_xyz
  1  'x, y, z'
loop_
 _atom_site_type_symbol
 _atom_site_label
 _atom_site_symmetry_multiplicity
 _atom_site_fract_x
 _atom_site_fract_y
 _atom_site_fract_z
 _atom_site_occupancy
  Lu  Lu0  1  0.75000000  0.24566680  0.56044640  1
  Lu  Lu1  1  0.25000000  0.25433320  0.06044640  1
  Lu  Lu2  1  0.75000000  0.74566680  0.93955360  1
  Lu  Lu3  1  0.25000000  0.75433320  0.43955360  1
  Ni  Ni0  1  0.75000000  0.91440836  0.48266271  1
  Ni  Ni1  1  0.25000000  0.58559164  0.98266271  1
  Ni  Ni2  1  0.75000000  0.41440836  0.01733729  1
  Ni  Ni3  1  0.25000000  0.08559164  0.51733729  1
  Ni  Ni4  1  0.25000000  0.18888902  0.74196722  1
  Ni  Ni5  1  0.75000000  0.31111098  0.24196722  1
  Ni  Ni6  1  0.25000000  0.68888902  0.75803278  1
  Ni  Ni7  1  0.75000000  0.81111098  0.25803278  1
  Ni  Ni8  1  0.75000000  0.54712959  0.40115370  1
  Ni  Ni9  1  0.25000000  0.95287041  0.90115370  1
  Ni  Ni10  1  0.75000000  0.04712959  0.09884630  1
  Ni  Ni11  1  0.25000000  0.45287041  0.59884630  1
  Ni  Ni12  1  0.49901626  0.06625895  0.30951663  1
  Ni  Ni13  1  0.50098374  0.43374105  0.80951663  1
  Ni  Ni14  1  0.00098374  0.56625895  0.19048337  1
  Ni  Ni15  1  0.99901626  0.93374105  0.69048337  1
  Ni  Ni16  1  0.50098374  0.93374105  0.69048337  1
  Ni  Ni17  1  0.49901626  0.56625895  0.19048337  1
  Ni  Ni18  1  0.99901626  0.43374105  0.80951663  1
  Ni  Ni19  1  0.00098374  0.06625895  0.30951663  1
  Sn  Sn0  1  0.75000000  0.63969866  0.63930499  1
  Sn  Sn1  1  0.25000000  0.86030134  0.13930499  1
  Sn  Sn2  1  0.75000000  0.13969866  0.86069501  1
  Sn  Sn3  1  0.25000000  0.36030134  0.36069501  1
loop_
_geom_bond_atom_site_label_1
_geom_bond_atom_site_label_2
_geom_bond_distance
_geom_bond_site_symmetry_2
Lu0 Ni0 2.733408 1_545
Lu0 Ni3 2.738373 1_555
Lu0 Ni3 2.738373 1_655
Lu0 Ni8 2.875141 1_555
Lu0 Ni11 2.922440 1_555
Lu0 Ni11 2.922440 1_655
Lu0 Ni16 3.036316 1_545
Lu0 Ni15 3.036316 1_545
Lu0 Ni4 3.045183 1_555
Lu0 Ni4 3.045183 1_655
Lu0 Ni19 3.142597 1_655
Lu0 Ni12 3.142597 1_555
Lu0 Sn2 3.146933 1_555
Lu0 Ni13 3.155546 1_555
Lu0 Ni18 3.155546 1_555
Lu0 Sn0 3.214417 1_555
Lu0 Sn3 3.256083 1_655
Lu0 Sn3 3.256083 1_555
Lu0 Ni5 3.258937 1_555
Lu1 Ni1 2.733408 1_554
Lu1 Ni2 2.738373 1_455
Lu1 Ni2 2.738373 1_555
Lu1 Ni9 2.875141 1_544
Lu1 Ni10 2.922440 1_555
Lu1 Ni10 2.922440 1_455
Lu1 Ni17 3.036316 1_555
Lu1 Ni14 3.036316 1_555
Lu1 Ni5 3.045183 1_555
Lu1 Ni5 3.045183 1_455
Lu1 Ni18 3.142597 1_454
Lu1 Ni13 3.142597 1_554
Lu1 Sn3 3.146933 1_555
Lu1 Ni19 3.155546 1_555
Lu1 Ni12 3.155546 1_555
Lu1 Sn1 3.214417 1_545
Lu1 Sn2 3.256083 1_454
Lu1 Sn2 3.256083 1_554
Lu1 Ni4 3.258937 1_554
Lu2 Ni2 2.733408 1_556
Lu2 Ni1 2.738373 1_655
Lu2 Ni1 2.738373 1_555
Lu2 Ni10 2.875141 1_566
Lu2 Ni9 2.922440 1_555
Lu2 Ni9 2.922440 1_655
Lu2 Ni13 3.036316 1_555
Lu2 Ni18 3.036316 1_555
Lu2 Ni6 3.045183 1_655
Lu2 Ni6 3.045183 1_555
Lu2 Ni14 3.142597 1_656
Lu2 Ni17 3.142597 1_556
Lu2 Sn0 3.146933 1_555
Lu2 Ni15 3.155546 1_555
Lu2 Ni16 3.155546 1_555
Lu2 Sn2 3.214417 1_565
Lu2 Sn1 3.256083 1_656
Lu2 Sn1 3.256083 1_556
Lu2 Ni7 3.258937 1_556
Lu3 Ni3 2.733408 1_565
Lu3 Ni0 2.738373 1_555
Lu3 Ni0 2.738373 1_455
Lu3 Ni11 2.875141 1_555
Lu3 Ni8 2.922440 1_455
Lu3 Ni8 2.922440 1_555
Lu3 Ni12 3.036316 1_565
Lu3 Ni19 3.036316 1_565
Lu3 Ni7 3.045183 1_555
Lu3 Ni7 3.045183 1_455
Lu3 Ni16 3.142597 1_555
Lu3 Ni15 3.142597 1_455
Lu3 Sn1 3.146933 1_555
Lu3 Ni17 3.155546 1_555
Lu3 Ni14 3.155546 1_555
Lu3 Sn3 3.214417 1_555
Lu3 Sn0 3.256083 1_555
Lu3 Sn0 3.256083 1_455
Lu3 Ni6 3.258937 1_555
Ni0 Ni7 2.411833 1_555
Ni0 Ni16 2.418209 1_555
Ni0 Ni15 2.418209 1_555
Ni0 Ni12 2.436953 1_565
Ni0 Ni19 2.436953 1_665
Ni0 Sn0 2.686665 1_555
Ni0 Ni3 2.767951 1_665
Ni0 Ni3 2.767951 1_565
Ni0 Ni8 3.017234 1_555
Ni1 Ni6 2.411833 1_555
Ni1 Ni14 2.418209 1_556
Ni1 Ni17 2.418209 1_556
Ni1 Ni18 2.436953 1_455
Ni1 Ni13 2.436953 1_555
Ni1 Sn1 2.686665 1_556
Ni1 Ni2 2.767951 1_456
Ni1 Ni2 2.767951 1_556
Ni1 Ni9 3.017234 1_555
Ni2 Ni5 2.411833 1_555
Ni2 Sn2 2.686665 1_554
Ni3 Ni4 2.411833 1_555
Ni3 Sn3 2.686665 1_555
Ni4 Ni9 2.462910 1_545
Ni4 Sn2 2.701571 1_555
Ni4 Sn2 2.701571 1_455
Ni5 Ni8 2.462910 1_555
Ni5 Sn3 2.701571 1_655
Ni5 Sn3 2.701571 1_555
Ni6 Ni9 2.538399 1_555
Ni6 Sn0 2.701571 1_455
Ni6 Sn0 2.701571 1_555
Ni7 Ni8 2.538399 1_555
Ni7 Sn1 2.701571 1_555
Ni7 Sn1 2.701571 1_655
Ni8 Sn0 2.514836 1_555
Ni8 Sn3 2.838267 1_555
Ni8 Sn3 2.838267 1_655
Ni9 Sn1 2.514836 1_556
Ni9 Sn2 2.838267 1_465
Ni9 Sn2 2.838267 1_565
Ni10 Ni19 2.447741 1_655
Ni10 Ni12 2.447741 1_555
Ni10 Ni7 2.462910 1_545
Ni10 Sn2 2.514836 1_554
Ni10 Ni5 2.538399 1_555
Ni10 Sn1 2.838267 1_545
Ni10 Sn1 2.838267 1_645
Ni10 Ni2 3.017234 1_555
Ni11 Ni13 2.447741 1_555
Ni11 Ni18 2.447741 1_455
Ni11 Ni6 2.462910 1_555
Ni11 Sn3 2.514836 1_555
Ni11 Ni4 2.538399 1_555
Ni11 Sn0 2.838267 1_555
Ni11 Sn0 2.838267 1_455
Ni11 Ni3 3.017234 1_555
Ni12 Ni5 2.376722 1_555
Ni12 Ni19 2.379845 1_555
Ni12 Ni19 2.398648 1_655
Ni12 Ni7 2.403155 1_545
Ni12 Ni3 2.418209 1_555
Ni12 Sn1 2.650031 1_545
Ni12 Sn3 2.661518 1_555
Ni13 Ni4 2.376722 1_555
Ni13 Ni18 2.379845 1_555
Ni13 Ni18 2.398648 1_455
Ni13 Ni6 2.403155 1_555
Ni13 Ni2 2.418209 1_556
Ni13 Sn0 2.650031 1_555
Ni13 Sn2 2.661518 1_555
Ni14 Ni7 2.376722 1_455
Ni14 Ni17 2.379845 1_555
Ni14 Ni17 2.398648 1_455
Ni14 Ni5 2.403155 1_455
Ni14 Ni2 2.436953 1_455
Ni14 Ni8 2.447741 1_455
Ni14 Sn3 2.650031 1_555
Ni14 Sn1 2.661518 1_555
Ni15 Ni6 2.376722 1_655
Ni15 Ni16 2.379845 1_555
Ni15 Ni16 2.398648 1_655
Ni15 Ni4 2.403155 1_665
Ni15 Ni3 2.436953 1_665
Ni15 Ni9 2.447741 1_655
Ni15 Sn2 2.650031 1_565
Ni15 Sn0 2.661518 1_555
Ni16 Ni6 2.376722 1_555
Ni16 Ni4 2.403155 1_565
Ni16 Ni3 2.436953 1_565
Ni16 Ni9 2.447741 1_555
Ni16 Sn2 2.650031 1_565
Ni16 Sn0 2.661518 1_555
Ni17 Ni7 2.376722 1_555
Ni17 Ni5 2.403155 1_555
Ni17 Ni2 2.436953 1_555
Ni17 Ni8 2.447741 1_555
Ni17 Sn3 2.650031 1_555
Ni17 Sn1 2.661518 1_555
Ni18 Ni4 2.376722 1_655
Ni18 Ni6 2.403155 1_655
Ni18 Ni2 2.418209 1_556
Ni18 Sn0 2.650031 1_555
Ni18 Sn2 2.661518 1_555
Ni19 Ni5 2.376722 1_455
Ni19 Ni7 2.403155 1_445
Ni19 Ni3 2.418209 1_555
Ni19 Sn1 2.650031 1_545
Ni19 Sn3 2.661518 1_555
