# generated using pymatgen
data_H16RhN5(Cl2O)3
_symmetry_space_group_name_H-M   'P 1'
_cell_length_a   9.33784635
_cell_length_b   9.33784635
_cell_length_c   9.33784639
_cell_angle_alpha   43.55420994
_cell_angle_beta   43.55420994
_cell_angle_gamma   43.55420981
_symmetry_Int_Tables_number   1
_chemical_formula_structural   H16RhN5(Cl2O)3
_chemical_formula_sum   'H16 Rh1 N5 Cl6 O3'
_cell_volume   350.78770388
_cell_formula_units_Z   1
loop_
 _symmetry_equiv_pos_site_id
 _symmetry_equiv_pos_as_xyz
  1  'x, y, z'
loop_
 _atom_site_type_symbol
 _atom_site_label
 _atom_site_symmetry_multiplicity
 _atom_site_fract_x
 _atom_site_fract_y
 _atom_site_fract_z
 _atom_site_occupancy
  H  H0  1  0.33676900  0.33676900  0.33676900  1
  H  H1  1  0.66323100  0.66323100  0.66323100  1
  H  H2  1  0.46750400  0.75285100  0.60951200  1
  H  H3  1  0.60951200  0.46750400  0.75285100  1
  H  H4  1  0.75285100  0.60951200  0.46750400  1
  H  H5  1  0.87353000  0.87353000  0.87353000  1
  H  H6  1  0.01722700  0.25153200  0.27214400  1
  H  H7  1  0.27214400  0.01722700  0.25153200  1
  H  H8  1  0.25153200  0.27214400  0.01722700  1
  H  H9  1  0.74846800  0.98277300  0.72785600  1
  H  H10  1  0.72785600  0.74846800  0.98277300  1
  H  H11  1  0.98277300  0.72785600  0.74846800  1
  H  H12  1  0.12647000  0.12647000  0.12647000  1
  H  H13  1  0.24714900  0.53249600  0.39048800  1
  H  H14  1  0.39048800  0.24714900  0.53249600  1
  H  H15  1  0.53249600  0.39048800  0.24714900  1
  Rh  Rh0  1  0.00000000  0.00000000  0.00000000  1
  N  N0  1  0.62228800  0.62228800  0.62228800  1
  N  N1  1  0.16739500  0.16739500  0.16739500  1
  N  N2  1  0.50000000  0.50000000  0.50000000  1
  N  N3  1  0.83260500  0.83260500  0.83260500  1
  N  N4  1  0.37771200  0.37771200  0.37771200  1
  Cl  Cl0  1  0.11470300  0.08908700  0.62484900  1
  Cl  Cl1  1  0.08908700  0.62484900  0.11470300  1
  Cl  Cl2  1  0.62484900  0.11470300  0.08908700  1
  Cl  Cl3  1  0.37515100  0.91091300  0.88529700  1
  Cl  Cl4  1  0.91091300  0.88529700  0.37515100  1
  Cl  Cl5  1  0.88529700  0.37515100  0.91091300  1
  O  O0  1  0.68351100  0.31648900  0.50000000  1
  O  O1  1  0.50000000  0.68351100  0.31648900  1
  O  O2  1  0.31648900  0.50000000  0.68351100  1
loop_
_geom_bond_atom_site_label_1
_geom_bond_atom_site_label_2
_geom_bond_distance
_geom_bond_site_symmetry_2
H0 N4 1.036384 1_555
H1 N0 1.036384 1_555
H2 N0 1.036652 1_555
H3 N0 1.036652 1_555
H4 N0 1.036652 1_555
H5 N3 1.035929 1_555
H6 N1 1.034066 1_555
H7 N1 1.034066 1_555
H8 N1 1.034066 1_555
H9 N3 1.034066 1_555
H10 N3 1.034066 1_555
H11 N3 1.034066 1_555
H12 N1 1.035929 1_555
H13 N4 1.036652 1_555
H14 N4 1.036652 1_555
H15 N4 1.036652 1_555
N2 O0 1.271478 1_555
N2 O2 1.271478 1_555
N2 O1 1.271478 1_555
Cl0 Rh0 2.395840 1_556
Cl1 Rh0 2.395840 1_565
Cl2 Rh0 2.395840 1_655
Cl3 Rh0 2.395840 1_566
Cl4 Rh0 2.395840 1_665
Cl5 Rh0 2.395840 1_656
