# generated using pymatgen
data_CaSmZn2
_symmetry_space_group_name_H-M   'P 1'
_cell_length_a   5.13975293
_cell_length_b   5.13975293
_cell_length_c   5.13975293
_cell_angle_alpha   60.00932321
_cell_angle_beta   60.00932321
_cell_angle_gamma   60.00932321
_symmetry_Int_Tables_number   1
_chemical_formula_structural   CaSmZn2
_chemical_formula_sum   'Ca1 Sm1 Zn2'
_cell_volume   96.02924534
_cell_formula_units_Z   1
loop_
 _symmetry_equiv_pos_site_id
 _symmetry_equiv_pos_as_xyz
  1  'x, y, z'
loop_
 _atom_site_type_symbol
 _atom_site_label
 _atom_site_symmetry_multiplicity
 _atom_site_fract_x
 _atom_site_fract_y
 _atom_site_fract_z
 _atom_site_occupancy
  Ca  Ca0  1  0.25000000  0.25000000  0.25000000  1
  Sm  Sm0  1  0.75000100  0.75000100  0.75000100  1
  Zn  Zn0  1  0.99996015  0.99996015  0.99996015  1
  Zn  Zn1  1  0.50003985  0.50003985  0.50003985  1
loop_
_geom_bond_atom_site_label_1
_geom_bond_atom_site_label_2
_geom_bond_distance
_geom_bond_site_symmetry_2
Ca0 Zn0 3.147645 1_544
Ca0 Zn1 3.147645 1_455
Ca0 Zn1 3.147645 1_545
Ca0 Zn0 3.147645 1_454
Ca0 Zn0 3.147645 1_445
Ca0 Zn1 3.147645 1_554
Ca0 Zn0 3.147723 1_444
Ca0 Zn1 3.147723 1_555
Sm0 Zn0 3.146707 1_555
Sm0 Zn1 3.146732 1_555
Sm0 Zn1 3.147976 1_556
Sm0 Zn1 3.147976 1_655
Sm0 Zn1 3.147976 1_565
Sm0 Zn0 3.147984 1_455
Sm0 Zn0 3.147984 1_545
Sm0 Zn0 3.147984 1_554
