# generated using pymatgen
data_Lu2CdS4
_symmetry_space_group_name_H-M   'P 1'
_cell_length_a   7.80911241
_cell_length_b   7.80911185
_cell_length_c   7.80911228
_cell_angle_alpha   59.99999817
_cell_angle_beta   60.00000053
_cell_angle_gamma   60.00000046
_symmetry_Int_Tables_number   1
_chemical_formula_structural   Lu2CdS4
_chemical_formula_sum   'Lu4 Cd2 S8'
_cell_volume   336.73633747
_cell_formula_units_Z   2
loop_
 _symmetry_equiv_pos_site_id
 _symmetry_equiv_pos_as_xyz
  1  'x, y, z'
loop_
 _atom_site_type_symbol
 _atom_site_label
 _atom_site_symmetry_multiplicity
 _atom_site_fract_x
 _atom_site_fract_y
 _atom_site_fract_z
 _atom_site_occupancy
  Lu  Lu0  1  0.50000000  0.50000000  0.00000000  1
  Lu  Lu1  1  0.50000000  0.50000000  0.50000000  1
  Lu  Lu2  1  0.00000000  0.50000000  0.50000000  1
  Lu  Lu3  1  0.50000000  0.00000000  0.50000000  1
  Cd  Cd0  1  0.87500000  0.87500000  0.87500000  1
  Cd  Cd1  1  0.12500000  0.12500000  0.12500000  1
  S  S0  1  0.74159919  0.74159919  0.74159919  1
  S  S1  1  0.25840081  0.25840081  0.72479857  1
  S  S2  1  0.25840081  0.72479857  0.25840081  1
  S  S3  1  0.72479857  0.25840081  0.25840081  1
  S  S4  1  0.74159919  0.27520143  0.74159919  1
  S  S5  1  0.27520143  0.74159919  0.74159919  1
  S  S6  1  0.25840081  0.25840081  0.25840081  1
  S  S7  1  0.74159919  0.74159919  0.27520143  1
loop_
_geom_bond_atom_site_label_1
_geom_bond_atom_site_label_2
_geom_bond_distance
_geom_bond_site_symmetry_2
Lu0 S0 2.671386 1_554
Lu0 S6 2.671386 1_555
Lu0 S3 2.671391 1_555
Lu0 S5 2.671391 1_554
Lu0 S2 2.671391 1_555
Lu0 S4 2.671391 1_554
Lu1 S7 2.671385 1_555
Lu1 S1 2.671385 1_555
Lu1 S5 2.671385 1_555
Lu1 S3 2.671385 1_555
Lu1 S4 2.671385 1_555
Lu1 S2 2.671385 1_555
Lu2 S0 2.671386 1_455
Lu2 S6 2.671386 1_555
Lu2 S4 2.671391 1_455
Lu2 S2 2.671391 1_555
Lu2 S7 2.671391 1_455
Lu2 S1 2.671391 1_555
Lu3 S0 2.671386 1_545
Lu3 S6 2.671386 1_555
Lu3 S5 2.671391 1_545
Lu3 S3 2.671391 1_555
Lu3 S1 2.671391 1_555
Lu3 S7 2.671391 1_545
Cd0 S4 2.551730 1_565
Cd0 S7 2.551730 1_556
Cd0 S5 2.551730 1_655
Cd0 S0 2.551736 1_555
Cd1 S2 2.551730 1_545
Cd1 S1 2.551730 1_554
Cd1 S3 2.551730 1_455
Cd1 S6 2.551736 1_555
