# generated using pymatgen
data_MnV2Os
_symmetry_space_group_name_H-M   'P 1'
_cell_length_a   4.16091082
_cell_length_b   4.16091082
_cell_length_c   4.16091010
_cell_angle_alpha   59.99992557
_cell_angle_beta   59.99992557
_cell_angle_gamma   59.99989701
_symmetry_Int_Tables_number   1
_chemical_formula_structural   MnV2Os
_chemical_formula_sum   'Mn1 V2 Os1'
_cell_volume   50.93887215
_cell_formula_units_Z   1
loop_
 _symmetry_equiv_pos_site_id
 _symmetry_equiv_pos_as_xyz
  1  'x, y, z'
loop_
 _atom_site_type_symbol
 _atom_site_label
 _atom_site_symmetry_multiplicity
 _atom_site_fract_x
 _atom_site_fract_y
 _atom_site_fract_z
 _atom_site_occupancy
  Mn  Mn0  1  0.24999900  0.24999900  0.24999900  1
  V  V0  1  0.50000000  0.50000000  0.50000000  1
  V  V1  1  -0.00000000  -0.00000000  0.00000000  1
  Os  Os0  1  0.74999900  0.74999900  0.74999900  1
loop_
_geom_bond_atom_site_label_1
_geom_bond_atom_site_label_2
_geom_bond_distance
_geom_bond_site_symmetry_2
Mn0 V1 2.548018 1_555
Mn0 V0 2.548021 1_545
Mn0 V0 2.548021 1_455
Mn0 V0 2.548021 1_554
Mn0 V1 2.548028 1_655
Mn0 V1 2.548028 1_565
Mn0 V1 2.548028 1_556
Mn0 V0 2.548039 1_555
Os0 V0 2.548018 1_555
Os0 V1 2.548021 1_566
Os0 V1 2.548021 1_656
Os0 V1 2.548021 1_665
Os0 V0 2.548028 1_655
Os0 V0 2.548028 1_565
Os0 V0 2.548028 1_556
Os0 V1 2.548039 1_666
