# generated using pymatgen
data_Ba2Tb2Mn4O11
_symmetry_space_group_name_H-M   'P 1'
_cell_length_a   9.61076898
_cell_length_b   9.61076898
_cell_length_c   9.61076898
_cell_angle_alpha   132.93880975
_cell_angle_beta   129.09120765
_cell_angle_gamma   71.83385050
_symmetry_Int_Tables_number   1
_chemical_formula_structural   Ba2Tb2Mn4O11
_chemical_formula_sum   'Ba4 Tb4 Mn8 O22'
_cell_volume   493.44685920
_cell_formula_units_Z   2
loop_
 _symmetry_equiv_pos_site_id
 _symmetry_equiv_pos_as_xyz
  1  'x, y, z'
loop_
 _atom_site_type_symbol
 _atom_site_label
 _atom_site_symmetry_multiplicity
 _atom_site_fract_x
 _atom_site_fract_y
 _atom_site_fract_z
 _atom_site_occupancy
  Ba  Ba0  1  0.49928900  0.75107500  0.74821400  1
  Ba  Ba1  1  0.50071100  0.24892500  0.25178600  1
  Ba  Ba2  1  0.00286100  0.25107500  0.75178600  1
  Ba  Ba3  1  0.99713900  0.74892500  0.24821400  1
  Tb  Tb0  1  0.27974700  0.50354900  0.77619800  1
  Tb  Tb1  1  0.72025300  0.49645100  0.22380200  1
  Tb  Tb2  1  0.72735000  0.00354900  0.72380200  1
  Tb  Tb3  1  0.27265000  0.99645100  0.27619800  1
  Mn  Mn0  1  0.11424200  0.36424200  0.25000000  1
  Mn  Mn1  1  0.88575800  0.13575800  0.25000000  1
  Mn  Mn2  1  0.88575800  0.63575800  0.75000000  1
  Mn  Mn3  1  0.11424200  0.86424200  0.75000000  1
  Mn  Mn4  1  0.37565200  0.62565200  0.25000000  1
  Mn  Mn5  1  0.62434800  0.87434800  0.25000000  1
  Mn  Mn6  1  0.62434800  0.37434800  0.75000000  1
  Mn  Mn7  1  0.37565200  0.12565200  0.75000000  1
  O  O0  1  0.33149600  0.31559000  0.44803500  1
  O  O1  1  0.66850400  0.11654000  0.98409400  1
  O  O2  1  0.86755400  0.38346000  0.05196500  1
  O  O3  1  0.13244600  0.18441000  0.51590600  1
  O  O4  1  0.66850400  0.68441000  0.55196500  1
  O  O5  1  0.33149600  0.88346000  0.01590600  1
  O  O6  1  0.13244600  0.61654000  0.94803500  1
  O  O7  1  0.86755400  0.81559000  0.48409400  1
  O  O8  1  0.25135400  0.50135400  0.25000000  1
  O  O9  1  0.74864600  0.99864600  0.25000000  1
  O  O10  1  0.74864600  0.49864600  0.75000000  1
  O  O11  1  0.25135400  0.00135400  0.75000000  1
  O  O12  1  0.13537400  0.59121700  0.54415700  1
  O  O13  1  0.86462600  0.40878300  0.45584300  1
  O  O14  1  0.04706000  0.09121700  0.95584300  1
  O  O15  1  0.95294000  0.90878300  0.04415700  1
  O  O16  1  0.35594700  0.88549700  0.47045000  1
  O  O17  1  0.64405300  0.11450300  0.52955000  1
  O  O18  1  0.41504800  0.38549700  0.02955000  1
  O  O19  1  0.58495200  0.61450300  0.97045000  1
  O  O20  1  0.50000000  0.75000000  0.25000000  1
  O  O21  1  0.50000000  0.25000000  0.75000000  1
loop_
_geom_bond_atom_site_label_1
_geom_bond_atom_site_label_2
_geom_bond_distance
_geom_bond_site_symmetry_2
Ba0 O8 2.808105 1_555
Ba0 O11 2.808105 1_565
Ba0 O19 2.809028 1_555
Ba0 O10 2.829975 1_555
Ba0 O9 2.829975 1_556
Ba0 O4 2.860916 1_555
Ba0 O1 2.860925 1_565
Ba0 O12 3.005734 1_555
Ba0 O16 3.105525 1_555
Ba0 O0 3.214236 1_555
Ba0 O5 3.214238 1_556
Ba1 O9 2.808105 1_545
Ba1 O10 2.808105 1_555
Ba1 O18 2.809028 1_555
Ba1 O11 2.829975 1_554
Ba1 O8 2.829975 1_555
Ba1 O0 2.860916 1_555
Ba1 O5 2.860925 1_545
Ba1 O13 3.005734 1_555
Ba1 O17 3.105525 1_555
Ba1 O4 3.214236 1_555
Ba1 O1 3.214238 1_554
Ba2 O11 2.808105 1_555
Ba2 O8 2.808105 1_556
Ba2 O17 2.809024 1_455
Ba2 O9 2.829975 1_445
Ba2 O10 2.829975 1_455
Ba2 O3 2.860925 1_555
Ba2 O6 2.860929 1_555
Ba2 O14 3.005734 1_555
Ba2 O18 3.105533 1_556
Ba2 O7 3.214238 1_445
Ba2 O2 3.214247 1_456
Ba3 O9 2.808105 1_555
Ba3 O10 2.808105 1_554
Ba3 O16 2.809024 1_655
Ba3 O8 2.829975 1_655
Ba3 O11 2.829975 1_665
Ba3 O7 2.860925 1_555
Ba3 O2 2.860929 1_555
Ba3 O15 3.005734 1_555
Ba3 O19 3.105533 1_554
Ba3 O3 3.214238 1_665
Ba3 O6 3.214247 1_654
Mn0 O0 1.947507 1_555
Mn0 O2 1.947509 1_455
Mn0 O12 1.985490 1_555
Mn0 O14 1.985490 1_554
Mn0 O8 2.134411 1_555
Mn1 O3 1.947511 1_655
Mn1 O1 1.947511 1_554
Mn1 O13 1.985490 1_555
Mn1 O15 1.985490 1_545
Mn1 O9 2.134411 1_545
Mn2 O4 1.947507 1_555
Mn2 O6 1.947509 1_655
Mn2 O15 1.985490 1_556
Mn2 O13 1.985490 1_555
Mn2 O10 2.134411 1_555
Mn3 O5 1.947511 1_556
Mn3 O7 1.947511 1_455
Mn3 O14 1.985490 1_565
Mn3 O12 1.985490 1_555
Mn3 O11 2.134411 1_565
Mn4 O8 1.934937 1_555
Mn4 O20 1.935715 1_555
Mn4 O16 1.940028 1_555
Mn4 O18 1.940033 1_555
Mn4 O4 2.262764 1_555
Mn4 O6 2.262767 1_554
Mn5 O9 1.934937 1_555
Mn5 O20 1.935715 1_555
Mn5 O19 1.940025 1_554
Mn5 O17 1.940028 1_565
Mn5 O7 2.262761 1_555
Mn5 O5 2.262761 1_555
Mn6 O10 1.934937 1_555
Mn6 O21 1.935715 1_555
Mn6 O17 1.940028 1_555
Mn6 O19 1.940033 1_555
Mn6 O0 2.262764 1_555
Mn6 O2 2.262767 1_556
Mn7 O11 1.934937 1_555
Mn7 O21 1.935715 1_555
Mn7 O18 1.940025 1_556
Mn7 O16 1.940028 1_545
Mn7 O1 2.262761 1_555
Mn7 O3 2.262761 1_555
O0 Tb3 2.336084 1_545
O0 Tb0 2.667093 1_555
O1 Tb2 2.336076 1_555
O1 Tb1 2.667085 1_556
O2 Tb1 2.336076 1_555
O2 Tb2 2.667086 1_554
O3 Tb0 2.336083 1_555
O3 Tb3 2.667093 1_545
O4 Tb2 2.336084 1_565
O4 Tb1 2.667093 1_555
O5 Tb3 2.336076 1_555
O5 Tb0 2.667085 1_554
O6 Tb0 2.336076 1_555
O6 Tb3 2.667086 1_556
O7 Tb1 2.336083 1_555
O7 Tb2 2.667093 1_565
O12 Tb0 2.353120 1_555
O12 Tb1 3.029923 1_455
O13 Tb1 2.353120 1_555
O13 Tb0 3.029923 1_655
O14 Tb2 2.353128 1_455
O14 Tb3 3.029923 1_546
O15 Tb3 2.353128 1_655
O15 Tb2 3.029923 1_564
O16 Tb3 2.357659 1_555
O16 Tb2 2.785284 1_565
O17 Tb2 2.357659 1_555
O17 Tb3 2.785284 1_545
O18 Tb1 2.357648 1_555
O18 Tb0 2.785290 1_554
O19 Tb0 2.357648 1_555
O19 Tb1 2.785290 1_556
O20 Tb3 2.664965 1_555
O20 Tb2 2.664971 1_565
O20 Tb1 2.664971 1_555
O20 Tb0 2.664971 1_554
O21 Tb2 2.664965 1_555
O21 Tb3 2.664971 1_545
O21 Tb1 2.664971 1_556
O21 Tb0 2.664971 1_555
