# generated using pymatgen
data_Lu3Ni7B2
_symmetry_space_group_name_H-M   'P 1'
_cell_length_a   4.96373104
_cell_length_b   4.96372398
_cell_length_c   14.07120286
_cell_angle_alpha   89.99960746
_cell_angle_beta   90.00009614
_cell_angle_gamma   119.99612297
_symmetry_Int_Tables_number   1
_chemical_formula_structural   Lu3Ni7B2
_chemical_formula_sum   'Lu6 Ni14 B4'
_cell_volume   300.25806837
_cell_formula_units_Z   2
loop_
 _symmetry_equiv_pos_site_id
 _symmetry_equiv_pos_as_xyz
  1  'x, y, z'
loop_
 _atom_site_type_symbol
 _atom_site_label
 _atom_site_symmetry_multiplicity
 _atom_site_fract_x
 _atom_site_fract_y
 _atom_site_fract_z
 _atom_site_occupancy
  Lu  Lu0  1  0.33332999  0.66666999  0.53270642  1
  Lu  Lu1  1  0.66666476  0.33332670  0.03272915  1
  Lu  Lu2  1  0.66667678  0.33332560  0.46727198  1
  Lu  Lu3  1  0.33331786  0.66667071  0.96728805  1
  Lu  Lu4  1  0.33331859  0.66666563  0.74997322  1
  Lu  Lu5  1  0.66668281  0.33333635  0.25002416  1
  Ni  Ni0  1  0.99999150  0.99999855  0.00007638  1
  Ni  Ni1  1  0.00000883  0.00000052  0.49991776  1
  Ni  Ni2  1  0.16573075  0.33144942  0.14744570  1
  Ni  Ni3  1  0.83428097  0.66858610  0.64725999  1
  Ni  Ni4  1  0.66856674  0.83428068  0.14744641  1
  Ni  Ni5  1  0.16572845  0.83429013  0.14744678  1
  Ni  Ni6  1  0.83428873  0.16571125  0.64726191  1
  Ni  Ni7  1  0.33141416  0.16571883  0.64726269  1
  Ni  Ni8  1  0.83425305  0.66854467  0.85260507  1
  Ni  Ni9  1  0.83426018  0.16571362  0.85260224  1
  Ni  Ni10  1  0.33142992  0.16572156  0.85260166  1
  Ni  Ni11  1  0.66861319  0.83429030  0.35269467  1
  Ni  Ni12  1  0.16571824  0.83429667  0.35269148  1
  Ni  Ni13  1  0.16572117  0.33139990  0.35269322  1
  B  B0  1  0.33334628  0.66666714  0.25005096  1
  B  B1  1  0.66665970  0.33333587  0.74995067  1
  B  B2  1  1.00000804  0.00000524  0.25004497  1
  B  B3  1  0.99998932  0.99999255  0.74995447  1
loop_
_geom_bond_atom_site_label_1
_geom_bond_atom_site_label_2
_geom_bond_distance
_geom_bond_site_symmetry_2
Lu0 Ni1 2.902590 1_565
Lu0 Ni1 2.902835 1_555
Lu0 Ni1 2.902874 1_665
Lu0 Ni12 2.914251 1_555
Lu0 Ni11 2.914353 1_555
Lu0 Ni13 2.914353 1_555
Lu0 Ni3 2.959355 1_555
Lu0 Ni7 2.959367 1_555
Lu0 Ni3 2.959418 1_455
Lu0 Ni7 2.959441 1_565
Lu0 Ni6 2.959514 1_455
Lu0 Ni6 2.959528 1_565
Lu0 Lu4 3.057205 1_555
Lu1 Ni0 2.902305 1_545
Lu1 Ni0 2.902535 1_555
Lu1 Ni0 2.902549 1_445
Lu1 Ni9 2.915569 1_554
Lu1 Ni8 2.915581 1_554
Lu1 Ni10 2.915671 1_554
Lu1 Ni4 2.960616 1_545
Lu1 Ni2 2.960619 1_555
Lu1 Ni2 2.960652 1_655
Lu1 Ni4 2.960660 1_555
Lu1 Ni5 2.960701 1_545
Lu1 Ni5 2.960828 1_655
Lu1 Lu5 3.057602 1_555
Lu2 Ni1 2.902294 1_655
Lu2 Ni1 2.902509 1_555
Lu2 Ni1 2.902539 1_665
Lu2 Ni6 2.913919 1_555
Lu2 Ni3 2.914025 1_555
Lu2 Ni7 2.914052 1_555
Lu2 Ni11 2.959542 1_555
Lu2 Ni13 2.959548 1_555
Lu2 Ni11 2.959589 1_545
Lu2 Ni13 2.959611 1_655
Lu2 Ni12 2.959694 1_545
Lu2 Ni12 2.959732 1_655
Lu2 Lu5 3.056938 1_555
Lu3 Ni0 2.902604 1_456
Lu3 Ni0 2.902839 1_446
Lu3 Ni0 2.902853 1_556
Lu3 Ni5 2.915959 1_556
Lu3 Ni2 2.915999 1_556
Lu3 Ni4 2.916079 1_556
Lu3 Ni10 2.960370 1_565
Lu3 Ni8 2.960373 1_555
Lu3 Ni8 2.960383 1_455
Lu3 Ni10 2.960433 1_555
Lu3 Ni9 2.960483 1_565
Lu3 Ni9 2.960558 1_455
Lu3 Lu4 3.057881 1_555
Lu4 Ni10 2.871427 1_555
Lu4 Ni8 2.871440 1_555
Lu4 Ni10 2.871445 1_565
Lu4 Ni8 2.871487 1_455
Lu4 Ni9 2.871552 1_565
Lu4 Ni9 2.871583 1_455
Lu4 Ni7 2.872003 1_555
Lu4 Ni3 2.872028 1_455
Lu4 Ni7 2.872032 1_565
Lu4 Ni3 2.872052 1_555
Lu4 Ni6 2.872123 1_455
Lu4 Ni6 2.872178 1_565
Lu5 Ni2 2.871050 1_655
Lu5 Ni4 2.871075 1_545
Lu5 Ni4 2.871080 1_555
Lu5 Ni2 2.871121 1_555
Lu5 Ni5 2.871195 1_655
Lu5 Ni5 2.871210 1_545
Lu5 Ni11 2.871695 1_555
Lu5 Ni13 2.871702 1_555
Lu5 Ni13 2.871753 1_655
Lu5 Ni11 2.871774 1_545
Lu5 Ni12 2.871836 1_655
Lu5 Ni12 2.871842 1_545
Ni0 Ni4 2.515958 1_555
Ni0 Ni5 2.515961 1_655
Ni0 Ni2 2.516022 1_665
Ni0 Ni9 2.517167 1_564
Ni0 Ni10 2.517205 1_664
Ni0 Ni8 2.517213 1_554
Ni1 Ni11 2.514188 1_445
Ni1 Ni13 2.514202 1_555
Ni1 Ni12 2.514223 1_545
Ni1 Ni3 2.515603 1_445
Ni1 Ni7 2.515624 1_555
Ni1 Ni6 2.515633 1_455
B0 Ni5 2.039886 1_555
B0 Ni4 2.039891 1_555
B0 Ni2 2.039898 1_555
B0 Ni12 2.040309 1_555
B0 Ni13 2.040403 1_555
B0 Ni11 2.040427 1_555
B0 Lu5 2.865756 1_555
B0 Lu5 2.865910 1_455
B0 Lu5 2.865930 1_565
B1 Ni9 2.040303 1_555
B1 Ni8 2.040360 1_555
B1 Ni10 2.040382 1_555
B1 Ni6 2.040778 1_555
B1 Ni7 2.040803 1_555
B1 Ni3 2.040833 1_555
B1 Lu4 2.865772 1_555
B1 Lu4 2.865890 1_655
B1 Lu4 2.865935 1_545
B2 Ni5 2.028313 1_645
B2 Ni4 2.028391 1_545
B2 Ni2 2.028396 1_655
B2 Ni12 2.028737 1_645
B2 Ni13 2.028752 1_655
B2 Ni11 2.028759 1_545
B2 Lu5 2.865709 1_555
B2 Lu5 2.865929 1_545
B2 Lu5 2.865958 1_655
B3 Ni9 2.028854 1_565
B3 Ni10 2.028876 1_665
B3 Ni8 2.028922 1_555
B3 Ni6 2.029200 1_565
B3 Ni3 2.029250 1_555
B3 Ni7 2.029271 1_665
B3 Lu4 2.865708 1_655
B3 Lu4 2.865941 1_555
B3 Lu4 2.865947 1_665
