# generated using pymatgen
data_ScZn2Ag
_symmetry_space_group_name_H-M   'P 1'
_cell_length_a   4.52959691
_cell_length_b   4.52959691
_cell_length_c   4.52959691
_cell_angle_alpha   60.00000000
_cell_angle_beta   60.00000000
_cell_angle_gamma   60.00000000
_symmetry_Int_Tables_number   1
_chemical_formula_structural   ScZn2Ag
_chemical_formula_sum   'Sc1 Zn2 Ag1'
_cell_volume   65.71487240
_cell_formula_units_Z   1
loop_
 _symmetry_equiv_pos_site_id
 _symmetry_equiv_pos_as_xyz
  1  'x, y, z'
loop_
 _atom_site_type_symbol
 _atom_site_label
 _atom_site_symmetry_multiplicity
 _atom_site_fract_x
 _atom_site_fract_y
 _atom_site_fract_z
 _atom_site_occupancy
  Sc  Sc0  1  0.75000000  0.75000000  0.75000000  1
  Zn  Zn0  1  -0.00000000  0.00000000  -0.00000000  1
  Zn  Zn1  1  0.50000100  0.50000100  0.50000100  1
  Ag  Ag0  1  0.24999900  0.24999900  0.24999900  1
loop_
_geom_bond_atom_site_label_1
_geom_bond_atom_site_label_2
_geom_bond_distance
_geom_bond_site_symmetry_2
Sc0 Zn1 2.773789 1_555
Sc0 Zn0 2.773800 1_656
Sc0 Zn0 2.773800 1_566
Sc0 Zn0 2.773800 1_666
Sc0 Zn0 2.773800 1_665
Sc0 Zn1 2.773804 1_565
Sc0 Zn1 2.773804 1_556
Sc0 Zn1 2.773804 1_655
Ag0 Zn0 2.773789 1_555
Ag0 Zn1 2.773793 1_545
Ag0 Zn1 2.773793 1_554
Ag0 Zn1 2.773793 1_455
Ag0 Zn0 2.773804 1_655
Ag0 Zn0 2.773804 1_565
Ag0 Zn0 2.773804 1_556
Ag0 Zn1 2.773822 1_555
