# generated using pymatgen
data_LiPrGe2
_symmetry_space_group_name_H-M   'P 1'
_cell_length_a   7.86207601
_cell_length_b   3.96721429
_cell_length_c   10.74121618
_cell_angle_alpha   89.99990097
_cell_angle_beta   90.00064311
_cell_angle_gamma   89.99577689
_symmetry_Int_Tables_number   1
_chemical_formula_structural   LiPrGe2
_chemical_formula_sum   'Li4 Pr4 Ge8'
_cell_volume   335.02433526
_cell_formula_units_Z   4
loop_
 _symmetry_equiv_pos_site_id
 _symmetry_equiv_pos_as_xyz
  1  'x, y, z'
loop_
 _atom_site_type_symbol
 _atom_site_label
 _atom_site_symmetry_multiplicity
 _atom_site_fract_x
 _atom_site_fract_y
 _atom_site_fract_z
 _atom_site_occupancy
  Li  Li0  1  0.50832764  0.75047544  0.11012057  1
  Li  Li1  1  0.00826771  0.74982189  0.38988835  1
  Li  Li2  1  0.99165895  0.24959718  0.61012390  1
  Li  Li3  1  0.49176425  0.24993308  0.88991980  1
  Pr  Pr0  1  0.13930840  0.24986267  0.13486725  1
  Pr  Pr1  1  0.63931034  0.24998014  0.36513113  1
  Pr  Pr2  1  0.36070052  0.75018956  0.63481255  1
  Pr  Pr3  1  0.86069791  0.75003490  0.86518276  1
  Ge  Ge0  1  0.72080875  0.24977556  0.06898311  1
  Ge  Ge1  1  0.84223096  0.74970666  0.18279734  1
  Ge  Ge2  1  0.34223063  0.75001690  0.31719312  1
  Ge  Ge3  1  0.22080610  0.25000860  0.43099361  1
  Ge  Ge4  1  0.77918319  0.75024672  0.56914492  1
  Ge  Ge5  1  0.65776822  0.25031760  0.68289180  1
  Ge  Ge6  1  0.15776743  0.25005253  0.81710534  1
  Ge  Ge7  1  0.27917001  0.74999758  0.93084445  1
loop_
_geom_bond_atom_site_label_1
_geom_bond_atom_site_label_2
_geom_bond_distance
_geom_bond_site_symmetry_2
Ge0 Ge1 2.517878 1_555
Ge0 Ge1 2.518194 1_545
Ge0 Li0 2.628716 1_545
Ge0 Li0 2.632719 1_555
Ge0 Li3 2.634764 1_554
Ge0 Pr3 3.151502 1_544
Ge0 Pr3 3.152894 1_554
Ge0 Pr1 3.244888 1_555
Ge0 Pr0 3.365512 1_655
Ge1 Li1 2.579144 1_655
Ge1 Li0 2.738775 1_555
Ge1 Pr0 3.106747 1_655
Ge1 Pr0 3.107756 1_665
Ge1 Pr1 3.211202 1_555
Ge1 Pr1 3.212401 1_565
Ge1 Pr3 3.414657 1_554
Ge2 Ge3 2.517902 1_565
Ge2 Ge3 2.518061 1_555
Ge2 Li0 2.579239 1_555
Ge2 Li1 2.739297 1_555
Ge2 Pr1 3.107253 1_555
Ge2 Pr1 3.107288 1_565
Ge2 Pr0 3.211281 1_565
Ge2 Pr0 3.212186 1_555
Ge2 Pr2 3.414706 1_555
Ge3 Li1 2.630287 1_555
Ge3 Li1 2.631591 1_545
Ge3 Li2 2.635871 1_455
Ge3 Pr2 3.151829 1_545
Ge3 Pr2 3.152839 1_555
Ge3 Pr0 3.244645 1_555
Ge3 Pr1 3.365514 1_555
Ge4 Ge5 2.517506 1_555
Ge4 Ge5 2.517841 1_565
Ge4 Li2 2.628549 1_565
Ge4 Li2 2.632249 1_555
Ge4 Li1 2.636525 1_655
Ge4 Pr1 3.153010 1_565
Ge4 Pr1 3.154448 1_555
Ge4 Pr3 3.243739 1_555
Ge4 Pr2 3.364909 1_555
Ge5 Li3 2.578456 1_555
Ge5 Li2 2.738976 1_555
Ge5 Pr2 3.107016 1_555
Ge5 Pr2 3.107886 1_545
Ge5 Pr3 3.210916 1_555
Ge5 Pr3 3.212152 1_545
Ge5 Pr1 3.416218 1_555
Ge6 Ge7 2.517471 1_555
Ge6 Ge7 2.517700 1_545
Ge6 Li2 2.578415 1_455
Ge6 Li3 2.739900 1_555
Ge6 Pr3 3.107313 1_455
Ge6 Pr3 3.107621 1_445
Ge6 Pr2 3.211175 1_545
Ge6 Pr2 3.211988 1_555
Ge6 Pr0 3.416235 1_556
Ge7 Li3 2.630798 1_565
Ge7 Li3 2.631000 1_555
Ge7 Li0 2.637042 1_556
Ge7 Pr0 3.153397 1_566
Ge7 Pr0 3.154168 1_556
Ge7 Pr2 3.243715 1_555
Ge7 Pr3 3.364798 1_455
