# generated using pymatgen
data_Rb3GePSe7
_symmetry_space_group_name_H-M   'P 1'
_cell_length_a   7.42543100
_cell_length_b   10.01162044
_cell_length_c   12.19816921
_cell_angle_alpha   101.30810655
_cell_angle_beta   89.53086448
_cell_angle_gamma   111.42880094
_symmetry_Int_Tables_number   1
_chemical_formula_structural   Rb3GePSe7
_chemical_formula_sum   'Rb6 Ge2 P2 Se14'
_cell_volume   825.74340087
_cell_formula_units_Z   2
loop_
 _symmetry_equiv_pos_site_id
 _symmetry_equiv_pos_as_xyz
  1  'x, y, z'
loop_
 _atom_site_type_symbol
 _atom_site_label
 _atom_site_symmetry_multiplicity
 _atom_site_fract_x
 _atom_site_fract_y
 _atom_site_fract_z
 _atom_site_occupancy
  Rb  Rb0  1  0.94080100  0.48017500  0.21032600  1
  Rb  Rb1  1  0.05919900  0.51982500  0.78967400  1
  Rb  Rb2  1  0.31970800  0.12581900  0.60401900  1
  Rb  Rb3  1  0.68029200  0.87418100  0.39598100  1
  Rb  Rb4  1  0.38552200  0.19405200  0.98878300  1
  Rb  Rb5  1  0.61447800  0.80594800  0.01121700  1
  Ge  Ge0  1  0.60105000  0.56357800  0.62809600  1
  Ge  Ge1  1  0.39895000  0.43642200  0.37190400  1
  P  P0  1  0.76935500  0.07141500  0.78062500  1
  P  P1  1  0.23064500  0.92858500  0.21937500  1
  Se  Se0  1  0.89001900  0.22370800  0.94345500  1
  Se  Se1  1  0.10998100  0.77629200  0.05654500  1
  Se  Se2  1  0.95551000  0.93457900  0.80519300  1
  Se  Se3  1  0.04449000  0.06542100  0.19480700  1
  Se  Se4  1  0.91676100  0.76260800  0.63329300  1
  Se  Se5  1  0.08323900  0.23739200  0.36670700  1
  Se  Se6  1  0.65045100  0.39157900  0.46884100  1
  Se  Se7  1  0.34954900  0.60842100  0.53115900  1
  Se  Se8  1  0.53057100  0.48465400  0.79403900  1
  Se  Se9  1  0.46942900  0.51534600  0.20596100  1
  Se  Se10  1  0.53621600  0.07026200  0.22406100  1
  Se  Se11  1  0.46378400  0.92973800  0.77593900  1
  Se  Se12  1  0.84629300  0.16675300  0.63219400  1
  Se  Se13  1  0.15370700  0.83324700  0.36780600  1
loop_
_geom_bond_atom_site_label_1
_geom_bond_atom_site_label_2
_geom_bond_distance
_geom_bond_site_symmetry_2
Rb0 Se13 3.462354 1_655
Rb0 Se9 3.645375 1_555
Rb0 Se1 3.647863 1_655
Rb0 Se0 3.656078 1_554
Rb0 Se5 3.794121 1_655
Rb0 Se9 3.811656 1_655
Rb0 Se6 3.868751 1_555
Rb1 Se12 3.462354 1_455
Rb1 Se8 3.645375 1_555
Rb1 Se0 3.647863 1_455
Rb1 Se1 3.656078 1_556
Rb1 Se4 3.794121 1_455
Rb1 Se8 3.811656 1_455
Rb1 Se7 3.868751 1_555
Rb2 Se13 3.537163 1_545
Rb2 Se11 3.547099 1_545
Rb2 Se6 3.565013 1_555
Rb2 Se8 3.662526 1_555
Rb2 Se12 3.690678 1_455
Rb2 Se12 3.790911 1_555
Rb2 Se4 3.852865 1_445
Rb2 Se2 3.866731 1_445
Rb2 Se5 3.936377 1_555
Rb3 Se12 3.537163 1_565
Rb3 Se10 3.547099 1_565
Rb3 Se7 3.565013 1_555
Rb3 Se9 3.662526 1_555
Rb3 Se13 3.690678 1_655
Rb3 Se13 3.790911 1_555
Rb3 Se5 3.852865 1_665
Rb3 Se3 3.866731 1_665
Rb3 Se4 3.936377 1_555
Rb4 Se11 3.533489 1_545
Rb4 Se9 3.601950 1_556
Rb4 Se3 3.628901 1_556
Rb4 Se10 3.672262 1_556
Rb4 Se0 3.693908 1_555
Rb4 Se2 3.705898 1_445
Rb4 Se0 3.850610 1_455
Rb4 Se8 3.955575 1_555
Rb5 Se10 3.533489 1_565
Rb5 Se8 3.601950 1_554
Rb5 Se2 3.628901 1_554
Rb5 Se11 3.672262 1_554
Rb5 Se1 3.693908 1_555
Rb5 Se3 3.705898 1_665
Rb5 Se1 3.850610 1_655
Rb5 Se9 3.955575 1_555
Ge0 Se8 2.302904 1_555
Ge0 Se7 2.438093 1_555
Ge0 Se4 2.451504 1_555
Ge0 Se6 2.451853 1_555
Ge1 Se9 2.302904 1_555
Ge1 Se6 2.438093 1_555
Ge1 Se5 2.451504 1_555
Ge1 Se7 2.451853 1_555
P0 Se12 2.185866 1_555
P0 Se11 2.186826 1_545
P0 Se0 2.217181 1_555
P0 Se2 2.329966 1_545
P1 Se13 2.185866 1_555
P1 Se10 2.186826 1_565
P1 Se1 2.217181 1_555
P1 Se3 2.329966 1_565
Se2 Se4 2.382438 1_555
Se3 Se5 2.382438 1_555
