# generated using pymatgen
data_Li5(BiO3)4
_symmetry_space_group_name_H-M   'P 1'
_cell_length_a   5.51576900
_cell_length_b   10.24195929
_cell_length_c   10.76922911
_cell_angle_alpha   74.36277148
_cell_angle_beta   77.81052785
_cell_angle_gamma   79.55309452
_symmetry_Int_Tables_number   1
_chemical_formula_structural   Li5(BiO3)4
_chemical_formula_sum   'Li10 Bi8 O24'
_cell_volume   567.62835184
_cell_formula_units_Z   2
loop_
 _symmetry_equiv_pos_site_id
 _symmetry_equiv_pos_as_xyz
  1  'x, y, z'
loop_
 _atom_site_type_symbol
 _atom_site_label
 _atom_site_symmetry_multiplicity
 _atom_site_fract_x
 _atom_site_fract_y
 _atom_site_fract_z
 _atom_site_occupancy
  Li  Li0  1  0.23785200  0.10412700  0.26704600  1
  Li  Li1  1  0.21062500  0.10644500  0.68233200  1
  Li  Li2  1  0.20298300  0.24915700  0.94747800  1
  Li  Li3  1  0.15908800  0.60955700  0.81446000  1
  Li  Li4  1  0.43427900  0.40245200  0.62481700  1
  Li  Li5  1  0.56572100  0.59754800  0.37518300  1
  Li  Li6  1  0.84091200  0.39044300  0.18554000  1
  Li  Li7  1  0.79701700  0.75084300  0.05252200  1
  Li  Li8  1  0.78937500  0.89355500  0.31766800  1
  Li  Li9  1  0.76214800  0.89587300  0.73295400  1
  Bi  Bi0  1  0.13917100  0.39107200  0.40806300  1
  Bi  Bi1  1  0.33071900  0.57452400  0.11090900  1
  Bi  Bi2  1  0.27011600  0.90991400  0.02227800  1
  Bi  Bi3  1  0.27804900  0.89208300  0.52453100  1
  Bi  Bi4  1  0.72195100  0.10791700  0.47546900  1
  Bi  Bi5  1  0.72988400  0.09008600  0.97772200  1
  Bi  Bi6  1  0.66928100  0.42547600  0.88909100  1
  Bi  Bi7  1  0.86082900  0.60892800  0.59193700  1
  O  O0  1  0.99947300  0.25422300  0.33160700  1
  O  O1  1  0.28959100  0.43877700  0.99638800  1
  O  O2  1  0.35661900  0.07906300  0.08627500  1
  O  O3  1  0.10966100  0.07329000  0.87494100  1
  O  O4  1  0.01401400  0.45569600  0.76223000  1
  O  O5  1  0.02005000  0.96468600  0.38389500  1
  O  O6  1  0.35995400  0.25878000  0.54391300  1
  O  O7  1  0.22266000  0.55475000  0.48108500  1
  O  O8  1  0.50425700  0.03451900  0.36678500  1
  O  O9  1  0.16817300  0.74082800  0.96622800  1
  O  O10  1  0.48362200  0.43339900  0.26898300  1
  O  O11  1  0.43346800  0.74561800  0.16430400  1
  O  O12  1  0.56653200  0.25438200  0.83569600  1
  O  O13  1  0.51637800  0.56660100  0.73101700  1
  O  O14  1  0.83182700  0.25917200  0.03377200  1
  O  O15  1  0.49574300  0.96548100  0.63321500  1
  O  O16  1  0.77734000  0.44525000  0.51891500  1
  O  O17  1  0.64004600  0.74122000  0.45608700  1
  O  O18  1  0.97995000  0.03531400  0.61610500  1
  O  O19  1  0.98598600  0.54430400  0.23777000  1
  O  O20  1  0.89033900  0.92671000  0.12505900  1
  O  O21  1  0.64338100  0.92093700  0.91372500  1
  O  O22  1  0.71040900  0.56122300  0.00361200  1
  O  O23  1  0.00052700  0.74577700  0.66839300  1
loop_
_geom_bond_atom_site_label_1
_geom_bond_atom_site_label_2
_geom_bond_distance
_geom_bond_site_symmetry_2
Li0 O8 1.922235 1_555
Li0 O2 1.988669 1_555
Li0 O0 2.008126 1_455
Li0 O5 2.020228 1_545
Li1 O18 1.912527 1_455
Li1 O3 1.982175 1_555
Li1 O6 2.007115 1_555
Li1 O15 2.018520 1_545
Li2 O14 2.058410 1_456
Li2 O12 2.111363 1_555
Li2 O2 2.140796 1_556
Li2 O1 2.295971 1_555
Li2 O3 2.320378 1_555
Li3 O13 2.008905 1_555
Li3 O23 2.034983 1_555
Li3 O4 2.136622 1_555
Li3 O1 2.389073 1_555
Li3 O9 2.392718 1_555
Li4 O6 2.037940 1_555
Li4 O16 2.047778 1_555
Li4 O7 2.234405 1_555
Li4 O13 2.422995 1_555
Li4 O4 2.527607 1_555
Li4 O12 2.535981 1_555
Li5 O17 2.037940 1_555
Li5 O7 2.047778 1_555
Li5 O16 2.234405 1_555
Li5 O10 2.422995 1_555
Li5 O19 2.527607 1_555
Li5 O11 2.535981 1_555
Li6 O10 2.008905 1_555
Li6 O0 2.034983 1_555
Li6 O19 2.136622 1_555
Li6 O22 2.389073 1_555
Li6 O14 2.392718 1_555
Li7 O9 2.058410 1_654
Li7 O11 2.111363 1_555
Li7 O21 2.140796 1_554
Li7 O22 2.295971 1_555
Li7 O20 2.320378 1_555
Li8 O5 1.912527 1_655
Li8 O20 1.982175 1_555
Li8 O17 2.007115 1_555
Li8 O8 2.018520 1_565
Li9 O15 1.922235 1_555
Li9 O21 1.988669 1_555
Li9 O23 2.008126 1_655
Li9 O18 2.020228 1_565
Bi0 O0 2.125529 1_455
Bi0 O6 2.131801 1_555
Bi0 O16 2.159985 1_455
Bi0 O7 2.187305 1_555
Bi0 O10 2.188131 1_555
Bi0 O19 2.272021 1_455
Bi1 O19 2.113367 1_455
Bi1 O10 2.129825 1_555
Bi1 O1 2.159252 1_554
Bi1 O22 2.167774 1_555
Bi1 O9 2.176718 1_554
Bi1 O11 2.182547 1_555
Bi2 O21 2.148248 1_554
Bi2 O11 2.151141 1_555
Bi2 O20 2.153048 1_455
Bi2 O3 2.173818 1_564
Bi2 O9 2.177050 1_554
Bi2 O2 2.187740 1_565
Bi3 O15 2.184494 1_555
Bi3 O5 2.188872 1_555
Bi3 O8 2.236039 1_565
Bi3 O18 2.246888 1_465
Bi3 O23 2.359591 1_555
Bi3 O17 2.406482 1_555
Bi4 O8 2.184494 1_555
Bi4 O18 2.188872 1_555
Bi4 O15 2.236039 1_545
Bi4 O5 2.246888 1_645
Bi4 O0 2.359591 1_555
Bi4 O6 2.406482 1_555
Bi5 O2 2.148248 1_556
Bi5 O12 2.151141 1_555
Bi5 O3 2.153048 1_655
Bi5 O20 2.173818 1_546
Bi5 O14 2.177050 1_556
Bi5 O21 2.187740 1_545
Bi6 O4 2.113367 1_655
Bi6 O13 2.129825 1_555
Bi6 O22 2.159252 1_556
Bi6 O1 2.167774 1_555
Bi6 O14 2.176718 1_556
Bi6 O12 2.182547 1_555
Bi7 O23 2.125529 1_655
Bi7 O17 2.131801 1_555
Bi7 O7 2.159985 1_655
Bi7 O16 2.187305 1_555
Bi7 O13 2.188131 1_555
Bi7 O4 2.272021 1_655
