# generated using pymatgen
data_ThPt3
_symmetry_space_group_name_H-M   'P 1'
_cell_length_a   5.89632490
_cell_length_b   5.89632562
_cell_length_c   5.01700383
_cell_angle_alpha   90.00000000
_cell_angle_beta   90.00000000
_cell_angle_gamma   120.00000748
_symmetry_Int_Tables_number   1
_chemical_formula_structural   ThPt3
_chemical_formula_sum   'Th2 Pt6'
_cell_volume   151.05597104
_cell_formula_units_Z   2
loop_
 _symmetry_equiv_pos_site_id
 _symmetry_equiv_pos_as_xyz
  1  'x, y, z'
loop_
 _atom_site_type_symbol
 _atom_site_label
 _atom_site_symmetry_multiplicity
 _atom_site_fract_x
 _atom_site_fract_y
 _atom_site_fract_z
 _atom_site_occupancy
  Th  Th0  1  0.33333300  0.66666600  0.74999800  1
  Th  Th1  1  0.66666700  0.33333300  0.25000000  1
  Pt  Pt0  1  0.15979657  0.31959313  0.25000000  1
  Pt  Pt1  1  0.68040787  0.84020443  0.25000000  1
  Pt  Pt2  1  0.15979557  0.84020443  0.25000000  1
  Pt  Pt3  1  0.84020443  0.68040687  0.74999800  1
  Pt  Pt4  1  0.31959313  0.15979657  0.74999800  1
  Pt  Pt5  1  0.84020343  0.15979657  0.74999800  1
loop_
_geom_bond_atom_site_label_1
_geom_bond_atom_site_label_2
_geom_bond_distance
_geom_bond_site_symmetry_2
Pt0 Pt2 2.826629 1_545
Pt0 Pt1 2.826631 1_445
Pt0 Th1 2.948994 1_455
Pt0 Th1 2.949000 1_555
Pt0 Pt5 2.992628 1_455
Pt0 Pt4 2.992628 1_555
Pt0 Pt5 2.992645 1_454
Pt0 Pt4 2.992645 1_554
Pt0 Pt1 3.069693 1_555
Pt0 Pt2 3.069697 1_555
Pt0 Th0 3.071403 1_555
Pt0 Th0 3.071419 1_554
Pt1 Pt2 2.826626 1_655
Pt1 Th1 2.948992 1_565
Pt1 Th1 2.949004 1_555
Pt1 Pt5 2.992626 1_565
Pt1 Pt3 2.992631 1_555
Pt1 Pt5 2.992642 1_564
Pt1 Pt3 2.992648 1_554
Pt1 Pt2 3.069699 1_555
Pt1 Th0 3.071408 1_555
Pt1 Th0 3.071425 1_554
Pt2 Th1 2.948997 1_565
Pt2 Th1 2.948997 1_455
Pt2 Pt3 2.992623 1_455
Pt2 Pt4 2.992626 1_565
Pt2 Pt3 2.992640 1_454
Pt2 Pt4 2.992642 1_564
Pt2 Th0 3.071411 1_555
Pt2 Th0 3.071428 1_554
Pt3 Pt4 2.826634 1_665
Pt3 Pt5 2.826641 1_565
Pt3 Th0 2.948991 1_655
Pt3 Th0 2.949003 1_555
Pt3 Pt5 3.069685 1_555
Pt3 Pt4 3.069690 1_555
Pt3 Th1 3.071405 1_555
Pt3 Th1 3.071422 1_556
Pt4 Pt5 2.826637 1_455
Pt4 Th0 2.948995 1_555
Pt4 Th0 2.949001 1_545
Pt4 Pt5 3.069687 1_555
Pt4 Th1 3.071405 1_555
Pt4 Th1 3.071422 1_556
Pt5 Th0 2.948994 1_655
Pt5 Th0 2.949000 1_545
Pt5 Th1 3.071403 1_555
Pt5 Th1 3.071419 1_556
