# generated using pymatgen
data_Lu2MgGe2
_symmetry_space_group_name_H-M   'P 1'
_cell_length_a   7.10267296
_cell_length_b   7.10267296
_cell_length_c   4.13220235
_cell_angle_alpha   90.00000000
_cell_angle_beta   90.00000000
_cell_angle_gamma   90.00000000
_symmetry_Int_Tables_number   1
_chemical_formula_structural   Lu2MgGe2
_chemical_formula_sum   'Lu4 Mg2 Ge4'
_cell_volume   208.46119199
_cell_formula_units_Z   2
loop_
 _symmetry_equiv_pos_site_id
 _symmetry_equiv_pos_as_xyz
  1  'x, y, z'
loop_
 _atom_site_type_symbol
 _atom_site_label
 _atom_site_symmetry_multiplicity
 _atom_site_fract_x
 _atom_site_fract_y
 _atom_site_fract_z
 _atom_site_occupancy
  Lu  Lu0  1  0.32319501  0.17680499  0.50000100  1
  Lu  Lu1  1  0.82319501  0.32319501  0.50000100  1
  Lu  Lu2  1  0.17680499  0.67680399  0.50000100  1
  Lu  Lu3  1  0.67680399  0.82319501  0.50000100  1
  Mg  Mg0  1  0.00000000  -0.00000000  -0.00000000  1
  Mg  Mg1  1  0.50000000  0.50000000  -0.00000000  1
  Ge  Ge0  1  0.62497552  0.12497652  0.00000000  1
  Ge  Ge1  1  0.12497652  0.37502348  0.00000000  1
  Ge  Ge2  1  0.87502348  0.62497552  0.00000000  1
  Ge  Ge3  1  0.37502348  0.87502348  0.00000000  1
loop_
_geom_bond_atom_site_label_1
_geom_bond_atom_site_label_2
_geom_bond_distance
_geom_bond_site_symmetry_2
Ge0 Ge3 2.510697 1_545
Ge0 Mg1 2.807681 1_555
Ge0 Mg0 2.807690 1_655
Ge0 Lu1 2.869327 1_554
Ge0 Lu1 2.869333 1_555
Ge0 Lu0 2.999773 1_554
Ge0 Lu3 2.999778 1_544
Ge0 Lu0 2.999779 1_555
Ge0 Lu3 2.999784 1_545
Ge1 Ge2 2.510697 1_455
Ge1 Mg0 2.807683 1_555
Ge1 Mg1 2.807683 1_555
Ge1 Lu0 2.869323 1_554
Ge1 Lu0 2.869329 1_555
Ge1 Lu2 2.999773 1_554
Ge1 Lu1 2.999778 1_454
Ge1 Lu2 2.999779 1_555
Ge1 Lu1 2.999784 1_455
Ge2 Mg1 2.807681 1_555
Ge2 Mg0 2.807690 1_665
Ge2 Lu3 2.869330 1_554
Ge2 Lu3 2.869336 1_555
Ge2 Lu1 2.999773 1_554
Ge2 Lu2 2.999778 1_654
Ge2 Lu1 2.999779 1_555
Ge2 Lu2 2.999784 1_655
Ge3 Mg1 2.807683 1_555
Ge3 Mg0 2.807683 1_565
Ge3 Lu2 2.869327 1_554
Ge3 Lu2 2.869333 1_555
Ge3 Lu3 2.999773 1_554
Ge3 Lu0 2.999778 1_564
Ge3 Lu3 2.999779 1_555
Ge3 Lu0 2.999784 1_565
