# generated using pymatgen
data_Li3Fe2(SiO4)2
_symmetry_space_group_name_H-M   'P 1'
_cell_length_a   5.03299500
_cell_length_b   5.31562267
_cell_length_c   6.72296060
_cell_angle_alpha   91.27383407
_cell_angle_beta   90.81765857
_cell_angle_gamma   90.22412317
_symmetry_Int_Tables_number   1
_chemical_formula_structural   Li3Fe2(SiO4)2
_chemical_formula_sum   'Li3 Fe2 Si2 O8'
_cell_volume   179.79837256
_cell_formula_units_Z   1
loop_
 _symmetry_equiv_pos_site_id
 _symmetry_equiv_pos_as_xyz
  1  'x, y, z'
loop_
 _atom_site_type_symbol
 _atom_site_label
 _atom_site_symmetry_multiplicity
 _atom_site_fract_x
 _atom_site_fract_y
 _atom_site_fract_z
 _atom_site_occupancy
  Li  Li0  1  0.49093100  0.16002400  0.50869400  1
  Li  Li1  1  0.49388200  0.64945300  0.28949000  1
  Li  Li2  1  0.99449300  0.84359400  0.50926500  1
  Fe  Fe0  1  0.49629100  0.18387200  0.98871600  1
  Fe  Fe1  1  0.01347700  0.79753800  0.00206400  1
  Si  Si0  1  0.00479600  0.32086900  0.25912100  1
  Si  Si1  1  0.48396600  0.68113200  0.73736200  1
  O  O0  1  0.11120800  0.17535900  0.44871000  1
  O  O1  1  0.12468100  0.17978200  0.05107800  1
  O  O2  1  0.67128100  0.30822200  0.22862400  1
  O  O3  1  0.55808600  0.38007000  0.76542600  1
  O  O4  1  0.09618400  0.62028400  0.25270000  1
  O  O5  1  0.16601000  0.72955100  0.74454400  1
  O  O6  1  0.60205500  0.83333100  0.95002800  1
  O  O7  1  0.60903700  0.79782000  0.53889000  1
loop_
_geom_bond_atom_site_label_1
_geom_bond_atom_site_label_2
_geom_bond_distance
_geom_bond_site_symmetry_2
Li0 O0 1.949981 1_555
Li0 O7 2.030856 1_545
Li0 O3 2.086135 1_555
Li0 O2 2.258083 1_555
Li1 O7 1.918107 1_555
Li1 O4 2.018268 1_555
Li1 O2 2.060289 1_555
Li1 O6 2.567224 1_554
Li2 O5 1.903270 1_655
Li2 O0 1.910893 1_665
Li2 O7 1.967728 1_555
Li2 O4 2.141286 1_655
Fe0 O3 1.875715 1_555
Fe0 O1 1.922701 1_556
Fe0 O2 1.929123 1_556
Fe0 O6 1.952746 1_545
Fe1 O5 1.931227 1_554
Fe1 O4 1.988457 1_555
Fe1 O6 2.105157 1_454
Fe1 O1 2.122824 1_565
O0 Si0 1.592889 1_555
O1 Si0 1.692267 1_555
O2 Si0 1.689043 1_655
O3 Si1 1.658888 1_555
O4 Si0 1.656634 1_555
O5 Si1 1.623058 1_555
O6 Si1 1.724095 1_555
O7 Si1 1.618365 1_555
