# generated using pymatgen
data_Li6VFe5O12
_symmetry_space_group_name_H-M   'P 1'
_cell_length_a   5.08337127
_cell_length_b   5.08337127
_cell_length_c   10.09719574
_cell_angle_alpha   86.00643253
_cell_angle_beta   86.00643253
_cell_angle_gamma   120.02107348
_symmetry_Int_Tables_number   1
_chemical_formula_structural   Li6VFe5O12
_chemical_formula_sum   'Li6 V1 Fe5 O12'
_cell_volume   223.71015482
_cell_formula_units_Z   1
loop_
 _symmetry_equiv_pos_site_id
 _symmetry_equiv_pos_as_xyz
  1  'x, y, z'
loop_
 _atom_site_type_symbol
 _atom_site_label
 _atom_site_symmetry_multiplicity
 _atom_site_fract_x
 _atom_site_fract_y
 _atom_site_fract_z
 _atom_site_occupancy
  Li  Li0  1  0.28983700  0.95569100  0.24185200  1
  Li  Li1  1  0.94768600  0.28393600  0.24761800  1
  Li  Li2  1  0.39212700  0.39227500  0.75033600  1
  Li  Li3  1  0.60772500  0.60787300  0.24966400  1
  Li  Li4  1  0.71606400  0.05231400  0.75238200  1
  Li  Li5  1  0.04430900  0.71016300  0.75814800  1
  V  V0  1  0.99965200  0.00034800  0.00000000  1
  Fe  Fe0  1  0.49848000  0.50152000  0.50000000  1
  Fe  Fe1  1  0.66426900  0.33573100  0.00000000  1
  Fe  Fe2  1  0.33525700  0.66474300  0.00000000  1
  Fe  Fe3  1  0.83208700  0.16791300  0.50000000  1
  Fe  Fe4  1  0.16857000  0.83143000  0.50000000  1
  O  O0  1  0.13460600  0.14612900  0.60662100  1
  O  O1  1  0.30687800  0.30718800  0.11579300  1
  O  O2  1  0.54173300  0.21049900  0.39039100  1
  O  O3  1  0.20212600  0.53011200  0.38866200  1
  O  O4  1  0.97214300  0.64154600  0.11379500  1
  O  O5  1  0.63947800  0.97305900  0.11324100  1
  O  O6  1  0.35845400  0.02785700  0.88620500  1
  O  O7  1  0.02694100  0.36052200  0.88675900  1
  O  O8  1  0.78950100  0.45826700  0.60960900  1
  O  O9  1  0.46988800  0.79787400  0.61133800  1
  O  O10  1  0.69281200  0.69312200  0.88420700  1
  O  O11  1  0.85387100  0.86539400  0.39337900  1
loop_
_geom_bond_atom_site_label_1
_geom_bond_atom_site_label_2
_geom_bond_distance
_geom_bond_site_symmetry_2
Li0 O1 2.081640 1_565
Li0 O5 2.087749 1_555
Li0 O2 2.108396 1_565
Li0 O4 2.197269 1_455
Li0 O3 2.360608 1_555
Li0 O11 2.423842 1_455
Li1 O3 2.037726 1_655
Li1 O1 2.131486 1_655
Li1 O4 2.134066 1_555
Li1 O5 2.215915 1_545
Li1 O2 2.283832 1_555
Li1 O11 2.317550 1_545
Li2 O0 2.064832 1_555
Li2 O6 2.153847 1_555
Li2 O7 2.163950 1_555
Li2 O10 2.176910 1_555
Li2 O8 2.251169 1_555
Li2 O9 2.254159 1_555
Li3 O11 2.064832 1_555
Li3 O4 2.153847 1_555
Li3 O5 2.163950 1_555
Li3 O1 2.176910 1_555
Li3 O2 2.251169 1_555
Li3 O3 2.254159 1_555
Li4 O9 2.037726 1_545
Li4 O10 2.131486 1_545
Li4 O6 2.134066 1_555
Li4 O7 2.215915 1_655
Li4 O8 2.283832 1_555
Li4 O0 2.317550 1_655
Li5 O10 2.081640 1_455
Li5 O7 2.087749 1_555
Li5 O8 2.108396 1_455
Li5 O6 2.197269 1_565
Li5 O9 2.360608 1_555
Li5 O0 2.423842 1_565
Fe0 O0 1.987992 1_555
Fe0 O11 1.987992 1_555
Fe0 O8 1.995342 1_555
Fe0 O2 1.995342 1_555
Fe0 O3 1.996663 1_555
Fe0 O9 1.996663 1_555
Fe1 O1 2.026170 1_555
Fe1 O10 2.026170 1_554
Fe1 O5 2.043516 1_545
Fe1 O7 2.043516 1_654
Fe1 O6 2.061801 1_554
Fe1 O4 2.061801 1_555
Fe2 O1 2.027202 1_555
Fe2 O10 2.027202 1_554
Fe2 O4 2.051628 1_455
Fe2 O6 2.051628 1_564
Fe2 O5 2.055714 1_555
Fe2 O7 2.055714 1_554
Fe3 O0 1.980038 1_655
Fe3 O11 1.980038 1_545
Fe3 O8 1.991014 1_555
Fe3 O2 1.991014 1_555
Fe3 O3 2.035612 1_655
Fe3 O9 2.035612 1_545
Fe4 O3 2.028212 1_555
Fe4 O9 2.028212 1_555
Fe4 O0 2.058720 1_565
Fe4 O11 2.058720 1_455
Fe4 O2 2.071052 1_565
Fe4 O8 2.071052 1_455
O1 V0 2.076001 1_455
O4 V0 2.024098 1_565
O5 V0 2.027559 1_565
O6 V0 2.024098 1_456
O7 V0 2.027559 1_456
O10 V0 2.076001 1_566
