# generated using pymatgen
data_LiGaRh2
_symmetry_space_group_name_H-M   'P 1'
_cell_length_a   4.16941774
_cell_length_b   4.16941487
_cell_length_c   4.16940624
_cell_angle_alpha   59.99997722
_cell_angle_beta   59.99995439
_cell_angle_gamma   60.00002283
_symmetry_Int_Tables_number   1
_chemical_formula_structural   LiGaRh2
_chemical_formula_sum   'Li1 Ga1 Rh2'
_cell_volume   51.25185459
_cell_formula_units_Z   1
loop_
 _symmetry_equiv_pos_site_id
 _symmetry_equiv_pos_as_xyz
  1  'x, y, z'
loop_
 _atom_site_type_symbol
 _atom_site_label
 _atom_site_symmetry_multiplicity
 _atom_site_fract_x
 _atom_site_fract_y
 _atom_site_fract_z
 _atom_site_occupancy
  Li  Li0  1  0.74999900  0.74999900  0.74999900  1
  Ga  Ga0  1  0.24999900  0.25000000  0.25000000  1
  Rh  Rh0  1  0.00000000  0.00000000  0.00000000  1
  Rh  Rh1  1  0.49999900  0.49999900  0.49999900  1
loop_
_geom_bond_atom_site_label_1
_geom_bond_atom_site_label_2
_geom_bond_distance
_geom_bond_site_symmetry_2
Li0 Rh0 2.553225 1_665
Li0 Rh1 2.553228 1_556
Li0 Rh0 2.553232 1_656
Li0 Rh0 2.553233 1_566
Li0 Rh1 2.553234 1_555
Li0 Rh1 2.553235 1_565
Li0 Rh1 2.553236 1_655
Li0 Rh0 2.553244 1_666
Ga0 Rh1 2.553227 1_555
Ga0 Rh0 2.553228 1_556
Ga0 Rh0 2.553230 1_555
Ga0 Rh1 2.553231 1_554
Ga0 Rh0 2.553235 1_565
Ga0 Rh1 2.553236 1_455
Ga0 Rh1 2.553238 1_545
Ga0 Rh0 2.553240 1_655
