# generated using pymatgen
data_Pr4Ge7
_symmetry_space_group_name_H-M   'P 1'
_cell_length_a   7.65382978
_cell_length_b   7.65382978
_cell_length_c   12.14950889
_cell_angle_alpha   90.00000000
_cell_angle_beta   90.00000000
_cell_angle_gamma   46.74090634
_symmetry_Int_Tables_number   1
_chemical_formula_structural   Pr4Ge7
_chemical_formula_sum   'Pr8 Ge14'
_cell_volume   518.32731682
_cell_formula_units_Z   2
loop_
 _symmetry_equiv_pos_site_id
 _symmetry_equiv_pos_as_xyz
  1  'x, y, z'
loop_
 _atom_site_type_symbol
 _atom_site_label
 _atom_site_symmetry_multiplicity
 _atom_site_fract_x
 _atom_site_fract_y
 _atom_site_fract_z
 _atom_site_occupancy
  Pr  Pr0  1  0.48062404  0.00918577  0.38076216  1
  Pr  Pr1  1  0.51937696  0.99081423  0.88076216  1
  Pr  Pr2  1  0.99081423  0.51937696  0.61923884  1
  Pr  Pr3  1  0.00918577  0.48062404  0.11923784  1
  Pr  Pr4  1  0.01088897  0.98911103  -0.00000000  1
  Pr  Pr5  1  0.98911103  0.01088897  0.50000000  1
  Pr  Pr6  1  0.50316601  0.50316601  0.25000000  1
  Pr  Pr7  1  0.49683399  0.49683399  0.75000000  1
  Ge  Ge0  1  0.67085271  0.02590645  0.16042194  1
  Ge  Ge1  1  0.32914829  0.97409355  0.66042194  1
  Ge  Ge2  1  0.97409355  0.32914829  0.83957806  1
  Ge  Ge3  1  0.02590645  0.67085271  0.33957806  1
  Ge  Ge4  1  0.41913105  0.92332297  0.12812137  1
  Ge  Ge5  1  0.58086995  0.07667803  0.62812137  1
  Ge  Ge6  1  0.07667803  0.58086995  0.87187863  1
  Ge  Ge7  1  0.92332297  0.41913105  0.37187763  1
  Ge  Ge8  1  0.42827983  0.39701800  0.00990557  1
  Ge  Ge9  1  0.57172017  0.60298300  0.50990557  1
  Ge  Ge10  1  0.60298300  0.57172017  0.99009443  1
  Ge  Ge11  1  0.39701800  0.42827983  0.49009443  1
  Ge  Ge12  1  0.06662576  0.06662576  0.25000000  1
  Ge  Ge13  1  0.93337324  0.93337324  0.75000000  1
loop_
_geom_bond_atom_site_label_1
_geom_bond_atom_site_label_2
_geom_bond_distance
_geom_bond_site_symmetry_2
Ge0 Ge4 2.560413 1_545
Ge0 Ge8 2.762468 1_555
Ge0 Ge3 3.063647 1_645
Ge0 Pr0 3.091618 1_555
Ge0 Pr3 3.092172 1_645
Ge0 Pr4 3.105952 1_645
Ge0 Pr6 3.122403 1_555
Ge0 Pr1 3.658912 1_544
Ge0 Pr3 3.721929 1_555
Ge1 Ge5 2.560419 1_565
Ge1 Ge9 2.762464 1_555
Ge1 Ge2 3.063651 1_465
Ge1 Pr1 3.091618 1_555
Ge1 Pr2 3.092175 1_465
Ge1 Pr5 3.105958 1_465
Ge1 Pr7 3.122406 1_555
Ge1 Pr0 3.658912 1_565
Ge1 Pr2 3.721921 1_555
Ge2 Ge6 2.560419 1_655
Ge2 Pr2 3.091607 1_555
Ge2 Pr1 3.092177 1_645
Ge2 Pr4 3.105958 1_646
Ge2 Pr7 3.122406 1_555
Ge2 Pr3 3.658912 1_656
Ge2 Pr1 3.721923 1_555
Ge3 Ge7 2.560411 1_455
Ge3 Pr3 3.091618 1_555
Ge3 Pr0 3.092172 1_465
Ge3 Pr5 3.105952 1_465
Ge3 Pr6 3.122403 1_555
Ge3 Pr2 3.658923 1_455
Ge3 Pr0 3.721929 1_555
Ge4 Pr3 3.115662 1_565
Ge4 Pr6 3.180076 1_555
Ge4 Pr4 3.206772 1_555
Ge4 Pr1 3.229636 1_554
Ge4 Pr0 3.240205 1_565
Ge4 Pr3 3.303787 1_655
Ge5 Pr2 3.115661 1_545
Ge5 Pr7 3.180066 1_555
Ge5 Pr5 3.206762 1_555
Ge5 Pr0 3.229639 1_555
Ge5 Pr1 3.240208 1_545
Ge5 Pr2 3.303792 1_455
Ge6 Ge8 2.616126 1_556
Ge6 Pr1 3.115661 1_455
Ge6 Pr7 3.180066 1_555
Ge6 Pr4 3.206762 1_556
Ge6 Pr3 3.229639 1_556
Ge6 Pr2 3.240196 1_455
Ge6 Pr1 3.303792 1_545
Ge7 Ge9 2.616139 1_555
Ge7 Pr0 3.115662 1_655
Ge7 Pr6 3.180070 1_555
Ge7 Pr5 3.206778 1_555
Ge7 Pr2 3.229659 1_555
Ge7 Pr3 3.240194 1_655
Ge7 Pr0 3.303788 1_565
Ge8 Pr1 3.105298 1_544
Ge8 Pr3 3.106416 1_555
Ge8 Pr6 3.183688 1_555
Ge8 Pr4 3.250363 1_645
Ge8 Pr4 3.303717 1_555
Ge8 Pr7 3.373368 1_554
Ge9 Pr0 3.105295 1_565
Ge9 Pr2 3.106422 1_555
Ge9 Pr7 3.183691 1_555
Ge9 Pr5 3.250363 1_465
Ge9 Pr5 3.303722 1_555
Ge9 Pr6 3.373371 1_555
Ge10 Ge8 2.466660 1_556
Ge10 Ge4 2.616131 1_556
Ge10 Ge2 2.762464 1_555
Ge10 Pr3 3.105295 1_656
Ge10 Pr1 3.106416 1_555
Ge10 Pr7 3.183691 1_555
Ge10 Pr4 3.250363 1_646
Ge10 Pr4 3.303722 1_556
Ge10 Pr6 3.373371 1_556
Ge11 Ge9 2.466660 1_555
Ge11 Ge5 2.616126 1_555
Ge11 Ge3 2.762468 1_555
Ge11 Pr2 3.105304 1_455
Ge11 Pr0 3.106416 1_555
Ge11 Pr6 3.183688 1_555
Ge11 Pr5 3.250363 1_465
Ge11 Pr5 3.303717 1_555
Ge11 Pr7 3.373368 1_555
Ge12 Ge7 2.572745 1_455
Ge12 Ge4 2.572752 1_545
Ge12 Pr6 3.164325 1_455
Ge12 Pr6 3.164325 1_545
Ge12 Pr5 3.179076 1_455
Ge12 Pr4 3.179076 1_545
Ge12 Pr0 3.293690 1_555
Ge12 Pr3 3.293690 1_555
Ge13 Ge5 2.572736 1_565
Ge13 Ge6 2.572736 1_655
Ge13 Pr7 3.164329 1_565
Ge13 Pr7 3.164329 1_655
Ge13 Pr4 3.179080 1_656
Ge13 Pr5 3.179080 1_565
Ge13 Pr2 3.293667 1_555
Ge13 Pr1 3.293672 1_555
