# generated using pymatgen
data_LiMnPO4
_symmetry_space_group_name_H-M   'P 1'
_cell_length_a   4.82370800
_cell_length_b   10.30307200
_cell_length_c   6.48052300
_cell_angle_alpha   89.99996563
_cell_angle_beta   90.00005028
_cell_angle_gamma   89.99999444
_symmetry_Int_Tables_number   1
_chemical_formula_structural   LiMnPO4
_chemical_formula_sum   'Li4 Mn4 P4 O16'
_cell_volume   322.07558277
_cell_formula_units_Z   4
loop_
 _symmetry_equiv_pos_site_id
 _symmetry_equiv_pos_as_xyz
  1  'x, y, z'
loop_
 _atom_site_type_symbol
 _atom_site_label
 _atom_site_symmetry_multiplicity
 _atom_site_fract_x
 _atom_site_fract_y
 _atom_site_fract_z
 _atom_site_occupancy
  Li  Li0  1  0.50036700  0.21612000  0.75000000  1
  Li  Li1  1  0.00036700  0.28388000  0.25000000  1
  Li  Li2  1  0.99963300  0.71612000  0.75000000  1
  Li  Li3  1  0.49963300  0.78388000  0.25000000  1
  Mn  Mn0  1  0.99999900  0.99999900  0.49999800  1
  Mn  Mn1  1  0.50000100  0.50000000  0.00000200  1
  Mn  Mn2  1  0.99999900  0.00000000  0.00000100  1
  Mn  Mn3  1  0.50000000  0.50000000  0.50000000  1
  P  P0  1  0.42226800  0.09807800  0.24999900  1
  P  P1  1  0.92226800  0.40192300  0.74999900  1
  P  P2  1  0.07773200  0.59807700  0.25000100  1
  P  P3  1  0.57773200  0.90192300  0.75000100  1
  O  O0  1  0.70786000  0.04441200  0.75000400  1
  O  O1  1  0.20785900  0.45558800  0.25000500  1
  O  O2  1  0.79214100  0.54441200  0.74999500  1
  O  O3  1  0.29214000  0.95558800  0.24999600  1
  O  O4  1  0.74507100  0.09121500  0.24999400  1
  O  O5  1  0.24507100  0.40878600  0.74999300  1
  O  O6  1  0.75492900  0.59121500  0.25000700  1
  O  O7  1  0.25492900  0.90878500  0.75000600  1
  O  O8  1  0.30301200  0.16321100  0.05339800  1
  O  O9  1  0.30301700  0.16321400  0.44660000  1
  O  O10  1  0.80301200  0.33679000  0.55339700  1
  O  O11  1  0.80301800  0.33678700  0.94660100  1
  O  O12  1  0.19698300  0.66321400  0.05339900  1
  O  O13  1  0.19698700  0.66321100  0.44660200  1
  O  O14  1  0.69698200  0.83678600  0.55339900  1
  O  O15  1  0.69698800  0.83678900  0.94660200  1
loop_
_geom_bond_atom_site_label_1
_geom_bond_atom_site_label_2
_geom_bond_distance
_geom_bond_site_symmetry_2
Li0 O0 2.032623 1_555
Li0 O9 2.251501 1_555
Li0 O8 2.251508 1_556
Li0 O11 2.302222 1_555
Li0 O10 2.302228 1_555
Li0 O5 2.336013 1_555
Li1 O1 2.032621 1_555
Li1 O11 2.251495 1_454
Li1 O10 2.251506 1_455
Li1 O9 2.302209 1_555
Li1 O8 2.302220 1_555
Li1 O4 2.336004 1_455
Li2 O2 2.032621 1_555
Li2 O12 2.251495 1_656
Li2 O13 2.251507 1_655
Li2 O14 2.302216 1_555
Li2 O15 2.302220 1_555
Li2 O7 2.336004 1_655
Li3 O3 2.032623 1_555
Li3 O14 2.251493 1_555
Li3 O15 2.251508 1_554
Li3 O12 2.302214 1_555
Li3 O13 2.302222 1_555
Li3 O6 2.336004 1_555
Mn0 O3 2.195471 1_655
Mn0 O0 2.195488 1_565
Mn0 O4 2.240601 1_565
Mn0 O7 2.240616 1_655
Mn0 O14 2.254771 1_555
Mn0 O9 2.254786 1_665
Mn1 O1 2.195481 1_555
Mn1 O2 2.195494 1_554
Mn1 O6 2.240602 1_555
Mn1 O5 2.240622 1_554
Mn1 O11 2.254771 1_554
Mn1 O12 2.254778 1_555
Mn2 O3 2.195438 1_645
Mn2 O0 2.195441 1_554
Mn2 O4 2.240548 1_555
Mn2 O7 2.240562 1_644
Mn2 O15 2.254735 1_544
Mn2 O8 2.254739 1_655
Mn3 O1 2.195438 1_555
Mn3 O2 2.195438 1_555
Mn3 O5 2.240545 1_555
Mn3 O6 2.240550 1_555
Mn3 O10 2.254728 1_555
Mn3 O13 2.254739 1_555
O0 P3 1.596637 1_545
O1 P2 1.596635 1_555
O2 P1 1.596635 1_555
O3 P0 1.596646 1_565
O4 P0 1.558712 1_555
O5 P1 1.558712 1_455
O6 P2 1.558712 1_655
O7 P3 1.558712 1_555
O8 P0 1.550653 1_555
O9 P0 1.550659 1_555
O10 P1 1.550659 1_555
O11 P1 1.550662 1_555
O12 P2 1.550668 1_555
O13 P2 1.550657 1_555
O14 P3 1.550667 1_555
O15 P3 1.550658 1_555
