# generated using pymatgen
data_HoMg3
_symmetry_space_group_name_H-M   'P 1'
_cell_length_a   5.13466935
_cell_length_b   5.13466935
_cell_length_c   5.13466935
_cell_angle_alpha   60.00000000
_cell_angle_beta   60.00000000
_cell_angle_gamma   60.00000000
_symmetry_Int_Tables_number   1
_chemical_formula_structural   HoMg3
_chemical_formula_sum   'Ho1 Mg3'
_cell_volume   95.72435528
_cell_formula_units_Z   1
loop_
 _symmetry_equiv_pos_site_id
 _symmetry_equiv_pos_as_xyz
  1  'x, y, z'
loop_
 _atom_site_type_symbol
 _atom_site_label
 _atom_site_symmetry_multiplicity
 _atom_site_fract_x
 _atom_site_fract_y
 _atom_site_fract_z
 _atom_site_occupancy
  Ho  Ho0  1  0.75000000  0.75000000  0.75000000  1
  Mg  Mg0  1  0.00000000  0.00000000  0.00000000  1
  Mg  Mg1  1  0.25000000  0.25000000  0.25000000  1
  Mg  Mg2  1  0.50000000  0.50000000  0.50000000  1
loop_
_geom_bond_atom_site_label_1
_geom_bond_atom_site_label_2
_geom_bond_distance
_geom_bond_site_symmetry_2
Ho0 Mg0 3.144330 1_656
Ho0 Mg2 3.144330 1_555
Ho0 Mg2 3.144330 1_655
Ho0 Mg2 3.144330 1_565
Ho0 Mg0 3.144330 1_566
Ho0 Mg0 3.144330 1_666
Ho0 Mg2 3.144330 1_556
Ho0 Mg0 3.144330 1_665
Ho0 Mg1 3.630760 1_556
Ho0 Mg1 3.630760 1_655
Ho0 Mg1 3.630760 1_665
Ho0 Mg1 3.630760 1_656
Ho0 Mg1 3.630760 1_565
Ho0 Mg1 3.630760 1_566
Mg0 Mg1 3.144330 1_554
Mg0 Mg1 3.144330 1_455
Mg0 Mg1 3.144330 1_555
Mg0 Mg1 3.144330 1_545
Mg1 Mg2 3.144330 1_555
Mg1 Mg2 3.144330 1_554
Mg1 Mg2 3.144330 1_455
Mg1 Mg2 3.144330 1_545
