# generated using pymatgen
data_K3SbSe4
_symmetry_space_group_name_H-M   'P 1'
_cell_length_a   8.06122127
_cell_length_b   8.06122127
_cell_length_c   8.06122094
_cell_angle_alpha   92.14786204
_cell_angle_beta   92.14786745
_cell_angle_gamma   92.14786078
_symmetry_Int_Tables_number   1
_chemical_formula_structural   K3SbSe4
_chemical_formula_sum   'K6 Sb2 Se8'
_cell_volume   522.71212464
_cell_formula_units_Z   2
loop_
 _symmetry_equiv_pos_site_id
 _symmetry_equiv_pos_as_xyz
  1  'x, y, z'
loop_
 _atom_site_type_symbol
 _atom_site_label
 _atom_site_symmetry_multiplicity
 _atom_site_fract_x
 _atom_site_fract_y
 _atom_site_fract_z
 _atom_site_occupancy
  K  K0  1  0.45532021  0.52519235  0.00064690  1
  K  K1  1  0.00064690  0.45532021  0.52519235  1
  K  K2  1  0.52519235  0.00064690  0.45532021  1
  K  K3  1  0.02519235  0.95532021  0.50064690  1
  K  K4  1  0.50064690  0.02519235  0.95532021  1
  K  K5  1  0.95532021  0.50064690  0.02519235  1
  Sb  Sb0  1  0.00200617  0.00200617  0.00200617  1
  Sb  Sb1  1  0.50200617  0.50200617  0.50200617  1
  Se  Se0  1  0.19996908  0.82848661  0.16017949  1
  Se  Se1  1  0.31670020  0.31670020  0.31670020  1
  Se  Se2  1  0.32848661  0.69996908  0.66017949  1
  Se  Se3  1  0.16017949  0.19996908  0.82848661  1
  Se  Se4  1  0.82848661  0.16017949  0.19996908  1
  Se  Se5  1  0.69996908  0.66017949  0.32848661  1
  Se  Se6  1  0.66017949  0.32848661  0.69996908  1
  Se  Se7  1  0.81670020  0.81670020  0.81670020  1
loop_
_geom_bond_atom_site_label_1
_geom_bond_atom_site_label_2
_geom_bond_distance
_geom_bond_site_symmetry_2
K0 Se2 3.278815 1_554
K0 Se1 3.310317 1_555
K0 Se5 3.360175 1_555
K0 Se6 3.365229 1_554
K0 Se0 3.494092 1_555
K0 Se3 3.670441 1_554
K1 Se6 3.278816 1_455
K1 Se1 3.310317 1_555
K1 Se2 3.360175 1_555
K1 Se5 3.365228 1_455
K1 Se3 3.494092 1_555
K1 Se4 3.670441 1_455
K2 Se5 3.278816 1_545
K2 Se1 3.310317 1_555
K2 Se6 3.360175 1_555
K2 Se2 3.365229 1_545
K2 Se4 3.494092 1_555
K2 Se0 3.670441 1_545
K3 Se0 3.278816 1_555
K3 Se7 3.310317 1_455
K3 Se3 3.360175 1_565
K3 Se4 3.365228 1_465
K3 Se2 3.494092 1_555
K3 Se5 3.670441 1_455
K4 Se3 3.278815 1_555
K4 Se7 3.310317 1_545
K4 Se4 3.360175 1_556
K4 Se0 3.365229 1_546
K4 Se6 3.494092 1_555
K4 Se2 3.670441 1_545
K5 Se4 3.278816 1_555
K5 Se7 3.310317 1_554
K5 Se0 3.360175 1_655
K5 Se3 3.365229 1_654
K5 Se5 3.494092 1_555
K5 Se6 3.670441 1_554
Sb0 Se7 2.488467 1_444
Sb0 Se0 2.505499 1_545
Sb0 Se4 2.505499 1_455
Sb0 Se3 2.505499 1_554
Sb1 Se1 2.488467 1_555
Sb1 Se6 2.505499 1_555
Sb1 Se2 2.505499 1_555
Sb1 Se5 2.505499 1_555
