# generated using pymatgen
data_Li2Mn3(BO3)3
_symmetry_space_group_name_H-M   'P 1'
_cell_length_a   8.30294000
_cell_length_b   8.80610242
_cell_length_c   9.51408798
_cell_angle_alpha   110.28972418
_cell_angle_beta   90.40216609
_cell_angle_gamma   117.83748530
_symmetry_Int_Tables_number   1
_chemical_formula_structural   Li2Mn3(BO3)3
_chemical_formula_sum   'Li6 Mn9 B9 O27'
_cell_volume   564.86997056
_cell_formula_units_Z   3
loop_
 _symmetry_equiv_pos_site_id
 _symmetry_equiv_pos_as_xyz
  1  'x, y, z'
loop_
 _atom_site_type_symbol
 _atom_site_label
 _atom_site_symmetry_multiplicity
 _atom_site_fract_x
 _atom_site_fract_y
 _atom_site_fract_z
 _atom_site_occupancy
  Li  Li0  1  0.01169400  0.71760600  0.74026300  1
  Li  Li1  1  0.02400200  0.72114000  0.41140600  1
  Li  Li2  1  0.27986400  0.30684000  0.26370400  1
  Li  Li3  1  0.28244600  0.29341100  0.60190300  1
  Li  Li4  1  0.70744700  0.98059800  0.82634000  1
  Li  Li5  1  0.69896000  0.98304400  0.15437500  1
  Mn  Mn0  1  0.63496500  0.63447200  0.54312300  1
  Mn  Mn1  1  0.62073200  0.60491900  0.87451900  1
  Mn  Mn2  1  0.66063500  0.65227800  0.21819500  1
  Mn  Mn3  1  0.35331400  0.01460700  0.00209900  1
  Mn  Mn4  1  0.36778000  0.00823900  0.33184300  1
  Mn  Mn5  1  0.39238100  0.00977900  0.66706800  1
  Mn  Mn6  1  0.97658000  0.34225600  0.44734900  1
  Mn  Mn7  1  0.99342700  0.36668500  0.11881300  1
  Mn  Mn8  1  0.99891900  0.35714400  0.78605500  1
  B  B0  1  0.01146300  0.99655400  0.66940200  1
  B  B1  1  0.32477000  0.66517600  0.39198300  1
  B  B2  1  0.33227900  0.66559000  0.72026400  1
  B  B3  1  0.01317400  0.01343200  0.33845700  1
  B  B4  1  0.34112000  0.67191400  0.05042600  1
  B  B5  1  0.98074300  0.98809500  0.99878400  1
  B  B6  1  0.66782700  0.33641300  0.62415000  1
  B  B7  1  0.66376900  0.33746500  0.27684700  1
  B  B8  1  0.66203600  0.32130800  0.93043300  1
  O  O0  1  0.07548800  0.89344400  0.94822800  1
  O  O1  1  0.09071800  0.90099100  0.31804700  1
  O  O2  1  0.10392400  0.89323900  0.63231000  1
  O  O3  1  0.13407500  0.55032000  0.35092700  1
  O  O4  1  0.14255900  0.56166600  0.68402800  1
  O  O5  1  0.15635900  0.54176900  0.00946500  1
  O  O6  1  0.39569800  0.85844900  0.46191300  1
  O  O7  1  0.40823900  0.86272500  0.11444400  1
  O  O8  1  0.42481900  0.86022600  0.77218800  1
  O  O9  1  0.07847900  0.17892000  0.08436500  1
  O  O10  1  0.10720900  0.18734500  0.71451300  1
  O  O11  1  0.12901000  0.20814600  0.40385300  1
  O  O12  1  0.44265700  0.59277600  0.36209700  1
  O  O13  1  0.44088000  0.57970200  0.70640300  1
  O  O14  1  0.47406900  0.61411900  0.03223100  1
  O  O15  1  0.78582600  0.89444300  0.96440600  1
  O  O16  1  0.82160800  0.90485500  0.65955600  1
  O  O17  1  0.82358800  0.93580800  0.29624200  1
  O  O18  1  0.47015000  0.22661000  0.23841800  1
  O  O19  1  0.47441600  0.21432500  0.58411800  1
  O  O20  1  0.46986900  0.19720100  0.87731300  1
  O  O21  1  0.72415100  0.51148200  0.99455400  1
  O  O22  1  0.73326200  0.53016500  0.69575400  1
  O  O23  1  0.74677000  0.53217600  0.34822600  1
  O  O24  1  0.77342000  0.25476400  0.24580600  1
  O  O25  1  0.78862300  0.27159400  0.59577200  1
  O  O26  1  0.78374300  0.25377400  0.91702100  1
loop_
_geom_bond_atom_site_label_1
_geom_bond_atom_site_label_2
_geom_bond_distance
_geom_bond_site_symmetry_2
Li0 O0 1.920306 1_555
Li0 O2 2.009975 1_555
Li0 O22 2.045973 1_455
Li0 O4 2.060278 1_555
Li1 O1 1.940969 1_555
Li1 O2 1.996611 1_555
Li1 O3 2.029826 1_555
Li1 O23 2.034305 1_455
Li2 O9 1.960593 1_555
Li2 O11 1.978031 1_555
Li2 O18 1.995790 1_555
Li2 O12 2.052421 1_555
Li3 O10 1.893129 1_555
Li3 O11 1.956772 1_555
Li3 O19 2.003249 1_555
Li3 O13 2.054474 1_555
Li4 O16 1.933602 1_555
Li4 O15 1.965930 1_555
Li4 O26 2.015522 1_565
Li4 O8 2.043758 1_555
Li5 O17 1.958914 1_555
Li5 O15 1.990334 1_554
Li5 O24 2.007907 1_565
Li5 O7 2.100702 1_555
Mn0 O16 1.999625 1_555
Mn0 O12 2.150793 1_555
Mn0 O23 2.181343 1_555
Mn0 O13 2.252024 1_555
Mn0 O22 2.286289 1_555
Mn1 O14 1.942776 1_556
Mn1 O21 2.004087 1_555
Mn1 O22 2.004803 1_555
Mn1 O13 2.061068 1_555
Mn1 O15 2.078005 1_555
Mn2 O17 2.039874 1_555
Mn2 O14 2.169300 1_555
Mn2 O23 2.182194 1_555
Mn2 O12 2.251934 1_555
Mn2 O21 2.267037 1_554
Mn3 O0 2.006940 1_544
Mn3 O7 2.166468 1_545
Mn3 O20 2.195068 1_554
Mn3 O18 2.201914 1_555
Mn3 O8 2.386428 1_544
Mn4 O1 2.020368 1_545
Mn4 O7 2.146293 1_545
Mn4 O6 2.176852 1_545
Mn4 O18 2.209065 1_555
Mn4 O19 2.299313 1_555
Mn5 O6 1.953841 1_545
Mn5 O20 1.959514 1_555
Mn5 O8 2.012010 1_545
Mn5 O19 2.044231 1_555
Mn5 O2 2.087285 1_545
Mn6 O11 2.057206 1_655
Mn6 O25 2.133102 1_555
Mn6 O24 2.198184 1_555
Mn6 O3 2.203075 1_655
Mn6 O4 2.270495 1_655
Mn7 O9 2.014452 1_655
Mn7 O5 2.115141 1_655
Mn7 O3 2.139861 1_655
Mn7 O26 2.172107 1_554
Mn7 O24 2.223389 1_555
Mn8 O10 2.016405 1_655
Mn8 O5 2.109376 1_656
Mn8 O25 2.162173 1_555
Mn8 O4 2.197962 1_655
Mn8 O26 2.207290 1_555
B0 O10 1.373574 1_565
B0 O16 1.379270 1_455
B0 O2 1.405374 1_555
B1 O3 1.379927 1_555
B1 O12 1.380725 1_555
B1 O6 1.399744 1_555
B2 O4 1.365632 1_555
B2 O8 1.396301 1_555
B2 O13 1.404260 1_555
B3 O1 1.377124 1_545
B3 O17 1.379212 1_445
B3 O11 1.401342 1_555
B4 O5 1.363290 1_555
B4 O7 1.384147 1_555
B4 O14 1.404917 1_555
B5 O0 1.372792 1_655
B5 O9 1.383312 1_666
B5 O15 1.401881 1_555
B6 O25 1.355076 1_555
B6 O19 1.405267 1_555
B6 O22 1.411855 1_555
B7 O24 1.385755 1_555
B7 O18 1.396280 1_555
B7 O23 1.399430 1_555
B8 O26 1.378975 1_555
B8 O21 1.386773 1_555
B8 O20 1.404520 1_555
