# generated using pymatgen
data_V3(O2F)2
_symmetry_space_group_name_H-M   'P 1'
_cell_length_a   4.72063024
_cell_length_b   4.72063024
_cell_length_c   9.14123090
_cell_angle_alpha   89.91690612
_cell_angle_beta   89.91690612
_cell_angle_gamma   85.75588480
_symmetry_Int_Tables_number   1
_chemical_formula_structural   V3(O2F)2
_chemical_formula_sum   'V6 O8 F4'
_cell_volume   203.14738396
_cell_formula_units_Z   2
loop_
 _symmetry_equiv_pos_site_id
 _symmetry_equiv_pos_as_xyz
  1  'x, y, z'
loop_
 _atom_site_type_symbol
 _atom_site_label
 _atom_site_symmetry_multiplicity
 _atom_site_fract_x
 _atom_site_fract_y
 _atom_site_fract_z
 _atom_site_occupancy
  V  V0  1  0.00323300  0.00323300  0.67328300  1
  V  V1  1  0.00000000  0.00000000  0.00000000  1
  V  V2  1  0.99676700  0.99676700  0.32671700  1
  V  V3  1  0.45591800  0.45591800  0.83448300  1
  V  V4  1  0.50000000  0.50000000  0.50000000  1
  V  V5  1  0.54408200  0.54408200  0.16551700  1
  O  O0  1  0.80326900  0.80326900  0.16369000  1
  O  O1  1  0.69187900  0.29919500  0.66975100  1
  O  O2  1  0.69209900  0.30790100  0.00000000  1
  O  O3  1  0.70080500  0.30812100  0.33024900  1
  O  O4  1  0.29919500  0.69187900  0.66975100  1
  O  O5  1  0.30790100  0.69209900  0.00000000  1
  O  O6  1  0.30812100  0.70080500  0.33024900  1
  O  O7  1  0.19673100  0.19673100  0.83631000  1
  F  F0  1  0.79838900  0.79838900  0.83534200  1
  F  F1  1  0.80592500  0.80592500  0.50132000  1
  F  F2  1  0.19407500  0.19407500  0.49868000  1
  F  F3  1  0.20161100  0.20161100  0.16465800  1
loop_
_geom_bond_atom_site_label_1
_geom_bond_atom_site_label_2
_geom_bond_distance
_geom_bond_site_symmetry_2
O0 V5 1.793256 1_555
O0 V2 2.005245 1_555
O0 V1 2.020777 1_665
O1 V0 1.951755 1_655
O1 V3 1.982946 1_555
O1 V4 1.999905 1_555
O2 V5 1.976628 1_555
O2 V3 1.976628 1_554
O2 V1 1.978018 1_655
O3 V2 1.951755 1_545
O3 V5 1.982946 1_555
O3 V4 1.999905 1_555
O4 V0 1.951755 1_565
O4 V3 1.982946 1_555
O4 V4 1.999905 1_555
O5 V5 1.976628 1_555
O5 V3 1.976628 1_554
O5 V1 1.978018 1_565
O6 V2 1.951755 1_455
O6 V5 1.982946 1_555
O6 V4 1.999905 1_555
O7 V3 1.793256 1_555
O7 V0 2.005245 1_555
O7 V1 2.020777 1_556
F0 V0 2.048132 1_665
F0 V1 2.054147 1_666
F0 V3 2.369449 1_555
F1 V2 2.069420 1_555
F1 V0 2.083991 1_665
F1 V4 2.116632 1_555
F2 V0 2.069420 1_555
F2 V2 2.083991 1_445
F2 V4 2.116632 1_555
F3 V2 2.048132 1_445
F3 V1 2.054147 1_555
F3 V5 2.369449 1_555
