# generated using pymatgen
data_Pm2IrRh
_symmetry_space_group_name_H-M   'P 1'
_cell_length_a   4.95142704
_cell_length_b   4.95142704
_cell_length_c   4.95142704
_cell_angle_alpha   60.00000000
_cell_angle_beta   60.00000000
_cell_angle_gamma   60.00000000
_symmetry_Int_Tables_number   1
_chemical_formula_structural   Pm2IrRh
_chemical_formula_sum   'Pm2 Ir1 Rh1'
_cell_volume   85.83732116
_cell_formula_units_Z   1
loop_
 _symmetry_equiv_pos_site_id
 _symmetry_equiv_pos_as_xyz
  1  'x, y, z'
loop_
 _atom_site_type_symbol
 _atom_site_label
 _atom_site_symmetry_multiplicity
 _atom_site_fract_x
 _atom_site_fract_y
 _atom_site_fract_z
 _atom_site_occupancy
  Pm  Pm0  1  0.00000000  0.00000000  0.00000000  1
  Pm  Pm1  1  0.50000000  0.50000000  0.50000000  1
  Ir  Ir0  1  0.24999900  0.24999900  0.24999900  1
  Rh  Rh0  1  0.75000100  0.75000100  0.75000100  1
loop_
_geom_bond_atom_site_label_1
_geom_bond_atom_site_label_2
_geom_bond_distance
_geom_bond_site_symmetry_2
Pm0 Rh0 3.032105 1_444
Pm0 Rh0 3.032121 1_445
Pm0 Rh0 3.032121 1_454
Pm0 Rh0 3.032121 1_544
Pm1 Rh0 3.032113 1_455
Pm1 Rh0 3.032113 1_545
Pm1 Rh0 3.032113 1_554
Pm1 Rh0 3.032130 1_555
Ir0 Pm0 3.032105 1_555
Ir0 Pm1 3.032113 1_545
Ir0 Pm1 3.032113 1_554
Ir0 Pm1 3.032113 1_455
Ir0 Pm0 3.032121 1_565
Ir0 Pm0 3.032121 1_655
Ir0 Pm0 3.032121 1_556
Ir0 Pm1 3.032130 1_555
