# generated using pymatgen
data_LiNiO2
_symmetry_space_group_name_H-M   'P 1'
_cell_length_a   5.03553301
_cell_length_b   8.75472308
_cell_length_c   5.05887133
_cell_angle_alpha   90.00706784
_cell_angle_beta   81.05319086
_cell_angle_gamma   150.36628774
_symmetry_Int_Tables_number   1
_chemical_formula_structural   LiNiO2
_chemical_formula_sum   'Li3 Ni3 O6'
_cell_volume   104.68394580
_cell_formula_units_Z   3
loop_
 _symmetry_equiv_pos_site_id
 _symmetry_equiv_pos_as_xyz
  1  'x, y, z'
loop_
 _atom_site_type_symbol
 _atom_site_label
 _atom_site_symmetry_multiplicity
 _atom_site_fract_x
 _atom_site_fract_y
 _atom_site_fract_z
 _atom_site_occupancy
  Li  Li0  1  0.99917300  0.99954400  0.00018100  1
  Li  Li1  1  0.00051900  0.33348600  0.00002700  1
  Li  Li2  1  0.00049500  0.66706400  0.00003200  1
  Ni  Ni0  1  0.99927900  0.16580500  0.49954200  1
  Ni  Ni1  1  0.00041200  0.83399000  0.50004500  1
  Ni  Ni2  1  0.00037700  0.50026800  0.50003300  1
  O  O0  1  0.45886100  0.22935500  0.26929700  1
  O  O1  1  0.51150300  0.92819100  0.27702400  1
  O  O2  1  0.51197300  0.58366100  0.27691700  1
  O  O3  1  0.48911700  0.07184500  0.72246000  1
  O  O4  1  0.48941400  0.41750800  0.72243800  1
  O  O5  1  0.53901400  0.76935200  0.73188900  1
loop_
_geom_bond_atom_site_label_1
_geom_bond_atom_site_label_2
_geom_bond_distance
_geom_bond_site_symmetry_2
Li0 O5 2.032814 1_554
Li0 O0 2.035431 1_665
Li0 O2 2.154066 1_555
Li0 O1 2.155410 1_555
Li0 O3 2.160703 1_664
Li0 O4 2.162633 1_664
Li1 O4 2.085826 1_554
Li1 O1 2.087140 1_445
Li1 O5 2.150212 1_554
Li1 O0 2.155970 1_455
Li1 O2 2.169655 1_555
Li1 O3 2.172478 1_454
Li2 O2 2.086291 1_455
Li2 O3 2.086326 1_564
Li2 O5 2.151786 1_554
Li2 O0 2.157645 1_455
Li2 O1 2.169223 1_555
Li2 O4 2.171967 1_454
Ni0 O1 1.898566 1_545
Ni0 O4 1.905036 1_655
Ni0 O0 1.986303 1_655
Ni0 O5 1.992326 1_545
Ni0 O3 1.993339 1_555
Ni0 O2 1.998632 1_655
Ni1 O3 1.900121 1_565
Ni1 O2 1.902343 1_455
Ni1 O0 1.986107 1_565
Ni1 O5 1.990210 1_455
Ni1 O4 1.992999 1_455
Ni1 O1 1.995976 1_555
Ni2 O5 2.040392 1_555
Ni2 O0 2.041984 1_455
Ni2 O1 2.065892 1_555
Ni2 O2 2.066347 1_555
Ni2 O4 2.066407 1_455
Ni2 O3 2.067776 1_455
