# generated using pymatgen
data_NaGdS2
_symmetry_space_group_name_H-M   'P 1'
_cell_length_a   7.00144815
_cell_length_b   7.00144815
_cell_length_c   7.00144790
_cell_angle_alpha   33.36779851
_cell_angle_beta   33.36779851
_cell_angle_gamma   33.36780143
_symmetry_Int_Tables_number   1
_chemical_formula_structural   NaGdS2
_chemical_formula_sum   'Na1 Gd1 S2'
_cell_volume   92.45172799
_cell_formula_units_Z   1
loop_
 _symmetry_equiv_pos_site_id
 _symmetry_equiv_pos_as_xyz
  1  'x, y, z'
loop_
 _atom_site_type_symbol
 _atom_site_label
 _atom_site_symmetry_multiplicity
 _atom_site_fract_x
 _atom_site_fract_y
 _atom_site_fract_z
 _atom_site_occupancy
  Na  Na0  1  0.50000000  0.50000000  0.50000000  1
  Gd  Gd0  1  0.00000000  0.00000000  -0.00000000  1
  S  S0  1  0.74357504  0.74357504  0.74357504  1
  S  S1  1  0.25642496  0.25642496  0.25642496  1
loop_
_geom_bond_atom_site_label_1
_geom_bond_atom_site_label_2
_geom_bond_distance
_geom_bond_site_symmetry_2
Na0 S1 2.924191 1_556
Na0 S0 2.924191 1_554
Na0 S1 2.924191 1_565
Na0 S1 2.924191 1_655
Na0 S0 2.924191 1_545
Na0 S0 2.924191 1_455
Gd0 S0 2.776665 1_445
Gd0 S1 2.776665 1_554
Gd0 S0 2.776665 1_544
Gd0 S0 2.776665 1_454
Gd0 S1 2.776665 1_545
Gd0 S1 2.776665 1_455
