# generated using pymatgen
data_Tb2IrPd
_symmetry_space_group_name_H-M   'P 1'
_cell_length_a   4.88713948
_cell_length_b   4.88713948
_cell_length_c   4.88713948
_cell_angle_alpha   60.00000000
_cell_angle_beta   60.00000000
_cell_angle_gamma   60.00000000
_symmetry_Int_Tables_number   1
_chemical_formula_structural   Tb2IrPd
_chemical_formula_sum   'Tb2 Ir1 Pd1'
_cell_volume   82.53709999
_cell_formula_units_Z   1
loop_
 _symmetry_equiv_pos_site_id
 _symmetry_equiv_pos_as_xyz
  1  'x, y, z'
loop_
 _atom_site_type_symbol
 _atom_site_label
 _atom_site_symmetry_multiplicity
 _atom_site_fract_x
 _atom_site_fract_y
 _atom_site_fract_z
 _atom_site_occupancy
  Tb  Tb0  1  -0.00000000  -0.00000000  -0.00000000  1
  Tb  Tb1  1  0.50000000  0.50000000  0.50000000  1
  Ir  Ir0  1  0.24999900  0.24999900  0.24999900  1
  Pd  Pd0  1  0.75000100  0.75000100  0.75000100  1
loop_
_geom_bond_atom_site_label_1
_geom_bond_atom_site_label_2
_geom_bond_distance
_geom_bond_site_symmetry_2
Ir0 Tb0 2.992738 1_555
Ir0 Tb1 2.992746 1_545
Ir0 Tb1 2.992746 1_455
Ir0 Tb1 2.992746 1_554
Ir0 Tb0 2.992753 1_556
Ir0 Tb0 2.992753 1_565
Ir0 Tb0 2.992753 1_655
Ir0 Tb1 2.992761 1_555
Pd0 Tb0 2.992738 1_666
Pd0 Tb1 2.992746 1_655
Pd0 Tb1 2.992746 1_556
Pd0 Tb1 2.992746 1_565
Pd0 Tb0 2.992753 1_665
Pd0 Tb0 2.992753 1_656
Pd0 Tb0 2.992753 1_566
Pd0 Tb1 2.992761 1_555
