# generated using pymatgen
data_RbSn3
_symmetry_space_group_name_H-M   'P 1'
_cell_length_a   7.88443896
_cell_length_b   7.88443884
_cell_length_c   5.45986290
_cell_angle_alpha   90.00000000
_cell_angle_beta   90.00000000
_cell_angle_gamma   120.00000049
_symmetry_Int_Tables_number   1
_chemical_formula_structural   RbSn3
_chemical_formula_sum   'Rb2 Sn6'
_cell_volume   293.93679282
_cell_formula_units_Z   2
loop_
 _symmetry_equiv_pos_site_id
 _symmetry_equiv_pos_as_xyz
  1  'x, y, z'
loop_
 _atom_site_type_symbol
 _atom_site_label
 _atom_site_symmetry_multiplicity
 _atom_site_fract_x
 _atom_site_fract_y
 _atom_site_fract_z
 _atom_site_occupancy
  Rb  Rb0  1  0.33333300  0.66666600  0.75000000  1
  Rb  Rb1  1  0.66666800  0.33333300  0.25000100  1
  Sn  Sn0  1  0.12798769  0.25597538  0.25000100  1
  Sn  Sn1  1  0.74402362  0.87201131  0.25000100  1
  Sn  Sn2  1  0.12798869  0.87201131  0.25000100  1
  Sn  Sn3  1  0.87201131  0.74402362  0.75000000  1
  Sn  Sn4  1  0.25597638  0.12798869  0.75000000  1
  Sn  Sn5  1  0.87201231  0.12798869  0.75000000  1
loop_
_geom_bond_atom_site_label_1
_geom_bond_atom_site_label_2
_geom_bond_distance
_geom_bond_site_symmetry_2
Rb0 Sn2 3.913599 1_555
Rb0 Sn0 3.913604 1_555
Rb0 Sn1 3.913604 1_555
Rb0 Sn2 3.913607 1_556
Rb0 Sn0 3.913611 1_556
Rb0 Sn1 3.913611 1_556
Rb0 Sn5 3.977440 1_455
Rb0 Sn4 3.977440 1_555
Rb0 Sn3 3.977445 1_555
Rb0 Sn3 3.977453 1_455
Rb0 Sn5 3.977455 1_565
Rb0 Sn4 3.977455 1_565
Rb1 Sn5 3.913594 1_555
Rb1 Sn5 3.913602 1_554
Rb1 Sn3 3.913604 1_555
Rb1 Sn4 3.913609 1_555
Rb1 Sn3 3.913611 1_554
Rb1 Sn4 3.913616 1_554
Rb1 Sn0 3.977437 1_655
Rb1 Sn1 3.977443 1_545
Rb1 Sn2 3.977445 1_655
Rb1 Sn1 3.977451 1_555
Rb1 Sn2 3.977452 1_545
Rb1 Sn0 3.977460 1_555
Sn0 Sn1 3.027341 1_445
Sn0 Sn2 3.027345 1_545
Sn0 Sn5 3.241514 1_455
Sn0 Sn4 3.241514 1_555
Sn0 Sn5 3.241523 1_454
Sn0 Sn4 3.241523 1_554
Sn1 Sn2 3.027349 1_655
Sn1 Sn3 3.241514 1_555
Sn1 Sn5 3.241521 1_565
Sn1 Sn3 3.241523 1_554
Sn1 Sn5 3.241530 1_564
Sn2 Sn4 3.241521 1_565
Sn2 Sn3 3.241521 1_455
Sn2 Sn4 3.241530 1_564
Sn2 Sn3 3.241530 1_454
Sn3 Sn5 3.027345 1_565
Sn3 Sn4 3.027349 1_665
Sn4 Sn5 3.027341 1_455
