# generated using pymatgen
data_Li4MnF6
_symmetry_space_group_name_H-M   'P 1'
_cell_length_a   8.83607352
_cell_length_b   8.83607352
_cell_length_c   4.94861900
_cell_angle_alpha   90.00000000
_cell_angle_beta   90.00000000
_cell_angle_gamma   119.99999641
_symmetry_Int_Tables_number   1
_chemical_formula_structural   Li4MnF6
_chemical_formula_sum   'Li12 Mn3 F18'
_cell_volume   334.60567865
_cell_formula_units_Z   3
loop_
 _symmetry_equiv_pos_site_id
 _symmetry_equiv_pos_as_xyz
  1  'x, y, z'
loop_
 _atom_site_type_symbol
 _atom_site_label
 _atom_site_symmetry_multiplicity
 _atom_site_fract_x
 _atom_site_fract_y
 _atom_site_fract_z
 _atom_site_occupancy
  Li  Li0  1  0.31430500  0.00000000  0.50000000  1
  Li  Li1  1  0.35063600  0.00000000  0.00000000  1
  Li  Li2  1  0.31430500  0.31430500  0.50000000  1
  Li  Li3  1  0.64936400  0.00000000  0.00000000  1
  Li  Li4  1  0.68569500  0.00000000  0.50000000  1
  Li  Li5  1  0.35063600  0.35063600  0.00000000  1
  Li  Li6  1  0.64936400  0.64936400  0.00000000  1
  Li  Li7  1  0.00000000  0.31430500  0.50000000  1
  Li  Li8  1  0.00000000  0.35063600  0.00000000  1
  Li  Li9  1  0.68569500  0.68569500  0.50000000  1
  Li  Li10  1  0.00000000  0.64936400  0.00000000  1
  Li  Li11  1  0.00000000  0.68569500  0.50000000  1
  Mn  Mn0  1  0.33333300  0.66666700  0.49191200  1
  Mn  Mn1  1  0.66666700  0.33333300  0.50808800  1
  Mn  Mn2  1  0.00000000  0.00000000  0.00000000  1
  F  F0  1  0.11950000  0.23900000  0.22892900  1
  F  F1  1  0.21332200  0.42664400  0.72482600  1
  F  F2  1  0.09462000  0.54731000  0.25928600  1
  F  F3  1  0.45269000  0.54731000  0.25928600  1
  F  F4  1  0.21332200  0.78667800  0.72482600  1
  F  F5  1  0.11950000  0.88050000  0.22892900  1
  F  F6  1  0.23900000  0.11950000  0.77107100  1
  F  F7  1  0.57335600  0.78667800  0.72482600  1
  F  F8  1  0.45269000  0.90538000  0.25928600  1
  F  F9  1  0.76100000  0.88050000  0.22892900  1
  F  F10  1  0.42664400  0.21332200  0.27517400  1
  F  F11  1  0.54731000  0.09462000  0.74071400  1
  F  F12  1  0.54731000  0.45269000  0.74071400  1
  F  F13  1  0.78667800  0.21332200  0.27517400  1
  F  F14  1  0.88050000  0.11950000  0.77107100  1
  F  F15  1  0.78667800  0.57335600  0.27517400  1
  F  F16  1  0.90538000  0.45269000  0.74071400  1
  F  F17  1  0.88050000  0.76100000  0.77107100  1
loop_
_geom_bond_atom_site_label_1
_geom_bond_atom_site_label_2
_geom_bond_distance
_geom_bond_site_symmetry_2
F0 Li7 2.014879 1_555
F0 Li2 2.014879 1_555
F0 Li8 2.100709 1_555
F0 Li5 2.100709 1_555
F0 Mn2 2.151340 1_555
F1 Li2 1.976124 1_555
F1 Li7 1.976124 1_555
F1 Li5 2.142986 1_556
F1 Li8 2.142986 1_556
F1 Mn0 2.168417 1_555
F2 Li10 1.977997 1_555
F2 Li8 1.977997 1_555
F2 Li11 2.153020 1_555
F2 Li7 2.153020 1_555
F2 Mn0 2.159172 1_555
F3 Li5 1.977997 1_555
F3 Li6 1.977997 1_555
F3 Li2 2.153020 1_555
F3 Li9 2.153020 1_555
F3 Mn0 2.159178 1_555
F4 Li0 1.976124 1_565
F4 Li11 1.976124 1_555
F4 Li10 2.142986 1_556
F4 Li1 2.142986 1_566
F4 Mn0 2.168410 1_555
F5 Li11 2.014879 1_555
F5 Li0 2.014879 1_565
F5 Li10 2.100709 1_555
F5 Li1 2.100709 1_565
F5 Mn2 2.151340 1_565
F6 Li0 2.014879 1_555
F6 Li2 2.014879 1_555
F6 Li1 2.100709 1_556
F6 Li5 2.100709 1_556
F6 Mn2 2.151340 1_556
F7 Li9 1.976124 1_555
F7 Li4 1.976124 1_565
F7 Li6 2.142986 1_556
F7 Li3 2.142986 1_566
F7 Mn0 2.168417 1_555
F8 Li1 1.977997 1_565
F8 Li3 1.977997 1_565
F8 Li0 2.153020 1_565
F8 Li4 2.153020 1_565
F8 Mn0 2.159172 1_555
F9 Li4 2.014879 1_565
F9 Li9 2.014879 1_555
F9 Li3 2.100709 1_565
F9 Li6 2.100709 1_555
F9 Mn2 2.151340 1_665
F10 Li2 1.976124 1_555
F10 Li0 1.976124 1_555
F10 Li5 2.142986 1_555
F10 Li1 2.142986 1_555
F10 Mn1 2.168417 1_555
F11 Li3 1.977997 1_556
F11 Li1 1.977997 1_556
F11 Li4 2.153020 1_555
F11 Li0 2.153020 1_555
F11 Mn1 2.159172 1_555
F12 Li5 1.977997 1_556
F12 Li6 1.977997 1_556
F12 Li2 2.153020 1_555
F12 Li9 2.153020 1_555
F12 Mn1 2.159178 1_555
F13 Li4 1.976124 1_555
F13 Li7 1.976124 1_655
F13 Li8 2.142986 1_655
F13 Li3 2.142986 1_555
F13 Mn1 2.168410 1_555
F14 Li4 2.014879 1_555
F14 Li7 2.014879 1_655
F14 Li3 2.100709 1_556
F14 Li8 2.100709 1_656
F14 Mn2 2.151340 1_656
F15 Li9 1.976124 1_555
F15 Li11 1.976124 1_655
F15 Li6 2.142986 1_555
F15 Li10 2.142986 1_655
F15 Mn1 2.168417 1_555
F16 Li8 1.977997 1_656
F16 Li10 1.977997 1_656
F16 Li7 2.153020 1_655
F16 Li11 2.153020 1_655
F16 Mn1 2.159172 1_555
F17 Li11 2.014879 1_655
F17 Li9 2.014879 1_555
F17 Li10 2.100709 1_656
F17 Li6 2.100709 1_556
F17 Mn2 2.151340 1_666
