# generated using pymatgen
data_Sc3Tc
_symmetry_space_group_name_H-M   'P 1'
_cell_length_a   6.24644873
_cell_length_b   6.24644052
_cell_length_c   4.74481507
_cell_angle_alpha   89.99999926
_cell_angle_beta   90.00000021
_cell_angle_gamma   120.00052959
_symmetry_Int_Tables_number   1
_chemical_formula_structural   Sc3Tc
_chemical_formula_sum   'Sc6 Tc2'
_cell_volume   160.32948332
_cell_formula_units_Z   2
loop_
 _symmetry_equiv_pos_site_id
 _symmetry_equiv_pos_as_xyz
  1  'x, y, z'
loop_
 _atom_site_type_symbol
 _atom_site_label
 _atom_site_symmetry_multiplicity
 _atom_site_fract_x
 _atom_site_fract_y
 _atom_site_fract_z
 _atom_site_occupancy
  Sc  Sc0  1  0.17189945  0.34379650  0.24999930  1
  Sc  Sc1  1  0.65620414  0.82810051  0.24999932  1
  Sc  Sc2  1  0.17189891  0.82810040  0.24999931  1
  Sc  Sc3  1  0.82810055  0.65620350  0.74999870  1
  Sc  Sc4  1  0.34379586  0.17189949  0.74999868  1
  Sc  Sc5  1  0.82810109  0.17189960  0.74999869  1
  Tc  Tc0  1  0.33333389  0.66666823  0.74999772  1
  Tc  Tc1  1  0.66666611  0.33333177  0.25000028  1
loop_
_geom_bond_atom_site_label_1
_geom_bond_atom_site_label_2
_geom_bond_distance
_geom_bond_site_symmetry_2
Sc0 Tc0 2.945990 1_555
Sc0 Tc0 2.946002 1_554
Sc0 Sc4 3.014481 1_555
Sc0 Sc4 3.014486 1_554
Sc0 Sc5 3.014489 1_455
Sc0 Sc5 3.014494 1_454
Sc0 Sc1 3.025156 1_555
Sc0 Sc2 3.025177 1_555
Sc0 Tc1 3.123732 1_555
Sc0 Tc1 3.123743 1_455
Sc0 Sc1 3.221239 1_445
Sc0 Sc2 3.221263 1_545
Sc1 Tc0 2.945987 1_555
Sc1 Tc0 2.945999 1_554
Sc1 Sc3 3.014481 1_555
Sc1 Sc3 3.014486 1_554
Sc1 Sc5 3.014490 1_565
Sc1 Sc5 3.014495 1_564
Sc1 Sc2 3.025187 1_555
Sc1 Tc1 3.123732 1_555
Sc1 Tc1 3.123734 1_565
Sc1 Sc2 3.221261 1_655
Sc2 Tc0 2.945984 1_555
Sc2 Tc0 2.945997 1_554
Sc2 Sc3 3.014489 1_455
Sc2 Sc4 3.014490 1_565
Sc2 Sc3 3.014494 1_454
Sc2 Sc4 3.014495 1_564
Sc2 Tc1 3.123706 1_565
Sc2 Tc1 3.123715 1_455
Sc3 Tc1 2.945990 1_555
Sc3 Tc1 2.946002 1_556
Sc3 Sc4 3.025156 1_555
Sc3 Sc5 3.025177 1_555
Sc3 Tc0 3.123732 1_555
Sc3 Tc0 3.123743 1_655
Sc3 Sc4 3.221239 1_665
Sc3 Sc5 3.221263 1_565
Sc4 Tc1 2.945987 1_555
Sc4 Tc1 2.945999 1_556
Sc4 Sc5 3.025187 1_555
Sc4 Tc0 3.123732 1_555
Sc4 Tc0 3.123734 1_545
Sc4 Sc5 3.221261 1_455
Sc5 Tc1 2.945984 1_555
Sc5 Tc1 2.945997 1_556
Sc5 Tc0 3.123706 1_545
Sc5 Tc0 3.123715 1_655
