# generated using pymatgen
data_NaFe(SeO3)2
_symmetry_space_group_name_H-M   'P 1'
_cell_length_a   5.45858600
_cell_length_b   8.05348000
_cell_length_c   12.76201900
_cell_angle_alpha   90.00000000
_cell_angle_beta   90.00000000
_cell_angle_gamma   90.00000000
_symmetry_Int_Tables_number   1
_chemical_formula_structural   NaFe(SeO3)2
_chemical_formula_sum   'Na4 Fe4 Se8 O24'
_cell_volume   561.02618065
_cell_formula_units_Z   4
loop_
 _symmetry_equiv_pos_site_id
 _symmetry_equiv_pos_as_xyz
  1  'x, y, z'
loop_
 _atom_site_type_symbol
 _atom_site_label
 _atom_site_symmetry_multiplicity
 _atom_site_fract_x
 _atom_site_fract_y
 _atom_site_fract_z
 _atom_site_occupancy
  Na  Na0  1  0.25000000  0.98955900  0.38631700  1
  Na  Na1  1  0.25000000  0.51044100  0.88631700  1
  Na  Na2  1  0.75000000  0.01044100  0.61368300  1
  Na  Na3  1  0.75000000  0.48955900  0.11368300  1
  Fe  Fe0  1  0.25000000  0.79793300  0.10102300  1
  Fe  Fe1  1  0.25000000  0.70206700  0.60102300  1
  Fe  Fe2  1  0.75000000  0.20206700  0.89897700  1
  Fe  Fe3  1  0.75000000  0.29793300  0.39897700  1
  Se  Se0  1  0.25000000  0.21273500  0.06772600  1
  Se  Se1  1  0.25000000  0.28726500  0.56772600  1
  Se  Se2  1  0.75000000  0.78726500  0.93227400  1
  Se  Se3  1  0.75000000  0.71273500  0.43227400  1
  Se  Se4  1  0.25000000  0.99476200  0.79352200  1
  Se  Se5  1  0.25000000  0.50523800  0.29352200  1
  Se  Se6  1  0.75000000  0.00523800  0.20647800  1
  Se  Se7  1  0.75000000  0.49476200  0.70647800  1
  O  O0  1  0.00738600  0.30016400  0.99998800  1
  O  O1  1  0.49261400  0.19983600  0.49998800  1
  O  O2  1  0.50738600  0.69983600  0.00001200  1
  O  O3  1  0.99261400  0.80016400  0.50001200  1
  O  O4  1  0.99261400  0.69983600  0.00001200  1
  O  O5  1  0.50738600  0.80016400  0.50001200  1
  O  O6  1  0.49261400  0.30016400  0.99998800  1
  O  O7  1  0.00738600  0.19983600  0.49998800  1
  O  O8  1  0.25000000  0.01153900  0.02251600  1
  O  O9  1  0.25000000  0.48846100  0.52251600  1
  O  O10  1  0.75000000  0.98846100  0.97748400  1
  O  O11  1  0.75000000  0.51153900  0.47748400  1
  O  O12  1  0.00154800  0.12864400  0.78895800  1
  O  O13  1  0.49845200  0.37135600  0.28895800  1
  O  O14  1  0.50154800  0.87135600  0.21104200  1
  O  O15  1  0.99845200  0.62864400  0.71104200  1
  O  O16  1  0.99845200  0.87135600  0.21104200  1
  O  O17  1  0.50154800  0.62864400  0.71104200  1
  O  O18  1  0.49845200  0.12864400  0.78895800  1
  O  O19  1  0.00154800  0.37135600  0.28895800  1
  O  O20  1  0.25000000  0.93755000  0.66275700  1
  O  O21  1  0.25000000  0.56245000  0.16275700  1
  O  O22  1  0.75000000  0.06245000  0.33724300  1
  O  O23  1  0.75000000  0.43755000  0.83724300  1
loop_
_geom_bond_atom_site_label_1
_geom_bond_atom_site_label_2
_geom_bond_distance
_geom_bond_site_symmetry_2
Na0 O5 2.530961 1_555
Na0 O3 2.530961 1_455
Na0 O7 2.593474 1_565
Na0 O1 2.593474 1_565
Na0 O14 2.791979 1_555
Na0 O16 2.791979 1_455
Na0 O22 2.861096 1_565
Na0 O22 2.861096 1_465
Na1 O4 2.530961 1_456
Na1 O2 2.530961 1_556
Na1 O0 2.593474 1_555
Na1 O6 2.593474 1_555
Na1 O17 2.791979 1_555
Na1 O15 2.791979 1_455
Na1 O23 2.861096 1_455
Na1 O23 2.861096 1_555
Na2 O7 2.530961 1_655
Na2 O1 2.530961 1_555
Na2 O3 2.593474 1_545
Na2 O5 2.593474 1_545
Na2 O18 2.791979 1_555
Na2 O12 2.791979 1_655
Na2 O20 2.861096 1_645
Na2 O20 2.861096 1_545
Na3 O6 2.530961 1_554
Na3 O0 2.530961 1_654
Na3 O2 2.593474 1_555
Na3 O4 2.593474 1_555
Na3 O13 2.791979 1_555
Na3 O19 2.791979 1_655
Na3 O21 2.861096 1_655
Na3 O21 2.861096 1_555
Fe0 O8 1.990767 1_565
Fe0 O14 2.050961 1_555
Fe0 O16 2.050961 1_455
Fe0 O21 2.053597 1_555
Fe0 O2 2.063940 1_555
Fe0 O4 2.063940 1_455
Fe1 O9 1.990767 1_555
Fe1 O17 2.050961 1_555
Fe1 O15 2.050961 1_455
Fe1 O20 2.053597 1_555
Fe1 O5 2.063940 1_555
Fe1 O3 2.063940 1_455
Fe2 O10 1.990767 1_545
Fe2 O18 2.050961 1_555
Fe2 O12 2.050961 1_655
Fe2 O23 2.053597 1_555
Fe2 O0 2.063940 1_655
Fe2 O6 2.063940 1_555
Fe3 O11 1.990767 1_555
Fe3 O13 2.050961 1_555
Fe3 O19 2.050961 1_655
Fe3 O22 2.053597 1_555
Fe3 O7 2.063940 1_655
Fe3 O1 2.063940 1_555
O0 Se0 1.731165 1_556
O1 Se1 1.731165 1_555
O2 Se2 1.731165 1_554
O3 Se3 1.731165 1_555
O4 Se2 1.731165 1_554
O5 Se3 1.731165 1_555
O6 Se0 1.731165 1_556
O7 Se1 1.731165 1_555
O8 Se0 1.719988 1_555
O9 Se1 1.719988 1_555
O10 Se2 1.719988 1_555
O11 Se3 1.719988 1_555
O12 Se4 1.733555 1_545
O13 Se5 1.733555 1_555
O14 Se6 1.733555 1_565
O15 Se7 1.733555 1_555
O16 Se6 1.733555 1_565
O17 Se7 1.733555 1_555
O18 Se4 1.733555 1_545
O19 Se5 1.733555 1_555
O20 Se4 1.731264 1_555
O21 Se5 1.731264 1_555
O22 Se6 1.731264 1_555
O23 Se7 1.731264 1_555
