# generated using pymatgen
data_CrFe3Ni2(PO4)6
_symmetry_space_group_name_H-M   'P 1'
_cell_length_a   8.46520865
_cell_length_b   8.46520791
_cell_length_c   8.46520731
_cell_angle_alpha   61.16523044
_cell_angle_beta   61.16523432
_cell_angle_gamma   61.16523805
_symmetry_Int_Tables_number   1
_chemical_formula_structural   CrFe3Ni2(PO4)6
_chemical_formula_sum   'Cr1 Fe3 Ni2 P6 O24'
_cell_volume   440.18699433
_cell_formula_units_Z   1
loop_
 _symmetry_equiv_pos_site_id
 _symmetry_equiv_pos_as_xyz
  1  'x, y, z'
loop_
 _atom_site_type_symbol
 _atom_site_label
 _atom_site_symmetry_multiplicity
 _atom_site_fract_x
 _atom_site_fract_y
 _atom_site_fract_z
 _atom_site_occupancy
  Cr  Cr0  1  0.85796200  0.85796200  0.85796200  1
  Fe  Fe0  1  0.14400600  0.14400600  0.14400600  1
  Fe  Fe1  1  0.35557900  0.35557900  0.35557900  1
  Fe  Fe2  1  0.64400600  0.64400600  0.64400600  1
  Ni  Ni0  1  0.00109600  0.00109600  0.00109600  1
  Ni  Ni1  1  0.50033000  0.50033000  0.50033000  1
  P  P0  1  0.04517100  0.74969800  0.45464400  1
  P  P1  1  0.45464400  0.04517100  0.74969800  1
  P  P2  1  0.74969800  0.45464400  0.04517100  1
  P  P3  1  0.24913500  0.54648000  0.95229100  1
  P  P4  1  0.54648000  0.95229100  0.24913500  1
  P  P5  1  0.95229100  0.24913500  0.54648000  1
  O  O0  1  0.10960700  0.31431400  0.50968900  1
  O  O1  1  0.31431400  0.50968900  0.10960700  1
  O  O2  1  0.06026000  0.90835400  0.25652600  1
  O  O3  1  0.50968900  0.10960700  0.31431400  1
  O  O4  1  0.99946200  0.82136800  0.61552800  1
  O  O5  1  0.24330500  0.59200100  0.44699700  1
  O  O6  1  0.25652600  0.06026000  0.90835400  1
  O  O7  1  0.44699700  0.24330500  0.59200100  1
  O  O8  1  0.17652900  0.39215700  0.99483000  1
  O  O9  1  0.59200100  0.44699700  0.24330500  1
  O  O10  1  0.08658700  0.74737400  0.93629700  1
  O  O11  1  0.39215700  0.99483000  0.17652900  1
  O  O12  1  0.61552800  0.99946200  0.82136800  1
  O  O13  1  0.90835400  0.25652600  0.06026000  1
  O  O14  1  0.40510100  0.56403700  0.75258100  1
  O  O15  1  0.82136800  0.61552800  0.99946200  1
  O  O16  1  0.56403700  0.75258100  0.40510100  1
  O  O17  1  0.74737400  0.93629700  0.08658700  1
  O  O18  1  0.75258100  0.40510100  0.56403700  1
  O  O19  1  0.99483000  0.17652900  0.39215700  1
  O  O20  1  0.49723300  0.89003000  0.67943700  1
  O  O21  1  0.93629700  0.08658700  0.74737400  1
  O  O22  1  0.67943700  0.49723300  0.89003000  1
  O  O23  1  0.89003000  0.67943700  0.49723300  1
loop_
_geom_bond_atom_site_label_1
_geom_bond_atom_site_label_2
_geom_bond_distance
_geom_bond_site_symmetry_2
Cr0 O4 1.904376 1_555
Cr0 O15 1.904376 1_555
Cr0 O12 1.904377 1_555
Cr0 O17 1.988277 1_556
Cr0 O21 1.988277 1_565
Cr0 O10 1.988277 1_655
Fe0 O8 1.935710 1_554
Fe0 O19 1.935710 1_455
Fe0 O11 1.935711 1_545
Fe0 O6 2.066210 1_554
Fe0 O2 2.066210 1_545
Fe0 O13 2.066211 1_455
Fe1 O1 1.949711 1_555
Fe1 O3 1.949712 1_555
Fe1 O0 1.949712 1_555
Fe1 O7 2.111246 1_555
Fe1 O5 2.111246 1_555
Fe1 O9 2.111246 1_555
Fe2 O22 1.928268 1_555
Fe2 O20 1.928268 1_555
Fe2 O23 1.928268 1_555
Fe2 O16 2.078586 1_555
Fe2 O18 2.078586 1_555
Fe2 O14 2.078587 1_555
Ni0 O2 2.137870 1_545
Ni0 O13 2.137870 1_455
Ni0 O6 2.137870 1_554
Ni0 O21 2.166084 1_454
Ni0 O10 2.166085 1_544
Ni0 O17 2.166085 1_445
Ni1 O9 2.126255 1_555
Ni1 O7 2.126255 1_555
Ni1 O5 2.126255 1_555
Ni1 O14 2.128729 1_555
Ni1 O16 2.128729 1_555
Ni1 O18 2.128729 1_555
O0 P5 1.522440 1_455
O1 P3 1.522439 1_554
O2 P0 1.555315 1_555
O3 P4 1.522439 1_545
O4 P0 1.560411 1_655
O5 P0 1.555100 1_555
O6 P1 1.555315 1_555
O7 P1 1.555100 1_555
O8 P3 1.523579 1_555
O9 P2 1.555100 1_555
O10 P3 1.582485 1_555
O11 P4 1.523579 1_555
O12 P1 1.560411 1_565
O13 P2 1.555315 1_555
O14 P3 1.554755 1_555
O15 P2 1.560411 1_556
O16 P4 1.554755 1_555
O17 P4 1.582485 1_555
O18 P5 1.554755 1_555
O19 P5 1.523579 1_555
O20 P1 1.516047 1_565
O21 P5 1.582485 1_555
O22 P2 1.516047 1_556
O23 P0 1.516048 1_655
