# generated using pymatgen
data_V4O7F5
_symmetry_space_group_name_H-M   'P 1'
_cell_length_a   5.21901600
_cell_length_b   5.33176381
_cell_length_c   8.94748722
_cell_angle_alpha   106.26322928
_cell_angle_beta   89.34376154
_cell_angle_gamma   119.10256572
_symmetry_Int_Tables_number   1
_chemical_formula_structural   V4O7F5
_chemical_formula_sum   'V4 O7 F5'
_cell_volume   206.51659384
_cell_formula_units_Z   1
loop_
 _symmetry_equiv_pos_site_id
 _symmetry_equiv_pos_as_xyz
  1  'x, y, z'
loop_
 _atom_site_type_symbol
 _atom_site_label
 _atom_site_symmetry_multiplicity
 _atom_site_fract_x
 _atom_site_fract_y
 _atom_site_fract_z
 _atom_site_occupancy
  V  V0  1  0.75274000  0.03240600  0.25550900  1
  V  V1  1  0.55587700  0.03109900  0.50602500  1
  V  V2  1  0.23307700  0.03951300  0.75233000  1
  V  V3  1  0.98141500  0.01293500  0.00517100  1
  O  O0  1  0.80184200  0.47980500  0.13044500  1
  O  O1  1  0.69937400  0.47874600  0.38107100  1
  O  O2  1  0.83566100  0.06226100  0.08787100  1
  O  O3  1  0.83393200  0.90713600  0.66422700  1
  O  O4  1  0.15638600  0.92321100  0.90925500  1
  O  O5  1  0.29181600  0.48753400  0.62328100  1
  O  O6  1  0.65506000  0.91262000  0.41150600  1
  F  F0  1  0.32566600  0.06151900  0.58067500  1
  F  F1  1  0.34390700  0.90869500  0.16540300  1
  F  F2  1  0.15746900  0.06821800  0.33122700  1
  F  F3  1  0.21628300  0.50969600  0.87083200  1
  F  F4  1  0.65949800  0.08460400  0.82517100  1
loop_
_geom_bond_atom_site_label_1
_geom_bond_atom_site_label_2
_geom_bond_distance
_geom_bond_site_symmetry_2
O1 V0 2.478546 1_555
O1 V1 2.691482 1_555
O2 V3 1.126086 1_555
O2 V0 1.585652 1_555
O3 V2 1.937737 1_665
O4 V3 1.405812 1_466
O4 V2 1.658170 1_565
O6 V1 1.179426 1_565
O6 V0 1.668016 1_565
F0 V1 1.423544 1_555
F0 V2 1.623263 1_555
F1 V0 2.002569 1_565
F2 V0 2.127251 1_455
F3 V2 2.477762 1_555
F4 O3 1.960243 1_545
F4 V2 2.204634 1_555
F4 V3 2.567834 1_556
