# generated using pymatgen
data_Fe4O5F3
_symmetry_space_group_name_H-M   'P 1'
_cell_length_a   10.05426794
_cell_length_b   10.05426794
_cell_length_c   4.78683365
_cell_angle_alpha   84.42073838
_cell_angle_beta   84.42073838
_cell_angle_gamma   34.89431782
_symmetry_Int_Tables_number   1
_chemical_formula_structural   Fe4O5F3
_chemical_formula_sum   'Fe8 O10 F6'
_cell_volume   275.37671055
_cell_formula_units_Z   2
loop_
 _symmetry_equiv_pos_site_id
 _symmetry_equiv_pos_as_xyz
  1  'x, y, z'
loop_
 _atom_site_type_symbol
 _atom_site_label
 _atom_site_symmetry_multiplicity
 _atom_site_fract_x
 _atom_site_fract_y
 _atom_site_fract_z
 _atom_site_occupancy
  Fe  Fe0  1  0.88510900  0.88510900  0.53745400  1
  Fe  Fe1  1  0.62290800  0.62290800  0.49065900  1
  Fe  Fe2  1  0.13296700  0.13296700  0.53324900  1
  Fe  Fe3  1  0.37278400  0.37278400  0.49509100  1
  Fe  Fe4  1  0.49145600  0.00214300  0.98682500  1
  Fe  Fe5  1  0.24064900  0.75525700  0.99236000  1
  Fe  Fe6  1  0.00214300  0.49145600  0.98682500  1
  Fe  Fe7  1  0.75525700  0.24064900  0.99236000  1
  O  O0  1  0.95484500  0.95484500  0.81343900  1
  O  O1  1  0.20240300  0.20240300  0.81204100  1
  O  O2  1  0.57410300  0.07997900  0.69581600  1
  O  O3  1  0.81571800  0.33744900  0.69469900  1
  O  O4  1  0.07997900  0.57410300  0.69581600  1
  O  O5  1  0.33744900  0.81571800  0.69469900  1
  O  O6  1  0.91363900  0.43207600  0.30330400  1
  O  O7  1  0.43207600  0.91363900  0.30330400  1
  O  O8  1  0.18217000  0.66645800  0.30899500  1
  O  O9  1  0.66645800  0.18217000  0.30899500  1
  F  F0  1  0.45122900  0.45122900  0.80985500  1
  F  F1  1  0.70115100  0.70115100  0.79897200  1
  F  F2  1  0.54647300  0.54647300  0.18880000  1
  F  F3  1  0.29670900  0.29670900  0.19445700  1
  F  F4  1  0.04852100  0.04852100  0.18963700  1
  F  F5  1  0.79433600  0.79433600  0.17211800  1
loop_
_geom_bond_atom_site_label_1
_geom_bond_atom_site_label_2
_geom_bond_distance
_geom_bond_site_symmetry_2
Fe0 O0 1.973614 1_555
Fe0 O2 1.992225 1_565
Fe0 O4 1.992225 1_655
Fe0 O8 2.002703 1_655
Fe0 O9 2.002703 1_565
Fe1 O3 1.909300 1_555
Fe1 O5 1.909300 1_555
Fe1 O6 1.911729 1_555
Fe1 O7 1.911729 1_555
Fe2 O1 1.979285 1_555
Fe2 O6 2.016916 1_455
Fe2 O7 2.016916 1_545
Fe2 O5 2.017532 1_545
Fe2 O3 2.017532 1_455
Fe3 O8 1.929391 1_555
Fe3 O9 1.929391 1_555
Fe3 O4 1.933945 1_555
Fe3 O2 1.933945 1_555
Fe4 O1 1.935553 1_555
Fe4 O2 1.968021 1_555
Fe4 O7 1.968951 1_546
Fe5 O0 1.924265 1_455
Fe5 O8 1.965910 1_556
Fe5 O5 1.969624 1_555
Fe6 O1 1.935553 1_555
Fe6 O4 1.968021 1_555
Fe6 O6 1.968951 1_456
Fe7 O0 1.924265 1_545
Fe7 O9 1.965910 1_556
Fe7 O3 1.969624 1_555
F0 Fe5 2.032918 1_555
F0 Fe7 2.032918 1_555
F0 Fe3 2.235377 1_555
F1 Fe4 2.026313 1_565
F1 Fe6 2.026313 1_655
F1 Fe1 2.209644 1_555
F2 Fe5 2.082185 1_554
F2 Fe7 2.082185 1_554
F2 Fe1 2.160951 1_555
F3 Fe4 2.067425 1_554
F3 Fe6 2.067425 1_554
F3 Fe3 2.151468 1_555
F4 Fe5 2.039743 1_544
F4 Fe7 2.039743 1_454
F4 Fe2 2.423383 1_555
F5 Fe4 2.037930 1_564
F5 Fe6 2.037930 1_654
F5 Fe0 2.590609 1_555
