# generated using pymatgen
data_ZnO2
_symmetry_space_group_name_H-M   'P 1'
_cell_length_a   4.95732700
_cell_length_b   4.95732700
_cell_length_c   4.95732700
_cell_angle_alpha   90.00000000
_cell_angle_beta   90.00000000
_cell_angle_gamma   90.00000000
_symmetry_Int_Tables_number   1
_chemical_formula_structural   ZnO2
_chemical_formula_sum   'Zn4 O8'
_cell_volume   121.82676207
_cell_formula_units_Z   4
loop_
 _symmetry_equiv_pos_site_id
 _symmetry_equiv_pos_as_xyz
  1  'x, y, z'
loop_
 _atom_site_type_symbol
 _atom_site_label
 _atom_site_symmetry_multiplicity
 _atom_site_fract_x
 _atom_site_fract_y
 _atom_site_fract_z
 _atom_site_occupancy
  Zn  Zn0  1  0.00000000  0.50000000  0.50000000  1
  Zn  Zn1  1  0.50000000  0.50000000  0.00000000  1
  Zn  Zn2  1  0.50000000  0.00000000  0.50000000  1
  Zn  Zn3  1  0.00000000  0.00000000  0.00000000  1
  O  O0  1  0.41258300  0.08741700  0.91258300  1
  O  O1  1  0.08741700  0.91258300  0.41258300  1
  O  O2  1  0.91258300  0.41258300  0.08741700  1
  O  O3  1  0.58741700  0.58741700  0.58741700  1
  O  O4  1  0.41258300  0.41258300  0.41258300  1
  O  O5  1  0.08741700  0.58741700  0.91258300  1
  O  O6  1  0.91258300  0.08741700  0.58741700  1
  O  O7  1  0.58741700  0.91258300  0.08741700  1
loop_
_geom_bond_atom_site_label_1
_geom_bond_atom_site_label_2
_geom_bond_distance
_geom_bond_site_symmetry_2
O0 O7 1.501185 1_546
O0 Zn3 2.135154 1_556
O0 Zn2 2.135154 1_555
O0 Zn1 2.135154 1_556
O1 O6 1.501185 1_465
O1 Zn3 2.135154 1_565
O1 Zn2 2.135154 1_565
O1 Zn0 2.135154 1_555
O2 O5 1.501185 1_654
O2 Zn3 2.135154 1_655
O2 Zn1 2.135154 1_555
O2 Zn0 2.135154 1_655
O3 O4 1.501185 1_555
O3 Zn2 2.135154 1_565
O3 Zn1 2.135154 1_556
O3 Zn0 2.135154 1_655
O4 Zn1 2.135154 1_555
O4 Zn2 2.135154 1_555
O4 Zn0 2.135154 1_555
O5 Zn3 2.135154 1_566
O5 Zn1 2.135154 1_556
O5 Zn0 2.135154 1_555
O6 Zn2 2.135154 1_555
O6 Zn3 2.135154 1_656
O6 Zn0 2.135154 1_655
O7 Zn1 2.135154 1_555
O7 Zn2 2.135154 1_565
O7 Zn3 2.135154 1_665
