# generated using pymatgen
data_K3Na(SeO4)2
_symmetry_space_group_name_H-M   'P 1'
_cell_length_a   5.81410332
_cell_length_b   5.81410380
_cell_length_c   7.45642520
_cell_angle_alpha   90.00000000
_cell_angle_beta   90.00000000
_cell_angle_gamma   120.00000765
_symmetry_Int_Tables_number   1
_chemical_formula_structural   K3Na(SeO4)2
_chemical_formula_sum   'K3 Na1 Se2 O8'
_cell_volume   218.28645611
_cell_formula_units_Z   1
loop_
 _symmetry_equiv_pos_site_id
 _symmetry_equiv_pos_as_xyz
  1  'x, y, z'
loop_
 _atom_site_type_symbol
 _atom_site_label
 _atom_site_symmetry_multiplicity
 _atom_site_fract_x
 _atom_site_fract_y
 _atom_site_fract_z
 _atom_site_occupancy
  K  K0  1  0.00000000  0.00000000  0.50000000  1
  K  K1  1  0.66666700  0.33333300  0.16124485  1
  K  K2  1  0.33333300  0.66666700  0.83875515  1
  Na  Na0  1  0.00000000  0.00000000  -0.00000000  1
  Se  Se0  1  0.66666700  0.33333300  0.72143501  1
  Se  Se1  1  0.33333300  0.66666700  0.27856499  1
  O  O0  1  0.35933222  0.17966511  0.80235546  1
  O  O1  1  0.82033489  0.17966511  0.80235546  1
  O  O2  1  0.82033489  0.64066778  0.80235546  1
  O  O3  1  0.17966511  0.82033489  0.19764454  1
  O  O4  1  0.64066778  0.82033489  0.19764454  1
  O  O5  1  0.17966511  0.35933222  0.19764454  1
  O  O6  1  0.33333300  0.66666700  0.49787432  1
  O  O7  1  0.66666700  0.33333300  0.50212568  1
loop_
_geom_bond_atom_site_label_1
_geom_bond_atom_site_label_2
_geom_bond_distance
_geom_bond_site_symmetry_2
K0 O3 2.890717 1_545
K0 O1 2.890717 1_455
K0 O0 2.890723 1_555
K0 O4 2.890723 1_445
K0 O5 2.890723 1_555
K0 O2 2.890723 1_445
K1 O7 2.541752 1_555
K1 O5 2.922619 1_655
K1 O4 2.922619 1_545
K1 O3 2.922627 1_655
K1 O3 2.922627 1_545
K1 O5 2.922636 1_555
K1 O4 2.922636 1_555
K1 O0 3.091252 1_554
K1 O2 3.091252 1_554
K1 O1 3.091255 1_554
K2 O6 2.541752 1_555
K2 O2 2.922619 1_455
K2 O0 2.922619 1_565
K2 O1 2.922627 1_455
K2 O1 2.922627 1_565
K2 O2 2.922636 1_555
K2 O0 2.922636 1_555
K2 O4 3.091252 1_556
K2 O5 3.091252 1_556
K2 O3 3.091255 1_556
Na0 O3 2.333532 1_545
Na0 O1 2.333532 1_454
Na0 O0 2.333539 1_554
Na0 O4 2.333539 1_445
Na0 O2 2.333539 1_444
Na0 O5 2.333539 1_555
O0 Se0 1.660951 1_555
O1 Se0 1.660956 1_555
O2 Se0 1.660951 1_555
O3 Se1 1.660956 1_555
O4 Se1 1.660951 1_555
O5 Se1 1.660951 1_555
O6 Se1 1.635264 1_555
O7 Se0 1.635264 1_555
