# generated using pymatgen
data_Fe4O5F3
_symmetry_space_group_name_H-M   'P 1'
_cell_length_a   4.75713970
_cell_length_b   4.75713970
_cell_length_c   6.04836700
_cell_angle_alpha   90.00000000
_cell_angle_beta   90.00000000
_cell_angle_gamma   95.23139781
_symmetry_Int_Tables_number   1
_chemical_formula_structural   Fe4O5F3
_chemical_formula_sum   'Fe4 O5 F3'
_cell_volume   136.30668302
_cell_formula_units_Z   1
loop_
 _symmetry_equiv_pos_site_id
 _symmetry_equiv_pos_as_xyz
  1  'x, y, z'
loop_
 _atom_site_type_symbol
 _atom_site_label
 _atom_site_symmetry_multiplicity
 _atom_site_fract_x
 _atom_site_fract_y
 _atom_site_fract_z
 _atom_site_occupancy
  Fe  Fe0  1  0.99049100  0.00950900  0.74289400  1
  Fe  Fe1  1  0.99049100  0.00950900  0.25710600  1
  Fe  Fe2  1  0.52931700  0.47068300  0.50000000  1
  Fe  Fe3  1  0.49387100  0.50612900  0.00000000  1
  O  O0  1  0.81197400  0.18802600  0.50000000  1
  O  O1  1  0.30578500  0.30631100  0.76164800  1
  O  O2  1  0.30578500  0.30631100  0.23835200  1
  O  O3  1  0.69368900  0.69421500  0.76164800  1
  O  O4  1  0.69368900  0.69421500  0.23835200  1
  F  F0  1  0.80488200  0.19511800  0.00000000  1
  F  F1  1  0.19351200  0.80648800  0.50000000  1
  F  F2  1  0.18651600  0.81348400  0.00000000  1
loop_
_geom_bond_atom_site_label_1
_geom_bond_atom_site_label_2
_geom_bond_distance
_geom_bond_site_symmetry_2
Fe0 O0 1.931887 1_555
Fe0 O1 1.967210 1_655
Fe0 O3 1.967210 1_545
Fe1 O0 1.931887 1_555
Fe1 O2 1.967210 1_655
Fe1 O4 1.967210 1_545
Fe2 O0 1.986408 1_555
Fe2 O3 2.023612 1_555
Fe2 O4 2.023612 1_555
Fe2 O2 2.023612 1_555
Fe2 O1 2.023612 1_555
Fe3 O3 1.904568 1_554
Fe3 O4 1.904568 1_555
Fe3 O1 1.904568 1_554
Fe3 O2 1.904568 1_555
F0 Fe0 2.029700 1_554
F0 Fe1 2.029700 1_555
F0 Fe3 2.185670 1_555
F1 Fe1 2.047907 1_465
F1 Fe0 2.047907 1_465
F1 Fe2 2.359913 1_555
F2 Fe0 2.077499 1_464
F2 Fe1 2.077499 1_465
F2 Fe3 2.159977 1_555
