# generated using pymatgen
data_LiEr2Ir
_symmetry_space_group_name_H-M   'P 1'
_cell_length_a   4.83855146
_cell_length_b   4.83855146
_cell_length_c   4.83855146
_cell_angle_alpha   60.00000000
_cell_angle_beta   60.00000000
_cell_angle_gamma   60.00000000
_symmetry_Int_Tables_number   1
_chemical_formula_structural   LiEr2Ir
_chemical_formula_sum   'Li1 Er2 Ir1'
_cell_volume   80.09973803
_cell_formula_units_Z   1
loop_
 _symmetry_equiv_pos_site_id
 _symmetry_equiv_pos_as_xyz
  1  'x, y, z'
loop_
 _atom_site_type_symbol
 _atom_site_label
 _atom_site_symmetry_multiplicity
 _atom_site_fract_x
 _atom_site_fract_y
 _atom_site_fract_z
 _atom_site_occupancy
  Li  Li0  1  0.75000100  0.75000100  0.75000100  1
  Er  Er0  1  0.00000000  -0.00000000  -0.00000000  1
  Er  Er1  1  0.50000000  0.50000000  0.50000000  1
  Ir  Ir0  1  0.25000100  0.25000100  0.25000100  1
loop_
_geom_bond_atom_site_label_1
_geom_bond_atom_site_label_2
_geom_bond_distance
_geom_bond_site_symmetry_2
Er0 Li0 2.962984 1_444
Er0 Ir0 2.962992 1_455
Er0 Ir0 2.962992 1_545
Er0 Ir0 2.962992 1_554
Er0 Li0 2.962999 1_454
Er0 Li0 2.962999 1_445
Er0 Li0 2.962999 1_544
Er0 Ir0 2.963007 1_555
Er1 Ir0 2.962984 1_555
Er1 Li0 2.962992 1_554
Er1 Li0 2.962992 1_545
Er1 Li0 2.962992 1_455
Er1 Ir0 2.962999 1_556
Er1 Ir0 2.962999 1_565
Er1 Ir0 2.962999 1_655
Er1 Li0 2.963007 1_555
