# generated using pymatgen
data_YbSiPt2
_symmetry_space_group_name_H-M   'P 1'
_cell_length_a   5.54028700
_cell_length_b   6.92625900
_cell_length_c   7.31337700
_cell_angle_alpha   90.00000000
_cell_angle_beta   90.00000000
_cell_angle_gamma   90.00000000
_symmetry_Int_Tables_number   1
_chemical_formula_structural   YbSiPt2
_chemical_formula_sum   'Yb4 Si4 Pt8'
_cell_volume   280.63959949
_cell_formula_units_Z   4
loop_
 _symmetry_equiv_pos_site_id
 _symmetry_equiv_pos_as_xyz
  1  'x, y, z'
loop_
 _atom_site_type_symbol
 _atom_site_label
 _atom_site_symmetry_multiplicity
 _atom_site_fract_x
 _atom_site_fract_y
 _atom_site_fract_z
 _atom_site_occupancy
  Yb  Yb0  1  0.12938700  0.75000000  0.47957500  1
  Yb  Yb1  1  0.37061300  0.75000000  0.97957500  1
  Yb  Yb2  1  0.62938700  0.25000000  0.02042500  1
  Yb  Yb3  1  0.87061300  0.25000000  0.52042500  1
  Si  Si0  1  0.12769400  0.25000000  0.87636300  1
  Si  Si1  1  0.37230600  0.25000000  0.37636300  1
  Si  Si2  1  0.62769400  0.75000000  0.62363700  1
  Si  Si3  1  0.87230600  0.75000000  0.12363700  1
  Pt  Pt0  1  0.10220100  0.05181300  0.17338500  1
  Pt  Pt1  1  0.10220100  0.44818700  0.17338500  1
  Pt  Pt2  1  0.39779900  0.05181300  0.67338500  1
  Pt  Pt3  1  0.39779900  0.44818700  0.67338500  1
  Pt  Pt4  1  0.60220100  0.55181300  0.32661500  1
  Pt  Pt5  1  0.60220100  0.94818700  0.32661500  1
  Pt  Pt6  1  0.89779900  0.55181300  0.82661500  1
  Pt  Pt7  1  0.89779900  0.94818700  0.82661500  1
loop_
_geom_bond_atom_site_label_1
_geom_bond_atom_site_label_2
_geom_bond_distance
_geom_bond_site_symmetry_2
Si0 Yb2 2.954970 1_456
Si0 Yb3 2.967291 1_455
Si0 Yb2 2.972504 1_556
Si1 Yb3 2.954970 1_555
Si1 Yb2 2.967291 1_555
Si1 Yb3 2.972504 1_455
Si2 Yb0 2.954970 1_555
Si2 Yb1 2.967291 1_555
Si2 Yb0 2.972504 1_655
Si3 Yb1 2.954970 1_654
Si3 Yb0 2.967291 1_655
Si3 Yb1 2.972504 1_554
Pt0 Si3 2.474785 1_445
Pt0 Si1 2.515410 1_555
Pt0 Si0 2.573488 1_554
Pt0 Pt1 2.745389 1_555
Pt0 Pt7 2.868655 1_444
Pt0 Yb1 2.930932 1_544
Pt0 Yb0 3.067082 1_545
Pt0 Pt5 3.073216 1_445
Pt0 Pt5 3.073216 1_545
Pt0 Yb3 3.157873 1_455
Pt0 Yb2 3.161897 1_455
Pt0 Yb2 3.415630 1_555
Pt1 Si3 2.474785 1_455
Pt1 Si1 2.515410 1_555
Pt1 Si0 2.573488 1_554
Pt1 Pt6 2.868655 1_454
Pt1 Yb1 2.930932 1_554
Pt1 Yb0 3.067082 1_555
Pt1 Pt4 3.073216 1_555
Pt1 Pt4 3.073216 1_455
Pt1 Yb3 3.157873 1_455
Pt1 Yb2 3.161897 1_455
Pt1 Yb2 3.415630 1_555
Pt2 Si2 2.474785 1_545
Pt2 Si0 2.515410 1_555
Pt2 Si1 2.573488 1_555
Pt2 Pt3 2.745389 1_555
Pt2 Pt5 2.868655 1_545
Pt2 Yb0 2.930932 1_545
Pt2 Yb1 3.067082 1_545
Pt2 Pt7 3.073216 1_445
Pt2 Pt7 3.073216 1_545
Pt2 Yb2 3.157873 1_556
Pt2 Yb3 3.161897 1_555
Pt2 Yb3 3.415630 1_455
Pt3 Si2 2.474785 1_555
Pt3 Si0 2.515410 1_555
Pt3 Si1 2.573488 1_555
Pt3 Pt4 2.868655 1_555
Pt3 Yb0 2.930932 1_555
Pt3 Yb1 3.067082 1_555
Pt3 Pt6 3.073216 1_455
Pt3 Pt6 3.073216 1_555
Pt3 Yb2 3.157873 1_556
Pt3 Yb3 3.161897 1_555
Pt3 Yb3 3.415630 1_455
Pt4 Si1 2.474785 1_555
Pt4 Si3 2.515410 1_555
Pt4 Si2 2.573488 1_555
Pt4 Pt5 2.745389 1_555
Pt4 Yb3 2.930932 1_555
Pt4 Yb2 3.067082 1_555
Pt4 Yb1 3.157873 1_554
Pt4 Yb0 3.161897 1_555
Pt4 Yb0 3.415630 1_655
Pt5 Si1 2.474785 1_565
Pt5 Si3 2.515410 1_555
Pt5 Si2 2.573488 1_555
Pt5 Yb3 2.930932 1_565
Pt5 Yb2 3.067082 1_565
Pt5 Yb1 3.157873 1_554
Pt5 Yb0 3.161897 1_555
Pt5 Yb0 3.415630 1_655
Pt6 Si0 2.474785 1_655
Pt6 Si2 2.515410 1_555
Pt6 Si3 2.573488 1_556
Pt6 Pt7 2.745389 1_555
Pt6 Yb2 2.930932 1_556
Pt6 Yb3 3.067082 1_555
Pt6 Yb0 3.157873 1_655
Pt6 Yb1 3.161897 1_655
Pt6 Yb1 3.415630 1_555
Pt7 Si0 2.474785 1_665
Pt7 Si2 2.515410 1_555
Pt7 Si3 2.573488 1_556
Pt7 Yb2 2.930932 1_566
Pt7 Yb3 3.067082 1_565
Pt7 Yb0 3.157873 1_655
Pt7 Yb1 3.161897 1_655
Pt7 Yb1 3.415630 1_555
