# generated using pymatgen
data_PaPt3
_symmetry_space_group_name_H-M   'P 1'
_cell_length_a   5.72580834
_cell_length_b   5.72580236
_cell_length_c   5.07262511
_cell_angle_alpha   90.00005827
_cell_angle_beta   90.00006579
_cell_angle_gamma   119.99921715
_symmetry_Int_Tables_number   1
_chemical_formula_structural   PaPt3
_chemical_formula_sum   'Pa2 Pt6'
_cell_volume   144.02569679
_cell_formula_units_Z   2
loop_
 _symmetry_equiv_pos_site_id
 _symmetry_equiv_pos_as_xyz
  1  'x, y, z'
loop_
 _atom_site_type_symbol
 _atom_site_label
 _atom_site_symmetry_multiplicity
 _atom_site_fract_x
 _atom_site_fract_y
 _atom_site_fract_z
 _atom_site_occupancy
  Pa  Pa0  1  0.66666531  0.33333247  0.25000348  1
  Pa  Pa1  1  0.33333398  0.66666915  0.75000327  1
  Pt  Pt0  1  0.83472605  0.16527264  0.75000288  1
  Pt  Pt1  1  0.33055092  0.16527383  0.75000290  1
  Pt  Pt2  1  0.83472625  0.66944895  0.75000288  1
  Pt  Pt3  1  0.16527631  0.83472698  0.24999465  1
  Pt  Pt4  1  0.66944614  0.83472520  0.24999855  1
  Pt  Pt5  1  0.16527504  0.33055376  0.24999939  1
loop_
_geom_bond_atom_site_label_1
_geom_bond_atom_site_label_2
_geom_bond_distance
_geom_bond_site_symmetry_2
Pa0 Pt4 2.862921 1_545
Pa0 Pt5 2.862932 1_655
Pa0 Pt5 2.862943 1_555
Pa0 Pt4 2.862948 1_555
Pa0 Pt3 2.862954 1_545
Pa0 Pt3 2.862986 1_655
Pa0 Pt2 3.034926 1_555
Pa0 Pt1 3.034926 1_554
Pa0 Pt1 3.034926 1_555
Pa0 Pt0 3.034929 1_555
Pa0 Pt0 3.034934 1_554
Pa0 Pt2 3.034936 1_554
Pa1 Pt1 2.862913 1_565
Pa1 Pt2 2.862924 1_455
Pa1 Pt2 2.862951 1_555
Pa1 Pt1 2.862956 1_555
Pa1 Pt0 2.862957 1_565
Pa1 Pt0 2.862983 1_455
Pa1 Pt3 3.034881 1_556
Pa1 Pt4 3.034897 1_556
Pa1 Pt5 3.034914 1_556
Pa1 Pt5 3.034942 1_555
Pa1 Pt4 3.034943 1_555
Pa1 Pt3 3.034954 1_555
Pt0 Pt2 2.838989 1_545
Pt0 Pt1 2.838995 1_655
Pt0 Pt2 2.886813 1_555
Pt0 Pt1 2.886814 1_555
Pt0 Pt4 3.019838 1_546
Pt0 Pt5 3.019841 1_656
Pt0 Pt4 3.019869 1_545
Pt0 Pt5 3.019876 1_655
Pt1 Pt2 2.839030 1_445
Pt1 Pt2 2.886843 1_555
Pt1 Pt3 3.019819 1_546
Pt1 Pt5 3.019851 1_556
Pt1 Pt5 3.019881 1_555
Pt1 Pt3 3.019884 1_545
Pt2 Pt3 3.019824 1_656
Pt2 Pt4 3.019849 1_556
Pt2 Pt4 3.019886 1_555
Pt2 Pt3 3.019899 1_655
Pt3 Pt5 2.839010 1_565
Pt3 Pt4 2.839023 1_455
Pt3 Pt4 2.886785 1_555
Pt3 Pt5 2.886793 1_555
Pt4 Pt5 2.839052 1_665
Pt4 Pt5 2.886821 1_555
