# generated using pymatgen
data_Pr6O11
_symmetry_space_group_name_H-M   'P 1'
_cell_length_a   6.91687300
_cell_length_b   12.26425233
_cell_length_c   13.45349030
_cell_angle_alpha   89.09660662
_cell_angle_beta   78.27549531
_cell_angle_gamma   89.56569399
_symmetry_Int_Tables_number   1
_chemical_formula_structural   Pr6O11
_chemical_formula_sum   'Pr24 O44'
_cell_volume   1117.30190474
_cell_formula_units_Z   4
loop_
 _symmetry_equiv_pos_site_id
 _symmetry_equiv_pos_as_xyz
  1  'x, y, z'
loop_
 _atom_site_type_symbol
 _atom_site_label
 _atom_site_symmetry_multiplicity
 _atom_site_fract_x
 _atom_site_fract_y
 _atom_site_fract_z
 _atom_site_occupancy
  Pr  Pr0  1  0.49139400  0.42151100  0.25118600  1
  Pr  Pr1  1  0.50860600  0.57848900  0.74881400  1
  Pr  Pr2  1  0.75010400  0.40507400  0.50465000  1
  Pr  Pr3  1  0.24989600  0.59492600  0.49535000  1
  Pr  Pr4  1  0.24712000  0.23693500  0.50571500  1
  Pr  Pr5  1  0.75288000  0.76306500  0.49428500  1
  Pr  Pr6  1  0.26340300  0.41621500  0.00252500  1
  Pr  Pr7  1  0.73659700  0.58378500  0.99747500  1
  Pr  Pr8  1  0.24237300  0.07973300  0.99775000  1
  Pr  Pr9  1  0.75762700  0.92026700  0.00225000  1
  Pr  Pr10  1  0.00849200  0.73095500  0.74976200  1
  Pr  Pr11  1  0.99150800  0.26904500  0.25023800  1
  Pr  Pr12  1  0.25684900  0.91900100  0.47784100  1
  Pr  Pr13  1  0.74315100  0.08099900  0.52215900  1
  Pr  Pr14  1  0.54370200  0.91146000  0.75562400  1
  Pr  Pr15  1  0.45629800  0.08854000  0.24437600  1
  Pr  Pr16  1  0.74468900  0.24731500  0.02053200  1
  Pr  Pr17  1  0.25531100  0.75268500  0.97946800  1
  Pr  Pr18  1  0.46614700  0.24533700  0.74855100  1
  Pr  Pr19  1  0.53385300  0.75466300  0.25144900  1
  Pr  Pr20  1  0.01607400  0.42631800  0.73889700  1
  Pr  Pr21  1  0.98392600  0.57368200  0.26110300  1
  Pr  Pr22  1  0.00530100  0.07732100  0.75357500  1
  Pr  Pr23  1  0.99469900  0.92267900  0.24642500  1
  O  O0  1  0.07782800  0.06478100  0.57263000  1
  O  O1  1  0.92217200  0.93521900  0.42737000  1
  O  O2  1  0.47162700  0.07757900  0.42258000  1
  O  O3  1  0.52837300  0.92242100  0.57742000  1
  O  O4  1  0.06728600  0.76875700  0.56719600  1
  O  O5  1  0.93271400  0.23124300  0.43280400  1
  O  O6  1  0.70607100  0.74479100  0.67879200  1
  O  O7  1  0.29392900  0.25520900  0.32120800  1
  O  O8  1  0.85999500  0.90492900  0.80709900  1
  O  O9  1  0.14000500  0.09507100  0.19290100  1
  O  O10  1  0.31052300  0.06213400  0.80750300  1
  O  O11  1  0.68947700  0.93786600  0.19249700  1
  O  O12  1  0.55076300  0.24488500  0.56594200  1
  O  O13  1  0.44923700  0.75511500  0.43405800  1
  O  O14  1  0.69536600  0.09307900  0.70583900  1
  O  O15  1  0.30463400  0.90692100  0.29416100  1
  O  O16  1  0.57002800  0.41602100  0.06410200  1
  O  O17  1  0.67673900  0.24196400  0.20136100  1
  O  O18  1  0.45565500  0.91361200  0.93763100  1
  O  O19  1  0.54434500  0.08638800  0.06236900  1
  O  O20  1  0.07146400  0.25165200  0.06275700  1
  O  O21  1  0.92853600  0.74834800  0.93724300  1
  O  O22  1  0.92791400  0.09211900  0.93506500  1
  O  O23  1  0.07208600  0.90788100  0.06493500  1
  O  O24  1  0.84926700  0.75281100  0.29991200  1
  O  O25  1  0.15073300  0.24718900  0.70008800  1
  O  O26  1  0.58430300  0.57925000  0.55529900  1
  O  O27  1  0.41569700  0.42075000  0.44470100  1
  O  O28  1  0.69289100  0.58514700  0.18282400  1
  O  O29  1  0.30710900  0.41485300  0.81717600  1
  O  O30  1  0.05444200  0.59755300  0.06975700  1
  O  O31  1  0.94555800  0.40244700  0.93024300  1
  O  O32  1  0.92085700  0.58869000  0.44970900  1
  O  O33  1  0.07914300  0.41131000  0.55029100  1
  O  O34  1  0.79021400  0.42150600  0.32328800  1
  O  O35  1  0.20978600  0.57849400  0.67671200  1
  O  O36  1  0.30715600  0.60038600  0.30349400  1
  O  O37  1  0.69284400  0.39961400  0.69650600  1
  O  O38  1  0.18239900  0.42203400  0.18800200  1
  O  O39  1  0.81760100  0.57796600  0.81199800  1
  O  O40  1  0.53135900  0.75619200  0.07096100  1
  O  O41  1  0.46864100  0.24380800  0.92903900  1
  O  O42  1  0.42997200  0.58397900  0.93589800  1
  O  O43  1  0.32326100  0.75803600  0.79863900  1
loop_
_geom_bond_atom_site_label_1
_geom_bond_atom_site_label_2
_geom_bond_distance
_geom_bond_site_symmetry_2
O0 Pr22 2.390744 1_555
O0 Pr12 2.398467 1_545
O0 Pr4 2.487667 1_555
O0 Pr13 2.546968 1_455
O1 Pr23 2.390744 1_555
O1 Pr13 2.398467 1_565
O1 Pr5 2.487667 1_555
O1 Pr12 2.546968 1_655
O2 Pr15 2.422826 1_555
O2 Pr12 2.468086 1_545
O2 Pr13 2.519779 1_555
O2 Pr4 2.607500 1_555
O3 Pr14 2.422826 1_555
O3 Pr13 2.468086 1_565
O3 Pr12 2.519779 1_555
O3 Pr5 2.607500 1_555
O4 Pr12 2.426067 1_555
O4 Pr10 2.444177 1_555
O4 Pr5 2.562775 1_455
O4 Pr3 2.569568 1_555
O5 Pr13 2.426067 1_555
O5 Pr11 2.444177 1_555
O5 Pr4 2.562775 1_655
O5 Pr2 2.569568 1_555
O6 Pr5 2.444098 1_555
O6 Pr14 2.463335 1_555
O6 Pr10 2.473318 1_655
O6 Pr1 2.524189 1_555
O7 Pr4 2.444098 1_555
O7 Pr15 2.463335 1_555
O7 Pr11 2.473318 1_455
O7 Pr0 2.524189 1_555
O8 Pr22 2.385129 1_665
O8 Pr14 2.425617 1_555
O8 Pr10 2.428830 1_655
O8 Pr9 2.586083 1_556
O9 Pr23 2.385129 1_445
O9 Pr15 2.425617 1_555
O9 Pr11 2.428830 1_455
O9 Pr8 2.586083 1_554
O10 Pr22 2.372855 1_555
O10 Pr14 2.457890 1_545
O10 Pr8 2.518988 1_555
O10 Pr18 2.543533 1_555
O11 Pr23 2.372855 1_555
O11 Pr15 2.457890 1_565
O11 Pr9 2.518988 1_555
O11 Pr19 2.543533 1_555
O12 Pr4 2.402985 1_555
O12 Pr18 2.407095 1_555
O12 Pr13 2.415753 1_555
O12 Pr2 2.443080 1_555
O13 Pr5 2.402985 1_555
O13 Pr19 2.407095 1_555
O13 Pr12 2.415753 1_555
O13 Pr3 2.443080 1_555
O14 Pr22 2.365360 1_655
O14 Pr13 2.432400 1_555
O14 Pr18 2.439170 1_555
O14 Pr14 2.492654 1_545
O15 Pr23 2.365360 1_455
O15 Pr12 2.432400 1_555
O15 Pr19 2.439170 1_555
O15 Pr15 2.492654 1_565
O16 Pr16 2.407622 1_555
O16 Pr6 2.428658 1_555
O16 Pr7 2.433570 1_554
O16 Pr0 2.466523 1_555
O17 Pr16 2.382094 1_555
O17 Pr15 2.418859 1_555
O17 Pr11 2.425422 1_555
O17 Pr0 2.568310 1_555
O18 Pr14 2.400648 1_555
O18 Pr17 2.412851 1_555
O18 Pr9 2.422375 1_556
O18 Pr8 2.550056 1_565
O19 Pr15 2.400648 1_555
O19 Pr16 2.412851 1_555
O19 Pr8 2.422375 1_554
O19 Pr9 2.550056 1_545
O20 Pr16 2.441091 1_455
O20 Pr6 2.458523 1_555
O20 Pr11 2.482234 1_455
O20 Pr8 2.491614 1_554
O21 Pr17 2.441091 1_655
O21 Pr7 2.458523 1_555
O21 Pr10 2.482234 1_655
O21 Pr9 2.491614 1_556
O22 Pr22 2.400534 1_655
O22 Pr16 2.447706 1_556
O22 Pr9 2.488240 1_546
O22 Pr8 2.490314 1_655
O23 Pr23 2.400534 1_455
O23 Pr17 2.447706 1_554
O23 Pr8 2.488240 1_564
O23 Pr9 2.490314 1_455
O24 Pr23 2.358003 1_555
O24 Pr19 2.400462 1_555
O24 Pr21 2.402905 1_555
O24 Pr5 2.568863 1_555
O25 Pr22 2.358003 1_555
O25 Pr18 2.400462 1_555
O25 Pr20 2.402905 1_555
O25 Pr4 2.568863 1_555
O26 Pr2 2.456375 1_555
O26 Pr1 2.549021 1_555
O26 Pr5 2.589987 1_555
O26 Pr3 2.604647 1_555
O27 Pr3 2.456375 1_555
O27 Pr0 2.549021 1_555
O27 Pr4 2.589987 1_555
O27 Pr2 2.604647 1_555
O28 Pr19 2.449034 1_555
O28 Pr7 2.450415 1_554
O28 Pr21 2.456391 1_555
O28 Pr0 2.505820 1_555
O29 Pr18 2.449034 1_555
O29 Pr6 2.450415 1_556
O29 Pr20 2.456391 1_555
O29 Pr1 2.505820 1_555
O30 Pr17 2.511374 1_554
O30 Pr21 2.533494 1_455
O30 Pr7 2.585965 1_454
O30 Pr6 2.708622 1_555
O31 Pr16 2.511374 1_556
O31 Pr20 2.533494 1_655
O31 Pr6 2.585965 1_656
O31 Pr7 2.708622 1_555
O32 Pr5 2.450043 1_555
O32 Pr3 2.476848 1_655
O32 Pr21 2.495250 1_555
O32 Pr2 2.577874 1_555
O33 Pr4 2.450043 1_555
O33 Pr2 2.476848 1_455
O33 Pr20 2.495250 1_555
O33 Pr3 2.577874 1_555
O34 Pr21 2.347651 1_555
O34 Pr2 2.404408 1_555
O34 Pr11 2.421366 1_555
O34 Pr0 2.455168 1_555
O35 Pr20 2.347651 1_555
O35 Pr3 2.404408 1_555
O35 Pr10 2.421366 1_555
O35 Pr1 2.455168 1_555
O36 Pr21 2.442588 1_455
O36 Pr19 2.466982 1_555
O36 Pr3 2.530430 1_555
O36 Pr0 2.563913 1_555
O37 Pr20 2.442588 1_655
O37 Pr18 2.466982 1_555
O37 Pr2 2.530430 1_555
O37 Pr1 2.563913 1_555
O38 Pr11 2.345982 1_455
O38 Pr21 2.404397 1_455
O38 Pr6 2.445897 1_555
O38 Pr0 2.455313 1_555
O39 Pr10 2.345982 1_655
O39 Pr20 2.404397 1_655
O39 Pr7 2.445897 1_555
O39 Pr1 2.455313 1_555
O40 Pr19 2.431534 1_555
O40 Pr17 2.474030 1_554
O40 Pr9 2.598893 1_555
O40 Pr7 2.629369 1_554
O41 Pr18 2.431534 1_555
O41 Pr16 2.474030 1_556
O41 Pr8 2.598893 1_555
O41 Pr6 2.629369 1_556
O42 Pr17 2.407622 1_555
O42 Pr7 2.428658 1_555
O42 Pr6 2.433570 1_556
O42 Pr1 2.466523 1_555
O43 Pr17 2.382094 1_555
O43 Pr14 2.418859 1_555
O43 Pr10 2.425422 1_555
O43 Pr1 2.568310 1_555
