# generated using pymatgen
data_HfTc2W
_symmetry_space_group_name_H-M   'P 1'
_cell_length_a   4.48711019
_cell_length_b   4.48711019
_cell_length_c   4.48711019
_cell_angle_alpha   60.00000000
_cell_angle_beta   60.00000000
_cell_angle_gamma   60.00000000
_symmetry_Int_Tables_number   1
_chemical_formula_structural   HfTc2W
_chemical_formula_sum   'Hf1 Tc2 W1'
_cell_volume   63.88298558
_cell_formula_units_Z   1
loop_
 _symmetry_equiv_pos_site_id
 _symmetry_equiv_pos_as_xyz
  1  'x, y, z'
loop_
 _atom_site_type_symbol
 _atom_site_label
 _atom_site_symmetry_multiplicity
 _atom_site_fract_x
 _atom_site_fract_y
 _atom_site_fract_z
 _atom_site_occupancy
  Hf  Hf0  1  0.50000000  0.50000000  0.50000000  1
  Tc  Tc0  1  0.25000000  0.25000000  0.25000000  1
  Tc  Tc1  1  0.75000000  0.75000000  0.75000000  1
  W  W0  1  -0.00000000  -0.00000000  -0.00000000  1
loop_
_geom_bond_atom_site_label_1
_geom_bond_atom_site_label_2
_geom_bond_distance
_geom_bond_site_symmetry_2
Hf0 Tc0 2.747783 1_655
Hf0 Tc1 2.747783 1_455
Hf0 Tc1 2.747783 1_545
Hf0 Tc0 2.747783 1_555
Hf0 Tc0 2.747783 1_556
Hf0 Tc1 2.747783 1_554
Hf0 Tc0 2.747783 1_565
Hf0 Tc1 2.747783 1_555
Hf0 W0 3.172866 1_665
Hf0 W0 3.172866 1_656
Hf0 W0 3.172866 1_566
Hf0 W0 3.172866 1_655
Hf0 W0 3.172866 1_565
Hf0 W0 3.172866 1_556
Tc0 W0 2.747783 1_655
Tc0 W0 2.747783 1_555
Tc0 W0 2.747783 1_565
Tc0 W0 2.747783 1_556
Tc1 W0 2.747783 1_566
Tc1 W0 2.747783 1_656
Tc1 W0 2.747783 1_666
Tc1 W0 2.747783 1_665
