# generated using pymatgen
data_CaPmPd2
_symmetry_space_group_name_H-M   'P 1'
_cell_length_a   5.01214123
_cell_length_b   5.01214123
_cell_length_c   5.01214123
_cell_angle_alpha   60.00000000
_cell_angle_beta   60.00000000
_cell_angle_gamma   60.00000000
_symmetry_Int_Tables_number   1
_chemical_formula_structural   CaPmPd2
_chemical_formula_sum   'Ca1 Pm1 Pd2'
_cell_volume   89.03379823
_cell_formula_units_Z   1
loop_
 _symmetry_equiv_pos_site_id
 _symmetry_equiv_pos_as_xyz
  1  'x, y, z'
loop_
 _atom_site_type_symbol
 _atom_site_label
 _atom_site_symmetry_multiplicity
 _atom_site_fract_x
 _atom_site_fract_y
 _atom_site_fract_z
 _atom_site_occupancy
  Ca  Ca0  1  0.25000000  0.25000000  0.25000000  1
  Pm  Pm0  1  0.75000000  0.75000000  0.75000000  1
  Pd  Pd0  1  0.50000100  0.50000100  0.50000100  1
  Pd  Pd1  1  0.00000000  0.00000000  -0.00000000  1
loop_
_geom_bond_atom_site_label_1
_geom_bond_atom_site_label_2
_geom_bond_distance
_geom_bond_site_symmetry_2
Ca0 Pd0 3.069293 1_455
Ca0 Pd0 3.069293 1_545
Ca0 Pd0 3.069293 1_554
Ca0 Pd1 3.069297 1_555
Ca0 Pd1 3.069297 1_556
Ca0 Pd1 3.069297 1_565
Ca0 Pd1 3.069297 1_655
Ca0 Pd0 3.069309 1_555
Pd0 Pm0 3.069285 1_555
Pd0 Pm0 3.069301 1_455
Pd0 Pm0 3.069301 1_554
Pd0 Pm0 3.069301 1_545
Pd1 Pm0 3.069297 1_445
Pd1 Pm0 3.069297 1_444
Pd1 Pm0 3.069297 1_454
Pd1 Pm0 3.069297 1_544
