# generated using pymatgen
data_TiInPd2
_symmetry_space_group_name_H-M   'P 1'
_cell_length_a   4.52444617
_cell_length_b   4.54220141
_cell_length_c   4.52466542
_cell_angle_alpha   59.90095554
_cell_angle_beta   60.32972574
_cell_angle_gamma   59.91682467
_symmetry_Int_Tables_number   1
_chemical_formula_structural   TiInPd2
_chemical_formula_sum   'Ti1 In1 Pd2'
_cell_volume   65.82204180
_cell_formula_units_Z   1
loop_
 _symmetry_equiv_pos_site_id
 _symmetry_equiv_pos_as_xyz
  1  'x, y, z'
loop_
 _atom_site_type_symbol
 _atom_site_label
 _atom_site_symmetry_multiplicity
 _atom_site_fract_x
 _atom_site_fract_y
 _atom_site_fract_z
 _atom_site_occupancy
  Ti  Ti0  1  0.74999862  0.75000837  0.74999802  1
  In  In0  1  0.25003384  0.24999300  0.24997249  1
  Pd  Pd0  1  0.99971671  0.99990053  0.00031857  1
  Pd  Pd1  1  0.50024983  0.50009810  0.49971192  1
loop_
_geom_bond_atom_site_label_1
_geom_bond_atom_site_label_2
_geom_bond_distance
_geom_bond_site_symmetry_2
In0 Pd1 2.773515 1_555
In0 Pd0 2.773526 1_445
In0 Pd1 2.775023 1_545
In0 Pd0 2.775070 1_455
In0 Pd0 2.775324 1_545
In0 Pd1 2.775700 1_455
In0 Pd1 2.777165 1_554
In0 Pd0 2.777484 1_446
Pd0 Ti0 2.773031 1_554
Pd0 Ti0 2.775003 1_555
Pd0 Ti0 2.775813 1_564
Pd0 Ti0 2.777556 1_654
Pd1 Ti0 2.773084 1_555
Pd1 Ti0 2.775132 1_554
Pd1 Ti0 2.775745 1_545
Pd1 Ti0 2.777442 1_455
