# generated using pymatgen
data_Cr2FeNO8
_symmetry_space_group_name_H-M   'P 1'
_cell_length_a   5.58702500
_cell_length_b   8.82712400
_cell_length_c   14.78475300
_cell_angle_alpha   90.00000000
_cell_angle_beta   90.00000000
_cell_angle_gamma   90.00000000
_symmetry_Int_Tables_number   1
_chemical_formula_structural   Cr2FeNO8
_chemical_formula_sum   'Cr8 Fe4 N4 O32'
_cell_volume   729.14502267
_cell_formula_units_Z   4
loop_
 _symmetry_equiv_pos_site_id
 _symmetry_equiv_pos_as_xyz
  1  'x, y, z'
loop_
 _atom_site_type_symbol
 _atom_site_label
 _atom_site_symmetry_multiplicity
 _atom_site_fract_x
 _atom_site_fract_y
 _atom_site_fract_z
 _atom_site_occupancy
  Cr  Cr0  1  0.75000000  0.25788500  0.84025100  1
  Cr  Cr1  1  0.75000000  0.24211500  0.34025100  1
  Cr  Cr2  1  0.25000000  0.74211500  0.15974900  1
  Cr  Cr3  1  0.25000000  0.75788500  0.65974900  1
  Cr  Cr4  1  0.75000000  0.81653600  0.93439800  1
  Cr  Cr5  1  0.75000000  0.68346400  0.43439800  1
  Cr  Cr6  1  0.25000000  0.18346400  0.06560200  1
  Cr  Cr7  1  0.25000000  0.31653600  0.56560200  1
  Fe  Fe0  1  0.25000000  0.00456400  0.84287400  1
  Fe  Fe1  1  0.25000000  0.49543600  0.34287400  1
  Fe  Fe2  1  0.75000000  0.99543600  0.15712600  1
  Fe  Fe3  1  0.75000000  0.50456400  0.65712600  1
  N  N0  1  0.25000000  0.53189200  0.87372700  1
  N  N1  1  0.25000000  0.96810800  0.37372700  1
  N  N2  1  0.75000000  0.46810800  0.12627300  1
  N  N3  1  0.75000000  0.03189200  0.62627300  1
  O  O0  1  0.75000000  0.63994300  0.96201800  1
  O  O1  1  0.75000000  0.86005700  0.46201800  1
  O  O2  1  0.25000000  0.36005700  0.03798200  1
  O  O3  1  0.25000000  0.13994300  0.53798200  1
  O  O4  1  0.25000000  0.78623200  0.55283700  1
  O  O5  1  0.25000000  0.71376800  0.05283700  1
  O  O6  1  0.75000000  0.21376800  0.44716300  1
  O  O7  1  0.75000000  0.28623200  0.94716300  1
  O  O8  1  0.25000000  0.07238000  0.97390700  1
  O  O9  1  0.25000000  0.42762000  0.47390700  1
  O  O10  1  0.75000000  0.92762000  0.02609300  1
  O  O11  1  0.75000000  0.57238000  0.52609300  1
  O  O12  1  0.25000000  0.92562800  0.71452700  1
  O  O13  1  0.25000000  0.57437200  0.21452700  1
  O  O14  1  0.75000000  0.07437200  0.28547300  1
  O  O15  1  0.75000000  0.42562800  0.78547300  1
  O  O16  1  0.99539100  0.15505700  0.81203100  1
  O  O17  1  0.50460900  0.34494300  0.31203100  1
  O  O18  1  0.49539100  0.84494300  0.18796900  1
  O  O19  1  0.00460900  0.65505700  0.68796900  1
  O  O20  1  0.00460900  0.84494300  0.18796900  1
  O  O21  1  0.49539100  0.65505700  0.68796900  1
  O  O22  1  0.50460900  0.15505700  0.81203100  1
  O  O23  1  0.99539100  0.34494300  0.31203100  1
  O  O24  1  0.00545200  0.35307400  0.62976300  1
  O  O25  1  0.49454800  0.14692600  0.12976300  1
  O  O26  1  0.50545200  0.64692600  0.37023700  1
  O  O27  1  0.99454800  0.85307400  0.87023700  1
  O  O28  1  0.99454800  0.64692600  0.37023700  1
  O  O29  1  0.50545200  0.85307400  0.87023700  1
  O  O30  1  0.49454800  0.35307400  0.62976300  1
  O  O31  1  0.00545200  0.14692600  0.12976300  1
loop_
_geom_bond_atom_site_label_1
_geom_bond_atom_site_label_2
_geom_bond_distance
_geom_bond_site_symmetry_2
Cr0 O7 1.600350 1_555
Cr0 O15 1.687703 1_555
Cr0 O16 1.696352 1_555
Cr0 O22 1.696352 1_555
Cr1 O6 1.600350 1_555
Cr1 O14 1.687703 1_555
Cr1 O23 1.696352 1_555
Cr1 O17 1.696352 1_555
Cr2 O5 1.600350 1_555
Cr2 O13 1.687703 1_555
Cr2 O18 1.696352 1_555
Cr2 O20 1.696352 1_555
Cr3 O4 1.600350 1_555
Cr3 O12 1.687703 1_555
Cr3 O19 1.696352 1_555
Cr3 O21 1.696352 1_555
Cr4 O0 1.611408 1_555
Cr4 O10 1.673133 1_556
Cr4 O27 1.694296 1_555
Cr4 O29 1.694296 1_555
Cr5 O1 1.611408 1_555
Cr5 O11 1.673133 1_555
Cr5 O28 1.694296 1_555
Cr5 O26 1.694296 1_555
Cr6 O2 1.611408 1_555
Cr6 O8 1.673133 1_554
Cr6 O25 1.694296 1_555
Cr6 O31 1.694296 1_555
Cr7 O3 1.611408 1_555
Cr7 O9 1.673133 1_555
Cr7 O24 1.694296 1_555
Cr7 O30 1.694296 1_555
Fe0 O29 1.997191 1_545
Fe0 O27 1.997191 1_445
Fe0 O16 1.999042 1_455
Fe0 O22 1.999042 1_555
Fe0 O12 2.021461 1_545
Fe0 O8 2.027669 1_555
Fe1 O26 1.997191 1_555
Fe1 O28 1.997191 1_455
Fe1 O23 1.999042 1_455
Fe1 O17 1.999042 1_555
Fe1 O13 2.021461 1_555
Fe1 O9 2.027669 1_555
Fe2 O25 1.997191 1_565
Fe2 O31 1.997191 1_665
Fe2 O18 1.999042 1_555
Fe2 O20 1.999042 1_655
Fe2 O14 2.021461 1_565
Fe2 O10 2.027669 1_555
Fe3 O30 1.997191 1_555
Fe3 O24 1.997191 1_655
Fe3 O21 1.999042 1_555
Fe3 O19 1.999042 1_655
Fe3 O15 2.021461 1_555
Fe3 O11 2.027669 1_555
