# generated using pymatgen
data_Li4Nb3Fe3(SbO8)2
_symmetry_space_group_name_H-M   'P 1'
_cell_length_a   6.15583200
_cell_length_b   6.22592428
_cell_length_c   10.55547454
_cell_angle_alpha   90.74003187
_cell_angle_beta   89.78383774
_cell_angle_gamma   118.91633124
_symmetry_Int_Tables_number   1
_chemical_formula_structural   Li4Nb3Fe3(SbO8)2
_chemical_formula_sum   'Li4 Nb3 Fe3 Sb2 O16'
_cell_volume   354.07934464
_cell_formula_units_Z   1
loop_
 _symmetry_equiv_pos_site_id
 _symmetry_equiv_pos_as_xyz
  1  'x, y, z'
loop_
 _atom_site_type_symbol
 _atom_site_label
 _atom_site_symmetry_multiplicity
 _atom_site_fract_x
 _atom_site_fract_y
 _atom_site_fract_z
 _atom_site_occupancy
  Li  Li0  1  0.67170400  0.34031100  0.89931600  1
  Li  Li1  1  0.00070700  0.00142200  0.00311600  1
  Li  Li2  1  0.99932300  0.00056200  0.48712600  1
  Li  Li3  1  0.34044500  0.67752300  0.38936200  1
  Nb  Nb0  1  0.82337300  0.64953000  0.23088800  1
  Nb  Nb1  1  0.16228800  0.82255200  0.71890900  1
  Nb  Nb2  1  0.65935500  0.82197900  0.71923000  1
  Fe  Fe0  1  0.33935400  0.16443300  0.21586100  1
  Fe  Fe1  1  0.82495700  0.16557000  0.21573100  1
  Fe  Fe2  1  0.16602200  0.33179800  0.70535300  1
  Sb  Sb0  1  0.64310100  0.28362800  0.49673400  1
  Sb  Sb1  1  0.32081200  0.64925800  0.02364100  1
  O  O0  1  0.30231100  0.13000100  0.59413800  1
  O  O1  1  0.53646000  0.04099000  0.34487900  1
  O  O2  1  0.69153400  0.35974800  0.10865600  1
  O  O3  1  0.98392500  0.98650800  0.30819500  1
  O  O4  1  0.99412900  0.99210600  0.81827500  1
  O  O5  1  0.82894600  0.13245000  0.59608900  1
  O  O6  1  0.52259400  0.50626300  0.32589000  1
  O  O7  1  0.98265500  0.50040300  0.32565300  1
  O  O8  1  0.14250400  0.31303400  0.10855400  1
  O  O9  1  0.86192400  0.71866800  0.60796700  1
  O  O10  1  0.01706700  0.52824700  0.81337500  1
  O  O11  1  0.51388300  0.52635000  0.81079500  1
  O  O12  1  0.34920400  0.69424200  0.60684500  1
  O  O13  1  0.15550800  0.83398600  0.10661100  1
  O  O14  1  0.49098800  0.98557400  0.81671200  1
  O  O15  1  0.67462500  0.84286500  0.10994100  1
loop_
_geom_bond_atom_site_label_1
_geom_bond_atom_site_label_2
_geom_bond_distance
_geom_bond_site_symmetry_2
Li0 O11 2.069182 1_555
Li0 O10 2.078239 1_655
Li0 O14 2.111194 1_545
Li0 O2 2.212032 1_556
Li1 O4 1.951188 1_444
Li1 O8 2.019489 1_555
Li1 O13 2.046000 1_545
Li1 O15 2.090604 1_445
Li2 O3 1.890211 1_545
Li2 O5 1.973944 1_555
Li2 O0 1.985679 1_655
Li2 O9 2.009160 1_545
Li3 O6 1.993764 1_555
Li3 O7 2.040216 1_455
Li3 O1 2.044461 1_565
Li3 O12 2.296306 1_555
Nb0 O6 1.908242 1_555
Nb0 O7 1.932816 1_555
Nb0 O3 2.000228 1_555
Nb0 O2 2.027337 1_555
Nb0 O13 2.228887 1_655
Nb0 O15 2.243112 1_555
Nb1 O10 1.899273 1_555
Nb1 O9 2.012141 1_455
Nb1 O14 2.047629 1_555
Nb1 O12 2.053178 1_555
Nb1 O4 2.075082 1_455
Nb1 O0 2.145336 1_565
Nb2 O11 1.889239 1_555
Nb2 O9 2.023130 1_555
Nb2 O14 2.038662 1_555
Nb2 O12 2.051649 1_555
Nb2 O4 2.082928 1_555
Nb2 O5 2.149167 1_565
Fe0 O13 2.130771 1_545
Fe0 O3 2.152231 1_445
Fe0 O8 2.174608 1_555
Fe0 O6 2.185179 1_555
Fe0 O1 2.204273 1_555
Fe0 O2 2.219652 1_555
Fe1 O8 2.053886 1_655
Fe1 O3 2.059943 1_545
Fe1 O1 2.071441 1_555
Fe1 O15 2.071656 1_545
Fe1 O2 2.101442 1_555
Fe1 O7 2.150197 1_555
Fe2 O0 2.152735 1_555
Fe2 O5 2.160258 1_455
Fe2 O10 2.162741 1_555
Fe2 O11 2.183165 1_555
Fe2 O4 2.214640 1_445
Fe2 O12 2.244050 1_555
O0 Sb0 2.107502 1_555
O1 Sb0 2.066073 1_555
O5 Sb0 2.090558 1_555
O6 Sb0 2.606275 1_555
O7 Sb0 2.599614 1_555
O8 Sb1 2.051612 1_555
O9 Sb0 2.632611 1_555
O13 Sb1 2.055299 1_555
O15 Sb1 2.115238 1_555
