# generated using pymatgen
data_RbCaCO3F
_symmetry_space_group_name_H-M   'P 1'
_cell_length_a   9.17045175
_cell_length_b   9.17045175
_cell_length_c   4.44100353
_cell_angle_alpha   90.00000000
_cell_angle_beta   90.00000000
_cell_angle_gamma   120.00000241
_symmetry_Int_Tables_number   1
_chemical_formula_structural   RbCaCO3F
_chemical_formula_sum   'Rb3 Ca3 C3 O9 F3'
_cell_volume   323.43960676
_cell_formula_units_Z   3
loop_
 _symmetry_equiv_pos_site_id
 _symmetry_equiv_pos_as_xyz
  1  'x, y, z'
loop_
 _atom_site_type_symbol
 _atom_site_label
 _atom_site_symmetry_multiplicity
 _atom_site_fract_x
 _atom_site_fract_y
 _atom_site_fract_z
 _atom_site_occupancy
  Rb  Rb0  1  0.00000000  0.71828707  0.00000000  1
  Rb  Rb1  1  0.28171293  0.28171293  0.00000000  1
  Rb  Rb2  1  0.71828707  0.00000000  0.00000000  1
  Ca  Ca0  1  0.61217714  0.61217714  0.50000000  1
  Ca  Ca1  1  0.38782286  0.00000000  0.50000000  1
  Ca  Ca2  1  0.00000000  0.38782286  0.50000000  1
  C  C0  1  0.33333300  0.66666700  0.50000000  1
  C  C1  1  0.00000000  0.00000000  0.50000000  1
  C  C2  1  0.66666700  0.33333300  0.50000000  1
  O  O0  1  0.85953358  0.85953358  0.50000000  1
  O  O1  1  0.14046642  1.00000000  0.50000000  1
  O  O2  1  1.00000000  0.14046642  0.50000000  1
  O  O3  1  0.48451853  0.79494178  0.50000000  1
  O  O4  1  0.20505822  0.68957674  0.50000000  1
  O  O5  1  0.31042326  0.51548147  0.50000000  1
  O  O6  1  0.68957674  0.20505822  0.50000000  1
  O  O7  1  0.51548147  0.31042326  0.50000000  1
  O  O8  1  0.79494178  0.48451853  0.50000000  1
  F  F0  1  0.61415691  0.61415691  0.00000000  1
  F  F1  1  0.38584309  -0.00000000  -0.00000000  1
  F  F2  1  -0.00000000  0.38584309  -0.00000000  1
loop_
_geom_bond_atom_site_label_1
_geom_bond_atom_site_label_2
_geom_bond_distance
_geom_bond_site_symmetry_2
Ca0 F0 2.220576 1_555
Ca0 F0 2.220576 1_556
Ca0 O0 2.268370 1_555
Ca0 O7 2.447448 1_555
Ca0 O5 2.447448 1_555
Ca0 O8 2.478248 1_555
Ca0 O3 2.478248 1_555
Ca1 F1 2.220576 1_555
Ca1 F1 2.220576 1_556
Ca1 O1 2.268370 1_545
Ca1 O6 2.447448 1_555
Ca1 O3 2.447449 1_545
Ca1 O4 2.478248 1_545
Ca1 O7 2.478248 1_555
Ca2 F2 2.220576 1_556
Ca2 F2 2.220576 1_555
Ca2 O2 2.268370 1_455
Ca2 O4 2.447448 1_555
Ca2 O8 2.447449 1_455
Ca2 O6 2.478248 1_455
Ca2 O5 2.478248 1_555
C0 O4 1.294237 1_555
C0 O3 1.294243 1_555
C0 O5 1.294246 1_555
C1 O0 1.288140 1_445
C1 O1 1.288141 1_545
C1 O2 1.288141 1_455
C2 O6 1.294237 1_555
C2 O8 1.294243 1_555
C2 O7 1.294246 1_555
O0 Rb2 3.152181 1_565
O0 Rb2 3.152181 1_566
O0 Rb0 3.152181 1_656
O0 Rb0 3.152181 1_655
O1 Rb1 3.152181 1_565
O1 Rb1 3.152181 1_566
O1 Rb0 3.152181 1_555
O1 Rb0 3.152181 1_556
O2 Rb1 3.152181 1_656
O2 Rb1 3.152181 1_655
O2 Rb2 3.152181 1_555
O2 Rb2 3.152181 1_556
O3 Rb2 3.005203 1_565
O3 Rb2 3.005203 1_566
O4 Rb0 3.005203 1_555
O4 Rb0 3.005203 1_556
O5 Rb1 3.005203 1_555
O5 Rb1 3.005203 1_556
O6 Rb2 3.005203 1_555
O6 Rb2 3.005203 1_556
O7 Rb1 3.005203 1_555
O7 Rb1 3.005203 1_556
O8 Rb0 3.005203 1_656
O8 Rb0 3.005203 1_655
F0 Rb1 3.048661 1_555
F0 Rb2 3.170644 1_565
F0 Rb0 3.170644 1_655
F1 Rb2 3.048661 1_555
F1 Rb0 3.170644 1_545
F1 Rb1 3.170644 1_555
F2 Rb0 3.048661 1_555
F2 Rb2 3.170644 1_455
F2 Rb1 3.170644 1_555
