# generated using pymatgen
data_Rb4Te2S8O15
_symmetry_space_group_name_H-M   'P 1'
_cell_length_a   21.62281906
_cell_length_b   9.57401606
_cell_length_c   12.67548060
_cell_angle_alpha   90.00000000
_cell_angle_beta   90.00000000
_cell_angle_gamma   90.00000000
_symmetry_Int_Tables_number   1
_chemical_formula_structural   Rb4Te2S8O15
_chemical_formula_sum   'Rb16 Te8 S32 O60'
_cell_volume   2624.04271723
_cell_formula_units_Z   4
loop_
 _symmetry_equiv_pos_site_id
 _symmetry_equiv_pos_as_xyz
  1  'x, y, z'
loop_
 _atom_site_type_symbol
 _atom_site_label
 _atom_site_symmetry_multiplicity
 _atom_site_fract_x
 _atom_site_fract_y
 _atom_site_fract_z
 _atom_site_occupancy
  Rb  Rb0  1  0.26186220  0.74842108  0.96909065  1
  Rb  Rb1  1  0.23813780  0.75157892  0.46909065  1
  Rb  Rb2  1  0.76186220  0.75157892  0.03090935  1
  Rb  Rb3  1  0.73813780  0.74842108  0.53090935  1
  Rb  Rb4  1  0.73813780  0.25157892  0.03090935  1
  Rb  Rb5  1  0.76186220  0.24842108  0.53090935  1
  Rb  Rb6  1  0.23813780  0.24842108  0.96909065  1
  Rb  Rb7  1  0.26186220  0.25157892  0.46909065  1
  Rb  Rb8  1  0.39385246  0.91939154  0.68957132  1
  Rb  Rb9  1  0.10614754  0.58060846  0.18957132  1
  Rb  Rb10  1  0.89385246  0.58060846  0.31042868  1
  Rb  Rb11  1  0.60614754  0.91939154  0.81042868  1
  Rb  Rb12  1  0.60614754  0.08060846  0.31042868  1
  Rb  Rb13  1  0.89385246  0.41939154  0.81042868  1
  Rb  Rb14  1  0.10614754  0.41939154  0.68957132  1
  Rb  Rb15  1  0.39385246  0.08060846  0.18957132  1
  Te  Te0  1  0.07105061  0.99442853  0.64998300  1
  Te  Te1  1  0.42894939  0.50557147  0.14998300  1
  Te  Te2  1  0.57105061  0.50557147  0.35001700  1
  Te  Te3  1  0.92894939  0.99442853  0.85001700  1
  Te  Te4  1  0.92894939  0.00557147  0.35001700  1
  Te  Te5  1  0.57105061  0.49442853  0.85001700  1
  Te  Te6  1  0.42894939  0.49442853  0.64998300  1
  Te  Te7  1  0.07105061  0.00557147  0.14998300  1
  S  S0  1  0.08547745  0.93582433  0.46993874  1
  S  S1  1  0.41452255  0.56417567  0.96993874  1
  S  S2  1  0.58547745  0.56417567  0.53006126  1
  S  S3  1  0.91452255  0.93582433  0.03006126  1
  S  S4  1  0.91452255  0.06417567  0.53006126  1
  S  S5  1  0.58547745  0.43582433  0.03006126  1
  S  S6  1  0.41452255  0.43582433  0.46993874  1
  S  S7  1  0.08547745  0.06417567  0.96993874  1
  S  S8  1  0.15698555  0.87963127  0.73080965  1
  S  S9  1  0.34301445  0.62036873  0.23080965  1
  S  S10  1  0.65698555  0.62036873  0.26919035  1
  S  S11  1  0.84301445  0.87963127  0.76919035  1
  S  S12  1  0.84301445  0.12036873  0.26919035  1
  S  S13  1  0.65698555  0.37963127  0.76919035  1
  S  S14  1  0.34301445  0.37963127  0.73080965  1
  S  S15  1  0.15698555  0.12036873  0.23080965  1
  S  S16  1  0.05230515  0.71570268  0.46190445  1
  S  S17  1  0.44769485  0.78429732  0.96190445  1
  S  S18  1  0.55230515  0.78429732  0.53809555  1
  S  S19  1  0.94769485  0.71570268  0.03809555  1
  S  S20  1  0.94769485  0.28429732  0.53809555  1
  S  S21  1  0.55230515  0.21570268  0.03809555  1
  S  S22  1  0.44769485  0.21570268  0.46190445  1
  S  S23  1  0.05230515  0.28429732  0.96190445  1
  S  S24  1  0.23029256  0.03560021  0.72082410  1
  S  S25  1  0.26970744  0.46439979  0.22082410  1
  S  S26  1  0.73029256  0.46439979  0.27917590  1
  S  S27  1  0.76970744  0.03560021  0.77917590  1
  S  S28  1  0.76970744  0.96439979  0.27917590  1
  S  S29  1  0.73029256  0.53560021  0.77917590  1
  S  S30  1  0.26970744  0.53560021  0.72082410  1
  S  S31  1  0.23029256  0.96439979  0.22082410  1
  O  O0  1  0.00504139  0.70069082  0.54299415  1
  O  O1  1  0.49495861  0.79930918  0.04299415  1
  O  O2  1  0.50504139  0.79930918  0.45700585  1
  O  O3  1  0.99495861  0.70069082  0.95700585  1
  O  O4  1  0.99495861  0.29930918  0.45700585  1
  O  O5  1  0.50504139  0.20069082  0.95700585  1
  O  O6  1  0.49495861  0.20069082  0.54299415  1
  O  O7  1  0.00504139  0.29930918  0.04299415  1
  O  O8  1  0.10851916  0.63337560  0.47757123  1
  O  O9  1  0.39148084  0.86662440  0.97757123  1
  O  O10  1  0.60851916  0.86662440  0.52242877  1
  O  O11  1  0.89148084  0.63337560  0.02242877  1
  O  O12  1  0.89148084  0.36662440  0.52242877  1
  O  O13  1  0.60851916  0.13337560  0.02242877  1
  O  O14  1  0.39148084  0.13337560  0.47757123  1
  O  O15  1  0.10851916  0.36662440  0.97757123  1
  O  O16  1  0.02879525  0.71543464  0.35296795  1
  O  O17  1  0.47120475  0.78456536  0.85296795  1
  O  O18  1  0.52879525  0.78456536  0.64703205  1
  O  O19  1  0.97120475  0.71543464  0.14703205  1
  O  O20  1  0.97120475  0.28456536  0.64703205  1
  O  O21  1  0.52879525  0.21543464  0.14703205  1
  O  O22  1  0.47120475  0.21543464  0.35296795  1
  O  O23  1  0.02879525  0.28456536  0.85296795  1
  O  O24  1  0.20115087  0.17319741  0.72924778  1
  O  O25  1  0.29884913  0.32680259  0.22924778  1
  O  O26  1  0.70115087  0.32680259  0.27075222  1
  O  O27  1  0.79884913  0.17319741  0.77075222  1
  O  O28  1  0.79884913  0.82680259  0.27075222  1
  O  O29  1  0.70115087  0.67319741  0.77075222  1
  O  O30  1  0.29884913  0.67319741  0.72924778  1
  O  O31  1  0.20115087  0.82680259  0.22924778  1
  O  O32  1  0.26094215  0.01135844  0.61870966  1
  O  O33  1  0.23905785  0.48864156  0.11870966  1
  O  O34  1  0.76094215  0.48864156  0.38129034  1
  O  O35  1  0.73905785  0.01135844  0.88129034  1
  O  O36  1  0.73905785  0.98864156  0.38129034  1
  O  O37  1  0.76094215  0.51135844  0.88129034  1
  O  O38  1  0.23905785  0.51135844  0.61870966  1
  O  O39  1  0.26094215  0.98864156  0.11870966  1
  O  O40  1  0.26841051  0.99731059  0.81207600  1
  O  O41  1  0.23158949  0.50268941  0.31207600  1
  O  O42  1  0.76841051  0.50268941  0.18792400  1
  O  O43  1  0.73158949  0.99731059  0.68792400  1
  O  O44  1  0.73158949  0.00268941  0.18792400  1
  O  O45  1  0.76841051  0.49731059  0.68792400  1
  O  O46  1  0.23158949  0.49731059  0.81207600  1
  O  O47  1  0.26841051  0.00268941  0.31207600  1
  O  O48  1  0.13003320  0.67213950  0.95598096  1
  O  O49  1  0.36996680  0.82786050  0.45598096  1
  O  O50  1  0.63003320  0.82786050  0.04401904  1
  O  O51  1  0.86996680  0.67213950  0.54401904  1
  O  O52  1  0.86996680  0.32786050  0.04401904  1
  O  O53  1  0.63003320  0.17213950  0.54401904  1
  O  O54  1  0.36996680  0.17213950  0.95598096  1
  O  O55  1  0.13003320  0.32786050  0.45598096  1
  O  O56  1  0.00000000  0.61350012  0.75000000  1
  O  O57  1  0.50000000  0.88649988  0.25000000  1
  O  O58  1  0.00000000  0.38649988  0.25000000  1
  O  O59  1  0.50000000  0.11350012  0.75000000  1
loop_
_geom_bond_atom_site_label_1
_geom_bond_atom_site_label_2
_geom_bond_distance
_geom_bond_site_symmetry_2
Rb0 S1 3.742720 1_555
Rb1 S0 3.742720 1_555
Rb2 S3 3.742720 1_555
Rb3 S2 3.742720 1_555
Rb4 S5 3.742720 1_555
Rb5 S4 3.742720 1_555
Rb6 S7 3.742720 1_555
Rb7 S6 3.742720 1_555
S0 S16 2.228497 1_555
S0 Te0 2.370721 1_555
S1 S17 2.228497 1_555
S1 Te1 2.370721 1_556
S2 Te2 2.370721 1_555
S3 Te3 2.370721 1_554
S4 Te4 2.370721 1_555
S5 Te5 2.370721 1_554
S6 Te6 2.370721 1_555
S7 Te7 2.370721 1_556
S8 Te0 2.389630 1_555
S9 Te1 2.389630 1_555
S10 S26 2.181369 1_555
S10 Te2 2.389630 1_555
S11 S27 2.181369 1_565
S11 Te3 2.389630 1_555
S12 S28 2.181369 1_545
S12 Te4 2.389630 1_555
S13 S29 2.181369 1_555
S13 Te5 2.389630 1_555
S14 S30 2.181369 1_555
S14 Te6 2.389630 1_555
S15 S31 2.181369 1_545
S15 Te7 2.389630 1_555
S18 S2 2.228497 1_555
S19 S3 2.228497 1_555
S20 S4 2.228497 1_555
S21 S5 2.228497 1_555
S22 S6 2.228497 1_555
S23 S7 2.228497 1_555
S24 S8 2.181369 1_545
S25 S9 2.181369 1_555
O0 S16 1.456560 1_555
O1 S17 1.456560 1_554
O2 S18 1.456560 1_555
O3 S19 1.456560 1_556
O4 S20 1.456560 1_555
O5 S21 1.456560 1_556
O6 S22 1.456560 1_555
O7 S23 1.456560 1_554
O8 S16 1.462241 1_555
O8 Rb1 3.024483 1_555
O8 Rb14 3.379469 1_555
O9 S17 1.462241 1_555
O9 Rb0 3.024483 1_555
O9 Rb15 3.379469 1_566
O10 S18 1.462241 1_555
O10 Rb3 3.024483 1_555
O10 Rb12 3.379469 1_565
O11 S19 1.462241 1_555
O11 Rb2 3.024483 1_555
O11 Rb13 3.379469 1_554
O12 S20 1.462241 1_555
O12 Rb5 3.024483 1_555
O12 Rb10 3.379469 1_555
O13 S21 1.462241 1_555
O13 Rb4 3.024483 1_555
O13 Rb11 3.379469 1_544
O14 S22 1.462241 1_555
O14 Rb7 3.024483 1_555
O14 Rb8 3.379469 1_545
O15 S23 1.462241 1_555
O15 Rb6 3.024483 1_555
O15 Rb9 3.379469 1_556
O16 S16 1.471427 1_555
O16 Rb9 2.958602 1_555
O16 Rb10 3.235860 1_455
O17 S17 1.471427 1_555
O17 Rb8 2.958602 1_555
O17 Rb11 3.235860 1_555
O18 S18 1.471427 1_555
O18 Rb11 2.958602 1_555
O18 Rb8 3.235860 1_555
O19 S19 1.471427 1_555
O19 Rb10 2.958602 1_555
O19 Rb9 3.235860 1_655
O20 S20 1.471427 1_555
O20 Rb13 2.958602 1_555
O20 Rb14 3.235860 1_655
O21 S21 1.471427 1_555
O21 Rb12 2.958602 1_555
O21 Rb15 3.235860 1_555
O22 S22 1.471427 1_555
O22 Rb15 2.958602 1_555
O22 Rb12 3.235860 1_555
O23 S23 1.471427 1_555
O23 Rb14 2.958602 1_555
O23 Rb13 3.235860 1_455
O24 S24 1.464203 1_555
O24 Rb14 3.166795 1_555
O24 Rb6 3.225004 1_555
O25 S25 1.464203 1_555
O25 Rb15 3.166795 1_555
O25 Rb7 3.225004 1_555
O26 S26 1.464203 1_555
O26 Rb12 3.166795 1_555
O26 Rb4 3.225004 1_555
O27 S27 1.464203 1_555
O27 Rb13 3.166795 1_555
O27 Rb5 3.225004 1_555
O28 S28 1.464203 1_555
O28 Rb10 3.166795 1_555
O28 Rb2 3.225004 1_555
O29 S29 1.464203 1_555
O29 Rb11 3.166795 1_555
O29 Rb3 3.225004 1_555
O30 S30 1.464203 1_555
O30 Rb8 3.166795 1_555
O30 Rb0 3.225004 1_555
O31 S31 1.464203 1_555
O31 Rb9 3.166795 1_555
O31 Rb1 3.225004 1_555
O32 S24 1.472555 1_555
O32 Rb7 2.981024 1_555
O32 Rb8 3.137087 1_545
O32 Rb1 3.166332 1_545
O33 S25 1.472555 1_555
O33 Rb6 2.981024 1_554
O33 Rb9 3.137087 1_555
O33 Rb0 3.166332 1_554
O34 S26 1.472555 1_555
O34 Rb5 2.981024 1_555
O34 Rb10 3.137087 1_555
O34 Rb3 3.166332 1_555
O35 S27 1.472555 1_555
O35 Rb4 2.981024 1_556
O35 Rb11 3.137087 1_545
O35 Rb2 3.166332 1_546
O36 S28 1.472555 1_555
O36 Rb3 2.981024 1_555
O36 Rb12 3.137087 1_565
O36 Rb5 3.166332 1_565
O37 S29 1.472555 1_555
O37 Rb2 2.981024 1_556
O37 Rb13 3.137087 1_555
O37 Rb4 3.166332 1_556
O38 S30 1.472555 1_555
O38 Rb1 2.981024 1_555
O38 Rb14 3.137087 1_555
O38 Rb7 3.166332 1_555
O39 S31 1.472555 1_555
O39 Rb0 2.981024 1_554
O39 Rb15 3.137087 1_565
O39 Rb6 3.166332 1_564
O40 S24 1.466828 1_565
O40 Rb0 3.107920 1_555
O40 Rb6 3.188947 1_565
O40 Rb8 3.213235 1_555
O41 S25 1.466828 1_555
O41 Rb1 3.107920 1_555
O41 Rb7 3.188947 1_555
O41 Rb9 3.213235 1_555
O42 S26 1.466828 1_555
O42 Rb2 3.107920 1_555
O42 Rb4 3.188947 1_555
O42 Rb10 3.213235 1_555
O43 S27 1.466828 1_565
O43 Rb3 3.107920 1_555
O43 Rb5 3.188947 1_565
O43 Rb11 3.213235 1_555
O44 S28 1.466828 1_545
O44 Rb4 3.107920 1_555
O44 Rb2 3.188947 1_545
O44 Rb12 3.213235 1_555
O45 S29 1.466828 1_555
O45 Rb5 3.107920 1_555
O45 Rb3 3.188947 1_555
O45 Rb13 3.213235 1_555
O46 S30 1.466828 1_555
O46 Rb6 3.107920 1_555
O46 Rb0 3.188947 1_555
O46 Rb14 3.213235 1_555
O47 S31 1.466828 1_545
O47 Rb7 3.107920 1_555
O47 Rb1 3.188947 1_545
O47 Rb15 3.213235 1_555
O48 Rb0 2.947273 1_555
O48 Rb9 3.130724 1_556
O49 Rb1 2.947273 1_555
O49 Rb8 3.130724 1_555
O50 Rb2 2.947273 1_555
O50 Rb11 3.130724 1_554
O51 Rb3 2.947273 1_555
O51 Rb10 3.130724 1_555
O52 Rb4 2.947273 1_555
O52 Rb13 3.130724 1_554
O53 Rb5 2.947273 1_555
O53 Rb12 3.130724 1_555
O54 Rb6 2.947273 1_555
O54 Rb15 3.130724 1_556
O55 Rb7 2.947273 1_555
O55 Rb14 3.130724 1_555
O56 Rb13 3.050955 1_455
O56 Rb14 3.050955 1_555
O57 Rb15 3.050955 1_565
O57 Rb12 3.050955 1_565
O58 Rb10 3.050955 1_455
O58 Rb9 3.050955 1_555
O59 Rb8 3.050955 1_545
O59 Rb11 3.050955 1_545
