# generated using pymatgen
data_KTi16O32
_symmetry_space_group_name_H-M   'P 1'
_cell_length_a   8.53623400
_cell_length_b   8.53661754
_cell_length_c   10.41363398
_cell_angle_alpha   112.04458011
_cell_angle_beta   102.64098497
_cell_angle_gamma   105.95426673
_symmetry_Int_Tables_number   1
_chemical_formula_structural   KTi16O32
_chemical_formula_sum   'K1 Ti16 O32'
_cell_volume   630.58794938
_cell_formula_units_Z   1
loop_
 _symmetry_equiv_pos_site_id
 _symmetry_equiv_pos_as_xyz
  1  'x, y, z'
loop_
 _atom_site_type_symbol
 _atom_site_label
 _atom_site_symmetry_multiplicity
 _atom_site_fract_x
 _atom_site_fract_y
 _atom_site_fract_z
 _atom_site_occupancy
  K  K0  1  0.50000000  0.00000000  0.50000000  1
  Ti  Ti0  1  0.17876900  0.51767400  0.00310900  1
  Ti  Ti1  1  0.42752700  0.01678900  0.75382000  1
  Ti  Ti2  1  0.41383800  0.59792500  0.11025200  1
  Ti  Ti3  1  0.83461300  0.90138000  0.64047700  1
  Ti  Ti4  1  0.58616200  0.40207500  0.88974800  1
  Ti  Ti5  1  0.09298900  0.40695300  0.38825500  1
  Ti  Ti6  1  0.82123100  0.48232600  0.99689100  1
  Ti  Ti7  1  0.06644000  0.98242900  0.74953100  1
  Ti  Ti8  1  0.67874300  0.51718000  0.50336500  1
  Ti  Ti9  1  0.93356000  0.01757100  0.25046900  1
  Ti  Ti10  1  0.16538700  0.09862000  0.35952300  1
  Ti  Ti11  1  0.66180000  0.09622500  0.86110900  1
  Ti  Ti12  1  0.90701100  0.59304700  0.61174500  1
  Ti  Ti13  1  0.33820000  0.90377500  0.13889100  1
  Ti  Ti14  1  0.32125700  0.48282000  0.49663500  1
  Ti  Ti15  1  0.57247300  0.98321100  0.24618000  1
  O  O0  1  0.08350500  0.69786200  0.96824700  1
  O  O1  1  0.37804700  0.70842500  0.99804100  1
  O  O2  1  0.26541900  0.31614300  0.02994600  1
  O  O3  1  0.76483900  0.31484500  0.52965100  1
  O  O4  1  0.51557500  0.81584000  0.78017600  1
  O  O5  1  0.73458100  0.68385700  0.97005400  1
  O  O6  1  0.60764600  0.53696900  0.75733800  1
  O  O7  1  0.35843500  0.03749800  0.00707100  1
  O  O8  1  0.85515900  0.03593600  0.50773300  1
  O  O9  1  0.10343700  0.53315000  0.25918400  1
  O  O10  1  0.87561200  0.79344400  0.75040200  1
  O  O11  1  0.12257300  0.29181500  0.50171200  1
  O  O12  1  0.62195300  0.29157500  0.00195900  1
  O  O13  1  0.33317600  0.19783600  0.71849500  1
  O  O14  1  0.58226800  0.69876800  0.46908800  1
  O  O15  1  0.83106800  0.19631400  0.22049500  1
  O  O16  1  0.16893200  0.80368600  0.77950500  1
  O  O17  1  0.41773200  0.30123200  0.53091200  1
  O  O18  1  0.91649500  0.30213800  0.03175300  1
  O  O19  1  0.87742700  0.70818500  0.49828800  1
  O  O20  1  0.12438800  0.20655600  0.24959800  1
  O  O21  1  0.62769900  0.20800200  0.74836900  1
  O  O22  1  0.14484100  0.96406400  0.49226700  1
  O  O23  1  0.64156500  0.96250200  0.99292900  1
  O  O24  1  0.89656300  0.46685000  0.74081600  1
  O  O25  1  0.39235400  0.46303100  0.24266200  1
  O  O26  1  0.01490400  0.81507300  0.28026000  1
  O  O27  1  0.98509600  0.18492700  0.71974000  1
  O  O28  1  0.48442500  0.18416000  0.21982400  1
  O  O29  1  0.23516100  0.68515500  0.47034900  1
  O  O30  1  0.37230100  0.79199800  0.25163100  1
  O  O31  1  0.66682400  0.80216400  0.28150500  1
loop_
_geom_bond_atom_site_label_1
_geom_bond_atom_site_label_2
_geom_bond_distance
_geom_bond_site_symmetry_2
K0 O21 2.298966 1_555
K0 O30 2.298966 1_545
K0 O14 2.771233 1_545
K0 O17 2.771233 1_555
K0 O3 2.856783 1_555
K0 O29 2.856783 1_545
Ti0 Ti2 1.852371 1_555
Ti4 Ti6 1.852371 1_555
Ti12 Ti8 1.812483 1_555
Ti14 Ti5 1.812483 1_555
O0 Ti0 2.033900 1_556
O0 Ti13 2.199507 1_556
O0 Ti6 2.631819 1_455
O1 Ti2 1.782750 1_556
O1 Ti13 1.934464 1_556
O1 Ti0 2.032015 1_556
O2 Ti2 2.107512 1_555
O2 Ti0 2.134233 1_555
O3 Ti12 2.069118 1_555
O3 Ti8 2.136163 1_555
O3 Ti15 2.911138 1_545
O4 Ti11 2.092899 1_565
O4 Ti1 2.134205 1_565
O4 Ti14 2.917980 1_555
O5 Ti4 2.107512 1_555
O5 Ti6 2.134233 1_555
O6 Ti4 2.108896 1_555
O6 Ti8 2.795577 1_555
O7 Ti13 2.094996 1_545
O8 Ti3 2.109107 1_545
O9 Ti5 2.015369 1_555
O9 Ti0 2.841636 1_555
O10 Ti3 1.753723 1_555
O10 Ti12 1.910635 1_555
O10 Ti7 1.956790 1_655
O10 Ti8 2.525636 1_555
O11 Ti5 1.817518 1_555
O11 Ti10 1.944507 1_555
O11 Ti14 2.030174 1_555
O12 Ti4 1.782750 1_554
O12 Ti11 1.934464 1_554
O12 Ti6 2.032015 1_554
O13 Ti1 2.038151 1_555
O13 Ti4 2.189597 1_555
O13 Ti7 2.671457 1_545
O14 Ti8 2.048674 1_555
O14 Ti3 2.183787 1_555
O14 Ti14 2.619849 1_555
O15 Ti9 2.040344 1_555
O15 Ti5 2.237503 1_655
O15 Ti15 2.582590 1_545
O16 Ti7 2.040344 1_555
O16 Ti12 2.237503 1_455
O16 Ti1 2.582590 1_565
O17 Ti14 2.048674 1_555
O17 Ti10 2.183787 1_555
O17 Ti8 2.619849 1_555
O18 Ti6 2.033900 1_554
O18 Ti11 2.199507 1_554
O18 Ti0 2.631819 1_655
O19 Ti12 1.817518 1_555
O19 Ti3 1.944507 1_555
O19 Ti8 2.030174 1_555
O20 Ti10 1.753723 1_555
O20 Ti5 1.910635 1_555
O20 Ti9 1.956790 1_455
O20 Ti14 2.525636 1_555
O21 Ti11 1.793775 1_555
O21 Ti4 1.938683 1_555
O21 Ti1 2.041095 1_555
O21 Ti6 2.522604 1_555
O22 Ti10 2.109107 1_565
O23 Ti11 2.094996 1_565
O24 O3 1.938409 1_555
O24 Ti12 2.015369 1_555
O24 Ti6 2.841636 1_555
O25 Ti2 2.108896 1_555
O25 Ti14 2.795577 1_555
O26 Ti10 2.125375 1_565
O26 Ti9 2.129499 1_465
O26 Ti6 2.915591 1_454
O27 Ti3 2.125375 1_545
O27 Ti7 2.129499 1_645
O27 Ti0 2.915591 1_656
O28 Ti13 2.092899 1_545
O28 Ti15 2.134205 1_545
O28 Ti8 2.917980 1_555
O29 O9 1.938409 1_555
O29 Ti5 2.069118 1_555
O29 Ti14 2.136163 1_555
O29 Ti1 2.911138 1_565
O30 Ti13 1.793775 1_555
O30 Ti2 1.938683 1_555
O30 Ti15 2.041095 1_555
O30 Ti0 2.522604 1_555
O31 Ti15 2.038151 1_555
O31 Ti2 2.189597 1_555
O31 Ti9 2.671457 1_565
