# generated using pymatgen
data_V3O10
_symmetry_space_group_name_H-M   'P 1'
_cell_length_a   8.96739100
_cell_length_b   8.96739100
_cell_length_c   5.40995400
_cell_angle_alpha   90.00000000
_cell_angle_beta   90.00000000
_cell_angle_gamma   90.00000000
_symmetry_Int_Tables_number   1
_chemical_formula_structural   V3O10
_chemical_formula_sum   'V6 O20'
_cell_volume   435.03658924
_cell_formula_units_Z   2
loop_
 _symmetry_equiv_pos_site_id
 _symmetry_equiv_pos_as_xyz
  1  'x, y, z'
loop_
 _atom_site_type_symbol
 _atom_site_label
 _atom_site_symmetry_multiplicity
 _atom_site_fract_x
 _atom_site_fract_y
 _atom_site_fract_z
 _atom_site_occupancy
  V  V0  1  0.50000000  0.50000000  0.24547000  1
  V  V1  1  0.00000000  0.00000000  0.24547000  1
  V  V2  1  0.36560400  0.13439600  0.26133900  1
  V  V3  1  0.63439600  0.86560400  0.26133900  1
  V  V4  1  0.13439600  0.63439600  0.26133900  1
  V  V5  1  0.86560400  0.36560400  0.26133900  1
  O  O0  1  0.50000000  0.50000000  0.54376000  1
  O  O1  1  0.00000000  0.00000000  0.54376000  1
  O  O2  1  0.41548000  0.31408500  0.15599000  1
  O  O3  1  0.58452000  0.68591500  0.15599000  1
  O  O4  1  0.08452000  0.81408500  0.15599000  1
  O  O5  1  0.91548000  0.18591500  0.15599000  1
  O  O6  1  0.31408500  0.58452000  0.15599000  1
  O  O7  1  0.68591500  0.41548000  0.15599000  1
  O  O8  1  0.81408500  0.91548000  0.15599000  1
  O  O9  1  0.18591500  0.08452000  0.15599000  1
  O  O10  1  0.36840000  0.13160000  0.56607000  1
  O  O11  1  0.63160000  0.86840000  0.56607000  1
  O  O12  1  0.13160000  0.63160000  0.56607000  1
  O  O13  1  0.86840000  0.36840000  0.56607000  1
  O  O14  1  0.50000000  0.00000000  0.14911900  1
  O  O15  1  0.00000000  0.50000000  0.14911900  1
  O  O16  1  0.32976100  0.82976100  0.78564900  1
  O  O17  1  0.67023900  0.17023900  0.78564900  1
  O  O18  1  0.17023900  0.32976100  0.78564900  1
  O  O19  1  0.82976100  0.67023900  0.78564900  1
loop_
_geom_bond_atom_site_label_1
_geom_bond_atom_site_label_2
_geom_bond_distance
_geom_bond_site_symmetry_2
O0 V0 1.613735 1_555
O1 V1 1.613735 1_555
O2 V2 1.766716 1_555
O2 V0 1.894267 1_555
O3 V3 1.766716 1_555
O3 V0 1.894267 1_555
O4 V4 1.766716 1_555
O4 V1 1.894267 1_565
O5 V5 1.766716 1_555
O5 V1 1.894267 1_655
O6 V4 1.766716 1_555
O6 V0 1.894267 1_555
O7 V5 1.766716 1_555
O7 V0 1.894267 1_555
O8 V3 1.766716 1_555
O8 V1 1.894267 1_665
O9 V2 1.766716 1_555
O9 V1 1.894267 1_555
O10 V2 1.648962 1_555
O11 V3 1.648962 1_555
O12 V4 1.648962 1_555
O13 V5 1.648962 1_555
O14 V3 1.809282 1_545
O14 V2 1.809282 1_555
O15 V4 1.809282 1_555
O15 V5 1.809282 1_455
