# generated using pymatgen
data_Lu2ZnAu
_symmetry_space_group_name_H-M   'P 1'
_cell_length_a   4.91905339
_cell_length_b   4.91905339
_cell_length_c   4.91905339
_cell_angle_alpha   60.00000000
_cell_angle_beta   60.00000000
_cell_angle_gamma   60.00000000
_symmetry_Int_Tables_number   1
_chemical_formula_structural   Lu2ZnAu
_chemical_formula_sum   'Lu2 Zn1 Au1'
_cell_volume   84.16462861
_cell_formula_units_Z   1
loop_
 _symmetry_equiv_pos_site_id
 _symmetry_equiv_pos_as_xyz
  1  'x, y, z'
loop_
 _atom_site_type_symbol
 _atom_site_label
 _atom_site_symmetry_multiplicity
 _atom_site_fract_x
 _atom_site_fract_y
 _atom_site_fract_z
 _atom_site_occupancy
  Lu  Lu0  1  0.00000000  -0.00000000  -0.00000000  1
  Lu  Lu1  1  0.50000000  0.50000000  0.50000000  1
  Zn  Zn0  1  0.75000100  0.75000100  0.75000100  1
  Au  Au0  1  0.25000000  0.25000000  0.25000000  1
loop_
_geom_bond_atom_site_label_1
_geom_bond_atom_site_label_2
_geom_bond_distance
_geom_bond_site_symmetry_2
Lu0 Zn0 3.012281 1_444
Lu0 Zn0 3.012297 1_454
Lu0 Zn0 3.012297 1_544
Lu0 Zn0 3.012297 1_445
Lu1 Zn0 3.012289 1_455
Lu1 Zn0 3.012289 1_554
Lu1 Zn0 3.012289 1_545
Lu1 Zn0 3.012305 1_555
Au0 Lu1 3.012293 1_554
Au0 Lu0 3.012293 1_556
Au0 Lu1 3.012293 1_455
Au0 Lu0 3.012293 1_555
Au0 Lu0 3.012293 1_655
Au0 Lu1 3.012293 1_545
Au0 Lu0 3.012293 1_565
Au0 Lu1 3.012293 1_555
