# generated using pymatgen
data_Fe9Si6O25
_symmetry_space_group_name_H-M   'P 1'
_cell_length_a   18.94590800
_cell_length_b   9.54006300
_cell_length_c   10.80578680
_cell_angle_alpha   73.33511879
_cell_angle_beta   90.00000000
_cell_angle_gamma   90.00000000
_symmetry_Int_Tables_number   1
_chemical_formula_structural   Fe9Si6O25
_chemical_formula_sum   'Fe36 Si24 O100'
_cell_volume   1871.06065961
_cell_formula_units_Z   4
loop_
 _symmetry_equiv_pos_site_id
 _symmetry_equiv_pos_as_xyz
  1  'x, y, z'
loop_
 _atom_site_type_symbol
 _atom_site_label
 _atom_site_symmetry_multiplicity
 _atom_site_fract_x
 _atom_site_fract_y
 _atom_site_fract_z
 _atom_site_occupancy
  Fe  Fe0  1  0.80980900  0.13441300  0.33018800  1
  Fe  Fe1  1  0.30980900  0.86558700  0.16981200  1
  Fe  Fe2  1  0.19019100  0.86558700  0.66981200  1
  Fe  Fe3  1  0.69019100  0.13441300  0.83018800  1
  Fe  Fe4  1  0.79981800  0.48522900  0.32812200  1
  Fe  Fe5  1  0.29981800  0.51477100  0.17187800  1
  Fe  Fe6  1  0.20018200  0.51477100  0.67187800  1
  Fe  Fe7  1  0.70018200  0.48522900  0.82812200  1
  Fe  Fe8  1  0.80578900  0.80190500  0.33490500  1
  Fe  Fe9  1  0.30578900  0.19809500  0.16509500  1
  Fe  Fe10  1  0.19421100  0.19809500  0.66509500  1
  Fe  Fe11  1  0.69421100  0.80190500  0.83490500  1
  Fe  Fe12  1  0.93004300  0.27238700  0.45433500  1
  Fe  Fe13  1  0.43004300  0.72761300  0.04566500  1
  Fe  Fe14  1  0.06995700  0.72761300  0.54566500  1
  Fe  Fe15  1  0.56995700  0.27238700  0.95433500  1
  Fe  Fe16  1  0.92964100  0.58175300  0.47996500  1
  Fe  Fe17  1  0.42964100  0.41824700  0.02003500  1
  Fe  Fe18  1  0.07035900  0.41824700  0.52003500  1
  Fe  Fe19  1  0.57035900  0.58175300  0.97996500  1
  Fe  Fe20  1  0.92536900  0.92957100  0.45214700  1
  Fe  Fe21  1  0.42536900  0.07042900  0.04785300  1
  Fe  Fe22  1  0.07463100  0.07042900  0.54785300  1
  Fe  Fe23  1  0.57463100  0.92957100  0.95214700  1
  Fe  Fe24  1  0.67971100  0.02272500  0.18394500  1
  Fe  Fe25  1  0.17971100  0.97727500  0.31605500  1
  Fe  Fe26  1  0.32028900  0.97727500  0.81605500  1
  Fe  Fe27  1  0.82028900  0.02272500  0.68394500  1
  Fe  Fe28  1  0.67887700  0.37081200  0.18089700  1
  Fe  Fe29  1  0.17887700  0.62918800  0.31910300  1
  Fe  Fe30  1  0.32112300  0.62918800  0.81910300  1
  Fe  Fe31  1  0.82112300  0.37081200  0.68089700  1
  Fe  Fe32  1  0.68124200  0.66937500  0.19557200  1
  Fe  Fe33  1  0.18124200  0.33062500  0.30442800  1
  Fe  Fe34  1  0.31875800  0.33062500  0.80442800  1
  Fe  Fe35  1  0.81875800  0.66937500  0.69557200  1
  Si  Si0  1  0.03550100  0.15854000  0.24485000  1
  Si  Si1  1  0.53550100  0.84146000  0.25515000  1
  Si  Si2  1  0.96449900  0.84146000  0.75515000  1
  Si  Si3  1  0.46449900  0.15854000  0.74485000  1
  Si  Si4  1  0.03573600  0.84609000  0.24395300  1
  Si  Si5  1  0.53573600  0.15391000  0.25604700  1
  Si  Si6  1  0.96426400  0.15391000  0.75604700  1
  Si  Si7  1  0.46426400  0.84609000  0.74395300  1
  Si  Si8  1  0.91875200  0.37783600  0.13455800  1
  Si  Si9  1  0.41875200  0.62216400  0.36544200  1
  Si  Si10  1  0.08124800  0.62216400  0.86544200  1
  Si  Si11  1  0.58124800  0.37783600  0.63455800  1
  Si  Si12  1  0.91954600  0.69713000  0.13811100  1
  Si  Si13  1  0.41954600  0.30287000  0.36188900  1
  Si  Si14  1  0.08045400  0.30287000  0.86188900  1
  Si  Si15  1  0.58045400  0.69713000  0.63811100  1
  Si  Si16  1  0.80734000  0.23200400  0.01904400  1
  Si  Si17  1  0.30734000  0.76799600  0.48095600  1
  Si  Si18  1  0.19266000  0.76799600  0.98095600  1
  Si  Si19  1  0.69266000  0.23200400  0.51904400  1
  Si  Si20  1  0.80847600  0.92278900  0.01836900  1
  Si  Si21  1  0.30847600  0.07721100  0.48163100  1
  Si  Si22  1  0.19152400  0.07721100  0.98163100  1
  Si  Si23  1  0.69152400  0.92278900  0.51836900  1
  O  O0  1  0.61984100  0.18712900  0.23622800  1
  O  O1  1  0.11984100  0.81287100  0.26377200  1
  O  O2  1  0.38015900  0.81287100  0.76377200  1
  O  O3  1  0.88015900  0.18712900  0.73622800  1
  O  O4  1  0.61824300  0.50878000  0.22094500  1
  O  O5  1  0.11824300  0.49122000  0.27905500  1
  O  O6  1  0.38175700  0.49122000  0.77905500  1
  O  O7  1  0.88175700  0.50878000  0.72094500  1
  O  O8  1  0.61953300  0.82484100  0.23480100  1
  O  O9  1  0.11953300  0.17515900  0.26519900  1
  O  O10  1  0.38046700  0.17515900  0.76519900  1
  O  O11  1  0.88046700  0.82484100  0.73480100  1
  O  O12  1  0.74130000  0.28703200  0.38658600  1
  O  O13  1  0.24130000  0.71296800  0.11341400  1
  O  O14  1  0.25870000  0.71296800  0.61341400  1
  O  O15  1  0.75870000  0.28703200  0.88658600  1
  O  O16  1  0.74161200  0.63735200  0.36062800  1
  O  O17  1  0.24161200  0.36264800  0.13937200  1
  O  O18  1  0.25838800  0.36264800  0.63937200  1
  O  O19  1  0.75838800  0.63735200  0.86062800  1
  O  O20  1  0.73636600  0.95442000  0.38118400  1
  O  O21  1  0.23636600  0.04558000  0.11881600  1
  O  O22  1  0.26363400  0.04558000  0.61881600  1
  O  O23  1  0.76363400  0.95442000  0.88118400  1
  O  O24  1  0.63356700  0.08906200  0.99723200  1
  O  O25  1  0.13356700  0.91093800  0.50276800  1
  O  O26  1  0.36643300  0.91093800  0.00276800  1
  O  O27  1  0.86643300  0.08906200  0.49723200  1
  O  O28  1  0.64133300  0.41549500  0.99531800  1
  O  O29  1  0.14133300  0.58450500  0.50468200  1
  O  O30  1  0.35866700  0.58450500  0.00468200  1
  O  O31  1  0.85866700  0.41549500  0.49531800  1
  O  O32  1  0.63582600  0.74637700  0.00041500  1
  O  O33  1  0.13582600  0.25362300  0.49958500  1
  O  O34  1  0.36417400  0.25362300  0.99958500  1
  O  O35  1  0.86417400  0.74637700  0.50041500  1
  O  O36  1  0.75838500  0.20459700  0.15238200  1
  O  O37  1  0.25838500  0.79540300  0.34761800  1
  O  O38  1  0.24161500  0.79540300  0.84761800  1
  O  O39  1  0.74161500  0.20459700  0.65238200  1
  O  O40  1  0.75385200  0.52230200  0.16304100  1
  O  O41  1  0.25385200  0.47769800  0.33695900  1
  O  O42  1  0.24614800  0.47769800  0.83695900  1
  O  O43  1  0.74614800  0.52230200  0.66304100  1
  O  O44  1  0.75629000  0.86679100  0.14454000  1
  O  O45  1  0.25629000  0.13320900  0.35546000  1
  O  O46  1  0.24371000  0.13320900  0.85546000  1
  O  O47  1  0.74371000  0.86679100  0.64454000  1
  O  O48  1  0.87585600  0.32049300  0.27540100  1
  O  O49  1  0.37585600  0.67950700  0.22459900  1
  O  O50  1  0.12414400  0.67950700  0.72459900  1
  O  O51  1  0.62414400  0.32049300  0.77540100  1
  O  O52  1  0.87766800  0.65829700  0.27926000  1
  O  O53  1  0.37766800  0.34170300  0.22074000  1
  O  O54  1  0.12233200  0.34170300  0.72074000  1
  O  O55  1  0.62233200  0.65829700  0.77926000  1
  O  O56  1  0.86826500  0.98333200  0.29420000  1
  O  O57  1  0.36826500  0.01666800  0.20580000  1
  O  O58  1  0.13173500  0.01666800  0.70580000  1
  O  O59  1  0.63173500  0.98333200  0.79420000  1
  O  O60  1  0.99923700  0.11852800  0.39300600  1
  O  O61  1  0.49923700  0.88147200  0.10699400  1
  O  O62  1  0.00076300  0.88147200  0.60699400  1
  O  O63  1  0.50076300  0.11852800  0.89300600  1
  O  O64  1  0.98859800  0.44575100  0.40473300  1
  O  O65  1  0.48859800  0.55424900  0.09526700  1
  O  O66  1  0.01140200  0.55424900  0.59526700  1
  O  O67  1  0.51140200  0.44575100  0.90473300  1
  O  O68  1  0.99884400  0.79340500  0.39077500  1
  O  O69  1  0.49884400  0.20659500  0.10922500  1
  O  O70  1  0.00115600  0.20659500  0.60922500  1
  O  O71  1  0.50115600  0.79340500  0.89077500  1
  O  O72  1  0.84306200  0.07796600  0.01733800  1
  O  O73  1  0.34306200  0.92203400  0.48266200  1
  O  O74  1  0.15693800  0.92203400  0.98266200  1
  O  O75  1  0.65693800  0.07796600  0.51733800  1
  O  O76  1  0.87081300  0.34390300  0.02257400  1
  O  O77  1  0.37081300  0.65609700  0.47742600  1
  O  O78  1  0.12918700  0.65609700  0.97742600  1
  O  O79  1  0.62918700  0.34390300  0.52257400  1
  O  O80  1  0.87159400  0.80687000  0.02656200  1
  O  O81  1  0.37159400  0.19313000  0.47343800  1
  O  O82  1  0.12840600  0.19313000  0.97343800  1
  O  O83  1  0.62840600  0.80687000  0.52656200  1
  O  O84  1  0.93174600  0.55134400  0.09543400  1
  O  O85  1  0.43174600  0.44865600  0.40456600  1
  O  O86  1  0.06825400  0.44865600  0.90456600  1
  O  O87  1  0.56825400  0.55134400  0.59543400  1
  O  O88  1  0.99605000  0.76882100  0.14862400  1
  O  O89  1  0.49605000  0.23117900  0.35137600  1
  O  O90  1  0.00395000  0.23117900  0.85137600  1
  O  O91  1  0.50395000  0.76882100  0.64862400  1
  O  O92  1  0.99524200  0.29726300  0.15099800  1
  O  O93  1  0.49524200  0.70273700  0.34900200  1
  O  O94  1  0.00475800  0.70273700  0.84900200  1
  O  O95  1  0.50475800  0.29726300  0.65099800  1
  O  O96  1  0.02205500  0.02105100  0.18729200  1
  O  O97  1  0.52205500  0.97894900  0.31270800  1
  O  O98  1  0.97794500  0.97894900  0.81270800  1
  O  O99  1  0.47794500  0.02105100  0.68729200  1
loop_
_geom_bond_atom_site_label_1
_geom_bond_atom_site_label_2
_geom_bond_distance
_geom_bond_site_symmetry_2
Fe0 O56 1.943366 1_545
Fe0 O27 2.036746 1_555
Fe0 O36 2.085955 1_555
Fe0 O48 2.113031 1_555
Fe0 O20 2.155377 1_545
Fe0 O12 2.164475 1_555
Fe1 O57 1.943366 1_565
Fe1 O26 2.036746 1_555
Fe1 O37 2.085955 1_555
Fe1 O49 2.113031 1_555
Fe1 O21 2.155377 1_565
Fe1 O13 2.164475 1_555
Fe2 O58 1.943366 1_565
Fe2 O25 2.036746 1_555
Fe2 O38 2.085955 1_555
Fe2 O50 2.113031 1_555
Fe2 O22 2.155377 1_565
Fe2 O14 2.164475 1_555
Fe3 O59 1.943366 1_545
Fe3 O24 2.036746 1_555
Fe3 O39 2.085955 1_555
Fe3 O51 2.113031 1_555
Fe3 O23 2.155377 1_545
Fe3 O15 2.164475 1_555
Fe4 O40 1.924499 1_555
Fe4 O16 1.933392 1_555
Fe4 O31 2.064082 1_555
Fe4 O12 2.125636 1_555
Fe4 O52 2.163398 1_555
Fe4 O48 2.320197 1_555
Fe5 O41 1.924499 1_555
Fe5 O17 1.933392 1_555
Fe5 O30 2.064082 1_555
Fe5 O13 2.125636 1_555
Fe5 O53 2.163398 1_555
Fe5 O49 2.320197 1_555
Fe6 O42 1.924499 1_555
Fe6 O18 1.933392 1_555
Fe6 O29 2.064082 1_555
Fe6 O14 2.125636 1_555
Fe6 O54 2.163398 1_555
Fe6 O50 2.320197 1_555
Fe7 O43 1.924499 1_555
Fe7 O19 1.933392 1_555
Fe7 O28 2.064082 1_555
Fe7 O15 2.125636 1_555
Fe7 O55 2.163398 1_555
Fe7 O51 2.320197 1_555
Fe8 O16 1.941598 1_555
Fe8 O56 2.038049 1_555
Fe8 O35 2.039467 1_555
Fe8 O20 2.124713 1_555
Fe8 O52 2.136712 1_555
Fe8 O44 2.182605 1_555
Fe9 O17 1.941598 1_555
Fe9 O57 2.038049 1_555
Fe9 O34 2.039467 1_554
Fe9 O21 2.124713 1_555
Fe9 O53 2.136712 1_555
Fe9 O45 2.182605 1_555
Fe10 O18 1.941598 1_555
Fe10 O58 2.038049 1_555
Fe10 O33 2.039467 1_555
Fe10 O22 2.124713 1_555
Fe10 O54 2.136712 1_555
Fe10 O46 2.182605 1_555
Fe11 O19 1.941598 1_555
Fe11 O59 2.038049 1_555
Fe11 O32 2.039467 1_556
Fe11 O23 2.124713 1_555
Fe11 O55 2.136712 1_555
Fe11 O47 2.182605 1_555
Fe12 O64 1.935191 1_555
Fe12 O31 2.058032 1_555
Fe12 O27 2.064229 1_555
Fe12 O70 2.099512 1_655
Fe12 O48 2.119939 1_555
Fe12 O60 2.206847 1_555
Fe13 O65 1.935191 1_555
Fe13 O30 2.058032 1_555
Fe13 O26 2.064229 1_555
Fe13 O71 2.099512 1_554
Fe13 O49 2.119939 1_555
Fe13 O61 2.206847 1_555
Fe14 O66 1.935191 1_555
Fe14 O29 2.058032 1_555
Fe14 O25 2.064229 1_555
Fe14 O68 2.099512 1_455
Fe14 O50 2.119939 1_555
Fe14 O62 2.206847 1_555
Fe15 O67 1.935191 1_555
Fe15 O28 2.058032 1_555
Fe15 O24 2.064229 1_555
Fe15 O69 2.099512 1_556
Fe15 O51 2.119939 1_555
Fe15 O63 2.206847 1_555
Fe16 O66 1.957855 1_655
Fe16 O64 2.048640 1_555
Fe16 O31 2.049507 1_555
Fe16 O35 2.062243 1_555
Fe16 O52 2.301756 1_555
Fe16 O68 2.368290 1_555
Fe16 O7 2.654929 1_555
Fe17 O67 1.957855 1_554
Fe17 O65 2.048640 1_555
Fe17 O30 2.049507 1_555
Fe17 O34 2.062243 1_554
Fe17 O53 2.301756 1_555
Fe17 O69 2.368290 1_555
Fe17 O6 2.654929 1_554
Fe18 O64 1.957855 1_455
Fe18 O66 2.048640 1_555
Fe18 O29 2.049507 1_555
Fe18 O33 2.062243 1_555
Fe18 O54 2.301756 1_555
Fe18 O70 2.368290 1_555
Fe18 O5 2.654929 1_555
Fe19 O65 1.957855 1_556
Fe19 O67 2.048640 1_555
Fe19 O28 2.049507 1_555
Fe19 O32 2.062243 1_556
Fe19 O55 2.301756 1_555
Fe19 O71 2.368290 1_555
Fe19 O4 2.654929 1_556
Fe20 O56 1.960723 1_555
Fe20 O35 2.036619 1_555
Fe20 O27 2.055337 1_565
Fe20 O68 2.135226 1_555
Fe20 O62 2.147157 1_655
Fe20 O60 2.226173 1_565
Fe21 O57 1.960723 1_555
Fe21 O34 2.036619 1_554
Fe21 O26 2.055337 1_545
Fe21 O69 2.135226 1_555
Fe21 O63 2.147157 1_554
Fe21 O61 2.226173 1_545
Fe22 O58 1.960723 1_555
Fe22 O33 2.036619 1_555
Fe22 O25 2.055337 1_545
Fe22 O70 2.135226 1_555
Fe22 O60 2.147157 1_455
Fe22 O62 2.226173 1_545
Fe23 O59 1.960723 1_555
Fe23 O32 2.036619 1_556
Fe23 O24 2.055337 1_565
Fe23 O71 2.135226 1_555
Fe23 O61 2.147157 1_556
Fe23 O63 2.226173 1_565
Fe24 O24 2.122053 1_554
Fe24 O8 2.137932 1_545
Fe24 O0 2.138684 1_555
Fe24 O44 2.205134 1_545
Fe24 O36 2.238108 1_555
Fe24 O20 2.307107 1_545
Fe25 O25 2.122053 1_555
Fe25 O9 2.137932 1_565
Fe25 O1 2.138684 1_555
Fe25 O45 2.205134 1_565
Fe25 O37 2.238108 1_555
Fe25 O21 2.307107 1_565
Fe26 O26 2.122053 1_556
Fe26 O10 2.137932 1_565
Fe26 O2 2.138684 1_555
Fe26 O46 2.205134 1_565
Fe26 O38 2.238108 1_555
Fe26 O22 2.307107 1_565
Fe27 O27 2.122053 1_555
Fe27 O11 2.137932 1_545
Fe27 O3 2.138684 1_555
Fe27 O47 2.205134 1_545
Fe27 O39 2.238108 1_555
Fe27 O23 2.307107 1_545
Fe28 O4 1.888404 1_555
Fe28 O40 1.995921 1_555
Fe28 O0 2.019481 1_555
Fe28 O28 2.053953 1_554
Fe28 O36 2.271281 1_555
Fe28 O12 2.441047 1_555
Fe29 O5 1.888404 1_555
Fe29 O41 1.995921 1_555
Fe29 O1 2.019481 1_555
Fe29 O29 2.053953 1_555
Fe29 O37 2.271281 1_555
Fe29 O13 2.441047 1_555
Fe30 O6 1.888404 1_555
Fe30 O42 1.995921 1_555
Fe30 O2 2.019481 1_555
Fe30 O30 2.053953 1_556
Fe30 O38 2.271281 1_555
Fe30 O14 2.441047 1_555
Fe31 O7 1.888404 1_555
Fe31 O43 1.995921 1_555
Fe31 O3 2.019481 1_555
Fe31 O31 2.053953 1_555
Fe31 O39 2.271281 1_555
Fe31 O15 2.441047 1_555
Fe32 O4 1.898988 1_555
Fe32 O8 2.026551 1_555
Fe32 O40 2.065804 1_555
Fe32 O16 2.066422 1_555
Fe32 O32 2.199692 1_555
Fe32 O44 2.297202 1_555
Fe33 O5 1.898988 1_555
Fe33 O9 2.026551 1_555
Fe33 O41 2.065804 1_555
Fe33 O17 2.066422 1_555
Fe33 O33 2.199692 1_555
Fe33 O45 2.297202 1_555
Fe34 O6 1.898988 1_555
Fe34 O10 2.026551 1_555
Fe34 O42 2.065804 1_555
Fe34 O18 2.066422 1_555
Fe34 O34 2.199692 1_555
Fe34 O46 2.297202 1_555
Fe35 O7 1.898988 1_555
Fe35 O11 2.026551 1_555
Fe35 O43 2.065804 1_555
Fe35 O19 2.066422 1_555
Fe35 O35 2.199692 1_555
Fe35 O47 2.297202 1_555
O0 Si5 1.626788 1_555
O1 Si4 1.626788 1_555
O2 Si7 1.626788 1_555
O3 Si6 1.626788 1_555
O8 Si1 1.621156 1_555
O9 Si0 1.621156 1_555
O10 Si3 1.621156 1_555
O11 Si2 1.621156 1_555
O12 Si19 1.656051 1_555
O13 Si18 1.656051 1_554
O14 Si17 1.656051 1_555
O15 Si16 1.656051 1_556
O20 Si23 1.659444 1_555
O21 Si22 1.659444 1_554
O22 Si21 1.659444 1_555
O23 Si20 1.659444 1_556
O36 Si16 1.669884 1_555
O37 Si17 1.669884 1_555
O38 Si18 1.669884 1_555
O39 Si19 1.669884 1_555
O44 Si20 1.644384 1_555
O45 Si21 1.644384 1_555
O46 Si22 1.644384 1_555
O47 Si23 1.644384 1_555
O48 Si8 1.672864 1_555
O49 Si9 1.672864 1_555
O50 Si10 1.672864 1_555
O51 Si11 1.672864 1_555
O52 Si12 1.664028 1_555
O53 Si13 1.664028 1_555
O54 Si14 1.664028 1_555
O55 Si15 1.664028 1_555
O60 Si0 1.682340 1_655
O61 Si1 1.682340 1_555
O62 Si2 1.682340 1_455
O63 Si3 1.682340 1_555
O68 Si4 1.673581 1_655
O69 Si5 1.673581 1_555
O70 Si6 1.673581 1_455
O71 Si7 1.673581 1_555
O72 Si20 1.616049 1_545
O72 Si16 1.622788 1_555
O73 Si21 1.616049 1_565
O73 Si17 1.622788 1_555
O74 Si22 1.616049 1_565
O74 Si18 1.622788 1_555
O75 Si23 1.616049 1_545
O75 Si19 1.622788 1_555
O76 Si16 1.615720 1_555
O76 Si8 1.618230 1_555
O77 Si17 1.615720 1_555
O77 Si9 1.618230 1_555
O78 Si18 1.615720 1_555
O78 Si10 1.618230 1_555
O79 Si19 1.615720 1_555
O79 Si11 1.618230 1_555
O80 Si20 1.613892 1_555
O80 Si12 1.628055 1_555
O81 Si21 1.613892 1_555
O81 Si13 1.628055 1_555
O82 Si22 1.613892 1_555
O82 Si14 1.628055 1_555
O83 Si23 1.613892 1_555
O83 Si15 1.628055 1_555
O84 Si12 1.602592 1_555
O84 Si8 1.605589 1_555
O85 Si13 1.602592 1_555
O85 Si9 1.605589 1_555
O86 Si14 1.602592 1_555
O86 Si10 1.605589 1_555
O87 Si15 1.602592 1_555
O87 Si11 1.605589 1_555
O88 Si4 1.614113 1_655
O88 Si12 1.620527 1_555
O89 Si5 1.614113 1_555
O89 Si13 1.620527 1_555
O90 Si6 1.614113 1_455
O90 Si14 1.620527 1_555
O91 Si7 1.614113 1_555
O91 Si15 1.620527 1_555
O92 Si0 1.609950 1_655
O92 Si8 1.626098 1_555
O93 Si1 1.609950 1_555
O93 Si9 1.626098 1_555
O94 Si2 1.609950 1_455
O94 Si10 1.626098 1_555
O95 Si3 1.609950 1_555
O95 Si11 1.626098 1_555
O96 Si0 1.624827 1_555
O96 Si4 1.625404 1_545
O97 Si1 1.624827 1_555
O97 Si5 1.625404 1_565
O98 Si2 1.624827 1_555
O98 Si6 1.625404 1_565
O99 Si3 1.624827 1_555
O99 Si7 1.625404 1_545
