# generated using pymatgen
data_Fe9Cu3O16
_symmetry_space_group_name_H-M   'P 1'
_cell_length_a   5.85702400
_cell_length_b   5.87923900
_cell_length_c   8.33928600
_cell_angle_alpha   90.00000000
_cell_angle_beta   90.00000000
_cell_angle_gamma   90.00000000
_symmetry_Int_Tables_number   1
_chemical_formula_structural   Fe9Cu3O16
_chemical_formula_sum   'Fe9 Cu3 O16'
_cell_volume   287.16201185
_cell_formula_units_Z   1
loop_
 _symmetry_equiv_pos_site_id
 _symmetry_equiv_pos_as_xyz
  1  'x, y, z'
loop_
 _atom_site_type_symbol
 _atom_site_label
 _atom_site_symmetry_multiplicity
 _atom_site_fract_x
 _atom_site_fract_y
 _atom_site_fract_z
 _atom_site_occupancy
  Fe  Fe0  1  0.50000000  0.50000000  0.99750600  1
  Fe  Fe1  1  0.75446000  0.00000000  0.12255800  1
  Fe  Fe2  1  0.24554000  0.00000000  0.12255800  1
  Fe  Fe3  1  0.50000000  0.75257100  0.37751300  1
  Fe  Fe4  1  0.50000000  0.24742900  0.37751300  1
  Fe  Fe5  1  0.24977200  0.50000000  0.62592100  1
  Fe  Fe6  1  0.75022800  0.50000000  0.62592100  1
  Fe  Fe7  1  0.00000000  0.75496100  0.87595500  1
  Fe  Fe8  1  0.00000000  0.24503900  0.87595500  1
  Cu  Cu0  1  0.00000000  0.50000000  0.25336500  1
  Cu  Cu1  1  0.00000000  0.00000000  0.50174000  1
  Cu  Cu2  1  0.50000000  0.00000000  0.74705600  1
  O  O0  1  0.00000000  0.22587700  0.10928000  1
  O  O1  1  0.00000000  0.77412300  0.10928000  1
  O  O2  1  0.50000000  0.76960900  0.12806600  1
  O  O3  1  0.50000000  0.23039100  0.12806600  1
  O  O4  1  0.72687000  0.00000000  0.35662800  1
  O  O5  1  0.27313000  0.00000000  0.35662800  1
  O  O6  1  0.27164200  0.50000000  0.39135800  1
  O  O7  1  0.72835800  0.50000000  0.39135800  1
  O  O8  1  0.50000000  0.27816300  0.61124200  1
  O  O9  1  0.50000000  0.72183700  0.61124200  1
  O  O10  1  0.00000000  0.72632700  0.64221600  1
  O  O11  1  0.00000000  0.27367300  0.64221600  1
  O  O12  1  0.22991600  0.50000000  0.86645500  1
  O  O13  1  0.77008400  0.50000000  0.86645500  1
  O  O14  1  0.77850500  0.00000000  0.88761800  1
  O  O15  1  0.22149500  0.00000000  0.88761800  1
loop_
_geom_bond_atom_site_label_1
_geom_bond_atom_site_label_2
_geom_bond_distance
_geom_bond_site_symmetry_2
Fe0 O13 1.922691 1_555
Fe0 O12 1.922691 1_555
Fe0 O2 1.923009 1_556
Fe0 O3 1.923009 1_556
Fe1 O4 1.958654 1_555
Fe1 O0 1.960621 1_655
Fe1 O1 1.960621 1_645
Fe1 O14 1.964287 1_554
Fe1 O3 2.014466 1_555
Fe1 O2 2.014466 1_545
Fe2 O5 1.958654 1_555
Fe2 O1 1.960621 1_545
Fe2 O0 1.960621 1_555
Fe2 O15 1.964287 1_554
Fe2 O3 2.014466 1_555
Fe2 O2 2.014466 1_545
Fe3 O9 1.957491 1_555
Fe3 O4 1.977911 1_565
Fe3 O5 1.977911 1_565
Fe3 O7 2.001808 1_555
Fe3 O6 2.001808 1_555
Fe3 O2 2.082620 1_555
Fe4 O8 1.957491 1_555
Fe4 O5 1.977911 1_555
Fe4 O4 1.977911 1_555
Fe4 O7 2.001808 1_555
Fe4 O6 2.001808 1_555
Fe4 O3 2.082620 1_555
Fe5 O6 1.960278 1_555
Fe5 O9 1.965697 1_555
Fe5 O8 1.965697 1_555
Fe5 O10 1.982216 1_555
Fe5 O11 1.982216 1_555
Fe5 O12 2.009250 1_555
Fe6 O7 1.960278 1_555
Fe6 O9 1.965697 1_555
Fe6 O8 1.965697 1_555
Fe6 O10 1.982216 1_655
Fe6 O11 1.982216 1_655
Fe6 O13 2.009250 1_555
Fe7 O15 1.941109 1_565
Fe7 O14 1.941109 1_465
Fe7 O1 1.949023 1_556
Fe7 O10 1.956473 1_555
Fe7 O12 2.016582 1_555
Fe7 O13 2.016582 1_455
Fe8 O14 1.941109 1_455
Fe8 O15 1.941109 1_555
Fe8 O0 1.949023 1_556
Fe8 O11 1.956473 1_555
Fe8 O12 2.016582 1_555
Fe8 O13 2.016582 1_455
Cu0 O6 1.963563 1_555
Cu0 O7 1.963563 1_455
Cu0 O1 2.010255 1_555
Cu0 O0 2.010255 1_555
Cu1 O11 1.990273 1_555
Cu1 O10 1.990273 1_545
Cu1 O4 2.005878 1_455
Cu1 O5 2.005878 1_555
Cu2 O8 1.989285 1_555
Cu2 O9 1.989285 1_545
Cu2 O15 2.008698 1_555
Cu2 O14 2.008698 1_555
