# generated using pymatgen
data_Li5CoOF5
_symmetry_space_group_name_H-M   'P 1'
_cell_length_a   5.54300206
_cell_length_b   6.39443900
_cell_length_c   14.98298916
_cell_angle_alpha   90.00117120
_cell_angle_beta   89.98307439
_cell_angle_gamma   89.99842600
_symmetry_Int_Tables_number   1
_chemical_formula_structural   Li5CoOF5
_chemical_formula_sum   'Li20 Co4 O4 F20'
_cell_volume   531.06286626
_cell_formula_units_Z   4
loop_
 _symmetry_equiv_pos_site_id
 _symmetry_equiv_pos_as_xyz
  1  'x, y, z'
loop_
 _atom_site_type_symbol
 _atom_site_label
 _atom_site_symmetry_multiplicity
 _atom_site_fract_x
 _atom_site_fract_y
 _atom_site_fract_z
 _atom_site_occupancy
  Li  Li0  1  0.33339800  0.50000900  0.99383600  1
  Li  Li1  1  0.83340000  0.74997900  0.99383700  1
  Li  Li2  1  0.33339800  0.00000700  0.99383700  1
  Li  Li3  1  0.83339900  0.24997900  0.99383600  1
  Li  Li4  1  0.33340900  0.49998800  0.33858900  1
  Li  Li5  1  0.83340600  0.75003700  0.33859100  1
  Li  Li6  1  0.33340500  0.99999700  0.33859000  1
  Li  Li7  1  0.83341000  0.25004700  0.33858900  1
  Li  Li8  1  0.33338800  0.49998500  0.66608100  1
  Li  Li9  1  0.83338800  0.74998500  0.66608100  1
  Li  Li10  1  0.33338800  0.99998500  0.66608100  1
  Li  Li11  1  0.83338800  0.24998500  0.66608100  1
  Li  Li12  1  0.16664200  0.25001400  0.50227600  1
  Li  Li13  1  0.66664200  0.50001500  0.50227600  1
  Li  Li14  1  0.16664200  0.75001300  0.50227800  1
  Li  Li15  1  0.66664200  0.00001600  0.50227800  1
  Li  Li16  1  0.16663000  0.25002600  0.82967400  1
  Li  Li17  1  0.66663000  0.50002600  0.82967400  1
  Li  Li18  1  0.16663000  0.75002600  0.82967400  1
  Li  Li19  1  0.66663000  0.00002600  0.82967400  1
  Co  Co0  1  0.16725700  0.24896000  0.16048200  1
  Co  Co1  1  0.66724800  0.50114800  0.16048100  1
  Co  Co2  1  0.16725200  0.74895600  0.16049900  1
  Co  Co3  1  0.66724500  0.00114700  0.16049800  1
  O  O0  1  0.33280900  0.49981500  0.12621800  1
  O  O1  1  0.83280400  0.75026800  0.12620300  1
  O  O2  1  0.33280700  0.99981300  0.12620500  1
  O  O3  1  0.83281000  0.25026000  0.12622100  1
  F  F0  1  0.33334600  0.50001400  0.46492000  1
  F  F1  1  0.83334800  0.75002400  0.46492000  1
  F  F2  1  0.33334900  0.00001300  0.46492000  1
  F  F3  1  0.83334500  0.25002200  0.46492000  1
  F  F4  1  0.33332000  0.50000100  0.79236700  1
  F  F5  1  0.83331900  0.75000000  0.79236700  1
  F  F6  1  0.33332000  0.00000200  0.79236700  1
  F  F7  1  0.83331900  0.25000100  0.79236700  1
  F  F8  1  0.16670700  0.24981800  0.30405700  1
  F  F9  1  0.66670300  0.50020100  0.30405700  1
  F  F10  1  0.16669800  0.74983400  0.30404100  1
  F  F11  1  0.66670100  0.00017900  0.30404400  1
  F  F12  1  0.16670700  0.24999200  0.95588600  1
  F  F13  1  0.66671000  0.49997400  0.95588700  1
  F  F14  1  0.16671000  0.74998800  0.95588600  1
  F  F15  1  0.66671000  0.99998000  0.95588700  1
  F  F16  1  0.16669900  0.25001100  0.62864900  1
  F  F17  1  0.66669800  0.50001100  0.62864900  1
  F  F18  1  0.16669900  0.75001000  0.62865000  1
  F  F19  1  0.66669700  0.00001200  0.62865000  1
loop_
_geom_bond_atom_site_label_1
_geom_bond_atom_site_label_2
_geom_bond_distance
_geom_bond_site_symmetry_2
Li0 O0 1.983480 1_556
Li1 O1 1.983241 1_556
Li2 O2 1.983270 1_546
Li3 O3 1.983526 1_556
Co0 O2 1.908816 1_545
Co0 O0 1.917954 1_555
Co0 O3 1.923763 1_455
Co0 F8 2.151191 1_555
Co1 O1 1.908751 1_555
Co1 O3 1.918081 1_555
Co1 O0 1.923730 1_555
Co1 F9 2.151208 1_555
Co2 O0 1.908819 1_555
Co2 O2 1.918093 1_555
Co2 O1 1.923909 1_455
Co2 F10 2.150697 1_555
Co3 O3 1.908734 1_555
Co3 O1 1.918165 1_545
Co3 O2 1.923845 1_545
Co3 F11 2.150758 1_555
F0 Li4 1.892816 1_555
F0 Li14 1.929317 1_555
F0 Li12 1.929374 1_555
F0 Li13 1.930541 1_555
F1 Li5 1.892786 1_555
F1 Li15 1.929285 1_565
F1 Li13 1.929427 1_555
F1 Li14 1.930539 1_655
F2 Li6 1.892801 1_545
F2 Li12 1.929327 1_555
F2 Li14 1.929391 1_545
F2 Li15 1.930534 1_555
F3 Li7 1.892816 1_555
F3 Li13 1.929274 1_555
F3 Li15 1.929412 1_555
F3 Li12 1.930547 1_655
F4 Li8 1.892142 1_555
F4 Li16 1.928992 1_555
F4 Li18 1.929196 1_555
F4 Li17 1.930403 1_555
F5 Li9 1.892142 1_555
F5 Li17 1.928984 1_555
F5 Li19 1.929199 1_565
F5 Li18 1.930408 1_655
F6 Li10 1.892142 1_545
F6 Li18 1.928997 1_545
F6 Li16 1.929191 1_555
F6 Li19 1.930403 1_555
F7 Li11 1.892142 1_555
F7 Li19 1.928989 1_555
F7 Li17 1.929193 1_555
F7 Li16 1.930408 1_655
F8 Li6 1.916672 1_545
F8 Li7 1.918401 1_455
F8 Li4 1.918563 1_555
F9 Li5 1.916794 1_555
F9 Li4 1.918385 1_555
F9 Li7 1.918467 1_555
F10 Li4 1.916900 1_555
F10 Li5 1.918447 1_455
F10 Li6 1.918608 1_555
F11 Li7 1.917025 1_555
F11 Li6 1.918452 1_545
F11 Li5 1.918458 1_545
F12 Li16 1.891033 1_555
F12 Li2 1.931983 1_555
F12 Li0 1.932171 1_555
F12 Li3 1.932885 1_455
F13 Li17 1.891048 1_555
F13 Li3 1.932022 1_555
F13 Li1 1.932105 1_555
F13 Li0 1.932902 1_555
F14 Li18 1.891033 1_555
F14 Li0 1.931939 1_555
F14 Li2 1.932178 1_565
F14 Li1 1.932900 1_455
F15 Li19 1.891048 1_565
F15 Li1 1.932061 1_555
F15 Li3 1.932066 1_565
F15 Li2 1.932907 1_565
F16 Li12 1.893445 1_555
F16 Li8 1.929667 1_555
F16 Li10 1.929919 1_545
F16 Li11 1.930635 1_455
F17 Li13 1.893445 1_555
F17 Li9 1.929670 1_555
F17 Li11 1.929922 1_555
F17 Li8 1.930629 1_555
F18 Li14 1.893430 1_555
F18 Li10 1.929668 1_555
F18 Li8 1.929910 1_555
F18 Li9 1.930630 1_455
F19 Li15 1.893430 1_555
F19 Li11 1.929663 1_555
F19 Li9 1.929926 1_545
F19 Li10 1.930620 1_545
