# generated using pymatgen
data_Ca3N2
_symmetry_space_group_name_H-M   'P 1'
_cell_length_a   9.90207371
_cell_length_b   9.90207415
_cell_length_c   9.90207309
_cell_angle_alpha   109.47121846
_cell_angle_beta   109.47121936
_cell_angle_gamma   109.47122396
_symmetry_Int_Tables_number   1
_chemical_formula_structural   Ca3N2
_chemical_formula_sum   'Ca24 N16'
_cell_volume   747.40597751
_cell_formula_units_Z   8
loop_
 _symmetry_equiv_pos_site_id
 _symmetry_equiv_pos_as_xyz
  1  'x, y, z'
loop_
 _atom_site_type_symbol
 _atom_site_label
 _atom_site_symmetry_multiplicity
 _atom_site_fract_x
 _atom_site_fract_y
 _atom_site_fract_z
 _atom_site_occupancy
  Ca  Ca0  1  0.04391261  0.27153737  0.00695768  1
  Ca  Ca1  1  0.27237624  0.73542131  0.22846263  1
  Ca  Ca2  1  0.76457869  0.03695393  0.49304232  1
  Ca  Ca3  1  0.45608739  0.46304607  0.22762376  1
  Ca  Ca4  1  0.22762376  0.45608739  0.46304607  1
  Ca  Ca5  1  0.27153737  0.00695768  0.04391261  1
  Ca  Ca6  1  0.22846263  0.27237624  0.73542131  1
  Ca  Ca7  1  0.03695393  0.49304232  0.76457869  1
  Ca  Ca8  1  0.49304232  0.76457869  0.03695393  1
  Ca  Ca9  1  0.73542131  0.22846263  0.27237624  1
  Ca  Ca10  1  0.00695768  0.04391261  0.27153737  1
  Ca  Ca11  1  0.46304607  0.22762376  0.45608739  1
  Ca  Ca12  1  0.96304607  0.50695768  0.23542131  1
  Ca  Ca13  1  0.77153737  0.72762376  0.26457869  1
  Ca  Ca14  1  0.72846263  0.99304232  0.95608739  1
  Ca  Ca15  1  0.77237624  0.54391261  0.53695393  1
  Ca  Ca16  1  0.54391261  0.53695393  0.77237624  1
  Ca  Ca17  1  0.23542131  0.96304607  0.50695768  1
  Ca  Ca18  1  0.72762376  0.26457869  0.77153737  1
  Ca  Ca19  1  0.95608739  0.72846263  0.99304232  1
  Ca  Ca20  1  0.50695768  0.23542131  0.96304607  1
  Ca  Ca21  1  0.26457869  0.77153737  0.72762376  1
  Ca  Ca22  1  0.99304232  0.95608739  0.72846263  1
  Ca  Ca23  1  0.53695393  0.77237624  0.54391261  1
  N  N0  1  0.25000000  0.71035616  0.46035616  1
  N  N1  1  0.03964384  0.75000000  0.78964384  1
  N  N2  1  0.78964384  0.03964384  0.75000000  1
  N  N3  1  0.46035616  0.25000000  0.71035616  1
  N  N4  1  0.71035616  0.46035616  0.25000000  1
  N  N5  1  0.75000000  0.78964384  0.03964384  1
  N  N6  1  0.75000000  0.28964384  0.53964384  1
  N  N7  1  0.96035616  0.25000000  0.21035616  1
  N  N8  1  0.21035616  0.96035616  0.25000000  1
  N  N9  1  0.53964384  0.75000000  0.28964384  1
  N  N10  1  0.28964384  0.53964384  0.75000000  1
  N  N11  1  0.25000000  0.21035616  0.96035616  1
  N  N12  1  0.00000000  0.50000000  -0.00000000  1
  N  N13  1  0.50000000  -0.00000000  -0.00000000  1
  N  N14  1  0.00000000  -0.00000000  0.50000000  1
  N  N15  1  0.50000000  0.50000000  0.50000000  1
loop_
_geom_bond_atom_site_label_1
_geom_bond_atom_site_label_2
_geom_bond_distance
_geom_bond_site_symmetry_2
Ca0 N11 2.451529 1_554
Ca0 N12 2.459947 1_555
Ca0 N2 2.462881 1_454
Ca0 N7 2.462958 1_455
Ca1 N9 2.451523 1_555
Ca1 N12 2.459954 1_555
Ca1 N0 2.462888 1_555
Ca1 N8 2.462954 1_555
Ca2 N6 2.451534 1_555
Ca2 N14 2.459952 1_655
Ca2 N2 2.462875 1_555
Ca2 N9 2.462950 1_545
Ca3 N11 2.451528 1_554
Ca3 N15 2.459959 1_555
Ca3 N4 2.462883 1_555
Ca3 N9 2.462946 1_555
Ca4 N7 2.451528 1_455
Ca4 N15 2.459959 1_555
Ca4 N0 2.462883 1_555
Ca4 N10 2.462946 1_555
Ca5 N8 2.451529 1_545
Ca5 N13 2.459947 1_555
Ca5 N1 2.462881 1_544
Ca5 N11 2.462958 1_554
Ca6 N10 2.451523 1_555
Ca6 N14 2.459954 1_555
Ca6 N3 2.462889 1_555
Ca6 N11 2.462954 1_555
Ca7 N10 2.451534 1_555
Ca7 N12 2.459952 1_556
Ca7 N1 2.462875 1_555
Ca7 N6 2.462950 1_455
Ca8 N9 2.451534 1_555
Ca8 N13 2.459952 1_565
Ca8 N5 2.462875 1_555
Ca8 N10 2.462950 1_554
Ca9 N6 2.451523 1_555
Ca9 N13 2.459954 1_555
Ca9 N4 2.462889 1_555
Ca9 N7 2.462954 1_555
Ca10 N7 2.451529 1_455
Ca10 N14 2.459947 1_555
Ca10 N5 2.462881 1_445
Ca10 N8 2.462958 1_545
Ca11 N8 2.451528 1_545
Ca11 N15 2.459959 1_555
Ca11 N3 2.462882 1_555
Ca11 N6 2.462946 1_555
Ca12 N4 2.451534 1_555
Ca12 N12 2.459952 1_655
Ca12 N7 2.462875 1_555
Ca12 N0 2.462950 1_655
Ca13 N4 2.451523 1_555
Ca13 N14 2.459954 1_665
Ca13 N9 2.462889 1_555
Ca13 N5 2.462954 1_555
Ca14 N2 2.451529 1_565
Ca14 N13 2.459947 1_566
Ca14 N7 2.462881 1_566
Ca14 N5 2.462958 1_556
Ca15 N1 2.451528 1_655
Ca15 N15 2.459959 1_555
Ca15 N6 2.462883 1_555
Ca15 N4 2.462946 1_555
Ca16 N5 2.451528 1_556
Ca16 N15 2.459959 1_555
Ca16 N10 2.462883 1_555
Ca16 N3 2.462946 1_555
Ca17 N0 2.451534 1_555
Ca17 N14 2.459952 1_565
Ca17 N8 2.462875 1_555
Ca17 N3 2.462950 1_565
Ca18 N3 2.451523 1_555
Ca18 N12 2.459954 1_656
Ca18 N6 2.462888 1_555
Ca18 N2 2.462954 1_555
Ca19 N5 2.451529 1_556
Ca19 N12 2.459947 1_656
Ca19 N8 2.462881 1_656
Ca19 N1 2.462958 1_655
Ca20 N3 2.451534 1_555
Ca20 N13 2.459952 1_556
Ca20 N11 2.462875 1_555
Ca20 N4 2.462950 1_556
Ca21 N0 2.451523 1_555
Ca21 N13 2.459954 1_566
Ca21 N10 2.462889 1_555
Ca21 N1 2.462954 1_555
Ca22 N1 2.451529 1_655
Ca22 N14 2.459947 1_665
Ca22 N11 2.462881 1_665
Ca22 N2 2.462958 1_565
Ca23 N2 2.451528 1_565
Ca23 N15 2.459959 1_555
Ca23 N9 2.462882 1_555
Ca23 N0 2.462946 1_555
