# generated using pymatgen
data_Na2Li2CoO4
_symmetry_space_group_name_H-M   'P 1'
_cell_length_a   6.58529300
_cell_length_b   8.00536950
_cell_length_c   8.31292928
_cell_angle_alpha   89.86608789
_cell_angle_beta   88.87040533
_cell_angle_gamma   89.70307637
_symmetry_Int_Tables_number   1
_chemical_formula_structural   Na2Li2CoO4
_chemical_formula_sum   'Na8 Li8 Co4 O16'
_cell_volume   438.14639827
_cell_formula_units_Z   4
loop_
 _symmetry_equiv_pos_site_id
 _symmetry_equiv_pos_as_xyz
  1  'x, y, z'
loop_
 _atom_site_type_symbol
 _atom_site_label
 _atom_site_symmetry_multiplicity
 _atom_site_fract_x
 _atom_site_fract_y
 _atom_site_fract_z
 _atom_site_occupancy
  Na  Na0  1  0.26526700  0.48946600  0.03154200  1
  Na  Na1  1  0.73665900  0.49316400  0.00834400  1
  Na  Na2  1  0.46690900  0.78898200  0.24344400  1
  Na  Na3  1  0.02690100  0.21936600  0.23404200  1
  Na  Na4  1  0.75737800  0.99893900  0.48882900  1
  Na  Na5  1  0.24339100  0.00129500  0.50181000  1
  Na  Na6  1  0.00619300  0.74100400  0.76719100  1
  Na  Na7  1  0.49141300  0.24171100  0.74983700  1
  Li  Li0  1  0.74663100  0.51458700  0.34952500  1
  Li  Li1  1  0.02144900  0.70617300  0.41132200  1
  Li  Li2  1  0.99870400  0.26809300  0.57961700  1
  Li  Li3  1  0.24786800  0.48775800  0.63045500  1
  Li  Li4  1  0.75188300  0.48392700  0.64919300  1
  Li  Li5  1  0.25013500  0.98935300  0.87541600  1
  Li  Li6  1  0.74793300  0.99099000  0.87101800  1
  Li  Li7  1  0.49957500  0.76271200  0.91908700  1
  Co  Co0  1  0.99232400  0.78028900  0.12585600  1
  Co  Co1  1  0.49638100  0.27974900  0.36745300  1
  Co  Co2  1  0.50420100  0.72914000  0.62963300  1
  Co  Co3  1  0.99810400  0.23493600  0.86027600  1
  O  O0  1  0.22668900  0.78612500  0.00454500  1
  O  O1  1  0.76832300  0.79186100  0.00257000  1
  O  O2  1  0.98262700  0.57143400  0.21448300  1
  O  O3  1  0.51230900  0.45346500  0.22864700  1
  O  O4  1  0.00631300  0.92289500  0.29117800  1
  O  O5  1  0.49963000  0.06886300  0.30956400  1
  O  O6  1  0.26964600  0.29139600  0.49914600  1
  O  O7  1  0.73738600  0.30647300  0.48524700  1
  O  O8  1  0.26728000  0.71234400  0.53101100  1
  O  O9  1  0.73863600  0.69668400  0.51671100  1
  O  O10  1  0.50554300  0.92751700  0.73546800  1
  O  O11  1  0.00307000  0.04317400  0.73174200  1
  O  O12  1  0.50208100  0.55773400  0.77405600  1
  O  O13  1  0.00038100  0.44569100  0.76566000  1
  O  O14  1  0.23486500  0.21885000  0.94590000  1
  O  O15  1  0.75168100  0.22168600  0.93050200  1
loop_
_geom_bond_atom_site_label_1
_geom_bond_atom_site_label_2
_geom_bond_distance
_geom_bond_site_symmetry_2
Na0 O14 2.292917 1_554
Na0 O3 2.347863 1_555
Na0 O0 2.397581 1_555
Na0 O2 2.467398 1_455
Na0 O12 2.680302 1_554
Na0 O13 2.865795 1_554
Na1 O15 2.270131 1_554
Na1 O3 2.352254 1_555
Na1 O1 2.401616 1_555
Na1 O2 2.465305 1_555
Na1 O12 2.559757 1_554
Na1 O13 2.662532 1_654
Na2 O5 2.320354 1_565
Na2 O0 2.563483 1_555
Na2 O3 2.703802 1_555
Na2 O8 2.774314 1_555
Na2 O1 2.791664 1_555
Na3 O4 2.423291 1_545
Na3 O14 2.735633 1_554
Na3 O6 2.810505 1_555
Na3 O2 2.836587 1_455
Na3 O7 2.884094 1_455
Na4 O5 2.345432 1_565
Na4 O4 2.376069 1_655
Na4 O9 2.433736 1_555
Na4 O7 2.464901 1_565
Na4 O11 2.637976 1_665
Na4 O10 2.674174 1_555
Na5 O6 2.329707 1_555
Na5 O8 2.330127 1_545
Na5 O5 2.364960 1_555
Na5 O4 2.453632 1_545
Na5 O11 2.479653 1_555
Na5 O10 2.686678 1_545
Na6 O13 2.364666 1_555
Na6 O11 2.436212 1_565
Na6 O0 2.500749 1_556
Na6 O1 2.514836 1_456
Na6 O8 2.593917 1_555
Na6 O9 2.778588 1_455
Na7 O15 2.305728 1_555
Na7 O14 2.331822 1_555
Na7 O10 2.519503 1_545
Na7 O12 2.539793 1_555
Na7 O6 2.596927 1_555
Na7 O7 2.755600 1_555
Li0 O3 1.923927 1_555
Li0 O2 1.954152 1_555
Li0 O7 2.010438 1_555
Li0 O9 2.016226 1_555
Li1 O8 1.917733 1_555
Li1 O2 1.983412 1_455
Li1 O4 2.002869 1_555
Li1 O9 2.044184 1_455
Li2 O6 1.903047 1_655
Li2 O7 1.928157 1_555
Li2 O13 2.103433 1_655
Li2 O11 2.198254 1_655
Li3 O6 1.919014 1_555
Li3 O8 1.980762 1_555
Li3 O13 1.991113 1_555
Li3 O12 2.152434 1_555
Li4 O13 1.940327 1_655
Li4 O7 1.974887 1_555
Li4 O12 2.014463 1_555
Li4 O9 2.028513 1_555
Li5 O14 1.931205 1_565
Li5 O0 1.952145 1_556
Li5 O11 2.079945 1_565
Li5 O10 2.084302 1_555
Li6 O15 1.913385 1_565
Li6 O1 1.936629 1_556
Li6 O10 2.039066 1_555
Li6 O11 2.065484 1_665
Li7 O0 1.927676 1_556
Li7 O1 1.929163 1_556
Li7 O10 2.015156 1_555
Li7 O12 2.038293 1_555
Co0 O4 1.792739 1_655
Co0 O1 1.814563 1_555
Co0 O2 1.826425 1_555
Co0 O0 1.827644 1_655
Co1 O5 1.756457 1_555
Co1 O3 1.807105 1_555
Co1 O6 1.836073 1_555
Co1 O7 1.894532 1_555
Co2 O8 1.782566 1_555
Co2 O9 1.808846 1_555
Co2 O10 1.817446 1_555
Co2 O12 1.821062 1_555
Co3 O15 1.717432 1_555
Co3 O14 1.730719 1_655
Co3 O13 1.859840 1_655
Co3 O11 1.872199 1_655
