# generated using pymatgen
data_Ti2N2O
_symmetry_space_group_name_H-M   'P 1'
_cell_length_a   8.21568500
_cell_length_b   8.22729481
_cell_length_c   8.22798018
_cell_angle_alpha   109.51811993
_cell_angle_beta   109.42718382
_cell_angle_gamma   109.33969277
_symmetry_Int_Tables_number   1
_chemical_formula_structural   Ti2N2O
_chemical_formula_sum   'Ti16 N16 O8'
_cell_volume   428.80426993
_cell_formula_units_Z   8
loop_
 _symmetry_equiv_pos_site_id
 _symmetry_equiv_pos_as_xyz
  1  'x, y, z'
loop_
 _atom_site_type_symbol
 _atom_site_label
 _atom_site_symmetry_multiplicity
 _atom_site_fract_x
 _atom_site_fract_y
 _atom_site_fract_z
 _atom_site_occupancy
  Ti  Ti0  1  0.01351500  0.01125200  0.52215100  1
  Ti  Ti1  1  0.23649600  0.02988600  0.28486200  1
  Ti  Ti2  1  0.04403000  0.29422300  0.25348500  1
  Ti  Ti3  1  0.45844700  0.20797600  0.74939100  1
  Ti  Ti4  1  0.30530100  0.75828000  0.54299400  1
  Ti  Ti5  1  0.78598200  0.73215100  0.03405800  1
  Ti  Ti6  1  0.48314700  0.49679600  0.48698600  1
  Ti  Ti7  1  0.50959400  0.99409200  0.99533200  1
  Ti  Ti8  1  0.25382400  0.53862400  0.79776400  1
  Ti  Ti9  1  0.00159700  0.49794000  0.98821900  1
  Ti  Ti10  1  0.74842100  0.44912900  0.21010400  1
  Ti  Ti11  1  0.71737200  0.26067400  0.46050800  1
  Ti  Ti12  1  0.19845200  0.25219000  0.96454000  1
  Ti  Ti13  1  0.95298500  0.70615200  0.74566700  1
  Ti  Ti14  1  0.54603500  0.79670300  0.25044600  1
  Ti  Ti15  1  0.75388500  0.96577100  0.70141800  1
  N  N0  1  0.04889200  0.77769400  0.04183900  1
  N  N1  1  0.22490700  0.94844700  0.48629200  1
  N  N2  1  0.72081700  0.46111900  0.95084200  1
  N  N3  1  0.26526400  0.49332500  0.53869800  1
  N  N4  1  0.54707300  0.00850700  0.77745400  1
  N  N5  1  0.73592100  0.51128700  0.45733900  1
  N  N6  1  0.23564500  0.27526900  0.72692900  1
  N  N7  1  0.77230100  0.22306500  0.23220200  1
  N  N8  1  0.00718400  0.95562000  0.73248100  1
  N  N9  1  0.27554800  0.54552800  0.05431500  1
  N  N10  1  0.54341000  0.76943800  0.99277900  1
  N  N11  1  0.27540900  0.26410200  0.22520800  1
  N  N12  1  0.95898800  0.44925800  0.72391300  1
  N  N13  1  0.77464500  0.04891000  0.50906800  1
  N  N14  1  0.49044100  0.72496300  0.44991400  1
  N  N15  1  0.94895400  0.22716300  0.95998000  1
  O  O0  1  0.51025500  0.27292800  0.54895100  1
  O  O1  1  0.72343700  0.72612300  0.77401200  1
  O  O2  1  0.03475400  0.54775900  0.27702700  1
  O  O3  1  0.46117400  0.23473900  0.00981500  1
  O  O4  1  0.99270000  0.04472000  0.26921900  1
  O  O5  1  0.22584800  0.77692000  0.77336400  1
  O  O6  1  0.76598500  0.72773600  0.27231700  1
  O  O7  1  0.45136300  0.99354200  0.22811500  1
loop_
_geom_bond_atom_site_label_1
_geom_bond_atom_site_label_2
_geom_bond_distance
_geom_bond_site_symmetry_2
N0 Ti1 1.933486 1_565
N0 Ti5 2.041068 1_455
N0 Ti9 2.063533 1_554
N0 Ti13 2.088740 1_454
N1 Ti1 2.002396 1_565
N1 Ti4 2.017168 1_555
N1 Ti0 2.050281 1_565
N1 Ti3 2.088459 1_565
N2 Ti5 1.916494 1_556
N2 Ti3 2.018525 1_555
N2 Ti10 2.108394 1_556
N2 Ti9 2.123829 1_655
N3 Ti6 1.966490 1_555
N3 Ti2 2.028782 1_555
N3 Ti8 2.077749 1_555
N3 Ti4 2.080172 1_555
N4 Ti7 1.951337 1_545
N4 Ti4 1.998494 1_545
N4 Ti3 2.051696 1_555
N4 Ti15 2.087534 1_545
N5 Ti10 1.972014 1_555
N5 Ti11 2.026241 1_555
N5 Ti13 2.032038 1_555
N5 Ti6 2.139832 1_555
N6 Ti0 1.941911 1_555
N6 Ti8 1.985073 1_555
N6 Ti3 2.050817 1_555
N6 Ti12 2.135112 1_555
N7 Ti10 1.993660 1_555
N7 Ti7 2.015203 1_544
N7 Ti11 2.023897 1_555
N7 Ti2 2.040339 1_655
N8 Ti0 1.944360 1_565
N8 Ti13 1.999549 1_455
N8 Ti15 2.044143 1_455
N8 Ti12 2.102373 1_565
N9 Ti9 1.993619 1_554
N9 Ti8 2.038017 1_554
N9 Ti14 2.038972 1_555
N9 Ti12 2.063083 1_554
N10 Ti7 1.952400 1_555
N10 Ti14 2.047955 1_556
N10 Ti5 2.050702 1_556
N10 Ti8 2.067164 1_555
N11 Ti6 1.962742 1_555
N11 Ti12 1.981372 1_554
N11 Ti2 2.072873 1_555
N11 Ti1 2.093961 1_555
N12 Ti9 1.957293 1_655
N12 Ti11 1.973850 1_555
N12 Ti8 2.078461 1_655
N12 Ti13 2.079341 1_555
N13 Ti15 1.956377 1_545
N13 Ti14 2.042280 1_545
N13 Ti0 2.059947 1_655
N13 Ti11 2.073530 1_555
N14 Ti4 1.971312 1_555
N14 Ti6 1.985137 1_555
N14 Ti14 2.053770 1_555
N14 Ti15 2.081546 1_555
N15 Ti12 1.977271 1_655
N15 Ti15 2.027633 1_545
N15 Ti9 2.037909 1_655
N15 Ti2 2.077486 1_656
O0 Ti3 2.022833 1_555
O0 Ti11 2.079306 1_555
O0 Ti6 2.127325 1_555
O0 Ti1 2.155312 1_555
O1 Ti5 2.006353 1_556
O1 Ti13 2.027363 1_555
O1 Ti6 2.118629 1_555
O1 Ti15 2.205997 1_555
O2 Ti10 2.017666 1_455
O2 Ti2 2.059002 1_555
O2 Ti4 2.100256 1_555
O2 Ti9 2.175694 1_554
O3 Ti10 2.027265 1_555
O3 Ti3 2.071219 1_554
O3 Ti7 2.118463 1_544
O3 Ti12 2.127057 1_554
O4 Ti1 2.011016 1_655
O4 Ti2 2.012176 1_655
O4 Ti0 2.147900 1_655
O4 Ti5 2.199486 1_545
O5 Ti13 2.030616 1_455
O5 Ti7 2.047165 1_555
O5 Ti8 2.113667 1_555
O5 Ti4 2.176601 1_555
O6 Ti5 2.032072 1_555
O6 Ti14 2.037342 1_555
O6 Ti10 2.117711 1_555
O6 Ti0 2.162274 1_665
O7 Ti14 2.049243 1_555
O7 Ti1 2.056268 1_565
O7 Ti11 2.119762 1_565
O7 Ti7 2.123982 1_554
