# generated using pymatgen
data_HfZnCo2
_symmetry_space_group_name_H-M   'P 1'
_cell_length_a   4.19775801
_cell_length_b   4.19775801
_cell_length_c   4.19775872
_cell_angle_alpha   59.99985863
_cell_angle_beta   59.99982475
_cell_angle_gamma   59.99986437
_symmetry_Int_Tables_number   1
_chemical_formula_structural   HfZnCo2
_chemical_formula_sum   'Hf1 Zn1 Co2'
_cell_volume   52.30410666
_cell_formula_units_Z   1
loop_
 _symmetry_equiv_pos_site_id
 _symmetry_equiv_pos_as_xyz
  1  'x, y, z'
loop_
 _atom_site_type_symbol
 _atom_site_label
 _atom_site_symmetry_multiplicity
 _atom_site_fract_x
 _atom_site_fract_y
 _atom_site_fract_z
 _atom_site_occupancy
  Hf  Hf0  1  0.25000000  0.25000000  0.24999900  1
  Zn  Zn0  1  0.74999900  0.74999900  0.74999900  1
  Co  Co0  1  -0.00000000  0.00000000  0.00000000  1
  Co  Co1  1  0.49999900  0.49999900  0.49999900  1
loop_
_geom_bond_atom_site_label_1
_geom_bond_atom_site_label_2
_geom_bond_distance
_geom_bond_site_symmetry_2
Co0 Zn0 2.570583 1_544
Co0 Zn0 2.570583 1_445
Co0 Zn0 2.570584 1_454
Co0 Hf0 2.570586 1_455
Co0 Hf0 2.570587 1_545
Co0 Hf0 2.570590 1_554
Co0 Hf0 2.570591 1_555
Co0 Zn0 2.570605 1_444
Co1 Zn0 2.570586 1_455
Co1 Zn0 2.570586 1_554
Co1 Hf0 2.570586 1_556
Co1 Zn0 2.570587 1_545
Co1 Hf0 2.570588 1_555
Co1 Hf0 2.570590 1_655
Co1 Hf0 2.570590 1_565
Co1 Zn0 2.570594 1_555
