# generated using pymatgen
data_Li12MnV3P4(CO7)4
_symmetry_space_group_name_H-M   'P 1'
_cell_length_a   6.62461300
_cell_length_b   8.50343700
_cell_length_c   10.01419855
_cell_angle_alpha   85.00857420
_cell_angle_beta   90.00000000
_cell_angle_gamma   90.00000000
_symmetry_Int_Tables_number   1
_chemical_formula_structural   Li12MnV3P4(CO7)4
_chemical_formula_sum   'Li12 Mn1 V3 P4 C4 O28'
_cell_volume   561.98033115
_cell_formula_units_Z   1
loop_
 _symmetry_equiv_pos_site_id
 _symmetry_equiv_pos_as_xyz
  1  'x, y, z'
loop_
 _atom_site_type_symbol
 _atom_site_label
 _atom_site_symmetry_multiplicity
 _atom_site_fract_x
 _atom_site_fract_y
 _atom_site_fract_z
 _atom_site_occupancy
  Li  Li0  1  0.00000000  0.90291900  0.61842800  1
  Li  Li1  1  0.00000000  0.90712700  0.11863600  1
  Li  Li2  1  0.22360400  0.72185400  0.87553900  1
  Li  Li3  1  0.77639600  0.72185400  0.87553900  1
  Li  Li4  1  0.22336900  0.72401700  0.37640200  1
  Li  Li5  1  0.77663100  0.72401700  0.37640200  1
  Li  Li6  1  0.72474300  0.27768800  0.62400000  1
  Li  Li7  1  0.27525700  0.27768800  0.62400000  1
  Li  Li8  1  0.72270000  0.27706500  0.12330800  1
  Li  Li9  1  0.27730000  0.27706500  0.12330800  1
  Li  Li10  1  0.50000000  0.09508400  0.88237100  1
  Li  Li11  1  0.50000000  0.09464400  0.38256600  1
  Mn  Mn0  1  0.00000000  0.33954400  0.38976000  1
  V  V0  1  0.50000000  0.66988100  0.60403300  1
  V  V1  1  0.50000000  0.67005000  0.10357800  1
  V  V2  1  0.00000000  0.32989000  0.89689900  1
  P  P0  1  0.00000000  0.58769900  0.64110600  1
  P  P1  1  0.00000000  0.59126900  0.13811800  1
  P  P2  1  0.50000000  0.41106600  0.86001000  1
  P  P3  1  0.50000000  0.41092300  0.36035400  1
  C  C0  1  0.50000000  0.96445200  0.65060900  1
  C  C1  1  0.50000000  0.96445900  0.15039700  1
  C  C2  1  0.00000000  0.03537100  0.84963100  1
  C  C3  1  0.00000000  0.03286900  0.35104000  1
  O  O0  1  0.50000000  0.92473200  0.52790100  1
  O  O1  1  0.00000000  0.88956000  0.82254900  1
  O  O2  1  0.50000000  0.92498500  0.02771100  1
  O  O3  1  0.50000000  0.85148400  0.74735700  1
  O  O4  1  0.00000000  0.88694000  0.32166000  1
  O  O5  1  0.50000000  0.85137100  0.24712900  1
  O  O6  1  0.18241400  0.69001700  0.58788700  1
  O  O7  1  0.81758600  0.69001700  0.58788700  1
  O  O8  1  0.18293600  0.69209200  0.08482000  1
  O  O9  1  0.81706400  0.69209200  0.08482000  1
  O  O10  1  0.50000000  0.57783700  0.91043600  1
  O  O11  1  0.00000000  0.56973000  0.79797900  1
  O  O12  1  0.50000000  0.57778800  0.41062300  1
  O  O13  1  0.00000000  0.57522800  0.29488100  1
  O  O14  1  0.50000000  0.43046600  0.70336900  1
  O  O15  1  0.00000000  0.42024800  0.59141500  1
  O  O16  1  0.50000000  0.43031900  0.20359900  1
  O  O17  1  0.00000000  0.42196000  0.09168200  1
  O  O18  1  0.31751700  0.30840100  0.91293000  1
  O  O19  1  0.68248300  0.30840100  0.91293000  1
  O  O20  1  0.68326100  0.30880300  0.41281400  1
  O  O21  1  0.31673900  0.30880300  0.41281400  1
  O  O22  1  0.00000000  0.14880300  0.75310800  1
  O  O23  1  0.50000000  0.11068000  0.67762000  1
  O  O24  1  0.00000000  0.14579700  0.25402200  1
  O  O25  1  0.00000000  0.07523500  0.97244500  1
  O  O26  1  0.50000000  0.11062000  0.17757100  1
  O  O27  1  0.00000000  0.06909900  0.47400600  1
loop_
_geom_bond_atom_site_label_1
_geom_bond_atom_site_label_2
_geom_bond_distance
_geom_bond_site_symmetry_2
Li0 O27 1.932076 1_565
Li0 O1 2.037370 1_555
Li0 O7 2.219847 1_455
Li0 O6 2.219847 1_555
Li1 O25 1.955133 1_564
Li1 O4 2.025419 1_555
Li1 O9 2.243798 1_455
Li1 O8 2.243798 1_555
Li1 O24 2.536906 1_565
Li2 O1 2.092325 1_555
Li2 O8 2.106332 1_556
Li2 O11 2.155380 1_555
Li2 O10 2.213598 1_555
Li2 O3 2.443194 1_555
Li3 O1 2.092325 1_655
Li3 O9 2.106332 1_556
Li3 O11 2.155380 1_655
Li3 O10 2.213598 1_555
Li3 O3 2.443194 1_555
Li4 O4 2.068168 1_555
Li4 O6 2.129777 1_555
Li4 O13 2.153271 1_555
Li4 O12 2.224361 1_555
Li4 O5 2.441934 1_555
Li5 O4 2.068168 1_655
Li5 O7 2.129777 1_555
Li5 O13 2.153271 1_655
Li5 O12 2.224361 1_555
Li5 O5 2.441934 1_555
Li6 O23 2.095010 1_555
Li6 O20 2.126212 1_555
Li6 O14 2.171591 1_555
Li6 O15 2.198236 1_655
Li6 O22 2.439516 1_655
Li7 O23 2.095010 1_555
Li7 O21 2.126212 1_555
Li7 O14 2.171591 1_555
Li7 O15 2.198236 1_555
Li7 O22 2.439516 1_555
Li8 O26 2.083553 1_555
Li8 O19 2.117254 1_554
Li8 O16 2.168788 1_555
Li8 O17 2.219251 1_655
Li8 O24 2.465719 1_655
Li9 O26 2.083553 1_555
Li9 O18 2.117254 1_554
Li9 O16 2.168788 1_555
Li9 O17 2.219251 1_555
Li9 O24 2.465719 1_555
Li10 O2 1.960660 1_546
Li10 O23 2.043154 1_555
Li10 O19 2.223054 1_555
Li10 O18 2.223054 1_555
Li11 O0 1.959556 1_545
Li11 O26 2.045523 1_555
Li11 O21 2.231139 1_555
Li11 O20 2.231139 1_555
Mn0 O21 2.124590 1_555
Mn0 O20 2.124590 1_455
Mn0 O13 2.141943 1_555
Mn0 O15 2.188639 1_555
Mn0 O24 2.225247 1_555
Mn0 O27 2.379667 1_555
C0 O23 1.295314 1_565
C0 O0 1.302423 1_555
C0 O3 1.303652 1_555
C1 O26 1.295235 1_565
C1 O2 1.301498 1_555
C1 O5 1.304229 1_555
C2 O1 1.292055 1_545
C2 O25 1.303867 1_555
C2 O22 1.304782 1_555
C3 O27 1.295102 1_555
C3 O4 1.299970 1_545
C3 O24 1.305261 1_555
O0 V0 2.233856 1_555
O2 V1 2.233848 1_555
O3 V0 2.197819 1_555
O5 V1 2.197624 1_555
O6 P0 1.555835 1_555
O6 V0 2.115886 1_555
O7 P0 1.555835 1_655
O7 V0 2.115886 1_555
O8 P1 1.552075 1_555
O8 V1 2.115675 1_555
O9 P1 1.552075 1_655
O9 V1 2.115675 1_555
O10 P2 1.546188 1_555
O10 V1 2.149361 1_556
O11 P0 1.565083 1_555
O11 V2 2.188413 1_555
O12 P3 1.546306 1_555
O12 V0 2.151410 1_555
O13 P1 1.563903 1_555
O14 P2 1.562945 1_555
O14 V0 2.186742 1_555
O15 P0 1.548689 1_555
O16 P3 1.564080 1_555
O16 V1 2.191709 1_555
O17 P1 1.550969 1_555
O17 V2 2.164143 1_554
O18 P2 1.556878 1_555
O18 V2 2.116238 1_555
O19 P2 1.556878 1_555
O19 V2 2.116238 1_655
O20 P3 1.557096 1_555
O21 P3 1.557096 1_555
O22 V2 2.197835 1_555
O25 V2 2.230787 1_555
