# generated using pymatgen
data_GaGeTe
_symmetry_space_group_name_H-M   'P 1'
_cell_length_a   12.23296087
_cell_length_b   12.23296087
_cell_length_c   12.23296084
_cell_angle_alpha   19.16206431
_cell_angle_beta   19.16206431
_cell_angle_gamma   19.16206682
_symmetry_Int_Tables_number   1
_chemical_formula_structural   GaGeTe
_chemical_formula_sum   'Ga2 Ge2 Te2'
_cell_volume   172.40117105
_cell_formula_units_Z   2
loop_
 _symmetry_equiv_pos_site_id
 _symmetry_equiv_pos_as_xyz
  1  'x, y, z'
loop_
 _atom_site_type_symbol
 _atom_site_label
 _atom_site_symmetry_multiplicity
 _atom_site_fract_x
 _atom_site_fract_y
 _atom_site_fract_z
 _atom_site_occupancy
  Ga  Ga0  1  0.25459297  0.25459297  0.25459297  1
  Ga  Ga1  1  0.74540703  0.74540703  0.74540703  1
  Ge  Ge0  1  0.32223687  0.32223687  0.32223687  1
  Ge  Ge1  1  0.67776313  0.67776313  0.67776313  1
  Te  Te0  1  0.11363475  0.11363475  0.11363475  1
  Te  Te1  1  0.88636525  0.88636525  0.88636525  1
loop_
_geom_bond_atom_site_label_1
_geom_bond_atom_site_label_2
_geom_bond_distance
_geom_bond_site_symmetry_2
Ga0 Ge0 2.436176 1_555
Ga0 Te1 2.665864 1_445
Ga0 Te1 2.665865 1_454
Ga0 Te1 2.665865 1_544
Ga1 Ge1 2.436176 1_555
Ga1 Te0 2.665864 1_665
Ga1 Te0 2.665865 1_656
Ga1 Te0 2.665865 1_566
Ge0 Ge1 2.483212 1_554
Ge0 Ge1 2.483213 1_545
Ge0 Ge1 2.483213 1_455
