# generated using pymatgen
data_KZn4(SbO4)3
_symmetry_space_group_name_H-M   'P 1'
_cell_length_a   6.84340613
_cell_length_b   6.84340613
_cell_length_c   6.84340698
_cell_angle_alpha   107.75692554
_cell_angle_beta   107.75692554
_cell_angle_gamma   107.75692883
_symmetry_Int_Tables_number   1
_chemical_formula_structural   KZn4(SbO4)3
_chemical_formula_sum   'K1 Zn4 Sb3 O12'
_cell_volume   261.20162184
_cell_formula_units_Z   1
loop_
 _symmetry_equiv_pos_site_id
 _symmetry_equiv_pos_as_xyz
  1  'x, y, z'
loop_
 _atom_site_type_symbol
 _atom_site_label
 _atom_site_symmetry_multiplicity
 _atom_site_fract_x
 _atom_site_fract_y
 _atom_site_fract_z
 _atom_site_occupancy
  K  K0  1  0.49568100  0.49568100  0.49568100  1
  Zn  Zn0  1  0.63884200  0.02525100  0.51077600  1
  Zn  Zn1  1  0.02525100  0.51077600  0.63884200  1
  Zn  Zn2  1  0.51077600  0.63884200  0.02525100  1
  Zn  Zn3  1  0.98192700  0.98192700  0.98192700  1
  Sb  Sb0  1  0.19560600  0.06829500  0.65441400  1
  Sb  Sb1  1  0.65441400  0.19560600  0.06829500  1
  Sb  Sb2  1  0.06829500  0.65441400  0.19560600  1
  O  O0  1  0.65476800  0.89438600  0.96223500  1
  O  O1  1  0.96223500  0.65476800  0.89438600  1
  O  O2  1  0.73126500  0.25110600  0.39084400  1
  O  O3  1  0.39084400  0.73126500  0.25110600  1
  O  O4  1  0.89438600  0.96223500  0.65476800  1
  O  O5  1  0.25110600  0.39084400  0.73126500  1
  O  O6  1  0.11755300  0.98566500  0.32143700  1
  O  O7  1  0.98566500  0.32143700  0.11755300  1
  O  O8  1  0.32143700  0.11755300  0.98566500  1
  O  O9  1  0.16425600  0.73601100  0.53580000  1
  O  O10  1  0.73601100  0.53580000  0.16425600  1
  O  O11  1  0.53580000  0.16425600  0.73601100  1
loop_
_geom_bond_atom_site_label_1
_geom_bond_atom_site_label_2
_geom_bond_distance
_geom_bond_site_symmetry_2
K0 O2 2.744856 1_555
K0 O5 2.744856 1_555
K0 O3 2.744856 1_555
K0 O4 3.094871 1_555
K0 O1 3.094872 1_555
K0 O0 3.094872 1_555
K0 O9 3.210016 1_555
K0 O11 3.210016 1_555
K0 O10 3.210016 1_555
K0 O6 3.220281 1_545
K0 O7 3.220281 1_455
K0 O8 3.220281 1_554
O0 Sb1 1.966615 1_566
O0 Zn2 1.970619 1_556
O0 Zn3 2.082848 1_555
O1 Sb2 1.966616 1_656
O1 Zn1 1.970619 1_655
O1 Zn3 2.082848 1_555
O2 Sb1 1.987932 1_555
O2 Zn0 1.989148 1_555
O2 Zn1 1.995703 1_655
O3 Sb2 1.987931 1_555
O3 Zn2 1.989148 1_555
O3 Zn0 1.995703 1_565
O4 Sb0 1.966615 1_665
O4 Zn0 1.970619 1_565
O4 Zn3 2.082848 1_555
O5 Sb0 1.987931 1_555
O5 Zn1 1.989148 1_555
O5 Zn2 1.995703 1_556
O6 Sb0 2.021119 1_565
O6 Sb2 2.039631 1_555
O6 Zn3 2.212292 1_454
O7 Sb2 2.021119 1_655
O7 Sb1 2.039630 1_555
O7 Zn3 2.212291 1_544
O8 Sb1 2.021119 1_556
O8 Sb0 2.039631 1_555
O8 Zn3 2.212291 1_445
O9 Zn1 1.988911 1_555
O9 Sb2 2.052776 1_555
O9 Sb0 2.084735 1_565
O10 Zn2 1.988911 1_555
O10 Sb1 2.052776 1_555
O10 Sb2 2.084735 1_655
O11 Zn0 1.988911 1_555
O11 Sb0 2.052776 1_555
O11 Sb1 2.084735 1_556
