# generated using pymatgen
data_LiMnP2O7
_symmetry_space_group_name_H-M   'P 1'
_cell_length_a   5.17566100
_cell_length_b   8.54449100
_cell_length_c   14.23054406
_cell_angle_alpha   62.08690057
_cell_angle_beta   90.00000000
_cell_angle_gamma   90.00000000
_symmetry_Int_Tables_number   1
_chemical_formula_structural   LiMnP2O7
_chemical_formula_sum   'Li4 Mn4 P8 O28'
_cell_volume   556.10659385
_cell_formula_units_Z   4
loop_
 _symmetry_equiv_pos_site_id
 _symmetry_equiv_pos_as_xyz
  1  'x, y, z'
loop_
 _atom_site_type_symbol
 _atom_site_label
 _atom_site_symmetry_multiplicity
 _atom_site_fract_x
 _atom_site_fract_y
 _atom_site_fract_z
 _atom_site_occupancy
  Li  Li0  1  0.18514000  0.23823000  0.97840300  1
  Li  Li1  1  0.68514000  0.76177000  0.52159700  1
  Li  Li2  1  0.31486000  0.23823000  0.47840300  1
  Li  Li3  1  0.81486000  0.76177000  0.02159700  1
  Mn  Mn0  1  0.28444700  0.53234000  0.64204900  1
  Mn  Mn1  1  0.78444700  0.46766000  0.85795100  1
  Mn  Mn2  1  0.21555300  0.53234000  0.14204900  1
  Mn  Mn3  1  0.71555300  0.46766000  0.35795100  1
  P  P0  1  0.72896500  0.17539200  0.84054300  1
  P  P1  1  0.20788600  0.67454800  0.38661300  1
  P  P2  1  0.22896500  0.82460800  0.65945700  1
  P  P3  1  0.29211400  0.67454800  0.88661300  1
  P  P4  1  0.70788600  0.32545200  0.11338700  1
  P  P5  1  0.77103500  0.17539200  0.34054300  1
  P  P6  1  0.79211400  0.32545200  0.61338700  1
  P  P7  1  0.27103500  0.82460800  0.15945700  1
  O  O0  1  0.97627400  0.28559800  0.83902900  1
  O  O1  1  0.52030400  0.31737500  0.83311600  1
  O  O2  1  0.63191000  0.48405500  0.60436000  1
  O  O3  1  0.91656500  0.63553100  0.38522900  1
  O  O4  1  0.27721000  0.83650200  0.26959600  1
  O  O5  1  0.27819500  0.73437500  0.46747600  1
  O  O6  1  0.28819800  0.00700500  0.07184100  1
  O  O7  1  0.13191000  0.51594500  0.89564000  1
  O  O8  1  0.02030400  0.68262500  0.66688400  1
  O  O9  1  0.47627400  0.71440200  0.66097100  1
  O  O10  1  0.78819800  0.99299500  0.42815900  1
  O  O11  1  0.58343500  0.63553100  0.88522900  1
  O  O12  1  0.77819500  0.26562500  0.03252400  1
  O  O13  1  0.77721000  0.16349800  0.23040400  1
  O  O14  1  0.22279000  0.83650200  0.76959600  1
  O  O15  1  0.22180500  0.73437500  0.96747600  1
  O  O16  1  0.41656500  0.36446900  0.11477100  1
  O  O17  1  0.21180200  0.00700500  0.57184100  1
  O  O18  1  0.52372600  0.28559800  0.33902900  1
  O  O19  1  0.97969600  0.31737500  0.33311600  1
  O  O20  1  0.86809000  0.48405500  0.10436000  1
  O  O21  1  0.71180200  0.99299500  0.92815900  1
  O  O22  1  0.72180500  0.26562500  0.53252400  1
  O  O23  1  0.72279000  0.16349800  0.73040400  1
  O  O24  1  0.08343500  0.36446900  0.61477100  1
  O  O25  1  0.36809000  0.51594500  0.39564000  1
  O  O26  1  0.47969600  0.68262500  0.16688400  1
  O  O27  1  0.02372600  0.71440200  0.16097100  1
loop_
_geom_bond_atom_site_label_1
_geom_bond_atom_site_label_2
_geom_bond_distance
_geom_bond_site_symmetry_2
Li0 O6 1.869848 1_556
Li0 O7 2.115943 1_555
Li0 O0 2.124756 1_455
Li0 O12 2.291912 1_456
Li0 O1 2.536148 1_555
Li1 O10 1.869848 1_555
Li1 O2 2.115943 1_555
Li1 O9 2.124756 1_555
Li1 O5 2.291912 1_555
Li1 O8 2.536148 1_655
Li2 O17 1.869848 1_555
Li2 O25 2.115943 1_555
Li2 O18 2.124756 1_555
Li2 O22 2.291912 1_555
Li2 O19 2.536148 1_455
Li3 O21 1.869848 1_554
Li3 O20 2.115943 1_555
Li3 O27 2.124756 1_655
Li3 O15 2.291912 1_654
Li3 O26 2.536148 1_555
Mn0 O24 1.952379 1_555
Mn0 O9 1.967329 1_555
Mn0 O2 1.974616 1_555
Mn0 O8 2.016864 1_555
Mn0 O5 2.266601 1_555
Mn0 O1 2.753346 1_555
Mn1 O11 1.952379 1_555
Mn1 O0 1.967329 1_555
Mn1 O7 1.974616 1_655
Mn1 O1 2.016864 1_555
Mn1 O12 2.266601 1_556
Mn1 O8 2.753346 1_655
Mn2 O16 1.952379 1_555
Mn2 O27 1.967329 1_555
Mn2 O20 1.974616 1_455
Mn2 O26 2.016864 1_555
Mn2 O15 2.266601 1_554
Mn2 O19 2.753346 1_455
Mn3 O3 1.952379 1_555
Mn3 O18 1.967329 1_555
Mn3 O25 1.974616 1_555
Mn3 O19 2.016864 1_555
Mn3 O22 2.266601 1_555
Mn3 O26 2.753346 1_555
O0 P0 1.583209 1_555
O1 P0 1.590352 1_555
O2 P6 1.541927 1_555
O3 P1 1.546310 1_655
O4 P7 1.617724 1_555
O4 P1 1.630688 1_555
O5 P1 1.506204 1_555
O6 P7 1.473783 1_545
O7 P3 1.541927 1_555
O8 P2 1.590352 1_555
O9 P2 1.583209 1_555
O10 P5 1.473783 1_565
O11 P3 1.546310 1_555
O12 P4 1.506204 1_555
O13 P5 1.617724 1_555
O13 P4 1.630688 1_555
O14 P2 1.617724 1_555
O14 P3 1.630688 1_555
O15 P3 1.506204 1_555
O16 P4 1.546310 1_555
O17 P2 1.473783 1_545
O18 P5 1.583209 1_555
O19 P5 1.590352 1_555
O20 P4 1.541927 1_555
O21 P0 1.473783 1_565
O22 P6 1.506204 1_555
O23 P0 1.617724 1_555
O23 P6 1.630688 1_555
O24 P6 1.546310 1_455
O25 P1 1.541927 1_555
O26 P7 1.590352 1_555
O27 P7 1.583209 1_555
