# generated using pymatgen
data_Ti6O
_symmetry_space_group_name_H-M   'P 1'
_cell_length_a   5.10479035
_cell_length_b   5.10479065
_cell_length_c   9.46109899
_cell_angle_alpha   90.00000000
_cell_angle_beta   90.00000000
_cell_angle_gamma   119.99999801
_symmetry_Int_Tables_number   1
_chemical_formula_structural   Ti6O
_chemical_formula_sum   'Ti12 O2'
_cell_volume   213.51484397
_cell_formula_units_Z   2
loop_
 _symmetry_equiv_pos_site_id
 _symmetry_equiv_pos_as_xyz
  1  'x, y, z'
loop_
 _atom_site_type_symbol
 _atom_site_label
 _atom_site_symmetry_multiplicity
 _atom_site_fract_x
 _atom_site_fract_y
 _atom_site_fract_z
 _atom_site_occupancy
  Ti  Ti0  1  0.66886152  0.66886152  0.13036693  1
  Ti  Ti1  1  -0.00000000  0.66886152  0.36963307  1
  Ti  Ti2  1  0.66886152  0.00000000  0.36963307  1
  Ti  Ti3  1  0.33113848  0.33113848  0.36963307  1
  Ti  Ti4  1  0.66886152  0.00000000  0.86963307  1
  Ti  Ti5  1  -0.00000000  0.66886152  0.86963307  1
  Ti  Ti6  1  0.33113848  0.33113848  0.86963307  1
  Ti  Ti7  1  0.00000000  0.33113848  0.63036693  1
  Ti  Ti8  1  0.33113848  0.00000000  0.63036693  1
  Ti  Ti9  1  0.66886152  0.66886152  0.63036693  1
  Ti  Ti10  1  0.00000000  0.33113848  0.13036693  1
  Ti  Ti11  1  0.33113848  0.00000000  0.13036693  1
  O  O0  1  0.00000000  0.00000000  0.50000000  1
  O  O1  1  0.00000000  0.00000000  0.00000000  1
loop_
_geom_bond_atom_site_label_1
_geom_bond_atom_site_label_2
_geom_bond_distance
_geom_bond_site_symmetry_2
O0 Ti2 2.092543 1_455
O0 Ti8 2.092543 1_555
O0 Ti7 2.092544 1_555
O0 Ti1 2.092544 1_545
O0 Ti9 2.092544 1_445
O0 Ti3 2.092544 1_555
O1 Ti4 2.092543 1_454
O1 Ti11 2.092543 1_555
O1 Ti5 2.092544 1_544
O1 Ti10 2.092544 1_555
O1 Ti6 2.092544 1_554
O1 Ti0 2.092544 1_445
