# generated using pymatgen
data_Ca2PdAu
_symmetry_space_group_name_H-M   'P 1'
_cell_length_a   5.03810568
_cell_length_b   5.03810568
_cell_length_c   5.03810568
_cell_angle_alpha   60.00000000
_cell_angle_beta   60.00000000
_cell_angle_gamma   60.00000000
_symmetry_Int_Tables_number   1
_chemical_formula_structural   Ca2PdAu
_chemical_formula_sum   'Ca2 Pd1 Au1'
_cell_volume   90.42464682
_cell_formula_units_Z   1
loop_
 _symmetry_equiv_pos_site_id
 _symmetry_equiv_pos_as_xyz
  1  'x, y, z'
loop_
 _atom_site_type_symbol
 _atom_site_label
 _atom_site_symmetry_multiplicity
 _atom_site_fract_x
 _atom_site_fract_y
 _atom_site_fract_z
 _atom_site_occupancy
  Ca  Ca0  1  0.49999900  0.49999900  0.49999900  1
  Ca  Ca1  1  0.00000000  0.00000000  -0.00000000  1
  Pd  Pd0  1  0.75000000  0.75000000  0.75000000  1
  Au  Au0  1  0.25000000  0.25000000  0.25000000  1
loop_
_geom_bond_atom_site_label_1
_geom_bond_atom_site_label_2
_geom_bond_distance
_geom_bond_site_symmetry_2
Ca0 Pd0 3.085193 1_554
Ca0 Pd0 3.085193 1_545
Ca0 Pd0 3.085193 1_455
Ca0 Pd0 3.085209 1_555
Ca1 Pd0 3.085197 1_444
Ca1 Pd0 3.085197 1_445
Ca1 Pd0 3.085197 1_454
Ca1 Pd0 3.085197 1_544
Au0 Ca0 3.085185 1_555
Au0 Ca1 3.085197 1_556
Au0 Ca1 3.085197 1_555
Au0 Ca1 3.085197 1_565
Au0 Ca1 3.085197 1_655
Au0 Ca0 3.085201 1_455
Au0 Ca0 3.085201 1_545
Au0 Ca0 3.085201 1_554
