# generated using pymatgen
data_Sr2V3O9
_symmetry_space_group_name_H-M   'P 1'
_cell_length_a   16.48215100
_cell_length_b   7.05465800
_cell_length_c   7.39493305
_cell_angle_alpha   64.00311437
_cell_angle_beta   90.00000000
_cell_angle_gamma   90.00000000
_symmetry_Int_Tables_number   1
_chemical_formula_structural   Sr2V3O9
_chemical_formula_sum   'Sr8 V12 O36'
_cell_volume   772.85104727
_cell_formula_units_Z   4
loop_
 _symmetry_equiv_pos_site_id
 _symmetry_equiv_pos_as_xyz
  1  'x, y, z'
loop_
 _atom_site_type_symbol
 _atom_site_label
 _atom_site_symmetry_multiplicity
 _atom_site_fract_x
 _atom_site_fract_y
 _atom_site_fract_z
 _atom_site_occupancy
  Sr  Sr0  1  0.04860000  0.74983600  0.99883400  1
  Sr  Sr1  1  0.62589800  0.75088300  0.99892700  1
  Sr  Sr2  1  0.45140000  0.74983600  0.49883400  1
  Sr  Sr3  1  0.87410200  0.75088300  0.49892700  1
  Sr  Sr4  1  0.37410200  0.24911700  0.00107300  1
  Sr  Sr5  1  0.95140000  0.25016400  0.00116600  1
  Sr  Sr6  1  0.54860000  0.25016400  0.50116600  1
  Sr  Sr7  1  0.12589800  0.24911700  0.50107300  1
  V  V0  1  0.24562300  0.75020700  0.22031500  1
  V  V1  1  0.84046000  0.74976800  0.00001600  1
  V  V2  1  0.42091700  0.75005100  0.99928400  1
  V  V3  1  0.25437700  0.75020700  0.72031500  1
  V  V4  1  0.07908300  0.75005100  0.49928400  1
  V  V5  1  0.65954000  0.74976800  0.50001600  1
  V  V6  1  0.74562300  0.24979300  0.27968500  1
  V  V7  1  0.57908300  0.24994900  0.00071600  1
  V  V8  1  0.15954000  0.25023200  0.99998400  1
  V  V9  1  0.75437700  0.24979300  0.77968500  1
  V  V10  1  0.34046000  0.25023200  0.49998400  1
  V  V11  1  0.92091700  0.24994900  0.50071600  1
  O  O0  1  0.01838300  0.94398500  0.33590400  1
  O  O1  1  0.72398000  0.94730400  0.33234400  1
  O  O2  1  0.90285600  0.86119500  0.11418500  1
  O  O3  1  0.35990300  0.84824100  0.14022600  1
  O  O4  1  0.48161700  0.94398500  0.83590400  1
  O  O5  1  0.77602000  0.94730400  0.83234400  1
  O  O6  1  0.13900900  0.65030900  0.35808300  1
  O  O7  1  0.59761300  0.63797400  0.38513400  1
  O  O8  1  0.21323000  0.75445600  0.99861300  1
  O  O9  1  0.59714400  0.86119500  0.61418500  1
  O  O10  1  0.14009700  0.84824100  0.64022600  1
  O  O11  1  0.77538500  0.55500100  0.16902600  1
  O  O12  1  0.48133800  0.55668000  0.16417000  1
  O  O13  1  0.98133800  0.44332000  0.33583000  1
  O  O14  1  0.27538500  0.44499900  0.33097400  1
  O  O15  1  0.36099100  0.65030900  0.85808300  1
  O  O16  1  0.90238700  0.63797400  0.88513400  1
  O  O17  1  0.28677000  0.75445600  0.49861300  1
  O  O18  1  0.09761300  0.36202600  0.11486600  1
  O  O19  1  0.63900900  0.34969100  0.14191700  1
  O  O20  1  0.72461500  0.55500100  0.66902600  1
  O  O21  1  0.01866200  0.55668000  0.66417000  1
  O  O22  1  0.51866200  0.44332000  0.83583000  1
  O  O23  1  0.22461500  0.44499900  0.83097400  1
  O  O24  1  0.85990300  0.15175900  0.35977400  1
  O  O25  1  0.40285600  0.13880500  0.38581500  1
  O  O26  1  0.78677000  0.24554400  0.00138700  1
  O  O27  1  0.40238700  0.36202600  0.61486600  1
  O  O28  1  0.86099100  0.34969100  0.64191700  1
  O  O29  1  0.22398000  0.05269600  0.16765600  1
  O  O30  1  0.51838300  0.05601500  0.16409600  1
  O  O31  1  0.64009700  0.15175900  0.85977400  1
  O  O32  1  0.09714400  0.13880500  0.88581500  1
  O  O33  1  0.71323000  0.24554400  0.50138700  1
  O  O34  1  0.27602000  0.05269600  0.66765600  1
  O  O35  1  0.98161700  0.05601500  0.66409600  1
loop_
_geom_bond_atom_site_label_1
_geom_bond_atom_site_label_2
_geom_bond_distance
_geom_bond_site_symmetry_2
O0 V4 1.698053 1_555
O0 Sr5 2.706408 1_465
O0 Sr3 2.743100 1_455
O1 V5 1.758612 1_555
O1 V6 2.025879 1_565
O1 Sr3 2.839636 1_555
O2 V1 1.723416 1_555
O2 Sr5 2.618774 1_565
O2 Sr3 2.642735 1_555
O2 Sr0 2.775375 1_654
O3 V2 1.791746 1_554
O3 V0 2.004462 1_555
O3 Sr4 2.561316 1_565
O3 Sr2 2.859161 1_555
O4 V2 1.698053 1_555
O4 Sr6 2.706408 1_565
O4 Sr1 2.743100 1_555
O5 V1 1.758612 1_556
O5 V9 2.025879 1_565
O5 Sr1 2.839636 1_555
O6 V4 1.790273 1_555
O6 V0 1.998255 1_555
O6 Sr7 2.559624 1_555
O6 Sr0 2.852355 1_554
O7 V5 1.724208 1_555
O7 Sr6 2.610726 1_555
O7 Sr1 2.648422 1_554
O7 Sr2 2.778312 1_555
O8 V0 1.711940 1_556
O8 V3 2.179510 1_555
O8 Sr0 2.713644 1_555
O9 V5 1.723416 1_555
O9 Sr6 2.618774 1_565
O9 Sr1 2.642735 1_555
O9 Sr2 2.775375 1_555
O10 V4 1.791746 1_555
O10 V3 2.004462 1_555
O10 Sr7 2.561316 1_565
O10 Sr0 2.859161 1_555
O11 V1 1.759246 1_555
O11 V6 2.000419 1_555
O11 Sr1 2.835254 1_554
O12 V2 1.697432 1_554
O12 Sr6 2.718681 1_555
O12 Sr1 2.753114 1_554
O13 V11 1.697432 1_555
O13 Sr0 2.718681 1_654
O13 Sr7 2.753114 1_655
O14 V10 1.759246 1_555
O14 V0 2.000419 1_555
O14 Sr7 2.835254 1_555
O15 V2 1.790273 1_555
O15 V3 1.998255 1_555
O15 Sr4 2.559624 1_556
O15 Sr2 2.852355 1_555
O16 V1 1.724208 1_556
O16 Sr5 2.610726 1_556
O16 Sr3 2.648422 1_555
O16 Sr0 2.778312 1_655
O17 V3 1.711940 1_555
O17 V0 2.179510 1_555
O17 Sr2 2.713644 1_555
O18 V8 1.724208 1_554
O18 Sr0 2.610726 1_554
O18 Sr7 2.648422 1_555
O18 Sr5 2.778312 1_455
O19 V7 1.790273 1_555
O19 V6 1.998255 1_555
O19 Sr1 2.559624 1_554
O19 Sr6 2.852355 1_555
O20 V5 1.759246 1_555
O20 V9 2.000419 1_555
O20 Sr3 2.835254 1_555
O21 V4 1.697432 1_555
O21 Sr5 2.718681 1_456
O21 Sr3 2.753114 1_455
O22 V7 1.697432 1_556
O22 Sr2 2.718681 1_555
O22 Sr4 2.753114 1_556
O23 V8 1.759246 1_555
O23 V3 2.000419 1_555
O23 Sr4 2.835254 1_556
O24 V11 1.791746 1_555
O24 V6 2.004462 1_555
O24 Sr3 2.561316 1_545
O24 Sr5 2.859161 1_555
O25 V10 1.723416 1_555
O25 Sr2 2.618774 1_545
O25 Sr4 2.642735 1_555
O25 Sr6 2.775375 1_555
O26 V9 1.711940 1_554
O26 V6 2.179510 1_555
O26 Sr5 2.713644 1_555
O27 V10 1.724208 1_555
O27 Sr2 2.610726 1_555
O27 Sr4 2.648422 1_556
O27 Sr6 2.778312 1_555
O28 V11 1.790273 1_555
O28 V9 1.998255 1_555
O28 Sr3 2.559624 1_555
O28 Sr5 2.852355 1_556
O29 V8 1.758612 1_554
O29 V0 2.025879 1_545
O29 Sr4 2.839636 1_555
O30 V7 1.698053 1_555
O30 Sr2 2.706408 1_545
O30 Sr4 2.743100 1_555
O31 V7 1.791746 1_556
O31 V9 2.004462 1_555
O31 Sr1 2.561316 1_545
O31 Sr6 2.859161 1_555
O32 V8 1.723416 1_555
O32 Sr0 2.618774 1_545
O32 Sr7 2.642735 1_555
O32 Sr5 2.775375 1_456
O33 V6 1.711940 1_555
O33 V9 2.179510 1_555
O33 Sr6 2.713644 1_555
O34 V10 1.758612 1_555
O34 V3 2.025879 1_545
O34 Sr7 2.839636 1_555
O35 V11 1.698053 1_555
O35 Sr0 2.706408 1_645
O35 Sr7 2.743100 1_655
