# generated using pymatgen
data_Ca(Mo3S4)2
_symmetry_space_group_name_H-M   'P 1'
_cell_length_a   6.54570013
_cell_length_b   6.54570013
_cell_length_c   6.54570044
_cell_angle_alpha   89.73269999
_cell_angle_beta   89.73270007
_cell_angle_gamma   89.73270455
_symmetry_Int_Tables_number   1
_chemical_formula_structural   Ca(Mo3S4)2
_chemical_formula_sum   'Ca1 Mo6 S8'
_cell_volume   280.44919814
_cell_formula_units_Z   1
loop_
 _symmetry_equiv_pos_site_id
 _symmetry_equiv_pos_as_xyz
  1  'x, y, z'
loop_
 _atom_site_type_symbol
 _atom_site_label
 _atom_site_symmetry_multiplicity
 _atom_site_fract_x
 _atom_site_fract_y
 _atom_site_fract_z
 _atom_site_occupancy
  Ca  Ca0  1  0.00000000  -0.00000000  0.00000000  1
  Mo  Mo0  1  0.58193042  0.77075183  0.44011084  1
  Mo  Mo1  1  0.44011084  0.58193042  0.77075183  1
  Mo  Mo2  1  0.22924817  0.55988916  0.41806958  1
  Mo  Mo3  1  0.41806958  0.22924817  0.55988916  1
  Mo  Mo4  1  0.55988916  0.41806958  0.22924817  1
  Mo  Mo5  1  0.77075183  0.44011084  0.58193042  1
  S  S0  1  0.75975669  0.75975669  0.75975669  1
  S  S1  1  0.24024331  0.24024331  0.24024331  1
  S  S2  1  0.62172318  0.25750916  0.87344693  1
  S  S3  1  0.87344693  0.62172318  0.25750916  1
  S  S4  1  0.25750916  0.87344693  0.62172318  1
  S  S5  1  0.37827682  0.74249084  0.12655307  1
  S  S6  1  0.12655307  0.37827682  0.74249084  1
  S  S7  1  0.74249084  0.12655307  0.37827682  1
loop_
_geom_bond_atom_site_label_1
_geom_bond_atom_site_label_2
_geom_bond_distance
_geom_bond_site_symmetry_2
Ca0 S0 2.736432 1_444
Ca0 S1 2.736432 1_555
Ca0 S3 3.102508 1_445
Ca0 S6 3.102508 1_554
Ca0 S2 3.102508 1_454
Ca0 S5 3.102508 1_545
Ca0 S4 3.102508 1_544
Ca0 S7 3.102508 1_455
Mo0 S0 2.399657 1_555
Mo0 S3 2.448185 1_555
Mo0 S5 2.460732 1_555
Mo0 S4 2.518963 1_555
Mo0 S7 2.588928 1_565
Mo1 S0 2.399656 1_555
Mo1 S4 2.448185 1_555
Mo1 S6 2.460732 1_555
Mo1 S2 2.518963 1_555
Mo1 S5 2.588928 1_556
Mo2 S1 2.399656 1_555
Mo2 S5 2.448185 1_555
Mo2 S4 2.460732 1_555
Mo2 S6 2.518963 1_555
Mo2 S3 2.588928 1_455
Mo3 S1 2.399657 1_555
Mo3 S6 2.448185 1_555
Mo3 S2 2.460732 1_555
Mo3 S7 2.518963 1_555
Mo3 S4 2.588928 1_545
Mo4 S1 2.399656 1_555
Mo4 S7 2.448185 1_555
Mo4 S3 2.460732 1_555
Mo4 S5 2.518963 1_555
Mo4 S2 2.588928 1_554
Mo5 S0 2.399656 1_555
Mo5 S2 2.448185 1_555
Mo5 S7 2.460732 1_555
Mo5 S3 2.518963 1_555
Mo5 S6 2.588928 1_655
