# generated using pymatgen
data_TiBeIr2
_symmetry_space_group_name_H-M   'P 1'
_cell_length_a   4.19079562
_cell_length_b   4.19079562
_cell_length_c   4.19079562
_cell_angle_alpha   60.00000000
_cell_angle_beta   60.00000000
_cell_angle_gamma   60.00000000
_symmetry_Int_Tables_number   1
_chemical_formula_structural   TiBeIr2
_chemical_formula_sum   'Ti1 Be1 Ir2'
_cell_volume   52.04445266
_cell_formula_units_Z   1
loop_
 _symmetry_equiv_pos_site_id
 _symmetry_equiv_pos_as_xyz
  1  'x, y, z'
loop_
 _atom_site_type_symbol
 _atom_site_label
 _atom_site_symmetry_multiplicity
 _atom_site_fract_x
 _atom_site_fract_y
 _atom_site_fract_z
 _atom_site_occupancy
  Ti  Ti0  1  0.75000000  0.75000000  0.75000000  1
  Be  Be0  1  0.25000100  0.25000100  0.25000100  1
  Ir  Ir0  1  0.00000000  -0.00000000  0.00000000  1
  Ir  Ir1  1  0.49999900  0.49999900  0.49999900  1
loop_
_geom_bond_atom_site_label_1
_geom_bond_atom_site_label_2
_geom_bond_distance
_geom_bond_site_symmetry_2
Be0 Ir1 2.566307 1_555
Be0 Ir0 2.566324 1_565
Be0 Ir0 2.566324 1_655
Be0 Ir0 2.566324 1_556
Be0 Ir1 2.566335 1_554
Be0 Ir1 2.566335 1_545
Be0 Ir1 2.566335 1_455
Be0 Ir0 2.566338 1_555
Ir0 Ti0 2.566328 1_544
Ir0 Ti0 2.566328 1_454
Ir0 Ti0 2.566328 1_444
Ir0 Ti0 2.566328 1_445
Ir1 Ti0 2.566324 1_455
Ir1 Ti0 2.566324 1_545
Ir1 Ti0 2.566324 1_554
Ir1 Ti0 2.566338 1_555
