# generated using pymatgen
data_Ba8Bi4H2O
_symmetry_space_group_name_H-M   'P 1'
_cell_length_a   19.71341552
_cell_length_b   19.71341552
_cell_length_c   19.71341552
_cell_angle_alpha   164.51274432
_cell_angle_beta   164.51274432
_cell_angle_gamma   21.97001967
_symmetry_Int_Tables_number   1
_chemical_formula_structural   Ba8Bi4H2O
_chemical_formula_sum   'Ba8 Bi4 H2 O1'
_cell_volume   546.15015254
_cell_formula_units_Z   1
loop_
 _symmetry_equiv_pos_site_id
 _symmetry_equiv_pos_as_xyz
  1  'x, y, z'
loop_
 _atom_site_type_symbol
 _atom_site_label
 _atom_site_symmetry_multiplicity
 _atom_site_fract_x
 _atom_site_fract_y
 _atom_site_fract_z
 _atom_site_occupancy
  Ba  Ba0  1  0.00000000  0.50000000  0.50000000  1
  Ba  Ba1  1  0.50000000  0.00000000  0.50000000  1
  Ba  Ba2  1  0.08424700  0.08424700  0.00000000  1
  Ba  Ba3  1  0.66009500  0.66009500  0.00000000  1
  Ba  Ba4  1  0.25000000  0.75000000  0.50000000  1
  Ba  Ba5  1  0.75000000  0.25000000  0.50000000  1
  Ba  Ba6  1  0.33990500  0.33990500  0.00000000  1
  Ba  Ba7  1  0.91575300  0.91575300  0.00000000  1
  Bi  Bi0  1  0.56749300  0.56749300  0.00000000  1
  Bi  Bi1  1  0.17961600  0.17961600  0.00000000  1
  Bi  Bi2  1  0.82038400  0.82038400  0.00000000  1
  Bi  Bi3  1  0.43250700  0.43250700  0.00000000  1
  H  H0  1  0.72911900  0.72911900  0.00000000  1
  H  H1  1  0.27088100  0.27088100  0.00000000  1
  O  O0  1  0.00000000  0.00000000  0.00000000  1
loop_
_geom_bond_atom_site_label_1
_geom_bond_atom_site_label_2
_geom_bond_distance
_geom_bond_site_symmetry_2
Ba0 O0 2.656200 1_555
Ba0 O0 2.656200 1_566
Ba0 Bi3 3.725505 1_556
Ba0 Bi0 3.725505 1_455
Ba0 Bi3 3.725505 1_455
Ba0 Bi0 3.725505 1_556
Ba1 O0 2.656200 1_555
Ba1 O0 2.656200 1_656
Ba1 Bi3 3.725505 1_556
Ba1 Bi3 3.725505 1_545
Ba1 Bi0 3.725505 1_545
Ba1 Bi0 3.725505 1_556
Ba2 O0 3.260731 1_555
Ba2 Bi1 3.691201 1_555
Ba2 Bi0 3.811993 1_444
Ba2 Bi0 3.811993 1_455
Ba2 Bi0 3.811993 1_545
Ba2 Bi0 3.811993 1_556
Ba3 H0 2.671534 1_555
Ba3 Bi0 3.584106 1_555
Ba3 Bi1 3.831664 1_565
Ba3 Bi1 3.831664 1_655
Ba3 Bi1 3.831664 1_666
Ba3 Bi1 3.831664 1_554
Ba4 H1 2.776430 1_566
Ba4 H1 2.776430 1_555
Ba4 H0 2.776430 1_556
Ba4 H0 2.776430 1_455
Ba4 Bi1 3.804801 1_566
Ba4 Bi1 3.804801 1_555
Ba4 Bi2 3.804801 1_455
Ba4 Bi2 3.804801 1_556
Ba5 H1 2.776430 1_555
Ba5 H1 2.776430 1_656
Ba5 H0 2.776430 1_556
Ba5 H0 2.776430 1_545
Ba5 Bi2 3.804801 1_545
Ba5 Bi2 3.804801 1_556
Ba5 Bi1 3.804801 1_656
Ba5 Bi1 3.804801 1_555
Ba6 H1 2.671534 1_555
Ba6 Bi3 3.584106 1_555
Ba6 Bi2 3.831664 1_455
Ba6 Bi2 3.831664 1_556
Ba6 Bi2 3.831664 1_444
Ba6 Bi2 3.831664 1_545
Ba7 O0 3.260731 1_665
Ba7 Bi2 3.691201 1_555
Ba7 Bi3 3.811993 1_565
Ba7 Bi3 3.811993 1_655
Ba7 Bi3 3.811993 1_666
Ba7 Bi3 3.811993 1_554
