# generated using pymatgen
data_Ti2MnOs
_symmetry_space_group_name_H-M   'P 1'
_cell_length_a   4.31201911
_cell_length_b   4.31201691
_cell_length_c   4.31201691
_cell_angle_alpha   59.99995498
_cell_angle_beta   59.99996062
_cell_angle_gamma   60.00006184
_symmetry_Int_Tables_number   1
_chemical_formula_structural   Ti2MnOs
_chemical_formula_sum   'Ti2 Mn1 Os1'
_cell_volume   56.69261832
_cell_formula_units_Z   1
loop_
 _symmetry_equiv_pos_site_id
 _symmetry_equiv_pos_as_xyz
  1  'x, y, z'
loop_
 _atom_site_type_symbol
 _atom_site_label
 _atom_site_symmetry_multiplicity
 _atom_site_fract_x
 _atom_site_fract_y
 _atom_site_fract_z
 _atom_site_occupancy
  Ti  Ti0  1  0.00000000  0.00000000  0.00000000  1
  Ti  Ti1  1  0.50000000  0.49999900  0.50000000  1
  Mn  Mn0  1  0.24999900  0.25000100  0.25000000  1
  Os  Os0  1  0.75000100  0.75000000  0.74999900  1
loop_
_geom_bond_atom_site_label_1
_geom_bond_atom_site_label_2
_geom_bond_distance
_geom_bond_site_symmetry_2
Mn0 Ti0 2.640557 1_565
Mn0 Ti1 2.640557 1_555
Mn0 Ti0 2.640558 1_556
Mn0 Ti1 2.640558 1_554
Mn0 Ti1 2.640559 1_455
Mn0 Ti0 2.640561 1_555
Mn0 Ti0 2.640566 1_655
Mn0 Ti1 2.640568 1_545
Mn0 Os0 3.049051 1_445
Mn0 Os0 3.049052 1_455
Mn0 Os0 3.049055 1_454
Mn0 Os0 3.049057 1_554
Mn0 Os0 3.049062 1_545
Mn0 Os0 3.049064 1_544
Os0 Ti0 2.640555 1_665
Os0 Ti1 2.640557 1_565
Os0 Ti1 2.640559 1_655
Os0 Ti0 2.640561 1_656
Os0 Ti0 2.640561 1_666
Os0 Ti1 2.640562 1_556
Os0 Ti1 2.640564 1_555
Os0 Ti0 2.640566 1_566
