# generated using pymatgen
data_LiV2P4(HO8)2
_symmetry_space_group_name_H-M   'P 1'
_cell_length_a   7.76431800
_cell_length_b   9.28607504
_cell_length_c   9.29850575
_cell_angle_alpha   116.56680217
_cell_angle_beta   101.90811839
_cell_angle_gamma   101.92122204
_symmetry_Int_Tables_number   1
_chemical_formula_structural   LiV2P4(HO8)2
_chemical_formula_sum   'Li2 V4 P8 H4 O32'
_cell_volume   551.46181783
_cell_formula_units_Z   2
loop_
 _symmetry_equiv_pos_site_id
 _symmetry_equiv_pos_as_xyz
  1  'x, y, z'
loop_
 _atom_site_type_symbol
 _atom_site_label
 _atom_site_symmetry_multiplicity
 _atom_site_fract_x
 _atom_site_fract_y
 _atom_site_fract_z
 _atom_site_occupancy
  Li  Li0  1  0.35728500  0.72226500  0.90787500  1
  Li  Li1  1  0.85275300  0.58013000  0.29031000  1
  V  V0  1  0.49973500  0.26528600  0.74550800  1
  V  V1  1  0.99008100  0.49978000  0.00073400  1
  V  V2  1  0.00333500  0.98690200  0.50497500  1
  V  V3  1  0.48792100  0.75307100  0.24876400  1
  P  P0  1  0.26885900  0.96352200  0.39245400  1
  P  P1  1  0.26524200  0.45590800  0.89396700  1
  P  P2  1  0.23167000  0.33346200  0.51021700  1
  P  P3  1  0.22905000  0.85888000  0.99782300  1
  P  P4  1  0.76685400  0.64981900  0.49781700  1
  P  P5  1  0.76333200  0.16163700  0.99206700  1
  P  P6  1  0.73282800  0.04457900  0.60241300  1
  P  P7  1  0.73292600  0.55684900  0.10273900  1
  H  H0  1  0.51042400  0.77290700  0.73520700  1
  H  H1  1  0.49254700  0.23530700  0.25930400  1
  H  H2  1  0.98902100  0.50157700  0.50788800  1
  H  H3  1  0.99973000  0.00047600  0.99965000  1
  O  O0  1  0.05205200  0.01152100  0.93750900  1
  O  O1  1  0.34007600  0.07863100  0.87241600  1
  O  O2  1  0.62995200  0.36388800  0.81637600  1
  O  O3  1  0.68126300  0.88879600  0.94629700  1
  O  O4  1  0.15817400  0.51325000  0.93092300  1
  O  O5  1  0.15933800  0.01803700  0.42859800  1
  O  O6  1  0.31740500  0.63556900  0.54158100  1
  O  O7  1  0.36207900  0.14483700  0.68440900  1
  O  O8  1  0.43956600  0.58384000  0.86813000  1
  O  O9  1  0.44377300  0.09724600  0.36109900  1
  O  O10  1  0.65615900  0.43571900  0.62308300  1
  O  O11  1  0.81830800  0.85980200  0.46694300  1
  O  O12  1  0.82429100  0.35418200  0.97835200  1
  O  O13  1  0.05658700  0.51652000  0.42988100  1
  O  O14  1  0.13107700  0.57726400  0.74504200  1
  O  O15  1  0.13195500  0.11872900  0.22838500  1
  O  O16  1  0.86385200  0.89801000  0.76371600  1
  O  O17  1  0.86326600  0.41277100  0.26202900  1
  O  O18  1  0.94298800  0.46876400  0.57433300  1
  O  O19  1  0.18421200  0.13589100  0.53109900  1
  O  O20  1  0.18310800  0.66769400  0.01098800  1
  O  O21  1  0.35241800  0.54864200  0.38640800  1
  O  O22  1  0.55315200  0.92259600  0.62898300  1
  O  O23  1  0.55852900  0.42957600  0.12557800  1
  O  O24  1  0.63373900  0.82899700  0.32542400  1
  O  O25  1  0.68404000  0.38492200  0.43882900  1
  O  O26  1  0.84434200  0.98050900  0.57227300  1
  O  O27  1  0.85356500  0.49780300  0.07036300  1
  O  O28  1  0.32496000  0.11032100  0.05935100  1
  O  O29  1  0.36674900  0.66667500  0.17397000  1
  O  O30  1  0.65989400  0.93200400  0.12495100  1
  O  O31  1  0.93939400  0.98342500  0.06792700  1
loop_
_geom_bond_atom_site_label_1
_geom_bond_atom_site_label_2
_geom_bond_distance
_geom_bond_site_symmetry_2
Li0 O8 1.486207 1_555
Li0 P3 1.793506 1_555
Li0 O14 1.814452 1_555
Li0 O20 1.921344 1_556
Li0 O30 2.454347 1_556
Li1 O17 1.478775 1_555
Li1 P7 1.692421 1_555
Li1 O27 1.837393 1_555
Li1 P4 2.044281 1_555
Li1 O23 2.200113 1_555
Li1 O11 2.483267 1_555
H1 O28 1.715957 1_555
H1 O25 1.724903 1_555
H2 O18 0.903796 1_555
H2 O13 1.018620 1_655
H3 O0 0.801310 1_655
H3 O31 0.910830 1_546
O0 O16 1.650245 1_445
O1 O28 1.662133 1_556
O2 V0 1.047720 1_555
O3 O30 1.578986 1_556
O3 P5 2.294122 1_565
O4 P1 1.108961 1_555
O4 V1 1.579620 1_456
O5 P0 1.111724 1_545
O5 V2 1.564959 1_545
O7 V0 1.184601 1_555
O8 P1 1.739598 1_555
O9 P0 1.806081 1_545
O10 O25 1.636177 1_555
O10 V0 2.581423 1_555
O11 O26 1.048440 1_555
O11 V2 1.516052 1_655
O11 O24 1.607110 1_555
O11 P4 2.066499 1_555
O12 O27 1.155946 1_556
O12 V1 1.564303 1_556
O12 P5 1.821107 1_555
O15 O31 1.632978 1_445
O15 P2 2.300846 1_555
O16 P4 2.325813 1_555
O17 P5 2.356725 1_554
O19 O5 1.023290 1_555
O19 V2 1.643571 1_545
O19 O7 1.726420 1_555
O19 P2 1.899562 1_555
O20 O4 1.232623 1_554
O20 P3 1.801373 1_554
O20 O29 1.859162 1_555
O20 V1 1.878604 1_455
O21 O6 1.420603 1_555
O22 P6 1.740706 1_565
O23 P7 1.719725 1_555
O24 V3 1.083817 1_555
O25 P4 2.181587 1_555
O26 P6 1.160170 1_565
O26 V2 1.496926 1_655
O27 P7 1.203968 1_555
O27 V1 1.352342 1_555
O28 P3 2.060238 1_544
O29 V3 0.965156 1_555
O30 V3 2.701500 1_555
