# generated using pymatgen
data_Ag7PSe6
_symmetry_space_group_name_H-M   'P 1'
_cell_length_a   10.82954327
_cell_length_b   10.82954327
_cell_length_c   10.82954327
_cell_angle_alpha   90.00000000
_cell_angle_beta   90.00000000
_cell_angle_gamma   90.00000000
_symmetry_Int_Tables_number   1
_chemical_formula_structural   Ag7PSe6
_chemical_formula_sum   'Ag28 P4 Se24'
_cell_volume   1270.07808570
_cell_formula_units_Z   4
loop_
 _symmetry_equiv_pos_site_id
 _symmetry_equiv_pos_as_xyz
  1  'x, y, z'
loop_
 _atom_site_type_symbol
 _atom_site_label
 _atom_site_symmetry_multiplicity
 _atom_site_fract_x
 _atom_site_fract_y
 _atom_site_fract_z
 _atom_site_occupancy
  Ag  Ag0  1  0.07051320  0.89170136  0.72665917  1
  Ag  Ag1  1  0.72665917  0.07051320  0.89170136  1
  Ag  Ag2  1  0.89170136  0.72665917  0.07051320  1
  Ag  Ag3  1  0.60829864  0.27334083  0.57051320  1
  Ag  Ag4  1  0.22665917  0.42948680  0.10829864  1
  Ag  Ag5  1  0.10829864  0.22665917  0.42948680  1
  Ag  Ag6  1  0.77334083  0.92948680  0.39170136  1
  Ag  Ag7  1  0.27334083  0.57051320  0.60829864  1
  Ag  Ag8  1  0.39170136  0.77334083  0.92948680  1
  Ag  Ag9  1  0.57051320  0.60829864  0.27334083  1
  Ag  Ag10  1  0.92948680  0.39170136  0.77334083  1
  Ag  Ag11  1  0.42948680  0.10829864  0.22665917  1
  Ag  Ag12  1  0.01036564  0.01692871  0.28005124  1
  Ag  Ag13  1  0.28005124  0.01036564  0.01692871  1
  Ag  Ag14  1  0.01692871  0.28005124  0.01036564  1
  Ag  Ag15  1  0.48307129  0.71994876  0.51036564  1
  Ag  Ag16  1  0.78005124  0.48963436  0.98307129  1
  Ag  Ag17  1  0.98307129  0.78005124  0.48963436  1
  Ag  Ag18  1  0.21994876  0.98963436  0.51692871  1
  Ag  Ag19  1  0.71994876  0.51036564  0.48307129  1
  Ag  Ag20  1  0.51692871  0.21994876  0.98963436  1
  Ag  Ag21  1  0.51036564  0.48307129  0.71994876  1
  Ag  Ag22  1  0.98963436  0.51692871  0.21994876  1
  Ag  Ag23  1  0.48963436  0.98307129  0.78005124  1
  Ag  Ag24  1  0.34331382  0.34331382  0.34331382  1
  Ag  Ag25  1  0.15668618  0.65668618  0.84331382  1
  Ag  Ag26  1  0.84331382  0.15668618  0.65668618  1
  Ag  Ag27  1  0.65668618  0.84331382  0.15668618  1
  P  P0  1  0.74624641  0.74624641  0.74624641  1
  P  P1  1  0.75375359  0.25375359  0.24624641  1
  P  P2  1  0.24624641  0.75375359  0.25375359  1
  P  P3  1  0.25375359  0.24624641  0.75375359  1
  Se  Se0  1  0.86620244  0.86620244  0.86620244  1
  Se  Se1  1  0.63379756  0.13379756  0.36620244  1
  Se  Se2  1  0.36620244  0.63379756  0.13379756  1
  Se  Se3  1  0.13379756  0.36620244  0.63379756  1
  Se  Se4  1  0.35917357  0.36875866  0.88002831  1
  Se  Se5  1  0.88002831  0.35917357  0.36875866  1
  Se  Se6  1  0.36875866  0.88002831  0.35917357  1
  Se  Se7  1  0.13124134  0.11997169  0.85917357  1
  Se  Se8  1  0.38002831  0.14082643  0.63124134  1
  Se  Se9  1  0.63124134  0.38002831  0.14082643  1
  Se  Se10  1  0.61997169  0.64082643  0.86875866  1
  Se  Se11  1  0.11997169  0.85917357  0.13124134  1
  Se  Se12  1  0.86875866  0.61997169  0.64082643  1
  Se  Se13  1  0.85917357  0.13124134  0.11997169  1
  Se  Se14  1  0.64082643  0.86875866  0.61997169  1
  Se  Se15  1  0.14082643  0.63124134  0.38002831  1
  Se  Se16  1  0.20979835  0.20979835  0.20979835  1
  Se  Se17  1  0.29020165  0.79020165  0.70979835  1
  Se  Se18  1  0.70979835  0.29020165  0.79020165  1
  Se  Se19  1  0.79020165  0.70979835  0.29020165  1
  Se  Se20  1  0.47810325  0.47810325  0.47810325  1
  Se  Se21  1  0.02189675  0.52189675  0.97810325  1
  Se  Se22  1  0.97810325  0.02189675  0.52189675  1
  Se  Se23  1  0.52189675  0.97810325  0.02189675  1
loop_
_geom_bond_atom_site_label_1
_geom_bond_atom_site_label_2
_geom_bond_distance
_geom_bond_site_symmetry_2
Ag0 Se17 2.627130 1_555
Ag0 Se0 2.693606 1_455
Ag0 Se22 2.811890 1_465
Ag0 Se7 2.933094 1_565
Ag1 Se18 2.627130 1_555
Ag1 Se0 2.693606 1_545
Ag1 Se23 2.811890 1_546
Ag1 Se13 2.933094 1_556
Ag2 Se19 2.627130 1_555
Ag2 Se0 2.693606 1_554
Ag2 Se21 2.811890 1_654
Ag2 Se11 2.933094 1_655
Ag3 Se18 2.627130 1_555
Ag3 Se1 2.693606 1_555
Ag3 Se20 2.811890 1_555
Ag3 Se8 2.933094 1_555
Ag4 Se16 2.627130 1_555
Ag4 Se2 2.693606 1_555
Ag4 Se21 2.811890 1_554
Ag4 Se4 2.933094 1_554
Ag5 Se16 2.627130 1_555
Ag5 Se3 2.693606 1_555
Ag5 Se22 2.811890 1_455
Ag5 Se5 2.933094 1_455
Ag6 Se19 2.627130 1_555
Ag6 Se1 2.693606 1_565
Ag6 Se22 2.811890 1_565
Ag6 Se14 2.933094 1_555
Ag7 Se17 2.627130 1_555
Ag7 Se3 2.693606 1_555
Ag7 Se20 2.811890 1_555
Ag7 Se15 2.933094 1_555
Ag8 Se17 2.627130 1_555
Ag8 Se2 2.693606 1_556
Ag8 Se23 2.811890 1_556
Ag8 Se10 2.933094 1_555
Ag9 Se19 2.627130 1_555
Ag9 Se2 2.693606 1_555
Ag9 Se20 2.811890 1_555
Ag9 Se9 2.933094 1_555
Ag10 Se18 2.627130 1_555
Ag10 Se3 2.693606 1_655
Ag10 Se21 2.811890 1_655
Ag10 Se12 2.933094 1_555
Ag11 Se16 2.627130 1_555
Ag11 Se1 2.693606 1_555
Ag11 Se23 2.811890 1_545
Ag11 Se6 2.933094 1_545
Ag12 Se11 2.631480 1_545
Ag12 Se22 2.642826 1_455
Ag12 Se13 2.686772 1_455
Ag12 Se16 3.099361 1_555
Ag13 Se7 2.631480 1_554
Ag13 Se23 2.642826 1_545
Ag13 Se11 2.686772 1_545
Ag13 Se16 3.099361 1_555
Ag14 Se13 2.631480 1_455
Ag14 Se21 2.642826 1_554
Ag14 Se7 2.686772 1_554
Ag14 Se16 3.099361 1_555
Ag15 Se14 2.631480 1_555
Ag15 Se20 2.642826 1_555
Ag15 Se6 2.686772 1_555
Ag15 Se17 3.099361 1_555
Ag16 Se9 2.631480 1_556
Ag16 Se21 2.642826 1_655
Ag16 Se10 2.686772 1_555
Ag16 Se18 3.099361 1_555
Ag17 Se15 2.631480 1_655
Ag17 Se22 2.642826 1_565
Ag17 Se12 2.686772 1_555
Ag17 Se19 3.099361 1_555
Ag18 Se6 2.631480 1_555
Ag18 Se22 2.642826 1_465
Ag18 Se8 2.686772 1_565
Ag18 Se17 3.099361 1_555
Ag19 Se12 2.631480 1_555
Ag19 Se20 2.642826 1_555
Ag19 Se5 2.686772 1_555
Ag19 Se19 3.099361 1_555
Ag20 Se4 2.631480 1_555
Ag20 Se23 2.642826 1_546
Ag20 Se9 2.686772 1_556
Ag20 Se18 3.099361 1_555
Ag21 Se10 2.631480 1_555
Ag21 Se20 2.642826 1_555
Ag21 Se4 2.686772 1_555
Ag21 Se18 3.099361 1_555
Ag22 Se5 2.631480 1_555
Ag22 Se21 2.642826 1_654
Ag22 Se15 2.686772 1_655
Ag22 Se19 3.099361 1_555
Ag23 Se8 2.631480 1_565
Ag23 Se23 2.642826 1_556
Ag23 Se14 2.686772 1_555
Ag23 Se17 3.099361 1_555
Ag24 Se16 2.504392 1_555
Ag24 Se20 2.528288 1_555
Ag25 Se17 2.504392 1_555
Ag25 Se21 2.528288 1_555
Ag26 Se18 2.504392 1_555
Ag26 Se22 2.528288 1_555
Ag27 Se19 2.504392 1_555
Ag27 Se23 2.528288 1_555
P0 Se10 2.221190 1_555
P0 Se12 2.221190 1_555
P0 Se14 2.221190 1_555
P0 Se0 2.250054 1_555
P1 Se9 2.221190 1_555
P1 Se5 2.221190 1_555
P1 Se13 2.221190 1_555
P1 Se1 2.250054 1_555
P2 Se15 2.221190 1_555
P2 Se6 2.221190 1_555
P2 Se11 2.221190 1_555
P2 Se2 2.250054 1_555
P3 Se8 2.221190 1_555
P3 Se7 2.221190 1_555
P3 Se4 2.221190 1_555
P3 Se3 2.250054 1_555
