# generated using pymatgen
data_LiAlRh2
_symmetry_space_group_name_H-M   'P 1'
_cell_length_a   4.15385666
_cell_length_b   4.15385737
_cell_length_c   4.15385809
_cell_angle_alpha   60.00006256
_cell_angle_beta   60.00005687
_cell_angle_gamma   60.00001706
_symmetry_Int_Tables_number   1
_chemical_formula_structural   LiAlRh2
_chemical_formula_sum   'Li1 Al1 Rh2'
_cell_volume   50.68041833
_cell_formula_units_Z   1
loop_
 _symmetry_equiv_pos_site_id
 _symmetry_equiv_pos_as_xyz
  1  'x, y, z'
loop_
 _atom_site_type_symbol
 _atom_site_label
 _atom_site_symmetry_multiplicity
 _atom_site_fract_x
 _atom_site_fract_y
 _atom_site_fract_z
 _atom_site_occupancy
  Li  Li0  1  0.75000100  0.75000100  0.75000100  1
  Al  Al0  1  0.25000000  0.25000000  0.25000000  1
  Rh  Rh0  1  -0.00000000  0.00000000  0.00000000  1
  Rh  Rh1  1  0.50000100  0.50000100  0.50000100  1
loop_
_geom_bond_atom_site_label_1
_geom_bond_atom_site_label_2
_geom_bond_distance
_geom_bond_site_symmetry_2
Li0 Rh0 2.543697 1_666
Li0 Rh1 2.543707 1_555
Li0 Rh1 2.543708 1_655
Li0 Rh1 2.543709 1_565
Li0 Rh1 2.543710 1_556
Li0 Rh0 2.543712 1_566
Li0 Rh0 2.543712 1_656
Li0 Rh0 2.543714 1_665
Al0 Rh1 2.543705 1_455
Al0 Rh1 2.543706 1_545
Al0 Rh0 2.543707 1_555
Al0 Rh1 2.543707 1_554
Al0 Rh0 2.543708 1_655
Al0 Rh0 2.543709 1_565
Al0 Rh0 2.543710 1_556
Al0 Rh1 2.543717 1_555
