# generated using pymatgen
data_Mn4O7F
_symmetry_space_group_name_H-M   'P 1'
_cell_length_a   6.69800796
_cell_length_b   5.50849174
_cell_length_c   6.69800796
_cell_angle_alpha   89.89942523
_cell_angle_beta   96.08322152
_cell_angle_gamma   90.10057477
_symmetry_Int_Tables_number   1
_chemical_formula_structural   Mn4O7F
_chemical_formula_sum   'Mn8 O14 F2'
_cell_volume   245.73691206
_cell_formula_units_Z   2
loop_
 _symmetry_equiv_pos_site_id
 _symmetry_equiv_pos_as_xyz
  1  'x, y, z'
loop_
 _atom_site_type_symbol
 _atom_site_label
 _atom_site_symmetry_multiplicity
 _atom_site_fract_x
 _atom_site_fract_y
 _atom_site_fract_z
 _atom_site_occupancy
  Mn  Mn0  1  0.37286500  0.35223900  0.11688100  1
  Mn  Mn1  1  0.11654000  0.66985700  0.37607300  1
  Mn  Mn2  1  0.13311900  0.85223900  0.87713500  1
  Mn  Mn3  1  0.87392700  0.16985700  0.13346000  1
  Mn  Mn4  1  0.38255600  0.13051900  0.63233200  1
  Mn  Mn5  1  0.62382200  0.85552800  0.37127800  1
  Mn  Mn6  1  0.61766800  0.63051900  0.86744400  1
  Mn  Mn7  1  0.87872200  0.35552800  0.62617800  1
  O  O0  1  0.15316400  0.11450200  0.07735000  1
  O  O1  1  0.17265000  0.61450200  0.09683600  1
  O  O2  1  0.57520000  0.60759100  0.15077900  1
  O  O3  1  0.08012800  0.61488700  0.65727700  1
  O  O4  1  0.34647600  0.88914800  0.42551100  1
  O  O5  1  0.09922100  0.10759100  0.67480000  1
  O  O6  1  0.59272300  0.11488700  0.16987200  1
  O  O7  1  0.41006000  0.88531600  0.83240400  1
  O  O8  1  0.65888500  0.10650500  0.57913800  1
  O  O9  1  0.89827500  0.89556600  0.32025300  1
  O  O10  1  0.41759600  0.38531600  0.83994000  1
  O  O11  1  0.67086200  0.60650500  0.59111500  1
  O  O12  1  0.92974700  0.39556600  0.35172500  1
  O  O13  1  0.82448900  0.38914800  0.90352400  1
  F  F0  1  0.33343300  0.37834200  0.41212900  1
  F  F1  1  0.83787100  0.87834200  0.91656700  1
loop_
_geom_bond_atom_site_label_1
_geom_bond_atom_site_label_2
_geom_bond_distance
_geom_bond_site_symmetry_2
Mn0 O10 1.918392 1_554
Mn0 O2 1.948327 1_555
Mn0 O0 1.965310 1_555
Mn0 O1 1.967603 1_555
Mn0 O6 1.974422 1_555
Mn1 O9 1.926602 1_455
Mn1 O3 1.947785 1_555
Mn1 O12 1.955976 1_455
Mn1 O4 1.956414 1_555
Mn1 O1 1.970723 1_555
Mn2 O7 1.918392 1_555
Mn2 O5 1.948327 1_565
Mn2 O1 1.965310 1_556
Mn2 O0 1.967603 1_566
Mn2 O3 1.974422 1_555
Mn3 O12 1.926602 1_555
Mn3 O6 1.947785 1_555
Mn3 O9 1.955976 1_545
Mn3 O13 1.956414 1_554
Mn3 O0 1.970723 1_655
Mn4 O7 1.896403 1_545
Mn4 O4 1.918234 1_545
Mn4 O8 1.926369 1_555
Mn4 O5 1.952403 1_555
Mn4 O10 1.973629 1_555
Mn5 O9 1.917347 1_555
Mn5 O4 1.939494 1_555
Mn5 O6 1.959357 1_565
Mn5 O8 1.959884 1_565
Mn5 O11 2.011271 1_555
Mn5 O2 2.013996 1_555
Mn6 O10 1.896403 1_555
Mn6 O13 1.918234 1_555
Mn6 O11 1.926369 1_555
Mn6 O2 1.952403 1_556
Mn6 O7 1.973629 1_555
Mn7 O12 1.917347 1_555
Mn7 O13 1.939494 1_555
Mn7 O3 1.959357 1_655
Mn7 O11 1.959884 1_555
Mn7 O8 2.011271 1_555
Mn7 O5 2.013996 1_655
F0 Mn4 2.009698 1_555
F0 Mn0 2.028068 1_555
F0 Mn1 2.163307 1_555
F1 Mn6 2.009698 1_555
F1 Mn2 2.028068 1_655
F1 Mn3 2.163307 1_566
