# generated using pymatgen
data_Ho2IrRh
_symmetry_space_group_name_H-M   'P 1'
_cell_length_a   4.79172466
_cell_length_b   4.79172466
_cell_length_c   4.79172466
_cell_angle_alpha   60.00000000
_cell_angle_beta   60.00000000
_cell_angle_gamma   60.00000000
_symmetry_Int_Tables_number   1
_chemical_formula_structural   Ho2IrRh
_chemical_formula_sum   'Ho2 Ir1 Rh1'
_cell_volume   77.79659093
_cell_formula_units_Z   1
loop_
 _symmetry_equiv_pos_site_id
 _symmetry_equiv_pos_as_xyz
  1  'x, y, z'
loop_
 _atom_site_type_symbol
 _atom_site_label
 _atom_site_symmetry_multiplicity
 _atom_site_fract_x
 _atom_site_fract_y
 _atom_site_fract_z
 _atom_site_occupancy
  Ho  Ho0  1  -0.00000000  -0.00000000  -0.00000000  1
  Ho  Ho1  1  0.50000000  0.50000000  0.50000000  1
  Ir  Ir0  1  0.25000000  0.25000000  0.25000000  1
  Rh  Rh0  1  0.75000100  0.75000100  0.75000100  1
loop_
_geom_bond_atom_site_label_1
_geom_bond_atom_site_label_2
_geom_bond_distance
_geom_bond_site_symmetry_2
Ho0 Rh0 2.934308 1_444
Ho0 Ir0 2.934320 1_545
Ho0 Ir0 2.934320 1_555
Ho0 Ir0 2.934320 1_554
Ho0 Ir0 2.934320 1_455
Ho0 Rh0 2.934324 1_445
Ho0 Rh0 2.934324 1_544
Ho0 Rh0 2.934324 1_454
Ho1 Rh0 2.934316 1_545
Ho1 Rh0 2.934316 1_455
Ho1 Rh0 2.934316 1_554
Ho1 Ir0 2.934320 1_556
Ho1 Ir0 2.934320 1_565
Ho1 Ir0 2.934320 1_655
Ho1 Ir0 2.934320 1_555
Ho1 Rh0 2.934332 1_555
