# generated using pymatgen
data_CaSnS3
_symmetry_space_group_name_H-M   'P 1'
_cell_length_a   13.21277600
_cell_length_b   14.58180300
_cell_length_c   14.58180300
_cell_angle_alpha   90.00000000
_cell_angle_beta   90.00000000
_cell_angle_gamma   90.00000000
_symmetry_Int_Tables_number   1
_chemical_formula_structural   CaSnS3
_chemical_formula_sum   'Ca20 Sn20 S60'
_cell_volume   2809.41906708
_cell_formula_units_Z   20
loop_
 _symmetry_equiv_pos_site_id
 _symmetry_equiv_pos_as_xyz
  1  'x, y, z'
loop_
 _atom_site_type_symbol
 _atom_site_label
 _atom_site_symmetry_multiplicity
 _atom_site_fract_x
 _atom_site_fract_y
 _atom_site_fract_z
 _atom_site_occupancy
  Ca  Ca0  1  0.44462700  0.75295000  0.26793900  1
  Ca  Ca1  1  0.94462700  0.24705000  0.73206100  1
  Ca  Ca2  1  0.19462700  0.26793900  0.24705000  1
  Ca  Ca3  1  0.69462700  0.73206100  0.75295000  1
  Ca  Ca4  1  0.70911100  0.26974600  0.28738000  1
  Ca  Ca5  1  0.20911100  0.73025400  0.71262100  1
  Ca  Ca6  1  0.45911100  0.28738000  0.73025400  1
  Ca  Ca7  1  0.95911100  0.71262100  0.26974600  1
  Ca  Ca8  1  0.48888300  0.83721800  0.55539800  1
  Ca  Ca9  1  0.98888300  0.16278200  0.44460200  1
  Ca  Ca10  1  0.23888300  0.55539800  0.16278200  1
  Ca  Ca11  1  0.73888300  0.44460200  0.83721800  1
  Ca  Ca12  1  0.69447800  0.96599300  0.33993800  1
  Ca  Ca13  1  0.19447800  0.03400700  0.66006200  1
  Ca  Ca14  1  0.44447800  0.33993800  0.03400700  1
  Ca  Ca15  1  0.94447800  0.66006200  0.96599300  1
  Ca  Ca16  1  0.70329000  0.53767600  0.12341500  1
  Ca  Ca17  1  0.20329000  0.46232400  0.87658500  1
  Ca  Ca18  1  0.45329000  0.12341500  0.46232400  1
  Ca  Ca19  1  0.95329000  0.87658500  0.53767600  1
  Sn  Sn0  1  0.75569500  0.72969900  0.43585100  1
  Sn  Sn1  1  0.25569500  0.27030100  0.56414900  1
  Sn  Sn2  1  0.50569500  0.43585100  0.27030100  1
  Sn  Sn3  1  0.00569500  0.56414900  0.72969900  1
  Sn  Sn4  1  0.22655700  0.80375600  0.09234400  1
  Sn  Sn5  1  0.72655700  0.19624400  0.90765600  1
  Sn  Sn6  1  0.97655700  0.09234400  0.19624400  1
  Sn  Sn7  1  0.47655700  0.90765600  0.80375600  1
  Sn  Sn8  1  0.45146900  0.62904300  0.93665500  1
  Sn  Sn9  1  0.95146900  0.37095700  0.06334500  1
  Sn  Sn10  1  0.20146900  0.93665500  0.37095700  1
  Sn  Sn11  1  0.70146900  0.06334500  0.62904300  1
  Sn  Sn12  1  0.81251100  0.87592200  0.07311400  1
  Sn  Sn13  1  0.31251100  0.12407800  0.92688600  1
  Sn  Sn14  1  0.56251100  0.07311400  0.12407800  1
  Sn  Sn15  1  0.06251100  0.92688600  0.87592200  1
  Sn  Sn16  1  0.19329900  0.64224500  0.43904000  1
  Sn  Sn17  1  0.69329900  0.35775500  0.56096000  1
  Sn  Sn18  1  0.94329900  0.43904000  0.35775500  1
  Sn  Sn19  1  0.44329900  0.56096000  0.64224500  1
  S  S0  1  0.35016800  0.50561400  0.00390800  1
  S  S1  1  0.85016800  0.49438600  0.99609200  1
  S  S2  1  0.10016800  0.00390800  0.49438600  1
  S  S3  1  0.60016800  0.99609200  0.50561400  1
  S  S4  1  0.62167400  0.57242500  0.94281400  1
  S  S5  1  0.12167400  0.42757500  0.05718600  1
  S  S6  1  0.37167400  0.94281400  0.42757500  1
  S  S7  1  0.87167400  0.05718600  0.57242500  1
  S  S8  1  0.09182800  0.69777800  0.11436700  1
  S  S9  1  0.59182800  0.30222200  0.88563300  1
  S  S10  1  0.84182800  0.11436700  0.30222200  1
  S  S11  1  0.34182800  0.88563300  0.69777800  1
  S  S12  1  0.38608400  0.71930600  0.08342900  1
  S  S13  1  0.88608400  0.28069400  0.91657100  1
  S  S14  1  0.13608400  0.08342900  0.28069400  1
  S  S15  1  0.63608400  0.91657100  0.71930600  1
  S  S16  1  0.22402000  0.87515600  0.94108300  1
  S  S17  1  0.72402000  0.12484400  0.05891700  1
  S  S18  1  0.97402000  0.94108300  0.12484400  1
  S  S19  1  0.47402000  0.05891700  0.87515600  1
  S  S20  1  0.55568300  0.59079200  0.24352800  1
  S  S21  1  0.05568300  0.40920800  0.75647200  1
  S  S22  1  0.30568300  0.24352800  0.40920800  1
  S  S23  1  0.80568300  0.75647200  0.59079200  1
  S  S24  1  0.85956600  0.85115500  0.36186900  1
  S  S25  1  0.35956600  0.14884500  0.63813100  1
  S  S26  1  0.60956600  0.36186900  0.14884500  1
  S  S27  1  0.10956600  0.63813100  0.85115500  1
  S  S28  1  0.59473300  0.79663800  0.38894700  1
  S  S29  1  0.09473300  0.20336200  0.61105300  1
  S  S30  1  0.34473300  0.38894700  0.20336200  1
  S  S31  1  0.84473300  0.61105300  0.79663800  1
  S  S32  1  0.81032300  0.59022500  0.35403500  1
  S  S33  1  0.31032300  0.40977500  0.64596500  1
  S  S34  1  0.56032300  0.35403500  0.40977500  1
  S  S35  1  0.06032300  0.64596500  0.59022500  1
  S  S36  1  0.81519700  0.71723900  0.11643400  1
  S  S37  1  0.31519700  0.28276100  0.88356600  1
  S  S38  1  0.56519700  0.11643400  0.28276100  1
  S  S39  1  0.06519700  0.88356600  0.71723900  1
  S  S40  1  0.54398500  0.78179600  0.89282100  1
  S  S41  1  0.04398500  0.21820400  0.10717900  1
  S  S42  1  0.29398500  0.89282100  0.21820400  1
  S  S43  1  0.79398500  0.10717900  0.78179600  1
  S  S44  1  0.63686000  0.91168200  0.13906300  1
  S  S45  1  0.13686000  0.08831800  0.86093700  1
  S  S46  1  0.38686000  0.13906300  0.08831800  1
  S  S47  1  0.88686000  0.86093700  0.91168200  1
  S  S48  1  0.10439300  0.78894400  0.40399700  1
  S  S49  1  0.60439300  0.21105600  0.59600300  1
  S  S50  1  0.85439300  0.40399700  0.21105600  1
  S  S51  1  0.35439300  0.59600300  0.78894400  1
  S  S52  1  0.32703500  0.67680400  0.55764200  1
  S  S53  1  0.82703500  0.32319600  0.44235800  1
  S  S54  1  0.07703500  0.55764200  0.32319600  1
  S  S55  1  0.57703500  0.44235800  0.67680400  1
  S  S56  1  0.32411200  0.61431800  0.32677500  1
  S  S57  1  0.82411200  0.38568200  0.67322500  1
  S  S58  1  0.07411200  0.32677500  0.38568200  1
  S  S59  1  0.57411200  0.67322500  0.61431800  1
loop_
_geom_bond_atom_site_label_1
_geom_bond_atom_site_label_2
_geom_bond_distance
_geom_bond_site_symmetry_2
Ca0 S56 2.712577 1_555
Ca0 S28 2.729998 1_555
Ca0 S20 2.805525 1_555
Ca0 S12 2.842135 1_555
Ca0 S42 2.940662 1_555
Ca1 S57 2.712577 1_555
Ca1 S29 2.729998 1_655
Ca1 S21 2.805525 1_655
Ca1 S13 2.842135 1_555
Ca1 S43 2.940662 1_555
Ca2 S58 2.712577 1_555
Ca2 S30 2.729998 1_555
Ca2 S22 2.805525 1_555
Ca2 S14 2.842135 1_555
Ca2 S41 2.940662 1_555
Ca3 S59 2.712577 1_555
Ca3 S31 2.729998 1_555
Ca3 S23 2.805525 1_555
Ca3 S15 2.842135 1_555
Ca3 S40 2.940662 1_555
Ca4 S26 2.759564 1_555
Ca4 S53 2.853438 1_555
Ca4 S10 2.873193 1_555
Ca4 S34 2.925871 1_555
Ca4 S38 2.935644 1_555
Ca4 S50 2.959004 1_555
Ca5 S27 2.759554 1_555
Ca5 S52 2.853449 1_555
Ca5 S11 2.873194 1_555
Ca5 S35 2.925880 1_555
Ca5 S39 2.935643 1_555
Ca5 S51 2.958998 1_555
Ca6 S25 2.759564 1_555
Ca6 S55 2.853438 1_555
Ca6 S9 2.873193 1_555
Ca6 S33 2.925871 1_555
Ca6 S37 2.935644 1_555
Ca6 S49 2.959004 1_555
Ca7 S24 2.759554 1_555
Ca7 S54 2.853449 1_655
Ca7 S8 2.873194 1_655
Ca7 S32 2.925880 1_555
Ca7 S36 2.935643 1_555
Ca7 S48 2.958998 1_655
Ca8 S59 2.779328 1_555
Ca8 S3 2.838305 1_555
Ca8 S28 2.863081 1_555
Ca8 S6 2.871122 1_555
Ca8 S11 2.929864 1_555
Ca8 S52 3.169479 1_555
Ca8 S15 3.291523 1_555
Ca9 S58 2.779328 1_655
Ca9 S2 2.838305 1_655
Ca9 S29 2.863081 1_655
Ca9 S7 2.871122 1_555
Ca9 S10 2.929864 1_555
Ca9 S53 3.169479 1_555
Ca9 S14 3.291523 1_655
Ca10 S56 2.779328 1_555
Ca10 S0 2.838305 1_555
Ca10 S30 2.863081 1_555
Ca10 S5 2.871122 1_555
Ca10 S8 2.929864 1_555
Ca10 S54 3.169479 1_555
Ca10 S12 3.291523 1_555
Ca11 S57 2.779328 1_555
Ca11 S1 2.838305 1_555
Ca11 S31 2.863081 1_555
Ca11 S4 2.871122 1_555
Ca11 S9 2.929864 1_555
Ca11 S55 3.169479 1_555
Ca11 S13 3.291523 1_555
Ca12 S3 2.753497 1_555
Ca12 S24 2.768449 1_555
Ca12 S28 2.888949 1_555
Ca12 S38 2.902631 1_565
Ca12 S10 2.962075 1_565
Ca12 S44 3.128338 1_555
Ca13 S2 2.753497 1_555
Ca13 S25 2.768449 1_555
Ca13 S29 2.888949 1_555
Ca13 S39 2.902631 1_545
Ca13 S11 2.962075 1_545
Ca13 S45 3.128338 1_555
Ca14 S0 2.753497 1_555
Ca14 S26 2.768449 1_555
Ca14 S30 2.888949 1_555
Ca14 S37 2.902631 1_554
Ca14 S9 2.962075 1_554
Ca14 S46 3.128338 1_555
Ca15 S1 2.753497 1_555
Ca15 S27 2.768449 1_655
Ca15 S31 2.888949 1_555
Ca15 S36 2.902631 1_556
Ca15 S8 2.962075 1_656
Ca15 S47 3.128338 1_555
Ca16 S20 2.733346 1_555
Ca16 S1 2.758916 1_554
Ca16 S26 2.871060 1_555
Ca16 S4 2.890484 1_554
Ca16 S36 3.008720 1_555
Ca16 S50 3.069016 1_555
Ca17 S21 2.733346 1_555
Ca17 S0 2.758916 1_556
Ca17 S27 2.871060 1_555
Ca17 S5 2.890484 1_556
Ca17 S37 3.008720 1_555
Ca17 S51 3.069016 1_555
Ca18 S22 2.733346 1_555
Ca18 S3 2.758916 1_545
Ca18 S25 2.871060 1_555
Ca18 S6 2.890484 1_545
Ca18 S38 3.008720 1_555
Ca18 S49 3.069016 1_555
Ca19 S23 2.733346 1_555
Ca19 S2 2.758916 1_665
Ca19 S24 2.871060 1_555
Ca19 S7 2.890484 1_565
Ca19 S39 3.008720 1_655
Ca19 S48 3.069016 1_655
S0 Sn8 2.447969 1_554
S1 Sn9 2.447969 1_556
S2 Sn10 2.447969 1_545
S3 Sn11 2.447969 1_565
S4 Sn8 2.397318 1_555
S5 Sn9 2.397318 1_455
S6 Sn10 2.397318 1_555
S7 Sn11 2.397318 1_555
S8 Sn4 2.379107 1_555
S9 Sn5 2.379107 1_555
S10 Sn6 2.379107 1_555
S11 Sn7 2.379107 1_555
S12 Sn4 2.444611 1_555
S12 Sn8 2.656936 1_554
S13 Sn5 2.444611 1_555
S13 Sn9 2.656936 1_556
S14 Sn6 2.444611 1_455
S14 Sn10 2.656936 1_545
S15 Sn7 2.444611 1_555
S15 Sn11 2.656936 1_565
S16 Sn4 2.439267 1_556
S16 Sn15 2.454728 1_555
S17 Sn5 2.439267 1_554
S17 Sn14 2.454728 1_555
S18 Sn6 2.439267 1_565
S18 Sn12 2.454728 1_555
S19 Sn7 2.439267 1_545
S19 Sn13 2.454728 1_555
S20 Sn2 2.386036 1_555
S21 Sn3 2.386036 1_555
S22 Sn1 2.386036 1_555
S23 Sn0 2.386036 1_555
S24 Sn0 2.486754 1_555
S25 Sn1 2.486754 1_555
S26 Sn2 2.486754 1_555
S27 Sn3 2.486754 1_555
S28 Sn0 2.437954 1_555
S29 Sn1 2.437954 1_555
S30 Sn2 2.437954 1_555
S31 Sn3 2.437954 1_655
S32 Sn0 2.465878 1_555
S32 Sn18 2.819569 1_555
S33 Sn1 2.465878 1_555
S33 Sn19 2.819569 1_555
S34 Sn2 2.465878 1_555
S34 Sn17 2.819569 1_555
S35 Sn3 2.465878 1_555
S35 Sn16 2.819569 1_555
S36 Sn12 2.398821 1_555
S37 Sn13 2.398821 1_555
S38 Sn14 2.398821 1_555
S39 Sn15 2.398821 1_555
S40 Sn7 2.418392 1_555
S40 Sn8 2.619956 1_555
S41 Sn6 2.418392 1_455
S41 Sn9 2.619956 1_455
S42 Sn4 2.418392 1_555
S42 Sn10 2.619956 1_555
S43 Sn5 2.418392 1_555
S43 Sn11 2.619956 1_555
S44 Sn14 2.560067 1_565
S44 Sn12 2.565730 1_555
S45 Sn15 2.560067 1_545
S45 Sn13 2.565730 1_555
S46 Sn13 2.560067 1_554
S46 Sn14 2.565730 1_555
S47 Sn12 2.560067 1_556
S47 Sn15 2.565730 1_655
S48 Sn16 2.493376 1_555
S48 Sn10 2.552752 1_555
S49 Sn17 2.493376 1_555
S49 Sn11 2.552752 1_555
S50 Sn18 2.493376 1_555
S50 Sn9 2.552752 1_555
S51 Sn19 2.493376 1_555
S51 Sn8 2.552752 1_555
S52 Sn16 2.523342 1_555
S52 Sn19 2.595225 1_555
S53 Sn17 2.523342 1_555
S53 Sn18 2.595225 1_555
S54 Sn18 2.523342 1_455
S54 Sn16 2.595225 1_555
S55 Sn19 2.523342 1_555
S55 Sn17 2.595225 1_555
S56 Sn16 2.415174 1_555
S57 Sn17 2.415174 1_555
S58 Sn18 2.415174 1_455
S59 Sn19 2.415174 1_555
