# generated using pymatgen
data_NiS2
_symmetry_space_group_name_H-M   'P 1'
_cell_length_a   5.35066300
_cell_length_b   3.76092100
_cell_length_c   5.44602923
_cell_angle_alpha   59.42031737
_cell_angle_beta   90.00000000
_cell_angle_gamma   90.00000000
_symmetry_Int_Tables_number   1
_chemical_formula_structural   NiS2
_chemical_formula_sum   'Ni2 S4'
_cell_volume   94.35085206
_cell_formula_units_Z   2
loop_
 _symmetry_equiv_pos_site_id
 _symmetry_equiv_pos_as_xyz
  1  'x, y, z'
loop_
 _atom_site_type_symbol
 _atom_site_label
 _atom_site_symmetry_multiplicity
 _atom_site_fract_x
 _atom_site_fract_y
 _atom_site_fract_z
 _atom_site_occupancy
  Ni  Ni0  1  0.00000000  0.50000000  0.50000000  1
  Ni  Ni1  1  0.50000000  0.50000000  0.00000000  1
  S  S0  1  0.11391300  0.66843900  0.82050800  1
  S  S1  1  0.38608700  0.66843900  0.32050800  1
  S  S2  1  0.88608700  0.33156100  0.17949200  1
  S  S3  1  0.61391300  0.33156100  0.67949200  1
loop_
_geom_bond_atom_site_label_1
_geom_bond_atom_site_label_2
_geom_bond_distance
_geom_bond_site_symmetry_2
Ni0 S0 2.223652 1_555
Ni0 S2 2.223652 1_455
Ni0 S1 2.234816 1_555
Ni0 S3 2.234816 1_455
Ni0 S2 2.764924 1_465
Ni0 S0 2.764924 1_545
Ni1 S1 2.223652 1_555
Ni1 S3 2.223652 1_554
Ni1 S2 2.234816 1_555
Ni1 S0 2.234816 1_554
Ni1 S1 2.764924 1_545
Ni1 S3 2.764924 1_564
S0 S2 2.095983 1_456
S1 S3 2.095983 1_555
