# generated using pymatgen
data_Li6Mn5CoO12
_symmetry_space_group_name_H-M   'P 1'
_cell_length_a   5.12305800
_cell_length_b   5.13417295
_cell_length_c   10.33394264
_cell_angle_alpha   89.96565037
_cell_angle_beta   96.10356967
_cell_angle_gamma   115.43579249
_symmetry_Int_Tables_number   1
_chemical_formula_structural   Li6Mn5CoO12
_chemical_formula_sum   'Li6 Mn5 Co1 O12'
_cell_volume   243.76385321
_cell_formula_units_Z   1
loop_
 _symmetry_equiv_pos_site_id
 _symmetry_equiv_pos_as_xyz
  1  'x, y, z'
loop_
 _atom_site_type_symbol
 _atom_site_label
 _atom_site_symmetry_multiplicity
 _atom_site_fract_x
 _atom_site_fract_y
 _atom_site_fract_z
 _atom_site_occupancy
  Li  Li0  1  0.68984600  0.99199200  0.21555400  1
  Li  Li1  1  0.02940600  0.67019800  0.22026600  1
  Li  Li2  1  0.65309000  0.68375300  0.78511600  1
  Li  Li3  1  0.31015400  0.00800800  0.78444600  1
  Li  Li4  1  0.34691000  0.31624700  0.21488400  1
  Li  Li5  1  0.97059400  0.32980200  0.77973400  1
  Mn  Mn0  1  0.66904900  0.33301100  0.00044900  1
  Mn  Mn1  1  0.83112800  0.66900900  0.50041100  1
  Mn  Mn2  1  0.50000000  0.00000000  0.50000000  1
  Mn  Mn3  1  0.33095100  0.66698900  0.99955100  1
  Mn  Mn4  1  0.16887200  0.33099100  0.49958900  1
  Co  Co0  1  0.00000000  0.00000000  0.00000000  1
  O  O0  1  0.77494700  0.96009600  0.39656200  1
  O  O1  1  0.98334600  0.30800900  0.11650300  1
  O  O2  1  0.84982900  0.33513300  0.59350300  1
  O  O3  1  0.67724400  0.03436300  0.88591200  1
  O  O4  1  0.32275600  0.96563700  0.11408800  1
  O  O5  1  0.44484800  0.28911100  0.39632900  1
  O  O6  1  0.64520800  0.62809400  0.11519200  1
  O  O7  1  0.35479200  0.37190600  0.88480800  1
  O  O8  1  0.55515200  0.71088900  0.60367100  1
  O  O9  1  0.22505300  0.03990400  0.60343800  1
  O  O10  1  0.15017100  0.66486700  0.40649700  1
  O  O11  1  0.01665400  0.69199100  0.88349700  1
loop_
_geom_bond_atom_site_label_1
_geom_bond_atom_site_label_2
_geom_bond_distance
_geom_bond_site_symmetry_2
Li0 O0 1.898237 1_555
Li0 O4 2.004182 1_555
Li0 O1 2.042240 1_565
Li0 O6 2.050226 1_555
Li1 O10 1.961762 1_555
Li1 O4 2.038084 1_555
Li1 O1 2.057917 1_455
Li1 O6 2.068852 1_455
Li2 O8 1.909610 1_555
Li2 O11 2.008538 1_655
Li2 O3 2.030792 1_565
Li2 O7 2.047247 1_555
Li3 O9 1.898237 1_555
Li3 O3 2.004182 1_555
Li3 O11 2.042240 1_545
Li3 O7 2.050226 1_555
Li4 O5 1.909610 1_555
Li4 O1 2.008538 1_455
Li4 O4 2.030792 1_545
Li4 O6 2.047247 1_555
Li5 O2 1.961762 1_555
Li5 O3 2.038084 1_555
Li5 O11 2.057917 1_655
Li5 O7 2.068852 1_655
Mn0 O1 1.952978 1_555
Mn0 O3 1.954942 1_554
Mn0 O6 1.976882 1_555
Mn0 O7 1.981585 1_554
Mn0 O4 2.376979 1_545
Mn0 O11 2.380011 1_654
Mn1 O8 1.940640 1_555
Mn1 O0 1.941628 1_555
Mn1 O10 1.995255 1_655
Mn1 O2 1.998133 1_555
Mn1 O9 2.253181 1_665
Mn1 O5 2.260894 1_555
Mn2 O8 1.929987 1_545
Mn2 O5 1.929987 1_555
Mn2 O0 1.933124 1_545
Mn2 O9 1.933124 1_555
Mn2 O10 2.022627 1_545
Mn2 O2 2.022627 1_555
Mn3 O11 1.952978 1_555
Mn3 O4 1.954942 1_556
Mn3 O7 1.976882 1_555
Mn3 O6 1.981585 1_556
Mn3 O3 2.376979 1_565
Mn3 O1 2.380011 1_456
Mn4 O5 1.940640 1_555
Mn4 O9 1.941628 1_555
Mn4 O2 1.995255 1_455
Mn4 O10 1.998133 1_555
Mn4 O0 2.253181 1_445
Mn4 O8 2.260894 1_555
Co0 O4 1.997738 1_545
Co0 O3 1.997738 1_454
Co0 O1 2.024228 1_455
Co0 O11 2.024228 1_544
Co0 O7 2.417191 1_554
Co0 O6 2.417191 1_445
