# generated using pymatgen
data_Al2IrOs
_symmetry_space_group_name_H-M   'P 1'
_cell_length_a   4.23374325
_cell_length_b   4.23374325
_cell_length_c   4.23374325
_cell_angle_alpha   60.00000000
_cell_angle_beta   60.00000000
_cell_angle_gamma   60.00000000
_symmetry_Int_Tables_number   1
_chemical_formula_structural   Al2IrOs
_chemical_formula_sum   'Al2 Ir1 Os1'
_cell_volume   53.66097422
_cell_formula_units_Z   1
loop_
 _symmetry_equiv_pos_site_id
 _symmetry_equiv_pos_as_xyz
  1  'x, y, z'
loop_
 _atom_site_type_symbol
 _atom_site_label
 _atom_site_symmetry_multiplicity
 _atom_site_fract_x
 _atom_site_fract_y
 _atom_site_fract_z
 _atom_site_occupancy
  Al  Al0  1  -0.00000000  -0.00000000  -0.00000000  1
  Al  Al1  1  0.50000000  0.50000000  0.50000000  1
  Ir  Ir0  1  0.25000000  0.25000000  0.25000000  1
  Os  Os0  1  0.75000100  0.75000100  0.75000100  1
loop_
_geom_bond_atom_site_label_1
_geom_bond_atom_site_label_2
_geom_bond_distance
_geom_bond_site_symmetry_2
Al0 Os0 2.592617 1_444
Al0 Ir0 2.592628 1_545
Al0 Ir0 2.592628 1_555
Al0 Ir0 2.592628 1_554
Al0 Ir0 2.592628 1_455
Al0 Os0 2.592631 1_445
Al0 Os0 2.592631 1_454
Al0 Os0 2.592631 1_544
Al1 Os0 2.592624 1_545
Al1 Os0 2.592624 1_455
Al1 Os0 2.592624 1_554
Al1 Ir0 2.592628 1_565
Al1 Ir0 2.592628 1_655
Al1 Ir0 2.592628 1_555
Al1 Ir0 2.592628 1_556
Al1 Os0 2.592638 1_555
