# generated using pymatgen
data_ScBO3
_symmetry_space_group_name_H-M   'P 1'
_cell_length_a   5.79997527
_cell_length_b   5.79997508
_cell_length_c   5.79997690
_cell_angle_alpha   48.58945306
_cell_angle_beta   48.58945178
_cell_angle_gamma   48.58945248
_symmetry_Int_Tables_number   1
_chemical_formula_structural   ScBO3
_chemical_formula_sum   'Sc2 B2 O6'
_cell_volume   100.67384891
_cell_formula_units_Z   2
loop_
 _symmetry_equiv_pos_site_id
 _symmetry_equiv_pos_as_xyz
  1  'x, y, z'
loop_
 _atom_site_type_symbol
 _atom_site_label
 _atom_site_symmetry_multiplicity
 _atom_site_fract_x
 _atom_site_fract_y
 _atom_site_fract_z
 _atom_site_occupancy
  Sc  Sc0  1  0.50000000  0.50000000  0.50000000  1
  Sc  Sc1  1  0.00000000  -0.00000000  0.00000000  1
  B  B0  1  0.75000000  0.75000000  0.75000000  1
  B  B1  1  0.25000000  0.25000000  0.25000000  1
  O  O0  1  0.75000000  0.03904115  0.46095885  1
  O  O1  1  0.46095885  0.75000000  0.03904115  1
  O  O2  1  0.96095885  0.53904115  0.25000000  1
  O  O3  1  0.25000000  0.96095885  0.53904115  1
  O  O4  1  0.53904115  0.25000000  0.96095885  1
  O  O5  1  0.03904115  0.46095885  0.75000000  1
loop_
_geom_bond_atom_site_label_1
_geom_bond_atom_site_label_2
_geom_bond_distance
_geom_bond_site_symmetry_2
B0 O5 1.379470 1_655
B0 O1 1.379470 1_556
B0 O0 1.379470 1_565
B1 O2 1.379470 1_455
B1 O4 1.379470 1_554
B1 O3 1.379470 1_545
O0 Sc0 2.130669 1_555
O0 Sc1 2.130670 1_655
O1 Sc1 2.130670 1_565
O1 Sc0 2.130670 1_555
O2 Sc1 2.130669 1_665
O2 Sc0 2.130669 1_555
O3 Sc0 2.130669 1_555
O3 Sc1 2.130670 1_566
O4 Sc1 2.130670 1_656
O4 Sc0 2.130670 1_555
O5 Sc1 2.130669 1_556
O5 Sc0 2.130669 1_555
