# generated using pymatgen
data_Pr3MnAlS7
_symmetry_space_group_name_H-M   'P 1'
_cell_length_a   10.09295215
_cell_length_b   10.09295215
_cell_length_c   6.10901100
_cell_angle_alpha   90.00000000
_cell_angle_beta   90.00000000
_cell_angle_gamma   120.00000096
_symmetry_Int_Tables_number   1
_chemical_formula_structural   Pr3MnAlS7
_chemical_formula_sum   'Pr6 Mn2 Al2 S14'
_cell_volume   538.93695331
_cell_formula_units_Z   2
loop_
 _symmetry_equiv_pos_site_id
 _symmetry_equiv_pos_as_xyz
  1  'x, y, z'
loop_
 _atom_site_type_symbol
 _atom_site_label
 _atom_site_symmetry_multiplicity
 _atom_site_fract_x
 _atom_site_fract_y
 _atom_site_fract_z
 _atom_site_occupancy
  Pr  Pr0  1  0.14495900  0.37629600  0.24277700  1
  Pr  Pr1  1  0.85504100  0.62370400  0.74277700  1
  Pr  Pr2  1  0.62370400  0.76866300  0.24277700  1
  Pr  Pr3  1  0.23133700  0.85504100  0.24277700  1
  Pr  Pr4  1  0.76866300  0.14495900  0.74277700  1
  Pr  Pr5  1  0.37629600  0.23133700  0.74277700  1
  Mn  Mn0  1  0.00000000  0.00000000  0.01872300  1
  Mn  Mn1  1  0.00000000  0.00000000  0.51872300  1
  Al  Al0  1  0.33333300  0.66666700  0.66431900  1
  Al  Al1  1  0.66666700  0.33333300  0.16431900  1
  S  S0  1  0.33333300  0.66666700  0.02929000  1
  S  S1  1  0.66666700  0.33333300  0.52929000  1
  S  S2  1  0.09341900  0.23800300  0.79152000  1
  S  S3  1  0.90658100  0.76199700  0.29152000  1
  S  S4  1  0.76199700  0.85541600  0.79152000  1
  S  S5  1  0.14458400  0.90658100  0.79152000  1
  S  S6  1  0.85541600  0.09341900  0.29152000  1
  S  S7  1  0.23800300  0.14458400  0.29152000  1
  S  S8  1  0.42165900  0.52071700  0.51728900  1
  S  S9  1  0.57834100  0.47928300  0.01728900  1
  S  S10  1  0.47928300  0.90094300  0.51728900  1
  S  S11  1  0.09905700  0.57834100  0.51728900  1
  S  S12  1  0.90094300  0.42165900  0.01728900  1
  S  S13  1  0.52071700  0.09905700  0.01728900  1
loop_
_geom_bond_atom_site_label_1
_geom_bond_atom_site_label_2
_geom_bond_distance
_geom_bond_site_symmetry_2
Pr0 S11 2.851344 1_555
Pr0 S0 2.886639 1_555
Pr0 S6 2.904595 1_455
Pr0 S7 2.938722 1_555
Pr0 S8 2.943728 1_555
Pr0 S2 3.015348 1_554
Pr0 S12 3.049647 1_455
Pr1 S12 2.851344 1_556
Pr1 S1 2.886639 1_555
Pr1 S5 2.904595 1_655
Pr1 S4 2.938722 1_555
Pr1 S9 2.943728 1_556
Pr1 S3 3.015348 1_555
Pr1 S11 3.049647 1_655
Pr2 S8 2.851339 1_555
Pr2 S0 2.886641 1_555
Pr2 S3 2.904595 1_555
Pr2 S6 2.938722 1_565
Pr2 S10 2.943735 1_555
Pr2 S4 3.015348 1_554
Pr2 S9 3.049656 1_555
Pr3 S10 2.851336 1_555
Pr3 S0 2.886632 1_555
Pr3 S7 2.904595 1_565
Pr3 S3 2.938722 1_455
Pr3 S11 2.943728 1_555
Pr3 S5 3.015348 1_554
Pr3 S13 3.049653 1_565
Pr4 S13 2.851336 1_556
Pr4 S1 2.886632 1_555
Pr4 S4 2.904595 1_545
Pr4 S2 2.938722 1_655
Pr4 S12 2.943728 1_556
Pr4 S6 3.015348 1_555
Pr4 S10 3.049653 1_545
Pr5 S9 2.851339 1_556
Pr5 S1 2.886641 1_555
Pr5 S2 2.904595 1_555
Pr5 S5 2.938722 1_545
Pr5 S13 2.943735 1_556
Pr5 S7 3.015348 1_555
Pr5 S8 3.049656 1_555
Mn0 S4 2.514145 1_444
Mn0 S2 2.514145 1_554
Mn0 S5 2.514145 1_544
Mn0 S7 2.678005 1_555
Mn0 S3 2.678005 1_445
Mn0 S6 2.678005 1_455
Mn1 S7 2.514145 1_555
Mn1 S3 2.514145 1_445
Mn1 S6 2.514145 1_455
Mn1 S4 2.678005 1_445
Mn1 S2 2.678005 1_555
Mn1 S5 2.678005 1_545
Al0 S0 2.229612 1_556
Al0 S10 2.254909 1_555
Al0 S11 2.254909 1_555
Al0 S8 2.254909 1_555
Al1 S1 2.229612 1_555
Al1 S13 2.254909 1_555
Al1 S12 2.254909 1_555
Al1 S9 2.254909 1_555
