# generated using pymatgen
data_VOF2
_symmetry_space_group_name_H-M   'P 1'
_cell_length_a   5.23707100
_cell_length_b   5.37944665
_cell_length_c   12.80873227
_cell_angle_alpha   90.80645014
_cell_angle_beta   91.29079640
_cell_angle_gamma   118.59912279
_symmetry_Int_Tables_number   1
_chemical_formula_structural   VOF2
_chemical_formula_sum   'V6 O6 F12'
_cell_volume   316.61938097
_cell_formula_units_Z   6
loop_
 _symmetry_equiv_pos_site_id
 _symmetry_equiv_pos_as_xyz
  1  'x, y, z'
loop_
 _atom_site_type_symbol
 _atom_site_label
 _atom_site_symmetry_multiplicity
 _atom_site_fract_x
 _atom_site_fract_y
 _atom_site_fract_z
 _atom_site_occupancy
  V  V0  1  0.16884700  0.38898100  0.33582200  1
  V  V1  1  0.17284000  0.30987400  0.83833800  1
  V  V2  1  0.50000000  0.00000000  0.50000000  1
  V  V3  1  0.50000000  0.00000000  0.00000000  1
  V  V4  1  0.82716000  0.69012600  0.16166200  1
  V  V5  1  0.83115300  0.61101900  0.66417800  1
  O  O0  1  0.30378800  0.19664300  0.93741300  1
  O  O1  1  0.69621200  0.80335700  0.06258700  1
  O  O2  1  0.02135700  0.46940300  0.72084700  1
  O  O3  1  0.97864300  0.53059700  0.27915300  1
  O  O4  1  0.40573500  0.66060700  0.41546200  1
  O  O5  1  0.59426500  0.33939300  0.58453800  1
  F  F0  1  0.56872100  0.53594000  0.77734800  1
  F  F1  1  0.43127900  0.46406000  0.22265200  1
  F  F2  1  0.09025600  0.99329100  0.74336700  1
  F  F3  1  0.90974400  0.00670900  0.25663300  1
  F  F4  1  0.91080700  0.20094800  0.44563800  1
  F  F5  1  0.63647700  0.85261900  0.61459700  1
  F  F6  1  0.76846500  0.12129000  0.88163600  1
  F  F7  1  0.76826000  0.34356900  0.08207800  1
  F  F8  1  0.23174000  0.65643100  0.91792200  1
  F  F9  1  0.23153500  0.87871000  0.11836400  1
  F  F10  1  0.36352300  0.14738100  0.38540300  1
  F  F11  1  0.08919300  0.79905200  0.55436200  1
loop_
_geom_bond_atom_site_label_1
_geom_bond_atom_site_label_2
_geom_bond_distance
_geom_bond_site_symmetry_2
O0 V1 1.683512 1_555
O0 V3 1.960863 1_556
O1 V4 1.683512 1_555
O1 V3 1.960863 1_565
O2 V5 1.675994 1_455
O2 V1 2.065174 1_555
O3 V0 1.675994 1_655
O3 V4 2.065174 1_555
O4 V0 1.697154 1_555
O4 V2 1.951141 1_565
O5 V5 1.697154 1_555
O5 V2 1.951141 1_555
F0 V5 1.930825 1_555
F0 V1 2.018296 1_555
F1 V0 1.930825 1_555
F1 V4 2.018296 1_555
F2 V1 1.944223 1_565
F2 V5 2.075279 1_455
F3 V4 1.944223 1_545
F3 V0 2.075279 1_655
F4 V0 1.909176 1_655
F4 V2 2.035731 1_555
F5 V2 1.954990 1_565
F5 V5 2.096314 1_555
F6 V1 1.957940 1_655
F6 V3 1.986618 1_556
F7 V3 1.971756 1_555
F7 V4 1.997904 1_555
F8 V3 1.971756 1_566
F8 V1 1.997904 1_555
F9 V4 1.957940 1_455
F9 V3 1.986618 1_565
F10 V2 1.954990 1_555
F10 V0 2.096314 1_555
F11 V5 1.909176 1_455
F11 V2 2.035731 1_565
