# generated using pymatgen
data_K3NdSi2O7
_symmetry_space_group_name_H-M   'P 1'
_cell_length_a   10.07011730
_cell_length_b   10.07011730
_cell_length_c   14.59791178
_cell_angle_alpha   90.00000000
_cell_angle_beta   90.00000000
_cell_angle_gamma   120.00000132
_symmetry_Int_Tables_number   1
_chemical_formula_structural   K3NdSi2O7
_chemical_formula_sum   'K18 Nd6 Si12 O42'
_cell_volume   1282.00706791
_cell_formula_units_Z   6
loop_
 _symmetry_equiv_pos_site_id
 _symmetry_equiv_pos_as_xyz
  1  'x, y, z'
loop_
 _atom_site_type_symbol
 _atom_site_label
 _atom_site_symmetry_multiplicity
 _atom_site_fract_x
 _atom_site_fract_y
 _atom_site_fract_z
 _atom_site_occupancy
  K  K0  1  0.33073672  0.00000000  0.41121739  1
  K  K1  1  0.00000000  0.33073672  0.41121739  1
  K  K2  1  0.66926328  0.66926328  0.41121739  1
  K  K3  1  0.33073672  0.33073672  0.91121739  1
  K  K4  1  0.66926328  0.66926328  0.08878261  1
  K  K5  1  0.66926328  1.00000000  0.91121739  1
  K  K6  1  1.00000000  0.66926328  0.91121739  1
  K  K7  1  1.00000000  0.66926328  0.58878261  1
  K  K8  1  0.66926328  1.00000000  0.58878261  1
  K  K9  1  0.33073672  0.00000000  0.08878261  1
  K  K10  1  0.00000000  0.33073672  0.08878261  1
  K  K11  1  0.33073672  0.33073672  0.58878261  1
  K  K12  1  0.00000000  0.00000000  0.50000000  1
  K  K13  1  0.00000000  0.00000000  -0.00000000  1
  K  K14  1  0.66666700  0.33333300  0.75000000  1
  K  K15  1  0.33333300  0.66666700  0.25000000  1
  K  K16  1  0.33333300  0.66666700  0.75000000  1
  K  K17  1  0.66666700  0.33333300  0.25000000  1
  Nd  Nd0  1  0.66666700  0.33333300  0.50000000  1
  Nd  Nd1  1  0.33333300  0.66666700  -0.00000000  1
  Nd  Nd2  1  0.33333300  0.66666700  0.50000000  1
  Nd  Nd3  1  0.66666700  0.33333300  -0.00000000  1
  Nd  Nd4  1  0.00000000  0.00000000  0.75000000  1
  Nd  Nd5  1  0.00000000  0.00000000  0.25000000  1
  Si  Si0  1  0.65989762  1.00000000  0.35619602  1
  Si  Si1  1  1.00000000  0.65989762  0.35619602  1
  Si  Si2  1  0.34010238  0.34010238  0.35619602  1
  Si  Si3  1  0.65989762  0.65989762  0.85619602  1
  Si  Si4  1  0.34010238  0.34010238  0.14380398  1
  Si  Si5  1  0.34010238  0.00000000  0.85619602  1
  Si  Si6  1  0.00000000  0.34010238  0.85619602  1
  Si  Si7  1  0.00000000  0.34010238  0.64380398  1
  Si  Si8  1  0.34010238  0.00000000  0.64380398  1
  Si  Si9  1  0.65989762  1.00000000  0.14380398  1
  Si  Si10  1  1.00000000  0.65989762  0.14380398  1
  Si  Si11  1  0.65989762  0.65989762  0.64380398  1
  O  O0  1  0.32131768  0.47407783  0.09456011  1
  O  O1  1  0.52592217  0.84724085  0.09456011  1
  O  O2  1  0.15275915  0.67868232  0.09456011  1
  O  O3  1  0.84724085  0.32131768  0.59456011  1
  O  O4  1  0.67868232  0.15275915  0.40543989  1
  O  O5  1  0.67868232  0.52592217  0.59456011  1
  O  O6  1  0.47407783  0.15275915  0.59456011  1
  O  O7  1  0.52592217  0.67868232  0.90543989  1
  O  O8  1  0.15275915  0.47407783  0.90543989  1
  O  O9  1  0.84724085  0.52592217  0.40543989  1
  O  O10  1  0.47407783  0.32131768  0.40543989  1
  O  O11  1  0.32131768  0.84724085  0.90543989  1
  O  O12  1  0.67868232  0.52592217  0.90543989  1
  O  O13  1  0.47407783  0.15275915  0.90543989  1
  O  O14  1  0.84724085  0.32131768  0.90543989  1
  O  O15  1  0.15275915  0.67868232  0.40543989  1
  O  O16  1  0.32131768  0.84724085  0.59456011  1
  O  O17  1  0.32131768  0.47407783  0.40543989  1
  O  O18  1  0.52592217  0.84724085  0.40543989  1
  O  O19  1  0.47407783  0.32131768  0.09456011  1
  O  O20  1  0.84724085  0.52592217  0.09456011  1
  O  O21  1  0.15275915  0.47407783  0.59456011  1
  O  O22  1  0.52592217  0.67868232  0.59456011  1
  O  O23  1  0.67868232  0.15275915  0.09456011  1
  O  O24  1  0.40067953  0.40067953  0.25000000  1
  O  O25  1  1.00000000  0.40067953  0.75000000  1
  O  O26  1  0.40067953  1.00000000  0.75000000  1
  O  O27  1  0.59932047  0.00000000  0.25000000  1
  O  O28  1  0.00000000  0.59932047  0.25000000  1
  O  O29  1  0.59932047  0.59932047  0.75000000  1
  O  O30  1  0.17897128  0.00000000  0.85548880  1
  O  O31  1  0.00000000  0.17897128  0.85548880  1
  O  O32  1  0.82102872  0.82102872  0.85548880  1
  O  O33  1  0.17897128  0.17897128  0.35548880  1
  O  O34  1  0.82102872  0.82102872  0.64451120  1
  O  O35  1  0.82102872  -0.00000000  0.35548880  1
  O  O36  1  0.17897128  0.17897128  0.14451120  1
  O  O37  1  0.00000000  0.17897128  0.64451120  1
  O  O38  1  0.17897128  0.00000000  0.64451120  1
  O  O39  1  0.82102872  -0.00000000  0.14451120  1
  O  O40  1  -0.00000000  0.82102872  0.14451120  1
  O  O41  1  -0.00000000  0.82102872  0.35548880  1
loop_
_geom_bond_atom_site_label_1
_geom_bond_atom_site_label_2
_geom_bond_distance
_geom_bond_site_symmetry_2
K0 O10 2.808892 1_555
K0 O15 2.808893 1_545
K0 O41 3.000007 1_545
K0 O33 3.000007 1_555
K0 O18 3.043096 1_545
K0 O4 3.043105 1_555
K0 O16 3.064750 1_545
K0 O6 3.064752 1_555
K1 O17 2.808892 1_555
K1 O4 2.808893 1_455
K1 O35 3.000007 1_455
K1 O33 3.000007 1_555
K1 O9 3.043096 1_455
K1 O15 3.043105 1_555
K1 O3 3.064750 1_455
K1 O21 3.064752 1_555
K2 O9 2.808901 1_555
K2 O18 2.808901 1_555
K2 O35 3.000007 1_565
K2 O41 3.000007 1_655
K2 O17 3.043104 1_555
K2 O10 3.043104 1_555
K2 O22 3.064755 1_555
K2 O5 3.064755 1_555
K3 O13 2.808901 1_555
K3 O8 2.808901 1_555
K3 O31 3.000007 1_555
K3 O30 3.000007 1_555
K3 O7 3.043104 1_555
K3 O12 3.043104 1_555
K3 O19 3.064755 1_556
K3 O0 3.064755 1_556
K4 O20 2.808901 1_555
K4 O1 2.808901 1_555
K4 O39 3.000007 1_565
K4 O40 3.000007 1_655
K4 O19 3.043104 1_555
K4 O0 3.043104 1_555
K4 O12 3.064755 1_554
K4 O7 3.064755 1_554
K5 O7 2.808892 1_555
K5 O14 2.808893 1_565
K5 O31 3.000007 1_665
K5 O32 3.000007 1_555
K5 O13 3.043096 1_565
K5 O11 3.043105 1_555
K5 O23 3.064750 1_566
K5 O1 3.064752 1_556
K6 O12 2.808892 1_555
K6 O11 2.808893 1_655
K6 O30 3.000007 1_665
K6 O32 3.000007 1_555
K6 O8 3.043096 1_655
K6 O14 3.043105 1_555
K6 O2 3.064750 1_656
K6 O20 3.064752 1_556
K7 O5 2.808892 1_555
K7 O16 2.808893 1_655
K7 O38 3.000007 1_665
K7 O34 3.000007 1_555
K7 O21 3.043096 1_655
K7 O3 3.043105 1_555
K7 O15 3.064750 1_655
K7 O9 3.064752 1_555
K8 O22 2.808892 1_555
K8 O3 2.808893 1_565
K8 O37 3.000007 1_665
K8 O34 3.000007 1_555
K8 O6 3.043096 1_565
K8 O16 3.043105 1_555
K8 O4 3.064750 1_565
K8 O18 3.064752 1_555
K9 O19 2.808892 1_555
K9 O2 2.808893 1_545
K9 O40 3.000007 1_545
K9 O36 3.000007 1_555
K9 O1 3.043096 1_545
K9 O23 3.043105 1_555
K9 O11 3.064750 1_544
K9 O13 3.064752 1_554
K10 O0 2.808892 1_555
K10 O23 2.808893 1_455
K10 O39 3.000007 1_455
K10 O36 3.000007 1_555
K10 O20 3.043096 1_455
K10 O2 3.043105 1_555
K10 O14 3.064750 1_454
K10 O8 3.064752 1_554
K11 O21 2.808901 1_555
K11 O6 2.808901 1_555
K11 O37 3.000007 1_555
K11 O38 3.000007 1_555
K11 O5 3.043104 1_555
K11 O22 3.043104 1_555
K11 O17 3.064755 1_555
K11 O10 3.064755 1_555
K12 O34 2.774599 1_445
K12 O33 2.774599 1_555
K12 O38 2.774599 1_555
K12 O41 2.774599 1_545
K12 O37 2.774599 1_555
K12 O35 2.774599 1_455
K13 O36 2.774599 1_555
K13 O32 2.774599 1_444
K13 O40 2.774599 1_545
K13 O39 2.774599 1_455
K13 O31 2.774599 1_554
K13 O30 2.774599 1_554
K14 O6 2.947888 1_555
K14 O13 2.947888 1_555
K14 O5 2.947888 1_555
K14 O12 2.947888 1_555
K14 O14 2.947888 1_555
K14 O3 2.947888 1_555
K14 O25 3.074234 1_555
K14 O26 3.074237 1_545
K14 O29 3.074244 1_555
K15 O1 2.947888 1_555
K15 O18 2.947888 1_555
K15 O0 2.947888 1_555
K15 O17 2.947888 1_555
K15 O2 2.947888 1_555
K15 O15 2.947888 1_555
K15 O28 3.074234 1_555
K15 O27 3.074237 1_565
K15 O24 3.074244 1_555
K16 O8 2.947888 1_555
K16 O21 2.947888 1_555
K16 O7 2.947888 1_555
K16 O22 2.947888 1_555
K16 O11 2.947888 1_555
K16 O16 2.947888 1_555
K16 O26 3.074234 1_555
K16 O25 3.074237 1_455
K16 O29 3.074244 1_555
K17 O20 2.947888 1_555
K17 O9 2.947888 1_555
K17 O19 2.947888 1_555
K17 O10 2.947888 1_555
K17 O23 2.947888 1_555
K17 O4 2.947888 1_555
K17 O27 3.074234 1_555
K17 O28 3.074237 1_655
K17 O24 3.074244 1_555
Nd0 O6 2.333814 1_555
Nd0 O9 2.333814 1_555
Nd0 O5 2.333814 1_555
Nd0 O10 2.333814 1_555
Nd0 O4 2.333814 1_555
Nd0 O3 2.333814 1_555
Nd1 O8 2.333814 1_554
Nd1 O1 2.333814 1_555
Nd1 O0 2.333814 1_555
Nd1 O7 2.333814 1_554
Nd1 O2 2.333814 1_555
Nd1 O11 2.333814 1_554
Nd2 O21 2.333814 1_555
Nd2 O18 2.333814 1_555
Nd2 O22 2.333814 1_555
Nd2 O17 2.333814 1_555
Nd2 O15 2.333814 1_555
Nd2 O16 2.333814 1_555
Nd3 O13 2.333814 1_554
Nd3 O20 2.333814 1_555
Nd3 O12 2.333814 1_554
Nd3 O19 2.333814 1_555
Nd3 O23 2.333814 1_555
Nd3 O14 2.333814 1_554
Nd4 O32 2.370546 1_445
Nd4 O34 2.370546 1_445
Nd4 O30 2.370546 1_555
Nd4 O31 2.370546 1_555
Nd4 O38 2.370546 1_555
Nd4 O37 2.370546 1_555
Nd5 O36 2.370546 1_555
Nd5 O33 2.370546 1_555
Nd5 O39 2.370546 1_455
Nd5 O35 2.370546 1_455
Nd5 O41 2.370546 1_545
Nd5 O40 2.370546 1_545
O0 Si4 1.621096 1_555
O1 Si9 1.621090 1_555
O2 Si10 1.621087 1_455
O3 Si7 1.621087 1_655
O4 Si0 1.621087 1_545
O5 Si11 1.621096 1_555
O6 Si8 1.621090 1_555
O7 Si3 1.621096 1_555
O8 Si6 1.621090 1_555
O9 Si1 1.621090 1_555
O10 Si2 1.621096 1_555
O11 Si5 1.621087 1_565
O12 Si3 1.621096 1_555
O13 Si5 1.621090 1_555
O14 Si6 1.621087 1_655
O15 Si1 1.621087 1_455
O16 Si8 1.621087 1_565
O17 Si2 1.621096 1_555
O18 Si0 1.621090 1_555
O19 Si4 1.621096 1_555
O20 Si10 1.621090 1_555
O21 Si7 1.621090 1_555
O22 Si11 1.621096 1_555
O23 Si9 1.621087 1_545
O24 Si2 1.665943 1_555
O24 Si4 1.665943 1_555
O25 Si7 1.665943 1_655
O25 Si6 1.665943 1_655
O26 Si8 1.665943 1_565
O26 Si5 1.665943 1_565
O27 Si0 1.665943 1_545
O27 Si9 1.665943 1_545
O28 Si1 1.665943 1_455
O28 Si10 1.665943 1_455
O29 Si11 1.665943 1_555
O29 Si3 1.665943 1_555
O30 Si5 1.622642 1_555
O31 Si6 1.622642 1_555
O32 Si3 1.622642 1_555
O33 Si2 1.622642 1_555
O34 Si11 1.622642 1_555
O35 Si0 1.622642 1_545
O36 Si4 1.622642 1_555
O37 Si7 1.622642 1_555
O38 Si8 1.622642 1_555
O39 Si9 1.622642 1_545
O40 Si10 1.622642 1_455
O41 Si1 1.622642 1_455
