# generated using pymatgen
data_Li4Mn5Cr2O12
_symmetry_space_group_name_H-M   'P 1'
_cell_length_a   9.11502900
_cell_length_b   5.14758200
_cell_length_c   10.15204503
_cell_angle_alpha   79.28480105
_cell_angle_beta   90.00000000
_cell_angle_gamma   90.00000000
_symmetry_Int_Tables_number   1
_chemical_formula_structural   Li4Mn5Cr2O12
_chemical_formula_sum   'Li8 Mn10 Cr4 O24'
_cell_volume   468.03194381
_cell_formula_units_Z   2
loop_
 _symmetry_equiv_pos_site_id
 _symmetry_equiv_pos_as_xyz
  1  'x, y, z'
loop_
 _atom_site_type_symbol
 _atom_site_label
 _atom_site_symmetry_multiplicity
 _atom_site_fract_x
 _atom_site_fract_y
 _atom_site_fract_z
 _atom_site_occupancy
  Li  Li0  1  0.91063400  0.00961500  0.73912900  1
  Li  Li1  1  0.92408100  0.49171500  0.26692800  1
  Li  Li2  1  0.58347200  0.76007600  0.50363300  1
  Li  Li3  1  0.58552300  0.50093900  0.26487800  1
  Li  Li4  1  0.41063400  0.99038500  0.26087100  1
  Li  Li5  1  0.42408100  0.50828500  0.73307200  1
  Li  Li6  1  0.08347200  0.23992400  0.49636700  1
  Li  Li7  1  0.08552300  0.49906100  0.73512200  1
  Mn  Mn0  1  0.91399600  0.25049900  0.99797700  1
  Mn  Mn1  1  0.92535700  0.74862000  0.49824400  1
  Mn  Mn2  1  0.75172500  0.99696900  0.26031500  1
  Mn  Mn3  1  0.57898400  0.24888000  0.00498600  1
  Mn  Mn4  1  0.73522000  0.51045700  0.74032900  1
  Mn  Mn5  1  0.42535700  0.25138000  0.50175600  1
  Mn  Mn6  1  0.41399600  0.74950100  0.00202300  1
  Mn  Mn7  1  0.25172500  0.00303100  0.73968500  1
  Mn  Mn8  1  0.23522000  0.48954300  0.25967100  1
  Mn  Mn9  1  0.07898400  0.75112000  0.99501400  1
  Cr  Cr0  1  0.75211400  0.24864000  0.50448300  1
  Cr  Cr1  1  0.74616200  0.75241000  0.99853800  1
  Cr  Cr2  1  0.24616200  0.24759000  0.00146200  1
  Cr  Cr3  1  0.25211400  0.75136000  0.49551700  1
  O  O0  1  0.90551500  0.10722300  0.39165700  1
  O  O1  1  0.91284600  0.87775200  0.10112400  1
  O  O2  1  0.76499600  0.12524800  0.88805700  1
  O  O3  1  0.77377800  0.87628900  0.61064300  1
  O  O4  1  0.89560800  0.60799600  0.88573000  1
  O  O5  1  0.91011600  0.39503300  0.61504700  1
  O  O6  1  0.58610700  0.14096700  0.38987700  1
  O  O7  1  0.77032900  0.61723600  0.38552700  1
  O  O8  1  0.59547400  0.89515500  0.11662400  1
  O  O9  1  0.73253400  0.38537900  0.11746300  1
  O  O10  1  0.57494000  0.60793700  0.89741400  1
  O  O11  1  0.41284600  0.12224800  0.89887600  1
  O  O12  1  0.58486800  0.38103700  0.60941700  1
  O  O13  1  0.40551500  0.89277700  0.60834300  1
  O  O14  1  0.27377800  0.12371100  0.38935700  1
  O  O15  1  0.41011600  0.60496700  0.38495300  1
  O  O16  1  0.26499600  0.87475200  0.11194300  1
  O  O17  1  0.39560800  0.39200400  0.11427000  1
  O  O18  1  0.09547400  0.10484500  0.88337600  1
  O  O19  1  0.23253400  0.61462100  0.88253700  1
  O  O20  1  0.27032900  0.38276400  0.61447300  1
  O  O21  1  0.08610700  0.85903300  0.61012300  1
  O  O22  1  0.08486800  0.61896300  0.39058300  1
  O  O23  1  0.07494000  0.39206300  0.10258600  1
loop_
_geom_bond_atom_site_label_1
_geom_bond_atom_site_label_2
_geom_bond_distance
_geom_bond_site_symmetry_2
Li0 O3 2.015311 1_545
Li0 O5 2.143278 1_555
Li0 O2 2.176489 1_555
Li0 O21 2.291678 1_645
Li0 O4 2.315957 1_545
Li0 O18 2.343147 1_655
Li1 O7 2.029905 1_555
Li1 O22 2.111550 1_655
Li1 O0 2.148803 1_555
Li1 O23 2.292558 1_655
Li1 O1 2.355589 1_555
Li1 O9 2.441160 1_555
Li2 O12 2.044805 1_555
Li2 O6 2.082427 1_565
Li2 O13 2.120801 1_555
Li2 O3 2.188314 1_555
Li2 O15 2.223450 1_555
Li2 O7 2.281891 1_555
Li3 O6 2.041946 1_555
Li3 O15 2.138166 1_555
Li3 O9 2.172607 1_555
Li3 O7 2.229089 1_555
Li3 O8 2.292525 1_555
Li3 O17 2.442884 1_555
Li4 O14 2.015311 1_565
Li4 O15 2.143278 1_555
Li4 O16 2.176489 1_555
Li4 O6 2.291678 1_565
Li4 O17 2.315957 1_565
Li4 O8 2.343147 1_555
Li5 O20 2.029905 1_555
Li5 O12 2.111550 1_555
Li5 O13 2.148803 1_555
Li5 O10 2.292558 1_555
Li5 O11 2.355589 1_555
Li5 O19 2.441160 1_555
Li6 O22 2.044805 1_555
Li6 O21 2.082427 1_545
Li6 O0 2.120801 1_455
Li6 O14 2.188314 1_555
Li6 O5 2.223450 1_455
Li6 O20 2.281891 1_555
Li7 O21 2.041946 1_555
Li7 O5 2.138166 1_455
Li7 O19 2.172607 1_555
Li7 O20 2.229089 1_555
Li7 O18 2.292525 1_555
Li7 O4 2.442884 1_455
Mn0 O2 1.942430 1_555
Mn0 O4 1.983267 1_555
Mn0 O1 2.007757 1_546
Mn0 O23 2.024536 1_656
Mn0 O18 2.230785 1_655
Mn0 O9 2.236626 1_556
Mn1 O0 1.966807 1_565
Mn1 O3 1.980343 1_555
Mn1 O5 1.983850 1_555
Mn1 O21 2.000014 1_655
Mn1 O22 2.006309 1_655
Mn1 O7 2.012815 1_555
Mn2 O0 2.084821 1_565
Mn2 O7 2.131083 1_555
Mn2 O8 2.171493 1_555
Mn2 O6 2.218329 1_565
Mn2 O9 2.247903 1_565
Mn2 O1 2.348207 1_555
Mn3 O8 1.963447 1_545
Mn3 O10 1.964571 1_554
Mn3 O9 2.013663 1_555
Mn3 O11 2.034629 1_554
Mn3 O17 2.207140 1_555
Mn3 O2 2.229305 1_554
Mn4 O12 2.101793 1_555
Mn4 O3 2.116887 1_555
Mn4 O5 2.189313 1_555
Mn4 O4 2.200883 1_555
Mn4 O2 2.269125 1_555
Mn4 O10 2.286247 1_555
Mn5 O13 1.966807 1_545
Mn5 O14 1.980343 1_555
Mn5 O15 1.983850 1_555
Mn5 O6 2.000014 1_555
Mn5 O12 2.006309 1_555
Mn5 O20 2.012815 1_555
Mn6 O16 1.942430 1_555
Mn6 O17 1.983267 1_555
Mn6 O11 2.007757 1_564
Mn6 O10 2.024536 1_554
Mn6 O8 2.230785 1_555
Mn6 O19 2.236626 1_554
Mn7 O13 2.084821 1_545
Mn7 O20 2.131083 1_555
Mn7 O18 2.171493 1_555
Mn7 O21 2.218329 1_545
Mn7 O19 2.247903 1_545
Mn7 O11 2.348207 1_555
Mn8 O22 2.101793 1_555
Mn8 O14 2.116887 1_555
Mn8 O15 2.189313 1_555
Mn8 O17 2.200883 1_555
Mn8 O16 2.269125 1_555
Mn8 O23 2.286247 1_555
Mn9 O18 1.963447 1_565
Mn9 O23 1.964571 1_556
Mn9 O19 2.013663 1_555
Mn9 O1 2.034629 1_456
Mn9 O4 2.207140 1_455
Mn9 O16 2.229305 1_556
Cr0 O3 2.026362 1_545
Cr0 O0 2.026590 1_555
Cr0 O6 2.047033 1_555
Cr0 O12 2.047745 1_555
Cr0 O5 2.053400 1_555
Cr0 O7 2.057661 1_555
Cr1 O4 2.009068 1_555
Cr1 O1 2.014736 1_556
Cr1 O2 2.042156 1_565
Cr1 O8 2.047243 1_556
Cr1 O9 2.048025 1_556
Cr1 O10 2.080067 1_555
Cr2 O17 2.009068 1_555
Cr2 O11 2.014736 1_554
Cr2 O16 2.042156 1_545
Cr2 O18 2.047243 1_554
Cr2 O19 2.048025 1_554
Cr2 O23 2.080067 1_555
Cr3 O14 2.026362 1_565
Cr3 O13 2.026590 1_555
Cr3 O21 2.047033 1_555
Cr3 O22 2.047745 1_555
Cr3 O15 2.053400 1_555
Cr3 O20 2.057661 1_555
