# generated using pymatgen
data_Na8Co5O14
_symmetry_space_group_name_H-M   'P 1'
_cell_length_a   10.32211600
_cell_length_b   8.26357672
_cell_length_c   8.46594093
_cell_angle_alpha   112.55229421
_cell_angle_beta   103.75275409
_cell_angle_gamma   103.28577503
_symmetry_Int_Tables_number   1
_chemical_formula_structural   Na8Co5O14
_chemical_formula_sum   'Na16 Co10 O28'
_cell_volume   604.89400228
_cell_formula_units_Z   2
loop_
 _symmetry_equiv_pos_site_id
 _symmetry_equiv_pos_as_xyz
  1  'x, y, z'
loop_
 _atom_site_type_symbol
 _atom_site_label
 _atom_site_symmetry_multiplicity
 _atom_site_fract_x
 _atom_site_fract_y
 _atom_site_fract_z
 _atom_site_occupancy
  Na  Na0  1  0.66606900  0.01214400  0.44197100  1
  Na  Na1  1  0.00000000  0.00000000  0.00000000  1
  Na  Na2  1  0.64775400  0.15661100  0.15120800  1
  Na  Na3  1  0.36459400  0.16036500  0.29593900  1
  Na  Na4  1  0.01534200  0.10737900  0.37267200  1
  Na  Na5  1  0.41638500  0.29716200  0.70912100  1
  Na  Na6  1  0.47445000  0.38209000  0.10351900  1
  Na  Na7  1  0.12393500  0.43210200  0.56061200  1
  Na  Na8  1  0.50000000  0.50000000  0.50000000  1
  Na  Na9  1  0.87606500  0.56789800  0.43938800  1
  Na  Na10  1  0.52555000  0.61791000  0.89648100  1
  Na  Na11  1  0.58361500  0.70283800  0.29087900  1
  Na  Na12  1  0.98465800  0.89262100  0.62732800  1
  Na  Na13  1  0.63540600  0.83963500  0.70406100  1
  Na  Na14  1  0.35224600  0.84338900  0.84879200  1
  Na  Na15  1  0.33393100  0.98785600  0.55802900  1
  Co  Co0  1  0.74763600  0.17081300  0.86295200  1
  Co  Co1  1  0.06644500  0.22582100  0.79437400  1
  Co  Co2  1  0.76556400  0.33892200  0.60999900  1
  Co  Co3  1  0.10530200  0.33324800  0.16923300  1
  Co  Co4  1  0.83644400  0.47129800  0.03380600  1
  Co  Co5  1  0.16355600  0.52870200  0.96619400  1
  Co  Co6  1  0.89469800  0.66675200  0.83076700  1
  Co  Co7  1  0.23443600  0.66107800  0.39000100  1
  Co  Co8  1  0.93355500  0.77417900  0.20562600  1
  Co  Co9  1  0.25236400  0.82918700  0.13704800  1
  O  O0  1  0.56776400  0.02281600  0.83702000  1
  O  O1  1  0.85657000  0.06474500  0.74990800  1
  O  O2  1  0.60391700  0.19038200  0.62868100  1
  O  O3  1  0.91101800  0.24035600  0.56637600  1
  O  O4  1  0.16787300  0.12533000  0.69365600  1
  O  O5  1  0.90080000  0.18196500  0.10470300  1
  O  O6  1  0.66153500  0.30824000  0.97896200  1
  O  O7  1  0.96251200  0.35215800  0.92733500  1
  O  O8  1  0.64295200  0.34966400  0.39089800  1
  O  O9  1  0.19669800  0.22850300  0.04111400  1
  O  O10  1  0.23477500  0.31128800  0.39290900  1
  O  O11  1  0.98939300  0.52848800  0.73702000  1
  O  O12  1  0.71335200  0.48382100  0.79083200  1
  O  O13  1  0.25457800  0.40980400  0.85328300  1
  O  O14  1  0.74542200  0.59019600  0.14671700  1
  O  O15  1  0.28664800  0.51617900  0.20916800  1
  O  O16  1  0.01060700  0.47151200  0.26298000  1
  O  O17  1  0.76522500  0.68871200  0.60709100  1
  O  O18  1  0.80330200  0.77149700  0.95888600  1
  O  O19  1  0.35704800  0.65033600  0.60910200  1
  O  O20  1  0.03748800  0.64784200  0.07266500  1
  O  O21  1  0.33846500  0.69176000  0.02103800  1
  O  O22  1  0.09920000  0.81803500  0.89529700  1
  O  O23  1  0.83212700  0.87467000  0.30634400  1
  O  O24  1  0.08898200  0.75964400  0.43362400  1
  O  O25  1  0.39608300  0.80961800  0.37131900  1
  O  O26  1  0.14343000  0.93525500  0.25009200  1
  O  O27  1  0.43223600  0.97718400  0.16298000  1
loop_
_geom_bond_atom_site_label_1
_geom_bond_atom_site_label_2
_geom_bond_distance
_geom_bond_site_symmetry_2
Na0 O2 2.051860 1_555
Na0 Na11 2.206413 1_545
Na0 O3 2.465212 1_555
Na0 O23 2.525309 1_545
Na0 O1 2.674409 1_555
Na0 O25 2.687196 1_545
Na0 O27 2.816630 1_545
Na1 O5 2.052340 1_455
Na1 O22 2.052340 1_544
Na1 O9 2.281820 1_555
Na1 O18 2.281820 1_444
Na1 O1 2.589115 1_454
Na1 O26 2.589115 1_545
Na2 O8 2.065474 1_555
Na2 O6 2.266028 1_554
Na2 O0 2.293385 1_554
Na2 O27 2.420734 1_545
Na2 O5 2.705917 1_555
Na3 O27 1.896938 1_545
Na3 O10 2.128566 1_555
Na3 O26 2.428094 1_545
Na3 O8 2.687035 1_555
Na3 O9 2.752666 1_555
Na4 O23 2.141282 1_445
Na4 O3 2.248906 1_455
Na4 O26 2.287483 1_545
Na4 O10 2.416363 1_555
Na4 O5 2.656409 1_455
Na4 O4 2.726631 1_555
Na5 O2 2.437273 1_555
Na5 O13 2.440870 1_555
Na5 O4 2.576256 1_555
Na5 O12 2.873006 1_555
Na5 O6 2.935126 1_555
Na5 O10 2.940828 1_555
Na6 O6 2.495962 1_554
Na6 O15 2.614772 1_555
Na6 O9 2.683772 1_555
Na6 O8 2.778202 1_555
Na6 O14 2.781156 1_555
Na6 O13 2.831300 1_554
Na7 O10 2.128728 1_555
Na7 O11 2.318529 1_455
Na7 O3 2.419281 1_455
Na7 O19 2.485695 1_555
Na7 O13 2.620565 1_555
Na7 O16 2.688234 1_555
Na8 O8 2.276873 1_555
Na8 O19 2.276873 1_555
Na8 O10 2.553801 1_555
Na8 O17 2.553801 1_555
Na9 O17 2.128728 1_555
Na9 O16 2.318529 1_655
Na9 O24 2.419281 1_655
Na9 O8 2.485695 1_555
Na9 O14 2.620565 1_555
Na9 O11 2.688234 1_555
Na10 Na5 2.315941 1_555
Na10 O21 2.495962 1_556
Na10 O12 2.614772 1_555
Na10 O18 2.683772 1_555
Na10 O19 2.778202 1_555
Na10 O13 2.781156 1_555
Na10 O14 2.831300 1_556
Na11 Na6 2.315941 1_555
Na11 O25 2.437273 1_555
Na11 O14 2.440870 1_555
Na11 O23 2.576256 1_555
Na11 O15 2.873006 1_555
Na11 O21 2.935126 1_555
Na11 O17 2.940828 1_555
Na12 O4 2.141282 1_665
Na12 O24 2.248906 1_655
Na12 O1 2.287483 1_565
Na12 O17 2.416363 1_555
Na12 O22 2.656409 1_655
Na12 O23 2.726631 1_555
Na13 O0 1.896938 1_565
Na13 O17 2.128566 1_555
Na13 O1 2.428094 1_565
Na13 O19 2.687035 1_555
Na13 O18 2.752666 1_555
Na14 O19 2.065474 1_555
Na14 O21 2.266028 1_556
Na14 O27 2.293385 1_556
Na14 O0 2.420734 1_565
Na14 O22 2.705917 1_555
Na15 O25 2.051860 1_555
Na15 Na5 2.206413 1_565
Na15 O24 2.465212 1_555
Na15 O4 2.525309 1_565
Na15 O26 2.674409 1_555
Na15 O2 2.687196 1_565
Na15 O0 2.816630 1_565
Co0 O6 1.751428 1_555
Co0 O1 1.808229 1_555
Co0 O0 1.883530 1_555
Co0 O7 2.175588 1_555
Co0 O5 2.224107 1_556
Co0 O2 2.262254 1_555
Co1 O4 1.671425 1_555
Co1 O7 1.922353 1_455
Co1 O13 1.982987 1_555
Co1 O1 2.123465 1_455
Co1 O9 2.187931 1_556
Co1 O3 2.260106 1_455
Co2 O12 1.830494 1_555
Co2 O2 1.910178 1_555
Co2 O3 1.910225 1_555
Co2 O8 2.027817 1_555
Co2 O11 2.193473 1_555
Co2 Na0 2.335479 1_555
Co3 O9 1.719701 1_555
Co3 O16 1.754229 1_555
Co3 O15 1.977340 1_555
Co3 O5 2.008012 1_455
Co3 O10 2.139300 1_555
Co3 O7 2.303659 1_454
Co3 Na1 2.382248 1_555
Co4 O14 1.700798 1_555
Co4 O6 1.814990 1_554
Co4 O7 1.985182 1_554
Co4 O20 2.111589 1_655
Co4 O12 2.199403 1_554
Co4 O16 2.309467 1_655
Co5 O13 1.700798 1_555
Co5 O21 1.814990 1_556
Co5 O20 1.985182 1_556
Co5 O7 2.111589 1_455
Co5 O15 2.199403 1_556
Co5 O11 2.309467 1_455
Co6 O18 1.719701 1_555
Co6 O11 1.754229 1_555
Co6 O12 1.977340 1_555
Co6 O22 2.008012 1_655
Co6 O17 2.139300 1_555
Co6 O20 2.303659 1_656
Co6 Na1 2.382248 1_666
Co7 O15 1.830494 1_555
Co7 O25 1.910178 1_555
Co7 O24 1.910225 1_555
Co7 O19 2.027817 1_555
Co7 O16 2.193473 1_555
Co7 Na15 2.335479 1_555
Co8 O23 1.671425 1_555
Co8 O20 1.922353 1_655
Co8 O14 1.982987 1_555
Co8 O26 2.123465 1_655
Co8 O18 2.187931 1_554
Co8 O24 2.260106 1_655
Co9 O21 1.751428 1_555
Co9 O26 1.808229 1_555
Co9 O27 1.883530 1_555
Co9 O20 2.175588 1_555
Co9 O22 2.224107 1_554
Co9 O25 2.262254 1_555
