# generated using pymatgen
data_MnCo3O8
_symmetry_space_group_name_H-M   'P 1'
_cell_length_a   8.04414000
_cell_length_b   8.04414000
_cell_length_c   8.04414000
_cell_angle_alpha   90.00000000
_cell_angle_beta   90.00000000
_cell_angle_gamma   90.00000000
_symmetry_Int_Tables_number   1
_chemical_formula_structural   MnCo3O8
_chemical_formula_sum   'Mn4 Co12 O32'
_cell_volume   520.52172615
_cell_formula_units_Z   4
loop_
 _symmetry_equiv_pos_site_id
 _symmetry_equiv_pos_as_xyz
  1  'x, y, z'
loop_
 _atom_site_type_symbol
 _atom_site_label
 _atom_site_symmetry_multiplicity
 _atom_site_fract_x
 _atom_site_fract_y
 _atom_site_fract_z
 _atom_site_occupancy
  Mn  Mn0  1  0.12500000  0.87500000  0.37500000  1
  Mn  Mn1  1  0.37500000  0.12500000  0.87500000  1
  Mn  Mn2  1  0.62500000  0.62500000  0.62500000  1
  Mn  Mn3  1  0.87500000  0.37500000  0.12500000  1
  Co  Co0  1  0.12235900  0.12764100  0.62500000  1
  Co  Co1  1  0.12500000  0.37764100  0.87235900  1
  Co  Co2  1  0.12764100  0.62500000  0.12235900  1
  Co  Co3  1  0.37235900  0.37500000  0.62235900  1
  Co  Co4  1  0.37500000  0.62235900  0.37235900  1
  Co  Co5  1  0.37764100  0.87235900  0.12500000  1
  Co  Co6  1  0.62235900  0.37235900  0.37500000  1
  Co  Co7  1  0.62500000  0.12235900  0.12764100  1
  Co  Co8  1  0.62764100  0.87500000  0.87764100  1
  Co  Co9  1  0.87235900  0.12500000  0.37764100  1
  Co  Co10  1  0.87500000  0.87764100  0.62764100  1
  Co  Co11  1  0.87764100  0.62764100  0.87500000  1
  O  O0  1  0.10668700  0.11613900  0.39195100  1
  O  O1  1  0.10804900  0.89331300  0.61613900  1
  O  O2  1  0.11225800  0.61225800  0.88774200  1
  O  O3  1  0.13386100  0.14331300  0.85804900  1
  O  O4  1  0.11613900  0.39195100  0.10668700  1
  O  O5  1  0.13774200  0.36225800  0.63774200  1
  O  O6  1  0.14195100  0.63386100  0.35668700  1
  O  O7  1  0.14331300  0.85804900  0.13386100  1
  O  O8  1  0.35668700  0.14195100  0.63386100  1
  O  O9  1  0.35804900  0.36613900  0.85668700  1
  O  O10  1  0.36225800  0.63774200  0.13774200  1
  O  O11  1  0.38386100  0.60804900  0.60668700  1
  O  O12  1  0.36613900  0.85668700  0.35804900  1
  O  O13  1  0.38774200  0.38774200  0.38774200  1
  O  O14  1  0.39195100  0.10668700  0.11613900  1
  O  O15  1  0.39331300  0.88386100  0.89195100  1
  O  O16  1  0.60668700  0.38386100  0.60804900  1
  O  O17  1  0.60804900  0.60668700  0.38386100  1
  O  O18  1  0.61225800  0.88774200  0.11225800  1
  O  O19  1  0.63386100  0.35668700  0.14195100  1
  O  O20  1  0.61613900  0.10804900  0.89331300  1
  O  O21  1  0.63774200  0.13774200  0.36225800  1
  O  O22  1  0.64195100  0.86613900  0.64331300  1
  O  O23  1  0.64331300  0.64195100  0.86613900  1
  O  O24  1  0.85668700  0.35804900  0.36613900  1
  O  O25  1  0.85804900  0.13386100  0.14331300  1
  O  O26  1  0.86225800  0.86225800  0.86225800  1
  O  O27  1  0.88386100  0.89195100  0.39331300  1
  O  O28  1  0.86613900  0.64331300  0.64195100  1
  O  O29  1  0.88774200  0.11225800  0.61225800  1
  O  O30  1  0.89195100  0.39331300  0.88386100  1
  O  O31  1  0.89331300  0.61613900  0.10804900  1
loop_
_geom_bond_atom_site_label_1
_geom_bond_atom_site_label_2
_geom_bond_distance
_geom_bond_site_symmetry_2
Mn0 O0 1.950115 1_565
Mn0 O27 1.950115 1_455
Mn0 O7 1.950115 1_555
Mn0 O12 1.950115 1_555
Mn0 O1 1.950115 1_555
Mn0 O6 1.950115 1_555
Mn1 O14 1.950115 1_556
Mn1 O15 1.950115 1_545
Mn1 O9 1.950115 1_555
Mn1 O3 1.950115 1_555
Mn1 O20 1.950115 1_555
Mn1 O8 1.950115 1_555
Mn2 O22 1.950115 1_555
Mn2 O28 1.950115 1_555
Mn2 O23 1.950115 1_555
Mn2 O16 1.950115 1_555
Mn2 O17 1.950115 1_555
Mn2 O11 1.950115 1_555
Mn3 O4 1.950115 1_655
Mn3 O30 1.950115 1_554
Mn3 O31 1.950115 1_555
Mn3 O19 1.950115 1_555
Mn3 O24 1.950115 1_555
Mn3 O25 1.950115 1_555
Co0 O3 1.881190 1_555
Co0 O0 1.881190 1_555
Co0 O8 1.889824 1_555
Co0 O1 1.889824 1_545
Co0 O5 1.894120 1_555
Co0 O29 1.894120 1_455
Co1 O9 1.881190 1_555
Co1 O30 1.881190 1_455
Co1 O4 1.889824 1_556
Co1 O3 1.889824 1_555
Co1 O2 1.894120 1_555
Co1 O5 1.894120 1_555
Co2 O7 1.881190 1_555
Co2 O4 1.881190 1_555
Co2 O6 1.889824 1_555
Co2 O31 1.889824 1_455
Co2 O10 1.894120 1_555
Co2 O2 1.894120 1_554
Co3 O11 1.881190 1_555
Co3 O8 1.881190 1_555
Co3 O16 1.889824 1_555
Co3 O9 1.889824 1_555
Co3 O5 1.894120 1_555
Co3 O13 1.894120 1_555
Co4 O17 1.881190 1_555
Co4 O6 1.881190 1_555
Co4 O11 1.889824 1_555
Co4 O12 1.889824 1_555
Co4 O10 1.894120 1_555
Co4 O13 1.894120 1_555
Co5 O12 1.881190 1_555
Co5 O15 1.881190 1_554
Co5 O14 1.889824 1_565
Co5 O7 1.889824 1_555
Co5 O18 1.894120 1_555
Co5 O10 1.894120 1_555
Co6 O16 1.881190 1_555
Co6 O19 1.881190 1_555
Co6 O17 1.889824 1_555
Co6 O24 1.889824 1_555
Co6 O21 1.894120 1_555
Co6 O13 1.894120 1_555
Co7 O25 1.881190 1_555
Co7 O14 1.881190 1_555
Co7 O19 1.889824 1_555
Co7 O20 1.889824 1_554
Co7 O21 1.894120 1_555
Co7 O18 1.894120 1_545
Co8 O20 1.881190 1_565
Co8 O23 1.881190 1_555
Co8 O22 1.889824 1_555
Co8 O15 1.889824 1_555
Co8 O18 1.894120 1_556
Co8 O26 1.894120 1_555
Co9 O24 1.881190 1_555
Co9 O27 1.881190 1_545
Co9 O0 1.889824 1_655
Co9 O25 1.889824 1_555
Co9 O29 1.894120 1_555
Co9 O21 1.894120 1_555
Co10 O1 1.881190 1_655
Co10 O22 1.881190 1_555
Co10 O28 1.889824 1_555
Co10 O27 1.889824 1_555
Co10 O29 1.894120 1_565
Co10 O26 1.894120 1_555
Co11 O31 1.881190 1_556
Co11 O28 1.881190 1_555
Co11 O23 1.889824 1_555
Co11 O30 1.889824 1_555
Co11 O2 1.894120 1_655
Co11 O26 1.894120 1_555
