# generated using pymatgen
data_CdAu3
_symmetry_space_group_name_H-M   'P 1'
_cell_length_a   5.84223043
_cell_length_b   5.84223010
_cell_length_c   4.89260354
_cell_angle_alpha   90.00000000
_cell_angle_beta   90.00000000
_cell_angle_gamma   120.00000194
_symmetry_Int_Tables_number   1
_chemical_formula_structural   CdAu3
_chemical_formula_sum   'Cd2 Au6'
_cell_volume   144.61987726
_cell_formula_units_Z   2
loop_
 _symmetry_equiv_pos_site_id
 _symmetry_equiv_pos_as_xyz
  1  'x, y, z'
loop_
 _atom_site_type_symbol
 _atom_site_label
 _atom_site_symmetry_multiplicity
 _atom_site_fract_x
 _atom_site_fract_y
 _atom_site_fract_z
 _atom_site_occupancy
  Cd  Cd0  1  0.33333300  0.66666700  0.74999800  1
  Cd  Cd1  1  0.66666600  0.33333200  0.24999900  1
  Au  Au0  1  0.16628779  0.33257358  0.24999900  1
  Au  Au1  1  0.66742542  0.83371121  0.24999900  1
  Au  Au2  1  0.16628779  0.83371121  0.24999900  1
  Au  Au3  1  0.83371321  0.66742542  0.74999800  1
  Au  Au4  1  0.33257658  0.16628879  0.74999800  1
  Au  Au5  1  0.83371321  0.16628879  0.74999800  1
loop_
_geom_bond_atom_site_label_1
_geom_bond_atom_site_label_2
_geom_bond_distance
_geom_bond_site_symmetry_2
Au0 Cd1 2.921112 1_555
Au0 Cd1 2.921124 1_455
Au0 Cd0 2.973493 1_555
Au0 Cd0 2.973501 1_554
Au1 Cd1 2.921115 1_555
Au1 Cd1 2.921120 1_565
Au1 Cd0 2.973490 1_555
Au1 Cd0 2.973498 1_554
Au2 Cd1 2.921115 1_565
Au2 Cd1 2.921120 1_455
Au2 Cd0 2.973481 1_555
Au2 Cd0 2.973489 1_554
Au3 Cd0 2.921112 1_655
Au3 Cd0 2.921124 1_555
Au3 Cd1 2.973493 1_555
Au3 Cd1 2.973501 1_556
Au4 Cd0 2.921118 1_555
Au4 Cd0 2.921118 1_545
Au4 Cd1 2.973481 1_555
Au4 Cd1 2.973489 1_556
Au5 Cd0 2.921112 1_655
Au5 Cd0 2.921123 1_545
Au5 Cd1 2.973484 1_555
Au5 Cd1 2.973492 1_556
