# generated using pymatgen
data_K2CoSe2
_symmetry_space_group_name_H-M   'P 1'
_cell_length_a   8.13370581
_cell_length_b   8.13370581
_cell_length_c   8.13370581
_cell_angle_alpha   134.92734995
_cell_angle_beta   128.73360274
_cell_angle_gamma   70.61526221
_symmetry_Int_Tables_number   1
_chemical_formula_structural   K2CoSe2
_chemical_formula_sum   'K4 Co2 Se4'
_cell_volume   291.23686869
_cell_formula_units_Z   2
loop_
 _symmetry_equiv_pos_site_id
 _symmetry_equiv_pos_as_xyz
  1  'x, y, z'
loop_
 _atom_site_type_symbol
 _atom_site_label
 _atom_site_symmetry_multiplicity
 _atom_site_fract_x
 _atom_site_fract_y
 _atom_site_fract_z
 _atom_site_occupancy
  K  K0  1  0.81678800  0.14415700  0.67263200  1
  K  K1  1  0.18321200  0.85584300  0.32736800  1
  K  K2  1  0.52847500  0.35584300  0.17263200  1
  K  K3  1  0.47152500  0.64415700  0.82736800  1
  Co  Co0  1  0.00000000  0.75000000  0.75000000  1
  Co  Co1  1  0.00000000  0.25000000  0.25000000  1
  Se  Se0  1  0.71420400  0.89849500  0.81570900  1
  Se  Se1  1  0.28579600  0.10150500  0.18429100  1
  Se  Se2  1  0.91721500  0.60150500  0.31570900  1
  Se  Se3  1  0.08278500  0.39849500  0.68429100  1
loop_
_geom_bond_atom_site_label_1
_geom_bond_atom_site_label_2
_geom_bond_distance
_geom_bond_site_symmetry_2
K0 Se2 3.324539 1_556
K0 Se2 3.324551 1_545
K0 Se3 3.377383 1_655
K0 Se0 3.413106 1_545
K0 Se1 3.482986 1_555
K0 Se1 3.645006 1_656
K1 Se3 3.324539 1_554
K1 Se3 3.324551 1_565
K1 Se2 3.377383 1_455
K1 Se1 3.413106 1_565
K1 Se0 3.482986 1_555
K1 Se0 3.645006 1_454
K2 Se0 3.324545 1_544
K2 Se0 3.324545 1_555
K2 Se1 3.377383 1_555
K2 Se2 3.413119 1_555
K2 Se3 3.482993 1_554
K2 Se3 3.644999 1_655
K3 Se1 3.324545 1_566
K3 Se1 3.324545 1_555
K3 Se0 3.377383 1_555
K3 Se3 3.413119 1_555
K3 Se2 3.482993 1_556
K3 Se2 3.644999 1_455
Co0 Se3 2.434610 1_555
Co0 Se1 2.434611 1_566
Co0 Se0 2.434611 1_455
Co0 Se2 2.434614 1_455
Co0 K1 3.376304 1_556
Co0 K3 3.376306 1_555
Co0 K2 3.376306 1_455
Co0 K0 3.376307 1_465
Co1 Se2 2.434610 1_455
Co1 Se1 2.434611 1_555
Co1 Se0 2.434611 1_444
Co1 Se3 2.434614 1_555
Co1 K0 3.376304 1_454
Co1 K3 3.376306 1_555
Co1 K2 3.376306 1_455
Co1 K1 3.376307 1_545
