# generated using pymatgen
data_PrMgHg2
_symmetry_space_group_name_H-M   'P 1'
_cell_length_a   5.17814417
_cell_length_b   5.17814426
_cell_length_c   5.17814414
_cell_angle_alpha   59.99951769
_cell_angle_beta   59.99951873
_cell_angle_gamma   59.99951860
_symmetry_Int_Tables_number   1
_chemical_formula_structural   PrMgHg2
_chemical_formula_sum   'Pr1 Mg1 Hg2'
_cell_volume   98.17539967
_cell_formula_units_Z   1
loop_
 _symmetry_equiv_pos_site_id
 _symmetry_equiv_pos_as_xyz
  1  'x, y, z'
loop_
 _atom_site_type_symbol
 _atom_site_label
 _atom_site_symmetry_multiplicity
 _atom_site_fract_x
 _atom_site_fract_y
 _atom_site_fract_z
 _atom_site_occupancy
  Pr  Pr0  1  0.75000076  0.75000076  0.75000075  1
  Mg  Mg0  1  0.25000000  0.25000000  0.25000004  1
  Hg  Hg0  1  -0.00000036  -0.00000035  -0.00000037  1
  Hg  Hg1  1  0.49999959  0.49999959  0.49999958  1
loop_
_geom_bond_atom_site_label_1
_geom_bond_atom_site_label_2
_geom_bond_distance
_geom_bond_site_symmetry_2
Hg0 Mg0 3.170932 1_554
Hg0 Mg0 3.170932 1_455
Hg0 Mg0 3.170932 1_545
Hg0 Pr0 3.170938 1_445
Hg0 Pr0 3.170938 1_454
Hg0 Pr0 3.170938 1_544
Hg0 Pr0 3.170950 1_444
Hg0 Mg0 3.170969 1_555
Hg1 Pr0 3.170929 1_554
Hg1 Pr0 3.170929 1_455
Hg1 Pr0 3.170929 1_545
Hg1 Mg0 3.170935 1_655
Hg1 Mg0 3.170935 1_565
Hg1 Mg0 3.170935 1_556
Hg1 Mg0 3.170959 1_555
Hg1 Pr0 3.170979 1_555
