# generated using pymatgen
data_MnV2(PbO4)2
_symmetry_space_group_name_H-M   'P 1'
_cell_length_a   6.63760200
_cell_length_b   7.48904039
_cell_length_c   9.13010471
_cell_angle_alpha   112.51762742
_cell_angle_beta   89.99722357
_cell_angle_gamma   90.00336981
_symmetry_Int_Tables_number   1
_chemical_formula_structural   MnV2(PbO4)2
_chemical_formula_sum   'Mn2 V4 Pb4 O16'
_cell_volume   419.25004281
_cell_formula_units_Z   2
loop_
 _symmetry_equiv_pos_site_id
 _symmetry_equiv_pos_as_xyz
  1  'x, y, z'
loop_
 _atom_site_type_symbol
 _atom_site_label
 _atom_site_symmetry_multiplicity
 _atom_site_fract_x
 _atom_site_fract_y
 _atom_site_fract_z
 _atom_site_occupancy
  Mn  Mn0  1  0.49992700  0.00025600  0.99983600  1
  Mn  Mn1  1  0.99945000  0.99945100  0.00005400  1
  V  V0  1  0.25002400  0.55449400  0.84798600  1
  V  V1  1  0.74993600  0.44564000  0.15202600  1
  V  V2  1  0.24994800  0.95451000  0.66564600  1
  V  V3  1  0.74994400  0.04547900  0.33439300  1
  Pb  Pb0  1  0.25005000  0.73530000  0.26115000  1
  Pb  Pb1  1  0.74996000  0.26438400  0.73873100  1
  Pb  Pb2  1  0.25037000  0.35191100  0.47643800  1
  Pb  Pb3  1  0.75037200  0.64806200  0.52357700  1
  O  O0  1  0.24976900  0.71170300  0.54077900  1
  O  O1  1  0.74984900  0.28835900  0.45925500  1
  O  O2  1  0.25005400  0.07003900  0.53474300  1
  O  O3  1  0.74998600  0.93007300  0.46535500  1
  O  O4  1  0.25011600  0.45595200  0.98648800  1
  O  O5  1  0.74995800  0.54415600  0.01351100  1
  O  O6  1  0.24987300  0.81304400  0.95307700  1
  O  O7  1  0.74984800  0.18710400  0.04692200  1
  O  O8  1  0.47261700  0.01229400  0.78078500  1
  O  O9  1  0.52768900  0.98765900  0.21891600  1
  O  O10  1  0.97251800  0.98768500  0.21917800  1
  O  O11  1  0.02760700  0.01235700  0.78108400  1
  O  O12  1  0.45731100  0.47610300  0.71754600  1
  O  O13  1  0.54273700  0.52408200  0.28256000  1
  O  O14  1  0.95725300  0.52397700  0.28243300  1
  O  O15  1  0.04283500  0.47592500  0.71753000  1
loop_
_geom_bond_atom_site_label_1
_geom_bond_atom_site_label_2
_geom_bond_distance
_geom_bond_site_symmetry_2
Mn0 O8 2.044250 1_555
Mn0 O9 2.046538 1_546
Mn0 O7 2.105658 1_556
Mn0 O6 2.108106 1_545
Mn1 O10 2.043822 1_555
Mn1 O11 2.046732 1_664
Mn1 O6 2.106498 1_654
Mn1 O7 2.107734 1_565
O0 V2 1.737364 1_555
O0 Pb2 2.528448 1_555
O0 Pb0 2.625800 1_555
O1 V3 1.737787 1_555
O1 Pb3 2.527827 1_555
O1 Pb1 2.625651 1_555
O2 V2 1.723077 1_545
O2 Pb2 2.366473 1_555
O2 Pb0 2.779891 1_545
O3 V3 1.722847 1_565
O3 Pb3 2.367062 1_555
O3 Pb1 2.777008 1_565
O4 V0 1.690697 1_555
O4 Pb0 2.578164 1_556
O5 V1 1.690665 1_555
O5 Pb1 2.580272 1_554
O6 V0 1.801903 1_555
O7 V1 1.801825 1_555
O8 V2 1.768741 1_545
O8 Pb1 2.766813 1_555
O9 V3 1.767999 1_565
O9 Pb0 2.770259 1_555
O10 V3 1.768520 1_565
O10 Pb0 2.769146 1_655
O11 V2 1.768257 1_545
O11 Pb1 2.769074 1_455
O12 V0 1.766483 1_555
O12 Pb2 2.455536 1_555
O12 Pb1 2.561251 1_555
O13 V1 1.766526 1_555
O13 Pb3 2.457436 1_555
O13 Pb0 2.559655 1_555
O14 V1 1.766480 1_555
O14 Pb3 2.455474 1_555
O14 Pb0 2.560200 1_655
O15 V0 1.766192 1_555
O15 Pb2 2.457529 1_555
O15 Pb1 2.561416 1_455
