# generated using pymatgen
data_CaB2(H7N)2
_symmetry_space_group_name_H-M   'P 1'
_cell_length_a   6.39161900
_cell_length_b   8.21570800
_cell_length_c   12.21028300
_cell_angle_alpha   90.00000000
_cell_angle_beta   90.00000000
_cell_angle_gamma   90.00000000
_symmetry_Int_Tables_number   1
_chemical_formula_structural   CaB2(H7N)2
_chemical_formula_sum   'Ca4 B8 H56 N8'
_cell_volume   641.18241684
_cell_formula_units_Z   4
loop_
 _symmetry_equiv_pos_site_id
 _symmetry_equiv_pos_as_xyz
  1  'x, y, z'
loop_
 _atom_site_type_symbol
 _atom_site_label
 _atom_site_symmetry_multiplicity
 _atom_site_fract_x
 _atom_site_fract_y
 _atom_site_fract_z
 _atom_site_occupancy
  Ca  Ca0  1  0.00000000  0.24314200  0.25000000  1
  Ca  Ca1  1  0.50000000  0.25685800  0.75000000  1
  Ca  Ca2  1  0.00000000  0.75685800  0.75000000  1
  Ca  Ca3  1  0.50000000  0.74314200  0.25000000  1
  B  B0  1  0.76626100  0.52133400  0.15341700  1
  B  B1  1  0.73373900  0.97866600  0.65341700  1
  B  B2  1  0.26626100  0.97866600  0.84658300  1
  B  B3  1  0.23373900  0.52133400  0.34658300  1
  B  B4  1  0.23373900  0.47866600  0.84658300  1
  B  B5  1  0.26626100  0.02133400  0.34658300  1
  B  B6  1  0.73373900  0.02133400  0.15341700  1
  B  B7  1  0.76626100  0.47866600  0.65341700  1
  H  H0  1  0.81858000  0.33526800  0.66139200  1
  H  H1  1  0.68142000  0.16473200  0.16139200  1
  H  H2  1  0.31858000  0.16473200  0.33860800  1
  H  H3  1  0.18142000  0.33526800  0.83860800  1
  H  H4  1  0.18142000  0.66473200  0.33860800  1
  H  H5  1  0.31858000  0.83526800  0.83860800  1
  H  H6  1  0.68142000  0.83526800  0.66139200  1
  H  H7  1  0.81858000  0.66473200  0.16139200  1
  H  H8  1  0.60620600  0.48916600  0.59858600  1
  H  H9  1  0.89379400  0.01083400  0.09858600  1
  H  H10  1  0.10620600  0.01083400  0.40141400  1
  H  H11  1  0.39379400  0.48916600  0.90141400  1
  H  H12  1  0.39379400  0.51083400  0.40141400  1
  H  H13  1  0.10620600  0.98916600  0.90141400  1
  H  H14  1  0.89379400  0.98916600  0.59858600  1
  H  H15  1  0.60620600  0.51083400  0.09858600  1
  H  H16  1  0.28181400  0.35235700  0.05204400  1
  H  H17  1  0.21818600  0.14764300  0.55204400  1
  H  H18  1  0.78181400  0.14764300  0.94795600  1
  H  H19  1  0.71818600  0.35235700  0.44795600  1
  H  H20  1  0.71818600  0.64764300  0.94795600  1
  H  H21  1  0.78181400  0.85235700  0.44795600  1
  H  H22  1  0.21818600  0.85235700  0.05204400  1
  H  H23  1  0.28181400  0.64764300  0.55204400  1
  H  H24  1  0.78193800  0.83380800  0.97603500  1
  H  H25  1  0.71806200  0.66619200  0.47603500  1
  H  H26  1  0.28193800  0.66619200  0.02396500  1
  H  H27  1  0.21806200  0.83380800  0.52396500  1
  H  H28  1  0.21806200  0.16619200  0.02396500  1
  H  H29  1  0.28193800  0.33380800  0.52396500  1
  H  H30  1  0.71806200  0.33380800  0.97603500  1
  H  H31  1  0.78193800  0.16619200  0.47603500  1
  H  H32  1  0.89868200  0.29753300  0.88495500  1
  H  H33  1  0.60131800  0.20246700  0.38495500  1
  H  H34  1  0.39868200  0.20246700  0.11504500  1
  H  H35  1  0.10131800  0.29753300  0.61504500  1
  H  H36  1  0.10131800  0.70246700  0.11504500  1
  H  H37  1  0.39868200  0.79753300  0.61504500  1
  H  H38  1  0.60131800  0.79753300  0.88495500  1
  H  H39  1  0.89868200  0.70246700  0.38495500  1
  H  H40  1  0.72971000  0.53181900  0.74538000  1
  H  H41  1  0.77029000  0.96818100  0.24538000  1
  H  H42  1  0.22971000  0.96818100  0.25462000  1
  H  H43  1  0.27029000  0.53181900  0.75462000  1
  H  H44  1  0.27029000  0.46818100  0.25462000  1
  H  H45  1  0.22971000  0.03181900  0.75462000  1
  H  H46  1  0.77029000  0.03181900  0.74538000  1
  H  H47  1  0.72971000  0.46818100  0.24538000  1
  H  H48  1  0.90894700  0.55212300  0.60889700  1
  H  H49  1  0.59105300  0.94787700  0.10889700  1
  H  H50  1  0.40894700  0.94787700  0.39110300  1
  H  H51  1  0.09105300  0.55212300  0.89110300  1
  H  H52  1  0.09105300  0.44787700  0.39110300  1
  H  H53  1  0.40894700  0.05212300  0.89110300  1
  H  H54  1  0.59105300  0.05212300  0.60889700  1
  H  H55  1  0.90894700  0.44787700  0.10889700  1
  N  N0  1  0.25480900  0.24173400  0.08795000  1
  N  N1  1  0.24519100  0.25826600  0.58795000  1
  N  N2  1  0.75480900  0.25826600  0.91205000  1
  N  N3  1  0.74519100  0.24173400  0.41205000  1
  N  N4  1  0.74519100  0.75826600  0.91205000  1
  N  N5  1  0.75480900  0.74173400  0.41205000  1
  N  N6  1  0.24519100  0.74173400  0.08795000  1
  N  N7  1  0.25480900  0.75826600  0.58795000  1
loop_
_geom_bond_atom_site_label_1
_geom_bond_atom_site_label_2
_geom_bond_distance
_geom_bond_site_symmetry_2
Ca0 H2 2.394125 1_555
Ca0 H1 2.394125 1_455
Ca0 H52 2.477171 1_555
Ca0 H55 2.477171 1_455
Ca0 H47 2.531011 1_455
Ca0 H44 2.531011 1_555
Ca0 N0 2.562766 1_555
Ca0 N3 2.562766 1_455
Ca0 H41 2.694796 1_445
Ca0 H42 2.694796 1_545
Ca0 H10 2.742545 1_555
Ca0 H9 2.742545 1_455
Ca1 H3 2.394125 1_555
Ca1 H0 2.394125 1_555
Ca1 H54 2.477171 1_555
Ca1 H53 2.477171 1_555
Ca1 H46 2.531011 1_555
Ca1 H45 2.531011 1_555
Ca1 N1 2.562766 1_555
Ca1 N2 2.562766 1_555
Ca1 H43 2.694796 1_555
Ca1 H40 2.694796 1_555
Ca1 H11 2.742545 1_555
Ca1 H8 2.742545 1_555
Ca2 H5 2.394125 1_555
Ca2 H6 2.394125 1_455
Ca2 H51 2.477171 1_555
Ca2 H48 2.477171 1_455
Ca2 H43 2.531011 1_555
Ca2 H40 2.531011 1_455
Ca2 N7 2.562766 1_555
Ca2 N4 2.562766 1_455
Ca2 H46 2.694796 1_465
Ca2 H45 2.694796 1_565
Ca2 H13 2.742545 1_555
Ca2 H14 2.742545 1_455
Ca3 H4 2.394125 1_555
Ca3 H7 2.394125 1_555
Ca3 H49 2.477171 1_555
Ca3 H50 2.477171 1_555
Ca3 H41 2.531011 1_555
Ca3 H42 2.531011 1_555
Ca3 N5 2.562766 1_555
Ca3 N6 2.562766 1_555
Ca3 H44 2.694796 1_555
Ca3 H47 2.694796 1_555
Ca3 H15 2.742545 1_555
Ca3 H12 2.742545 1_555
B0 H55 1.221250 1_555
B0 H15 1.225653 1_555
B0 H47 1.227260 1_555
B0 H7 1.228522 1_555
B1 H54 1.221250 1_565
B1 H14 1.225653 1_555
B1 H46 1.227260 1_565
B1 H6 1.228522 1_555
B2 H53 1.221250 1_565
B2 H13 1.225653 1_555
B2 H45 1.227260 1_565
B2 H5 1.228522 1_555
B3 H52 1.221250 1_555
B3 H12 1.225653 1_555
B3 H44 1.227260 1_555
B3 H4 1.228522 1_555
B4 H51 1.221250 1_555
B4 H11 1.225653 1_555
B4 H43 1.227260 1_555
B4 H3 1.228522 1_555
B5 H50 1.221250 1_545
B5 H10 1.225653 1_555
B5 H42 1.227260 1_545
B5 H2 1.228522 1_555
B6 H49 1.221250 1_545
B6 H9 1.225653 1_555
B6 H41 1.227260 1_545
B6 H1 1.228522 1_555
B7 H48 1.221250 1_555
B7 H8 1.225653 1_555
B7 H40 1.227260 1_555
B7 H0 1.228522 1_555
H16 N0 1.023723 1_555
H17 N1 1.023723 1_555
H18 N2 1.023723 1_555
H19 N3 1.023723 1_555
H20 N4 1.023723 1_555
H21 N5 1.023723 1_555
H22 N6 1.023723 1_555
H23 N7 1.023723 1_555
H24 N4 1.025055 1_555
H25 N5 1.025055 1_555
H26 N6 1.025055 1_555
H27 N7 1.025055 1_555
H28 N0 1.025055 1_555
H29 N1 1.025055 1_555
H30 N2 1.025055 1_555
H31 N3 1.025055 1_555
H32 N2 1.029154 1_555
H33 N3 1.029154 1_555
H34 N0 1.029154 1_555
H35 N1 1.029154 1_555
H36 N6 1.029154 1_555
H37 N7 1.029154 1_555
H38 N4 1.029154 1_555
H39 N5 1.029154 1_555
