# generated using pymatgen
data_Pr2MgTl
_symmetry_space_group_name_H-M   'P 1'
_cell_length_a   5.53845012
_cell_length_b   5.53845012
_cell_length_c   5.53845012
_cell_angle_alpha   60.00000000
_cell_angle_beta   60.00000000
_cell_angle_gamma   60.00000000
_symmetry_Int_Tables_number   1
_chemical_formula_structural   Pr2MgTl
_chemical_formula_sum   'Pr2 Mg1 Tl1'
_cell_volume   120.12952211
_cell_formula_units_Z   1
loop_
 _symmetry_equiv_pos_site_id
 _symmetry_equiv_pos_as_xyz
  1  'x, y, z'
loop_
 _atom_site_type_symbol
 _atom_site_label
 _atom_site_symmetry_multiplicity
 _atom_site_fract_x
 _atom_site_fract_y
 _atom_site_fract_z
 _atom_site_occupancy
  Pr  Pr0  1  -0.00000000  -0.00000000  0.00000000  1
  Pr  Pr1  1  0.50000000  0.50000000  0.50000000  1
  Mg  Mg0  1  0.25000100  0.25000100  0.25000100  1
  Tl  Tl0  1  0.75000100  0.75000100  0.75000100  1
loop_
_geom_bond_atom_site_label_1
_geom_bond_atom_site_label_2
_geom_bond_distance
_geom_bond_site_symmetry_2
Pr0 Tl0 3.391581 1_444
Pr0 Tl0 3.391599 1_454
Pr0 Tl0 3.391599 1_445
Pr0 Tl0 3.391599 1_544
Pr1 Tl0 3.391590 1_455
Pr1 Tl0 3.391590 1_554
Pr1 Tl0 3.391590 1_545
Pr1 Tl0 3.391608 1_555
Mg0 Pr1 3.391581 1_555
Mg0 Pr0 3.391590 1_565
Mg0 Pr0 3.391590 1_655
Mg0 Pr0 3.391590 1_556
Mg0 Pr1 3.391599 1_554
Mg0 Pr1 3.391599 1_545
Mg0 Pr1 3.391599 1_455
Mg0 Pr0 3.391608 1_555
