# generated using pymatgen
data_LiNiPO4
_symmetry_space_group_name_H-M   'P 1'
_cell_length_a   4.85470600
_cell_length_b   7.54752800
_cell_length_c   18.00687080
_cell_angle_alpha   88.91782135
_cell_angle_beta   90.00000000
_cell_angle_gamma   90.00000000
_symmetry_Int_Tables_number   1
_chemical_formula_structural   LiNiPO4
_chemical_formula_sum   'Li8 Ni8 P8 O32'
_cell_volume   659.67259993
_cell_formula_units_Z   8
loop_
 _symmetry_equiv_pos_site_id
 _symmetry_equiv_pos_as_xyz
  1  'x, y, z'
loop_
 _atom_site_type_symbol
 _atom_site_label
 _atom_site_symmetry_multiplicity
 _atom_site_fract_x
 _atom_site_fract_y
 _atom_site_fract_z
 _atom_site_occupancy
  Li  Li0  1  0.76632300  0.01418500  0.58805900  1
  Li  Li1  1  0.73367700  0.01418500  0.08805900  1
  Li  Li2  1  0.35802400  0.50643000  0.81926100  1
  Li  Li3  1  0.14197600  0.50643000  0.31926100  1
  Li  Li4  1  0.85802400  0.49357000  0.68073900  1
  Li  Li5  1  0.64197600  0.49357000  0.18073900  1
  Li  Li6  1  0.26632300  0.98581500  0.91194100  1
  Li  Li7  1  0.23367700  0.98581500  0.41194100  1
  Ni  Ni0  1  0.77591700  0.16461100  0.77140700  1
  Ni  Ni1  1  0.72408300  0.16461100  0.27140700  1
  Ni  Ni2  1  0.22753500  0.34953300  0.51501500  1
  Ni  Ni3  1  0.27246500  0.34953300  0.01501500  1
  Ni  Ni4  1  0.72753500  0.65046700  0.98498500  1
  Ni  Ni5  1  0.77246500  0.65046700  0.48498500  1
  Ni  Ni6  1  0.27591700  0.83538900  0.72859300  1
  Ni  Ni7  1  0.22408300  0.83538900  0.22859300  1
  P  P0  1  0.35119800  0.24117700  0.68054400  1
  P  P1  1  0.14880200  0.24117700  0.18054400  1
  P  P2  1  0.70686900  0.24934600  0.93463900  1
  P  P3  1  0.79313100  0.24934600  0.43463900  1
  P  P4  1  0.20686900  0.75065400  0.56536100  1
  P  P5  1  0.29313100  0.75065400  0.06536100  1
  P  P6  1  0.85119800  0.75882300  0.81945600  1
  P  P7  1  0.64880200  0.75882300  0.31945600  1
  O  O0  1  0.47653500  0.05948500  0.70987900  1
  O  O1  1  0.02346500  0.05948500  0.20987900  1
  O  O2  1  0.58772800  0.17886200  0.00930000  1
  O  O3  1  0.58965500  0.13998600  0.86965700  1
  O  O4  1  0.43637000  0.25280400  0.59826900  1
  O  O5  1  0.03775200  0.25443600  0.69243100  1
  O  O6  1  0.91227200  0.17886200  0.50930000  1
  O  O7  1  0.91034500  0.13998600  0.36965700  1
  O  O8  1  0.06363000  0.25280400  0.09826900  1
  O  O9  1  0.46224800  0.25443600  0.19243100  1
  O  O10  1  0.02526200  0.24829800  0.93353300  1
  O  O11  1  0.47473800  0.24829800  0.43353300  1
  O  O12  1  0.50781700  0.38098200  0.72830300  1
  O  O13  1  0.99218300  0.38098200  0.22830300  1
  O  O14  1  0.57856900  0.44301200  0.92566000  1
  O  O15  1  0.92143100  0.44301200  0.42566000  1
  O  O16  1  0.07856900  0.55698800  0.57434000  1
  O  O17  1  0.42143100  0.55698800  0.07434000  1
  O  O18  1  0.00781700  0.61901800  0.77169700  1
  O  O19  1  0.49218300  0.61901800  0.27169700  1
  O  O20  1  0.52526200  0.75170200  0.56646700  1
  O  O21  1  0.97473800  0.75170200  0.06646700  1
  O  O22  1  0.53775200  0.74556400  0.80756900  1
  O  O23  1  0.93637000  0.74719600  0.90173100  1
  O  O24  1  0.08965500  0.86001400  0.63034300  1
  O  O25  1  0.08772800  0.82113800  0.49070000  1
  O  O26  1  0.96224800  0.74556400  0.30756900  1
  O  O27  1  0.56363000  0.74719600  0.40173100  1
  O  O28  1  0.41034500  0.86001400  0.13034300  1
  O  O29  1  0.41227200  0.82113800  0.99070000  1
  O  O30  1  0.97653500  0.94051500  0.79012100  1
  O  O31  1  0.52346500  0.94051500  0.29012100  1
loop_
_geom_bond_atom_site_label_1
_geom_bond_atom_site_label_2
_geom_bond_distance
_geom_bond_site_symmetry_2
Li0 O6 1.997888 1_555
Li0 O24 2.089056 1_645
Li0 O20 2.339780 1_545
Li0 O4 2.419854 1_555
Li0 O0 2.633682 1_555
Li1 O2 1.997888 1_555
Li1 O28 2.089056 1_545
Li1 O21 2.339780 1_545
Li1 O8 2.419854 1_655
Li1 O1 2.633682 1_655
Li2 O22 2.012171 1_555
Li2 O12 2.041197 1_555
Li2 O18 2.078142 1_555
Li2 O14 2.238648 1_555
Li3 O26 2.012171 1_455
Li3 O13 2.041197 1_455
Li3 O19 2.078142 1_555
Li3 O15 2.238648 1_455
Li4 O5 2.012171 1_655
Li4 O18 2.041197 1_655
Li4 O12 2.078142 1_555
Li4 O16 2.238648 1_655
Li5 O9 2.012171 1_555
Li5 O19 2.041197 1_555
Li5 O13 2.078142 1_555
Li5 O17 2.238648 1_555
Li6 O29 1.997888 1_555
Li6 O3 2.089056 1_565
Li6 O10 2.339780 1_565
Li6 O23 2.419854 1_455
Li6 O30 2.633682 1_455
Li7 O25 1.997888 1_555
Li7 O7 2.089056 1_465
Li7 O11 2.339780 1_565
Li7 O27 2.419854 1_555
Li7 O31 2.633682 1_555
Ni0 O30 1.975177 1_545
Ni0 O3 1.992427 1_555
Ni0 O0 2.000665 1_555
Ni0 O5 2.015287 1_655
Ni0 O12 2.217090 1_555
Ni1 O31 1.975177 1_545
Ni1 O7 1.992427 1_555
Ni1 O1 2.000665 1_655
Ni1 O9 2.015287 1_555
Ni1 O13 2.217090 1_555
Ni2 O4 1.940861 1_555
Ni2 O6 2.004338 1_455
Ni2 O16 2.044259 1_555
Ni2 O11 2.054062 1_555
Ni2 O15 2.291751 1_455
Ni3 O8 1.940861 1_555
Ni3 O2 2.004338 1_555
Ni3 O17 2.044259 1_555
Ni3 O10 2.054062 1_554
Ni3 O14 2.291751 1_554
Ni4 O23 1.940861 1_555
Ni4 O29 2.004338 1_555
Ni4 O14 2.044259 1_555
Ni4 O21 2.054062 1_556
Ni4 O17 2.291751 1_556
Ni5 O27 1.940861 1_555
Ni5 O25 2.004338 1_655
Ni5 O15 2.044259 1_555
Ni5 O20 2.054062 1_555
Ni5 O16 2.291751 1_655
Ni6 O0 1.975177 1_565
Ni6 O24 1.992427 1_555
Ni6 O30 2.000665 1_455
Ni6 O22 2.015287 1_555
Ni6 O18 2.217090 1_555
Ni7 O1 1.975177 1_565
Ni7 O28 1.992427 1_555
Ni7 O31 2.000665 1_555
Ni7 O26 2.015287 1_455
Ni7 O19 2.217090 1_555
O0 P0 1.581911 1_555
O1 P1 1.581911 1_555
O2 P2 1.548538 1_554
O3 P2 1.552661 1_555
O4 P0 1.539041 1_555
O5 P0 1.540187 1_555
O6 P3 1.548538 1_555
O7 P3 1.552661 1_555
O8 P1 1.539041 1_555
O9 P1 1.540187 1_555
O10 P2 1.545855 1_455
O11 P3 1.545855 1_555
O12 P0 1.570154 1_555
O13 P1 1.570154 1_655
O14 P2 1.594281 1_555
O15 P3 1.594281 1_555
O16 P4 1.594281 1_555
O17 P5 1.594281 1_555
O18 P6 1.570154 1_455
O19 P7 1.570154 1_555
O20 P4 1.545855 1_555
O21 P5 1.545855 1_655
O22 P6 1.540187 1_555
O23 P6 1.539041 1_555
O24 P4 1.552661 1_555
O25 P4 1.548538 1_555
O26 P7 1.540187 1_555
O27 P7 1.539041 1_555
O28 P5 1.552661 1_555
O29 P5 1.548538 1_556
O30 P6 1.581911 1_555
O31 P7 1.581911 1_555
