# generated using pymatgen
data_KNa2LiZr2(Si2O5)6
_symmetry_space_group_name_H-M   'P 1'
_cell_length_a   10.30095746
_cell_length_b   10.30095746
_cell_length_c   14.61346600
_cell_angle_alpha   90.00000000
_cell_angle_beta   90.00000000
_cell_angle_gamma   120.45954605
_symmetry_Int_Tables_number   1
_chemical_formula_structural   KNa2LiZr2(Si2O5)6
_chemical_formula_sum   'K2 Na4 Li2 Zr4 Si24 O60'
_cell_volume   1336.62409577
_cell_formula_units_Z   2
loop_
 _symmetry_equiv_pos_site_id
 _symmetry_equiv_pos_as_xyz
  1  'x, y, z'
loop_
 _atom_site_type_symbol
 _atom_site_label
 _atom_site_symmetry_multiplicity
 _atom_site_fract_x
 _atom_site_fract_y
 _atom_site_fract_z
 _atom_site_occupancy
  K  K0  1  0.00000000  0.00000000  0.75000000  1
  K  K1  1  0.00000000  0.00000000  0.25000000  1
  Na  Na0  1  0.66603300  0.33026900  0.00000000  1
  Na  Na1  1  0.66973100  0.33396700  0.50000000  1
  Na  Na2  1  0.33396700  0.66973100  0.00000000  1
  Na  Na3  1  0.33026900  0.66603300  0.50000000  1
  Li  Li0  1  0.50000000  0.50000000  0.75000000  1
  Li  Li1  1  0.50000000  0.50000000  0.25000000  1
  Zr  Zr0  1  0.67203400  0.32796600  0.75000000  1
  Zr  Zr1  1  0.67203400  0.32796600  0.25000000  1
  Zr  Zr2  1  0.32796600  0.67203400  0.75000000  1
  Zr  Zr3  1  0.32796600  0.67203400  0.25000000  1
  Si  Si0  1  0.88573200  0.64933800  0.60959100  1
  Si  Si1  1  0.88573200  0.64933800  0.39040900  1
  Si  Si2  1  0.76198000  0.64871800  0.89023300  1
  Si  Si3  1  0.76198000  0.64871800  0.10976700  1
  Si  Si4  1  0.88731300  0.23694600  0.89067800  1
  Si  Si5  1  0.88731300  0.23694600  0.10932200  1
  Si  Si6  1  0.76305400  0.11268700  0.60932200  1
  Si  Si7  1  0.76305400  0.11268700  0.39067800  1
  Si  Si8  1  0.35128200  0.23802000  0.60976700  1
  Si  Si9  1  0.35128200  0.23802000  0.39023300  1
  Si  Si10  1  0.64933800  0.88573200  0.89040900  1
  Si  Si11  1  0.64933800  0.88573200  0.10959100  1
  Si  Si12  1  0.35066200  0.11426800  0.89040900  1
  Si  Si13  1  0.35066200  0.11426800  0.10959100  1
  Si  Si14  1  0.64871800  0.76198000  0.39023300  1
  Si  Si15  1  0.64871800  0.76198000  0.60976700  1
  Si  Si16  1  0.23694600  0.88731300  0.60932200  1
  Si  Si17  1  0.23694600  0.88731300  0.39067800  1
  Si  Si18  1  0.11268700  0.76305400  0.10932200  1
  Si  Si19  1  0.11268700  0.76305400  0.89067800  1
  Si  Si20  1  0.23802000  0.35128200  0.89023300  1
  Si  Si21  1  0.23802000  0.35128200  0.10976700  1
  Si  Si22  1  0.11426800  0.35066200  0.60959100  1
  Si  Si23  1  0.11426800  0.35066200  0.39040900  1
  O  O0  1  0.94204200  0.72487300  0.86729500  1
  O  O1  1  0.94204200  0.72487300  0.13270500  1
  O  O2  1  0.78328000  0.72659400  0.63212000  1
  O  O3  1  0.78328000  0.72659400  0.36788000  1
  O  O4  1  0.86831800  0.60579400  0.50000000  1
  O  O5  1  0.73558000  0.60148800  0.00000000  1
  O  O6  1  0.82908500  0.49549500  0.66387900  1
  O  O7  1  0.82908500  0.49549500  0.33612100  1
  O  O8  1  0.83330000  0.33687100  0.83720300  1
  O  O9  1  0.83330000  0.33687100  0.16279700  1
  O  O10  1  0.94306700  0.21582000  0.63318800  1
  O  O11  1  0.94306700  0.21582000  0.36681200  1
  O  O12  1  0.65837100  0.50027000  0.83063200  1
  O  O13  1  0.65837100  0.50027000  0.16936800  1
  O  O14  1  0.86887000  0.26275000  0.00000000  1
  O  O15  1  0.73725000  0.13113000  0.50000000  1
  O  O16  1  0.49972900  0.34162900  0.66936800  1
  O  O17  1  0.49972900  0.34162900  0.33063200  1
  O  O18  1  0.78418000  0.05693300  0.86681200  1
  O  O19  1  0.78418000  0.05693300  0.13318800  1
  O  O20  1  0.66312900  0.16670000  0.33720300  1
  O  O21  1  0.66312900  0.16670000  0.66279700  1
  O  O22  1  0.50450500  0.17091500  0.83612100  1
  O  O23  1  0.50450500  0.17091500  0.16387900  1
  O  O24  1  0.39851200  0.26442000  0.50000000  1
  O  O25  1  0.72487300  0.94204200  0.63270500  1
  O  O26  1  0.72487300  0.94204200  0.36729500  1
  O  O27  1  0.39420600  0.13168200  0.00000000  1
  O  O28  1  0.27340600  0.21672000  0.86788000  1
  O  O29  1  0.27340600  0.21672000  0.13212000  1
  O  O30  1  0.72659400  0.78328000  0.86788000  1
  O  O31  1  0.72659400  0.78328000  0.13212000  1
  O  O32  1  0.60579400  0.86831800  0.00000000  1
  O  O33  1  0.27512700  0.05795800  0.63270500  1
  O  O34  1  0.27512700  0.05795800  0.36729500  1
  O  O35  1  0.60148800  0.73558000  0.50000000  1
  O  O36  1  0.49549500  0.82908500  0.83612100  1
  O  O37  1  0.49549500  0.82908500  0.16387900  1
  O  O38  1  0.33687100  0.83330000  0.66279700  1
  O  O39  1  0.33687100  0.83330000  0.33720300  1
  O  O40  1  0.21582000  0.94306700  0.86681200  1
  O  O41  1  0.21582000  0.94306700  0.13318800  1
  O  O42  1  0.50027000  0.65837100  0.66936800  1
  O  O43  1  0.50027000  0.65837100  0.33063200  1
  O  O44  1  0.26275000  0.86887000  0.50000000  1
  O  O45  1  0.13113000  0.73725000  0.00000000  1
  O  O46  1  0.34162900  0.49973000  0.83063200  1
  O  O47  1  0.34162900  0.49973000  0.16936800  1
  O  O48  1  0.05693300  0.78418000  0.63318800  1
  O  O49  1  0.05693300  0.78418000  0.36681200  1
  O  O50  1  0.16670000  0.66312900  0.83720300  1
  O  O51  1  0.16670000  0.66312900  0.16279700  1
  O  O52  1  0.17091500  0.50450500  0.66387900  1
  O  O53  1  0.17091500  0.50450500  0.33612100  1
  O  O54  1  0.26442000  0.39851200  0.00000000  1
  O  O55  1  0.13168200  0.39420600  0.50000000  1
  O  O56  1  0.21672000  0.27340600  0.63212000  1
  O  O57  1  0.21672000  0.27340600  0.36788000  1
  O  O58  1  0.05795800  0.27512700  0.86729500  1
  O  O59  1  0.05795800  0.27512700  0.13270500  1
loop_
_geom_bond_atom_site_label_1
_geom_bond_atom_site_label_2
_geom_bond_distance
_geom_bond_site_symmetry_2
K0 O30 3.083596 1_445
K0 O28 3.083596 1_555
K0 O2 3.083596 1_445
K0 O56 3.083596 1_555
K0 O48 3.085800 1_545
K0 O40 3.085800 1_545
K0 O18 3.085800 1_455
K0 O10 3.085800 1_455
K0 O58 3.100167 1_555
K0 O33 3.100167 1_555
K0 O0 3.100167 1_445
K0 O25 3.100167 1_445
K1 O3 3.083596 1_445
K1 O57 3.083596 1_555
K1 O29 3.083596 1_555
K1 O31 3.083596 1_445
K1 O49 3.085800 1_545
K1 O41 3.085800 1_545
K1 O11 3.085800 1_455
K1 O19 3.085800 1_455
K1 O34 3.100167 1_555
K1 O1 3.100167 1_445
K1 O26 3.100167 1_445
K1 O59 3.100167 1_555
Na0 O27 2.493539 1_555
Na0 O5 2.507868 1_555
Na0 O14 2.514506 1_555
Na1 O4 2.493539 1_555
Na1 O24 2.507868 1_555
Na1 O15 2.514506 1_555
Na2 O32 2.493539 1_555
Na2 O54 2.507868 1_555
Na2 O45 2.514506 1_555
Na3 O55 2.493539 1_555
Na3 O35 2.507868 1_555
Na3 O44 2.514506 1_555
Li0 O16 2.011266 1_555
Li0 O46 2.011270 1_555
Li0 O12 2.011270 1_555
Li0 O42 2.011270 1_555
Li1 O17 2.011266 1_555
Li1 O43 2.011270 1_555
Li1 O47 2.011270 1_555
Li1 O13 2.011270 1_555
O0 Si19 1.631075 1_655
O0 Si2 1.640996 1_555
O1 Si18 1.631075 1_655
O1 Si3 1.640996 1_555
O2 Si15 1.634976 1_555
O2 Si0 1.645290 1_555
O3 Si14 1.634976 1_555
O3 Si1 1.645290 1_555
O4 Si0 1.648214 1_555
O4 Si1 1.648214 1_555
O5 Si2 1.658183 1_554
O5 Si3 1.658183 1_555
O6 Si0 1.594901 1_555
O6 Zr0 2.085343 1_555
O7 Si1 1.594901 1_555
O7 Zr1 2.085343 1_555
O8 Si4 1.600119 1_555
O8 Zr0 2.058501 1_555
O9 Si5 1.600119 1_555
O9 Zr1 2.058501 1_555
O10 Si22 1.635478 1_655
O10 Si6 1.640566 1_555
O11 Si23 1.635478 1_655
O11 Si7 1.640566 1_555
O12 Si2 1.606656 1_555
O12 Zr0 2.193570 1_555
O13 Si3 1.606656 1_555
O13 Zr1 2.193570 1_555
O14 Si5 1.646264 1_555
O14 Si4 1.646264 1_554
O15 Si7 1.646264 1_555
O15 Si6 1.646264 1_555
O16 Si8 1.606650 1_555
O16 Zr0 2.193579 1_555
O17 Si9 1.606650 1_555
O17 Zr1 2.193579 1_555
O18 Si10 1.635478 1_545
O18 Si4 1.640566 1_555
O19 Si11 1.635478 1_545
O19 Si5 1.640566 1_555
O20 Si7 1.600119 1_555
O20 Zr1 2.058501 1_555
O21 Si6 1.600119 1_555
O21 Zr0 2.058501 1_555
O22 Si12 1.594901 1_555
O22 Zr0 2.085343 1_555
O23 Si13 1.594901 1_555
O23 Zr1 2.085343 1_555
O24 Si8 1.658183 1_555
O24 Si9 1.658183 1_555
O25 Si6 1.631075 1_565
O25 Si15 1.640996 1_555
O26 Si7 1.631075 1_565
O26 Si14 1.640996 1_555
O27 Si13 1.648214 1_555
O27 Si12 1.648214 1_554
O28 Si20 1.634976 1_555
O28 Si12 1.645290 1_555
O29 Si21 1.634976 1_555
O29 Si13 1.645290 1_555
O30 Si2 1.634976 1_555
O30 Si10 1.645290 1_555
O31 Si3 1.634976 1_555
O31 Si11 1.645290 1_555
O32 Si11 1.648214 1_555
O32 Si10 1.648214 1_554
O33 Si16 1.631075 1_545
O33 Si8 1.640996 1_555
O34 Si17 1.631075 1_545
O34 Si9 1.640996 1_555
O35 Si15 1.658183 1_555
O35 Si14 1.658183 1_555
O36 Si10 1.594901 1_555
O36 Zr2 2.085343 1_555
O37 Si11 1.594901 1_555
O37 Zr3 2.085343 1_555
O38 Si16 1.600119 1_555
O38 Zr2 2.058501 1_555
O39 Si17 1.600119 1_555
O39 Zr3 2.058501 1_555
O40 Si12 1.635478 1_565
O40 Si19 1.640566 1_555
O41 Si13 1.635478 1_565
O41 Si18 1.640566 1_555
O42 Si15 1.606656 1_555
O42 Zr2 2.193570 1_555
O43 Si14 1.606656 1_555
O43 Zr3 2.193570 1_555
O44 Si17 1.646264 1_555
O44 Si16 1.646264 1_555
O45 Si18 1.646264 1_555
O45 Si19 1.646264 1_554
O46 Si20 1.606656 1_555
O46 Zr2 2.193570 1_555
O47 Si21 1.606656 1_555
O47 Zr3 2.193570 1_555
O48 Si0 1.635478 1_455
O48 Si16 1.640566 1_555
O49 Si1 1.635478 1_455
O49 Si17 1.640566 1_555
O50 Si19 1.600119 1_555
O50 Zr2 2.058501 1_555
O51 Si18 1.600119 1_555
O51 Zr3 2.058501 1_555
O52 Si22 1.594901 1_555
O52 Zr2 2.085343 1_555
O53 Si23 1.594901 1_555
O53 Zr3 2.085343 1_555
O54 Si20 1.658183 1_554
O54 Si21 1.658183 1_555
O55 Si22 1.648214 1_555
O55 Si23 1.648214 1_555
O56 Si8 1.634976 1_555
O56 Si22 1.645290 1_555
O57 Si9 1.634976 1_555
O57 Si23 1.645290 1_555
O58 Si4 1.631075 1_455
O58 Si20 1.640996 1_555
O59 Si5 1.631075 1_455
O59 Si21 1.640996 1_555
