# generated using pymatgen
data_Ni(PO3)3
_symmetry_space_group_name_H-M   'P 1'
_cell_length_a   10.00157400
_cell_length_b   10.63053100
_cell_length_c   13.69599600
_cell_angle_alpha   90.00000000
_cell_angle_beta   90.00000000
_cell_angle_gamma   90.00000000
_symmetry_Int_Tables_number   1
_chemical_formula_structural   Ni(PO3)3
_chemical_formula_sum   'Ni8 P24 O72'
_cell_volume   1456.18626819
_cell_formula_units_Z   8
loop_
 _symmetry_equiv_pos_site_id
 _symmetry_equiv_pos_as_xyz
  1  'x, y, z'
loop_
 _atom_site_type_symbol
 _atom_site_label
 _atom_site_symmetry_multiplicity
 _atom_site_fract_x
 _atom_site_fract_y
 _atom_site_fract_z
 _atom_site_occupancy
  Ni  Ni0  1  0.00000000  0.00000000  0.00000000  1
  Ni  Ni1  1  0.50000000  0.00000000  0.00000000  1
  Ni  Ni2  1  0.02767000  0.50000000  0.25000000  1
  Ni  Ni3  1  0.52767000  0.50000000  0.25000000  1
  Ni  Ni4  1  0.00000000  0.00000000  0.50000000  1
  Ni  Ni5  1  0.50000000  0.00000000  0.50000000  1
  Ni  Ni6  1  0.47233000  0.50000000  0.75000000  1
  Ni  Ni7  1  0.97233000  0.50000000  0.75000000  1
  P  P0  1  0.28704000  0.47680400  0.10194500  1
  P  P1  1  0.78704000  0.52319600  0.10194500  1
  P  P2  1  0.45092400  0.25326300  0.12494300  1
  P  P3  1  0.95092400  0.74673700  0.12494300  1
  P  P4  1  0.26260200  0.04777800  0.14641500  1
  P  P5  1  0.76260200  0.95222200  0.14641500  1
  P  P6  1  0.76260200  0.04777800  0.35358500  1
  P  P7  1  0.26260200  0.95222200  0.35358500  1
  P  P8  1  0.95092400  0.25326300  0.37505700  1
  P  P9  1  0.45092400  0.74673700  0.37505700  1
  P  P10  1  0.28704000  0.52319600  0.39805500  1
  P  P11  1  0.78704000  0.47680400  0.39805500  1
  P  P12  1  0.71296000  0.47680400  0.60194500  1
  P  P13  1  0.21296000  0.52319600  0.60194500  1
  P  P14  1  0.54907600  0.25326300  0.62494300  1
  P  P15  1  0.04907600  0.74673700  0.62494300  1
  P  P16  1  0.73739800  0.04777800  0.64641500  1
  P  P17  1  0.23739800  0.95222200  0.64641500  1
  P  P18  1  0.23739800  0.04777800  0.85358500  1
  P  P19  1  0.73739800  0.95222200  0.85358500  1
  P  P20  1  0.04907600  0.25326300  0.87505700  1
  P  P21  1  0.54907600  0.74673700  0.87505700  1
  P  P22  1  0.21296000  0.47680400  0.89805500  1
  P  P23  1  0.71296000  0.52319600  0.89805500  1
  O  O0  1  0.25000000  0.54371000  0.00000000  1
  O  O1  1  0.75000000  0.45629000  0.00000000  1
  O  O2  1  0.53132200  0.16939900  0.05873600  1
  O  O3  1  0.03132200  0.83060100  0.05873600  1
  O  O4  1  0.36248700  0.35105300  0.06237800  1
  O  O5  1  0.86248700  0.64894700  0.06237800  1
  O  O6  1  0.14408000  0.08245800  0.08554200  1
  O  O7  1  0.64408000  0.91754200  0.08554200  1
  O  O8  1  0.86440100  0.04260700  0.10571300  1
  O  O9  1  0.36440100  0.95739300  0.10571300  1
  O  O10  1  0.16199400  0.43559900  0.15339300  1
  O  O11  1  0.66199400  0.56440100  0.15339300  1
  O  O12  1  0.88396900  0.43905600  0.15471600  1
  O  O13  1  0.38396900  0.56094400  0.15471600  1
  O  O14  1  0.33755500  0.17504900  0.18192800  1
  O  O15  1  0.83755500  0.82495100  0.18192800  1
  O  O16  1  0.53705900  0.32353200  0.19647800  1
  O  O17  1  0.03705900  0.67646800  0.19647800  1
  O  O18  1  0.20677300  0.00000000  0.25000000  1
  O  O19  1  0.70677300  0.00000000  0.25000000  1
  O  O20  1  0.03705900  0.32353200  0.30352200  1
  O  O21  1  0.53705900  0.67646800  0.30352200  1
  O  O22  1  0.83755500  0.17504900  0.31807200  1
  O  O23  1  0.33755500  0.82495100  0.31807200  1
  O  O24  1  0.38396900  0.43905600  0.34528400  1
  O  O25  1  0.88396900  0.56094400  0.34528400  1
  O  O26  1  0.66199400  0.43559900  0.34660700  1
  O  O27  1  0.16199400  0.56440100  0.34660700  1
  O  O28  1  0.36440100  0.04260700  0.39428700  1
  O  O29  1  0.86440100  0.95739300  0.39428700  1
  O  O30  1  0.64408000  0.08245800  0.41445800  1
  O  O31  1  0.14408000  0.91754200  0.41445800  1
  O  O32  1  0.36248700  0.64894700  0.43762200  1
  O  O33  1  0.86248700  0.35105300  0.43762200  1
  O  O34  1  0.03132200  0.16939900  0.44126400  1
  O  O35  1  0.53132200  0.83060100  0.44126400  1
  O  O36  1  0.25000000  0.45629000  0.50000000  1
  O  O37  1  0.75000000  0.54371000  0.50000000  1
  O  O38  1  0.46867800  0.16939900  0.55873600  1
  O  O39  1  0.96867800  0.83060100  0.55873600  1
  O  O40  1  0.63751300  0.35105300  0.56237800  1
  O  O41  1  0.13751300  0.64894700  0.56237800  1
  O  O42  1  0.85592000  0.08245800  0.58554200  1
  O  O43  1  0.35592000  0.91754200  0.58554200  1
  O  O44  1  0.13559900  0.04260700  0.60571300  1
  O  O45  1  0.63559900  0.95739300  0.60571300  1
  O  O46  1  0.83800600  0.43559900  0.65339300  1
  O  O47  1  0.33800600  0.56440100  0.65339300  1
  O  O48  1  0.11603100  0.43905600  0.65471600  1
  O  O49  1  0.61603100  0.56094400  0.65471600  1
  O  O50  1  0.66244500  0.17504900  0.68192800  1
  O  O51  1  0.16244500  0.82495100  0.68192800  1
  O  O52  1  0.46294100  0.32353200  0.69647800  1
  O  O53  1  0.96294100  0.67646800  0.69647800  1
  O  O54  1  0.29322700  0.00000000  0.75000000  1
  O  O55  1  0.79322700  0.00000000  0.75000000  1
  O  O56  1  0.96294100  0.32353200  0.80352200  1
  O  O57  1  0.46294100  0.67646800  0.80352200  1
  O  O58  1  0.16244500  0.17504900  0.81807200  1
  O  O59  1  0.66244500  0.82495100  0.81807200  1
  O  O60  1  0.61603100  0.43905600  0.84528400  1
  O  O61  1  0.11603100  0.56094400  0.84528400  1
  O  O62  1  0.33800600  0.43559900  0.84660700  1
  O  O63  1  0.83800600  0.56440100  0.84660700  1
  O  O64  1  0.63559900  0.04260700  0.89428700  1
  O  O65  1  0.13559900  0.95739300  0.89428700  1
  O  O66  1  0.35592000  0.08245800  0.91445800  1
  O  O67  1  0.85592000  0.91754200  0.91445800  1
  O  O68  1  0.13751300  0.35105300  0.93762200  1
  O  O69  1  0.63751300  0.64894700  0.93762200  1
  O  O70  1  0.96867800  0.16939900  0.94126400  1
  O  O71  1  0.46867800  0.83060100  0.94126400  1
loop_
_geom_bond_atom_site_label_1
_geom_bond_atom_site_label_2
_geom_bond_distance
_geom_bond_site_symmetry_2
Ni0 O70 1.997038 1_454
Ni0 O3 1.997038 1_545
Ni0 O8 2.034869 1_455
Ni0 O65 2.034869 1_544
Ni0 O6 2.053666 1_555
Ni0 O67 2.053666 1_444
Ni1 O2 1.997038 1_555
Ni1 O71 1.997038 1_544
Ni1 O9 2.034869 1_545
Ni1 O64 2.034869 1_554
Ni1 O7 2.053666 1_545
Ni1 O66 2.053666 1_554
Ni2 O27 2.006049 1_555
Ni2 O10 2.006049 1_555
Ni2 O20 2.016270 1_555
Ni2 O17 2.016270 1_555
Ni2 O25 2.046565 1_455
Ni2 O12 2.046565 1_455
Ni3 O11 2.006049 1_555
Ni3 O26 2.006049 1_555
Ni3 O21 2.016270 1_555
Ni3 O16 2.016270 1_555
Ni3 O24 2.046565 1_555
Ni3 O13 2.046565 1_555
Ni4 O34 1.997038 1_555
Ni4 O39 1.997038 1_445
Ni4 O44 2.034869 1_555
Ni4 O29 2.034869 1_445
Ni4 O42 2.053666 1_455
Ni4 O31 2.053666 1_545
Ni5 O38 1.997038 1_555
Ni5 O35 1.997038 1_545
Ni5 O28 2.034869 1_555
Ni5 O45 2.034869 1_545
Ni5 O30 2.053666 1_555
Ni5 O43 2.053666 1_545
Ni6 O47 2.006049 1_555
Ni6 O62 2.006049 1_555
Ni6 O57 2.016270 1_555
Ni6 O52 2.016270 1_555
Ni6 O60 2.046565 1_555
Ni6 O49 2.046565 1_555
Ni7 O63 2.006049 1_555
Ni7 O46 2.006049 1_555
Ni7 O56 2.016270 1_555
Ni7 O53 2.016270 1_555
Ni7 O61 2.046565 1_655
Ni7 O48 2.046565 1_655
O0 P0 1.610153 1_555
O0 P22 1.610153 1_554
O1 P1 1.610153 1_555
O1 P23 1.610153 1_554
O2 P2 1.504535 1_555
O3 P3 1.504535 1_455
O4 P2 1.611614 1_555
O4 P0 1.627914 1_555
O5 P3 1.611614 1_555
O5 P1 1.627914 1_555
O6 P4 1.495389 1_555
O7 P5 1.495389 1_555
O8 P5 1.506851 1_545
O9 P4 1.506851 1_565
O10 P0 1.500840 1_555
O11 P1 1.500840 1_555
O12 P1 1.504073 1_555
O13 P0 1.504073 1_555
O14 P2 1.608137 1_555
O14 P4 1.621431 1_555
O15 P3 1.608137 1_555
O15 P5 1.621431 1_555
O16 P2 1.503349 1_555
O17 P3 1.503349 1_455
O18 P4 1.607004 1_555
O18 P7 1.607004 1_545
O19 P6 1.607004 1_555
O19 P5 1.607004 1_545
O20 P8 1.503349 1_455
O21 P9 1.503349 1_555
O22 P8 1.608137 1_555
O22 P6 1.621431 1_555
O23 P9 1.608137 1_555
O23 P7 1.621431 1_555
O24 P10 1.504073 1_555
O25 P11 1.504073 1_555
O26 P11 1.500840 1_555
O27 P10 1.500840 1_555
O28 P7 1.506851 1_545
O29 P6 1.506851 1_565
O30 P6 1.495389 1_555
O31 P7 1.495389 1_555
O32 P9 1.611614 1_555
O32 P10 1.627914 1_555
O33 P8 1.611614 1_555
O33 P11 1.627914 1_555
O34 P8 1.504535 1_455
O35 P9 1.504535 1_555
O36 P13 1.610153 1_555
O36 P10 1.610153 1_555
O37 P12 1.610153 1_555
O37 P11 1.610153 1_555
O38 P14 1.504535 1_555
O39 P15 1.504535 1_655
O40 P14 1.611614 1_555
O40 P12 1.627914 1_555
O41 P15 1.611614 1_555
O41 P13 1.627914 1_555
O42 P16 1.495389 1_555
O43 P17 1.495389 1_555
O44 P17 1.506851 1_545
O45 P16 1.506851 1_565
O46 P12 1.500840 1_555
O47 P13 1.500840 1_555
O48 P13 1.504073 1_555
O49 P12 1.504073 1_555
O50 P14 1.608137 1_555
O50 P16 1.621431 1_555
O51 P15 1.608137 1_555
O51 P17 1.621431 1_555
O52 P14 1.503349 1_555
O53 P15 1.503349 1_655
O54 P18 1.607004 1_555
O54 P17 1.607004 1_545
O55 P19 1.607004 1_545
O55 P16 1.607004 1_555
O56 P20 1.503349 1_655
O57 P21 1.503349 1_555
O58 P20 1.608137 1_555
O58 P18 1.621431 1_555
O59 P21 1.608137 1_555
O59 P19 1.621431 1_555
O60 P23 1.504073 1_555
O61 P22 1.504073 1_555
O62 P22 1.500840 1_555
O63 P23 1.500840 1_555
O64 P19 1.506851 1_545
O65 P18 1.506851 1_565
O66 P18 1.495389 1_555
O67 P19 1.495389 1_555
O68 P20 1.611614 1_555
O68 P22 1.627914 1_555
O69 P21 1.611614 1_555
O69 P23 1.627914 1_555
O70 P20 1.504535 1_655
O71 P21 1.504535 1_555
