# generated using pymatgen
data_Lu2AgRu
_symmetry_space_group_name_H-M   'P 1'
_cell_length_a   4.81520230
_cell_length_b   4.81520230
_cell_length_c   4.81520230
_cell_angle_alpha   60.00000000
_cell_angle_beta   60.00000000
_cell_angle_gamma   60.00000000
_symmetry_Int_Tables_number   1
_chemical_formula_structural   Lu2AgRu
_chemical_formula_sum   'Lu2 Ag1 Ru1'
_cell_volume   78.94572470
_cell_formula_units_Z   1
loop_
 _symmetry_equiv_pos_site_id
 _symmetry_equiv_pos_as_xyz
  1  'x, y, z'
loop_
 _atom_site_type_symbol
 _atom_site_label
 _atom_site_symmetry_multiplicity
 _atom_site_fract_x
 _atom_site_fract_y
 _atom_site_fract_z
 _atom_site_occupancy
  Lu  Lu0  1  -0.00000000  0.00000000  -0.00000000  1
  Lu  Lu1  1  0.50000000  0.50000000  0.50000000  1
  Ag  Ag0  1  0.25000000  0.25000000  0.25000000  1
  Ru  Ru0  1  0.75000100  0.75000100  0.75000100  1
loop_
_geom_bond_atom_site_label_1
_geom_bond_atom_site_label_2
_geom_bond_distance
_geom_bond_site_symmetry_2
Lu0 Ru0 2.948685 1_444
Lu0 Ru0 2.948701 1_454
Lu0 Ru0 2.948701 1_544
Lu0 Ru0 2.948701 1_445
Lu1 Ru0 2.948693 1_554
Lu1 Ru0 2.948693 1_545
Lu1 Ru0 2.948693 1_455
Lu1 Ru0 2.948709 1_555
Ag0 Lu0 2.948697 1_555
Ag0 Lu0 2.948697 1_655
Ag0 Lu0 2.948697 1_565
Ag0 Lu1 2.948697 1_455
Ag0 Lu1 2.948697 1_555
Ag0 Lu1 2.948697 1_545
Ag0 Lu1 2.948697 1_554
Ag0 Lu0 2.948697 1_556
