# generated using pymatgen
data_LiMg149
_symmetry_space_group_name_H-M   'P 1'
_cell_length_a   15.86203795
_cell_length_b   15.86215626
_cell_length_c   15.40793002
_cell_angle_alpha   89.99998626
_cell_angle_beta   89.99999934
_cell_angle_gamma   119.99412772
_symmetry_Int_Tables_number   1
_chemical_formula_structural   LiMg149
_chemical_formula_sum   'Li1 Mg149'
_cell_volume   3357.54492908
_cell_formula_units_Z   1
loop_
 _symmetry_equiv_pos_site_id
 _symmetry_equiv_pos_as_xyz
  1  'x, y, z'
loop_
 _atom_site_type_symbol
 _atom_site_label
 _atom_site_symmetry_multiplicity
 _atom_site_fract_x
 _atom_site_fract_y
 _atom_site_fract_z
 _atom_site_occupancy
  Li  Li0  1  0.00000381  -0.00000395  0.99998480  1
  Mg  Mg0  1  0.19868579  0.19872658  0.99999630  1
  Mg  Mg1  1  0.00003763  0.19872497  0.99999677  1
  Mg  Mg2  1  0.80022779  0.19977520  -0.00000156  1
  Mg  Mg3  1  0.39954382  0.19977330  -0.00000149  1
  Mg  Mg4  1  0.59992070  0.19986037  -0.00000158  1
  Mg  Mg5  1  0.39950176  0.39953379  -0.00000152  1
  Mg  Mg6  1  -0.00000294  0.39948516  -0.00000151  1
  Mg  Mg7  1  0.19974227  0.39951056  -0.00000154  1
  Mg  Mg8  1  0.80014317  0.40008243  -0.00000151  1
  Mg  Mg9  1  0.59993473  0.40006652  -0.00000173  1
  Mg  Mg10  1  0.20002913  0.60002427  -0.00000161  1
  Mg  Mg11  1  0.39997528  0.60002636  -0.00000179  1
  Mg  Mg12  1  0.80022719  0.60045512  -0.00000153  1
  Mg  Mg13  1  0.60046824  0.60049814  0.99999847  1
  Mg  Mg14  1  0.00003608  0.60053656  0.99999848  1
  Mg  Mg15  1  0.39997618  0.79997235  -0.00000168  1
  Mg  Mg16  1  0.60049056  0.80025755  -0.00000153  1
  Mg  Mg17  1  0.19975648  0.80024266  -0.00000152  1
  Mg  Mg18  1  0.80127259  0.80131252  0.99999593  1
  Mg  Mg19  1  0.00003399  0.80129967  0.99999700  1
  Mg  Mg20  1  0.60051772  0.00000515  0.99999847  1
  Mg  Mg21  1  0.39946298  0.99996491  0.99999849  1
  Mg  Mg22  1  0.80127438  -0.00003733  0.99999566  1
  Mg  Mg23  1  0.19870001  -0.00003399  0.99999544  1
  Mg  Mg24  1  0.06656243  0.13311268  0.16574614  1
  Mg  Mg25  1  0.86688213  0.93343530  0.16574690  1
  Mg  Mg26  1  0.06657875  0.93342179  0.16576556  1
  Mg  Mg27  1  0.66666690  0.33333294  0.16652836  1
  Mg  Mg28  1  0.46666520  0.13335308  0.16650353  1
  Mg  Mg29  1  0.66668913  0.13335355  0.16650429  1
  Mg  Mg30  1  0.46666540  0.33331121  0.16650342  1
  Mg  Mg31  1  0.86664672  0.33331110  0.16650440  1
  Mg  Mg32  1  0.66668893  0.53333467  0.16650353  1
  Mg  Mg33  1  0.86664717  0.53333527  0.16650363  1
  Mg  Mg34  1  0.86667601  0.13332338  0.16642159  1
  Mg  Mg35  1  0.26664889  0.13332408  0.16642108  1
  Mg  Mg36  1  0.86667564  0.73335118  0.16642061  1
  Mg  Mg37  1  0.26662319  0.33329720  0.16642592  1
  Mg  Mg38  1  0.06667567  0.33329601  0.16642725  1
  Mg  Mg39  1  0.06667593  0.73337700  0.16642980  1
  Mg  Mg40  1  0.66670292  0.73337694  0.16642605  1
  Mg  Mg41  1  0.66670438  0.93332467  0.16642751  1
  Mg  Mg42  1  0.26662331  0.93332460  0.16642975  1
  Mg  Mg43  1  0.06665484  0.53332754  0.16647010  1
  Mg  Mg44  1  0.46667352  0.53332726  0.16647234  1
  Mg  Mg45  1  0.46667317  0.93334572  0.16647001  1
  Mg  Mg46  1  0.26666433  0.53332720  0.16646483  1
  Mg  Mg47  1  0.26666456  0.73333603  0.16646565  1
  Mg  Mg48  1  0.46667342  0.73333631  0.16646480  1
  Mg  Mg49  1  0.99999264  0.00001451  0.33217560  1
  Mg  Mg50  1  0.80026821  0.99953082  0.33319013  1
  Mg  Mg51  1  0.19923563  0.99955518  0.33318709  1
  Mg  Mg52  1  0.19924361  0.19978083  0.33316553  1
  Mg  Mg53  1  0.00047455  0.19973915  0.33318618  1
  Mg  Mg54  1  0.80022909  0.80076313  0.33316015  1
  Mg  Mg55  1  0.00044715  0.80077150  0.33317746  1
  Mg  Mg56  1  0.39995341  -0.00000490  0.33373807  1
  Mg  Mg57  1  0.60004152  -0.00000562  0.33373798  1
  Mg  Mg58  1  0.39995713  0.39995883  0.33374022  1
  Mg  Mg59  1  0.00000500  0.39995834  0.33373824  1
  Mg  Mg60  1  0.00000419  0.60004608  0.33373827  1
  Mg  Mg61  1  0.60004167  0.60004313  0.33374034  1
  Mg  Mg62  1  0.60002278  0.20004109  0.33372307  1
  Mg  Mg63  1  0.60002257  0.39997692  0.33372515  1
  Mg  Mg64  1  0.79995871  0.39997661  0.33372363  1
  Mg  Mg65  1  0.39990006  0.19995032  0.33372357  1
  Mg  Mg66  1  0.80004981  0.19995014  0.33372299  1
  Mg  Mg67  1  0.80004965  0.60009954  0.33372339  1
  Mg  Mg68  1  0.20002153  0.40004318  0.33372367  1
  Mg  Mg69  1  0.20001880  0.79998005  0.33372273  1
  Mg  Mg70  1  0.59995635  0.79997804  0.33372350  1
  Mg  Mg71  1  0.20005334  0.60002397  0.33371197  1
  Mg  Mg72  1  0.39997523  0.60002381  0.33371207  1
  Mg  Mg73  1  0.39997501  0.79994568  0.33371208  1
  Mg  Mg74  1  0.06654988  0.13308057  0.50000408  1
  Mg  Mg75  1  0.26647253  0.13322156  0.50000437  1
  Mg  Mg76  1  0.86677253  0.13322585  0.50000294  1
  Mg  Mg77  1  0.66675128  0.13341890  0.50000214  1
  Mg  Mg78  1  0.46670449  0.13341952  0.50000427  1
  Mg  Mg79  1  0.06659827  0.33314310  0.50000380  1
  Mg  Mg80  1  0.26656313  0.33314321  0.50000284  1
  Mg  Mg81  1  0.86657853  0.33324645  0.50000518  1
  Mg  Mg82  1  0.46669466  0.33325555  0.50000268  1
  Mg  Mg83  1  0.66667510  0.33332205  0.50000555  1
  Mg  Mg84  1  0.86657733  0.53329260  0.50000473  1
  Mg  Mg85  1  0.66674214  0.53330292  0.50000189  1
  Mg  Mg86  1  0.06660668  0.53328471  0.50000150  1
  Mg  Mg87  1  0.46670520  0.53329215  0.50000230  1
  Mg  Mg88  1  0.26666551  0.53330374  0.50000370  1
  Mg  Mg89  1  0.26666645  0.73332862  0.50000145  1
  Mg  Mg90  1  0.46669187  0.73333014  0.50000232  1
  Mg  Mg91  1  0.86677574  0.73352374  0.50000281  1
  Mg  Mg92  1  0.66685534  0.73343450  0.50000209  1
  Mg  Mg93  1  0.06660164  0.73342730  0.50000288  1
  Mg  Mg94  1  0.86691800  0.93344757  0.50000176  1
  Mg  Mg95  1  0.06655427  0.93344159  0.50000716  1
  Mg  Mg96  1  0.66685454  0.93339894  0.50000290  1
  Mg  Mg97  1  0.26656926  0.93339363  0.50000328  1
  Mg  Mg98  1  0.46671209  0.93338951  0.50000291  1
  Mg  Mg99  1  0.20005351  0.60002394  0.66628926  1
  Mg  Mg100  1  0.39997531  0.60002379  0.66628942  1
  Mg  Mg101  1  0.39997502  0.79994554  0.66628921  1
  Mg  Mg102  1  0.20002158  0.40004298  0.66627766  1
  Mg  Mg103  1  0.20001883  0.79998012  0.66627835  1
  Mg  Mg104  1  0.59995617  0.79997772  0.66627772  1
  Mg  Mg105  1  0.39990035  0.19995034  0.66627721  1
  Mg  Mg106  1  0.80004975  0.19995002  0.66627864  1
  Mg  Mg107  1  0.80004950  0.60009975  0.66627742  1
  Mg  Mg108  1  0.60002281  0.20004092  0.66627803  1
  Mg  Mg109  1  0.60002263  0.39997718  0.66627563  1
  Mg  Mg110  1  0.79995861  0.39997700  0.66627756  1
  Mg  Mg111  1  0.39995352  -0.00000500  0.66626247  1
  Mg  Mg112  1  0.60004128  -0.00000552  0.66626273  1
  Mg  Mg113  1  0.39995689  0.39995839  0.66626013  1
  Mg  Mg114  1  0.00000534  0.39995847  0.66626255  1
  Mg  Mg115  1  0.00000434  0.60004596  0.66626258  1
  Mg  Mg116  1  0.60004138  0.60004289  0.66626062  1
  Mg  Mg117  1  0.80026574  0.99953011  0.66680781  1
  Mg  Mg118  1  0.19923513  0.99955449  0.66682288  1
  Mg  Mg119  1  0.19924157  0.19977980  0.66684324  1
  Mg  Mg120  1  0.00047422  0.19973740  0.66681366  1
  Mg  Mg121  1  0.80022766  0.80076241  0.66684206  1
  Mg  Mg122  1  0.00044748  0.80077098  0.66683115  1
  Mg  Mg123  1  0.99999083  0.00001307  0.66782505  1
  Mg  Mg124  1  0.26666450  0.53332739  0.83353353  1
  Mg  Mg125  1  0.26666456  0.73333594  0.83353268  1
  Mg  Mg126  1  0.46667325  0.73333616  0.83353345  1
  Mg  Mg127  1  0.06665484  0.53332745  0.83352810  1
  Mg  Mg128  1  0.46667352  0.53332713  0.83352590  1
  Mg  Mg129  1  0.46667326  0.93334566  0.83352817  1
  Mg  Mg130  1  0.26662348  0.33329768  0.83357230  1
  Mg  Mg131  1  0.06667567  0.33329632  0.83357062  1
  Mg  Mg132  1  0.06667600  0.73337652  0.83356829  1
  Mg  Mg133  1  0.66670249  0.73337644  0.83357180  1
  Mg  Mg134  1  0.66670398  0.93332468  0.83357031  1
  Mg  Mg135  1  0.26662371  0.93332440  0.83356817  1
  Mg  Mg136  1  0.86667591  0.13332346  0.83357597  1
  Mg  Mg137  1  0.26664926  0.13332442  0.83357694  1
  Mg  Mg138  1  0.86667561  0.73335116  0.83357740  1
  Mg  Mg139  1  0.46666530  0.13335310  0.83349463  1
  Mg  Mg140  1  0.66668908  0.13335368  0.83349397  1
  Mg  Mg141  1  0.46666566  0.33331138  0.83349484  1
  Mg  Mg142  1  0.86664666  0.33331107  0.83349395  1
  Mg  Mg143  1  0.66668891  0.53333461  0.83349471  1
  Mg  Mg144  1  0.86664693  0.53333505  0.83349454  1
  Mg  Mg145  1  0.66666688  0.33333303  0.83346987  1
  Mg  Mg146  1  0.06656288  0.13311412  0.83424998  1
  Mg  Mg147  1  0.86688028  0.93343453  0.83424828  1
  Mg  Mg148  1  0.06657892  0.93342152  0.83423118  1
loop_
_geom_bond_atom_site_label_1
_geom_bond_atom_site_label_2
_geom_bond_distance
_geom_bond_site_symmetry_2
Li0 Mg146 3.140919 1_555
Li0 Mg147 3.140977 1_445
Li0 Mg24 3.141240 1_556
Li0 Mg25 3.141282 1_446
Li0 Mg148 3.141309 1_545
Li0 Mg26 3.141645 1_546
Li0 Mg23 3.151965 1_555
Li0 Mg22 3.151989 1_455
Li0 Mg19 3.151992 1_545
Li0 Mg1 3.152001 1_555
Li0 Mg0 3.152178 1_555
Li0 Mg18 3.152196 1_445
Mg0 Mg146 3.133124 1_555
Mg0 Mg24 3.133171 1_556
Mg0 Mg1 3.150952 1_555
Mg0 Mg137 3.151444 1_555
Mg0 Mg35 3.151511 1_556
Mg0 Mg23 3.152884 1_555
Mg0 Mg130 3.161208 1_555
Mg0 Mg37 3.161275 1_556
Mg0 Mg7 3.176523 1_556
Mg0 Mg3 3.177750 1_556
Mg0 Mg5 3.185576 1_556
Mg1 Mg146 3.133146 1_555
Mg1 Mg24 3.133186 1_556
Mg1 Mg136 3.151520 1_455
Mg1 Mg34 3.151569 1_456
Mg1 Mg22 3.153074 1_455
Mg1 Mg131 3.161235 1_555
Mg1 Mg38 3.161288 1_556
Mg1 Mg7 3.176624 1_556
Mg1 Mg2 3.177752 1_456
Mg1 Mg6 3.184811 1_556
Mg2 Mg34 3.147712 1_555
Mg2 Mg31 3.153927 1_555
Mg2 Mg29 3.153939 1_555
Mg2 Mg6 3.168570 1_655
Mg2 Mg20 3.168578 1_554
Mg2 Mg22 3.177789 1_554
Mg2 Mg4 3.177954 1_555
Mg2 Mg8 3.177976 1_555
Mg3 Mg35 3.147754 1_555
Mg3 Mg30 3.153931 1_555
Mg3 Mg5 3.168966 1_555
Mg3 Mg4 3.177695 1_555
Mg3 Mg9 3.178128 1_555
Mg4 Mg9 3.175590 1_555
Mg4 Mg8 3.176227 1_555
Mg5 Mg7 3.168408 1_555
Mg5 Mg9 3.175059 1_555
Mg6 Mg7 3.168165 1_555
Mg6 Mg8 3.174837 1_455
Mg8 Mg9 3.175588 1_555
Mg10 Mg125 3.151626 1_554
Mg10 Mg47 3.151647 1_555
Mg10 Mg124 3.151682 1_554
Mg10 Mg46 3.151702 1_555
Mg10 Mg127 3.152176 1_554
Mg10 Mg43 3.152194 1_555
Mg10 Mg11 3.171537 1_555
Mg10 Mg15 3.171869 1_555
Mg10 Mg14 3.176367 1_554
Mg10 Mg6 3.177239 1_555
Mg10 Mg17 3.178060 1_555
Mg10 Mg7 3.178308 1_555
Mg11 Mg124 3.151599 1_554
Mg11 Mg126 3.151600 1_554
Mg11 Mg46 3.151624 1_555
Mg11 Mg48 3.151625 1_555
Mg11 Mg128 3.152296 1_554
Mg11 Mg44 3.152318 1_555
Mg11 Mg15 3.171567 1_555
Mg11 Mg13 3.176492 1_554
Mg11 Mg5 3.176496 1_555
Mg11 Mg16 3.178624 1_555
Mg11 Mg7 3.178643 1_555
Mg12 Mg138 3.147751 1_554
Mg12 Mg36 3.147766 1_555
Mg12 Mg144 3.153834 1_554
Mg12 Mg33 3.153850 1_555
Mg12 Mg143 3.153911 1_554
Mg12 Mg32 3.153927 1_555
Mg12 Mg14 3.168731 1_654
Mg12 Mg13 3.168925 1_554
Mg12 Mg8 3.177677 1_555
Mg12 Mg18 3.177774 1_554
Mg12 Mg19 3.177899 1_654
Mg12 Mg9 3.178103 1_555
Mg13 Mg133 3.147682 1_555
Mg13 Mg40 3.147698 1_556
Mg13 Mg143 3.152594 1_555
Mg13 Mg32 3.152609 1_556
Mg13 Mg44 3.155585 1_556
Mg13 Mg16 3.168438 1_556
Mg13 Mg9 3.175056 1_556
Mg13 Mg18 3.185540 1_555
Mg13 Mg5 3.188016 1_556
Mg14 Mg39 3.147440 1_556
Mg14 Mg144 3.152728 1_455
Mg14 Mg33 3.152741 1_456
Mg14 Mg43 3.155730 1_556
Mg14 Mg17 3.168152 1_556
Mg14 Mg8 3.175463 1_456
Mg14 Mg19 3.184552 1_555
Mg14 Mg6 3.188799 1_556
Mg15 Mg47 3.151639 1_555
Mg15 Mg48 3.151710 1_555
Mg15 Mg45 3.152195 1_555
Mg15 Mg21 3.176391 1_554
Mg15 Mg20 3.177264 1_564
Mg15 Mg17 3.178038 1_555
Mg15 Mg16 3.178308 1_555
Mg16 Mg41 3.149220 1_555
Mg16 Mg40 3.149310 1_555
Mg16 Mg48 3.155667 1_555
Mg16 Mg20 3.168212 1_564
Mg16 Mg18 3.176480 1_554
Mg16 Mg22 3.176614 1_564
Mg17 Mg39 3.149348 1_555
Mg17 Mg42 3.149367 1_555
Mg17 Mg47 3.155567 1_555
Mg17 Mg21 3.168170 1_554
Mg17 Mg19 3.176421 1_554
Mg17 Mg23 3.176454 1_564
Mg18 Mg25 3.133189 1_556
Mg18 Mg22 3.151006 1_565
Mg18 Mg36 3.151500 1_556
Mg18 Mg19 3.152863 1_655
Mg18 Mg40 3.161265 1_556
Mg19 Mg26 3.133407 1_556
Mg19 Mg36 3.151529 1_456
Mg19 Mg23 3.151542 1_565
Mg19 Mg39 3.161165 1_556
Mg20 Mg41 3.147526 1_546
Mg20 Mg29 3.152433 1_556
Mg20 Mg45 3.155954 1_546
Mg20 Mg4 3.174879 1_556
Mg20 Mg22 3.184747 1_555
Mg20 Mg21 3.188819 1_545
Mg21 Mg42 3.147425 1_556
Mg21 Mg28 3.152742 1_566
Mg21 Mg45 3.155742 1_556
Mg21 Mg3 3.168751 1_566
Mg21 Mg4 3.175512 1_566
Mg21 Mg23 3.184519 1_565
Mg22 Mg25 3.133194 1_546
Mg22 Mg34 3.151584 1_556
Mg22 Mg41 3.161288 1_546
Mg23 Mg26 3.133411 1_546
Mg23 Mg35 3.151561 1_556
Mg23 Mg42 3.161185 1_546
Mg23 Mg3 3.177897 1_556
Mg24 Mg49 3.149468 1_455
Mg24 Mg52 3.158588 1_555
Mg24 Mg53 3.159019 1_555
Mg24 Mg25 3.167606 1_445
Mg24 Mg26 3.167658 1_545
Mg24 Mg35 3.172121 1_555
Mg24 Mg34 3.172295 1_455
Mg24 Mg38 3.174459 1_555
Mg24 Mg37 3.174664 1_555
Mg25 Mg49 3.149550 1_565
Mg25 Mg54 3.158446 1_555
Mg25 Mg50 3.159020 1_555
Mg25 Mg26 3.167703 1_655
Mg25 Mg36 3.172146 1_555
Mg25 Mg34 3.172309 1_565
Mg25 Mg41 3.174367 1_555
Mg25 Mg40 3.174603 1_555
Mg26 Mg49 3.149770 1_465
Mg26 Mg55 3.158252 1_555
Mg26 Mg51 3.158419 1_555
Mg26 Mg35 3.172499 1_565
Mg26 Mg36 3.172509 1_455
Mg26 Mg42 3.173902 1_555
Mg26 Mg39 3.173929 1_555
Mg27 Mg9 3.153566 1_555
Mg27 Mg4 3.153717 1_555
Mg27 Mg8 3.153737 1_555
Mg27 Mg63 3.160517 1_555
Mg27 Mg64 3.160616 1_555
Mg27 Mg62 3.160617 1_555
Mg27 Mg30 3.172259 1_555
Mg27 Mg31 3.172261 1_555
Mg27 Mg29 3.172281 1_555
Mg27 Mg32 3.172284 1_555
Mg27 Mg28 3.172555 1_555
Mg27 Mg33 3.172563 1_555
Mg28 Mg4 3.151665 1_555
Mg28 Mg3 3.153862 1_555
Mg28 Mg65 3.161399 1_555
Mg28 Mg62 3.161444 1_555
Mg28 Mg56 3.161643 1_555
Mg28 Mg30 3.171766 1_555
Mg28 Mg35 3.172437 1_555
Mg28 Mg45 3.172611 1_545
Mg28 Mg29 3.172783 1_555
Mg28 Mg42 3.173259 1_545
Mg29 Mg4 3.151742 1_555
Mg29 Mg62 3.161315 1_555
Mg29 Mg66 3.161459 1_555
Mg29 Mg57 3.161642 1_555
Mg29 Mg31 3.172028 1_555
Mg29 Mg34 3.172439 1_555
Mg29 Mg45 3.172890 1_545
Mg29 Mg41 3.173011 1_545
Mg30 Mg9 3.151776 1_555
Mg30 Mg5 3.152624 1_555
Mg30 Mg63 3.161469 1_555
Mg30 Mg65 3.161486 1_555
Mg30 Mg58 3.161557 1_555
Mg30 Mg44 3.172621 1_555
Mg30 Mg35 3.172730 1_555
Mg30 Mg37 3.172966 1_555
Mg30 Mg32 3.173074 1_555
Mg31 Mg8 3.151739 1_555
Mg31 Mg6 3.152441 1_655
Mg31 Mg64 3.161318 1_555
Mg31 Mg66 3.161467 1_555
Mg31 Mg59 3.161629 1_655
Mg31 Mg34 3.172469 1_555
Mg31 Mg33 3.172811 1_555
Mg31 Mg43 3.172896 1_655
Mg31 Mg38 3.172987 1_655
Mg32 Mg9 3.151776 1_555
Mg32 Mg67 3.161474 1_555
Mg32 Mg63 3.161479 1_555
Mg32 Mg61 3.161556 1_555
Mg32 Mg33 3.171740 1_555
Mg32 Mg44 3.172593 1_555
Mg32 Mg36 3.172727 1_555
Mg32 Mg40 3.172991 1_555
Mg33 Mg8 3.151653 1_555
Mg33 Mg67 3.161391 1_555
Mg33 Mg64 3.161466 1_555
Mg33 Mg60 3.161630 1_655
Mg33 Mg36 3.172458 1_555
Mg33 Mg43 3.172591 1_655
Mg33 Mg39 3.173260 1_655
Mg34 Mg53 3.159264 1_655
Mg34 Mg50 3.159273 1_545
Mg34 Mg66 3.161550 1_555
Mg34 Mg41 3.172466 1_545
Mg34 Mg38 3.172481 1_655
Mg35 Mg51 3.159055 1_545
Mg35 Mg52 3.159428 1_555
Mg35 Mg65 3.161639 1_555
Mg35 Mg37 3.172209 1_555
Mg35 Mg42 3.172220 1_545
Mg36 Mg55 3.158954 1_655
Mg36 Mg54 3.159338 1_555
Mg36 Mg67 3.161654 1_555
Mg36 Mg40 3.172179 1_555
Mg36 Mg39 3.172207 1_655
Mg37 Mg5 3.147686 1_555
Mg37 Mg7 3.149318 1_555
Mg37 Mg52 3.156711 1_555
Mg37 Mg68 3.162257 1_555
Mg37 Mg58 3.162446 1_555
Mg37 Mg38 3.171566 1_555
Mg37 Mg46 3.172581 1_555
Mg37 Mg44 3.173339 1_555
Mg38 Mg6 3.147527 1_555
Mg38 Mg7 3.149204 1_555
Mg38 Mg53 3.157273 1_555
Mg38 Mg59 3.162307 1_555
Mg38 Mg68 3.162317 1_555
Mg38 Mg46 3.172859 1_555
Mg38 Mg43 3.173097 1_555
Mg39 Mg55 3.157565 1_555
Mg39 Mg69 3.162249 1_555
Mg39 Mg60 3.162356 1_555
Mg39 Mg42 3.171868 1_555
Mg39 Mg47 3.172552 1_555
Mg39 Mg43 3.173049 1_555
Mg40 Mg54 3.156713 1_555
Mg40 Mg70 3.162254 1_555
Mg40 Mg61 3.162452 1_555
Mg40 Mg41 3.171591 1_555
Mg40 Mg48 3.172553 1_555
Mg40 Mg44 3.173328 1_555
Mg41 Mg50 3.157368 1_555
Mg41 Mg57 3.162297 1_565
Mg41 Mg70 3.162325 1_555
Mg41 Mg48 3.172854 1_555
Mg41 Mg45 3.173070 1_555
Mg42 Mg51 3.157646 1_555
Mg42 Mg69 3.162270 1_555
Mg42 Mg56 3.162341 1_565
Mg42 Mg47 3.172577 1_555
Mg42 Mg45 3.173031 1_555
Mg43 Mg6 3.155946 1_555
Mg43 Mg71 3.162051 1_555
Mg43 Mg60 3.162057 1_555
Mg43 Mg59 3.162154 1_555
Mg43 Mg46 3.172561 1_555
Mg43 Mg47 3.172845 1_555
Mg44 Mg5 3.155583 1_555
Mg44 Mg72 3.161904 1_555
Mg44 Mg61 3.162137 1_555
Mg44 Mg58 3.162145 1_555
Mg44 Mg46 3.172553 1_555
Mg44 Mg48 3.172576 1_555
Mg45 Mg56 3.162055 1_565
Mg45 Mg73 3.162073 1_555
Mg45 Mg57 3.162138 1_565
Mg45 Mg48 3.172582 1_555
Mg45 Mg47 3.172846 1_555
Mg46 Mg7 3.155672 1_555
Mg46 Mg71 3.161304 1_555
Mg46 Mg68 3.161360 1_555
Mg46 Mg72 3.161421 1_555
Mg46 Mg47 3.172569 1_555
Mg46 Mg48 3.172845 1_555
Mg47 Mg69 3.161286 1_555
Mg47 Mg73 3.161407 1_555
Mg47 Mg71 3.161426 1_555
Mg47 Mg48 3.172546 1_555
Mg48 Mg73 3.161306 1_555
Mg48 Mg70 3.161342 1_555
Mg48 Mg72 3.161441 1_555
Mg49 Mg55 3.164072 1_645
Mg49 Mg51 3.164087 1_645
Mg49 Mg50 3.164247 1_545
Mg49 Mg53 3.164287 1_655
Mg49 Mg54 3.164932 1_545
Mg49 Mg52 3.164951 1_655
Mg49 Mg74 3.166790 1_655
Mg49 Mg94 3.166821 1_545
Mg49 Mg95 3.167274 1_645
Mg50 Mg94 3.151265 1_555
Mg50 Mg54 3.152574 1_555
Mg50 Mg96 3.156798 1_555
Mg50 Mg76 3.159045 1_565
Mg50 Mg70 3.171655 1_555
Mg50 Mg53 3.175990 1_665
Mg50 Mg57 3.179697 1_565
Mg50 Mg66 3.180826 1_565
Mg51 Mg95 3.151049 1_555
Mg51 Mg55 3.153444 1_555
Mg51 Mg97 3.157402 1_555
Mg51 Mg75 3.158874 1_565
Mg51 Mg69 3.171931 1_555
Mg51 Mg52 3.175947 1_565
Mg51 Mg56 3.180322 1_565
Mg51 Mg65 3.181118 1_565
Mg52 Mg74 3.151383 1_555
Mg52 Mg53 3.152552 1_555
Mg52 Mg80 3.156710 1_555
Mg52 Mg75 3.160016 1_555
Mg52 Mg68 3.170454 1_555
Mg52 Mg58 3.179793 1_555
Mg52 Mg65 3.181489 1_555
Mg53 Mg74 3.151351 1_555
Mg53 Mg79 3.156790 1_555
Mg53 Mg76 3.159141 1_455
Mg53 Mg68 3.171547 1_555
Mg53 Mg59 3.179649 1_555
Mg53 Mg66 3.180830 1_455
Mg54 Mg94 3.151356 1_555
Mg54 Mg92 3.156850 1_555
Mg54 Mg91 3.160047 1_555
Mg54 Mg70 3.170539 1_555
Mg54 Mg55 3.175800 1_655
Mg54 Mg61 3.179919 1_555
Mg54 Mg67 3.181547 1_555
Mg55 Mg95 3.151089 1_555
Mg55 Mg93 3.157546 1_555
Mg55 Mg91 3.159007 1_455
Mg55 Mg69 3.171919 1_555
Mg55 Mg60 3.180443 1_555
Mg55 Mg67 3.181197 1_455
Mg56 Mg98 3.149430 1_545
Mg56 Mg97 3.149684 1_545
Mg56 Mg78 3.150027 1_555
Mg56 Mg65 3.172144 1_555
Mg56 Mg69 3.172302 1_545
Mg56 Mg73 3.173386 1_545
Mg56 Mg62 3.173616 1_555
Mg56 Mg57 3.173811 1_555
Mg57 Mg98 3.149243 1_545
Mg57 Mg96 3.149785 1_545
Mg57 Mg77 3.150002 1_555
Mg57 Mg70 3.172015 1_545
Mg57 Mg66 3.172416 1_555
Mg57 Mg62 3.173321 1_555
Mg57 Mg73 3.173615 1_545
Mg58 Mg87 3.149248 1_555
Mg58 Mg80 3.149731 1_555
Mg58 Mg82 3.150012 1_555
Mg58 Mg68 3.172055 1_555
Mg58 Mg65 3.172114 1_555
Mg58 Mg63 3.173302 1_555
Mg58 Mg72 3.173318 1_555
Mg58 Mg61 3.174040 1_555
Mg59 Mg86 3.149207 1_555
Mg59 Mg79 3.149793 1_555
Mg59 Mg81 3.150044 1_455
Mg59 Mg68 3.171997 1_555
Mg59 Mg66 3.172411 1_455
Mg59 Mg64 3.173287 1_455
Mg59 Mg71 3.173605 1_555
Mg59 Mg60 3.173829 1_555
Mg60 Mg86 3.149407 1_555
Mg60 Mg93 3.149662 1_555
Mg60 Mg84 3.150041 1_455
Mg60 Mg67 3.172111 1_455
Mg60 Mg69 3.172293 1_555
Mg60 Mg71 3.173363 1_555
Mg60 Mg64 3.173613 1_455
Mg61 Mg87 3.149263 1_555
Mg61 Mg92 3.149708 1_555
Mg61 Mg85 3.149999 1_555
Mg61 Mg70 3.172076 1_555
Mg61 Mg67 3.172087 1_555
Mg61 Mg72 3.173308 1_555
Mg61 Mg63 3.173330 1_555
Mg62 Mg83 3.149085 1_555
Mg62 Mg78 3.149358 1_555
Mg62 Mg77 3.149500 1_555
Mg62 Mg63 3.171415 1_555
Mg62 Mg64 3.171681 1_555
Mg62 Mg66 3.173558 1_555
Mg62 Mg65 3.173635 1_555
Mg63 Mg83 3.149171 1_555
Mg63 Mg85 3.149373 1_555
Mg63 Mg82 3.149389 1_555
Mg63 Mg64 3.171397 1_555
Mg63 Mg65 3.173884 1_555
Mg63 Mg67 3.173889 1_555
Mg64 Mg83 3.149090 1_555
Mg64 Mg84 3.149347 1_555
Mg64 Mg81 3.149525 1_555
Mg64 Mg66 3.173574 1_555
Mg64 Mg67 3.173660 1_555
Mg65 Mg82 3.149237 1_555
Mg65 Mg78 3.149398 1_555
Mg65 Mg75 3.150226 1_555
Mg66 Mg77 3.149175 1_555
Mg66 Mg81 3.149204 1_555
Mg66 Mg76 3.150281 1_555
Mg67 Mg85 3.149239 1_555
Mg67 Mg84 3.149401 1_555
Mg67 Mg91 3.150191 1_555
Mg68 Mg88 3.148891 1_555
Mg68 Mg79 3.150185 1_555
Mg68 Mg80 3.150229 1_555
Mg68 Mg71 3.171874 1_555
Mg68 Mg72 3.172180 1_555
Mg69 Mg89 3.149083 1_555
Mg69 Mg97 3.150121 1_555
Mg69 Mg93 3.150136 1_555
Mg69 Mg73 3.171986 1_555
Mg69 Mg71 3.172009 1_555
Mg70 Mg90 3.148899 1_555
Mg70 Mg96 3.150166 1_555
Mg70 Mg92 3.150229 1_555
Mg70 Mg73 3.171855 1_555
Mg70 Mg72 3.172188 1_555
Mg71 Mg89 3.149362 1_555
Mg71 Mg88 3.149513 1_555
Mg71 Mg86 3.150489 1_555
Mg71 Mg72 3.171170 1_555
Mg71 Mg73 3.171459 1_555
Mg72 Mg90 3.149385 1_555
Mg72 Mg88 3.149421 1_555
Mg72 Mg87 3.150526 1_555
Mg72 Mg73 3.171194 1_555
Mg73 Mg89 3.149383 1_555
Mg73 Mg90 3.149494 1_555
Mg73 Mg98 3.150491 1_555
Mg74 Mg95 3.166740 1_545
Mg74 Mg94 3.166870 1_445
Mg74 Mg76 3.170029 1_455
Mg74 Mg75 3.170063 1_555
Mg74 Mg79 3.173039 1_555
Mg74 Mg80 3.173303 1_555
Mg75 Mg95 3.170308 1_545
Mg75 Mg97 3.170469 1_545
Mg75 Mg80 3.170470 1_555
Mg75 Mg78 3.174518 1_555
Mg75 Mg82 3.174734 1_555
Mg76 Mg94 3.170068 1_545
Mg76 Mg79 3.170663 1_655
Mg76 Mg96 3.170678 1_545
Mg76 Mg77 3.174277 1_555
Mg76 Mg81 3.174297 1_555
Mg77 Mg81 3.169963 1_555
Mg77 Mg83 3.171499 1_555
Mg77 Mg78 3.173155 1_555
Mg77 Mg98 3.173245 1_545
Mg77 Mg96 3.173567 1_545
Mg78 Mg82 3.169908 1_555
Mg78 Mg83 3.171695 1_555
Mg78 Mg98 3.172968 1_545
Mg78 Mg97 3.173979 1_545
Mg79 Mg80 3.171849 1_555
Mg79 Mg81 3.173541 1_455
Mg79 Mg88 3.174509 1_555
Mg79 Mg86 3.174611 1_555
Mg80 Mg82 3.173603 1_555
Mg80 Mg88 3.174166 1_555
Mg80 Mg87 3.175009 1_555
Mg81 Mg83 3.171475 1_555
Mg81 Mg84 3.173173 1_555
Mg81 Mg86 3.173228 1_655
Mg82 Mg83 3.171570 1_555
Mg82 Mg87 3.172928 1_555
Mg82 Mg85 3.173453 1_555
Mg83 Mg85 3.171596 1_555
Mg83 Mg84 3.171692 1_555
Mg84 Mg85 3.169875 1_555
Mg84 Mg86 3.172936 1_655
Mg84 Mg93 3.173963 1_655
Mg84 Mg91 3.174525 1_555
Mg85 Mg87 3.172908 1_555
Mg85 Mg92 3.173621 1_555
Mg85 Mg91 3.174720 1_555
Mg86 Mg99 3.150468 1_555
Mg86 Mg88 3.173190 1_555
Mg86 Mg89 3.173523 1_555
Mg86 Mg93 3.174733 1_555
Mg87 Mg88 3.173129 1_555
Mg87 Mg90 3.173140 1_555
Mg87 Mg92 3.175021 1_555
Mg88 Mg99 3.149434 1_555
Mg88 Mg89 3.172818 1_555
Mg88 Mg90 3.173119 1_555
Mg89 Mg99 3.149340 1_555
Mg89 Mg90 3.172799 1_555
Mg89 Mg98 3.173546 1_555
Mg89 Mg93 3.174218 1_555
Mg89 Mg97 3.174233 1_555
Mg90 Mg98 3.173213 1_555
Mg90 Mg92 3.174173 1_555
Mg90 Mg96 3.174537 1_555
Mg91 Mg94 3.170096 1_555
Mg91 Mg95 3.170293 1_655
Mg91 Mg93 3.170411 1_655
Mg91 Mg92 3.170438 1_555
Mg92 Mg96 3.171874 1_555
Mg92 Mg94 3.173302 1_555
Mg93 Mg97 3.172177 1_555
Mg93 Mg95 3.173034 1_555
Mg94 Mg95 3.166686 1_655
Mg94 Mg96 3.173029 1_555
Mg95 Mg97 3.173026 1_555
Mg96 Mg98 3.174592 1_555
Mg97 Mg98 3.174706 1_555
Mg100 Mg90 3.149345 1_555
Mg100 Mg88 3.149348 1_555
Mg100 Mg87 3.150487 1_555
Mg100 Mg124 3.161380 1_555
Mg100 Mg126 3.161400 1_555
Mg100 Mg128 3.161863 1_555
Mg100 Mg99 3.171168 1_555
Mg100 Mg101 3.171192 1_555
Mg100 Mg102 3.172182 1_555
Mg100 Mg104 3.172184 1_555
Mg100 Mg116 3.173304 1_555
Mg100 Mg113 3.173323 1_555
Mg101 Mg89 3.149363 1_555
Mg101 Mg90 3.149451 1_555
Mg101 Mg98 3.150434 1_555
Mg101 Mg126 3.161266 1_555
Mg101 Mg125 3.161369 1_555
Mg101 Mg129 3.162035 1_555
Mg101 Mg99 3.171457 1_555
Mg101 Mg104 3.171853 1_555
Mg101 Mg103 3.171987 1_555
Mg101 Mg111 3.173386 1_565
Mg101 Mg112 3.173615 1_565
Mg102 Mg88 3.148816 1_555
Mg102 Mg79 3.150108 1_555
Mg102 Mg80 3.150173 1_555
Mg102 Mg124 3.161326 1_555
Mg102 Mg130 3.162214 1_555
Mg102 Mg131 3.162273 1_555
Mg102 Mg119 3.170451 1_555
Mg102 Mg120 3.171562 1_555
Mg102 Mg99 3.171876 1_555
Mg102 Mg114 3.171995 1_555
Mg102 Mg113 3.172052 1_555
Mg103 Mg89 3.149061 1_555
Mg103 Mg97 3.150051 1_555
Mg103 Mg93 3.150078 1_555
Mg103 Mg125 3.161252 1_555
Mg103 Mg132 3.162211 1_555
Mg103 Mg135 3.162229 1_555
Mg103 Mg122 3.171910 1_555
Mg103 Mg118 3.171924 1_555
Mg103 Mg99 3.172011 1_555
Mg103 Mg115 3.172294 1_555
Mg103 Mg111 3.172301 1_565
Mg104 Mg90 3.148855 1_555
Mg104 Mg96 3.150110 1_555
Mg104 Mg92 3.150191 1_555
Mg104 Mg126 3.161304 1_555
Mg104 Mg133 3.162211 1_555
Mg104 Mg134 3.162286 1_555
Mg104 Mg121 3.170522 1_555
Mg104 Mg117 3.171634 1_555
Mg104 Mg112 3.172022 1_565
Mg104 Mg116 3.172073 1_555
Mg105 Mg82 3.149179 1_555
Mg105 Mg78 3.149298 1_555
Mg105 Mg75 3.150129 1_555
Mg105 Mg139 3.161364 1_555
Mg105 Mg141 3.161456 1_555
Mg105 Mg137 3.161604 1_555
Mg105 Mg113 3.172111 1_555
Mg105 Mg111 3.172145 1_555
Mg105 Mg108 3.173632 1_555
Mg105 Mg109 3.173884 1_555
Mg105 Mg118 3.181130 1_545
Mg105 Mg119 3.181518 1_555
Mg106 Mg81 3.149095 1_555
Mg106 Mg77 3.149142 1_555
Mg106 Mg76 3.150227 1_555
Mg106 Mg140 3.161416 1_555
Mg106 Mg142 3.161427 1_555
Mg106 Mg136 3.161496 1_555
Mg106 Mg112 3.172416 1_555
Mg106 Mg114 3.172416 1_655
Mg106 Mg108 3.173556 1_555
Mg106 Mg110 3.173582 1_555
Mg106 Mg117 3.180816 1_545
Mg106 Mg120 3.180839 1_655
Mg107 Mg85 3.149201 1_555
Mg107 Mg84 3.149296 1_555
Mg107 Mg91 3.150128 1_555
Mg107 Mg144 3.161360 1_555
Mg107 Mg143 3.161440 1_555
Mg107 Mg138 3.161618 1_555
Mg107 Mg116 3.172086 1_555
Mg107 Mg115 3.172118 1_655
Mg107 Mg110 3.173658 1_555
Mg107 Mg109 3.173887 1_555
Mg107 Mg122 3.181195 1_655
Mg107 Mg121 3.181543 1_555
Mg108 Mg83 3.148960 1_555
Mg108 Mg78 3.149266 1_555
Mg108 Mg77 3.149459 1_555
Mg108 Mg145 3.160583 1_555
Mg108 Mg140 3.161276 1_555
Mg108 Mg139 3.161406 1_555
Mg108 Mg109 3.171422 1_555
Mg108 Mg110 3.171685 1_555
Mg108 Mg112 3.173314 1_555
Mg108 Mg111 3.173615 1_555
Mg109 Mg83 3.149043 1_555
Mg109 Mg85 3.149332 1_555
Mg109 Mg82 3.149333 1_555
Mg109 Mg145 3.160485 1_555
Mg109 Mg141 3.161435 1_555
Mg109 Mg143 3.161445 1_555
Mg109 Mg110 3.171394 1_555
Mg109 Mg113 3.173301 1_555
Mg109 Mg116 3.173325 1_555
Mg110 Mg83 3.148966 1_555
Mg110 Mg84 3.149240 1_555
Mg110 Mg81 3.149415 1_555
Mg110 Mg145 3.160578 1_555
Mg110 Mg142 3.161285 1_555
Mg110 Mg144 3.161424 1_555
Mg110 Mg114 3.173296 1_655
Mg110 Mg115 3.173611 1_655
Mg111 Mg98 3.149363 1_545
Mg111 Mg97 3.149610 1_545
Mg111 Mg78 3.149927 1_555
Mg111 Mg139 3.161615 1_555
Mg111 Mg129 3.162025 1_545
Mg111 Mg135 3.162305 1_545
Mg111 Mg112 3.173804 1_555
Mg111 Mg118 3.180327 1_545
Mg112 Mg98 3.149178 1_545
Mg112 Mg96 3.149724 1_545
Mg112 Mg77 3.149956 1_555
Mg112 Mg140 3.161612 1_555
Mg112 Mg129 3.162103 1_545
Mg112 Mg134 3.162260 1_545
Mg112 Mg117 3.179668 1_545
Mg113 Mg87 3.149197 1_555
Mg113 Mg80 3.149663 1_555
Mg113 Mg82 3.149948 1_555
Mg113 Mg141 3.161530 1_555
Mg113 Mg128 3.162122 1_555
Mg113 Mg130 3.162415 1_555
Mg113 Mg116 3.174041 1_555
Mg113 Mg119 3.179812 1_555
Mg114 Mg86 3.149177 1_555
Mg114 Mg79 3.149706 1_555
Mg114 Mg81 3.149927 1_455
Mg114 Mg142 3.161602 1_455
Mg114 Mg127 3.162121 1_555
Mg114 Mg131 3.162266 1_555
Mg114 Mg99 3.173602 1_555
Mg114 Mg115 3.173827 1_555
Mg114 Mg120 3.179674 1_555
Mg115 Mg86 3.149378 1_555
Mg115 Mg93 3.149601 1_555
Mg115 Mg84 3.149935 1_455
Mg115 Mg144 3.161599 1_455
Mg115 Mg127 3.162022 1_555
Mg115 Mg132 3.162320 1_555
Mg115 Mg99 3.173362 1_555
Mg115 Mg122 3.180436 1_555
Mg116 Mg87 3.149215 1_555
Mg116 Mg92 3.149668 1_555
Mg116 Mg85 3.149965 1_555
Mg116 Mg143 3.161522 1_555
Mg116 Mg128 3.162100 1_555
Mg116 Mg133 3.162412 1_555
Mg116 Mg121 3.179907 1_555
Mg117 Mg94 3.151209 1_555
Mg117 Mg121 3.152582 1_555
Mg117 Mg96 3.156680 1_555
Mg117 Mg134 3.157349 1_555
Mg117 Mg76 3.158950 1_565
Mg117 Mg147 3.158990 1_555
Mg117 Mg136 3.159275 1_565
Mg117 Mg123 3.164263 1_565
Mg117 Mg120 3.175999 1_665
Mg118 Mg95 3.150991 1_555
Mg118 Mg122 3.153436 1_555
Mg118 Mg97 3.157443 1_555
Mg118 Mg135 3.157498 1_555
Mg118 Mg148 3.158246 1_555
Mg118 Mg75 3.158894 1_565
Mg118 Mg137 3.158914 1_565
Mg118 Mg123 3.164101 1_465
Mg118 Mg119 3.175954 1_565
Mg119 Mg74 3.151375 1_555
Mg119 Mg120 3.152519 1_555
Mg119 Mg130 3.156592 1_555
Mg119 Mg80 3.156756 1_555
Mg119 Mg146 3.158408 1_555
Mg119 Mg137 3.159301 1_555
Mg119 Mg75 3.160025 1_555
Mg119 Mg123 3.164952 1_455
Mg120 Mg74 3.151236 1_555
Mg120 Mg79 3.156706 1_555
Mg120 Mg131 3.157266 1_555
Mg120 Mg146 3.158953 1_555
Mg120 Mg76 3.159063 1_455
Mg120 Mg136 3.159233 1_455
Mg120 Mg123 3.164271 1_455
Mg121 Mg94 3.151344 1_555
Mg121 Mg133 3.156650 1_555
Mg121 Mg92 3.156814 1_555
Mg121 Mg147 3.158358 1_555
Mg121 Mg138 3.159291 1_555
Mg121 Mg91 3.160010 1_555
Mg121 Mg123 3.164923 1_565
Mg121 Mg122 3.175826 1_655
Mg122 Mg95 3.151020 1_555
Mg122 Mg132 3.157430 1_555
Mg122 Mg93 3.157575 1_555
Mg122 Mg148 3.158106 1_555
Mg122 Mg138 3.158823 1_455
Mg122 Mg91 3.159048 1_455
Mg122 Mg123 3.164074 1_465
Mg123 Mg146 3.149435 1_655
Mg123 Mg147 3.149481 1_545
Mg123 Mg148 3.149727 1_645
Mg123 Mg74 3.166706 1_655
Mg123 Mg94 3.166771 1_545
Mg123 Mg95 3.167105 1_645
Mg124 Mg7 3.155654 1_556
Mg124 Mg99 3.161266 1_555
Mg124 Mg128 3.172553 1_555
Mg124 Mg127 3.172561 1_555
Mg124 Mg125 3.172566 1_555
Mg124 Mg130 3.172577 1_555
Mg124 Mg126 3.172840 1_555
Mg124 Mg131 3.172859 1_555
Mg125 Mg15 3.151618 1_556
Mg125 Mg17 3.155551 1_556
Mg125 Mg99 3.161390 1_555
Mg125 Mg126 3.172544 1_555
Mg125 Mg132 3.172548 1_555
Mg125 Mg135 3.172572 1_555
Mg125 Mg127 3.172845 1_555
Mg125 Mg129 3.172847 1_555
Mg126 Mg15 3.151690 1_556
Mg126 Mg16 3.155652 1_556
Mg126 Mg133 3.172552 1_555
Mg126 Mg128 3.172577 1_555
Mg126 Mg129 3.172582 1_555
Mg126 Mg134 3.172854 1_555
Mg127 Mg14 3.155716 1_555
Mg127 Mg6 3.155929 1_556
Mg127 Mg99 3.162013 1_555
Mg127 Mg144 3.172593 1_455
Mg127 Mg142 3.172896 1_455
Mg127 Mg132 3.173042 1_555
Mg127 Mg131 3.173090 1_555
Mg128 Mg5 3.155565 1_556
Mg128 Mg13 3.155569 1_555
Mg128 Mg143 3.172592 1_555
Mg128 Mg141 3.172619 1_555
Mg128 Mg133 3.173322 1_555
Mg128 Mg130 3.173332 1_555
Mg129 Mg15 3.152174 1_556
Mg129 Mg21 3.155729 1_555
Mg129 Mg20 3.155938 1_565
Mg129 Mg139 3.172612 1_565
Mg129 Mg140 3.172890 1_565
Mg129 Mg135 3.173025 1_555
Mg129 Mg134 3.173061 1_555
Mg130 Mg5 3.147668 1_556
Mg130 Mg7 3.149301 1_556
Mg130 Mg131 3.171569 1_555
Mg130 Mg137 3.172212 1_555
Mg130 Mg141 3.172968 1_555
Mg130 Mg146 3.174655 1_555
Mg131 Mg6 3.147514 1_556
Mg131 Mg7 3.149192 1_556
Mg131 Mg136 3.172484 1_455
Mg131 Mg142 3.172985 1_455
Mg131 Mg146 3.174445 1_555
Mg132 Mg14 3.147421 1_555
Mg132 Mg17 3.149333 1_556
Mg132 Mg19 3.161119 1_555
Mg132 Mg135 3.171873 1_555
Mg132 Mg138 3.172213 1_455
Mg132 Mg144 3.173261 1_455
Mg132 Mg148 3.173932 1_555
Mg133 Mg16 3.149299 1_556
Mg133 Mg18 3.161194 1_555
Mg133 Mg134 3.171598 1_555
Mg133 Mg138 3.172182 1_555
Mg133 Mg143 3.172987 1_555
Mg133 Mg147 3.174589 1_555
Mg134 Mg20 3.147512 1_565
Mg134 Mg16 3.149208 1_556
Mg134 Mg22 3.161210 1_565
Mg134 Mg136 3.172469 1_565
Mg134 Mg140 3.173010 1_565
Mg134 Mg147 3.174351 1_555
Mg135 Mg21 3.147410 1_555
Mg135 Mg17 3.149352 1_556
Mg135 Mg23 3.161102 1_565
Mg135 Mg137 3.172229 1_565
Mg135 Mg139 3.173259 1_565
Mg135 Mg148 3.173905 1_555
Mg136 Mg2 3.147702 1_556
Mg136 Mg22 3.151506 1_555
Mg136 Mg146 3.172293 1_655
Mg136 Mg147 3.172308 1_545
Mg136 Mg140 3.172439 1_555
Mg136 Mg142 3.172467 1_555
Mg137 Mg3 3.147739 1_556
Mg137 Mg23 3.151473 1_555
Mg137 Mg146 3.172128 1_555
Mg137 Mg139 3.172435 1_555
Mg137 Mg148 3.172506 1_545
Mg137 Mg141 3.172728 1_555
Mg138 Mg18 3.151423 1_555
Mg138 Mg19 3.151479 1_655
Mg138 Mg147 3.172149 1_555
Mg138 Mg144 3.172460 1_555
Mg138 Mg148 3.172509 1_655
Mg138 Mg143 3.172727 1_555
Mg139 Mg4 3.151648 1_556
Mg139 Mg21 3.152726 1_545
Mg139 Mg3 3.153849 1_556
Mg139 Mg141 3.171767 1_555
Mg139 Mg145 3.172554 1_555
Mg139 Mg140 3.172780 1_555
Mg140 Mg4 3.151723 1_556
Mg140 Mg20 3.152417 1_555
Mg140 Mg2 3.153923 1_556
Mg140 Mg142 3.172027 1_555
Mg140 Mg145 3.172280 1_555
Mg141 Mg9 3.151753 1_556
Mg141 Mg5 3.152609 1_556
Mg141 Mg3 3.153916 1_556
Mg141 Mg145 3.172255 1_555
Mg141 Mg143 3.173070 1_555
Mg142 Mg8 3.151722 1_556
Mg142 Mg6 3.152425 1_656
Mg142 Mg2 3.153908 1_556
Mg142 Mg145 3.172261 1_555
Mg142 Mg144 3.172809 1_555
Mg143 Mg9 3.151754 1_556
Mg143 Mg144 3.171738 1_555
Mg143 Mg145 3.172282 1_555
Mg144 Mg8 3.151635 1_556
Mg144 Mg145 3.172559 1_555
Mg145 Mg9 3.153544 1_556
Mg145 Mg4 3.153700 1_556
Mg145 Mg8 3.153722 1_556
Mg146 Mg147 3.167642 1_445
Mg146 Mg148 3.167682 1_545
Mg147 Mg22 3.133137 1_565
Mg147 Mg18 3.133140 1_555
Mg147 Mg148 3.167731 1_655
Mg148 Mg23 3.133337 1_565
Mg148 Mg19 3.133369 1_555
