# generated using pymatgen
data_Ba(WO3)6
_symmetry_space_group_name_H-M   'P 1'
_cell_length_a   10.74125653
_cell_length_b   10.74125653
_cell_length_c   8.85846241
_cell_angle_alpha   89.98417348
_cell_angle_beta   89.98417348
_cell_angle_gamma   41.68815508
_symmetry_Int_Tables_number   1
_chemical_formula_structural   Ba(WO3)6
_chemical_formula_sum   'Ba2 W12 O36'
_cell_volume   679.73521884
_cell_formula_units_Z   2
loop_
 _symmetry_equiv_pos_site_id
 _symmetry_equiv_pos_as_xyz
  1  'x, y, z'
loop_
 _atom_site_type_symbol
 _atom_site_label
 _atom_site_symmetry_multiplicity
 _atom_site_fract_x
 _atom_site_fract_y
 _atom_site_fract_z
 _atom_site_occupancy
  Ba  Ba0  1  0.87335753  0.87335753  0.08610787  1
  Ba  Ba1  1  0.12664247  0.12664247  0.91389213  1
  W  W0  1  0.46898305  0.96863904  0.20669012  1
  W  W1  1  0.28517210  0.77889165  0.20513825  1
  W  W2  1  0.96863904  0.46898305  0.20669012  1
  W  W3  1  0.77889165  0.28517210  0.20513825  1
  W  W4  1  0.12699647  0.62388249  0.43445005  1
  W  W5  1  0.62388249  0.12699647  0.43445005  1
  W  W6  1  0.87300353  0.37611751  0.56554995  1
  W  W7  1  0.37611751  0.87300353  0.56554995  1
  W  W8  1  0.22110835  0.71482790  0.79486175  1
  W  W9  1  0.53101695  0.03136096  0.79330988  1
  W  W10  1  0.03136096  0.53101695  0.79330988  1
  W  W11  1  0.71482790  0.22110835  0.79486175  1
  O  O0  1  0.38303710  0.86749531  0.14588361  1
  O  O1  1  0.86749531  0.38303710  0.14588361  1
  O  O2  1  0.21272962  0.21272962  0.19616662  1
  O  O3  1  0.72435143  0.72435143  0.20371495  1
  O  O4  1  0.53124275  0.53124275  0.21661548  1
  O  O5  1  0.03355857  0.03355857  0.18089692  1
  O  O6  1  0.18324298  0.70180268  0.27719633  1
  O  O7  1  0.70180268  0.18324298  0.27719633  1
  O  O8  1  0.54736633  0.06906441  0.27723802  1
  O  O9  1  0.06906441  0.54736633  0.27723802  1
  O  O10  1  0.29676106  0.82506834  0.40875506  1
  O  O11  1  0.87033659  0.87033659  0.41980626  1
  O  O12  1  0.38020633  0.38020633  0.43614747  1
  O  O13  1  0.44204024  0.93677709  0.40962857  1
  O  O14  1  0.93677709  0.44204024  0.40962857  1
  O  O15  1  0.82506834  0.29676106  0.40875506  1
  O  O16  1  0.61979367  0.61979367  0.56385253  1
  O  O17  1  0.12966341  0.12966341  0.58019374  1
  O  O18  1  0.70323894  0.17493166  0.59124494  1
  O  O19  1  0.55795976  0.06322291  0.59037143  1
  O  O20  1  0.17493166  0.70323894  0.59124494  1
  O  O21  1  0.06322291  0.55795976  0.59037143  1
  O  O22  1  0.45263367  0.93093559  0.72276198  1
  O  O23  1  0.29819732  0.81675702  0.72280367  1
  O  O24  1  0.93093559  0.45263367  0.72276198  1
  O  O25  1  0.81675702  0.29819732  0.72280367  1
  O  O26  1  0.27564857  0.27564857  0.79628505  1
  O  O27  1  0.96644143  0.96644143  0.81910308  1
  O  O28  1  0.46875725  0.46875725  0.78338452  1
  O  O29  1  0.78727038  0.78727038  0.80383338  1
  O  O30  1  0.13250469  0.61696290  0.85411639  1
  O  O31  1  0.61696290  0.13250469  0.85411639  1
  O  O32  1  0.50000000  0.00000000  -0.00000000  1
  O  O33  1  0.73772227  0.26227773  -0.00000000  1
  O  O34  1  -0.00000000  0.50000000  -0.00000000  1
  O  O35  1  0.26227773  0.73772227  -0.00000000  1
loop_
_geom_bond_atom_site_label_1
_geom_bond_atom_site_label_2
_geom_bond_distance
_geom_bond_site_symmetry_2
Ba0 O31 2.847215 1_564
Ba0 O30 2.847215 1_654
Ba0 O6 2.860222 1_655
Ba0 O7 2.860222 1_565
Ba0 O9 2.924304 1_655
Ba0 O8 2.924304 1_565
Ba0 O11 2.956659 1_555
Ba0 O27 3.014005 1_554
Ba0 O29 3.040111 1_554
Ba0 O3 3.167454 1_555
Ba0 O34 3.220002 1_655
Ba0 O32 3.220002 1_565
Ba0 O5 3.324324 1_665
Ba0 O35 3.326361 1_655
Ba0 O33 3.326361 1_565
Ba1 O1 2.847215 1_456
Ba1 O0 2.847215 1_546
Ba1 O25 2.860222 1_455
Ba1 O23 2.860222 1_545
Ba1 O22 2.924304 1_545
Ba1 O24 2.924304 1_455
Ba1 O17 2.956659 1_555
Ba1 O5 3.014005 1_556
Ba1 O2 3.040111 1_556
Ba1 O26 3.167454 1_555
Ba1 O32 3.220002 1_556
Ba1 O34 3.220002 1_556
Ba1 O27 3.324324 1_445
Ba1 O33 3.326361 1_456
Ba1 O35 3.326361 1_546
O0 W1 1.944200 1_555
O0 W0 1.954792 1_555
O1 W3 1.944200 1_555
O1 W2 1.954792 1_555
O2 W0 1.918486 1_545
O2 W2 1.918486 1_455
O3 W0 1.913112 1_555
O3 W2 1.913112 1_555
O4 W1 1.889808 1_555
O4 W3 1.889808 1_555
O5 W3 1.947133 1_455
O5 W1 1.947133 1_545
O6 W1 1.909218 1_555
O6 W4 1.939110 1_555
O7 W3 1.909218 1_555
O7 W5 1.939110 1_555
O8 W0 1.902653 1_545
O8 W5 1.940913 1_555
O9 W2 1.902653 1_455
O9 W4 1.940913 1_555
O10 W7 1.891408 1_555
O10 W1 1.899418 1_555
O11 W4 1.930005 1_655
O11 W5 1.930005 1_565
O12 W4 1.901577 1_555
O12 W5 1.901577 1_555
O13 W0 1.892085 1_555
O13 W7 1.897839 1_555
O14 W2 1.892085 1_555
O14 W6 1.897839 1_555
O15 W6 1.891408 1_555
O15 W3 1.899418 1_555
O16 W6 1.901577 1_555
O16 W7 1.901577 1_555
O17 W7 1.930005 1_545
O17 W6 1.930005 1_455
O18 W5 1.891408 1_555
O18 W11 1.899418 1_555
O19 W9 1.892085 1_555
O19 W5 1.897839 1_555
O20 W4 1.891408 1_555
O20 W8 1.899418 1_555
O21 W10 1.892085 1_555
O21 W4 1.897839 1_555
O22 W9 1.902653 1_565
O22 W7 1.940913 1_555
O23 W8 1.909218 1_555
O23 W7 1.939110 1_555
O24 W10 1.902653 1_655
O24 W6 1.940913 1_555
O25 W11 1.909218 1_555
O25 W6 1.939110 1_555
O26 W9 1.913112 1_555
O26 W10 1.913112 1_555
O27 W8 1.947133 1_655
O27 W11 1.947133 1_565
O28 W11 1.889808 1_555
O28 W8 1.889808 1_555
O29 W10 1.918486 1_655
O29 W9 1.918486 1_565
O30 W8 1.944200 1_555
O30 W10 1.954792 1_555
O31 W11 1.944200 1_555
O31 W9 1.954792 1_555
O32 W9 1.934893 1_554
O32 W0 1.934893 1_545
O33 W11 1.929089 1_554
O33 W3 1.929089 1_555
O34 W10 1.934893 1_554
O34 W2 1.934893 1_455
O35 W8 1.929089 1_554
O35 W1 1.929089 1_555
