# generated using pymatgen
data_NaAl11O17
_symmetry_space_group_name_H-M   'P 1'
_cell_length_a   5.65336191
_cell_length_b   5.65336191
_cell_length_c   22.75263400
_cell_angle_alpha   90.00000000
_cell_angle_beta   90.00000000
_cell_angle_gamma   119.99999890
_symmetry_Int_Tables_number   1
_chemical_formula_structural   NaAl11O17
_chemical_formula_sum   'Na2 Al22 O34'
_cell_volume   629.76119083
_cell_formula_units_Z   2
loop_
 _symmetry_equiv_pos_site_id
 _symmetry_equiv_pos_as_xyz
  1  'x, y, z'
loop_
 _atom_site_type_symbol
 _atom_site_label
 _atom_site_symmetry_multiplicity
 _atom_site_fract_x
 _atom_site_fract_y
 _atom_site_fract_z
 _atom_site_occupancy
  Na  Na0  1  0.00000000  0.00000000  0.25000000  1
  Na  Na1  1  0.00000000  0.00000000  0.75000000  1
  Al  Al0  1  0.16823300  0.83176700  0.89359500  1
  Al  Al1  1  0.16823300  0.83176700  0.60640500  1
  Al  Al2  1  0.33333300  0.66666700  0.17480400  1
  Al  Al3  1  0.33333300  0.66666700  0.02624800  1
  Al  Al4  1  0.00000000  0.00000000  0.00000000  1
  Al  Al5  1  0.00000000  0.00000000  0.50000000  1
  Al  Al6  1  0.33333300  0.66666700  0.32519600  1
  Al  Al7  1  0.33333300  0.66666700  0.47375200  1
  Al  Al8  1  0.16823300  0.33646700  0.60640500  1
  Al  Al9  1  0.16823300  0.33646700  0.89359500  1
  Al  Al10  1  0.33646700  0.16823300  0.10640500  1
  Al  Al11  1  0.33646700  0.16823300  0.39359500  1
  Al  Al12  1  0.66353300  0.83176700  0.60640500  1
  Al  Al13  1  0.66353300  0.83176700  0.89359500  1
  Al  Al14  1  0.83176700  0.66353300  0.10640500  1
  Al  Al15  1  0.83176700  0.66353300  0.39359500  1
  Al  Al16  1  0.66666700  0.33333300  0.67480400  1
  Al  Al17  1  0.66666700  0.33333300  0.82519600  1
  Al  Al18  1  0.66666700  0.33333300  0.52624800  1
  Al  Al19  1  0.66666700  0.33333300  0.97375200  1
  Al  Al20  1  0.83176700  0.16823300  0.10640500  1
  Al  Al21  1  0.83176700  0.16823300  0.39359500  1
  O  O0  1  0.00248600  0.50124300  0.85592100  1
  O  O1  1  0.99751400  0.49875700  0.35592100  1
  O  O2  1  0.99751400  0.49875700  0.14407900  1
  O  O3  1  0.15575200  0.84424800  0.05007800  1
  O  O4  1  0.00248600  0.50124300  0.64407900  1
  O  O5  1  0.15575200  0.84424800  0.44992200  1
  O  O6  1  0.33333300  0.66666700  0.25000000  1
  O  O7  1  0.15575200  0.31150300  0.44992200  1
  O  O8  1  0.00000000  0.00000000  0.85635800  1
  O  O9  1  0.00000000  0.00000000  0.14364200  1
  O  O10  1  0.00000000  0.00000000  0.35635800  1
  O  O11  1  0.00000000  0.00000000  0.64364200  1
  O  O12  1  0.33333300  0.66666700  0.94586300  1
  O  O13  1  0.33333300  0.66666700  0.55413700  1
  O  O14  1  0.15575200  0.31150300  0.05007800  1
  O  O15  1  0.31150300  0.15575200  0.55007800  1
  O  O16  1  0.31150300  0.15575200  0.94992200  1
  O  O17  1  0.49875700  0.50124300  0.85592100  1
  O  O18  1  0.50124300  0.49875700  0.35592100  1
  O  O19  1  0.50124300  0.49875700  0.14407900  1
  O  O20  1  0.49875700  0.50124300  0.64407900  1
  O  O21  1  0.68849700  0.84424800  0.05007800  1
  O  O22  1  0.68849700  0.84424800  0.44992200  1
  O  O23  1  0.66666700  0.33333300  0.44586300  1
  O  O24  1  0.49875700  0.99751400  0.64407900  1
  O  O25  1  0.50124300  0.00248600  0.35592100  1
  O  O26  1  0.50124300  0.00248600  0.14407900  1
  O  O27  1  0.49875700  0.99751400  0.85592100  1
  O  O28  1  0.66666700  0.33333300  0.75000000  1
  O  O29  1  0.66666700  0.33333300  0.05413700  1
  O  O30  1  0.84424800  0.68849700  0.55007800  1
  O  O31  1  0.84424800  0.68849700  0.94992200  1
  O  O32  1  0.84424800  0.15575200  0.94992200  1
  O  O33  1  0.84424800  0.15575200  0.55007800  1
loop_
_geom_bond_atom_site_label_1
_geom_bond_atom_site_label_2
_geom_bond_distance
_geom_bond_site_symmetry_2
Na0 O9 2.419925 1_555
Na0 O10 2.419925 1_555
Na1 O11 2.419925 1_555
Na1 O8 2.419925 1_555
Al0 O0 1.831240 1_555
Al0 O27 1.831240 1_555
Al0 O8 1.852427 1_565
Al0 O12 2.006942 1_555
Al0 O31 2.041997 1_455
Al0 O16 2.041997 1_565
Al1 O4 1.831240 1_555
Al1 O24 1.831240 1_555
Al1 O11 1.852427 1_565
Al1 O13 2.006942 1_555
Al1 O30 2.041997 1_455
Al1 O15 2.041997 1_565
Al2 O6 1.710907 1_555
Al2 O2 1.786603 1_455
Al2 O26 1.786603 1_565
Al2 O19 1.786607 1_555
Al3 O3 1.821428 1_555
Al3 O14 1.821437 1_555
Al3 O21 1.821437 1_555
Al3 O12 1.828970 1_554
Al4 O31 1.903731 1_444
Al4 O16 1.903731 1_554
Al4 O14 1.903731 1_555
Al4 O21 1.903731 1_445
Al4 O32 1.903735 1_454
Al4 O3 1.903735 1_545
Al5 O15 1.903731 1_555
Al5 O30 1.903731 1_445
Al5 O7 1.903731 1_555
Al5 O22 1.903731 1_445
Al5 O33 1.903735 1_455
Al5 O5 1.903735 1_545
Al6 O6 1.710907 1_555
Al6 O25 1.786603 1_565
Al6 O1 1.786603 1_455
Al6 O18 1.786607 1_555
Al7 O5 1.821428 1_555
Al7 O7 1.821437 1_555
Al7 O22 1.821437 1_555
Al7 O13 1.828970 1_555
Al8 O4 1.831236 1_555
Al8 O20 1.831240 1_555
Al8 O11 1.852432 1_555
Al8 O13 2.006942 1_555
Al8 O15 2.041997 1_555
Al8 O33 2.041997 1_455
Al9 O0 1.831236 1_555
Al9 O17 1.831240 1_555
Al9 O8 1.852432 1_555
Al9 O12 2.006942 1_555
Al9 O16 2.041997 1_555
Al9 O32 2.041997 1_455
Al10 O26 1.831236 1_555
Al10 O19 1.831240 1_555
Al10 O9 1.852432 1_555
Al10 O29 2.006942 1_555
Al10 O14 2.041997 1_555
Al10 O3 2.041997 1_545
Al11 O25 1.831236 1_555
Al11 O18 1.831240 1_555
Al11 O10 1.852432 1_555
Al11 O23 2.006942 1_555
Al11 O7 2.041997 1_555
Al11 O5 2.041997 1_545
Al12 O24 1.831236 1_555
Al12 O20 1.831240 1_555
Al12 O11 1.852432 1_665
Al12 O13 2.006942 1_555
Al12 O30 2.041997 1_555
Al12 O33 2.041997 1_565
Al13 O27 1.831236 1_555
Al13 O17 1.831240 1_555
Al13 O8 1.852432 1_665
Al13 O12 2.006942 1_555
Al13 O31 2.041997 1_555
Al13 O32 2.041997 1_565
Al14 O2 1.831236 1_555
Al14 O19 1.831240 1_555
Al14 O9 1.852432 1_665
Al14 O29 2.006942 1_555
Al14 O21 2.041997 1_555
Al14 O3 2.041997 1_655
Al15 O1 1.831236 1_555
Al15 O18 1.831240 1_555
Al15 O10 1.852432 1_665
Al15 O23 2.006942 1_555
Al15 O22 2.041997 1_555
Al15 O5 2.041997 1_655
Al16 O28 1.710907 1_555
Al16 O24 1.786603 1_545
Al16 O4 1.786603 1_655
Al16 O20 1.786607 1_555
Al17 O28 1.710907 1_555
Al17 O0 1.786603 1_655
Al17 O27 1.786603 1_545
Al17 O17 1.786607 1_555
Al18 O33 1.821428 1_555
Al18 O30 1.821437 1_555
Al18 O15 1.821437 1_555
Al18 O23 1.828970 1_555
Al19 O32 1.821428 1_555
Al19 O31 1.821437 1_555
Al19 O16 1.821437 1_555
Al19 O29 1.828970 1_556
Al20 O26 1.831240 1_555
Al20 O2 1.831240 1_555
Al20 O9 1.852427 1_655
Al20 O29 2.006942 1_555
Al20 O21 2.041997 1_545
Al20 O14 2.041997 1_655
Al21 O25 1.831240 1_555
Al21 O1 1.831240 1_555
Al21 O10 1.852427 1_655
Al21 O23 2.006942 1_555
Al21 O22 2.041997 1_545
Al21 O7 2.041997 1_655
