# generated using pymatgen
data_Li7V16(PO4)24
_symmetry_space_group_name_H-M   'P 1'
_cell_length_a   8.45287500
_cell_length_b   8.69657971
_cell_length_c   23.65688839
_cell_angle_alpha   89.99142186
_cell_angle_beta   89.02642649
_cell_angle_gamma   89.97678938
_symmetry_Int_Tables_number   1
_chemical_formula_structural   Li7V16(PO4)24
_chemical_formula_sum   'Li7 V16 P24 O96'
_cell_volume   1738.79270586
_cell_formula_units_Z   1
loop_
 _symmetry_equiv_pos_site_id
 _symmetry_equiv_pos_as_xyz
  1  'x, y, z'
loop_
 _atom_site_type_symbol
 _atom_site_label
 _atom_site_symmetry_multiplicity
 _atom_site_fract_x
 _atom_site_fract_y
 _atom_site_fract_z
 _atom_site_occupancy
  Li  Li0  1  0.19418700  0.71712600  0.91148800  1
  Li  Li1  1  0.30431300  0.21724300  0.33868700  1
  Li  Li2  1  0.30554300  0.21724000  0.83881000  1
  Li  Li3  1  0.69321300  0.78206800  0.16142900  1
  Li  Li4  1  0.69409200  0.78267100  0.66116000  1
  Li  Li5  1  0.80625700  0.28270100  0.08894100  1
  Li  Li6  1  0.80409800  0.28183600  0.58817300  1
  V  V0  1  0.24516700  0.96881200  0.19296900  1
  V  V1  1  0.25455300  0.46949700  0.05807400  1
  V  V2  1  0.24876000  0.54032000  0.30926700  1
  V  V3  1  0.25013600  0.02771000  0.44308400  1
  V  V4  1  0.24525000  0.96904400  0.69245900  1
  V  V5  1  0.25252600  0.46936500  0.55709300  1
  V  V6  1  0.24879800  0.53661500  0.80664300  1
  V  V7  1  0.25077400  0.03674800  0.94384400  1
  V  V8  1  0.74917500  0.96341800  0.05665000  1
  V  V9  1  0.75086900  0.46318800  0.19372200  1
  V  V10  1  0.74778900  0.53108100  0.44149900  1
  V  V11  1  0.75651300  0.03208100  0.30726700  1
  V  V12  1  0.75010700  0.96302800  0.55649100  1
  V  V13  1  0.75061800  0.46320600  0.69359400  1
  V  V14  1  0.74535900  0.53105700  0.94266100  1
  V  V15  1  0.75454900  0.03078600  0.80764900  1
  P  P0  1  0.03582100  0.25139200  0.25393300  1
  P  P1  1  0.03364100  0.25000000  0.75376500  1
  P  P2  1  0.10871800  0.11701500  0.07450600  1
  P  P3  1  0.11313600  0.38782500  0.42892800  1
  P  P4  1  0.10790900  0.11771600  0.57410400  1
  P  P5  1  0.11326100  0.38886300  0.92931300  1
  P  P6  1  0.39037800  0.61599500  0.17712500  1
  P  P7  1  0.38847600  0.88608100  0.32084000  1
  P  P8  1  0.39165400  0.61722300  0.67562500  1
  P  P9  1  0.38717700  0.88879400  0.82092600  1
  P  P10  1  0.46858600  0.74875300  0.49598700  1
  P  P11  1  0.46643100  0.75008900  0.99626800  1
  P  P12  1  0.53366000  0.25012900  0.00392400  1
  P  P13  1  0.53227100  0.25099500  0.50327100  1
  P  P14  1  0.61297200  0.11161100  0.17920500  1
  P  P15  1  0.60792600  0.38270100  0.32445100  1
  P  P16  1  0.61318900  0.11116800  0.67901700  1
  P  P17  1  0.60833500  0.38300500  0.82425700  1
  P  P18  1  0.88688900  0.61117100  0.07105700  1
  P  P19  1  0.89369600  0.88228200  0.42600800  1
  P  P20  1  0.88635200  0.61062200  0.57085400  1
  P  P21  1  0.89191300  0.88295800  0.92583100  1
  P  P22  1  0.96695100  0.74971000  0.24640500  1
  P  P23  1  0.96622400  0.74982400  0.74615100  1
  O  O0  1  0.06553500  0.82733700  0.19897500  1
  O  O1  1  0.06236500  0.60392800  0.05514500  1
  O  O2  1  0.06566100  0.82682500  0.69879800  1
  O  O3  1  0.07198800  0.92346600  0.41553000  1
  O  O4  1  0.06139600  0.63548200  0.28137700  1
  O  O5  1  0.06232400  0.60293400  0.55521700  1
  O  O6  1  0.06987900  0.91297800  0.91415600  1
  O  O7  1  0.06114500  0.63338000  0.78067400  1
  O  O8  1  0.11008100  0.13564800  0.21166700  1
  O  O9  1  0.10981300  0.13651900  0.71137900  1
  O  O10  1  0.12716300  0.29323600  0.08061900  1
  O  O11  1  0.14620600  0.07074400  0.01181600  1
  O  O12  1  0.16517100  0.22274300  0.40926600  1
  O  O13  1  0.12612500  0.29327900  0.58074700  1
  O  O14  1  0.14535700  0.07178100  0.51112100  1
  O  O15  1  0.14945300  0.50063300  0.37997600  1
  O  O16  1  0.16327200  0.22706400  0.90770400  1
  O  O17  1  0.15107500  0.50934900  0.88141300  1
  O  O18  1  0.17485900  0.33258500  0.28354300  1
  O  O19  1  0.17231700  0.33219100  0.78428300  1
  O  O20  1  0.21548800  0.02403900  0.11285200  1
  O  O21  1  0.21424800  0.02384700  0.61249500  1
  O  O22  1  0.21955100  0.42999500  0.47886400  1
  O  O23  1  0.22043000  0.43235300  0.97851400  1
  O  O24  1  0.27857700  0.93252300  0.27266700  1
  O  O25  1  0.28559500  0.52462800  0.13708900  1
  O  O26  1  0.27955800  0.93168100  0.77138200  1
  O  O27  1  0.28613000  0.52393500  0.63610400  1
  O  O28  1  0.33329400  0.84462400  0.46701500  1
  O  O29  1  0.32766600  0.83246400  0.96557000  1
  O  O30  1  0.34886600  0.00662200  0.36962200  1
  O  O31  1  0.35121000  0.56882800  0.23879300  1
  O  O32  1  0.37136700  0.79272200  0.17032700  1
  O  O33  1  0.34876400  0.72312000  0.34076400  1
  O  O34  1  0.34925700  0.00917800  0.86840900  1
  O  O35  1  0.35308000  0.57008300  0.73769800  1
  O  O36  1  0.37250800  0.79333500  0.66903800  1
  O  O37  1  0.33707400  0.72663300  0.84220100  1
  O  O38  1  0.39074500  0.63674400  0.03837300  1
  O  O39  1  0.38705800  0.63886500  0.53720000  1
  O  O40  1  0.43749600  0.10316800  0.19499200  1
  O  O41  1  0.43021900  0.13593900  0.46862500  1
  O  O42  1  0.43115200  0.41157500  0.33670000  1
  O  O43  1  0.43443000  0.32695300  0.05105100  1
  O  O44  1  0.43727900  0.10353500  0.69461000  1
  O  O45  1  0.43878100  0.13379700  0.96926500  1
  O  O46  1  0.43010800  0.41280700  0.83558100  1
  O  O47  1  0.43400100  0.32768400  0.55067900  1
  O  O48  1  0.56523700  0.67352700  0.44836600  1
  O  O49  1  0.56891600  0.58676600  0.16528400  1
  O  O50  1  0.56146800  0.86698000  0.03057700  1
  O  O51  1  0.56393100  0.90191400  0.30522100  1
  O  O52  1  0.56572100  0.67317000  0.94882500  1
  O  O53  1  0.56947100  0.58707700  0.66408600  1
  O  O54  1  0.56534300  0.86148700  0.53123200  1
  O  O55  1  0.56285500  0.89615000  0.80500700  1
  O  O56  1  0.60789000  0.36244600  0.46105100  1
  O  O57  1  0.60999300  0.36373700  0.96151300  1
  O  O58  1  0.66239100  0.27369500  0.15761900  1
  O  O59  1  0.62979900  0.20715600  0.33135600  1
  O  O60  1  0.64652100  0.42971000  0.26247100  1
  O  O61  1  0.65083200  0.99093600  0.13151000  1
  O  O62  1  0.66300400  0.27290000  0.65741700  1
  O  O63  1  0.62781200  0.20681900  0.83057100  1
  O  O64  1  0.64598200  0.42946800  0.76164300  1
  O  O65  1  0.65149900  0.99102500  0.63109100  1
  O  O66  1  0.67262000  0.16782000  0.03434800  1
  O  O67  1  0.66931400  0.16499900  0.53330900  1
  O  O68  1  0.71558000  0.47687300  0.36341400  1
  O  O69  1  0.72184800  0.06960500  0.22827700  1
  O  O70  1  0.71475700  0.47601900  0.86267000  1
  O  O71  1  0.72075400  0.06758000  0.72815700  1
  O  O72  1  0.77899500  0.56826300  0.02168000  1
  O  O73  1  0.78001400  0.56767800  0.52095500  1
  O  O74  1  0.78919700  0.97679800  0.38757700  1
  O  O75  1  0.78501200  0.97580500  0.88705900  1
  O  O76  1  0.82811100  0.66749500  0.21590300  1
  O  O77  1  0.82749400  0.66750300  0.71552400  1
  O  O78  1  0.84871500  0.49097100  0.11864100  1
  O  O79  1  0.83659100  0.77329600  0.09239300  1
  O  O80  1  0.84763900  0.48992400  0.61825400  1
  O  O81  1  0.85562000  0.92712900  0.48874000  1
  O  O82  1  0.87515400  0.70795600  0.41906300  1
  O  O83  1  0.83741400  0.77232100  0.59248300  1
  O  O84  1  0.85417700  0.92950800  0.98810500  1
  O  O85  1  0.87254800  0.70667100  0.91933500  1
  O  O86  1  0.88956300  0.86491500  0.28811400  1
  O  O87  1  0.89028100  0.86316200  0.78837800  1
  O  O88  1  0.93893600  0.36604000  0.21907000  1
  O  O89  1  0.93033900  0.08687900  0.08570100  1
  O  O90  1  0.93721800  0.39448500  0.44518900  1
  O  O91  1  0.93870900  0.36642600  0.71920100  1
  O  O92  1  0.92981900  0.08757700  0.58542700  1
  O  O93  1  0.93571500  0.17355500  0.30112300  1
  O  O94  1  0.93732200  0.39630200  0.94486800  1
  O  O95  1  0.93446500  0.17256600  0.80092500  1
loop_
_geom_bond_atom_site_label_1
_geom_bond_atom_site_label_2
_geom_bond_distance
_geom_bond_site_symmetry_2
Li0 O17 1.978333 1_555
Li0 O29 1.991575 1_555
Li0 O6 2.001360 1_555
Li0 O37 2.021161 1_555
Li1 O18 1.988118 1_555
Li1 O42 2.001908 1_555
Li1 O30 2.010190 1_555
Li1 O12 2.026497 1_555
Li2 O34 1.977055 1_555
Li2 O19 1.994886 1_555
Li2 O46 2.001444 1_555
Li2 O16 2.010771 1_555
Li3 O61 1.984050 1_555
Li3 O49 1.998781 1_555
Li3 O76 2.000592 1_555
Li3 O79 2.018570 1_555
Li4 O65 1.981575 1_555
Li4 O77 1.994161 1_555
Li4 O53 2.001697 1_555
Li4 O83 2.012078 1_555
Li5 O78 1.978009 1_555
Li5 O66 1.998257 1_555
Li5 O89 2.000492 1_555
Li5 O58 2.014339 1_555
Li6 O80 1.981549 1_555
Li6 O92 1.995953 1_555
Li6 O62 2.011334 1_555
Li6 O67 2.016585 1_555
O0 P22 1.541949 1_455
O0 V0 1.957967 1_555
O1 P18 1.525363 1_455
O1 V1 2.003240 1_555
O2 P23 1.542093 1_455
O2 V4 1.962242 1_555
O3 P19 1.564841 1_455
O3 V3 1.883885 1_565
O4 P22 1.526497 1_455
O4 V2 1.913848 1_555
O5 P20 1.528105 1_455
O5 V5 1.984197 1_555
O6 P21 1.547130 1_455
O6 V7 2.006986 1_565
O7 P23 1.535460 1_455
O7 V6 1.906179 1_555
O8 P0 1.544488 1_555
O8 V0 1.893759 1_545
O9 P1 1.540074 1_555
O9 V4 1.900969 1_545
O10 P2 1.547535 1_555
O10 V1 1.942998 1_555
O11 P2 1.563932 1_555
O11 V7 1.845536 1_554
O12 P3 1.569600 1_555
O12 V3 2.012663 1_555
O13 P4 1.542920 1_555
O13 V5 1.944348 1_555
O14 P4 1.569674 1_555
O14 V3 1.863713 1_555
O15 P3 1.544536 1_555
O15 V2 1.890560 1_555
O16 P5 1.553173 1_555
O16 V7 2.009341 1_555
O17 P5 1.572182 1_555
O17 V6 1.953892 1_555
O18 P0 1.548971 1_555
O18 V2 2.009592 1_555
O19 P1 1.560708 1_555
O19 V6 1.967516 1_555
O20 P2 1.522579 1_555
O20 V0 1.975255 1_545
O21 P4 1.525173 1_555
O21 V4 1.972517 1_545
O22 P3 1.541320 1_555
O22 V5 1.907260 1_555
O23 P5 1.534496 1_555
O23 V1 1.936158 1_556
O24 P7 1.536350 1_555
O24 V0 1.936996 1_555
O25 P6 1.530427 1_555
O25 V1 1.951885 1_555
O26 P9 1.541488 1_555
O26 V4 1.921922 1_555
O27 P8 1.535282 1_555
O27 V5 1.953985 1_555
O28 P10 1.580640 1_555
O28 V3 1.833610 1_565
O29 P11 1.563505 1_555
O29 V7 1.962896 1_565
O30 P7 1.590521 1_545
O30 V3 1.923806 1_555
O31 P6 1.545865 1_555
O31 V2 1.882005 1_555
O32 P6 1.553839 1_555
O32 V0 1.936363 1_555
O33 P7 1.529090 1_555
O33 V2 1.954451 1_555
O34 P9 1.564752 1_545
O34 V7 1.970942 1_555
O35 P8 1.553832 1_555
O35 V6 1.863645 1_555
O36 P8 1.548151 1_555
O36 V4 1.943649 1_555
O37 P9 1.553865 1_555
O37 V6 2.004475 1_555
O38 P11 1.533510 1_554
O38 V1 1.908123 1_555
O39 P10 1.521900 1_555
O39 V5 1.915855 1_555
O40 P14 1.525201 1_555
O40 V0 2.003683 1_545
O41 P13 1.562711 1_555
O41 V3 1.897556 1_555
O42 P15 1.537792 1_555
O42 V2 2.020918 1_555
O43 P12 1.536509 1_555
O43 V1 1.966247 1_555
O44 P16 1.527390 1_555
O44 V4 2.002427 1_545
O45 P12 1.536961 1_556
O45 V7 1.906111 1_555
O46 P17 1.547437 1_555
O46 V6 2.002718 1_555
O47 P13 1.536469 1_555
O47 V5 1.971020 1_555
O48 P10 1.527450 1_555
O48 V10 1.982956 1_555
O49 P6 1.551125 1_555
O49 V9 2.001680 1_555
O50 P11 1.536411 1_554
O50 V8 1.906785 1_555
O51 P7 1.528594 1_555
O51 V11 1.984424 1_565
O52 P11 1.542501 1_555
O52 V14 1.960976 1_555
O53 P8 1.545384 1_555
O53 V13 2.006776 1_555
O54 P10 1.532766 1_555
O54 V12 1.899744 1_555
O55 P9 1.527141 1_555
O55 V15 2.001358 1_565
O56 P13 1.524503 1_555
O56 V10 1.935392 1_555
O57 P12 1.541859 1_556
O57 V14 1.899823 1_555
O58 P14 1.554088 1_555
O58 V9 2.006898 1_555
O59 P15 1.546682 1_555
O59 V11 1.941229 1_555
O60 P15 1.551495 1_555
O60 V9 1.859896 1_555
O61 P14 1.569933 1_565
O61 V8 1.958192 1_555
O62 P16 1.552307 1_555
O62 V13 2.010708 1_555
O63 P17 1.548439 1_555
O63 V15 1.940233 1_555
O64 P17 1.562867 1_555
O64 V13 1.847055 1_555
O65 P16 1.571497 1_565
O65 V12 1.954110 1_555
O66 P12 1.561412 1_555
O66 V8 1.966559 1_545
O67 P13 1.559901 1_555
O67 V12 1.965646 1_545
O68 P15 1.541991 1_555
O68 V10 1.930323 1_555
O69 P14 1.537532 1_555
O69 V11 1.924209 1_555
O70 P17 1.522478 1_555
O70 V14 1.973312 1_555
O71 P16 1.535353 1_555
O71 V15 1.933494 1_555
O72 P18 1.540160 1_555
O72 V14 1.923095 1_554
O73 P20 1.541871 1_555
O73 V10 1.930374 1_555
O74 P19 1.519514 1_555
O74 V11 1.983554 1_565
O75 P21 1.528778 1_555
O75 V15 1.959621 1_565
O76 P22 1.561676 1_555
O76 V9 1.967594 1_555
O77 P23 1.562800 1_555
O77 V13 1.964866 1_555
O78 P18 1.565755 1_555
O78 V9 1.961473 1_555
O79 P18 1.554309 1_555
O79 V8 2.003641 1_555
O80 P20 1.566436 1_555
O80 V13 1.963046 1_555
O81 P19 1.562667 1_555
O81 V12 1.847478 1_555
O82 P19 1.533323 1_555
O82 V10 1.946418 1_555
O83 P20 1.550149 1_555
O83 V12 2.010019 1_555
O84 P21 1.555661 1_555
O84 V8 1.858824 1_556
O85 P21 1.549812 1_555
O85 V14 1.942616 1_555
O86 P22 1.543734 1_555
O86 V11 1.888163 1_565
O87 P23 1.536068 1_555
O87 V15 1.905338 1_565
O88 P0 1.538521 1_655
O88 V9 1.905699 1_555
O89 P2 1.548891 1_655
O89 V8 2.001874 1_545
O90 P3 1.530700 1_655
O90 V10 1.996460 1_555
O91 P1 1.535930 1_655
O91 V13 1.906479 1_555
O92 P4 1.546995 1_655
O92 V12 1.996574 1_545
O93 P0 1.545528 1_655
O93 V11 1.955344 1_555
O94 P5 1.527306 1_655
O94 V14 2.002591 1_555
O95 P1 1.539289 1_655
O95 V15 1.962572 1_555
