# generated using pymatgen
data_Gd2CF2
_symmetry_space_group_name_H-M   'P 1'
_cell_length_a   3.71974980
_cell_length_b   3.71975011
_cell_length_c   6.43999874
_cell_angle_alpha   90.00000000
_cell_angle_beta   90.00000000
_cell_angle_gamma   119.99999725
_symmetry_Int_Tables_number   1
_chemical_formula_structural   Gd2CF2
_chemical_formula_sum   'Gd2 C1 F2'
_cell_volume   77.16918622
_cell_formula_units_Z   1
loop_
 _symmetry_equiv_pos_site_id
 _symmetry_equiv_pos_as_xyz
  1  'x, y, z'
loop_
 _atom_site_type_symbol
 _atom_site_label
 _atom_site_symmetry_multiplicity
 _atom_site_fract_x
 _atom_site_fract_y
 _atom_site_fract_z
 _atom_site_occupancy
  Gd  Gd0  1  0.33333300  0.66666700  0.21452808  1
  Gd  Gd1  1  0.66666700  0.33333300  0.78547192  1
  C  C0  1  0.00000000  0.00000000  -0.00000000  1
  F  F0  1  0.33333300  0.66666700  0.61256547  1
  F  F1  1  0.66666700  0.33333300  0.38743453  1
loop_
_geom_bond_atom_site_label_1
_geom_bond_atom_site_label_2
_geom_bond_distance
_geom_bond_site_symmetry_2
C0 Gd0 2.553601 1_545
C0 Gd1 2.553601 1_454
C0 Gd1 2.553604 1_554
C0 Gd0 2.553604 1_445
C0 Gd1 2.553604 1_444
C0 Gd0 2.553604 1_555
F0 Gd1 2.419110 1_455
F0 Gd1 2.419110 1_565
F0 Gd1 2.419115 1_555
F0 Gd0 2.563360 1_555
F1 Gd0 2.419110 1_655
F1 Gd0 2.419110 1_545
F1 Gd0 2.419115 1_555
F1 Gd1 2.563360 1_555
