# generated using pymatgen
data_Li47(NiO4)8
_symmetry_space_group_name_H-M   'P 1'
_cell_length_a   9.16041500
_cell_length_b   9.40227017
_cell_length_c   9.42323921
_cell_angle_alpha   89.79372517
_cell_angle_beta   89.92943244
_cell_angle_gamma   89.98895799
_symmetry_Int_Tables_number   1
_chemical_formula_structural   Li47(NiO4)8
_chemical_formula_sum   'Li47 Ni8 O32'
_cell_volume   811.60542233
_cell_formula_units_Z   1
loop_
 _symmetry_equiv_pos_site_id
 _symmetry_equiv_pos_as_xyz
  1  'x, y, z'
loop_
 _atom_site_type_symbol
 _atom_site_label
 _atom_site_symmetry_multiplicity
 _atom_site_fract_x
 _atom_site_fract_y
 _atom_site_fract_z
 _atom_site_occupancy
  Li  Li0  1  0.11700300  0.14833900  0.36460400  1
  Li  Li1  1  0.11998600  0.64817100  0.13293900  1
  Li  Li2  1  0.11631700  0.11529800  0.60413700  1
  Li  Li3  1  0.11522700  0.61339600  0.89412700  1
  Li  Li4  1  0.12150900  0.36485400  0.61244700  1
  Li  Li5  1  0.12145400  0.86035000  0.88731400  1
  Li  Li6  1  0.13378900  0.88201500  0.35132000  1
  Li  Li7  1  0.11672300  0.37828700  0.14224200  1
  Li  Li8  1  0.13390600  0.10620000  0.12561400  1
  Li  Li9  1  0.13762400  0.61226600  0.37799200  1
  Li  Li10  1  0.16116600  0.37173200  0.88163100  1
  Li  Li11  1  0.16049600  0.87530900  0.61766600  1
  Li  Li12  1  0.33327700  0.37470500  0.38065400  1
  Li  Li13  1  0.34084000  0.87423300  0.11676700  1
  Li  Li14  1  0.36518400  0.60807900  0.87103800  1
  Li  Li15  1  0.36625500  0.10827300  0.62778800  1
  Li  Li16  1  0.36683300  0.88043300  0.85121900  1
  Li  Li17  1  0.36712100  0.38102200  0.64738300  1
  Li  Li18  1  0.37996800  0.86146100  0.38555900  1
  Li  Li19  1  0.37877800  0.36182900  0.11489400  1
  Li  Li20  1  0.38385400  0.11445500  0.10695200  1
  Li  Li21  1  0.38602000  0.61389800  0.39254300  1
  Li  Li22  1  0.38446500  0.14706000  0.86866500  1
  Li  Li23  1  0.38301900  0.64767400  0.63038700  1
  Li  Li24  1  0.60357700  0.35125200  0.36981000  1
  Li  Li25  1  0.61749200  0.84878900  0.12953200  1
  Li  Li26  1  0.61594100  0.38352700  0.60886900  1
  Li  Li27  1  0.61599800  0.88705900  0.89230000  1
  Li  Li28  1  0.61786000  0.64086800  0.88356100  1
  Li  Li29  1  0.61998400  0.13806000  0.61382700  1
  Li  Li30  1  0.63361500  0.62024600  0.34831900  1
  Li  Li31  1  0.63226600  0.11474100  0.14797800  1
  Li  Li32  1  0.63451100  0.89096700  0.37061200  1
  Li  Li33  1  0.64976900  0.39105600  0.12543500  1
  Li  Li34  1  0.66115600  0.12640200  0.88282000  1
  Li  Li35  1  0.65874800  0.62652500  0.61844300  1
  Li  Li36  1  0.84083300  0.11974000  0.38533400  1
  Li  Li37  1  0.84566200  0.60784900  0.11571800  1
  Li  Li38  1  0.86812900  0.39118900  0.63597600  1
  Li  Li39  1  0.86686400  0.89283300  0.87116700  1
  Li  Li40  1  0.86386300  0.62181700  0.85158300  1
  Li  Li41  1  0.86465600  0.12024200  0.65226100  1
  Li  Li42  1  0.88173800  0.64173200  0.39041600  1
  Li  Li43  1  0.88126600  0.15402900  0.11420000  1
  Li  Li44  1  0.88490900  0.88452600  0.39150700  1
  Li  Li45  1  0.88455200  0.36112000  0.89681900  1
  Li  Li46  1  0.88393100  0.85394000  0.63008100  1
  Ni  Ni0  1  0.10118900  0.12091900  0.86726300  1
  Ni  Ni1  1  0.09882600  0.62381700  0.63331700  1
  Ni  Ni2  1  0.40131800  0.12259000  0.36874700  1
  Ni  Ni3  1  0.40239700  0.62179900  0.13012000  1
  Ni  Ni4  1  0.59805700  0.37832200  0.86907100  1
  Ni  Ni5  1  0.59842200  0.87763600  0.62961600  1
  Ni  Ni6  1  0.88727700  0.37646800  0.36008700  1
  Ni  Ni7  1  0.89953500  0.87744200  0.13057800  1
  O  O0  1  0.01102500  0.48417500  0.76292400  1
  O  O1  1  0.01082500  0.98448300  0.73521300  1
  O  O2  1  0.02794300  0.25072000  0.00692200  1
  O  O3  1  0.02020100  0.75918300  0.49104500  1
  O  O4  1  0.25090100  0.00717400  0.98039200  1
  O  O5  1  0.24925200  0.51110100  0.52032300  1
  O  O6  1  0.23590700  0.23361300  0.73560300  1
  O  O7  1  0.23605000  0.73514500  0.75999900  1
  O  O8  1  0.26429100  0.23277400  0.24003100  1
  O  O9  1  0.26478500  0.73409900  0.26029100  1
  O  O10  1  0.25119800  0.00972100  0.48083700  1
  O  O11  1  0.24949800  0.51001300  0.01976800  1
  O  O12  1  0.47937700  0.25756900  0.51054200  1
  O  O13  1  0.47949600  0.75876000  0.98867700  1
  O  O14  1  0.49005300  0.98252000  0.23897100  1
  O  O15  1  0.48930000  0.48435200  0.26118300  1
  O  O16  1  0.51039400  0.51691900  0.73603400  1
  O  O17  1  0.51096800  0.01638200  0.76008400  1
  O  O18  1  0.52158100  0.24091400  0.01100200  1
  O  O19  1  0.52128700  0.74171100  0.48899500  1
  O  O20  1  0.73906100  0.49932700  0.97519700  1
  O  O21  1  0.74921700  0.99048800  0.51832100  1
  O  O22  1  0.73599900  0.26543200  0.74102700  1
  O  O23  1  0.73599800  0.76757800  0.75804200  1
  O  O24  1  0.75833700  0.26181900  0.25614500  1
  O  O25  1  0.76624400  0.76244500  0.25983000  1
  O  O26  1  0.75499500  0.48685500  0.47705600  1
  O  O27  1  0.75177400  0.99218700  0.01867700  1
  O  O28  1  0.98156800  0.73977600  0.99220700  1
  O  O29  1  0.97742500  0.25365800  0.49741500  1
  O  O30  1  0.99261300  0.51165700  0.25919800  1
  O  O31  1  0.98808000  0.01653200  0.26133600  1
loop_
_geom_bond_atom_site_label_1
_geom_bond_atom_site_label_2
_geom_bond_distance
_geom_bond_site_symmetry_2
Li0 O8 1.954082 1_555
Li0 O31 1.972207 1_455
Li0 O29 2.046006 1_455
Li0 O10 2.098064 1_555
Li1 O9 1.965604 1_555
Li1 O28 2.025769 1_454
Li1 O11 2.058751 1_555
Li1 O30 2.100140 1_455
Li2 O10 1.966285 1_555
Li2 O1 1.989681 1_545
Li2 O6 1.996511 1_555
Li2 O29 2.077394 1_455
Li3 O28 1.941600 1_455
Li3 O11 1.963228 1_556
Li3 O0 1.982432 1_555
Li3 O7 2.029650 1_555
Li4 O6 1.989935 1_555
Li4 O5 2.000806 1_555
Li4 O29 2.005575 1_455
Li4 O0 2.073907 1_555
Li5 O28 1.973220 1_455
Li5 O7 1.983359 1_555
Li5 O4 2.023123 1_565
Li5 O1 2.105842 1_555
Li6 O31 2.023517 1_465
Li6 O10 2.025415 1_565
Li6 O9 2.028628 1_555
Li6 O3 2.033765 1_555
Li7 O2 1.933897 1_555
Li7 O30 2.021375 1_455
Li7 O11 2.081356 1_555
Li7 O8 2.131099 1_555
Li8 O4 1.973156 1_554
Li8 O8 2.004563 1_555
Li8 O2 2.007674 1_555
Li8 O31 2.029624 1_455
Li9 O5 1.934698 1_555
Li9 O9 1.971648 1_555
Li9 O30 1.980973 1_455
Li9 O3 2.051162 1_555
Li10 O11 2.013639 1_556
Li10 O6 2.014681 1_555
Li10 O2 2.040864 1_556
Li10 O0 2.062838 1_555
Li11 O10 1.983933 1_565
Li11 O7 2.000973 1_555
Li11 O1 2.040658 1_555
Li11 O3 2.069093 1_555
Li12 O8 1.987773 1_555
Li12 O5 1.994634 1_555
Li12 O15 2.088352 1_555
Li12 O12 2.120367 1_555
Li13 O4 1.970598 1_564
Li13 O9 2.008917 1_555
Li13 O14 2.060059 1_555
Li13 O13 2.062539 1_554
Li14 O7 1.978630 1_555
Li14 O11 1.981126 1_556
Li14 O16 2.031182 1_555
Li14 O13 2.085012 1_555
Li15 O6 1.962608 1_555
Li15 O10 1.974897 1_555
Li15 O17 2.013403 1_555
Li15 O12 2.061910 1_555
Li16 O4 2.009046 1_565
Li16 O13 2.010924 1_555
Li16 O7 2.012918 1_555
Li16 O17 2.025988 1_565
Li17 O6 2.011630 1_555
Li17 O16 2.015939 1_555
Li17 O12 2.018554 1_555
Li17 O5 2.021716 1_555
Li18 O19 1.971858 1_555
Li18 O9 1.988573 1_555
Li18 O10 2.036288 1_565
Li18 O14 2.050917 1_555
Li19 O8 1.987431 1_555
Li19 O18 1.991589 1_555
Li19 O11 2.034740 1_555
Li19 O15 2.065848 1_555
Li20 O18 1.952686 1_555
Li20 O4 1.983874 1_554
Li20 O8 2.003982 1_555
Li20 O14 2.006056 1_545
Li21 O19 1.953670 1_555
Li21 O15 1.979504 1_555
Li21 O5 1.985457 1_555
Li21 O9 2.014081 1_555
Li22 O17 1.976103 1_555
Li22 O6 2.020598 1_555
Li22 O18 2.041680 1_556
Li22 O4 2.079124 1_555
Li23 O16 1.964037 1_555
Li23 O7 1.995843 1_555
Li23 O19 2.036910 1_555
Li23 O5 2.058990 1_555
Li24 O15 1.924228 1_555
Li24 O12 1.953770 1_555
Li24 O24 1.966308 1_555
Li24 O26 2.141077 1_555
Li25 O14 2.003278 1_555
Li25 O25 2.004971 1_555
Li25 O13 2.022093 1_554
Li25 O27 2.099873 1_555
Li26 O12 1.958914 1_555
Li26 O16 1.987771 1_555
Li26 O22 1.996567 1_555
Li26 O26 2.024132 1_555
Li27 O13 1.957906 1_555
Li27 O17 1.986964 1_565
Li27 O27 1.988658 1_556
Li27 O23 2.019229 1_555
Li28 O20 1.934649 1_555
Li28 O13 1.954630 1_555
Li28 O23 1.994163 1_555
Li28 O16 2.067693 1_555
Li29 O12 1.965584 1_555
Li29 O22 2.003580 1_555
Li29 O21 2.035271 1_545
Li29 O17 2.047263 1_555
Li30 O25 1.987218 1_555
Li30 O15 2.016255 1_555
Li30 O19 2.031605 1_555
Li30 O26 2.067064 1_555
Li31 O14 1.991987 1_545
Li31 O27 2.004281 1_545
Li31 O18 2.023157 1_555
Li31 O24 2.073314 1_555
Li32 O21 1.982524 1_555
Li32 O25 2.002903 1_555
Li32 O14 2.006693 1_555
Li32 O19 2.067852 1_555
Li33 O20 1.922689 1_554
Li33 O24 1.993613 1_555
Li33 O18 2.132889 1_555
Li33 O15 2.137645 1_555
Li34 O27 1.977637 1_546
Li34 O22 1.987363 1_555
Li34 O18 2.063487 1_556
Li34 O17 2.076917 1_555
Li35 O23 2.001325 1_555
Li35 O16 2.031091 1_555
Li35 O19 2.059175 1_555
Li35 O26 2.070316 1_555
Li36 O21 1.933508 1_545
Li36 O24 1.956475 1_555
Li36 O31 2.032269 1_555
Li36 O29 2.068802 1_555
Li37 O20 1.939432 1_554
Li37 O28 2.104702 1_554
Li37 O30 2.110282 1_555
Li37 O25 2.120759 1_555
Li38 O22 1.957594 1_555
Li38 O0 1.980071 1_655
Li38 O26 2.029651 1_555
Li38 O29 2.094704 1_555
Li39 O27 1.980316 1_556
Li39 O23 1.993268 1_555
Li39 O1 2.027623 1_655
Li39 O28 2.113410 1_555
Li40 O20 1.994442 1_555
Li40 O23 2.005083 1_555
Li40 O28 2.040387 1_555
Li40 O0 2.048028 1_655
Li41 O22 1.989314 1_555
Li41 O1 2.006962 1_645
Li41 O21 2.052922 1_545
Li41 O29 2.180228 1_555
Li42 O3 1.933520 1_655
Li42 O25 1.978485 1_555
Li42 O30 2.015823 1_555
Li42 O26 2.030956 1_555
Li43 O2 1.908992 1_655
Li43 O24 2.022354 1_555
Li43 O31 2.130962 1_555
Li43 O27 2.132140 1_545
Li44 O3 1.949090 1_655
Li44 O31 1.981142 1_565
Li44 O21 1.992505 1_555
Li44 O25 2.013169 1_555
Li45 O2 1.968335 1_656
Li45 O20 2.003534 1_555
Li45 O0 2.063788 1_655
Li45 O22 2.198032 1_555
Li46 O1 1.962469 1_655
Li46 O23 1.984700 1_555
Li46 O3 2.018038 1_655
Li46 O21 2.067149 1_555
Ni0 O2 1.918505 1_556
Ni0 O1 1.973226 1_545
Ni0 O4 2.038584 1_555
Ni0 O6 2.042586 1_555
Ni1 O0 1.961833 1_555
Ni1 O3 1.981349 1_555
Ni1 O7 2.028307 1_555
Ni1 O5 2.039514 1_555
Ni2 O14 1.974689 1_545
Ni2 O12 1.980454 1_555
Ni2 O8 2.028355 1_555
Ni2 O10 2.030233 1_555
Ni3 O15 1.954393 1_555
Ni3 O13 1.979710 1_554
Ni3 O11 2.039554 1_555
Ni3 O9 2.052699 1_555
Ni4 O16 1.976087 1_555
Ni4 O18 1.983500 1_556
Ni4 O20 1.993697 1_555
Ni4 O22 2.045513 1_555
Ni5 O17 1.965654 1_565
Ni5 O19 1.975680 1_555
Ni5 O23 2.029245 1_555
Ni5 O21 2.030481 1_555
Ni6 O30 1.854743 1_555
Ni6 O24 1.878139 1_555
Ni6 O29 1.918693 1_555
Ni6 O26 1.940344 1_555
Ni7 O31 1.975054 1_565
Ni7 O28 1.987364 1_554
Ni7 O27 2.025517 1_555
Ni7 O25 2.032419 1_555
