# generated using pymatgen
data_Li6Mn2B4SO16
_symmetry_space_group_name_H-M   'P 1'
_cell_length_a   9.37921849
_cell_length_b   9.37921849
_cell_length_c   9.37921849
_cell_angle_alpha   60.00000000
_cell_angle_beta   60.00000000
_cell_angle_gamma   60.00000000
_symmetry_Int_Tables_number   1
_chemical_formula_structural   Li6Mn2B4SO16
_chemical_formula_sum   'Li12 Mn4 B8 S2 O32'
_cell_volume   583.42490157
_cell_formula_units_Z   2
loop_
 _symmetry_equiv_pos_site_id
 _symmetry_equiv_pos_as_xyz
  1  'x, y, z'
loop_
 _atom_site_type_symbol
 _atom_site_label
 _atom_site_symmetry_multiplicity
 _atom_site_fract_x
 _atom_site_fract_y
 _atom_site_fract_z
 _atom_site_occupancy
  Li  Li0  1  0.52999300  0.97000700  0.97000700  1
  Li  Li1  1  0.52999300  0.52999300  0.97000700  1
  Li  Li2  1  0.27999300  0.27999300  0.72000700  1
  Li  Li3  1  0.97000700  0.52999300  0.52999300  1
  Li  Li4  1  0.72000700  0.27999300  0.72000700  1
  Li  Li5  1  0.27999300  0.72000700  0.27999300  1
  Li  Li6  1  0.52999300  0.97000700  0.52999300  1
  Li  Li7  1  0.97000700  0.52999300  0.97000700  1
  Li  Li8  1  0.27999300  0.72000700  0.72000700  1
  Li  Li9  1  0.72000700  0.27999300  0.27999300  1
  Li  Li10  1  0.72000700  0.72000700  0.27999300  1
  Li  Li11  1  0.97000700  0.97000700  0.52999300  1
  Mn  Mn0  1  0.12500000  0.62500000  0.12500000  1
  Mn  Mn1  1  0.62500000  0.12500000  0.12500000  1
  Mn  Mn2  1  0.12500000  0.12500000  0.62500000  1
  Mn  Mn3  1  0.12500000  0.12500000  0.12500000  1
  B  B0  1  0.27493400  0.90835500  0.90835500  1
  B  B1  1  0.34164500  0.34164500  0.97506600  1
  B  B2  1  0.34164500  0.34164500  0.34164500  1
  B  B3  1  0.90835500  0.27493400  0.90835500  1
  B  B4  1  0.34164500  0.97506600  0.34164500  1
  B  B5  1  0.90835500  0.90835500  0.90835500  1
  B  B6  1  0.97506600  0.34164500  0.34164500  1
  B  B7  1  0.90835500  0.90835500  0.27493400  1
  S  S0  1  0.50000000  0.50000000  0.50000000  1
  S  S1  1  0.75000000  0.75000000  0.75000000  1
  O  O0  1  0.56520900  0.56520900  0.30437200  1
  O  O1  1  0.56520900  0.56520900  0.56520900  1
  O  O2  1  0.56520900  0.30437200  0.56520900  1
  O  O3  1  0.20496300  0.49741600  0.32558100  1
  O  O4  1  0.30437200  0.56520900  0.56520900  1
  O  O5  1  0.49741600  0.20496300  0.97204000  1
  O  O6  1  0.97204000  0.32558100  0.49741600  1
  O  O7  1  0.32558100  0.49741600  0.97204000  1
  O  O8  1  0.27796000  0.04503700  0.92441900  1
  O  O9  1  0.04503700  0.27796000  0.75258400  1
  O  O10  1  0.49741600  0.32558100  0.20496300  1
  O  O11  1  0.20496300  0.32558100  0.97204000  1
  O  O12  1  0.27796000  0.75258400  0.04503700  1
  O  O13  1  0.92441900  0.04503700  0.75258400  1
  O  O14  1  0.49741600  0.97204000  0.32558100  1
  O  O15  1  0.32558100  0.97204000  0.20496300  1
  O  O16  1  0.92441900  0.27796000  0.04503700  1
  O  O17  1  0.32558100  0.20496300  0.49741600  1
  O  O18  1  0.75258400  0.27796000  0.92441900  1
  O  O19  1  0.97204000  0.49741600  0.20496300  1
  O  O20  1  0.04503700  0.92441900  0.27796000  1
  O  O21  1  0.75258400  0.92441900  0.04503700  1
  O  O22  1  0.20496300  0.97204000  0.49741600  1
  O  O23  1  0.97204000  0.20496300  0.32558100  1
  O  O24  1  0.92441900  0.75258400  0.27796000  1
  O  O25  1  0.27796000  0.92441900  0.75258400  1
  O  O26  1  0.75258400  0.04503700  0.27796000  1
  O  O27  1  0.94562800  0.68479100  0.68479100  1
  O  O28  1  0.04503700  0.75258400  0.92441900  1
  O  O29  1  0.68479100  0.94562800  0.68479100  1
  O  O30  1  0.68479100  0.68479100  0.68479100  1
  O  O31  1  0.68479100  0.68479100  0.94562800  1
loop_
_geom_bond_atom_site_label_1
_geom_bond_atom_site_label_2
_geom_bond_distance
_geom_bond_site_symmetry_2
Li0 O5 2.076750 1_565
Li0 O15 2.076750 1_556
Li0 O8 2.304838 1_565
Li0 O21 2.304838 1_556
Li0 O31 2.390018 1_555
Li0 O29 2.390018 1_555
Li1 O7 2.076750 1_555
Li1 O10 2.076750 1_556
Li1 O18 2.304838 1_555
Li1 O12 2.304838 1_556
Li1 O30 2.390021 1_555
Li1 O31 2.390026 1_555
Li2 O8 2.076750 1_555
Li2 O9 2.076750 1_555
Li2 O11 2.304838 1_555
Li2 O17 2.304838 1_555
Li2 O2 2.390018 1_555
Li2 O4 2.390018 1_555
Li3 O3 2.076750 1_655
Li3 O6 2.076750 1_555
Li3 O24 2.304838 1_555
Li3 O9 2.304838 1_655
Li3 O30 2.390021 1_555
Li3 O27 2.390026 1_555
Li4 O18 2.076750 1_555
Li4 O13 2.076750 1_555
Li4 O6 2.304838 1_555
Li4 O5 2.304838 1_555
Li4 O1 2.390021 1_555
Li4 O2 2.390026 1_555
Li5 O20 2.076750 1_555
Li5 O12 2.076750 1_555
Li5 O15 2.304838 1_555
Li5 O3 2.304838 1_555
Li5 O4 2.390018 1_555
Li5 O0 2.390018 1_555
Li6 O14 2.076750 1_555
Li6 O17 2.076750 1_565
Li6 O25 2.304838 1_555
Li6 O26 2.304838 1_565
Li6 O30 2.390021 1_555
Li6 O29 2.390026 1_555
Li7 O11 2.076750 1_655
Li7 O19 2.076750 1_556
Li7 O16 2.304838 1_556
Li7 O28 2.304838 1_655
Li7 O31 2.390018 1_555
Li7 O27 2.390018 1_555
Li8 O25 2.076750 1_555
Li8 O28 2.076750 1_555
Li8 O7 2.304838 1_555
Li8 O22 2.304838 1_555
Li8 O1 2.390021 1_555
Li8 O4 2.390026 1_555
Li9 O16 2.076750 1_555
Li9 O26 2.076750 1_555
Li9 O23 2.304838 1_555
Li9 O10 2.304838 1_555
Li9 O0 2.390018 1_555
Li9 O2 2.390018 1_555
Li10 O24 2.076750 1_555
Li10 O21 2.076750 1_555
Li10 O14 2.304838 1_555
Li10 O19 2.304838 1_555
Li10 O1 2.390021 1_555
Li10 O0 2.390026 1_555
Li11 O23 2.076750 1_565
Li11 O22 2.076750 1_655
Li11 O20 2.304838 1_655
Li11 O13 2.304838 1_565
Li11 O29 2.390018 1_555
Li11 O27 2.390018 1_555
Mn0 O12 1.948320 1_555
Mn0 O3 1.948320 1_555
Mn0 O24 1.948320 1_455
Mn0 O28 1.948320 1_554
Mn0 O7 1.948320 1_554
Mn0 O19 1.948320 1_455
Mn1 O26 1.948320 1_555
Mn1 O10 1.948320 1_555
Mn1 O18 1.948320 1_554
Mn1 O21 1.948320 1_545
Mn1 O14 1.948320 1_545
Mn1 O5 1.948320 1_554
Mn2 O9 1.948320 1_555
Mn2 O17 1.948320 1_555
Mn2 O25 1.948320 1_545
Mn2 O13 1.948320 1_455
Mn2 O6 1.948320 1_455
Mn2 O22 1.948320 1_545
Mn3 O15 1.948320 1_545
Mn3 O11 1.948320 1_554
Mn3 O23 1.948320 1_455
Mn3 O16 1.948320 1_455
Mn3 O20 1.948320 1_545
Mn3 O8 1.948320 1_554
B0 O25 1.378673 1_555
B0 O12 1.378677 1_556
B0 O8 1.378683 1_565
B1 O7 1.378673 1_555
B1 O5 1.378677 1_555
B1 O11 1.378683 1_555
B2 O17 1.378678 1_555
B2 O3 1.378678 1_555
B2 O10 1.378678 1_555
B3 O18 1.378673 1_555
B3 O9 1.378677 1_655
B3 O16 1.378683 1_556
B4 O14 1.378673 1_555
B4 O22 1.378677 1_555
B4 O15 1.378683 1_555
B5 O21 1.378678 1_556
B5 O28 1.378678 1_655
B5 O13 1.378678 1_565
B6 O6 1.378673 1_555
B6 O19 1.378677 1_555
B6 O23 1.378683 1_555
B7 O24 1.378673 1_555
B7 O26 1.378677 1_565
B7 O20 1.378683 1_655
O0 S0 1.498139 1_555
O1 S0 1.498131 1_555
O2 S0 1.498139 1_555
O4 S0 1.498139 1_555
O27 S1 1.498139 1_555
O29 S1 1.498139 1_555
O30 S1 1.498131 1_555
O31 S1 1.498139 1_555
