# generated using pymatgen
data_Li5Mn8(BO3)8
_symmetry_space_group_name_H-M   'P 1'
_cell_length_a   5.29476400
_cell_length_b   9.15421161
_cell_length_c   10.36862319
_cell_angle_alpha   91.91562130
_cell_angle_beta   90.85269152
_cell_angle_gamma   90.06344702
_symmetry_Int_Tables_number   1
_chemical_formula_structural   Li5Mn8(BO3)8
_chemical_formula_sum   'Li5 Mn8 B8 O24'
_cell_volume   502.22371122
_cell_formula_units_Z   1
loop_
 _symmetry_equiv_pos_site_id
 _symmetry_equiv_pos_as_xyz
  1  'x, y, z'
loop_
 _atom_site_type_symbol
 _atom_site_label
 _atom_site_symmetry_multiplicity
 _atom_site_fract_x
 _atom_site_fract_y
 _atom_site_fract_z
 _atom_site_occupancy
  Li  Li0  1  0.93847100  0.92361900  0.32045100  1
  Li  Li1  1  0.90087700  0.92837100  0.85487200  1
  Li  Li2  1  0.58573500  0.57981100  0.59916300  1
  Li  Li3  1  0.44107700  0.41225100  0.33877700  1
  Li  Li4  1  0.41303800  0.42937800  0.82776700  1
  Mn  Mn0  1  0.92885400  0.26521800  0.37290500  1
  Mn  Mn1  1  0.93124500  0.58836100  0.86628900  1
  Mn  Mn2  1  0.54987200  0.91235400  0.11916800  1
  Mn  Mn3  1  0.56947100  0.23187600  0.61750800  1
  Mn  Mn4  1  0.42411700  0.74255100  0.36425500  1
  Mn  Mn5  1  0.40555100  0.09362800  0.87239000  1
  Mn  Mn6  1  0.09839200  0.40589700  0.11100800  1
  Mn  Mn7  1  0.08053900  0.77220800  0.61669700  1
  B  B0  1  0.91969800  0.58527100  0.38082600  1
  B  B1  1  0.91077300  0.25315700  0.86506600  1
  B  B2  1  0.61008800  0.24319200  0.13797000  1
  B  B3  1  0.56668100  0.91162000  0.63749600  1
  B  B4  1  0.41694500  0.08401100  0.36237500  1
  B  B5  1  0.41873900  0.75053200  0.87638900  1
  B  B6  1  0.07669000  0.74133700  0.11540600  1
  B  B7  1  0.07592100  0.42651800  0.62225300  1
  O  O0  1  0.92399000  0.85572100  0.14116300  1
  O  O1  1  0.92941900  0.31754500  0.55976200  1
  O  O2  1  0.98628100  0.61189600  0.05159800  1
  O  O3  1  0.93949500  0.54896000  0.67389800  1
  O  O4  1  0.86144900  0.24311700  0.18702800  1
  O  O5  1  0.81467100  0.91217300  0.66986800  1
  O  O6  1  0.66524500  0.56544100  0.39717200  1
  O  O7  1  0.65975800  0.26924600  0.82394900  1
  O  O8  1  0.55224500  0.96122200  0.31215100  1
  O  O9  1  0.53916100  0.87782200  0.92826700  1
  O  O10  1  0.55950100  0.20524600  0.40846700  1
  O  O11  1  0.54986200  0.62449000  0.85485900  1
  O  O12  1  0.46237400  0.36096000  0.15509300  1
  O  O13  1  0.45678000  0.78784600  0.57461600  1
  O  O14  1  0.52595700  0.11784600  0.07055500  1
  O  O15  1  0.41592600  0.03178000  0.67029800  1
  O  O16  1  0.33185300  0.74074700  0.15622300  1
  O  O17  1  0.33142000  0.42031500  0.63356200  1
  O  O18  1  0.16204600  0.08488100  0.36823400  1
  O  O19  1  0.16298800  0.76332700  0.84168700  1
  O  O20  1  0.07435100  0.46812800  0.33907200  1
  O  O21  1  0.05465600  0.38180500  0.89584700  1
  O  O22  1  0.03350900  0.72037400  0.40929000  1
  O  O23  1  0.02341500  0.12324100  0.88102400  1
loop_
_geom_bond_atom_site_label_1
_geom_bond_atom_site_label_2
_geom_bond_distance
_geom_bond_site_symmetry_2
Li0 O18 1.937992 1_665
Li0 O0 1.940716 1_555
Li0 O8 2.075120 1_555
Li0 O22 2.160140 1_655
Li1 O23 1.906981 1_665
Li1 O5 1.965892 1_555
Li1 O19 2.055204 1_655
Li1 O9 2.127489 1_555
Li2 O17 2.029017 1_555
Li2 O3 2.039912 1_555
Li2 O13 2.046415 1_555
Li2 O6 2.142162 1_555
Li3 O6 1.913131 1_555
Li3 O12 1.951207 1_555
Li3 O20 2.008539 1_555
Li3 O10 2.141703 1_555
Li4 O11 1.936856 1_555
Li4 O7 1.964373 1_555
Li4 O17 2.052127 1_555
Li4 O21 2.084999 1_555
Mn0 O4 1.958583 1_555
Mn0 O1 1.980139 1_555
Mn0 O20 2.053097 1_655
Mn0 O18 2.062293 1_655
Mn0 O10 2.072316 1_555
Mn1 O2 1.943869 1_556
Mn1 O3 2.016401 1_555
Mn1 O21 2.032673 1_655
Mn1 O19 2.041642 1_655
Mn1 O11 2.048929 1_555
Mn2 O14 1.967415 1_565
Mn2 O9 1.993960 1_554
Mn2 O16 1.999377 1_555
Mn2 O8 2.035570 1_555
Mn2 O0 2.059453 1_555
Mn3 O15 2.095883 1_555
Mn3 O17 2.141005 1_555
Mn3 O1 2.160506 1_555
Mn3 O10 2.172871 1_555
Mn3 O7 2.201718 1_555
Mn4 O6 2.098505 1_555
Mn4 O22 2.137935 1_555
Mn4 O8 2.199852 1_555
Mn4 O16 2.204049 1_555
Mn4 O13 2.210751 1_555
Mn5 O23 2.044580 1_555
Mn5 O14 2.146535 1_556
Mn5 O15 2.153721 1_555
Mn5 O7 2.172033 1_555
Mn5 O9 2.192323 1_545
Mn6 O12 2.019991 1_555
Mn6 O2 2.087381 1_455
Mn6 O4 2.125909 1_455
Mn6 O21 2.242967 1_554
Mn6 O20 2.419017 1_555
Mn7 O5 1.976640 1_455
Mn7 O13 2.051530 1_555
Mn7 O22 2.197156 1_555
Mn7 O3 2.275268 1_455
Mn7 O19 2.371024 1_555
B0 O6 1.372997 1_555
B0 O22 1.395874 1_655
B0 O20 1.410441 1_655
B1 O23 1.345087 1_655
B1 O7 1.399152 1_555
B1 O21 1.426463 1_655
B2 O12 1.341143 1_555
B2 O14 1.392708 1_555
B2 O4 1.417710 1_555
B3 O5 1.350385 1_555
B3 O15 1.395624 1_565
B3 O13 1.409026 1_555
B4 O18 1.351920 1_555
B4 O10 1.407747 1_555
B4 O8 1.421829 1_545
B5 O11 1.360990 1_555
B5 O19 1.401980 1_555
B5 O9 1.414181 1_555
B6 O0 1.345744 1_455
B6 O16 1.409811 1_555
B6 O2 1.416979 1_455
B7 O17 1.357555 1_555
B7 O1 1.398849 1_455
B7 O3 1.427597 1_455
