# generated using pymatgen
data_Li4V3Cr3O12
_symmetry_space_group_name_H-M   'P 1'
_cell_length_a   5.17530600
_cell_length_b   6.00323607
_cell_length_c   7.87745442
_cell_angle_alpha   78.17311755
_cell_angle_beta   77.91699437
_cell_angle_gamma   72.89178655
_symmetry_Int_Tables_number   1
_chemical_formula_structural   Li4V3Cr3O12
_chemical_formula_sum   'Li4 V3 Cr3 O12'
_cell_volume   226.02188606
_cell_formula_units_Z   1
loop_
 _symmetry_equiv_pos_site_id
 _symmetry_equiv_pos_as_xyz
  1  'x, y, z'
loop_
 _atom_site_type_symbol
 _atom_site_label
 _atom_site_symmetry_multiplicity
 _atom_site_fract_x
 _atom_site_fract_y
 _atom_site_fract_z
 _atom_site_occupancy
  Li  Li0  1  0.49588200  0.83399800  0.16495200  1
  Li  Li1  1  0.50411800  0.16600200  0.83504800  1
  Li  Li2  1  0.00181700  0.66601100  0.33492000  1
  Li  Li3  1  0.99818300  0.33398900  0.66508000  1
  V  V0  1  0.00142000  0.83002700  0.67387500  1
  V  V1  1  0.00000000  0.50000000  0.00000000  1
  V  V2  1  0.99858000  0.16997300  0.32612500  1
  Cr  Cr0  1  0.49588600  0.66918600  0.83281200  1
  Cr  Cr1  1  0.50411400  0.33081400  0.16718800  1
  Cr  Cr2  1  0.50000000  0.00000000  0.50000000  1
  O  O0  1  0.74986000  0.81703800  0.90313000  1
  O  O1  1  0.25874400  0.98410000  0.73244600  1
  O  O2  1  0.75185700  0.69038600  0.59750100  1
  O  O3  1  0.73492300  0.36175600  0.92463100  1
  O  O4  1  0.22507200  0.86880800  0.42168600  1
  O  O5  1  0.22937100  0.52710600  0.75472500  1
  O  O6  1  0.77062900  0.47289400  0.24527500  1
  O  O7  1  0.77492800  0.13119200  0.57831400  1
  O  O8  1  0.26507700  0.63824400  0.07536900  1
  O  O9  1  0.24814300  0.30961400  0.40249900  1
  O  O10  1  0.74125600  0.01590000  0.26755400  1
  O  O11  1  0.25014000  0.18296200  0.09687000  1
loop_
_geom_bond_atom_site_label_1
_geom_bond_atom_site_label_2
_geom_bond_distance
_geom_bond_site_symmetry_2
Li0 O11 2.133356 1_565
Li0 O8 2.196475 1_555
Li0 O0 2.205514 1_554
Li0 O4 2.216380 1_555
Li0 O10 2.250711 1_565
Li0 O6 2.263263 1_555
Li1 O0 2.133356 1_545
Li1 O3 2.196475 1_555
Li1 O11 2.205514 1_556
Li1 O7 2.216380 1_555
Li1 O1 2.250711 1_545
Li1 O5 2.263263 1_555
Li2 O10 2.165220 1_465
Li2 O9 2.167638 1_555
Li2 O6 2.186249 1_455
Li2 O4 2.187149 1_555
Li2 O2 2.205874 1_455
Li2 O8 2.214565 1_555
Li3 O1 2.165220 1_645
Li3 O2 2.167638 1_555
Li3 O5 2.186249 1_655
Li3 O7 2.187149 1_555
Li3 O9 2.205874 1_655
Li3 O3 2.214565 1_555
Cr0 O3 1.985906 1_555
Cr0 O0 2.003755 1_555
Cr0 O1 2.033168 1_555
Cr0 O8 2.035134 1_556
Cr0 O2 2.044889 1_555
Cr0 O5 2.066590 1_555
Cr1 O8 1.985906 1_555
Cr1 O11 2.003755 1_555
Cr1 O10 2.033168 1_555
Cr1 O3 2.035134 1_554
Cr1 O9 2.044889 1_555
Cr1 O6 2.066590 1_555
Cr2 O1 1.990536 1_545
Cr2 O10 1.990536 1_555
Cr2 O9 2.037677 1_555
Cr2 O2 2.037677 1_545
Cr2 O7 2.061863 1_555
Cr2 O4 2.061863 1_545
O0 V0 1.995028 1_655
O0 V1 2.061349 1_656
O1 V0 1.999696 1_555
O2 V0 1.975328 1_655
O3 V1 2.033730 1_656
O4 V2 1.942691 1_465
O4 V0 2.084904 1_555
O5 V0 1.918833 1_555
O5 V1 2.047761 1_556
O6 V2 1.918833 1_555
O6 V1 2.047761 1_655
O7 V0 1.942691 1_645
O7 V2 2.084904 1_555
O8 V1 2.033730 1_555
O9 V2 1.975328 1_455
O10 V2 1.999696 1_555
O11 V2 1.995028 1_455
O11 V1 2.061349 1_555
