# generated using pymatgen
data_Pm2MgSn
_symmetry_space_group_name_H-M   'P 1'
_cell_length_a   5.40154639
_cell_length_b   5.40154639
_cell_length_c   5.40154639
_cell_angle_alpha   60.02483065
_cell_angle_beta   60.02483065
_cell_angle_gamma   60.02483065
_symmetry_Int_Tables_number   1
_chemical_formula_structural   Pm2MgSn
_chemical_formula_sum   'Pm2 Mg1 Sn1'
_cell_volume   111.50227362
_cell_formula_units_Z   1
loop_
 _symmetry_equiv_pos_site_id
 _symmetry_equiv_pos_as_xyz
  1  'x, y, z'
loop_
 _atom_site_type_symbol
 _atom_site_label
 _atom_site_symmetry_multiplicity
 _atom_site_fract_x
 _atom_site_fract_y
 _atom_site_fract_z
 _atom_site_occupancy
  Pm  Pm0  1  0.99992135  0.99992135  0.99992135  1
  Pm  Pm1  1  0.50003077  0.50003077  0.50003077  1
  Mg  Mg0  1  0.25005897  0.25005897  0.25005897  1
  Sn  Sn0  1  0.74999090  0.74999090  0.74999090  1
loop_
_geom_bond_atom_site_label_1
_geom_bond_atom_site_label_2
_geom_bond_distance
_geom_bond_site_symmetry_2
Pm0 Sn0 3.306217 1_555
Pm0 Sn0 3.309099 1_565
Pm0 Sn0 3.309099 1_655
Pm0 Sn0 3.309099 1_556
Pm1 Sn0 3.306610 1_555
Pm1 Sn0 3.308968 1_554
Pm1 Sn0 3.308968 1_455
Pm1 Sn0 3.308968 1_545
Mg0 Pm1 3.306764 1_555
Mg0 Pm0 3.308187 1_454
Mg0 Pm0 3.308187 1_544
Mg0 Pm0 3.308187 1_445
Mg0 Pm1 3.308917 1_545
Mg0 Pm1 3.308917 1_455
Mg0 Pm1 3.308917 1_554
Mg0 Pm0 3.308958 1_444
