# generated using pymatgen
data_LiCo2OF3
_symmetry_space_group_name_H-M   'P 1'
_cell_length_a   6.13179200
_cell_length_b   6.12915500
_cell_length_c   8.52072498
_cell_angle_alpha   89.81382441
_cell_angle_beta   90.00000000
_cell_angle_gamma   90.00000000
_symmetry_Int_Tables_number   1
_chemical_formula_structural   LiCo2OF3
_chemical_formula_sum   'Li4 Co8 O4 F12'
_cell_volume   320.23019087
_cell_formula_units_Z   4
loop_
 _symmetry_equiv_pos_site_id
 _symmetry_equiv_pos_as_xyz
  1  'x, y, z'
loop_
 _atom_site_type_symbol
 _atom_site_label
 _atom_site_symmetry_multiplicity
 _atom_site_fract_x
 _atom_site_fract_y
 _atom_site_fract_z
 _atom_site_occupancy
  Li  Li0  1  0.50000000  0.01256800  0.50117400  1
  Li  Li1  1  0.50000000  0.49513500  0.49269500  1
  Li  Li2  1  0.26470800  0.24835900  0.25736700  1
  Li  Li3  1  0.73529200  0.24835900  0.25736700  1
  Co  Co0  1  0.00000000  0.98220300  0.99566500  1
  Co  Co1  1  0.74172500  0.78100800  0.75824400  1
  Co  Co2  1  0.25827500  0.78100800  0.75824400  1
  Co  Co3  1  0.00000000  0.74920800  0.37626200  1
  Co  Co4  1  0.50000000  0.74807000  0.11752700  1
  Co  Co5  1  0.00000000  0.51732800  0.00841000  1
  Co  Co6  1  0.00000000  0.22998500  0.62080400  1
  Co  Co7  1  0.50000000  0.23688400  0.86573300  1
  O  O0  1  0.00000000  0.98369600  0.75707500  1
  O  O1  1  0.50000000  0.99139100  0.73631400  1
  O  O2  1  0.76975700  0.74205400  0.99601100  1
  O  O3  1  0.23024300  0.74205400  0.99601100  1
  F  F0  1  0.73581000  0.74565400  0.50328600  1
  F  F1  1  0.26419000  0.74565400  0.50328600  1
  F  F2  1  0.00000000  0.51019100  0.74700200  1
  F  F3  1  0.50000000  0.51342200  0.73696900  1
  F  F4  1  0.00000000  0.47633600  0.25442500  1
  F  F5  1  0.50000000  0.48239100  0.25884200  1
  F  F6  1  0.26371800  0.25392600  0.48817200  1
  F  F7  1  0.23266700  0.25030600  0.01079100  1
  F  F8  1  0.76733300  0.25030600  0.01079100  1
  F  F9  1  0.73628200  0.25392600  0.48817200  1
  F  F10  1  0.00000000  0.01563100  0.24570800  1
  F  F11  1  0.50000000  0.01391800  0.25830700  1
loop_
_geom_bond_atom_site_label_1
_geom_bond_atom_site_label_2
_geom_bond_distance
_geom_bond_site_symmetry_2
Li0 O1 2.007342 1_545
Co0 O0 2.032951 1_555
Co0 O3 2.039531 1_555
Co0 O2 2.039531 1_455
Co0 F10 2.141039 1_566
Co0 F7 2.180279 1_566
Co0 F8 2.180279 1_466
Co1 O1 1.973074 1_555
Co1 O0 2.012812 1_655
Co1 O2 2.046428 1_555
Co1 F0 2.184209 1_555
Co1 F3 2.218464 1_555
Co1 F2 2.296405 1_655
Co2 O1 1.973074 1_555
Co2 O0 2.012812 1_555
Co2 O3 2.046428 1_555
Co2 F1 2.184209 1_555
Co2 F3 2.218464 1_555
Co2 F2 2.296405 1_555
Co3 F0 1.948342 1_455
Co3 F1 1.948342 1_555
Co3 F4 1.971342 1_555
Co3 F10 1.972861 1_565
Co4 O2 1.951844 1_554
Co4 O3 1.951844 1_554
Co4 F5 2.022072 1_555
Co4 F11 2.026484 1_565
Co5 O3 1.974988 1_554
Co5 O2 1.974988 1_454
Co5 F4 2.110418 1_555
Co5 F7 2.171196 1_555
Co5 F8 2.171196 1_455
Co5 F2 2.227957 1_554
Co6 O0 1.901459 1_545
Co6 F9 1.978010 1_455
Co6 F6 1.978010 1_555
Co6 F2 2.029241 1_555
Co7 O1 1.868380 1_545
Co7 F3 2.016065 1_555
Co7 F8 2.054799 1_556
Co7 F7 2.054799 1_556
F0 Li1 2.111267 1_555
F0 Li0 2.183398 1_565
F1 Li1 2.111267 1_555
F1 Li0 2.183398 1_565
F3 Li1 2.084771 1_555
F4 Li2 2.141829 1_555
F4 Li3 2.141829 1_455
F5 Li1 1.994381 1_555
F5 Li3 2.034550 1_555
F5 Li2 2.034550 1_555
F6 Li2 1.967042 1_555
F6 Li1 2.070425 1_555
F6 Li0 2.073334 1_555
F7 Li2 2.110167 1_555
F8 Li3 2.110167 1_555
F9 Li3 1.967042 1_555
F9 Li1 2.070425 1_555
F9 Li0 2.073334 1_555
F10 Li2 2.163341 1_555
F10 Li3 2.163341 1_455
F11 Li3 2.036248 1_555
F11 Li2 2.036248 1_555
F11 Li0 2.069393 1_555
