# generated using pymatgen
data_BPt3
_symmetry_space_group_name_H-M   'P 1'
_cell_length_a   7.15724166
_cell_length_b   7.15724166
_cell_length_c   2.75524600
_cell_angle_alpha   90.00000000
_cell_angle_beta   90.00000000
_cell_angle_gamma   119.99999685
_symmetry_Int_Tables_number   1
_chemical_formula_structural   BPt3
_chemical_formula_sum   'B2 Pt6'
_cell_volume   122.23128805
_cell_formula_units_Z   2
loop_
 _symmetry_equiv_pos_site_id
 _symmetry_equiv_pos_as_xyz
  1  'x, y, z'
loop_
 _atom_site_type_symbol
 _atom_site_label
 _atom_site_symmetry_multiplicity
 _atom_site_fract_x
 _atom_site_fract_y
 _atom_site_fract_z
 _atom_site_occupancy
  B  B0  1  0.33333300  0.66666700  0.75000000  1
  B  B1  1  0.66666700  0.33333300  0.25000000  1
  Pt  Pt0  1  0.19741000  0.39482000  0.25000000  1
  Pt  Pt1  1  0.60518000  0.80259000  0.25000000  1
  Pt  Pt2  1  0.19741000  0.80259000  0.25000000  1
  Pt  Pt3  1  0.80259000  0.60518000  0.75000000  1
  Pt  Pt4  1  0.39482000  0.19741000  0.75000000  1
  Pt  Pt5  1  0.80259000  0.19741000  0.75000000  1
loop_
_geom_bond_atom_site_label_1
_geom_bond_atom_site_label_2
_geom_bond_distance
_geom_bond_site_symmetry_2
B0 Pt2 2.176479 1_556
B0 Pt2 2.176479 1_555
B0 Pt0 2.176484 1_555
B0 Pt0 2.176484 1_556
B0 Pt1 2.176484 1_555
B0 Pt1 2.176484 1_556
B1 Pt5 2.176479 1_555
B1 Pt5 2.176479 1_554
B1 Pt4 2.176484 1_554
B1 Pt4 2.176484 1_555
B1 Pt3 2.176484 1_555
B1 Pt3 2.176484 1_554
