# generated using pymatgen
data_CsCrH24(SO10)2
_symmetry_space_group_name_H-M   'P 1'
_cell_length_a   12.47477562
_cell_length_b   12.47477562
_cell_length_c   12.47477562
_cell_angle_alpha   90.00000000
_cell_angle_beta   90.00000000
_cell_angle_gamma   90.00000000
_symmetry_Int_Tables_number   1
_chemical_formula_structural   CsCrH24(SO10)2
_chemical_formula_sum   'Cs4 Cr4 H96 S8 O80'
_cell_volume   1941.32491593
_cell_formula_units_Z   4
loop_
 _symmetry_equiv_pos_site_id
 _symmetry_equiv_pos_as_xyz
  1  'x, y, z'
loop_
 _atom_site_type_symbol
 _atom_site_label
 _atom_site_symmetry_multiplicity
 _atom_site_fract_x
 _atom_site_fract_y
 _atom_site_fract_z
 _atom_site_occupancy
  Cs  Cs0  1  0.00000000  0.00000000  0.50000000  1
  Cs  Cs1  1  0.00000000  0.50000000  0.00000000  1
  Cs  Cs2  1  0.50000000  0.50000000  0.50000000  1
  Cs  Cs3  1  0.50000000  0.00000000  0.00000000  1
  Cr  Cr0  1  0.00000000  0.00000000  0.00000000  1
  Cr  Cr1  1  0.00000000  0.50000000  0.50000000  1
  Cr  Cr2  1  0.50000000  0.00000000  0.50000000  1
  Cr  Cr3  1  0.50000000  0.50000000  0.00000000  1
  H  H0  1  0.01956005  0.29264670  0.43405199  1
  H  H1  1  0.01956005  0.20735330  0.93405199  1
  H  H2  1  0.02379486  0.70364846  0.43942703  1
  H  H3  1  0.02379486  0.79635154  0.93942703  1
  H  H4  1  0.00597067  0.23178195  0.27744332  1
  H  H5  1  0.00597067  0.26821805  0.77744332  1
  H  H6  1  0.06057297  0.97620514  0.20364846  1
  H  H7  1  0.06057297  0.52379486  0.70364846  1
  H  H8  1  0.06594801  0.51956005  0.29264670  1
  H  H9  1  0.06594801  0.98043995  0.79264670  1
  H  H10  1  0.12347418  0.22261759  0.32011929  1
  H  H11  1  0.12347418  0.27738241  0.82011929  1
  H  H12  1  0.17988071  0.62347418  0.22261759  1
  H  H13  1  0.17988071  0.87652582  0.72261759  1
  H  H14  1  0.20735330  0.56594801  0.51956005  1
  H  H15  1  0.20735330  0.93405199  0.01956005  1
  H  H16  1  0.20364846  0.06057297  0.97620514  1
  H  H17  1  0.20364846  0.43942703  0.47620514  1
  H  H18  1  0.22255668  0.50597067  0.23178195  1
  H  H19  1  0.22255668  0.99402933  0.73178195  1
  H  H20  1  0.22261759  0.17988071  0.62347418  1
  H  H21  1  0.22261759  0.32011929  0.12347418  1
  H  H22  1  0.23178195  0.27744332  0.00597067  1
  H  H23  1  0.23178195  0.22255668  0.50597067  1
  H  H24  1  0.26821805  0.72255668  0.50597067  1
  H  H25  1  0.26821805  0.77744332  0.00597067  1
  H  H26  1  0.27738241  0.82011929  0.12347418  1
  H  H27  1  0.27738241  0.67988071  0.62347418  1
  H  H28  1  0.27744332  0.00597067  0.23178195  1
  H  H29  1  0.27744332  0.49402933  0.73178195  1
  H  H30  1  0.29635154  0.56057297  0.97620514  1
  H  H31  1  0.29635154  0.93942703  0.47620514  1
  H  H32  1  0.29264670  0.06594801  0.51956005  1
  H  H33  1  0.29264670  0.43405199  0.01956005  1
  H  H34  1  0.32011929  0.12347418  0.22261759  1
  H  H35  1  0.32011929  0.37652582  0.72261759  1
  H  H36  1  0.37652582  0.72261759  0.32011929  1
  H  H37  1  0.37652582  0.77738241  0.82011929  1
  H  H38  1  0.43405199  0.01956005  0.29264670  1
  H  H39  1  0.43405199  0.48043995  0.79264670  1
  H  H40  1  0.43942703  0.47620514  0.20364846  1
  H  H41  1  0.43942703  0.02379486  0.70364846  1
  H  H42  1  0.49402933  0.73178195  0.27744332  1
  H  H43  1  0.49402933  0.76821805  0.77744332  1
  H  H44  1  0.47620514  0.20364846  0.43942703  1
  H  H45  1  0.47620514  0.29635154  0.93942703  1
  H  H46  1  0.48043995  0.79264670  0.43405199  1
  H  H47  1  0.48043995  0.70735330  0.93405199  1
  H  H48  1  0.51956005  0.20735330  0.56594801  1
  H  H49  1  0.51956005  0.29264670  0.06594801  1
  H  H50  1  0.52379486  0.70364846  0.06057297  1
  H  H51  1  0.52379486  0.79635154  0.56057297  1
  H  H52  1  0.50597067  0.23178195  0.22255668  1
  H  H53  1  0.50597067  0.26821805  0.72255668  1
  H  H54  1  0.56057297  0.97620514  0.29635154  1
  H  H55  1  0.56057297  0.52379486  0.79635154  1
  H  H56  1  0.56594801  0.51956005  0.20735330  1
  H  H57  1  0.56594801  0.98043995  0.70735330  1
  H  H58  1  0.62347418  0.22261759  0.17988071  1
  H  H59  1  0.62347418  0.27738241  0.67988071  1
  H  H60  1  0.67988071  0.62347418  0.27738241  1
  H  H61  1  0.67988071  0.87652582  0.77738241  1
  H  H62  1  0.70735330  0.56594801  0.98043995  1
  H  H63  1  0.70735330  0.93405199  0.48043995  1
  H  H64  1  0.70364846  0.06057297  0.52379486  1
  H  H65  1  0.70364846  0.43942703  0.02379486  1
  H  H66  1  0.72255668  0.99402933  0.76821805  1
  H  H67  1  0.72255668  0.50597067  0.26821805  1
  H  H68  1  0.72261759  0.17988071  0.87652582  1
  H  H69  1  0.72261759  0.32011929  0.37652582  1
  H  H70  1  0.73178195  0.22255668  0.99402933  1
  H  H71  1  0.73178195  0.27744332  0.49402933  1
  H  H72  1  0.76821805  0.72255668  0.99402933  1
  H  H73  1  0.76821805  0.77744332  0.49402933  1
  H  H74  1  0.77738241  0.67988071  0.87652582  1
  H  H75  1  0.77738241  0.82011929  0.37652582  1
  H  H76  1  0.77744332  0.00597067  0.26821805  1
  H  H77  1  0.77744332  0.49402933  0.76821805  1
  H  H78  1  0.79635154  0.93942703  0.02379486  1
  H  H79  1  0.79635154  0.56057297  0.52379486  1
  H  H80  1  0.79264670  0.06594801  0.98043995  1
  H  H81  1  0.79264670  0.43405199  0.48043995  1
  H  H82  1  0.82011929  0.12347418  0.27738241  1
  H  H83  1  0.82011929  0.37652582  0.77738241  1
  H  H84  1  0.87652582  0.72261759  0.17988071  1
  H  H85  1  0.87652582  0.77738241  0.67988071  1
  H  H86  1  0.93405199  0.01956005  0.20735330  1
  H  H87  1  0.93405199  0.48043995  0.70735330  1
  H  H88  1  0.93942703  0.02379486  0.79635154  1
  H  H89  1  0.93942703  0.47620514  0.29635154  1
  H  H90  1  0.99402933  0.73178195  0.22255668  1
  H  H91  1  0.99402933  0.76821805  0.72255668  1
  H  H92  1  0.97620514  0.20364846  0.06057297  1
  H  H93  1  0.97620514  0.29635154  0.56057297  1
  H  H94  1  0.98043995  0.70735330  0.56594801  1
  H  H95  1  0.98043995  0.79264670  0.06594801  1
  S  S0  1  0.17289207  0.67289207  0.82710793  1
  S  S1  1  0.17289207  0.82710793  0.32710793  1
  S  S2  1  0.32710793  0.32710793  0.32710793  1
  S  S3  1  0.32710793  0.17289207  0.82710793  1
  S  S4  1  0.67289207  0.67289207  0.67289207  1
  S  S5  1  0.67289207  0.82710793  0.17289207  1
  S  S6  1  0.82710793  0.17289207  0.67289207  1
  S  S7  1  0.82710793  0.32710793  0.17289207  1
  O  O0  1  0.00074135  0.84013906  0.00228110  1
  O  O1  1  0.00074135  0.65986094  0.50228110  1
  O  O2  1  0.99925865  0.34013906  0.49771890  1
  O  O3  1  0.99925865  0.15986094  0.99771890  1
  O  O4  1  0.00228110  0.00074135  0.84013906  1
  O  O5  1  0.00228110  0.49925865  0.34013906  1
  O  O6  1  0.04806403  0.21242948  0.34216703  1
  O  O7  1  0.04806403  0.28757052  0.84216703  1
  O  O8  1  0.06329636  0.77925159  0.33645268  1
  O  O9  1  0.06329636  0.72074841  0.83645268  1
  O  O10  1  0.15986094  0.99771890  0.99925865  1
  O  O11  1  0.15986094  0.50228110  0.49925865  1
  O  O12  1  0.15783297  0.95193597  0.71242948  1
  O  O13  1  0.15783297  0.54806403  0.21242948  1
  O  O14  1  0.16354732  0.56329636  0.77925159  1
  O  O15  1  0.16354732  0.93670364  0.27925159  1
  O  O16  1  0.21242948  0.15783297  0.54806403  1
  O  O17  1  0.21242948  0.34216703  0.04806403  1
  O  O18  1  0.22074841  0.83645268  0.43670364  1
  O  O19  1  0.22074841  0.66354732  0.93670364  1
  O  O20  1  0.24212411  0.75787589  0.25787589  1
  O  O21  1  0.24212411  0.74212411  0.75787589  1
  O  O22  1  0.25787589  0.24212411  0.75787589  1
  O  O23  1  0.25787589  0.25787589  0.25787589  1
  O  O24  1  0.27925159  0.16354732  0.93670364  1
  O  O25  1  0.27925159  0.33645268  0.43670364  1
  O  O26  1  0.28757052  0.65783297  0.54806403  1
  O  O27  1  0.28757052  0.84216703  0.04806403  1
  O  O28  1  0.33645268  0.43670364  0.27925159  1
  O  O29  1  0.33645268  0.06329636  0.77925159  1
  O  O30  1  0.34216703  0.04806403  0.21242948  1
  O  O31  1  0.34216703  0.45193597  0.71242948  1
  O  O32  1  0.34013906  0.00228110  0.49925865  1
  O  O33  1  0.34013906  0.49771890  0.99925865  1
  O  O34  1  0.43670364  0.27925159  0.33645268  1
  O  O35  1  0.43670364  0.22074841  0.83645268  1
  O  O36  1  0.45193597  0.71242948  0.34216703  1
  O  O37  1  0.45193597  0.78757052  0.84216703  1
  O  O38  1  0.49771890  0.99925865  0.34013906  1
  O  O39  1  0.49771890  0.50074135  0.84013906  1
  O  O40  1  0.50074135  0.84013906  0.49771890  1
  O  O41  1  0.50074135  0.65986094  0.99771890  1
  O  O42  1  0.49925865  0.15986094  0.50228110  1
  O  O43  1  0.49925865  0.34013906  0.00228110  1
  O  O44  1  0.50228110  0.49925865  0.15986094  1
  O  O45  1  0.50228110  0.00074135  0.65986094  1
  O  O46  1  0.54806403  0.21242948  0.15783297  1
  O  O47  1  0.54806403  0.28757052  0.65783297  1
  O  O48  1  0.56329636  0.77925159  0.16354732  1
  O  O49  1  0.56329636  0.72074841  0.66354732  1
  O  O50  1  0.65986094  0.99771890  0.50074135  1
  O  O51  1  0.65986094  0.50228110  0.00074135  1
  O  O52  1  0.65783297  0.54806403  0.28757052  1
  O  O53  1  0.65783297  0.95193597  0.78757052  1
  O  O54  1  0.66354732  0.93670364  0.22074841  1
  O  O55  1  0.66354732  0.56329636  0.72074841  1
  O  O56  1  0.71242948  0.15783297  0.95193597  1
  O  O57  1  0.71242948  0.34216703  0.45193597  1
  O  O58  1  0.72074841  0.66354732  0.56329636  1
  O  O59  1  0.72074841  0.83645268  0.06329636  1
  O  O60  1  0.74212411  0.74212411  0.74212411  1
  O  O61  1  0.74212411  0.75787589  0.24212411  1
  O  O62  1  0.75787589  0.24212411  0.74212411  1
  O  O63  1  0.75787589  0.25787589  0.24212411  1
  O  O64  1  0.77925159  0.16354732  0.56329636  1
  O  O65  1  0.77925159  0.33645268  0.06329636  1
  O  O66  1  0.78757052  0.65783297  0.95193597  1
  O  O67  1  0.78757052  0.84216703  0.45193597  1
  O  O68  1  0.83645268  0.06329636  0.72074841  1
  O  O69  1  0.83645268  0.43670364  0.22074841  1
  O  O70  1  0.84216703  0.04806403  0.28757052  1
  O  O71  1  0.84216703  0.45193597  0.78757052  1
  O  O72  1  0.84013906  0.00228110  0.00074135  1
  O  O73  1  0.84013906  0.49771890  0.50074135  1
  O  O74  1  0.93670364  0.22074841  0.66354732  1
  O  O75  1  0.93670364  0.27925159  0.16354732  1
  O  O76  1  0.95193597  0.71242948  0.15783297  1
  O  O77  1  0.95193597  0.78757052  0.65783297  1
  O  O78  1  0.99771890  0.99925865  0.15986094  1
  O  O79  1  0.99771890  0.50074135  0.65986094  1
loop_
_geom_bond_atom_site_label_1
_geom_bond_atom_site_label_2
_geom_bond_distance
_geom_bond_site_symmetry_2
Cs0 O67 3.355406 1_445
Cs0 O77 3.355406 1_445
Cs0 O70 3.355406 1_455
Cs0 O6 3.355406 1_555
Cs0 O12 3.355406 1_545
Cs0 O16 3.355406 1_555
Cs0 O18 3.517002 1_545
Cs0 O68 3.517002 1_455
Cs0 O8 3.517002 1_545
Cs0 O15 3.517002 1_545
Cs0 O64 3.517002 1_455
Cs0 O74 3.517002 1_455
Cs1 O71 3.355406 1_454
Cs1 O66 3.355406 1_454
Cs1 O7 3.355406 1_554
Cs1 O13 3.355406 1_555
Cs1 O17 3.355406 1_555
Cs1 O76 3.355406 1_455
Cs1 O69 3.517002 1_455
Cs1 O65 3.517002 1_455
Cs1 O9 3.517002 1_554
Cs1 O75 3.517002 1_455
Cs1 O14 3.517002 1_554
Cs1 O19 3.517002 1_554
Cs2 O47 3.355406 1_555
Cs2 O26 3.355406 1_555
Cs2 O52 3.355406 1_555
Cs2 O31 3.355406 1_555
Cs2 O57 3.355406 1_555
Cs2 O36 3.355406 1_555
Cs2 O25 3.517002 1_555
Cs2 O34 3.517002 1_555
Cs2 O28 3.517002 1_555
Cs2 O55 3.517002 1_555
Cs2 O58 3.517002 1_555
Cs2 O49 3.517002 1_555
Cs3 O37 3.355406 1_544
Cs3 O53 3.355406 1_544
Cs3 O27 3.355406 1_545
Cs3 O46 3.355406 1_555
Cs3 O30 3.355406 1_555
Cs3 O56 3.355406 1_554
Cs3 O59 3.517002 1_545
Cs3 O35 3.517002 1_554
Cs3 O24 3.517002 1_554
Cs3 O29 3.517002 1_554
Cs3 O48 3.517002 1_545
Cs3 O54 3.517002 1_545
Cr0 O0 1.994454 1_545
Cr0 O72 1.994454 1_455
Cr0 O4 1.994454 1_554
Cr0 O10 1.994454 1_544
Cr0 O78 1.994454 1_445
Cr0 O3 1.994454 1_454
Cr1 O73 1.994454 1_455
Cr1 O5 1.994454 1_555
Cr1 O11 1.994454 1_555
Cr1 O2 1.994454 1_455
Cr1 O79 1.994454 1_455
Cr1 O1 1.994454 1_555
Cr2 O40 1.994454 1_545
Cr2 O32 1.994454 1_555
Cr2 O42 1.994454 1_555
Cr2 O38 1.994454 1_545
Cr2 O45 1.994454 1_555
Cr2 O50 1.994454 1_545
Cr3 O39 1.994454 1_554
Cr3 O44 1.994454 1_555
Cr3 O43 1.994454 1_555
Cr3 O33 1.994454 1_554
Cr3 O51 1.994454 1_555
Cr3 O41 1.994454 1_554
H0 O2 1.022715 1_455
H0 O6 1.562593 1_555
H1 O3 1.022715 1_455
H1 O7 1.562593 1_555
H2 O1 0.997939 1_555
H2 O8 1.668075 1_555
H3 O0 0.997939 1_556
H3 O9 1.668075 1_555
H4 O6 0.992943 1_555
H5 O7 0.992943 1_555
H6 O78 0.997939 1_455
H6 O15 1.668075 1_555
H7 O79 0.997939 1_455
H7 O14 1.668075 1_555
H8 O5 1.022715 1_555
H8 O13 1.562593 1_555
H9 O4 1.022715 1_565
H9 O12 1.562593 1_555
H10 O6 0.988313 1_555
H11 O7 0.988313 1_555
H12 O13 0.988313 1_555
H13 O12 0.988313 1_555
H14 O11 1.022715 1_555
H14 O26 1.562593 1_555
H15 O10 1.022715 1_554
H15 O27 1.562593 1_555
H16 O10 0.997939 1_545
H16 O24 1.668075 1_555
H17 O11 0.997939 1_555
H17 O25 1.668075 1_555
H18 O13 0.992943 1_555
H19 O12 0.992943 1_555
H20 O16 0.988313 1_555
H21 O17 0.988313 1_555
H22 O17 0.992943 1_555
H23 O16 0.992943 1_555
H24 O26 0.992943 1_555
H25 O27 0.992943 1_555
H26 O27 0.988313 1_555
H27 O26 0.988313 1_555
H28 O30 0.992943 1_555
H29 O31 0.992943 1_555
H30 O33 0.997939 1_555
H30 O19 1.668075 1_555
H31 O32 0.997939 1_565
H31 O18 1.668075 1_555
H32 O32 1.022715 1_555
H32 O16 1.562593 1_555
H33 O33 1.022715 1_554
H33 O17 1.562593 1_555
H34 O30 0.988313 1_555
H35 O31 0.988313 1_555
H36 O36 0.988313 1_555
H37 O37 0.988313 1_555
H38 O38 1.022715 1_545
H38 O30 1.562593 1_555
H39 O39 1.022715 1_555
H39 O31 1.562593 1_555
H40 O44 0.997939 1_555
H40 O28 1.668075 1_555
H41 O45 0.997939 1_555
H41 O29 1.668075 1_555
H42 O36 0.992943 1_555
H43 O37 0.992943 1_555
H44 O42 0.997939 1_555
H44 O34 1.668075 1_555
H45 O43 0.997939 1_556
H45 O35 1.668075 1_555
H46 O40 1.022715 1_555
H46 O36 1.562593 1_555
H47 O41 1.022715 1_555
H47 O37 1.562593 1_555
H48 O42 1.022715 1_555
H48 O47 1.562593 1_555
H49 O43 1.022715 1_555
H49 O46 1.562593 1_555
H50 O41 0.997939 1_554
H50 O48 1.668075 1_555
H51 O40 0.997939 1_555
H51 O49 1.668075 1_555
H52 O46 0.992943 1_555
H53 O47 0.992943 1_555
H54 O38 0.997939 1_555
H54 O54 1.668075 1_555
H55 O39 0.997939 1_555
H55 O55 1.668075 1_555
H56 O44 1.022715 1_555
H56 O52 1.562593 1_555
H57 O45 1.022715 1_565
H57 O53 1.562593 1_555
H58 O46 0.988313 1_555
H59 O47 0.988313 1_555
H60 O52 0.988313 1_555
H61 O53 0.988313 1_555
H62 O51 1.022715 1_556
H62 O66 1.562593 1_555
H63 O50 1.022715 1_555
H63 O67 1.562593 1_555
H64 O50 0.997939 1_545
H64 O64 1.668075 1_555
H65 O51 0.997939 1_555
H65 O65 1.668075 1_555
H66 O53 0.992943 1_555
H67 O52 0.992943 1_555
H68 O56 0.988313 1_555
H69 O57 0.988313 1_555
H70 O56 0.992943 1_555
H71 O57 0.992943 1_555
H72 O66 0.992943 1_555
H73 O67 0.992943 1_555
H74 O66 0.988313 1_555
H75 O67 0.988313 1_555
H76 O70 0.992943 1_555
H77 O71 0.992943 1_555
H78 O72 0.997939 1_565
H78 O59 1.668075 1_555
H79 O73 0.997939 1_555
H79 O58 1.668075 1_555
H80 O72 1.022715 1_556
H80 O56 1.562593 1_555
H81 O73 1.022715 1_555
H81 O57 1.562593 1_555
H82 O70 0.988313 1_555
H83 O71 0.988313 1_555
H84 O76 0.988313 1_555
H85 O77 0.988313 1_555
H86 O78 1.022715 1_545
H86 O70 1.562593 1_555
H87 O79 1.022715 1_555
H87 O71 1.562593 1_555
H88 O4 0.997939 1_655
H88 O68 1.668075 1_555
H89 O5 0.997939 1_655
H89 O69 1.668075 1_555
H90 O76 0.992943 1_555
H91 O77 0.992943 1_555
H92 O3 0.997939 1_554
H92 O75 1.668075 1_555
H93 O2 0.997939 1_555
H93 O74 1.668075 1_555
H94 O1 1.022715 1_655
H94 O77 1.562593 1_555
H95 O0 1.022715 1_655
H95 O76 1.562593 1_555
O8 S1 1.496389 1_555
O9 S0 1.496389 1_555
O14 S0 1.496389 1_555
O15 S1 1.496389 1_555
O18 S1 1.496389 1_555
O19 S0 1.496389 1_555
O20 S1 1.495893 1_555
O21 S0 1.495893 1_555
O22 S3 1.495893 1_555
O23 S2 1.495893 1_555
O24 S3 1.496389 1_555
O25 S2 1.496389 1_555
O28 S2 1.496389 1_555
O29 S3 1.496389 1_555
O34 S2 1.496389 1_555
O35 S3 1.496389 1_555
O48 S5 1.496389 1_555
O49 S4 1.496389 1_555
O54 S5 1.496389 1_555
O55 S4 1.496389 1_555
O58 S4 1.496389 1_555
O59 S5 1.496389 1_555
O60 S4 1.495893 1_555
O61 S5 1.495893 1_555
O62 S6 1.495893 1_555
O63 S7 1.495893 1_555
O64 S6 1.496389 1_555
O65 S7 1.496389 1_555
O68 S6 1.496389 1_555
O69 S7 1.496389 1_555
O74 S6 1.496389 1_555
O75 S7 1.496389 1_555
