# generated using pymatgen
data_ThCdAg2
_symmetry_space_group_name_H-M   'P 1'
_cell_length_a   5.03610733
_cell_length_b   5.03610293
_cell_length_c   5.03610440
_cell_angle_alpha   59.99993270
_cell_angle_beta   60.00002884
_cell_angle_gamma   60.00000000
_symmetry_Int_Tables_number   1
_chemical_formula_structural   ThCdAg2
_chemical_formula_sum   'Th1 Cd1 Ag2'
_cell_volume   90.31693186
_cell_formula_units_Z   1
loop_
 _symmetry_equiv_pos_site_id
 _symmetry_equiv_pos_as_xyz
  1  'x, y, z'
loop_
 _atom_site_type_symbol
 _atom_site_label
 _atom_site_symmetry_multiplicity
 _atom_site_fract_x
 _atom_site_fract_y
 _atom_site_fract_z
 _atom_site_occupancy
  Th  Th0  1  0.75000100  0.75000000  0.74999900  1
  Cd  Cd0  1  0.25000000  0.25000000  0.25000100  1
  Ag  Ag0  1  -0.00000000  0.00000000  -0.00000000  1
  Ag  Ag1  1  0.49999900  0.50000000  0.50000000  1
loop_
_geom_bond_atom_site_label_1
_geom_bond_atom_site_label_2
_geom_bond_distance
_geom_bond_site_symmetry_2
Ag0 Th0 3.083967 1_445
Ag0 Cd0 3.083967 1_554
Ag0 Th0 3.083969 1_454
Ag0 Cd0 3.083969 1_545
Ag0 Th0 3.083972 1_444
Ag0 Cd0 3.083975 1_455
Ag0 Cd0 3.083976 1_555
Ag0 Th0 3.083979 1_544
Ag1 Cd0 3.083964 1_555
Ag1 Th0 3.083966 1_455
Ag1 Cd0 3.083969 1_565
Ag1 Th0 3.083969 1_545
Ag1 Cd0 3.083975 1_556
Ag1 Th0 3.083975 1_554
Ag1 Th0 3.083976 1_555
Ag1 Cd0 3.083979 1_655
