# generated using pymatgen
data_LiMnPO4
_symmetry_space_group_name_H-M   'P 1'
_cell_length_a   4.81528600
_cell_length_b   7.43178100
_cell_length_c   18.23539427
_cell_angle_alpha   89.10107823
_cell_angle_beta   90.00000000
_cell_angle_gamma   90.00000000
_symmetry_Int_Tables_number   1
_chemical_formula_structural   LiMnPO4
_chemical_formula_sum   'Li8 Mn8 P8 O32'
_cell_volume   652.49425919
_cell_formula_units_Z   8
loop_
 _symmetry_equiv_pos_site_id
 _symmetry_equiv_pos_as_xyz
  1  'x, y, z'
loop_
 _atom_site_type_symbol
 _atom_site_label
 _atom_site_symmetry_multiplicity
 _atom_site_fract_x
 _atom_site_fract_y
 _atom_site_fract_z
 _atom_site_occupancy
  Li  Li0  1  0.76716800  0.14569500  0.77057600  1
  Li  Li1  1  0.73283200  0.14569500  0.27057600  1
  Li  Li2  1  0.22304700  0.33094000  0.51827300  1
  Li  Li3  1  0.27695300  0.33094000  0.01827300  1
  Li  Li4  1  0.72304700  0.66906000  0.98172700  1
  Li  Li5  1  0.77695300  0.66906000  0.48172700  1
  Li  Li6  1  0.26716800  0.85430500  0.72942400  1
  Li  Li7  1  0.23283200  0.85430500  0.22942400  1
  Mn  Mn0  1  0.75754000  0.02927400  0.59908900  1
  Mn  Mn1  1  0.74246000  0.02927400  0.09908900  1
  Mn  Mn2  1  0.32720100  0.47975800  0.83244500  1
  Mn  Mn3  1  0.17279900  0.47975800  0.33244500  1
  Mn  Mn4  1  0.82720100  0.52024200  0.66755500  1
  Mn  Mn5  1  0.67279900  0.52024200  0.16755500  1
  Mn  Mn6  1  0.25754000  0.97072600  0.90091100  1
  Mn  Mn7  1  0.24246000  0.97072600  0.40091100  1
  P  P0  1  0.32879300  0.24082400  0.67833400  1
  P  P1  1  0.17120700  0.24082400  0.17833400  1
  P  P2  1  0.71530800  0.25747300  0.93067600  1
  P  P3  1  0.78469200  0.25747300  0.43067600  1
  P  P4  1  0.21530800  0.74252700  0.56932400  1
  P  P5  1  0.28469200  0.74252700  0.06932400  1
  P  P6  1  0.82879300  0.75917600  0.82166600  1
  P  P7  1  0.67120700  0.75917600  0.32166600  1
  O  O0  1  0.45002800  0.07358100  0.71724800  1
  O  O1  1  0.04997200  0.07358100  0.21724800  1
  O  O2  1  0.61436600  0.17638100  0.00447700  1
  O  O3  1  0.57599200  0.15364600  0.86636700  1
  O  O4  1  0.43824100  0.23514400  0.59864900  1
  O  O5  1  0.00479800  0.24947500  0.68224200  1
  O  O6  1  0.88563400  0.17638100  0.50447700  1
  O  O7  1  0.92400800  0.15364600  0.36636700  1
  O  O8  1  0.06175900  0.23514400  0.09864900  1
  O  O9  1  0.49520200  0.24947500  0.18224200  1
  O  O10  1  0.03817000  0.25076500  0.92250500  1
  O  O11  1  0.46183000  0.25076500  0.42250500  1
  O  O12  1  0.44792600  0.41367900  0.71766800  1
  O  O13  1  0.05207400  0.41367900  0.21766800  1
  O  O14  1  0.59961900  0.45324900  0.92436500  1
  O  O15  1  0.90038100  0.45324900  0.42436500  1
  O  O16  1  0.09961900  0.54675100  0.57563500  1
  O  O17  1  0.40038100  0.54675100  0.07563500  1
  O  O18  1  0.94792600  0.58632100  0.78233200  1
  O  O19  1  0.55207400  0.58632100  0.28233200  1
  O  O20  1  0.53817000  0.74923500  0.57749500  1
  O  O21  1  0.96183000  0.74923500  0.07749500  1
  O  O22  1  0.50479800  0.75052500  0.81775800  1
  O  O23  1  0.93824100  0.76485600  0.90135100  1
  O  O24  1  0.07599200  0.84635400  0.63363300  1
  O  O25  1  0.11436600  0.82361900  0.49552300  1
  O  O26  1  0.99520200  0.75052500  0.31775800  1
  O  O27  1  0.56175900  0.76485600  0.40135100  1
  O  O28  1  0.42400800  0.84635400  0.13363300  1
  O  O29  1  0.38563400  0.82361900  0.99552300  1
  O  O30  1  0.95002800  0.92641900  0.78275200  1
  O  O31  1  0.54997200  0.92641900  0.28275200  1
loop_
_geom_bond_atom_site_label_1
_geom_bond_atom_site_label_2
_geom_bond_distance
_geom_bond_site_symmetry_2
Li0 O30 1.862498 1_545
Li0 O0 1.892445 1_555
Li0 O3 1.976218 1_555
Li0 O5 2.111846 1_655
Li1 O31 1.862498 1_545
Li1 O1 1.892445 1_655
Li1 O7 1.976218 1_555
Li1 O9 2.111846 1_555
Li2 O4 1.922526 1_555
Li2 O6 2.007867 1_455
Li2 O16 2.018020 1_555
Li2 O11 2.181636 1_555
Li2 O15 2.474662 1_455
Li3 O8 1.922526 1_555
Li3 O2 2.007867 1_555
Li3 O17 2.018020 1_555
Li3 O10 2.181636 1_554
Li3 O14 2.474662 1_554
Li4 O23 1.922526 1_555
Li4 O29 2.007867 1_555
Li4 O14 2.018020 1_555
Li4 O21 2.181636 1_556
Li4 O17 2.474662 1_556
Li5 O27 1.922526 1_555
Li5 O25 2.007867 1_655
Li5 O15 2.018020 1_555
Li5 O20 2.181636 1_555
Li5 O16 2.474662 1_655
Li6 O0 1.862498 1_565
Li6 O30 1.892445 1_455
Li6 O24 1.976218 1_555
Li6 O22 2.111846 1_555
Li7 O1 1.862498 1_565
Li7 O31 1.892445 1_555
Li7 O28 1.976218 1_555
Li7 O26 2.111846 1_455
Mn0 O6 2.119698 1_555
Mn0 O24 2.137613 1_645
Mn0 O4 2.168980 1_555
Mn0 O20 2.372330 1_545
Mn0 O5 2.544163 1_655
Mn0 O0 2.639311 1_555
Mn1 O2 2.119698 1_555
Mn1 O28 2.137613 1_545
Mn1 O8 2.168980 1_655
Mn1 O21 2.372330 1_545
Mn1 O9 2.544163 1_555
Mn1 O1 2.639311 1_655
Mn2 O14 2.135142 1_555
Mn2 O18 2.185178 1_455
Mn2 O22 2.198961 1_555
Mn2 O12 2.234283 1_555
Mn2 O10 2.728115 1_555
Mn2 O3 2.764889 1_555
Mn3 O15 2.135142 1_455
Mn3 O19 2.185178 1_555
Mn3 O26 2.198961 1_455
Mn3 O13 2.234283 1_555
Mn3 O11 2.728115 1_555
Mn3 O7 2.764889 1_455
Mn4 O16 2.135142 1_655
Mn4 O12 2.185178 1_555
Mn4 O5 2.198961 1_655
Mn4 O18 2.234283 1_555
Mn4 O20 2.728115 1_555
Mn4 O24 2.764889 1_655
Mn5 O17 2.135142 1_555
Mn5 O13 2.185178 1_655
Mn5 O9 2.198961 1_555
Mn5 O19 2.234283 1_555
Mn5 O21 2.728115 1_555
Mn5 O28 2.764889 1_555
Mn6 O29 2.119698 1_555
Mn6 O3 2.137613 1_565
Mn6 O23 2.168980 1_455
Mn6 O10 2.372330 1_565
Mn6 O22 2.544163 1_555
Mn6 O30 2.639311 1_455
Mn7 O25 2.119698 1_555
Mn7 O7 2.137613 1_465
Mn7 O27 2.168980 1_555
Mn7 O11 2.372330 1_565
Mn7 O26 2.544163 1_455
Mn7 O31 2.639311 1_555
O0 P0 1.536720 1_555
O1 P1 1.536720 1_555
O2 P2 1.544396 1_554
O3 P2 1.564944 1_555
O4 P0 1.546908 1_555
O5 P0 1.563124 1_555
O6 P3 1.544396 1_555
O7 P3 1.564944 1_555
O8 P1 1.546908 1_555
O9 P1 1.563124 1_555
O10 P2 1.562667 1_455
O11 P3 1.562667 1_555
O12 P0 1.588309 1_555
O13 P1 1.588309 1_555
O14 P2 1.560527 1_555
O15 P3 1.560527 1_555
O16 P4 1.560527 1_555
O17 P5 1.560527 1_555
O18 P6 1.588309 1_555
O19 P7 1.588309 1_555
O20 P4 1.562667 1_555
O21 P5 1.562667 1_655
O22 P6 1.563124 1_555
O23 P6 1.546908 1_555
O24 P4 1.564944 1_555
O25 P4 1.544396 1_555
O26 P7 1.563124 1_555
O27 P7 1.546908 1_555
O28 P5 1.564944 1_555
O29 P5 1.544396 1_556
O30 P6 1.536720 1_555
O31 P7 1.536720 1_555
