# generated using pymatgen
data_K2MnP4(HO2)8
_symmetry_space_group_name_H-M   'P 1'
_cell_length_a   9.88116100
_cell_length_b   11.31825700
_cell_length_c   13.48064100
_cell_angle_alpha   90.00000000
_cell_angle_beta   90.00000000
_cell_angle_gamma   90.00000000
_symmetry_Int_Tables_number   1
_chemical_formula_structural   K2MnP4(HO2)8
_chemical_formula_sum   'K8 Mn4 P16 H32 O64'
_cell_volume   1507.64145282
_cell_formula_units_Z   4
loop_
 _symmetry_equiv_pos_site_id
 _symmetry_equiv_pos_as_xyz
  1  'x, y, z'
loop_
 _atom_site_type_symbol
 _atom_site_label
 _atom_site_symmetry_multiplicity
 _atom_site_fract_x
 _atom_site_fract_y
 _atom_site_fract_z
 _atom_site_occupancy
  K  K0  1  0.05577300  0.75000000  0.60213300  1
  K  K1  1  0.24717600  0.75000000  0.13229600  1
  K  K2  1  0.25282400  0.25000000  0.63229600  1
  K  K3  1  0.44422700  0.25000000  0.10213300  1
  K  K4  1  0.55577300  0.75000000  0.89786700  1
  K  K5  1  0.74717600  0.75000000  0.36770400  1
  K  K6  1  0.75282400  0.25000000  0.86770400  1
  K  K7  1  0.94422700  0.25000000  0.39786700  1
  Mn  Mn0  1  0.16607600  0.75000000  0.86176000  1
  Mn  Mn1  1  0.33392400  0.25000000  0.36176000  1
  Mn  Mn2  1  0.66607600  0.75000000  0.63824000  1
  Mn  Mn3  1  0.83392400  0.25000000  0.13824000  1
  P  P0  1  0.05813000  0.01863000  0.77691900  1
  P  P1  1  0.05813000  0.48137000  0.77691900  1
  P  P2  1  0.24753700  0.51759200  0.44305200  1
  P  P3  1  0.24753700  0.98240800  0.44305200  1
  P  P4  1  0.25246300  0.01759200  0.94305200  1
  P  P5  1  0.25246300  0.48240800  0.94305200  1
  P  P6  1  0.44187000  0.51863000  0.27691900  1
  P  P7  1  0.44187000  0.98137000  0.27691900  1
  P  P8  1  0.55813000  0.01863000  0.72308100  1
  P  P9  1  0.55813000  0.48137000  0.72308100  1
  P  P10  1  0.74753700  0.51759200  0.05694800  1
  P  P11  1  0.74753700  0.98240800  0.05694800  1
  P  P12  1  0.75246300  0.01759200  0.55694800  1
  P  P13  1  0.75246300  0.48240800  0.55694800  1
  P  P14  1  0.94187000  0.98137000  0.22308100  1
  P  P15  1  0.94187000  0.51863000  0.22308100  1
  H  H0  1  0.04161800  0.17978300  0.01362300  1
  H  H1  1  0.04161800  0.32021700  0.01362300  1
  H  H2  1  0.04113100  0.58229000  0.39842400  1
  H  H3  1  0.04113100  0.91771000  0.39842400  1
  H  H4  1  0.10041200  0.51990900  0.10622700  1
  H  H5  1  0.10041200  0.98009100  0.10622700  1
  H  H6  1  0.13448700  0.31777000  0.21732300  1
  H  H7  1  0.13448700  0.18223000  0.21732300  1
  H  H8  1  0.36551300  0.68223000  0.71732300  1
  H  H9  1  0.36551300  0.81777000  0.71732300  1
  H  H10  1  0.39958800  0.01990900  0.60622700  1
  H  H11  1  0.39958800  0.48009100  0.60622700  1
  H  H12  1  0.45886900  0.08229000  0.89842400  1
  H  H13  1  0.45886900  0.41771000  0.89842400  1
  H  H14  1  0.45838200  0.67978300  0.51362300  1
  H  H15  1  0.45838200  0.82021700  0.51362300  1
  H  H16  1  0.54161800  0.17978300  0.48637700  1
  H  H17  1  0.54161800  0.32021700  0.48637700  1
  H  H18  1  0.54113000  0.58229000  0.10157600  1
  H  H19  1  0.54113000  0.91771000  0.10157600  1
  H  H20  1  0.60041200  0.51990900  0.39377300  1
  H  H21  1  0.60041200  0.98009100  0.39377300  1
  H  H22  1  0.63448700  0.18223000  0.28267700  1
  H  H23  1  0.63448700  0.31777000  0.28267700  1
  H  H24  1  0.86551300  0.68223000  0.78267700  1
  H  H25  1  0.86551300  0.81777000  0.78267700  1
  H  H26  1  0.89958800  0.01990900  0.89377300  1
  H  H27  1  0.89958800  0.48009100  0.89377300  1
  H  H28  1  0.95887000  0.08229000  0.60157600  1
  H  H29  1  0.95887000  0.41771000  0.60157600  1
  H  H30  1  0.95838200  0.67978300  0.98637700  1
  H  H31  1  0.95838200  0.82021700  0.98637700  1
  O  O0  1  0.01875900  0.75000000  0.98430700  1
  O  O1  1  0.05015900  0.61601500  0.77992000  1
  O  O2  1  0.05015900  0.88398500  0.77992000  1
  O  O3  1  0.06589400  0.57169000  0.16467600  1
  O  O4  1  0.06589400  0.92831000  0.16467600  1
  O  O5  1  0.06991800  0.07583500  0.67624900  1
  O  O6  1  0.06991800  0.42416500  0.67624900  1
  O  O7  1  0.11563500  0.59395400  0.45251100  1
  O  O8  1  0.11563500  0.90604600  0.45251100  1
  O  O9  1  0.15363600  0.05568900  0.02319300  1
  O  O10  1  0.15363600  0.44431100  0.02319300  1
  O  O11  1  0.19633300  0.25000000  0.22540400  1
  O  O12  1  0.19277500  0.06155400  0.83611100  1
  O  O13  1  0.19277500  0.43844600  0.83611100  1
  O  O14  1  0.21702400  0.11385800  0.43622500  1
  O  O15  1  0.21702400  0.38614200  0.43622500  1
  O  O16  1  0.28297600  0.61385800  0.93622500  1
  O  O17  1  0.28297600  0.88614200  0.93622500  1
  O  O18  1  0.30722500  0.56155400  0.33611100  1
  O  O19  1  0.30722500  0.93844600  0.33611100  1
  O  O20  1  0.30366700  0.75000000  0.72540400  1
  O  O21  1  0.34636400  0.55568900  0.52319300  1
  O  O22  1  0.34636400  0.94431100  0.52319300  1
  O  O23  1  0.38436500  0.09395400  0.95251100  1
  O  O24  1  0.38436500  0.40604600  0.95251100  1
  O  O25  1  0.43008200  0.57583500  0.17624900  1
  O  O26  1  0.43008200  0.92416500  0.17624900  1
  O  O27  1  0.43410600  0.42831000  0.66467600  1
  O  O28  1  0.43410600  0.07169000  0.66467600  1
  O  O29  1  0.44984100  0.11601500  0.27992000  1
  O  O30  1  0.44984100  0.38398500  0.27992000  1
  O  O31  1  0.48124100  0.25000000  0.48430700  1
  O  O32  1  0.51875900  0.75000000  0.51569300  1
  O  O33  1  0.55015900  0.61601500  0.72008000  1
  O  O34  1  0.55015900  0.88398500  0.72008000  1
  O  O35  1  0.56589400  0.57169000  0.33532400  1
  O  O36  1  0.56589400  0.92831000  0.33532400  1
  O  O37  1  0.56991800  0.07583500  0.82375100  1
  O  O38  1  0.56991800  0.42416500  0.82375100  1
  O  O39  1  0.61563500  0.59395400  0.04748900  1
  O  O40  1  0.61563500  0.90604600  0.04748900  1
  O  O41  1  0.65363600  0.05568900  0.47680700  1
  O  O42  1  0.65363600  0.44431100  0.47680700  1
  O  O43  1  0.69633300  0.25000000  0.27459600  1
  O  O44  1  0.69277500  0.06155400  0.66388900  1
  O  O45  1  0.69277500  0.43844600  0.66388900  1
  O  O46  1  0.71702400  0.11385800  0.06377500  1
  O  O47  1  0.71702400  0.38614200  0.06377500  1
  O  O48  1  0.78297600  0.61385800  0.56377500  1
  O  O49  1  0.78297600  0.88614200  0.56377500  1
  O  O50  1  0.80722500  0.56155400  0.16388900  1
  O  O51  1  0.80722500  0.93844600  0.16388900  1
  O  O52  1  0.80366700  0.75000000  0.77459600  1
  O  O53  1  0.84636400  0.55568900  0.97680700  1
  O  O54  1  0.84636400  0.94431100  0.97680700  1
  O  O55  1  0.88436500  0.09395400  0.54748900  1
  O  O56  1  0.88436500  0.40604600  0.54748900  1
  O  O57  1  0.93008200  0.57583500  0.32375100  1
  O  O58  1  0.93008200  0.92416500  0.32375100  1
  O  O59  1  0.93410600  0.07169000  0.83532400  1
  O  O60  1  0.93410600  0.42831000  0.83532400  1
  O  O61  1  0.94984100  0.11601500  0.22008000  1
  O  O62  1  0.94984100  0.38398500  0.22008000  1
  O  O63  1  0.98124100  0.25000000  0.01569300  1
loop_
_geom_bond_atom_site_label_1
_geom_bond_atom_site_label_2
_geom_bond_distance
_geom_bond_site_symmetry_2
K0 O8 2.745455 1_555
K0 O7 2.745455 1_555
K0 O2 2.836700 1_555
K0 O1 2.836700 1_555
K0 O20 2.959973 1_555
K0 O48 3.147653 1_455
K0 O49 3.147653 1_455
K1 O3 2.733527 1_555
K1 O4 2.733527 1_555
K1 O26 2.739215 1_555
K1 O25 2.739215 1_555
K1 O0 3.012330 1_554
K1 O17 3.079901 1_554
K1 O16 3.079901 1_554
K2 O28 2.733527 1_555
K2 O27 2.733527 1_555
K2 O6 2.739215 1_555
K2 O5 2.739215 1_555
K2 O31 3.012330 1_555
K2 O15 3.079901 1_555
K2 O14 3.079901 1_555
K3 O24 2.745455 1_554
K3 O23 2.745455 1_554
K3 O30 2.836700 1_555
K3 O29 2.836700 1_555
K3 O11 2.959973 1_555
K3 O46 3.147653 1_555
K3 O47 3.147653 1_555
K4 O40 2.745455 1_556
K4 O39 2.745455 1_556
K4 O34 2.836700 1_555
K4 O33 2.836700 1_555
K4 O52 2.959973 1_555
K4 O16 3.147653 1_555
K4 O17 3.147653 1_555
K5 O35 2.733527 1_555
K5 O36 2.733527 1_555
K5 O58 2.739215 1_555
K5 O57 2.739215 1_555
K5 O32 3.012330 1_555
K5 O48 3.079901 1_555
K5 O49 3.079901 1_555
K6 O60 2.733527 1_555
K6 O59 2.733527 1_555
K6 O38 2.739215 1_555
K6 O37 2.739215 1_555
K6 O63 3.012330 1_556
K6 O47 3.079901 1_556
K6 O46 3.079901 1_556
K7 O56 2.745455 1_555
K7 O55 2.745455 1_555
K7 O62 2.836700 1_555
K7 O61 2.836700 1_555
K7 O43 2.959973 1_555
K7 O15 3.147653 1_655
K7 O14 3.147653 1_655
Mn0 O17 2.171705 1_555
Mn0 O16 2.171705 1_555
Mn0 O2 2.197454 1_555
Mn0 O1 2.197454 1_555
Mn0 O0 2.201840 1_555
Mn0 O20 2.286319 1_555
Mn1 O14 2.171705 1_555
Mn1 O15 2.171705 1_555
Mn1 O30 2.197454 1_555
Mn1 O29 2.197454 1_555
Mn1 O31 2.201840 1_555
Mn1 O11 2.286319 1_555
Mn2 O48 2.171705 1_555
Mn2 O49 2.171705 1_555
Mn2 O34 2.197454 1_555
Mn2 O33 2.197454 1_555
Mn2 O32 2.201840 1_555
Mn2 O52 2.286319 1_555
Mn3 O46 2.171705 1_555
Mn3 O47 2.171705 1_555
Mn3 O62 2.197454 1_555
Mn3 O61 2.197454 1_555
Mn3 O63 2.201840 1_555
Mn3 O43 2.286319 1_555
H0 O63 0.994136 1_455
H1 O63 0.994136 1_455
H2 O7 1.044521 1_555
H2 O57 1.490877 1_455
H3 O8 1.044521 1_555
H3 O58 1.490877 1_455
H4 O3 1.039542 1_555
H4 O10 1.503878 1_555
H5 O4 1.039542 1_555
H5 O9 1.503878 1_565
H6 O11 0.986748 1_555
H7 O11 0.986748 1_555
H8 O20 0.986748 1_555
H9 O20 0.986748 1_555
H10 O28 1.039542 1_555
H10 O22 1.503878 1_545
H11 O27 1.039542 1_555
H11 O21 1.503878 1_555
H12 O23 1.044521 1_555
H12 O37 1.490877 1_555
H13 O24 1.044521 1_555
H13 O38 1.490877 1_555
H14 O32 0.994136 1_555
H15 O32 0.994136 1_555
H16 O31 0.994136 1_555
H17 O31 0.994136 1_555
H18 O39 1.044528 1_555
H18 O25 1.490870 1_555
H19 O40 1.044528 1_555
H19 O26 1.490870 1_555
H20 O35 1.039542 1_555
H20 O42 1.503878 1_555
H21 O36 1.039542 1_555
H21 O41 1.503878 1_565
H22 O43 0.986748 1_555
H23 O43 0.986748 1_555
H24 O52 0.986748 1_555
H25 O52 0.986748 1_555
H26 O59 1.039542 1_555
H26 O54 1.503878 1_545
H27 O60 1.039542 1_555
H27 O53 1.503878 1_555
H28 O55 1.044528 1_555
H28 O5 1.490870 1_655
H29 O56 1.044528 1_555
H29 O6 1.490870 1_655
H30 O0 0.994136 1_655
H31 O0 0.994136 1_655
O1 P1 1.526517 1_555
O2 P0 1.526517 1_565
O3 P15 1.575566 1_455
O4 P14 1.575566 1_455
O5 P0 1.508139 1_555
O6 P1 1.508139 1_555
O7 P2 1.569062 1_555
O8 P3 1.569062 1_555
O9 P4 1.518779 1_554
O10 P5 1.518779 1_554
O12 P0 1.625681 1_555
O12 P4 1.635156 1_555
O13 P1 1.625681 1_555
O13 P5 1.635156 1_555
O14 P3 1.520815 1_545
O15 P2 1.520815 1_555
O16 P5 1.520815 1_555
O17 P4 1.520815 1_565
O18 P6 1.625681 1_555
O18 P2 1.635156 1_555
O19 P7 1.625681 1_555
O19 P3 1.635156 1_555
O21 P2 1.518779 1_555
O22 P3 1.518779 1_555
O23 P4 1.569062 1_555
O24 P5 1.569062 1_555
O25 P6 1.508139 1_555
O26 P7 1.508139 1_555
O27 P9 1.575566 1_555
O28 P8 1.575566 1_555
O29 P7 1.526517 1_545
O30 P6 1.526517 1_555
O33 P9 1.526517 1_555
O34 P8 1.526517 1_565
O35 P6 1.575566 1_555
O36 P7 1.575566 1_555
O37 P8 1.508139 1_555
O38 P9 1.508139 1_555
O39 P10 1.569062 1_555
O40 P11 1.569062 1_555
O41 P12 1.518779 1_555
O42 P13 1.518779 1_555
O44 P8 1.625681 1_555
O44 P12 1.635156 1_555
O45 P9 1.625681 1_555
O45 P13 1.635156 1_555
O46 P11 1.520815 1_545
O47 P10 1.520815 1_555
O48 P13 1.520815 1_555
O49 P12 1.520815 1_565
O50 P15 1.625681 1_555
O50 P10 1.635156 1_555
O51 P14 1.625681 1_555
O51 P11 1.635156 1_555
O53 P10 1.518779 1_556
O54 P11 1.518779 1_556
O55 P12 1.569062 1_555
O56 P13 1.569062 1_555
O57 P15 1.508139 1_555
O58 P14 1.508139 1_555
O59 P0 1.575566 1_655
O60 P1 1.575566 1_655
O61 P14 1.526517 1_545
O62 P15 1.526517 1_555
