# generated using pymatgen
data_PaTe3
_symmetry_space_group_name_H-M   'P 1'
_cell_length_a   6.69256944
_cell_length_b   6.69262541
_cell_length_c   5.82769767
_cell_angle_alpha   89.99535454
_cell_angle_beta   89.99486507
_cell_angle_gamma   120.00136713
_symmetry_Int_Tables_number   1
_chemical_formula_structural   PaTe3
_chemical_formula_sum   'Pa2 Te6'
_cell_volume   226.05340847
_cell_formula_units_Z   2
loop_
 _symmetry_equiv_pos_site_id
 _symmetry_equiv_pos_as_xyz
  1  'x, y, z'
loop_
 _atom_site_type_symbol
 _atom_site_label
 _atom_site_symmetry_multiplicity
 _atom_site_fract_x
 _atom_site_fract_y
 _atom_site_fract_z
 _atom_site_occupancy
  Pa  Pa0  1  0.66666721  0.33333423  0.25000057  1
  Pa  Pa1  1  0.33333004  0.66666894  0.74999815  1
  Te  Te0  1  0.82415720  0.17583546  0.75001051  1
  Te  Te1  1  0.35162528  0.17583179  0.75002083  1
  Te  Te2  1  0.82417267  0.64837176  0.74997964  1
  Te  Te3  1  0.17584827  0.82414413  0.25000138  1
  Te  Te4  1  0.64837503  0.82418550  0.24997241  1
  Te  Te5  1  0.17582629  0.35162817  0.25001051  1
loop_
_geom_bond_atom_site_label_1
_geom_bond_atom_site_label_2
_geom_bond_distance
_geom_bond_site_symmetry_2
Pa0 Te5 3.347886 1_555
Pa0 Te3 3.347892 1_655
Pa0 Te3 3.347955 1_545
Pa0 Te4 3.347976 1_555
Pa0 Te4 3.348007 1_545
Pa0 Te5 3.348042 1_655
Pa0 Te0 3.438490 1_554
Pa0 Te1 3.438554 1_555
Pa0 Te2 3.438559 1_554
Pa0 Te0 3.438603 1_555
Pa0 Te2 3.438802 1_555
Pa0 Te1 3.438819 1_554
Pa1 Te1 3.347892 1_555
Pa1 Te0 3.347897 1_565
Pa1 Te2 3.347909 1_555
Pa1 Te0 3.347937 1_455
Pa1 Te2 3.348020 1_455
Pa1 Te1 3.348092 1_565
Pa1 Te3 3.438440 1_555
Pa1 Te3 3.438457 1_556
Pa1 Te5 3.438527 1_556
Pa1 Te4 3.438590 1_555
Pa1 Te4 3.438801 1_556
Pa1 Te5 3.438855 1_555
Te0 Te1 3.162440 1_555
Te0 Te2 3.162457 1_555
Te1 Te2 3.162479 1_555
Te3 Te4 3.162280 1_555
Te3 Te5 3.162299 1_555
Te4 Te5 3.162542 1_555
