# generated using pymatgen
data_Li2VO2F
_symmetry_space_group_name_H-M   'P 1'
_cell_length_a   5.17433549
_cell_length_b   5.17433549
_cell_length_c   9.49577210
_cell_angle_alpha   79.84598845
_cell_angle_beta   79.84598845
_cell_angle_gamma   109.86757847
_symmetry_Int_Tables_number   1
_chemical_formula_structural   Li2VO2F
_chemical_formula_sum   'Li8 V4 O8 F4'
_cell_volume   227.57007112
_cell_formula_units_Z   4
loop_
 _symmetry_equiv_pos_site_id
 _symmetry_equiv_pos_as_xyz
  1  'x, y, z'
loop_
 _atom_site_type_symbol
 _atom_site_label
 _atom_site_symmetry_multiplicity
 _atom_site_fract_x
 _atom_site_fract_y
 _atom_site_fract_z
 _atom_site_occupancy
  Li  Li0  1  0.89585100  0.64154000  0.72140100  1
  Li  Li1  1  0.64154000  0.89585100  0.22140100  1
  Li  Li2  1  0.93795100  0.21079800  0.60912400  1
  Li  Li3  1  0.79406100  0.04727400  0.91068400  1
  Li  Li4  1  0.21079800  0.93795100  0.10912400  1
  Li  Li5  1  0.04727400  0.79406100  0.41068400  1
  Li  Li6  1  0.36799800  0.13197100  0.73884200  1
  Li  Li7  1  0.13197100  0.36799800  0.23884200  1
  V  V0  1  0.28675200  0.53651700  0.91896300  1
  V  V1  1  0.45930400  0.70739900  0.59858000  1
  V  V2  1  0.53651700  0.28675200  0.41896300  1
  V  V3  1  0.70739900  0.45930400  0.09858000  1
  O  O0  1  0.61185300  0.85180800  0.75318700  1
  O  O1  1  0.23891600  0.95352000  0.57191000  1
  O  O2  1  0.68640600  0.46369600  0.57339600  1
  O  O3  1  0.85180800  0.61185300  0.25318700  1
  O  O4  1  0.13104200  0.38989500  0.75587500  1
  O  O5  1  0.95352000  0.23891600  0.07191000  1
  O  O6  1  0.46369600  0.68640600  0.07339600  1
  O  O7  1  0.38989500  0.13104200  0.25587500  1
  F  F0  1  0.53065200  0.28451700  0.92630800  1
  F  F1  1  0.04630400  0.79397300  0.92172900  1
  F  F2  1  0.28451700  0.53065200  0.42630800  1
  F  F3  1  0.79397300  0.04630400  0.42172900  1
loop_
_geom_bond_atom_site_label_1
_geom_bond_atom_site_label_2
_geom_bond_distance
_geom_bond_site_symmetry_2
Li0 O1 2.031732 1_655
Li0 O2 2.076464 1_555
Li0 O4 2.085861 1_655
Li0 O0 2.116690 1_555
Li1 O5 2.031732 1_565
Li1 O6 2.076464 1_555
Li1 O7 2.085861 1_565
Li1 O3 2.116690 1_555
Li2 O4 2.028747 1_655
Li2 O0 2.080566 1_545
Li2 O2 2.162965 1_555
Li2 O1 2.388133 1_645
Li3 O4 2.102505 1_655
Li3 O5 2.105350 1_556
Li3 O0 2.128584 1_545
Li3 O6 2.162865 1_546
Li4 O7 2.028747 1_565
Li4 O3 2.080566 1_455
Li4 O6 2.162965 1_555
Li4 O5 2.388133 1_465
Li5 O7 2.102505 1_565
Li5 O1 2.105350 1_555
Li5 O3 2.128584 1_455
Li5 O2 2.162865 1_455
Li6 O1 2.069202 1_545
Li6 O2 2.084042 1_555
Li6 O4 2.104510 1_555
Li6 O0 2.224054 1_545
Li7 O5 2.069202 1_455
Li7 O6 2.084042 1_555
Li7 O7 2.104510 1_555
Li7 O3 2.224054 1_455
O0 V1 1.931643 1_555
O0 V0 2.065139 1_555
O1 V1 1.990377 1_555
O1 V2 1.994346 1_565
O2 V2 1.995511 1_555
O2 V1 2.010621 1_555
O3 V3 1.931643 1_555
O3 V2 2.065139 1_555
O4 V0 2.015382 1_555
O4 V1 2.039268 1_555
O5 V3 1.990377 1_555
O5 V0 1.994346 1_654
O6 V0 1.995511 1_554
O6 V3 2.010621 1_555
O7 V2 2.015382 1_555
O7 V3 2.039268 1_555
F0 V0 2.101254 1_555
F0 Li3 2.125270 1_555
F0 V3 2.194841 1_556
F0 Li4 2.200134 1_546
F0 Li6 2.252197 1_555
F0 Li0 2.415155 1_555
F1 V0 2.109653 1_555
F1 Li3 2.143569 1_465
F1 V3 2.183192 1_456
F1 Li6 2.185532 1_565
F1 Li4 2.239731 1_556
F1 Li0 2.341071 1_455
F2 V2 2.101254 1_555
F2 Li5 2.125270 1_555
F2 V1 2.194841 1_555
F2 Li2 2.200134 1_455
F2 Li7 2.252197 1_555
F2 Li1 2.415155 1_555
F3 V2 2.109653 1_555
F3 Li5 2.143569 1_645
F3 V1 2.183192 1_545
F3 Li7 2.185532 1_655
F3 Li2 2.239731 1_555
F3 Li1 2.341071 1_545
