# generated using pymatgen
data_Rb2MgF4
_symmetry_space_group_name_H-M   'P 1'
_cell_length_a   4.04472504
_cell_length_b   4.04472499
_cell_length_c   7.45618010
_cell_angle_alpha   105.73766178
_cell_angle_beta   105.73766668
_cell_angle_gamma   90.00000111
_symmetry_Int_Tables_number   1
_chemical_formula_structural   Rb2MgF4
_chemical_formula_sum   'Rb2 Mg1 F4'
_cell_volume   112.65087158
_cell_formula_units_Z   1
loop_
 _symmetry_equiv_pos_site_id
 _symmetry_equiv_pos_as_xyz
  1  'x, y, z'
loop_
 _atom_site_type_symbol
 _atom_site_label
 _atom_site_symmetry_multiplicity
 _atom_site_fract_x
 _atom_site_fract_y
 _atom_site_fract_z
 _atom_site_occupancy
  Rb  Rb0  1  0.64917130  0.64917130  0.29834261  1
  Rb  Rb1  1  0.35082870  0.35082870  0.70165739  1
  Mg  Mg0  1  -0.00000000  0.00000000  -0.00000000  1
  F  F0  1  0.50000000  0.00000000  -0.00000000  1
  F  F1  1  -0.00000000  0.50000000  -0.00000000  1
  F  F2  1  0.85498207  0.85498207  0.70996615  1
  F  F3  1  0.14501793  0.14501793  0.29003385  1
loop_
_geom_bond_atom_site_label_1
_geom_bond_atom_site_label_2
_geom_bond_distance
_geom_bond_site_symmetry_2
F0 Mg0 2.022363 1_555
F0 Mg0 2.022363 1_655
F0 Rb1 2.882751 1_544
F0 Rb0 2.882751 1_555
F0 Rb1 2.882751 1_554
F0 Rb0 2.882751 1_545
F1 Mg0 2.022362 1_565
F1 Mg0 2.022362 1_555
F1 Rb1 2.882751 1_454
F1 Rb0 2.882751 1_555
F1 Rb1 2.882751 1_554
F1 Rb0 2.882751 1_455
F2 Mg0 1.997125 1_666
F2 Rb0 2.834371 1_555
F2 Rb1 2.860619 1_555
F2 Rb1 2.860625 1_565
F2 Rb1 2.860625 1_655
F2 Rb1 2.860630 1_665
F3 Mg0 1.997125 1_555
F3 Rb1 2.834371 1_555
F3 Rb0 2.860619 1_555
F3 Rb0 2.860625 1_545
F3 Rb0 2.860625 1_455
F3 Rb0 2.860630 1_445
