# generated using pymatgen
data_LiMn2(BO3)2
_symmetry_space_group_name_H-M   'P 1'
_cell_length_a   5.79139900
_cell_length_b   9.79512734
_cell_length_c   9.80610698
_cell_angle_alpha   65.28729442
_cell_angle_beta   80.13553271
_cell_angle_gamma   81.00673069
_symmetry_Int_Tables_number   1
_chemical_formula_structural   LiMn2(BO3)2
_chemical_formula_sum   'Li4 Mn8 B8 O24'
_cell_volume   495.62437204
_cell_formula_units_Z   4
loop_
 _symmetry_equiv_pos_site_id
 _symmetry_equiv_pos_as_xyz
  1  'x, y, z'
loop_
 _atom_site_type_symbol
 _atom_site_label
 _atom_site_symmetry_multiplicity
 _atom_site_fract_x
 _atom_site_fract_y
 _atom_site_fract_z
 _atom_site_occupancy
  Li  Li0  1  0.93798200  0.19768300  0.53737200  1
  Li  Li1  1  0.55996100  0.80526200  0.97470400  1
  Li  Li2  1  0.06074300  0.29909900  0.96902300  1
  Li  Li3  1  0.05798400  0.80597500  0.46848400  1
  Mn  Mn0  1  0.82707300  0.61329200  0.80995200  1
  Mn  Mn1  1  0.65696400  0.39386400  0.69215500  1
  Mn  Mn2  1  0.67063700  0.88145000  0.20060100  1
  Mn  Mn3  1  0.81739500  0.12386900  0.30711700  1
  Mn  Mn4  1  0.17936900  0.87212100  0.70593200  1
  Mn  Mn5  1  0.33661200  0.12003000  0.79936300  1
  Mn  Mn6  1  0.33966400  0.59999000  0.31841900  1
  Mn  Mn7  1  0.17897800  0.38685400  0.19104100  1
  B  B0  1  0.66978100  0.95162800  0.63557800  1
  B  B1  1  0.83619800  0.04524800  0.85978700  1
  B  B2  1  0.84514900  0.53531100  0.36923700  1
  B  B3  1  0.66711100  0.46239100  0.12677000  1
  B  B4  1  0.33282900  0.53843300  0.86614100  1
  B  B5  1  0.15585700  0.46283200  0.63564100  1
  B  B6  1  0.16428200  0.95752800  0.13255300  1
  B  B7  1  0.32489100  0.04681200  0.37071900  1
  O  O0  1  0.81589300  0.91282000  0.97954900  1
  O  O1  1  0.96962100  0.44004500  0.75365500  1
  O  O2  1  0.98019100  0.94211400  0.25251900  1
  O  O3  1  0.83993800  0.83280800  0.64579200  1
  O  O4  1  0.83953500  0.40214500  0.49059600  1
  O  O5  1  0.48757200  0.93325200  0.75609700  1
  O  O6  1  0.84037300  0.34295900  0.13744300  1
  O  O7  1  0.64990100  0.15934300  0.82142600  1
  O  O8  1  0.65122500  0.64482600  0.33711400  1
  O  O9  1  0.53670000  0.57646100  0.76220100  1
  O  O10  1  0.68687100  0.09065400  0.51803300  1
  O  O11  1  0.67323800  0.60077100  0.00783000  1
  O  O12  1  0.31820100  0.40100300  0.98020900  1
  O  O13  1  0.30559400  0.91111200  0.48641800  1
  O  O14  1  0.48475400  0.44242900  0.24383600  1
  O  O15  1  0.33273900  0.34626200  0.65729700  1
  O  O16  1  0.34013200  0.83859600  0.15113800  1
  O  O17  1  0.13955000  0.64792400  0.83589200  1
  O  O18  1  0.52937200  0.07598300  0.26601300  1
  O  O19  1  0.16632500  0.59823000  0.51235600  1
  O  O20  1  0.13183500  0.16136800  0.34491700  1
  O  O21  1  0.04144200  0.07434200  0.74969400  1
  O  O22  1  0.04883800  0.56769900  0.26376800  1
  O  O23  1  0.16839500  0.09118300  0.00688100  1
loop_
_geom_bond_atom_site_label_1
_geom_bond_atom_site_label_2
_geom_bond_distance
_geom_bond_site_symmetry_2
Li0 O4 1.873743 1_555
Li0 O10 1.996835 1_555
Li0 O21 2.061907 1_655
Li0 O20 2.158491 1_655
Li1 O11 1.914714 1_556
Li1 O0 1.965535 1_555
Li1 O5 2.058968 1_555
Li1 O16 2.075683 1_556
Li2 O23 1.929842 1_556
Li2 O12 1.960728 1_555
Li2 O6 2.059278 1_456
Li2 O1 2.088277 1_455
Li3 O19 1.918562 1_555
Li3 O13 1.961478 1_555
Li3 O3 2.052522 1_455
Li3 O2 2.060089 1_455
Mn0 O9 1.943743 1_555
Mn0 O11 1.953669 1_556
Mn0 O17 1.968887 1_655
Mn0 O1 2.013753 1_555
Mn0 O3 2.082085 1_555
Mn1 O4 2.051303 1_555
Mn1 O7 2.112426 1_555
Mn1 O15 2.118246 1_555
Mn1 O9 2.151672 1_555
Mn1 O1 2.169185 1_555
Mn2 O0 2.097602 1_554
Mn2 O8 2.147625 1_555
Mn2 O2 2.173697 1_555
Mn2 O16 2.194248 1_555
Mn2 O18 2.250863 1_565
Mn3 O18 1.948831 1_555
Mn3 O10 1.983316 1_555
Mn3 O20 2.035379 1_655
Mn3 O6 2.102222 1_555
Mn3 O2 2.108157 1_545
Mn4 O13 2.043175 1_555
Mn4 O17 2.053643 1_555
Mn4 O5 2.160504 1_555
Mn4 O21 2.200985 1_565
Mn4 O3 2.276868 1_455
Mn5 O7 1.977287 1_555
Mn5 O21 2.016535 1_555
Mn5 O23 2.023845 1_556
Mn5 O15 2.065364 1_555
Mn5 O5 2.076859 1_545
Mn6 O22 1.960009 1_555
Mn6 O8 1.977537 1_555
Mn6 O19 1.987118 1_555
Mn6 O14 1.987615 1_555
Mn6 O16 2.224425 1_555
Mn7 O12 2.041526 1_554
Mn7 O20 2.119047 1_555
Mn7 O14 2.133424 1_555
Mn7 O22 2.160844 1_555
Mn7 O6 2.261042 1_455
B0 O10 1.372388 1_565
B0 O3 1.383286 1_555
B0 O5 1.413101 1_555
B1 O0 1.342483 1_545
B1 O7 1.401830 1_555
B1 O21 1.438254 1_655
B2 O4 1.349362 1_555
B2 O8 1.404743 1_555
B2 O22 1.409428 1_655
B3 O11 1.370345 1_555
B3 O14 1.390280 1_555
B3 O6 1.397495 1_555
B4 O12 1.347085 1_555
B4 O17 1.401288 1_555
B4 O9 1.406903 1_555
B5 O19 1.372422 1_555
B5 O15 1.379978 1_555
B5 O1 1.408541 1_455
B6 O23 1.372547 1_565
B6 O16 1.393795 1_555
B6 O2 1.419666 1_455
B7 O13 1.344819 1_545
B7 O18 1.407887 1_555
B7 O20 1.428457 1_555
