# generated using pymatgen
data_NaLaTl2
_symmetry_space_group_name_H-M   'P 1'
_cell_length_a   5.45848251
_cell_length_b   5.45848251
_cell_length_c   5.45848251
_cell_angle_alpha   60.00000000
_cell_angle_beta   60.00000000
_cell_angle_gamma   60.00000000
_symmetry_Int_Tables_number   1
_chemical_formula_structural   NaLaTl2
_chemical_formula_sum   'Na1 La1 Tl2'
_cell_volume   115.00077634
_cell_formula_units_Z   1
loop_
 _symmetry_equiv_pos_site_id
 _symmetry_equiv_pos_as_xyz
  1  'x, y, z'
loop_
 _atom_site_type_symbol
 _atom_site_label
 _atom_site_symmetry_multiplicity
 _atom_site_fract_x
 _atom_site_fract_y
 _atom_site_fract_z
 _atom_site_occupancy
  Na  Na0  1  0.75000000  0.75000000  0.75000000  1
  La  La0  1  0.24999900  0.24999900  0.24999900  1
  Tl  Tl0  1  0.50000100  0.50000100  0.50000100  1
  Tl  Tl1  1  -0.00000000  -0.00000000  0.00000000  1
loop_
_geom_bond_atom_site_label_1
_geom_bond_atom_site_label_2
_geom_bond_distance
_geom_bond_site_symmetry_2
Na0 Tl0 3.342611 1_555
Na0 Tl1 3.342624 1_566
Na0 Tl1 3.342624 1_666
Na0 Tl1 3.342624 1_656
Na0 Tl1 3.342624 1_665
Na0 Tl0 3.342629 1_565
Na0 Tl0 3.342629 1_655
Na0 Tl0 3.342629 1_556
La0 Tl1 3.342611 1_555
La0 Tl0 3.342615 1_455
La0 Tl0 3.342615 1_545
La0 Tl0 3.342615 1_554
La0 Tl1 3.342629 1_556
La0 Tl1 3.342629 1_655
La0 Tl1 3.342629 1_565
La0 Tl0 3.342651 1_555
