# generated using pymatgen
data_V3Re
_symmetry_space_group_name_H-M   'P 1'
_cell_length_a   4.24468922
_cell_length_b   4.24468781
_cell_length_c   4.24468913
_cell_angle_alpha   60.00002072
_cell_angle_beta   60.00002237
_cell_angle_gamma   60.00002436
_symmetry_Int_Tables_number   1
_chemical_formula_structural   V3Re
_chemical_formula_sum   'V3 Re1'
_cell_volume   54.07826695
_cell_formula_units_Z   1
loop_
 _symmetry_equiv_pos_site_id
 _symmetry_equiv_pos_as_xyz
  1  'x, y, z'
loop_
 _atom_site_type_symbol
 _atom_site_label
 _atom_site_symmetry_multiplicity
 _atom_site_fract_x
 _atom_site_fract_y
 _atom_site_fract_z
 _atom_site_occupancy
  V  V0  1  -0.00000017  -0.00000009  0.00000013  1
  V  V1  1  0.50000085  0.50000078  0.50000054  1
  V  V2  1  0.25000003  0.25000001  0.25000004  1
  Re  Re0  1  0.74999929  0.74999929  0.74999929  1
loop_
_geom_bond_atom_site_label_1
_geom_bond_atom_site_label_2
_geom_bond_distance
_geom_bond_site_symmetry_2
V0 V2 2.599330 1_545
V0 V2 2.599331 1_555
V0 V2 2.599331 1_455
V0 V2 2.599332 1_554
V1 V2 2.599328 1_565
V1 V2 2.599329 1_655
V1 V2 2.599330 1_556
V1 V2 2.599337 1_555
Re0 V1 2.599315 1_555
Re0 V0 2.599328 1_665
Re0 V0 2.599328 1_656
Re0 V0 2.599330 1_566
Re0 V1 2.599336 1_556
Re0 V1 2.599336 1_565
Re0 V0 2.599337 1_666
Re0 V1 2.599337 1_655
