# generated using pymatgen
data_CaSnS3
_symmetry_space_group_name_H-M   'P 1'
_cell_length_a   7.18351293
_cell_length_b   16.57166939
_cell_length_c   27.93711153
_cell_angle_alpha   86.41423672
_cell_angle_beta   82.61327543
_cell_angle_gamma   77.48231940
_symmetry_Int_Tables_number   1
_chemical_formula_structural   CaSnS3
_chemical_formula_sum   'Ca24 Sn24 S72'
_cell_volume   3217.64693179
_cell_formula_units_Z   24
loop_
 _symmetry_equiv_pos_site_id
 _symmetry_equiv_pos_as_xyz
  1  'x, y, z'
loop_
 _atom_site_type_symbol
 _atom_site_label
 _atom_site_symmetry_multiplicity
 _atom_site_fract_x
 _atom_site_fract_y
 _atom_site_fract_z
 _atom_site_occupancy
  Ca  Ca0  1  0.50000000  0.50000000  0.00000000  1
  Ca  Ca1  1  0.00000000  0.00000000  0.50000000  1
  Ca  Ca2  1  0.93809963  0.75000000  0.25000000  1
  Ca  Ca3  1  0.06190037  0.25000000  0.75000000  1
  Ca  Ca4  1  0.24151314  0.47503574  0.45775059  1
  Ca  Ca5  1  0.17429948  0.02496426  0.04224941  1
  Ca  Ca6  1  0.75848686  0.52496426  0.54224941  1
  Ca  Ca7  1  0.82570052  0.97503574  0.95775059  1
  Ca  Ca8  1  0.46989559  0.14997533  0.42474571  1
  Ca  Ca9  1  0.04461664  0.35002467  0.07525429  1
  Ca  Ca10  1  0.53010441  0.85002467  0.57525429  1
  Ca  Ca11  1  0.95538336  0.64997533  0.92474571  1
  Ca  Ca12  1  0.37618190  0.56447228  0.31590718  1
  Ca  Ca13  1  0.25656136  0.93552772  0.18409282  1
  Ca  Ca14  1  0.62381810  0.43552772  0.68409282  1
  Ca  Ca15  1  0.74343864  0.06447228  0.81590718  1
  Ca  Ca16  1  0.50335744  0.85379927  0.87611834  1
  Ca  Ca17  1  0.23327505  0.64620073  0.62388166  1
  Ca  Ca18  1  0.49664256  0.14620073  0.12388166  1
  Ca  Ca19  1  0.76672495  0.35379927  0.37611834  1
  Ca  Ca20  1  0.39745352  0.95057560  0.72515645  1
  Ca  Ca21  1  0.07318557  0.54942440  0.77484355  1
  Ca  Ca22  1  0.60254648  0.04942440  0.27484355  1
  Ca  Ca23  1  0.92681443  0.45057560  0.22515645  1
  Sn  Sn0  1  0.43972726  0.29416866  0.28203520  1
  Sn  Sn1  1  0.01593113  0.20583134  0.21796480  1
  Sn  Sn2  1  0.56027274  0.70583134  0.71796480  1
  Sn  Sn3  1  0.98406887  0.79416866  0.78203520  1
  Sn  Sn4  1  0.58601402  0.56112000  0.86041733  1
  Sn  Sn5  1  0.00755135  0.93888000  0.63958267  1
  Sn  Sn6  1  0.41398598  0.43888000  0.13958267  1
  Sn  Sn7  1  0.99244865  0.06112000  0.36041733  1
  Sn  Sn8  1  0.23158159  0.12209162  0.88739479  1
  Sn  Sn9  1  0.24106799  0.37790838  0.61260521  1
  Sn  Sn10  1  0.76841841  0.87790838  0.11260521  1
  Sn  Sn11  1  0.75893201  0.62209162  0.38739479  1
  Sn  Sn12  1  0.63596301  0.86371923  0.40160634  1
  Sn  Sn13  1  0.90128858  0.63628077  0.09839366  1
  Sn  Sn14  1  0.36403699  0.13628077  0.59839366  1
  Sn  Sn15  1  0.09871142  0.36371923  0.90160634  1
  Sn  Sn16  1  0.27738810  0.74348880  0.01581855  1
  Sn  Sn17  1  0.03669545  0.75651120  0.48418145  1
  Sn  Sn18  1  0.72261190  0.25651120  0.98418145  1
  Sn  Sn19  1  0.96330455  0.24348880  0.51581855  1
  Sn  Sn20  1  0.61150754  0.34880992  0.82722563  1
  Sn  Sn21  1  0.78754309  0.15119008  0.67277437  1
  Sn  Sn22  1  0.38849246  0.65119008  0.17277437  1
  Sn  Sn23  1  0.21245691  0.84880992  0.32722563  1
  S  S0  1  0.30892508  0.33419050  0.40674270  1
  S  S1  1  0.04985828  0.16580950  0.09325730  1
  S  S2  1  0.69107492  0.66580950  0.59325730  1
  S  S3  1  0.95014172  0.83419050  0.90674270  1
  S  S4  1  0.59571884  0.40693264  0.29204974  1
  S  S5  1  0.29470121  0.09306736  0.20795026  1
  S  S6  1  0.40428116  0.59306736  0.70795026  1
  S  S7  1  0.70529879  0.90693264  0.79204974  1
  S  S8  1  0.06872249  0.41052150  0.31822598  1
  S  S9  1  0.79746997  0.08947850  0.18177402  1
  S  S10  1  0.93127751  0.58947850  0.68177402  1
  S  S11  1  0.20253003  0.91052150  0.81822598  1
  S  S12  1  0.56576051  0.63176238  0.94035427  1
  S  S13  1  0.13787715  0.86823762  0.55964573  1
  S  S14  1  0.43423949  0.36823762  0.05964573  1
  S  S15  1  0.86212285  0.13176238  0.44035427  1
  S  S16  1  0.15618774  0.67757300  0.82579012  1
  S  S17  1  0.65955085  0.82242700  0.67420988  1
  S  S18  1  0.84381226  0.32242700  0.17420988  1
  S  S19  1  0.34044915  0.17757300  0.32579012  1
  S  S20  1  0.72808588  0.69075893  0.79074002  1
  S  S21  1  0.20958483  0.80924107  0.70925998  1
  S  S22  1  0.27191412  0.30924107  0.20925998  1
  S  S23  1  0.79041517  0.19075893  0.29074002  1
  S  S24  1  0.39781106  0.14809247  0.78307821  1
  S  S25  1  0.32898174  0.35190753  0.71692179  1
  S  S26  1  0.60218894  0.85190753  0.21692179  1
  S  S27  1  0.67101826  0.64809247  0.28307821  1
  S  S28  1  0.06079443  0.00407983  0.86561539  1
  S  S29  1  0.93048965  0.49592017  0.63438461  1
  S  S30  1  0.93920557  0.99592017  0.13438461  1
  S  S31  1  0.06951035  0.50407983  0.36561539  1
  S  S32  1  0.66059504  0.01070839  0.37221737  1
  S  S33  1  0.04352080  0.48929161  0.12778263  1
  S  S34  1  0.33940496  0.98929161  0.62778263  1
  S  S35  1  0.95647920  0.51070839  0.87221737  1
  S  S36  1  0.73940116  0.88638040  0.48558681  1
  S  S37  1  0.11136837  0.61361960  0.01441319  1
  S  S38  1  0.26059884  0.11361960  0.51441319  1
  S  S39  1  0.88863163  0.38638040  0.98558681  1
  S  S40  1  0.22893699  0.91049614  0.40537954  1
  S  S41  1  0.54481268  0.58950385  0.09462046  1
  S  S42  1  0.77106301  0.08950386  0.59462046  1
  S  S43  1  0.45518732  0.41049615  0.90537954  1
  S  S44  1  0.00897590  0.88829051  0.03426599  1
  S  S45  1  0.93153240  0.61170949  0.46573401  1
  S  S46  1  0.99102410  0.11170949  0.96573401  1
  S  S47  1  0.06846760  0.38829051  0.53426599  1
  S  S48  1  0.22177490  0.76106060  0.92362111  1
  S  S49  1  0.90645662  0.73893940  0.57637889  1
  S  S50  1  0.77822510  0.23893940  0.07637889  1
  S  S51  1  0.09354338  0.26106060  0.42362111  1
  S  S52  1  0.72792140  0.80595075  0.95664897  1
  S  S53  1  0.49052112  0.69404925  0.54335103  1
  S  S54  1  0.27207860  0.19404925  0.04335103  1
  S  S55  1  0.50947888  0.30595075  0.45664897  1
  S  S56  1  0.82543395  0.21919914  0.84005102  1
  S  S57  1  0.88468412  0.28080086  0.65994898  1
  S  S58  1  0.17456605  0.78080086  0.15994898  1
  S  S59  1  0.11531588  0.71919914  0.34005102  1
  S  S60  1  0.29827465  0.38040566  0.79084077  1
  S  S61  1  0.46952108  0.11959434  0.70915923  1
  S  S62  1  0.70172535  0.61959434  0.20915923  1
  S  S63  1  0.53047892  0.88040566  0.29084077  1
  S  S64  1  0.81249291  0.41735192  0.77002530  1
  S  S65  1  -0.00012987  0.08264808  0.72997470  1
  S  S66  1  0.18750709  0.58264808  0.22997470  1
  S  S67  1  0.00012987  0.91735192  0.27002530  1
  S  S68  1  0.52198641  0.01162775  0.90576444  1
  S  S69  1  0.43937860  0.48837225  0.59423556  1
  S  S70  1  0.47801359  0.98837225  0.09423556  1
  S  S71  1  0.56062140  0.51162775  0.40576444  1
loop_
_geom_bond_atom_site_label_1
_geom_bond_atom_site_label_2
_geom_bond_distance
_geom_bond_site_symmetry_2
Ca0 S12 2.749033 1_554
Ca0 S14 2.749033 1_555
Ca0 S39 3.004719 1_554
Ca0 S37 3.004719 1_555
Ca0 S43 3.194916 1_554
Ca0 S41 3.194916 1_555
Ca1 S13 2.749033 1_545
Ca1 S15 2.749033 1_455
Ca1 S38 3.004719 1_555
Ca1 S36 3.004719 1_445
Ca1 S40 3.194916 1_545
Ca1 S42 3.194916 1_455
Ca2 S26 2.853124 1_555
Ca2 S27 2.853124 1_555
Ca2 S58 2.931115 1_655
Ca2 S59 2.931115 1_655
Ca2 S66 2.999431 1_655
Ca2 S67 2.999432 1_655
Ca3 S24 2.853124 1_555
Ca3 S25 2.853124 1_555
Ca3 S56 2.931115 1_455
Ca3 S57 2.931115 1_455
Ca3 S64 2.999431 1_455
Ca3 S65 2.999432 1_555
Ca4 S71 2.714420 1_555
Ca4 S0 2.731585 1_555
Ca4 S45 2.808426 1_455
Ca4 S47 2.808572 1_555
Ca4 S31 2.964587 1_555
Ca4 S55 3.035642 1_555
Ca5 S70 2.714420 1_545
Ca5 S1 2.731585 1_555
Ca5 S44 2.808426 1_545
Ca5 S46 2.808572 1_454
Ca5 S30 2.964587 1_445
Ca5 S54 3.035642 1_555
Ca6 S69 2.714420 1_555
Ca6 S2 2.731585 1_555
Ca6 S47 2.808426 1_655
Ca6 S45 2.808572 1_555
Ca6 S29 2.964587 1_555
Ca6 S53 3.035642 1_555
Ca7 S68 2.714420 1_565
Ca7 S3 2.731585 1_555
Ca7 S46 2.808426 1_565
Ca7 S44 2.808572 1_656
Ca7 S28 2.964587 1_665
Ca7 S52 3.035642 1_555
Ca8 S32 2.809398 1_555
Ca8 S38 2.852044 1_555
Ca8 S15 2.854954 1_555
Ca8 S55 2.868488 1_555
Ca8 S51 2.925081 1_555
Ca8 S19 3.005826 1_555
Ca8 S0 3.055596 1_555
Ca9 S33 2.809398 1_555
Ca9 S39 2.852045 1_454
Ca9 S14 2.854954 1_555
Ca9 S54 2.868488 1_555
Ca9 S50 2.925081 1_455
Ca9 S18 3.005826 1_455
Ca9 S1 3.055596 1_555
Ca10 S34 2.809398 1_555
Ca10 S36 2.852044 1_555
Ca10 S13 2.854954 1_555
Ca10 S53 2.868488 1_555
Ca10 S49 2.925081 1_555
Ca10 S17 3.005826 1_555
Ca10 S2 3.055596 1_555
Ca11 S35 2.809398 1_555
Ca11 S37 2.852045 1_656
Ca11 S12 2.854954 1_555
Ca11 S52 2.868488 1_555
Ca11 S48 2.925081 1_655
Ca11 S16 3.005826 1_655
Ca11 S3 3.055596 1_555
Ca12 S31 2.788989 1_555
Ca12 S27 2.803737 1_555
Ca12 S4 2.812417 1_555
Ca12 S66 2.874077 1_555
Ca12 S59 2.889565 1_555
Ca12 S71 2.983533 1_555
Ca13 S30 2.788988 1_455
Ca13 S26 2.803736 1_555
Ca13 S5 2.812417 1_565
Ca13 S67 2.874077 1_555
Ca13 S58 2.889566 1_555
Ca13 S70 2.983533 1_555
Ca14 S29 2.788989 1_555
Ca14 S25 2.803737 1_555
Ca14 S6 2.812417 1_555
Ca14 S64 2.874077 1_555
Ca14 S57 2.889565 1_555
Ca14 S69 2.983533 1_555
Ca15 S28 2.788988 1_655
Ca15 S24 2.803736 1_555
Ca15 S7 2.812417 1_545
Ca15 S65 2.874077 1_655
Ca15 S56 2.889566 1_555
Ca15 S68 2.983533 1_555
Ca16 S7 2.795481 1_555
Ca16 S68 2.827683 1_565
Ca16 S11 2.827947 1_555
Ca16 S52 2.906573 1_555
Ca16 S48 2.935428 1_555
Ca16 S3 3.370093 1_555
Ca17 S6 2.795481 1_555
Ca17 S69 2.827683 1_555
Ca17 S10 2.827947 1_455
Ca17 S53 2.906573 1_555
Ca17 S49 2.935428 1_455
Ca17 S2 3.370093 1_555
Ca18 S5 2.795481 1_555
Ca18 S70 2.827683 1_545
Ca18 S9 2.827947 1_555
Ca18 S54 2.906573 1_555
Ca18 S50 2.935428 1_555
Ca18 S1 3.370093 1_555
Ca19 S4 2.795481 1_555
Ca19 S71 2.827683 1_555
Ca19 S8 2.827947 1_655
Ca19 S55 2.906573 1_555
Ca19 S51 2.935428 1_655
Ca19 S0 3.370093 1_555
Ca20 S34 2.818364 1_555
Ca20 S17 2.834836 1_555
Ca20 S11 2.900446 1_555
Ca20 S61 2.953880 1_565
Ca20 S7 3.017636 1_555
Ca20 S21 3.026316 1_555
Ca20 S65 3.192756 1_565
Ca21 S35 2.818364 1_455
Ca21 S16 2.834836 1_555
Ca21 S10 2.900446 1_455
Ca21 S60 2.953880 1_555
Ca21 S6 3.017636 1_555
Ca21 S20 3.026315 1_455
Ca21 S64 3.192757 1_455
Ca22 S32 2.818364 1_555
Ca22 S19 2.834836 1_555
Ca22 S9 2.900446 1_555
Ca22 S63 2.953880 1_545
Ca22 S5 3.017636 1_555
Ca22 S23 3.026316 1_555
Ca22 S67 3.192756 1_645
Ca23 S33 2.818364 1_655
Ca23 S18 2.834836 1_555
Ca23 S8 2.900446 1_655
Ca23 S62 2.953880 1_555
Ca23 S4 3.017636 1_555
Ca23 S22 3.026315 1_655
Ca23 S66 3.192757 1_655
S0 S55 2.093103 1_555
S0 S51 2.153728 1_555
S1 S54 2.093103 1_555
S1 S50 2.153728 1_455
S2 S53 2.093103 1_555
S2 S49 2.153728 1_555
S3 S52 2.093103 1_555
S3 S48 2.153728 1_655
S4 Sn0 2.424800 1_555
S5 Sn1 2.424800 1_555
S6 Sn2 2.424800 1_555
S7 Sn3 2.424800 1_555
S8 Sn0 3.027594 1_555
S9 Sn1 3.027595 1_655
S10 S29 2.102162 1_555
S10 Sn2 3.027594 1_555
S11 S28 2.102162 1_565
S11 Sn3 3.027595 1_455
S12 Sn4 2.558998 1_555
S13 Sn5 2.558998 1_555
S14 Sn6 2.558998 1_555
S15 Sn7 2.558998 1_555
S16 Sn3 2.411203 1_455
S17 Sn2 2.411203 1_555
S18 Sn1 2.411203 1_655
S19 Sn0 2.411203 1_555
S20 Sn2 2.466854 1_555
S20 Sn3 2.752468 1_555
S20 Sn4 3.059836 1_555
S21 Sn3 2.466854 1_455
S21 Sn2 2.752468 1_555
S21 Sn5 3.059836 1_555
S22 Sn0 2.466854 1_555
S22 Sn1 2.752468 1_555
S22 Sn6 3.059836 1_555
S23 Sn1 2.466854 1_655
S23 Sn0 2.752468 1_555
S23 Sn7 3.059836 1_555
S24 S61 2.120368 1_555
S24 Sn8 3.045631 1_555
S25 S60 2.120368 1_555
S25 Sn9 3.045631 1_555
S26 S63 2.120368 1_555
S26 Sn10 3.045631 1_555
S27 S62 2.120368 1_555
S27 Sn11 3.045631 1_555
S28 Sn8 2.660976 1_555
S29 Sn9 2.660976 1_655
S30 S9 2.102162 1_565
S30 Sn10 2.660976 1_555
S31 S8 2.102162 1_555
S31 Sn11 2.660976 1_455
S32 Sn12 2.556977 1_545
S32 Sn7 2.667620 1_555
S33 Sn13 2.556977 1_455
S33 Sn6 2.667619 1_555
S34 Sn14 2.556977 1_565
S34 Sn5 2.667620 1_555
S35 Sn15 2.556977 1_655
S35 Sn4 2.667619 1_555
S36 Sn12 2.622422 1_555
S36 Sn17 2.681568 1_655
S37 Sn13 2.622422 1_455
S37 Sn16 2.681568 1_555
S38 Sn14 2.622422 1_555
S38 Sn19 2.681568 1_455
S39 Sn15 2.622422 1_655
S39 Sn18 2.681568 1_555
S40 Sn23 2.494858 1_555
S40 Sn12 2.847725 1_555
S40 Sn7 3.002105 1_465
S41 Sn22 2.494858 1_555
S41 Sn13 2.847725 1_555
S41 Sn6 3.002105 1_555
S42 Sn21 2.494858 1_555
S42 Sn14 2.847725 1_555
S42 Sn5 3.002105 1_645
S43 Sn20 2.494858 1_555
S43 Sn15 2.847725 1_555
S43 Sn4 3.002105 1_555
S44 Sn10 2.629622 1_455
S44 Sn16 2.763150 1_555
S45 Sn11 2.629622 1_555
S45 Sn17 2.763150 1_655
S46 Sn8 2.629622 1_655
S46 Sn18 2.763150 1_555
S47 Sn9 2.629622 1_555
S47 Sn19 2.763150 1_455
S48 Sn16 2.645585 1_556
S49 Sn17 2.645585 1_655
S50 Sn18 2.645585 1_554
S51 Sn19 2.645585 1_455
S56 Sn20 2.391194 1_555
S57 Sn21 2.391195 1_555
S58 Sn22 2.391194 1_555
S59 Sn23 2.391195 1_555
S60 Sn20 2.526112 1_555
S61 Sn21 2.526112 1_555
S62 Sn22 2.526112 1_555
S63 Sn23 2.526112 1_555
S64 Sn20 2.412240 1_555
S65 Sn21 2.412239 1_455
S66 Sn22 2.412240 1_555
S67 Sn23 2.412239 1_555
S68 Sn8 2.543359 1_555
S69 Sn9 2.543359 1_555
S70 Sn10 2.543359 1_555
S71 Sn11 2.543359 1_555
