# generated using pymatgen
data_Cr3(CoO6)2
_symmetry_space_group_name_H-M   'P 1'
_cell_length_a   9.01564900
_cell_length_b   8.75445200
_cell_length_c   15.13154345
_cell_angle_alpha   55.30630418
_cell_angle_beta   90.00000000
_cell_angle_gamma   90.00000000
_symmetry_Int_Tables_number   1
_chemical_formula_structural   Cr3(CoO6)2
_chemical_formula_sum   'Cr12 Co8 O48'
_cell_volume   981.95183865
_cell_formula_units_Z   4
loop_
 _symmetry_equiv_pos_site_id
 _symmetry_equiv_pos_as_xyz
  1  'x, y, z'
loop_
 _atom_site_type_symbol
 _atom_site_label
 _atom_site_symmetry_multiplicity
 _atom_site_fract_x
 _atom_site_fract_y
 _atom_site_fract_z
 _atom_site_occupancy
  Cr  Cr0  1  0.75339800  0.54888500  0.49151600  1
  Cr  Cr1  1  0.62321800  0.25777100  0.85236200  1
  Cr  Cr2  1  0.88443500  0.97348800  0.14160200  1
  Cr  Cr3  1  0.12321800  0.74222900  0.64763800  1
  Cr  Cr4  1  0.38443500  0.02651200  0.35839800  1
  Cr  Cr5  1  0.25339800  0.45111500  0.00848400  1
  Cr  Cr6  1  0.74660200  0.54888500  0.99151600  1
  Cr  Cr7  1  0.61556500  0.97348800  0.64160200  1
  Cr  Cr8  1  0.87678200  0.25777100  0.35236200  1
  Cr  Cr9  1  0.11556500  0.02651200  0.85839800  1
  Cr  Cr10  1  0.37678200  0.74222900  0.14763800  1
  Cr  Cr11  1  0.24660200  0.45111500  0.50848400  1
  Co  Co0  1  0.97460300  0.36398700  0.88525300  1
  Co  Co1  1  0.47460300  0.63601300  0.61474700  1
  Co  Co2  1  0.03128800  0.87535900  0.37975500  1
  Co  Co3  1  0.53128800  0.12464100  0.12024500  1
  Co  Co4  1  0.46871200  0.87535900  0.87975500  1
  Co  Co5  1  0.96871200  0.12464100  0.62024500  1
  Co  Co6  1  0.52539700  0.36398700  0.38525300  1
  Co  Co7  1  0.02539700  0.63601300  0.11474700  1
  O  O0  1  0.12793600  0.62439500  0.44273400  1
  O  O1  1  0.11342700  0.16475300  0.90059600  1
  O  O2  1  0.33010200  0.45550600  0.60426500  1
  O  O3  1  0.42169000  0.88199800  0.18452500  1
  O  O4  1  0.62982000  0.52955900  0.58126500  1
  O  O5  1  0.81198200  0.28958000  0.84315400  1
  O  O6  1  0.57481500  0.16020600  0.97858500  1
  O  O7  1  0.99715300  0.88657900  0.24575700  1
  O  O8  1  0.70991500  0.99200200  0.17728400  1
  O  O9  1  0.84480300  0.75202300  0.43561800  1
  O  O10  1  0.53680300  0.45915100  0.77353400  1
  O  O11  1  0.03680300  0.54084900  0.72646600  1
  O  O12  1  0.93842100  0.18625200  0.04421300  1
  O  O13  1  0.43842100  0.81374800  0.45578700  1
  O  O14  1  0.34480300  0.24797700  0.06438200  1
  O  O15  1  0.20991500  0.00799800  0.32271600  1
  O  O16  1  0.07481500  0.83979400  0.52141500  1
  O  O17  1  0.49715300  0.11342100  0.25424300  1
  O  O18  1  0.31198200  0.71042000  0.65684600  1
  O  O19  1  0.12982000  0.47044100  0.91873500  1
  O  O20  1  0.83010200  0.54449400  0.89573500  1
  O  O21  1  0.61342700  0.83524700  0.59940400  1
  O  O22  1  0.92169000  0.11800200  0.31547500  1
  O  O23  1  0.62793600  0.37560500  0.05726600  1
  O  O24  1  0.37206400  0.62439500  0.94273400  1
  O  O25  1  0.07831000  0.88199800  0.68452500  1
  O  O26  1  0.38657300  0.16475300  0.40059600  1
  O  O27  1  0.16989800  0.45550600  0.10426500  1
  O  O28  1  0.87018000  0.52955900  0.08126500  1
  O  O29  1  0.68801800  0.28958000  0.34315400  1
  O  O30  1  0.50284700  0.88657900  0.74575700  1
  O  O31  1  0.92518500  0.16020600  0.47858500  1
  O  O32  1  0.79008500  0.99200200  0.67728400  1
  O  O33  1  0.65519700  0.75202300  0.93561800  1
  O  O34  1  0.56157900  0.18625200  0.54421300  1
  O  O35  1  0.06157900  0.81374800  0.95578700  1
  O  O36  1  0.96319700  0.45915100  0.27353400  1
  O  O37  1  0.46319700  0.54084900  0.22646600  1
  O  O38  1  0.15519700  0.24797700  0.56438200  1
  O  O39  1  0.29008500  0.00799800  0.82271600  1
  O  O40  1  0.00284700  0.11342100  0.75424300  1
  O  O41  1  0.42518500  0.83979400  0.02141500  1
  O  O42  1  0.18801800  0.71042000  0.15684600  1
  O  O43  1  0.37018000  0.47044100  0.41873500  1
  O  O44  1  0.57831000  0.11800200  0.81547500  1
  O  O45  1  0.66989800  0.54449400  0.39573500  1
  O  O46  1  0.88657300  0.83524700  0.09940400  1
  O  O47  1  0.87206400  0.37560500  0.55726600  1
loop_
_geom_bond_atom_site_label_1
_geom_bond_atom_site_label_2
_geom_bond_distance
_geom_bond_site_symmetry_2
Cr0 O47 1.648493 1_555
Cr0 O45 1.652916 1_555
Cr0 O9 1.686642 1_555
Cr0 O4 1.688976 1_555
Cr1 O6 1.646447 1_555
Cr1 O10 1.656487 1_555
Cr1 O44 1.658352 1_555
Cr1 O5 1.717270 1_555
Cr2 O7 1.652397 1_555
Cr2 O46 1.659038 1_555
Cr2 O12 1.659288 1_565
Cr2 O8 1.700891 1_555
Cr3 O16 1.646447 1_555
Cr3 O11 1.656487 1_555
Cr3 O25 1.658352 1_555
Cr3 O18 1.717270 1_555
Cr4 O17 1.652397 1_555
Cr4 O26 1.659038 1_555
Cr4 O13 1.659288 1_545
Cr4 O15 1.700891 1_555
Cr5 O24 1.648493 1_554
Cr5 O27 1.652916 1_555
Cr5 O14 1.686642 1_555
Cr5 O19 1.688976 1_554
Cr6 O23 1.648493 1_556
Cr6 O20 1.652916 1_555
Cr6 O33 1.686642 1_555
Cr6 O28 1.688976 1_556
Cr7 O30 1.652397 1_555
Cr7 O21 1.659038 1_555
Cr7 O34 1.659288 1_565
Cr7 O32 1.700891 1_555
Cr8 O31 1.646447 1_555
Cr8 O36 1.656487 1_555
Cr8 O22 1.658352 1_555
Cr8 O29 1.717270 1_555
Cr9 O40 1.652397 1_555
Cr9 O1 1.659038 1_555
Cr9 O35 1.659288 1_545
Cr9 O39 1.700891 1_555
Cr10 O41 1.646447 1_555
Cr10 O37 1.656487 1_555
Cr10 O3 1.658352 1_555
Cr10 O42 1.717270 1_555
Cr11 O0 1.648493 1_555
Cr11 O2 1.652916 1_555
Cr11 O38 1.686642 1_555
Cr11 O43 1.688976 1_555
Co0 O5 1.857964 1_555
Co0 O19 1.902883 1_655
Co0 O12 2.013079 1_556
Co0 O1 2.049776 1_655
Co0 O11 2.061498 1_655
Co0 O20 2.122463 1_555
Co1 O18 1.857964 1_555
Co1 O4 1.902883 1_555
Co1 O13 2.013079 1_555
Co1 O21 2.049776 1_555
Co1 O10 2.061498 1_555
Co1 O2 2.122463 1_555
Co2 O15 1.883054 1_565
Co2 O9 1.915223 1_455
Co2 O7 1.997194 1_455
Co2 O22 2.020550 1_465
Co2 O16 2.021368 1_555
Co2 O0 2.027556 1_555
Co3 O8 1.883054 1_545
Co3 O14 1.915223 1_555
Co3 O17 1.997194 1_555
Co3 O3 2.020550 1_545
Co3 O6 2.021368 1_554
Co3 O23 2.027556 1_555
Co4 O39 1.883054 1_565
Co4 O33 1.915223 1_555
Co4 O30 1.997194 1_555
Co4 O44 2.020550 1_565
Co4 O41 2.021368 1_556
Co4 O24 2.027556 1_555
Co5 O32 1.883054 1_545
Co5 O38 1.915223 1_655
Co5 O40 1.997194 1_655
Co5 O25 2.020550 1_645
Co5 O31 2.021368 1_555
Co5 O47 2.027556 1_555
Co6 O29 1.857964 1_555
Co6 O43 1.902883 1_555
Co6 O34 2.013079 1_555
Co6 O26 2.049776 1_555
Co6 O37 2.061498 1_555
Co6 O45 2.122463 1_555
Co7 O42 1.857964 1_555
Co7 O28 1.902883 1_455
Co7 O35 2.013079 1_554
Co7 O46 2.049776 1_455
Co7 O36 2.061498 1_455
Co7 O27 2.122463 1_555
