# generated using pymatgen
data_Ti2NiMo
_symmetry_space_group_name_H-M   'P 1'
_cell_length_a   4.33548053
_cell_length_b   4.33547691
_cell_length_c   4.33547691
_cell_angle_alpha   59.99998889
_cell_angle_beta   59.99997238
_cell_angle_gamma   60.00001651
_symmetry_Int_Tables_number   1
_chemical_formula_structural   Ti2NiMo
_chemical_formula_sum   'Ti2 Ni1 Mo1'
_cell_volume   57.62300776
_cell_formula_units_Z   1
loop_
 _symmetry_equiv_pos_site_id
 _symmetry_equiv_pos_as_xyz
  1  'x, y, z'
loop_
 _atom_site_type_symbol
 _atom_site_label
 _atom_site_symmetry_multiplicity
 _atom_site_fract_x
 _atom_site_fract_y
 _atom_site_fract_z
 _atom_site_occupancy
  Ti  Ti0  1  -0.00000000  0.00000000  0.00000000  1
  Ti  Ti1  1  0.50000000  0.50000000  0.50000000  1
  Ni  Ni0  1  0.75000100  0.75000100  0.75000100  1
  Mo  Mo0  1  0.25000100  0.25000100  0.25000100  1
loop_
_geom_bond_atom_site_label_1
_geom_bond_atom_site_label_2
_geom_bond_distance
_geom_bond_site_symmetry_2
Ni0 Ti0 2.654917 1_666
Ni0 Ti1 2.654922 1_556
Ni0 Ti1 2.654923 1_565
Ni0 Ti1 2.654925 1_655
Ni0 Ti0 2.654929 1_665
Ni0 Ti0 2.654930 1_656
Ni0 Ti0 2.654932 1_566
Ni0 Ti1 2.654938 1_555
Mo0 Ti1 2.654917 1_555
Mo0 Ti0 2.654922 1_556
Mo0 Ti0 2.654923 1_565
Mo0 Ti0 2.654925 1_655
Mo0 Ti1 2.654929 1_554
Mo0 Ti1 2.654930 1_545
Mo0 Ti1 2.654932 1_455
Mo0 Ti0 2.654938 1_555
