# generated using pymatgen
data_La2TlCd
_symmetry_space_group_name_H-M   'P 1'
_cell_length_a   5.59271286
_cell_length_b   5.59271286
_cell_length_c   5.59271286
_cell_angle_alpha   60.00000000
_cell_angle_beta   60.00000000
_cell_angle_gamma   60.00000000
_symmetry_Int_Tables_number   1
_chemical_formula_structural   La2TlCd
_chemical_formula_sum   'La2 Tl1 Cd1'
_cell_volume   123.69512106
_cell_formula_units_Z   1
loop_
 _symmetry_equiv_pos_site_id
 _symmetry_equiv_pos_as_xyz
  1  'x, y, z'
loop_
 _atom_site_type_symbol
 _atom_site_label
 _atom_site_symmetry_multiplicity
 _atom_site_fract_x
 _atom_site_fract_y
 _atom_site_fract_z
 _atom_site_occupancy
  La  La0  1  0.00000000  -0.00000000  -0.00000000  1
  La  La1  1  0.50000100  0.50000100  0.50000100  1
  Tl  Tl0  1  0.75000000  0.75000000  0.75000000  1
  Cd  Cd0  1  0.24999900  0.24999900  0.24999900  1
loop_
_geom_bond_atom_site_label_1
_geom_bond_atom_site_label_2
_geom_bond_distance
_geom_bond_site_symmetry_2
La0 Tl0 3.424823 1_544
La0 Tl0 3.424823 1_454
La0 Tl0 3.424823 1_445
La0 Tl0 3.424823 1_444
La1 Tl0 3.424809 1_555
La1 Tl0 3.424828 1_554
La1 Tl0 3.424828 1_455
La1 Tl0 3.424828 1_545
Cd0 La0 3.424809 1_555
Cd0 La1 3.424814 1_455
Cd0 La1 3.424814 1_545
Cd0 La1 3.424814 1_554
Cd0 La0 3.424828 1_556
Cd0 La0 3.424828 1_565
Cd0 La0 3.424828 1_655
Cd0 La1 3.424851 1_555
