# generated using pymatgen
data_LiCrSiO4
_symmetry_space_group_name_H-M   'P 1'
_cell_length_a   4.73463300
_cell_length_b   6.14987200
_cell_length_c   10.27605400
_cell_angle_alpha   90.00000000
_cell_angle_beta   90.00001768
_cell_angle_gamma   89.99996927
_symmetry_Int_Tables_number   1
_chemical_formula_structural   LiCrSiO4
_chemical_formula_sum   'Li4 Cr4 Si4 O16'
_cell_volume   299.21184030
_cell_formula_units_Z   4
loop_
 _symmetry_equiv_pos_site_id
 _symmetry_equiv_pos_as_xyz
  1  'x, y, z'
loop_
 _atom_site_type_symbol
 _atom_site_label
 _atom_site_symmetry_multiplicity
 _atom_site_fract_x
 _atom_site_fract_y
 _atom_site_fract_z
 _atom_site_occupancy
  Li  Li0  1  0.01772300  0.00535600  0.21532300  1
  Li  Li1  1  0.48227700  0.00535600  0.71532400  1
  Li  Li2  1  0.51772300  0.50535600  0.28467000  1
  Li  Li3  1  0.98227700  0.50535600  0.78467100  1
  Cr  Cr0  1  0.00005100  0.25670300  0.50007600  1
  Cr  Cr1  1  0.50005000  0.25669300  0.00000800  1
  Cr  Cr2  1  0.49998200  0.75676900  0.99997000  1
  Cr  Cr3  1  0.99992100  0.75667800  0.50002400  1
  Si  Si0  1  0.08090800  0.50666600  0.09049700  1
  Si  Si1  1  0.41909500  0.50666900  0.59049700  1
  Si  Si2  1  0.58090800  0.00666900  0.40949500  1
  Si  Si3  1  0.91909600  0.00666600  0.90949500  1
  O  O0  1  0.25038900  0.50647800  0.94303700  1
  O  O1  1  0.22178700  0.28473400  0.15002000  1
  O  O2  1  0.22126600  0.72908800  0.14952500  1
  O  O3  1  0.23421700  0.00666500  0.41938200  1
  O  O4  1  0.26577600  0.00666900  0.91937700  1
  O  O5  1  0.27873500  0.72908400  0.64952800  1
  O  O6  1  0.27821700  0.28473500  0.65002400  1
  O  O7  1  0.24961100  0.50647600  0.44304100  1
  O  O8  1  0.75038700  0.00647600  0.55695800  1
  O  O9  1  0.72178400  0.78473300  0.34997400  1
  O  O10  1  0.72126900  0.22908700  0.35047000  1
  O  O11  1  0.73421600  0.50667000  0.08061100  1
  O  O12  1  0.76577800  0.50666400  0.58061600  1
  O  O13  1  0.77873400  0.22908500  0.85046500  1
  O  O14  1  0.77821300  0.78473600  0.84997000  1
  O  O15  1  0.74961300  0.00647700  0.05695200  1
loop_
_geom_bond_atom_site_label_1
_geom_bond_atom_site_label_2
_geom_bond_distance
_geom_bond_site_symmetry_2
Li0 O15 2.063966 1_455
Li0 O2 2.067011 1_545
Li0 O1 2.082259 1_555
Li0 O3 2.334054 1_555
Li0 O9 2.391390 1_445
Li0 O10 2.406646 1_455
Li1 O8 2.063926 1_555
Li1 O5 2.067023 1_545
Li1 O6 2.082244 1_555
Li1 O4 2.334014 1_555
Li1 O14 2.391340 1_545
Li1 O13 2.406612 1_555
Li2 O7 2.063972 1_555
Li2 O10 2.067029 1_555
Li2 O9 2.082250 1_555
Li2 O11 2.334053 1_555
Li2 O1 2.391372 1_555
Li2 O2 2.406646 1_555
Li3 O0 2.063931 1_655
Li3 O13 2.067013 1_555
Li3 O14 2.082255 1_555
Li3 O12 2.334027 1_555
Li3 O6 2.391361 1_655
Li3 O5 2.406624 1_655
Cr0 O7 2.024635 1_555
Cr0 O8 2.026587 1_455
Cr0 O10 2.033355 1_455
Cr0 O6 2.034339 1_555
Cr0 O12 2.068421 1_455
Cr0 O3 2.069135 1_555
Cr1 O0 2.024778 1_554
Cr1 O15 2.026439 1_555
Cr1 O13 2.032561 1_554
Cr1 O1 2.035140 1_555
Cr1 O11 2.068482 1_555
Cr1 O4 2.069086 1_554
Cr2 O15 2.024370 1_566
Cr2 O0 2.026841 1_555
Cr2 O2 2.032790 1_556
Cr2 O14 2.034910 1_555
Cr2 O4 2.068189 1_565
Cr2 O11 2.069367 1_556
Cr3 O8 2.024378 1_565
Cr3 O7 2.026841 1_655
Cr3 O5 2.032650 1_655
Cr3 O9 2.035056 1_555
Cr3 O12 2.068548 1_555
Cr3 O3 2.069018 1_665
O0 Si0 1.714658 1_556
O1 Si0 1.637637 1_555
O2 Si0 1.637257 1_555
O3 Si2 1.644596 1_555
O4 Si3 1.644541 1_455
O5 Si1 1.637236 1_555
O6 Si1 1.637662 1_555
O7 Si1 1.714628 1_555
O8 Si2 1.714680 1_555
O9 Si2 1.637645 1_565
O10 Si2 1.637231 1_555
O11 Si0 1.644600 1_655
O12 Si1 1.644554 1_555
O13 Si3 1.637257 1_555
O14 Si3 1.637643 1_565
O15 Si3 1.714635 1_554
