# generated using pymatgen
data_TaZn2
_symmetry_space_group_name_H-M   'P 1'
_cell_length_a   5.00042705
_cell_length_b   5.00041669
_cell_length_c   16.18948782
_cell_angle_alpha   90.00014386
_cell_angle_beta   89.99986153
_cell_angle_gamma   119.99977386
_symmetry_Int_Tables_number   1
_chemical_formula_structural   TaZn2
_chemical_formula_sum   'Ta8 Zn16'
_cell_volume   350.57264314
_cell_formula_units_Z   8
loop_
 _symmetry_equiv_pos_site_id
 _symmetry_equiv_pos_as_xyz
  1  'x, y, z'
loop_
 _atom_site_type_symbol
 _atom_site_label
 _atom_site_symmetry_multiplicity
 _atom_site_fract_x
 _atom_site_fract_y
 _atom_site_fract_z
 _atom_site_occupancy
  Ta  Ta0  1  0.00000070  0.99999903  0.09127285  1
  Ta  Ta1  1  0.99997523  0.00001750  0.59149747  1
  Ta  Ta2  1  0.99998122  0.00001206  0.90861962  1
  Ta  Ta3  1  0.00000700  0.99998767  0.40862350  1
  Ta  Ta4  1  0.33331141  0.66667476  0.84358523  1
  Ta  Ta5  1  0.66667626  0.33331855  0.34354497  1
  Ta  Ta6  1  0.66668273  0.33330718  0.15631547  1
  Ta  Ta7  1  0.33329270  0.66669126  0.65652924  1
  Zn  Zn0  1  0.16076232  0.32154656  0.24989980  1
  Zn  Zn1  1  0.83913196  0.67848157  0.75012678  1
  Zn  Zn2  1  0.67844039  0.83914065  0.24990077  1
  Zn  Zn3  1  0.16085038  0.83922321  0.24989993  1
  Zn  Zn4  1  0.83923611  0.16085326  0.75012898  1
  Zn  Zn5  1  0.32150630  0.16074821  0.75013069  1
  Zn  Zn6  1  0.49998696  0.99997983  0.99987163  1
  Zn  Zn7  1  0.49998895  -0.00000066  0.50010423  1
  Zn  Zn8  1  0.00001579  0.50000708  0.99987405  1
  Zn  Zn9  1  0.49998932  0.50000798  0.99987207  1
  Zn  Zn10  1  0.49999728  0.50000827  0.50010529  1
  Zn  Zn11  1  -0.00000398  0.49999844  0.50010439  1
  Zn  Zn12  1  0.33334736  0.66664587  0.12672124  1
  Zn  Zn13  1  0.66663682  0.33335154  0.62698781  1
  Zn  Zn14  1  0.66664243  0.33335571  0.87312282  1
  Zn  Zn15  1  0.33334536  0.66664447  0.37316118  1
loop_
_geom_bond_atom_site_label_1
_geom_bond_atom_site_label_2
_geom_bond_distance
_geom_bond_site_symmetry_2
Ta0 Zn8 2.905258 1_554
Ta0 Zn6 2.905267 1_554
Ta0 Zn8 2.905268 1_564
Ta0 Zn9 2.905284 1_564
Ta0 Zn9 2.905294 1_454
Ta0 Zn6 2.905308 1_454
Ta0 Zn0 2.921304 1_565
Ta0 Zn2 2.921346 1_455
Ta0 Zn3 2.921471 1_555
Ta0 Zn12 2.943401 1_565
Ta0 Zn12 2.943435 1_455
Ta0 Zn12 2.943622 1_555
Ta0 Ta2 2.957062 1_464
Ta0 Ta6 3.072867 1_465
Ta0 Ta6 3.073111 1_565
Ta0 Ta6 3.073145 1_455
Ta1 Zn11 2.905092 1_655
Ta1 Zn7 2.905127 1_555
Ta1 Zn10 2.905190 1_545
Ta1 Zn10 2.905246 1_655
Ta1 Zn7 2.905317 1_655
Ta1 Zn11 2.905339 1_645
Ta1 Zn1 2.921318 1_545
Ta1 Zn5 2.921364 1_655
Ta1 Zn4 2.921422 1_555
Ta1 Zn13 2.943604 1_655
Ta1 Zn13 2.943617 1_545
Ta1 Zn13 2.943635 1_555
Ta1 Ta3 2.960636 1_645
Ta1 Ta7 3.072884 1_645
Ta1 Ta7 3.073009 1_655
Ta1 Ta7 3.073050 1_545
Ta2 Zn6 2.903961 1_545
Ta2 Zn8 2.903974 1_655
Ta2 Zn9 2.904058 1_545
Ta2 Zn9 2.904075 1_655
Ta2 Zn6 2.904155 1_645
Ta2 Zn8 2.904172 1_645
Ta2 Zn5 2.919295 1_655
Ta2 Zn1 2.919361 1_545
Ta2 Zn4 2.919448 1_555
Ta2 Zn14 2.943595 1_545
Ta2 Zn14 2.943621 1_655
Ta2 Zn14 2.943701 1_555
Ta2 Ta4 3.072981 1_655
Ta2 Ta4 3.072990 1_645
Ta2 Ta4 3.073015 1_545
Ta3 Zn7 2.905844 1_565
Ta3 Zn11 2.905873 1_555
Ta3 Zn10 2.905934 1_455
Ta3 Zn10 2.905980 1_565
Ta3 Zn11 2.906007 1_565
Ta3 Zn7 2.906043 1_465
Ta3 Zn0 2.922708 1_565
Ta3 Zn2 2.922712 1_455
Ta3 Zn3 2.922801 1_555
Ta3 Zn15 2.943489 1_565
Ta3 Zn15 2.943516 1_455
Ta3 Zn15 2.943585 1_555
Ta3 Ta5 3.073216 1_465
Ta3 Ta5 3.073249 1_455
Ta3 Ta5 3.073256 1_565
Ta4 Zn6 2.912940 1_555
Ta4 Zn8 2.912956 1_555
Ta4 Zn9 2.913035 1_555
Ta4 Zn1 2.922481 1_555
Ta4 Zn4 2.922600 1_455
Ta4 Zn5 2.922702 1_565
Ta4 Zn5 2.922901 1_555
Ta4 Zn4 2.923042 1_565
Ta4 Zn1 2.923196 1_455
Ta4 Zn14 2.926258 1_555
Ta4 Zn14 2.926350 1_455
Ta4 Zn14 2.926395 1_565
Ta4 Ta7 3.028341 1_555
Ta5 Zn7 2.916812 1_555
Ta5 Zn11 2.916817 1_655
Ta5 Zn10 2.916926 1_555
Ta5 Zn2 2.924136 1_555
Ta5 Zn3 2.924234 1_545
Ta5 Zn0 2.924279 1_655
Ta5 Zn0 2.924525 1_555
Ta5 Zn3 2.924571 1_655
Ta5 Zn2 2.924642 1_545
Ta5 Zn15 2.926493 1_555
Ta5 Zn15 2.926560 1_655
Ta5 Zn15 2.926575 1_545
Ta5 Ta6 3.031150 1_555
Ta6 Zn8 2.915182 1_654
Ta6 Zn6 2.915202 1_544
Ta6 Zn9 2.915343 1_554
Ta6 Zn2 2.923697 1_555
Ta6 Zn3 2.923717 1_545
Ta6 Zn0 2.923722 1_655
Ta6 Zn0 2.924059 1_555
Ta6 Zn3 2.924074 1_655
Ta6 Zn2 2.924091 1_545
Ta6 Zn12 2.926461 1_545
Ta6 Zn12 2.926481 1_655
Ta6 Zn12 2.926511 1_555
Ta7 Zn11 2.914875 1_555
Ta7 Zn7 2.914900 1_565
Ta7 Zn10 2.915048 1_555
Ta7 Zn1 2.923768 1_555
Ta7 Zn4 2.923801 1_455
Ta7 Zn5 2.923815 1_565
Ta7 Zn1 2.924239 1_455
Ta7 Zn5 2.924248 1_555
Ta7 Zn4 2.924252 1_565
Ta7 Zn13 2.926305 1_455
Ta7 Zn13 2.926318 1_565
Ta7 Zn13 2.926410 1_555
Zn0 Zn2 2.412031 1_445
Zn0 Zn3 2.412038 1_545
Zn0 Zn12 2.492031 1_555
Zn0 Zn15 2.493097 1_555
Zn0 Zn3 2.588379 1_555
Zn0 Zn2 2.588408 1_555
Zn1 Zn4 2.411799 1_565
Zn1 Zn5 2.411814 1_665
Zn1 Zn14 2.489736 1_555
Zn1 Zn13 2.491595 1_555
Zn1 Zn4 2.588618 1_555
Zn1 Zn5 2.588625 1_555
Zn2 Zn3 2.412050 1_655
Zn2 Zn3 2.588378 1_555
Zn4 Zn5 2.411820 1_655
Zn4 Zn5 2.588608 1_555
Zn6 Zn9 2.500073 1_555
Zn6 Zn8 2.500079 1_555
Zn6 Zn9 2.500343 1_565
Zn6 Zn8 2.500360 1_665
Zn8 Zn9 2.500079 1_555
Zn8 Zn9 2.500348 1_455
Zn10 Zn7 2.500185 1_565
Zn10 Zn11 2.500195 1_555
Zn10 Zn11 2.500232 1_655
Zn10 Zn7 2.500232 1_555
Zn10 Zn13 2.510542 1_555
Zn10 Zn15 2.511337 1_555
Zn11 Zn7 2.500204 1_565
Zn11 Zn7 2.500235 1_455
Zn11 Zn13 2.510709 1_455
Zn11 Zn15 2.511476 1_555
Zn12 Zn3 2.491961 1_555
Zn12 Zn2 2.492029 1_555
Zn12 Zn9 2.510052 1_554
Zn12 Zn8 2.510163 1_554
Zn12 Zn6 2.510200 1_554
Zn13 Zn4 2.491542 1_555
Zn13 Zn5 2.491649 1_555
Zn13 Zn7 2.510692 1_555
Zn14 Zn4 2.489623 1_555
Zn14 Zn5 2.489714 1_555
Zn14 Zn9 2.508793 1_555
Zn14 Zn6 2.508970 1_545
Zn14 Zn8 2.508997 1_655
Zn15 Zn3 2.493036 1_555
Zn15 Zn2 2.493079 1_555
Zn15 Zn7 2.511486 1_565
