# generated using pymatgen
data_Er2MgAl
_symmetry_space_group_name_H-M   'P 1'
_cell_length_a   5.12743970
_cell_length_b   5.12743985
_cell_length_c   5.12743970
_cell_angle_alpha   60.00051221
_cell_angle_beta   60.00051312
_cell_angle_gamma   60.00051367
_symmetry_Int_Tables_number   1
_chemical_formula_structural   Er2MgAl
_chemical_formula_sum   'Er2 Mg1 Al1'
_cell_volume   95.32169380
_cell_formula_units_Z   1
loop_
 _symmetry_equiv_pos_site_id
 _symmetry_equiv_pos_as_xyz
  1  'x, y, z'
loop_
 _atom_site_type_symbol
 _atom_site_label
 _atom_site_symmetry_multiplicity
 _atom_site_fract_x
 _atom_site_fract_y
 _atom_site_fract_z
 _atom_site_occupancy
  Er  Er0  1  0.50000063  0.50000057  0.50000067  1
  Er  Er1  1  0.00000004  0.00000010  0.00000001  1
  Mg  Mg0  1  0.74999922  0.74999924  0.74999921  1
  Al  Al0  1  0.25000010  0.25000009  0.25000010  1
loop_
_geom_bond_atom_site_label_1
_geom_bond_atom_site_label_2
_geom_bond_distance
_geom_bond_site_symmetry_2
Er0 Mg0 3.139873 1_555
Er0 Mg0 3.139929 1_545
Er0 Mg0 3.139929 1_455
Er0 Mg0 3.139929 1_554
Er1 Mg0 3.139901 1_444
Er1 Mg0 3.139920 1_454
Er1 Mg0 3.139920 1_544
Er1 Mg0 3.139920 1_445
Al0 Er1 3.139891 1_555
Al0 Er0 3.139897 1_555
Al0 Er0 3.139921 1_554
Al0 Er0 3.139921 1_455
Al0 Er0 3.139921 1_545
Al0 Er1 3.139923 1_556
Al0 Er1 3.139923 1_655
Al0 Er1 3.139923 1_565
