# generated using pymatgen
data_NbBO4
_symmetry_space_group_name_H-M   'P 1'
_cell_length_a   5.22521514
_cell_length_b   5.22521479
_cell_length_c   5.22521489
_cell_angle_alpha   106.15854541
_cell_angle_beta   106.15854431
_cell_angle_gamma   116.32149658
_symmetry_Int_Tables_number   1
_chemical_formula_structural   NbBO4
_chemical_formula_sum   'Nb2 B2 O8'
_cell_volume   108.63133602
_cell_formula_units_Z   2
loop_
 _symmetry_equiv_pos_site_id
 _symmetry_equiv_pos_as_xyz
  1  'x, y, z'
loop_
 _atom_site_type_symbol
 _atom_site_label
 _atom_site_symmetry_multiplicity
 _atom_site_fract_x
 _atom_site_fract_y
 _atom_site_fract_z
 _atom_site_occupancy
  Nb  Nb0  1  0.12500000  0.87500000  0.25000000  1
  Nb  Nb1  1  0.87500000  0.12500000  0.75000000  1
  B  B0  1  0.62500000  0.37500000  0.25000000  1
  B  B1  1  0.37500000  0.62500000  0.75000000  1
  O  O0  1  0.79909909  0.37165503  0.07255593  1
  O  O1  1  0.72654316  0.79909909  0.92744407  1
  O  O2  1  0.27345684  0.20090091  0.07255593  1
  O  O3  1  0.20090091  0.62834497  0.92744407  1
  O  O4  1  0.20090091  0.27345684  0.57255593  1
  O  O5  1  0.62834497  0.20090091  0.42744407  1
  O  O6  1  0.79909909  0.72654316  0.42744407  1
  O  O7  1  0.37165503  0.79909909  0.57255593  1
loop_
_geom_bond_atom_site_label_1
_geom_bond_atom_site_label_2
_geom_bond_distance
_geom_bond_site_symmetry_2
Nb0 O4 2.067683 1_565
Nb0 O3 2.067684 1_554
Nb0 O7 2.067684 1_555
Nb0 O1 2.067684 1_454
Nb0 O0 2.113989 1_455
Nb0 O2 2.113989 1_565
Nb0 O6 2.113989 1_455
Nb0 O5 2.113990 1_565
Nb1 O6 2.067683 1_545
Nb1 O0 2.067684 1_556
Nb1 O5 2.067684 1_555
Nb1 O2 2.067684 1_656
Nb1 O3 2.113989 1_655
Nb1 O1 2.113989 1_545
Nb1 O4 2.113989 1_655
Nb1 O7 2.113990 1_545
B0 O5 1.470403 1_555
B0 O6 1.470403 1_555
B0 O0 1.470403 1_555
B0 O2 1.470403 1_555
B1 O7 1.470403 1_555
B1 O4 1.470403 1_555
B1 O3 1.470403 1_555
B1 O1 1.470403 1_555
