# generated using pymatgen
data_Li2Fe5Si5O16
_symmetry_space_group_name_H-M   'P 1'
_cell_length_a   10.32404100
_cell_length_b   6.84800600
_cell_length_c   10.21420561
_cell_angle_alpha   89.65180427
_cell_angle_beta   90.00000000
_cell_angle_gamma   90.00000000
_symmetry_Int_Tables_number   1
_chemical_formula_structural   Li2Fe5Si5O16
_chemical_formula_sum   'Li4 Fe10 Si10 O32'
_cell_volume   722.12175528
_cell_formula_units_Z   2
loop_
 _symmetry_equiv_pos_site_id
 _symmetry_equiv_pos_as_xyz
  1  'x, y, z'
loop_
 _atom_site_type_symbol
 _atom_site_label
 _atom_site_symmetry_multiplicity
 _atom_site_fract_x
 _atom_site_fract_y
 _atom_site_fract_z
 _atom_site_occupancy
  Li  Li0  1  0.34078400  0.24889100  0.46466900  1
  Li  Li1  1  0.32829600  0.25379600  0.96577700  1
  Li  Li2  1  0.84078400  0.75110900  0.53533100  1
  Li  Li3  1  0.82829600  0.74620400  0.03422300  1
  Fe  Fe0  1  0.16109400  0.25326400  0.22012500  1
  Fe  Fe1  1  0.16146000  0.21487400  0.70463400  1
  Fe  Fe2  1  0.66146000  0.78512600  0.29536600  1
  Fe  Fe3  1  0.36254300  0.74944900  0.48433200  1
  Fe  Fe4  1  0.66109400  0.74673600  0.77987500  1
  Fe  Fe5  1  0.36518200  0.75478800  0.96740600  1
  Fe  Fe6  1  0.15844200  0.71357900  0.72146100  1
  Fe  Fe7  1  0.86254300  0.25055100  0.51566800  1
  Fe  Fe8  1  0.65844200  0.28642100  0.27853900  1
  Fe  Fe9  1  0.86518200  0.24521200  0.03259400  1
  Si  Si0  1  0.90831200  0.53085300  0.28674900  1
  Si  Si1  1  0.40038700  0.49963100  0.21316500  1
  Si  Si2  1  0.90038700  0.50036900  0.78683500  1
  Si  Si3  1  0.40831200  0.46914700  0.71325100  1
  Si  Si4  1  0.16071200  0.75106800  0.21959200  1
  Si  Si5  1  0.59117700  0.02458200  0.53285900  1
  Si  Si6  1  0.09117700  0.97541800  0.46714100  1
  Si  Si7  1  0.58567200  0.00775400  0.02376800  1
  Si  Si8  1  0.08567200  0.99224600  0.97623200  1
  Si  Si9  1  0.66071200  0.24893200  0.78040800  1
  O  O0  1  0.85742700  0.32172700  0.22544400  1
  O  O1  1  0.80962500  0.30390900  0.73106200  1
  O  O2  1  0.33671800  0.30801600  0.28150400  1
  O  O3  1  0.33482400  0.28350600  0.77601000  1
  O  O4  1  0.89489400  0.51426400  0.44459700  1
  O  O5  1  0.54912100  0.53688700  0.26300100  1
  O  O6  1  0.87884900  0.50050200  0.94405700  1
  O  O7  1  0.39489400  0.48573600  0.55540300  1
  O  O8  1  0.06994000  0.55350100  0.24448100  1
  O  O9  1  0.56994000  0.44649900  0.75551900  1
  O  O10  1  0.37884900  0.49949800  0.05594300  1
  O  O11  1  0.04912100  0.46311300  0.73699900  1
  O  O12  1  0.83482400  0.71649400  0.22399000  1
  O  O13  1  0.83671800  0.69198400  0.71849600  1
  O  O14  1  0.30962500  0.69609100  0.26893800  1
  O  O15  1  0.35742700  0.67827300  0.77455600  1
  O  O16  1  0.65896300  0.81799000  0.49449200  1
  O  O17  1  0.64242100  0.80335700  0.96617000  1
  O  O18  1  0.16572000  0.78596900  0.52926400  1
  O  O19  1  0.16287200  0.80793200  0.06203500  1
  O  O20  1  0.93791900  0.98783800  0.49982400  1
  O  O21  1  0.63119000  0.03588100  0.17659000  1
  O  O22  1  0.43791900  0.01216200  0.50017600  1
  O  O23  1  0.93099100  0.97951000  0.00060500  1
  O  O24  1  0.61446400  0.05186000  0.69986800  1
  O  O25  1  0.11446400  0.94814000  0.30013200  1
  O  O26  1  0.43099100  0.02049000  0.99939500  1
  O  O27  1  0.13119000  0.96411900  0.82341000  1
  O  O28  1  0.66572000  0.21403100  0.47073600  1
  O  O29  1  0.66287200  0.19206800  0.93796500  1
  O  O30  1  0.15896300  0.18201000  0.50550800  1
  O  O31  1  0.14242100  0.19664300  0.03383000  1
loop_
_geom_bond_atom_site_label_1
_geom_bond_atom_site_label_2
_geom_bond_distance
_geom_bond_site_symmetry_2
Li0 O2 1.912250 1_555
Li0 O22 1.938577 1_555
Li0 O7 1.954448 1_555
Li0 O30 1.976121 1_555
Li1 O26 1.946255 1_555
Li1 O3 1.948903 1_555
Li1 O10 1.992600 1_556
Li1 O31 2.077387 1_556
Li2 O13 1.912250 1_555
Li2 O20 1.938577 1_555
Li2 O4 1.954448 1_555
Li2 O16 1.976121 1_555
Li3 O23 1.946255 1_555
Li3 O12 1.948903 1_555
Li3 O6 1.992600 1_554
Li3 O17 2.077387 1_554
Fe0 O31 1.953800 1_555
Fe0 O2 1.955505 1_555
Fe0 O8 2.276175 1_555
Fe0 O25 2.290153 1_545
Fe1 O3 1.989979 1_555
Fe1 O30 2.047848 1_555
Fe1 O11 2.085914 1_555
Fe1 O27 2.119642 1_545
Fe2 O12 1.989979 1_555
Fe2 O16 2.047848 1_555
Fe2 O5 2.085914 1_555
Fe2 O21 2.119642 1_565
Fe3 O22 1.967719 1_565
Fe3 O7 1.970762 1_555
Fe3 O18 2.098483 1_555
Fe3 O14 2.298283 1_555
Fe4 O17 1.953800 1_555
Fe4 O13 1.955505 1_555
Fe4 O9 2.276175 1_555
Fe4 O24 2.290153 1_565
Fe5 O10 1.968455 1_556
Fe5 O26 1.971364 1_565
Fe5 O15 2.042952 1_555
Fe5 O19 2.330975 1_556
Fe6 O18 2.023235 1_555
Fe6 O27 2.031960 1_555
Fe6 O11 2.058539 1_555
Fe6 O15 2.138047 1_555
Fe7 O20 1.967719 1_545
Fe7 O4 1.970762 1_555
Fe7 O28 2.098483 1_555
Fe7 O1 2.298283 1_555
Fe8 O28 2.023235 1_555
Fe8 O21 2.031960 1_555
Fe8 O5 2.058539 1_555
Fe8 O0 2.138047 1_555
Fe9 O6 1.968455 1_554
Fe9 O23 1.971364 1_545
Fe9 O0 2.042952 1_555
Fe9 O29 2.330975 1_554
O0 Si0 1.652236 1_555
O1 Si9 1.660430 1_555
O1 Si2 1.738351 1_555
O2 Si1 1.621728 1_555
O3 Si3 1.610206 1_555
O4 Si0 1.621528 1_555
O5 Si1 1.638187 1_555
O6 Si2 1.621225 1_555
O7 Si3 1.621528 1_555
O8 Si4 1.664066 1_555
O8 Si0 1.730330 1_455
O9 Si9 1.664066 1_555
O9 Si3 1.730330 1_555
O10 Si1 1.621225 1_555
O11 Si2 1.638187 1_455
O12 Si0 1.610206 1_555
O13 Si2 1.621728 1_555
O14 Si4 1.660430 1_555
O14 Si1 1.738351 1_555
O15 Si3 1.652236 1_555
O16 Si5 1.628364 1_565
O17 Si7 1.630513 1_566
O18 Si6 1.633403 1_555
O19 Si4 1.653610 1_555
O19 Si8 1.727133 1_554
O20 Si6 1.619417 1_655
O21 Si7 1.642611 1_555
O22 Si5 1.619417 1_555
O23 Si8 1.618491 1_654
O24 Si9 1.655147 1_555
O24 Si5 1.733938 1_555
O25 Si4 1.655147 1_555
O25 Si6 1.733938 1_555
O26 Si7 1.618491 1_556
O27 Si8 1.642611 1_555
O28 Si5 1.633403 1_555
O29 Si9 1.653610 1_555
O29 Si7 1.727133 1_556
O30 Si6 1.628364 1_545
O31 Si8 1.630513 1_544
