# generated using pymatgen
data_Mn11Fe(PO4)12
_symmetry_space_group_name_H-M   'P 1'
_cell_length_a   18.10340300
_cell_length_b   4.92978000
_cell_length_c   9.82961893
_cell_angle_alpha   89.88754896
_cell_angle_beta   90.00000000
_cell_angle_gamma   90.00000000
_symmetry_Int_Tables_number   1
_chemical_formula_structural   Mn11Fe(PO4)12
_chemical_formula_sum   'Mn11 Fe1 P12 O48'
_cell_volume   877.25045711
_cell_formula_units_Z   1
loop_
 _symmetry_equiv_pos_site_id
 _symmetry_equiv_pos_as_xyz
  1  'x, y, z'
loop_
 _atom_site_type_symbol
 _atom_site_label
 _atom_site_symmetry_multiplicity
 _atom_site_fract_x
 _atom_site_fract_y
 _atom_site_fract_z
 _atom_site_occupancy
  Mn  Mn0  1  0.00000000  0.93013200  0.28451100  1
  Mn  Mn1  1  0.66633500  0.93013600  0.28442600  1
  Mn  Mn2  1  0.33366500  0.93013600  0.28442600  1
  Mn  Mn3  1  0.66720100  0.56769700  0.78312000  1
  Mn  Mn4  1  0.33279900  0.56769700  0.78312000  1
  Mn  Mn5  1  0.00000000  0.56994100  0.78420400  1
  Mn  Mn6  1  0.16677000  0.43043500  0.21555300  1
  Mn  Mn7  1  0.83323000  0.43043500  0.21555300  1
  Mn  Mn8  1  0.50000000  0.43144300  0.21589000  1
  Mn  Mn9  1  0.16700400  0.07103500  0.71484300  1
  Mn  Mn10  1  0.83299600  0.07103500  0.71484300  1
  Fe  Fe0  1  0.50000000  0.04173700  0.72453600  1
  P  P0  1  0.16677700  0.91504400  0.40062700  1
  P  P1  1  0.83322300  0.91504400  0.40062700  1
  P  P2  1  0.50000000  0.91337100  0.40002500  1
  P  P3  1  0.16673700  0.58483100  0.90059900  1
  P  P4  1  0.83326300  0.58483100  0.90059900  1
  P  P5  1  0.50000000  0.58706000  0.90391300  1
  P  P6  1  0.00000000  0.41547000  0.09939500  1
  P  P7  1  0.66658400  0.41611400  0.09927000  1
  P  P8  1  0.33341600  0.41611400  0.09927000  1
  P  P9  1  0.00000000  0.08533200  0.59896100  1
  P  P10  1  0.66528600  0.08499900  0.59935600  1
  P  P11  1  0.33471400  0.08499900  0.59935600  1
  O  O0  1  0.16682000  0.85367200  0.55498000  1
  O  O1  1  0.83318000  0.85367200  0.55498000  1
  O  O2  1  0.50000000  0.85076800  0.55299100  1
  O  O3  1  0.23344600  0.77253200  0.32935200  1
  O  O4  1  0.09999500  0.77231200  0.32936700  1
  O  O5  1  0.90000500  0.77231200  0.32936700  1
  O  O6  1  0.76655400  0.77253200  0.32935200  1
  O  O7  1  0.56675800  0.77182300  0.32748000  1
  O  O8  1  0.43324200  0.77182300  0.32748000  1
  O  O9  1  0.00000000  0.77441300  0.61852200  1
  O  O10  1  0.66629700  0.77320500  0.61828800  1
  O  O11  1  0.33370300  0.77320500  0.61828800  1
  O  O12  1  0.00000000  0.72621900  0.11885300  1
  O  O13  1  0.33310200  0.72663300  0.11858000  1
  O  O14  1  0.66689800  0.72663300  0.11858000  1
  O  O15  1  0.23362600  0.72791400  0.82895200  1
  O  O16  1  0.10011500  0.72788100  0.82865000  1
  O  O17  1  0.76637400  0.72791400  0.82895200  1
  O  O18  1  0.56581400  0.73559800  0.82966200  1
  O  O19  1  0.89988500  0.72788100  0.82865000  1
  O  O20  1  0.43418600  0.73559800  0.82966200  1
  O  O21  1  0.16663800  0.64619000  0.05435700  1
  O  O22  1  0.83336200  0.64619000  0.05435700  1
  O  O23  1  0.50000000  0.65562200  0.05650600  1
  O  O24  1  0.00000000  0.35430300  0.94520100  1
  O  O25  1  0.66595400  0.35517500  0.94497400  1
  O  O26  1  0.33404600  0.35517500  0.94497400  1
  O  O27  1  0.06673700  0.27243600  0.17084100  1
  O  O28  1  0.93326300  0.27243600  0.17084100  1
  O  O29  1  0.73332300  0.27262500  0.17052400  1
  O  O30  1  0.40016400  0.27312200  0.17029400  1
  O  O31  1  0.26667700  0.27262500  0.17052400  1
  O  O32  1  0.59983600  0.27312200  0.17029400  1
  O  O33  1  0.16691900  0.27420400  0.88075900  1
  O  O34  1  0.83308100  0.27420400  0.88075900  1
  O  O35  1  0.50000000  0.28062200  0.88256600  1
  O  O36  1  0.16673100  0.22594500  0.38128900  1
  O  O37  1  0.50000000  0.22402500  0.38012800  1
  O  O38  1  0.83326900  0.22594500  0.38128900  1
  O  O39  1  0.06674700  0.22791800  0.67054600  1
  O  O40  1  0.93325300  0.22791800  0.67054600  1
  O  O41  1  0.73224700  0.22676300  0.67163900  1
  O  O42  1  0.26775300  0.22676300  0.67163900  1
  O  O43  1  0.40187300  0.22362100  0.67064900  1
  O  O44  1  0.59812700  0.22362100  0.67064900  1
  O  O45  1  0.00000000  0.14689800  0.44498200  1
  O  O46  1  0.66608000  0.14646300  0.44543300  1
  O  O47  1  0.33392000  0.14646300  0.44543300  1
loop_
_geom_bond_atom_site_label_1
_geom_bond_atom_site_label_2
_geom_bond_distance
_geom_bond_site_symmetry_2
Mn0 O45 1.906996 1_565
Mn0 O12 1.915329 1_555
Mn0 O4 2.018756 1_555
Mn0 O5 2.018756 1_455
Mn0 O27 2.355483 1_565
Mn0 O28 2.355483 1_465
Mn1 O46 1.910155 1_565
Mn1 O14 1.915867 1_555
Mn1 O7 2.009122 1_555
Mn1 O6 2.022134 1_555
Mn1 O32 2.357836 1_565
Mn1 O29 2.359547 1_565
Mn2 O47 1.910155 1_565
Mn2 O13 1.915867 1_555
Mn2 O8 2.009122 1_555
Mn2 O3 2.022134 1_555
Mn2 O30 2.357836 1_565
Mn2 O31 2.359547 1_565
Mn3 O25 1.903360 1_555
Mn3 O10 1.909288 1_555
Mn3 O17 2.012845 1_555
Mn3 O18 2.065132 1_555
Mn3 O41 2.327988 1_555
Mn3 O44 2.381269 1_555
Mn4 O26 1.903360 1_555
Mn4 O11 1.909288 1_555
Mn4 O15 2.012845 1_555
Mn4 O20 2.065132 1_555
Mn4 O42 2.327988 1_555
Mn4 O43 2.381269 1_555
Mn5 O24 1.904704 1_555
Mn5 O9 1.913618 1_555
Mn5 O16 2.020721 1_555
Mn5 O19 2.020721 1_455
Mn5 O39 2.357667 1_555
Mn5 O40 2.357667 1_455
Mn6 O21 1.906650 1_555
Mn6 O36 1.914116 1_555
Mn6 O31 2.018350 1_555
Mn6 O27 2.020071 1_555
Mn6 O3 2.357929 1_555
Mn6 O4 2.358141 1_555
Mn7 O22 1.906650 1_555
Mn7 O38 1.914116 1_555
Mn7 O29 2.018350 1_555
Mn7 O28 2.020071 1_555
Mn7 O6 2.357929 1_555
Mn7 O5 2.358141 1_555
Mn8 O37 1.909281 1_555
Mn8 O23 1.915481 1_555
Mn8 O32 2.019406 1_555
Mn8 O30 2.019406 1_555
Mn8 O7 2.342360 1_555
Mn8 O8 2.342360 1_555
Mn9 O0 1.903712 1_545
Mn9 O33 1.915562 1_555
Mn9 O39 2.020053 1_555
Mn9 O42 2.023624 1_555
Mn9 O15 2.359343 1_545
Mn9 O16 2.360529 1_545
Mn10 O1 1.903712 1_545
Mn10 O34 1.915562 1_555
Mn10 O40 2.020053 1_555
Mn10 O41 2.023624 1_555
Mn10 O17 2.359343 1_545
Mn10 O19 2.360529 1_545
Fe0 O2 1.932841 1_545
Fe0 O35 1.951157 1_555
Fe0 O44 2.058737 1_555
Fe0 O43 2.058737 1_555
Fe0 O18 2.181499 1_545
Fe0 O20 2.181499 1_545
O0 P0 1.546521 1_555
O1 P1 1.546521 1_555
O2 P2 1.534350 1_555
O3 P0 1.563028 1_555
O4 P0 1.565030 1_555
O5 P1 1.565030 1_555
O6 P1 1.563028 1_555
O7 P2 1.567789 1_555
O8 P2 1.567789 1_555
O9 P9 1.544401 1_565
O10 P10 1.548046 1_565
O11 P11 1.548046 1_565
O12 P6 1.544190 1_555
O13 P8 1.542893 1_555
O14 P7 1.542893 1_555
O15 P3 1.567770 1_555
O16 P3 1.565303 1_555
O17 P4 1.567770 1_555
O18 P5 1.576823 1_555
O19 P4 1.565303 1_555
O20 P5 1.576823 1_555
O21 P3 1.541938 1_554
O22 P4 1.541938 1_554
O23 P5 1.538189 1_554
O24 P6 1.545953 1_556
O25 P7 1.546758 1_556
O26 P8 1.546758 1_556
O27 P6 1.564651 1_555
O28 P6 1.564651 1_655
O29 P7 1.564845 1_555
O30 P8 1.562858 1_555
O31 P8 1.564845 1_555
O32 P7 1.562858 1_555
O33 P3 1.544074 1_555
O34 P4 1.544074 1_555
O35 P5 1.525583 1_555
O36 P0 1.544046 1_545
O37 P2 1.543513 1_545
O38 P1 1.544046 1_545
O39 P9 1.565652 1_555
O40 P9 1.565652 1_655
O41 P10 1.569928 1_555
O42 P11 1.569928 1_555
O43 P11 1.561462 1_555
O44 P10 1.561462 1_555
O45 P9 1.543101 1_555
O46 P10 1.542531 1_555
O47 P11 1.542531 1_555
