# generated using pymatgen
data_MnV3Cu2(PO4)6
_symmetry_space_group_name_H-M   'P 1'
_cell_length_a   8.56776672
_cell_length_b   8.58775434
_cell_length_c   8.58775424
_cell_angle_alpha   59.99999489
_cell_angle_beta   59.92279814
_cell_angle_gamma   59.92280294
_symmetry_Int_Tables_number   1
_chemical_formula_structural   MnV3Cu2(PO4)6
_chemical_formula_sum   'Mn1 V3 Cu2 P6 O24'
_cell_volume   446.27657056
_cell_formula_units_Z   1
loop_
 _symmetry_equiv_pos_site_id
 _symmetry_equiv_pos_as_xyz
  1  'x, y, z'
loop_
 _atom_site_type_symbol
 _atom_site_label
 _atom_site_symmetry_multiplicity
 _atom_site_fract_x
 _atom_site_fract_y
 _atom_site_fract_z
 _atom_site_occupancy
  Mn  Mn0  1  0.57160400  0.14279800  0.14279800  1
  V  V0  1  0.07149300  0.64283600  0.64283600  1
  V  V1  1  0.42652800  0.85782400  0.85782400  1
  V  V2  1  0.92736300  0.35754500  0.35754500  1
  Cu  Cu0  1  0.99930500  0.00023100  0.00023100  1
  Cu  Cu1  1  0.49859100  0.50047000  0.50047000  1
  P  P0  1  0.25017900  0.24966900  0.54148800  1
  P  P1  1  0.25017900  0.95866300  0.24966900  1
  P  P2  1  0.25017900  0.54148800  0.95866300  1
  P  P3  1  0.75147300  0.45887000  0.04016700  1
  P  P4  1  0.75147300  0.04016700  0.74949000  1
  P  P5  1  0.75147300  0.74949000  0.45887000  1
  O  O0  1  0.06707200  0.12326300  0.30508700  1
  O  O1  1  0.06707200  0.50457800  0.12326300  1
  O  O2  1  0.06707200  0.30508700  0.50457800  1
  O  O3  1  0.23784200  0.08254800  0.73720300  1
  O  O4  1  0.43324700  0.19551500  0.38438100  1
  O  O5  1  0.25308300  0.41769200  0.56415800  1
  O  O6  1  0.23784200  0.94240800  0.08254800  1
  O  O7  1  0.25308300  0.76506700  0.41769200  1
  O  O8  1  0.56755900  0.62199800  0.00391300  1
  O  O9  1  0.25308300  0.56415800  0.76506700  1
  O  O10  1  0.76927400  0.26641000  0.05042800  1
  O  O11  1  0.56755900  0.00391300  0.80653100  1
  O  O12  1  0.43324700  0.98685700  0.19551500  1
  O  O13  1  0.23784200  0.73720300  0.94240800  1
  O  O14  1  0.74014100  0.44481500  0.23408900  1
  O  O15  1  0.43324700  0.38438100  0.98685700  1
  O  O16  1  0.74014100  0.23408900  0.58095400  1
  O  O17  1  0.76927400  0.05042800  0.91388900  1
  O  O18  1  0.74014100  0.58095400  0.44481500  1
  O  O19  1  0.56755900  0.80653100  0.62199800  1
  O  O20  1  0.76927400  0.91388900  0.26641000  1
  O  O21  1  0.93183600  0.68653400  0.50214700  1
  O  O22  1  0.93183600  0.50214700  0.87948300  1
  O  O23  1  0.93183600  0.87948300  0.68653400  1
loop_
_geom_bond_atom_site_label_1
_geom_bond_atom_site_label_2
_geom_bond_distance
_geom_bond_site_symmetry_2
Mn0 O12 1.962285 1_545
Mn0 O15 1.962292 1_554
Mn0 O4 1.962300 1_555
Mn0 O17 2.058562 1_554
Mn0 O20 2.058574 1_545
Mn0 O10 2.058581 1_555
Cu0 O17 2.216627 1_554
Cu0 O20 2.216638 1_545
Cu0 O10 2.216645 1_555
Cu0 O13 2.236724 1_644
Cu0 O3 2.236730 1_654
Cu0 O6 2.236741 1_645
Cu1 O18 2.258569 1_555
Cu1 O16 2.258576 1_555
Cu1 O14 2.258581 1_555
Cu1 O9 2.277241 1_555
Cu1 O7 2.277243 1_555
Cu1 O5 2.277246 1_555
O0 P1 1.545117 1_545
O0 V2 1.906744 1_455
O1 P2 1.545115 1_554
O1 V2 1.906751 1_455
O2 P0 1.545113 1_555
O2 V2 1.906758 1_455
O3 P0 1.567693 1_555
O3 V1 1.990766 1_545
O4 P0 1.507296 1_555
O5 P0 1.562804 1_555
O5 V0 1.962908 1_555
O6 P1 1.567683 1_555
O6 V1 1.990770 1_554
O7 P1 1.562799 1_555
O7 V0 1.962904 1_555
O8 P3 1.544465 1_555
O8 V1 1.913468 1_554
O9 P2 1.562795 1_555
O9 V0 1.962901 1_555
O10 P3 1.542055 1_555
O11 P4 1.544463 1_555
O11 V1 1.913472 1_545
O12 P1 1.507300 1_555
O13 P2 1.567700 1_555
O13 V1 1.990763 1_555
O14 P3 1.563992 1_555
O14 V2 1.990940 1_555
O15 P2 1.507298 1_555
O16 P4 1.563995 1_555
O16 V2 1.990942 1_555
O17 P4 1.542064 1_555
O18 P5 1.564000 1_555
O18 V2 1.990946 1_555
O19 P5 1.544467 1_555
O19 V1 1.913464 1_555
O20 P5 1.542059 1_555
O21 P5 1.534832 1_555
O21 V0 1.891529 1_655
O22 P3 1.534831 1_556
O22 V0 1.891525 1_655
O23 P4 1.534832 1_565
O23 V0 1.891521 1_655
