# generated using pymatgen
data_ScReTc2
_symmetry_space_group_name_H-M   'P 1'
_cell_length_a   4.42462279
_cell_length_b   4.42462279
_cell_length_c   4.42462279
_cell_angle_alpha   60.00000000
_cell_angle_beta   60.00000000
_cell_angle_gamma   60.00000000
_symmetry_Int_Tables_number   1
_chemical_formula_structural   ScReTc2
_chemical_formula_sum   'Sc1 Re1 Tc2'
_cell_volume   61.25108108
_cell_formula_units_Z   1
loop_
 _symmetry_equiv_pos_site_id
 _symmetry_equiv_pos_as_xyz
  1  'x, y, z'
loop_
 _atom_site_type_symbol
 _atom_site_label
 _atom_site_symmetry_multiplicity
 _atom_site_fract_x
 _atom_site_fract_y
 _atom_site_fract_z
 _atom_site_occupancy
  Sc  Sc0  1  0.75000000  0.75000000  0.75000000  1
  Re  Re0  1  0.25000000  0.25000000  0.25000000  1
  Tc  Tc0  1  0.49999900  0.49999900  0.49999900  1
  Tc  Tc1  1  -0.00000000  0.00000000  0.00000000  1
loop_
_geom_bond_atom_site_label_1
_geom_bond_atom_site_label_2
_geom_bond_distance
_geom_bond_site_symmetry_2
Sc0 Tc0 2.709513 1_565
Sc0 Tc0 2.709513 1_556
Sc0 Tc0 2.709513 1_655
Sc0 Tc1 2.709517 1_566
Sc0 Tc1 2.709517 1_665
Sc0 Tc1 2.709517 1_666
Sc0 Tc1 2.709517 1_656
Sc0 Tc0 2.709528 1_555
Re0 Tc0 2.709506 1_555
Re0 Tc1 2.709517 1_556
Re0 Tc1 2.709517 1_555
Re0 Tc1 2.709517 1_565
Re0 Tc1 2.709517 1_655
Re0 Tc0 2.709521 1_554
Re0 Tc0 2.709521 1_545
Re0 Tc0 2.709521 1_455
