# generated using pymatgen
data_Li2FeSi3O8
_symmetry_space_group_name_H-M   'P 1'
_cell_length_a   6.72453333
_cell_length_b   10.07085047
_cell_length_c   12.33705338
_cell_angle_alpha   71.99808895
_cell_angle_beta   82.23651050
_cell_angle_gamma   103.08898697
_symmetry_Int_Tables_number   1
_chemical_formula_structural   Li2FeSi3O8
_chemical_formula_sum   'Li8 Fe4 Si12 O32'
_cell_volume   754.73969863
_cell_formula_units_Z   4
loop_
 _symmetry_equiv_pos_site_id
 _symmetry_equiv_pos_as_xyz
  1  'x, y, z'
loop_
 _atom_site_type_symbol
 _atom_site_label
 _atom_site_symmetry_multiplicity
 _atom_site_fract_x
 _atom_site_fract_y
 _atom_site_fract_z
 _atom_site_occupancy
  Li  Li0  1  0.10576600  0.24833700  0.05986800  1
  Li  Li1  1  0.60561200  0.74834600  0.55994600  1
  Li  Li2  1  0.88658800  0.75975100  0.00736100  1
  Li  Li3  1  0.38663900  0.25983200  0.50737300  1
  Li  Li4  1  0.17251800  0.60590600  0.25264600  1
  Li  Li5  1  0.67248500  0.10594700  0.75265300  1
  Li  Li6  1  0.77713000  0.33595900  0.29005800  1
  Li  Li7  1  0.27748400  0.83599900  0.78996100  1
  Fe  Fe0  1  0.72341500  0.07826900  0.50823800  1
  Fe  Fe1  1  0.62062500  0.60351800  0.30003800  1
  Fe  Fe2  1  0.22367200  0.57840600  0.00811100  1
  Fe  Fe3  1  0.12039000  0.10333400  0.80004100  1
  Si  Si0  1  0.21527500  0.61234000  0.48870900  1
  Si  Si1  1  0.71542900  0.11265900  0.98855900  1
  Si  Si2  1  0.75208900  0.40075400  0.00935400  1
  Si  Si3  1  0.25150600  0.90030800  0.50962700  1
  Si  Si4  1  0.93561700  0.94368600  0.14819900  1
  Si  Si5  1  0.43580800  0.44358200  0.64827500  1
  Si  Si6  1  0.40806200  0.37966700  0.21384800  1
  Si  Si7  1  0.90797000  0.87971600  0.71390800  1
  Si  Si8  1  0.08198800  0.09693800  0.31195000  1
  Si  Si9  1  0.58230100  0.59708000  0.81182900  1
  Si  Si10  1  0.80779700  0.43077800  0.48141000  1
  Si  Si11  1  0.30770200  0.93085400  0.98138800  1
  O  O0  1  0.83673700  0.08309200  0.09915100  1
  O  O1  1  0.33689500  0.58294600  0.59916900  1
  O  O2  1  0.12706900  0.75190900  0.49053200  1
  O  O3  1  0.62781300  0.25255000  0.99003600  1
  O  O4  1  0.35856900  0.64382100  0.36263500  1
  O  O5  1  0.85861600  0.14382800  0.86257600  1
  O  O6  1  0.14768200  0.00700900  0.04020500  1
  O  O7  1  0.64802400  0.50697600  0.54034400  1
  O  O8  1  0.64855200  0.39915500  0.13991900  1
  O  O9  1  0.14856700  0.89907200  0.64016400  1
  O  O10  1  0.52215100  0.96332400  0.02926800  1
  O  O11  1  0.02229000  0.46285800  0.52937300  1
  O  O12  1  0.99647000  0.41162600  0.00462400  1
  O  O13  1  0.49604500  0.91141500  0.50475200  1
  O  O14  1  0.25937900  0.22846600  0.20095300  1
  O  O15  1  0.75943300  0.72862200  0.70080700  1
  O  O16  1  0.79684700  0.78436600  0.16346100  1
  O  O17  1  0.29683600  0.28424800  0.66353700  1
  O  O18  1  0.30809700  0.51016900  0.15960300  1
  O  O19  1  0.80814100  0.01024000  0.65960800  1
  O  O20  1  0.20059100  0.04059400  0.41857700  1
  O  O21  1  0.70213900  0.54123500  0.91794300  1
  O  O22  1  0.18026400  0.76040900  0.02598300  1
  O  O23  1  0.68019100  0.26038100  0.52598000  1
  O  O24  1  0.00341300  0.95930800  0.26760100  1
  O  O25  1  0.50356000  0.45932600  0.76762700  1
  O  O26  1  0.44990500  0.36960600  0.34148400  1
  O  O27  1  0.94943600  0.86952100  0.84163900  1
  O  O28  1  0.89853900  0.16526500  0.34591300  1
  O  O29  1  0.39882200  0.66527600  0.84587400  1
  O  O30  1  0.86552600  0.51367900  0.33867200  1
  O  O31  1  0.36547600  0.01367600  0.83863500  1
loop_
_geom_bond_atom_site_label_1
_geom_bond_atom_site_label_2
_geom_bond_distance
_geom_bond_site_symmetry_2
Li0 O12 1.923259 1_455
Li0 O0 2.044052 1_455
Li0 O14 2.121501 1_555
Li1 O13 1.922466 1_555
Li1 O1 2.043594 1_555
Li1 O15 2.120073 1_555
Li2 O27 1.933572 1_554
Li2 O22 2.017519 1_655
Li2 O16 2.045296 1_555
Li3 O26 1.935184 1_555
Li3 O23 2.016846 1_555
Li3 O17 2.045160 1_555
Li4 O18 1.969234 1_555
Li4 O4 2.028520 1_555
Li4 O30 2.044762 1_455
Li5 O19 1.969273 1_555
Li5 O5 2.028130 1_555
Li5 O31 2.044755 1_555
Li6 O28 2.037630 1_555
Li6 O30 2.048007 1_555
Li6 O8 2.129981 1_555
Li6 O26 2.335098 1_555
Li7 O29 2.037662 1_555
Li7 O31 2.047707 1_565
Li7 O9 2.127669 1_555
Li7 O27 2.340325 1_455
Fe0 O19 1.988676 1_555
Fe0 O23 1.992089 1_555
Fe0 O28 1.993972 1_555
Fe0 O13 2.015427 1_545
Fe1 O4 2.004128 1_555
Fe1 O16 2.036332 1_555
Fe1 O30 2.092423 1_555
Fe1 O26 2.236222 1_555
Fe2 O18 1.989244 1_555
Fe2 O22 1.992027 1_555
Fe2 O29 1.993185 1_554
Fe2 O12 2.014286 1_455
Fe3 O5 2.003223 1_455
Fe3 O17 2.036647 1_555
Fe3 O31 2.092480 1_555
Fe3 O27 2.235432 1_445
O0 Si1 1.665900 1_554
O0 Si4 1.669052 1_545
O1 Si0 1.665831 1_555
O1 Si5 1.668959 1_555
O2 Si3 1.641247 1_555
O2 Si0 1.649704 1_555
O3 Si2 1.640609 1_556
O3 Si1 1.649593 1_555
O4 Si0 1.612497 1_555
O5 Si1 1.612016 1_555
O6 Si4 1.662828 1_445
O6 Si11 1.667174 1_544
O7 Si5 1.663019 1_555
O7 Si10 1.667056 1_555
O8 Si2 1.659982 1_555
O8 Si6 1.683085 1_555
O9 Si3 1.659931 1_555
O9 Si7 1.683205 1_455
O10 Si11 1.634431 1_554
O10 Si1 1.635462 1_564
O11 Si10 1.634813 1_455
O11 Si0 1.635392 1_555
O12 Si2 1.613888 1_555
O13 Si3 1.614319 1_555
O14 Si8 1.665703 1_555
O14 Si6 1.687241 1_555
O15 Si9 1.665165 1_555
O15 Si7 1.687141 1_555
O16 Si4 1.602586 1_555
O17 Si5 1.603165 1_555
O18 Si6 1.614026 1_555
O19 Si7 1.613748 1_545
O20 Si8 1.647895 1_555
O20 Si3 1.648359 1_545
O21 Si9 1.647649 1_555
O21 Si2 1.648510 1_556
O22 Si11 1.614366 1_554
O23 Si10 1.614256 1_555
O24 Si4 1.641561 1_455
O24 Si8 1.647670 1_565
O25 Si5 1.641236 1_555
O25 Si9 1.647803 1_555
O26 Si6 1.613371 1_555
O27 Si7 1.613440 1_555
O28 Si8 1.610555 1_655
O29 Si9 1.610116 1_555
O30 Si10 1.645758 1_555
O31 Si11 1.645817 1_545
