# generated using pymatgen
data_V3O5F
_symmetry_space_group_name_H-M   'P 1'
_cell_length_a   4.58708437
_cell_length_b   7.36642214
_cell_length_c   5.42555129
_cell_angle_alpha   96.21139219
_cell_angle_beta   89.99884401
_cell_angle_gamma   89.99754328
_symmetry_Int_Tables_number   1
_chemical_formula_structural   V3O5F
_chemical_formula_sum   'V6 O10 F2'
_cell_volume   182.25529426
_cell_formula_units_Z   2
loop_
 _symmetry_equiv_pos_site_id
 _symmetry_equiv_pos_as_xyz
  1  'x, y, z'
loop_
 _atom_site_type_symbol
 _atom_site_label
 _atom_site_symmetry_multiplicity
 _atom_site_fract_x
 _atom_site_fract_y
 _atom_site_fract_z
 _atom_site_occupancy
  V  V0  1  0.52635461  0.66779579  0.16496397  1
  V  V1  1  0.02637061  -0.00108825  0.00170001  1
  V  V2  1  0.98395361  0.67529054  0.68534847  1
  V  V3  1  0.48396420  0.99139556  0.48131215  1
  V  V4  1  0.48705797  0.35453304  0.83372868  1
  V  V5  1  0.98705191  0.31212599  0.33292666  1
  O  O0  1  0.80895539  0.43617629  0.62709530  1
  O  O1  1  0.30902365  0.23053521  0.53957807  1
  O  O2  1  0.79545009  0.09636437  0.29902619  1
  O  O3  1  0.29535523  0.57027253  0.86767778  1
  O  O4  1  0.79589782  0.76847309  0.96935674  1
  O  O5  1  0.29587575  0.89820979  0.19728205  1
  O  O6  1  0.69776793  0.76799821  0.47331500  1
  O  O7  1  0.19768275  0.89867218  0.69324877  1
  O  O8  1  0.70403220  0.42896503  0.12994916  1
  O  O9  1  0.20403161  0.23767604  0.03669839  1
  F  F0  1  0.70050077  0.10211947  0.79909431  1
  F  F1  1  0.20067291  0.56448811  0.36769428  1
loop_
_geom_bond_atom_site_label_1
_geom_bond_atom_site_label_2
_geom_bond_distance
_geom_bond_site_symmetry_2
O0 V2 1.930420 1_555
O0 V5 1.932362 1_555
O0 V4 1.986138 1_555
O1 V3 1.930414 1_545
O1 V4 1.932078 1_555
O1 V5 1.986304 1_455
O2 V5 1.808125 1_555
O2 V3 1.945009 1_545
O2 V1 1.997226 1_655
O3 V4 1.808140 1_555
O3 V2 1.944999 1_455
O3 V0 1.997460 1_556
O4 V2 1.833219 1_555
O4 V0 1.837226 1_556
O4 V1 1.991406 1_666
O5 V3 1.833448 1_555
O5 V1 1.837094 1_565
O5 V0 1.991187 1_555
O6 V3 1.912136 1_555
O6 V2 1.919147 1_555
O6 V0 1.922190 1_555
O7 V2 1.911971 1_455
O7 V3 1.919169 1_555
O7 V1 1.922477 1_566
O8 V4 1.919270 1_554
O8 V0 1.929542 1_555
O8 V5 1.960624 1_555
O9 V5 1.919285 1_455
O9 V1 1.929136 1_555
O9 V4 1.960705 1_554
F0 V1 2.049775 1_656
F0 V3 2.078546 1_545
F0 V4 2.091757 1_555
F1 V0 2.049867 1_555
F1 V2 2.078509 1_455
F1 V5 2.091881 1_455
