# generated using pymatgen
data_Ba4As2O
_symmetry_space_group_name_H-M   'P 1'
_cell_length_a   5.20214294
_cell_length_b   5.20214396
_cell_length_c   9.44771867
_cell_angle_alpha   105.98060592
_cell_angle_beta   105.98060607
_cell_angle_gamma   90.00001065
_symmetry_Int_Tables_number   1
_chemical_formula_structural   Ba4As2O
_chemical_formula_sum   'Ba4 As2 O1'
_cell_volume   235.50147083
_cell_formula_units_Z   1
loop_
 _symmetry_equiv_pos_site_id
 _symmetry_equiv_pos_as_xyz
  1  'x, y, z'
loop_
 _atom_site_type_symbol
 _atom_site_label
 _atom_site_symmetry_multiplicity
 _atom_site_fract_x
 _atom_site_fract_y
 _atom_site_fract_z
 _atom_site_occupancy
  Ba  Ba0  1  0.67539508  0.67539508  0.35078817  1
  Ba  Ba1  1  0.32460492  0.32460492  0.64921183  1
  Ba  Ba2  1  -0.00000000  0.50000000  -0.00000000  1
  Ba  Ba3  1  0.50000000  0.00000000  -0.00000000  1
  As  As0  1  0.86438190  0.86438190  0.72876380  1
  As  As1  1  0.13561810  0.13561810  0.27123620  1
  O  O0  1  0.50000000  0.50000000  -0.00000000  1
loop_
_geom_bond_atom_site_label_1
_geom_bond_atom_site_label_2
_geom_bond_distance
_geom_bond_site_symmetry_2
Ba0 O0 3.052628 1_555
Ba1 O0 3.052628 1_556
Ba2 O0 2.601071 1_555
Ba2 O0 2.601071 1_455
Ba3 O0 2.601072 1_555
Ba3 O0 2.601072 1_545
As0 Ba0 3.289219 1_555
As0 Ba3 3.512382 1_566
As0 Ba2 3.512383 1_656
As0 Ba3 3.512383 1_666
As0 Ba2 3.512383 1_666
As0 Ba1 3.743039 1_665
As0 Ba1 3.743047 1_565
As0 Ba1 3.743047 1_655
As0 Ba1 3.743053 1_555
As1 Ba1 3.289219 1_555
As1 Ba3 3.512382 1_555
As1 Ba2 3.512383 1_555
As1 Ba3 3.512383 1_455
As1 Ba2 3.512383 1_545
As1 Ba0 3.743039 1_445
As1 Ba0 3.743047 1_545
As1 Ba0 3.743047 1_455
As1 Ba0 3.743053 1_555
