# generated using pymatgen
data_Ta4Ni2C
_symmetry_space_group_name_H-M   'P 1'
_cell_length_a   8.21906772
_cell_length_b   8.21906750
_cell_length_c   8.21906799
_cell_angle_alpha   60.00200464
_cell_angle_beta   60.00199502
_cell_angle_gamma   60.00200319
_symmetry_Int_Tables_number   1
_chemical_formula_structural   Ta4Ni2C
_chemical_formula_sum   'Ta16 Ni8 C4'
_cell_volume   392.61996754
_cell_formula_units_Z   4
loop_
 _symmetry_equiv_pos_site_id
 _symmetry_equiv_pos_as_xyz
  1  'x, y, z'
loop_
 _atom_site_type_symbol
 _atom_site_label
 _atom_site_symmetry_multiplicity
 _atom_site_fract_x
 _atom_site_fract_y
 _atom_site_fract_z
 _atom_site_occupancy
  Ta  Ta0  1  0.62500669  0.62500684  0.62500674  1
  Ta  Ta1  1  0.62500657  0.62500684  0.12498005  1
  Ta  Ta2  1  0.12497999  0.62500705  0.62500646  1
  Ta  Ta3  1  0.62500675  0.12497974  0.62500682  1
  Ta  Ta4  1  0.43297147  0.06702793  0.06702806  1
  Ta  Ta5  1  0.06702892  0.43297197  0.43297165  1
  Ta  Ta6  1  0.06702786  0.43297167  0.06702799  1
  Ta  Ta7  1  0.06702805  0.06702791  0.43297141  1
  Ta  Ta8  1  0.43297188  0.06702899  0.43297163  1
  Ta  Ta9  1  0.43297167  0.43297195  0.06702898  1
  Ta  Ta10  1  0.18294832  0.81705224  0.18294833  1
  Ta  Ta11  1  0.81705180  0.18294715  0.81705179  1
  Ta  Ta12  1  0.81705207  0.18294841  0.18294848  1
  Ta  Ta13  1  0.18294832  0.18294851  0.81705207  1
  Ta  Ta14  1  0.18294718  0.81705184  0.81705164  1
  Ta  Ta15  1  0.81705165  0.81705189  0.18294725  1
  Ni  Ni0  1  0.83019092  0.83019178  0.83019040  1
  Ni  Ni1  1  0.83019906  0.83019930  0.50940855  1
  Ni  Ni2  1  0.50940916  0.83019817  0.83020004  1
  Ni  Ni3  1  0.83019955  0.50940826  0.83019940  1
  Ni  Ni4  1  0.41980949  0.41980913  0.41981042  1
  Ni  Ni5  1  0.41980097  0.41980124  0.74058952  1
  Ni  Ni6  1  0.41980190  0.74058992  0.41980090  1
  Ni  Ni7  1  0.74058987  0.41980138  0.41980137  1
  C  C0  1  0.12499972  0.12499969  0.12499984  1
  C  C1  1  0.12499972  0.12499970  0.62500077  1
  C  C2  1  0.62500076  0.12499967  0.12499978  1
  C  C3  1  0.12499969  0.62500084  0.12499968  1
loop_
_geom_bond_atom_site_label_1
_geom_bond_atom_site_label_2
_geom_bond_distance
_geom_bond_site_symmetry_2
Ni0 Ta3 2.496142 1_565
Ni0 Ta2 2.496148 1_655
Ni0 Ta1 2.496153 1_556
Ni0 Ni2 2.636461 1_555
Ni0 Ni1 2.636463 1_555
Ni0 Ni3 2.636469 1_555
Ni0 Ta11 2.795512 1_565
Ni0 Ta14 2.795516 1_655
Ni0 Ta15 2.795519 1_556
Ni0 Ta7 3.052293 1_665
Ni0 Ta4 3.052296 1_566
Ni0 Ta6 3.052302 1_656
Ni1 Ta3 2.496148 1_565
Ni1 Ta2 2.496150 1_655
Ni1 Ta0 2.496153 1_555
Ni1 Ni2 2.636680 1_555
Ni1 Ni3 2.636682 1_555
Ni1 Ta15 2.795441 1_555
Ni1 Ta12 2.795496 1_565
Ni1 Ta10 2.795497 1_655
Ni1 Ta7 3.052142 1_665
Ni1 Ta8 3.052257 1_565
Ni1 Ta5 3.052258 1_655
Ni2 Ta1 2.496141 1_556
Ni2 Ta3 2.496152 1_565
Ni2 Ta0 2.496153 1_555
Ni2 Ni3 2.636676 1_555
Ni2 Ta14 2.795446 1_555
Ni2 Ta10 2.795495 1_556
Ni2 Ta13 2.795504 1_565
Ni2 Ta4 3.052141 1_566
Ni2 Ta9 3.052252 1_556
Ni2 Ta8 3.052267 1_565
Ni3 Ta2 2.496150 1_655
Ni3 Ta1 2.496150 1_556
Ni3 Ta0 2.496157 1_555
Ni3 Ta11 2.795442 1_555
Ni3 Ta13 2.795493 1_655
Ni3 Ta12 2.795495 1_556
Ni3 Ta6 3.052139 1_656
Ni3 Ta5 3.052258 1_655
Ni3 Ta9 3.052259 1_556
Ni4 Ta3 2.496355 1_555
Ni4 Ta2 2.496356 1_555
Ni4 Ta1 2.496362 1_555
Ni4 Ni5 2.636438 1_555
Ni4 Ni7 2.636447 1_555
Ni4 Ni6 2.636449 1_555
Ni4 Ta8 2.795542 1_555
Ni4 Ta5 2.795544 1_555
Ni4 Ta9 2.795548 1_555
Ni4 Ta13 3.052542 1_555
Ni4 Ta12 3.052548 1_555
Ni4 Ta10 3.052552 1_555
Ni5 Ta2 2.496356 1_555
Ni5 Ta3 2.496358 1_555
Ni5 Ta0 2.496369 1_555
Ni5 Ni7 2.636662 1_555
Ni5 Ni6 2.636664 1_555
Ni5 Ta9 2.795468 1_556
Ni5 Ta6 2.795520 1_556
Ni5 Ta4 2.795522 1_556
Ni5 Ta13 3.052387 1_555
Ni5 Ta14 3.052508 1_555
Ni5 Ta11 3.052511 1_555
Ni6 Ta1 2.496355 1_555
Ni6 Ta2 2.496361 1_555
Ni6 Ta0 2.496364 1_555
Ni6 Ni7 2.636660 1_555
Ni6 Ta8 2.795461 1_565
Ni6 Ta4 2.795518 1_565
Ni6 Ta7 2.795522 1_565
Ni6 Ta10 3.052394 1_555
Ni6 Ta15 3.052502 1_555
Ni6 Ta14 3.052508 1_555
Ni7 Ta1 2.496360 1_555
Ni7 Ta3 2.496361 1_555
Ni7 Ta0 2.496365 1_555
Ni7 Ta5 2.795462 1_655
Ni7 Ta6 2.795520 1_655
Ni7 Ta7 2.795521 1_655
Ni7 Ta12 3.052392 1_555
Ni7 Ta15 3.052507 1_555
Ni7 Ta11 3.052507 1_555
C0 Ta10 2.162372 1_545
C0 Ta12 2.162373 1_455
C0 Ta13 2.162374 1_554
C0 Ta7 2.162464 1_555
C0 Ta4 2.162465 1_555
C0 Ta6 2.162466 1_555
C1 Ta13 2.162327 1_555
C1 Ta14 2.162407 1_545
C1 Ta11 2.162408 1_455
C1 Ta7 2.162418 1_555
C1 Ta8 2.162500 1_555
C1 Ta5 2.162501 1_555
C2 Ta12 2.162327 1_555
C2 Ta15 2.162407 1_545
C2 Ta11 2.162408 1_554
C2 Ta4 2.162418 1_555
C2 Ta8 2.162498 1_555
C2 Ta9 2.162501 1_555
C3 Ta10 2.162327 1_555
C3 Ta15 2.162409 1_455
C3 Ta14 2.162409 1_554
C3 Ta6 2.162417 1_555
C3 Ta9 2.162499 1_555
C3 Ta5 2.162499 1_555
