# generated using pymatgen
data_CoSn(PO4)2
_symmetry_space_group_name_H-M   'P 1'
_cell_length_a   4.97569677
_cell_length_b   11.74688461
_cell_length_c   11.76052199
_cell_angle_alpha   118.26404652
_cell_angle_beta   89.43069913
_cell_angle_gamma   90.51324182
_symmetry_Int_Tables_number   1
_chemical_formula_structural   CoSn(PO4)2
_chemical_formula_sum   'Co4 Sn4 P8 O32'
_cell_volume   605.39875482
_cell_formula_units_Z   4
loop_
 _symmetry_equiv_pos_site_id
 _symmetry_equiv_pos_as_xyz
  1  'x, y, z'
loop_
 _atom_site_type_symbol
 _atom_site_label
 _atom_site_symmetry_multiplicity
 _atom_site_fract_x
 _atom_site_fract_y
 _atom_site_fract_z
 _atom_site_occupancy
  Co  Co0  1  0.94152700  0.76477100  0.48722700  1
  Co  Co1  1  0.05907500  0.23542700  0.51286600  1
  Co  Co2  1  0.94337800  0.26222300  0.98786800  1
  Co  Co3  1  0.05800800  0.73583400  0.01392200  1
  Sn  Sn0  1  0.45757700  0.48625100  0.26419000  1
  Sn  Sn1  1  0.45781500  0.98677900  0.76372900  1
  Sn  Sn2  1  0.54221200  0.51418600  0.73594900  1
  Sn  Sn3  1  0.54311700  0.01319500  0.23575000  1
  P  P0  1  0.40733000  0.17264900  0.07719100  1
  P  P1  1  0.41060100  0.67282800  0.57658700  1
  P  P2  1  0.59106500  0.82721700  0.92296500  1
  P  P3  1  0.58924900  0.32721700  0.42329300  1
  P  P4  1  0.89759200  0.57723400  0.17228300  1
  P  P5  1  0.89802200  0.07825600  0.67228200  1
  P  P6  1  0.10184900  0.42267900  0.82798100  1
  P  P7  1  0.10318900  0.92186200  0.32745500  1
  O  O0  1  0.67458400  0.39936500  0.34686900  1
  O  O1  1  0.67443200  0.90145000  0.84827700  1
  O  O2  1  0.32495800  0.60065500  0.65291200  1
  O  O3  1  0.32359600  0.09867100  0.15185800  1
  O  O4  1  0.70839300  0.18102600  0.06766700  1
  O  O5  1  0.71245600  0.67987000  0.56695100  1
  O  O6  1  0.29016300  0.81865300  0.93274300  1
  O  O7  1  0.28734500  0.32017300  0.43290000  1
  O  O8  1  0.20246500  0.56390100  0.18697600  1
  O  O9  1  0.20293300  0.06452000  0.68618400  1
  O  O10  1  0.79751800  0.43669100  0.81291000  1
  O  O11  1  0.79843900  0.93552000  0.31323200  1
  O  O12  1  0.14497800  0.35009800  0.90258000  1
  O  O13  1  0.15289900  0.84868100  0.40116200  1
  O  O14  1  0.85136400  0.65009300  0.09812900  1
  O  O15  1  0.84802400  0.15103300  0.59820000  1
  O  O16  1  0.26419600  0.10672700  0.94064800  1
  O  O17  1  0.26519000  0.60568800  0.44103800  1
  O  O18  1  0.26454000  0.30929900  0.14305000  1
  O  O19  1  0.26946000  0.80993900  0.64109000  1
  O  O20  1  0.73526900  0.69104300  0.85685300  1
  O  O21  1  0.73048600  0.19013700  0.35851800  1
  O  O22  1  0.73601400  0.89371300  0.05903600  1
  O  O23  1  0.73437700  0.39428600  0.55879500  1
  O  O24  1  0.74989600  0.44046000  0.11193600  1
  O  O25  1  0.74972300  0.94111300  0.61135300  1
  O  O26  1  0.74734300  0.63928200  0.30856600  1
  O  O27  1  0.74965000  0.13907500  0.80893500  1
  O  O28  1  0.25291300  0.36073300  0.69185900  1
  O  O29  1  0.25222100  0.86103200  0.19062500  1
  O  O30  1  0.25105000  0.55953900  0.88824700  1
  O  O31  1  0.25151800  0.05892500  0.38836200  1
loop_
_geom_bond_atom_site_label_1
_geom_bond_atom_site_label_2
_geom_bond_distance
_geom_bond_site_symmetry_2
Co0 O13 2.001829 1_655
Co0 O5 2.004207 1_555
Co0 O25 2.115808 1_555
Co0 O26 2.145413 1_555
Co0 O19 2.313473 1_655
Co0 O17 2.335792 1_655
Co1 O15 1.998846 1_455
Co1 O7 2.002667 1_555
Co1 O31 2.119471 1_555
Co1 O28 2.146738 1_555
Co1 O21 2.319465 1_455
Co1 O23 2.338011 1_455
Co2 O4 1.990861 1_556
Co2 O12 2.004963 1_655
Co2 O24 2.134108 1_556
Co2 O27 2.140653 1_555
Co2 O16 2.294980 1_655
Co2 O18 2.297050 1_656
Co3 O14 1.989525 1_455
Co3 O6 2.007451 1_554
Co3 O30 2.122356 1_554
Co3 O29 2.129617 1_555
Co3 O20 2.321880 1_454
Co3 O22 2.322133 1_455
O0 P3 1.553631 1_555
O0 Sn0 2.033113 1_555
O1 P2 1.554245 1_555
O1 Sn1 2.034615 1_555
O2 P1 1.553303 1_555
O2 Sn2 2.033228 1_555
O3 P0 1.552036 1_555
O3 Sn3 2.038111 1_555
O4 P0 1.506881 1_555
O5 P1 1.509561 1_555
O6 P2 1.506579 1_555
O7 P3 1.509775 1_555
O8 P4 1.546169 1_455
O8 Sn0 2.023856 1_555
O9 P5 1.545572 1_455
O9 Sn1 2.026449 1_545
O10 P6 1.545612 1_655
O10 Sn2 2.021267 1_555
O11 P7 1.545261 1_655
O11 Sn3 2.026824 1_565
O12 P6 1.502701 1_555
O13 P7 1.505116 1_555
O14 P4 1.503448 1_555
O15 P5 1.505103 1_555
O16 P0 1.587665 1_556
O16 Sn1 2.109636 1_545
O17 P1 1.583896 1_555
O17 Sn0 2.105086 1_555
O18 P0 1.585371 1_555
O18 Sn0 2.111813 1_555
O19 P1 1.585973 1_555
O19 Sn1 2.104345 1_555
O20 P2 1.584209 1_555
O20 Sn2 2.110530 1_555
O21 P3 1.585879 1_555
O21 Sn3 2.103302 1_555
O22 P2 1.587503 1_554
O22 Sn3 2.105287 1_565
O23 P3 1.582802 1_555
O23 Sn2 2.108097 1_555
O24 P4 1.591990 1_555
O24 Sn0 2.158973 1_555
O25 P5 1.596622 1_565
O25 Sn1 2.158823 1_555
O26 P4 1.593287 1_555
O26 Sn0 2.159313 1_555
O27 P5 1.592705 1_555
O27 Sn1 2.158646 1_545
O28 P6 1.593704 1_555
O28 Sn2 2.161805 1_555
O29 P7 1.595854 1_555
O29 Sn3 2.154557 1_565
O30 P6 1.596253 1_555
O30 Sn2 2.156214 1_555
O31 P7 1.595952 1_545
O31 Sn3 2.159654 1_555
