# generated using pymatgen
data_Cu5Sn4
_symmetry_space_group_name_H-M   'P 1'
_cell_length_a   7.35850666
_cell_length_b   9.84899469
_cell_length_c   9.80579811
_cell_angle_alpha   117.66485225
_cell_angle_beta   90.00000000
_cell_angle_gamma   90.00000000
_symmetry_Int_Tables_number   1
_chemical_formula_structural   Cu5Sn4
_chemical_formula_sum   'Cu20 Sn16'
_cell_volume   629.42022792
_cell_formula_units_Z   4
loop_
 _symmetry_equiv_pos_site_id
 _symmetry_equiv_pos_as_xyz
  1  'x, y, z'
loop_
 _atom_site_type_symbol
 _atom_site_label
 _atom_site_symmetry_multiplicity
 _atom_site_fract_x
 _atom_site_fract_y
 _atom_site_fract_z
 _atom_site_occupancy
  Cu  Cu0  1  0.77560645  0.94151413  0.05764297  1
  Cu  Cu1  1  0.27560645  0.05848587  0.44235703  1
  Cu  Cu2  1  0.22439355  0.05848587  0.94235703  1
  Cu  Cu3  1  0.72439355  0.94151413  0.55764297  1
  Cu  Cu4  1  0.25503349  0.81031523  0.18754029  1
  Cu  Cu5  1  0.75503349  0.18968477  0.31245971  1
  Cu  Cu6  1  0.74496651  0.18968477  0.81245971  1
  Cu  Cu7  1  0.24496651  0.81031523  0.68754029  1
  Cu  Cu8  1  0.72412903  0.68418618  0.31566615  1
  Cu  Cu9  1  0.22412903  0.31581382  0.18433385  1
  Cu  Cu10  1  0.27587097  0.31581382  0.68433385  1
  Cu  Cu11  1  0.77587097  0.68418618  0.81566615  1
  Cu  Cu12  1  0.24319879  0.57047141  0.43279058  1
  Cu  Cu13  1  0.74319879  0.42952859  0.06720942  1
  Cu  Cu14  1  0.75680121  0.42952859  0.56720942  1
  Cu  Cu15  1  0.25680121  0.57047141  0.93279058  1
  Cu  Cu16  1  0.09053600  0.80912845  0.93762638  1
  Cu  Cu17  1  0.59053600  0.19087155  0.56237362  1
  Cu  Cu18  1  0.90946400  0.19087155  0.06237362  1
  Cu  Cu19  1  0.40946400  0.80912845  0.43762638  1
  Sn  Sn0  1  0.59495420  0.92897225  0.28521785  1
  Sn  Sn1  1  0.09495420  0.07102775  0.21478215  1
  Sn  Sn2  1  0.40504580  0.07102775  0.71478215  1
  Sn  Sn3  1  0.90504580  0.92897225  0.78521785  1
  Sn  Sn4  1  0.05183781  0.81588514  0.43576180  1
  Sn  Sn5  1  0.55183781  0.18411486  0.06423820  1
  Sn  Sn6  1  0.94816219  0.18411486  0.56423820  1
  Sn  Sn7  1  0.44816219  0.81588514  0.93576180  1
  Sn  Sn8  1  0.58402640  0.67617347  0.57691919  1
  Sn  Sn9  1  0.08402640  0.32382653  0.92308081  1
  Sn  Sn10  1  0.41597360  0.32382653  0.42308081  1
  Sn  Sn11  1  0.91597360  0.67617347  0.07691919  1
  Sn  Sn12  1  0.09227080  0.54299258  0.66929658  1
  Sn  Sn13  1  0.59227080  0.45700742  0.83070342  1
  Sn  Sn14  1  0.90772920  0.45700742  0.33070342  1
  Sn  Sn15  1  0.40772920  0.54299258  0.16929658  1
loop_
_geom_bond_atom_site_label_1
_geom_bond_atom_site_label_2
_geom_bond_distance
_geom_bond_site_symmetry_2
Cu0 Cu11 2.543449 1_554
Cu0 Cu5 2.563068 1_565
Cu0 Cu18 2.626426 1_565
Cu0 Sn0 2.649185 1_555
Cu0 Cu16 2.651519 1_654
Cu0 Sn7 2.718793 1_554
Cu0 Sn1 2.774593 1_665
Cu0 Sn3 2.784268 1_554
Cu0 Sn5 2.877690 1_565
Cu0 Sn11 2.896694 1_555
Cu1 Cu10 2.543449 1_555
Cu1 Cu4 2.563068 1_545
Cu1 Cu19 2.626426 1_545
Cu1 Sn1 2.649185 1_555
Cu1 Cu17 2.651519 1_555
Cu1 Sn6 2.718793 1_455
Cu1 Sn0 2.774593 1_545
Cu1 Sn2 2.784268 1_555
Cu1 Sn4 2.877690 1_545
Cu1 Sn10 2.896694 1_555
Cu2 Cu9 2.543449 1_556
Cu2 Cu7 2.563068 1_545
Cu2 Sn2 2.649185 1_555
Cu2 Sn5 2.718793 1_556
Cu2 Sn3 2.774593 1_445
Cu2 Sn1 2.784268 1_556
Cu2 Sn7 2.877690 1_545
Cu2 Sn9 2.896694 1_555
Cu3 Cu8 2.543449 1_555
Cu3 Cu6 2.563068 1_565
Cu3 Sn3 2.649185 1_555
Cu3 Sn4 2.718793 1_655
Cu3 Sn2 2.774593 1_565
Cu3 Sn0 2.784268 1_555
Cu3 Sn6 2.877690 1_565
Cu3 Sn8 2.896694 1_555
Cu4 Sn1 2.723112 1_565
Cu4 Sn0 2.738662 1_555
Cu4 Sn15 2.790893 1_555
Cu4 Sn11 2.795751 1_455
Cu4 Sn4 2.835330 1_555
Cu4 Sn7 2.871206 1_554
Cu5 Sn0 2.723112 1_545
Cu5 Sn1 2.738662 1_655
Cu5 Sn14 2.790893 1_555
Cu5 Sn10 2.795751 1_555
Cu5 Sn5 2.835330 1_555
Cu5 Sn6 2.871206 1_555
Cu6 Sn3 2.723112 1_545
Cu6 Sn2 2.738662 1_555
Cu6 Sn13 2.790893 1_555
Cu6 Sn9 2.795751 1_655
Cu6 Sn6 2.835330 1_555
Cu6 Sn5 2.871206 1_556
Cu7 Sn2 2.723112 1_565
Cu7 Sn3 2.738662 1_455
Cu7 Sn12 2.790893 1_555
Cu7 Sn8 2.795751 1_555
Cu7 Sn7 2.835330 1_555
Cu7 Sn4 2.871206 1_555
Cu8 Sn14 2.675761 1_555
Cu8 Sn11 2.703388 1_555
Cu8 Sn4 2.732385 1_655
Cu8 Sn0 2.733771 1_555
Cu8 Sn15 2.749740 1_555
Cu8 Sn8 2.796355 1_555
Cu9 Sn15 2.675761 1_555
Cu9 Sn10 2.703388 1_555
Cu9 Sn5 2.732385 1_555
Cu9 Sn1 2.733771 1_555
Cu9 Sn14 2.749740 1_455
Cu9 Sn9 2.796355 1_554
Cu10 Cu15 2.563539 1_555
Cu10 Cu17 2.634255 1_555
Cu10 Sn12 2.675761 1_555
Cu10 Sn9 2.703388 1_555
Cu10 Sn6 2.732385 1_455
Cu10 Sn2 2.733771 1_555
Cu10 Sn13 2.749740 1_555
Cu10 Sn10 2.796355 1_555
Cu11 Cu14 2.563539 1_555
Cu11 Cu16 2.634255 1_655
Cu11 Sn13 2.675761 1_555
Cu11 Sn8 2.703388 1_555
Cu11 Sn7 2.732385 1_555
Cu11 Sn3 2.733771 1_555
Cu11 Sn12 2.749740 1_655
Cu11 Sn11 2.796355 1_556
Cu12 Cu7 2.518101 1_555
Cu12 Cu9 2.563539 1_555
Cu12 Cu19 2.630705 1_555
Cu12 Sn12 2.695901 1_555
Cu12 Sn14 2.702939 1_455
Cu12 Sn10 2.704014 1_555
Cu12 Sn15 2.750556 1_555
Cu12 Sn4 2.785778 1_555
Cu12 Sn8 2.829296 1_555
Cu13 Cu6 2.518101 1_554
Cu13 Cu8 2.563539 1_555
Cu13 Cu18 2.630705 1_555
Cu13 Sn13 2.695901 1_554
Cu13 Sn15 2.702939 1_555
Cu13 Sn11 2.704014 1_555
Cu13 Sn14 2.750556 1_555
Cu13 Sn5 2.785778 1_555
Cu13 Sn9 2.829296 1_654
Cu14 Cu5 2.518101 1_555
Cu14 Cu17 2.630705 1_555
Cu14 Sn14 2.695901 1_555
Cu14 Sn12 2.702939 1_655
Cu14 Sn8 2.704014 1_555
Cu14 Sn13 2.750556 1_555
Cu14 Sn6 2.785778 1_555
Cu14 Sn10 2.829296 1_555
Cu15 Cu4 2.518101 1_556
Cu15 Cu16 2.630705 1_555
Cu15 Sn15 2.695901 1_556
Cu15 Sn13 2.702939 1_555
Cu15 Sn9 2.704014 1_555
Cu15 Sn12 2.750556 1_555
Cu15 Sn7 2.785778 1_555
Cu15 Sn11 2.829296 1_456
Cu16 Sn11 2.625109 1_456
Cu16 Cu2 2.626426 1_565
Cu16 Sn7 2.632714 1_555
Cu16 Sn3 2.669791 1_455
Cu16 Cu7 2.707739 1_555
Cu16 Sn12 2.718364 1_555
Cu16 Cu4 2.728408 1_556
Cu16 Sn1 2.744262 1_566
Cu17 Sn10 2.625109 1_555
Cu17 Cu3 2.626426 1_545
Cu17 Sn6 2.632714 1_555
Cu17 Sn2 2.669791 1_555
Cu17 Cu6 2.707739 1_555
Cu17 Sn13 2.718364 1_555
Cu17 Cu5 2.728408 1_555
Cu17 Sn0 2.744262 1_545
Cu18 Sn9 2.625109 1_654
Cu18 Sn5 2.632714 1_555
Cu18 Cu9 2.634255 1_655
Cu18 Cu2 2.651519 1_654
Cu18 Sn1 2.669791 1_655
Cu18 Cu5 2.707739 1_555
Cu18 Sn14 2.718364 1_555
Cu18 Cu6 2.728408 1_554
Cu18 Sn3 2.744262 1_544
Cu19 Sn8 2.625109 1_555
Cu19 Sn4 2.632714 1_555
Cu19 Cu8 2.634255 1_555
Cu19 Cu3 2.651519 1_555
Cu19 Sn0 2.669791 1_555
Cu19 Cu4 2.707739 1_555
Cu19 Sn15 2.718364 1_555
Cu19 Cu7 2.728408 1_555
Cu19 Sn2 2.744262 1_565
Sn0 Sn7 3.256598 1_554
Sn0 Sn11 3.350941 1_555
Sn1 Sn6 3.256598 1_455
Sn1 Sn10 3.350941 1_555
Sn2 Sn5 3.256598 1_556
Sn2 Sn9 3.350941 1_555
Sn3 Sn4 3.256598 1_655
Sn3 Sn8 3.350941 1_555
Sn4 Sn6 3.328561 1_465
Sn5 Sn7 3.328561 1_544
Sn6 Sn9 3.283037 1_655
Sn7 Sn8 3.283037 1_555
Sn10 Sn5 3.283037 1_555
Sn10 Sn8 3.314576 1_555
Sn10 Sn12 3.364941 1_555
Sn11 Sn4 3.283037 1_655
Sn11 Sn9 3.314576 1_654
Sn11 Sn13 3.364941 1_554
Sn12 Sn6 3.361219 1_455
Sn13 Sn7 3.361219 1_555
Sn14 Sn4 3.361219 1_655
Sn14 Sn8 3.364941 1_555
Sn15 Sn5 3.361219 1_555
Sn15 Sn9 3.364941 1_554
