# generated using pymatgen
data_Sr2GaGeN
_symmetry_space_group_name_H-M   'P 1'
_cell_length_a   4.10269000
_cell_length_b   6.96182500
_cell_length_c   8.81559647
_cell_angle_alpha   108.57287672
_cell_angle_beta   90.00000000
_cell_angle_gamma   90.00000000
_symmetry_Int_Tables_number   1
_chemical_formula_structural   Sr2GaGeN
_chemical_formula_sum   'Sr4 Ga2 Ge2 N2'
_cell_volume   238.67936365
_cell_formula_units_Z   2
loop_
 _symmetry_equiv_pos_site_id
 _symmetry_equiv_pos_as_xyz
  1  'x, y, z'
loop_
 _atom_site_type_symbol
 _atom_site_label
 _atom_site_symmetry_multiplicity
 _atom_site_fract_x
 _atom_site_fract_y
 _atom_site_fract_z
 _atom_site_occupancy
  Sr  Sr0  1  0.25000000  0.29813500  0.03403600  1
  Sr  Sr1  1  0.75000000  0.68542200  0.37822300  1
  Sr  Sr2  1  0.25000000  0.31457800  0.62177700  1
  Sr  Sr3  1  0.75000000  0.70186500  0.96596400  1
  Ga  Ga0  1  0.25000000  0.96329800  0.24769800  1
  Ga  Ga1  1  0.75000000  0.03670200  0.75230200  1
  Ge  Ge0  1  0.75000000  0.17695800  0.29966200  1
  Ge  Ge1  1  0.25000000  0.82304200  0.70033800  1
  N  N0  1  0.25000000  0.67640900  0.17089000  1
  N  N1  1  0.75000000  0.32359100  0.82911000  1
loop_
_geom_bond_atom_site_label_1
_geom_bond_atom_site_label_2
_geom_bond_distance
_geom_bond_site_symmetry_2
Ga0 N0 1.893695 1_555
Ga0 Ge0 2.489247 1_565
Ga0 Ge0 2.489247 1_465
Ga1 N1 1.893695 1_555
Ga1 Ge1 2.489247 1_545
Ga1 Ge1 2.489247 1_645
Ge0 Sr1 3.383548 1_555
Ge0 Sr2 3.384729 1_555
Ge0 Sr2 3.384729 1_655
Ge0 Sr0 3.414884 1_655
Ge0 Sr0 3.414884 1_555
Ge1 Sr2 3.383548 1_555
Ge1 Sr1 3.384729 1_455
Ge1 Sr1 3.384729 1_555
Ge1 Sr3 3.414884 1_455
Ge1 Sr3 3.414884 1_555
N0 Sr0 2.523253 1_555
N0 Sr1 2.734889 1_455
N0 Sr1 2.734889 1_555
N0 Sr3 2.776144 1_554
N0 Sr3 2.776144 1_454
N1 Sr3 2.523253 1_555
N1 Sr2 2.734889 1_555
N1 Sr2 2.734889 1_655
N1 Sr0 2.776144 1_656
N1 Sr0 2.776144 1_556
