# generated using pymatgen
data_V3(O2F)2
_symmetry_space_group_name_H-M   'P 1'
_cell_length_a   4.69059000
_cell_length_b   5.61887750
_cell_length_c   7.71569734
_cell_angle_alpha   85.51944661
_cell_angle_beta   88.66446225
_cell_angle_gamma   88.59657702
_symmetry_Int_Tables_number   1
_chemical_formula_structural   V3(O2F)2
_chemical_formula_sum   'V6 O8 F4'
_cell_volume   202.62478419
_cell_formula_units_Z   2
loop_
 _symmetry_equiv_pos_site_id
 _symmetry_equiv_pos_as_xyz
  1  'x, y, z'
loop_
 _atom_site_type_symbol
 _atom_site_label
 _atom_site_symmetry_multiplicity
 _atom_site_fract_x
 _atom_site_fract_y
 _atom_site_fract_z
 _atom_site_occupancy
  V  V0  1  0.49401400  0.83095000  0.67374400  1
  V  V1  1  0.49395900  0.49607300  0.98672600  1
  V  V2  1  0.52971600  0.16595700  0.34380400  1
  V  V3  1  0.00660200  0.34001400  0.67070200  1
  V  V4  1  0.94198800  0.66043900  0.32568900  1
  V  V5  1  0.00942400  0.00239900  0.00335300  1
  O  O0  1  0.81147300  0.37217100  0.42949500  1
  O  O1  1  0.80622400  0.69621700  0.10567000  1
  O  O2  1  0.68167500  0.19497800  0.11976900  1
  O  O3  1  0.70251500  0.53942400  0.75436200  1
  O  O4  1  0.71145200  0.86745500  0.43389500  1
  O  O5  1  0.31919800  0.13955800  0.55005900  1
  O  O6  1  0.29894800  0.79867200  0.89725500  1
  O  O7  1  0.19480700  0.29513700  0.89872700  1
  F  F0  1  0.80125500  0.03695000  0.77029300  1
  F  F1  1  0.29480900  0.47068400  0.24214900  1
  F  F2  1  0.20202800  0.95717100  0.24119300  1
  F  F3  1  0.19991000  0.63575200  0.55311500  1
loop_
_geom_bond_atom_site_label_1
_geom_bond_atom_site_label_2
_geom_bond_distance
_geom_bond_site_symmetry_2
O0 V4 1.860878 1_555
O0 V2 1.939533 1_555
O0 V3 2.086324 1_655
O1 V4 1.821700 1_555
O1 V5 2.079543 1_665
O1 V1 2.134688 1_554
O2 V2 1.851181 1_555
O2 V5 2.084974 1_655
O2 V1 2.095014 1_554
O3 V3 1.923113 1_655
O3 V0 1.953786 1_555
O3 V1 2.022944 1_555
O4 V4 1.807599 1_555
O4 V2 1.948958 1_565
O4 V0 2.090450 1_555
O5 V2 1.851125 1_555
O5 V0 2.073220 1_545
O5 V3 2.074685 1_555
O6 V0 1.931276 1_555
O6 V5 1.960414 1_566
O6 V1 1.993498 1_555
O7 V3 1.982543 1_555
O7 V5 1.985759 1_556
O7 V1 1.986575 1_555
F0 V0 2.058661 1_545
F0 V5 2.059789 1_656
F0 V3 2.063833 1_655
F1 V4 2.064537 1_455
F1 V2 2.121090 1_555
F1 V1 2.157234 1_554
F2 V5 2.059498 1_565
F2 V4 2.141357 1_455
F2 V2 2.157723 1_565
F3 V3 2.050973 1_555
F3 V0 2.065374 1_555
F3 V4 2.148192 1_455
