# generated using pymatgen
data_Ca4Sn5S14
_symmetry_space_group_name_H-M   'P 1'
_cell_length_a   14.20413900
_cell_length_b   15.97037200
_cell_length_c   21.88733400
_cell_angle_alpha   90.00000000
_cell_angle_beta   90.00000000
_cell_angle_gamma   90.00000000
_symmetry_Int_Tables_number   1
_chemical_formula_structural   Ca4Sn5S14
_chemical_formula_sum   'Ca32 Sn40 S112'
_cell_volume   4965.04068093
_cell_formula_units_Z   8
loop_
 _symmetry_equiv_pos_site_id
 _symmetry_equiv_pos_as_xyz
  1  'x, y, z'
loop_
 _atom_site_type_symbol
 _atom_site_label
 _atom_site_symmetry_multiplicity
 _atom_site_fract_x
 _atom_site_fract_y
 _atom_site_fract_z
 _atom_site_occupancy
  Ca  Ca0  1  0.41231700  0.71729300  0.63169000  1
  Ca  Ca1  1  0.91231700  0.28270700  0.86831000  1
  Ca  Ca2  1  0.58768300  0.78270700  0.13169000  1
  Ca  Ca3  1  0.08768300  0.21729300  0.36831000  1
  Ca  Ca4  1  0.58768300  0.28270700  0.36831000  1
  Ca  Ca5  1  0.08768300  0.71729300  0.13169000  1
  Ca  Ca6  1  0.41231700  0.21729300  0.86831000  1
  Ca  Ca7  1  0.91231700  0.78270700  0.63169000  1
  Ca  Ca8  1  0.37346900  0.79979900  0.99448700  1
  Ca  Ca9  1  0.87346900  0.20020100  0.50551300  1
  Ca  Ca10  1  0.62653100  0.70020100  0.49448700  1
  Ca  Ca11  1  0.12653100  0.29979900  0.00551300  1
  Ca  Ca12  1  0.62653100  0.20020100  0.00551300  1
  Ca  Ca13  1  0.12653100  0.79979900  0.49448700  1
  Ca  Ca14  1  0.37346900  0.29979900  0.50551300  1
  Ca  Ca15  1  0.87346900  0.70020100  0.99448700  1
  Ca  Ca16  1  0.13911300  0.70450600  0.81032600  1
  Ca  Ca17  1  0.63911300  0.29549400  0.68967400  1
  Ca  Ca18  1  0.86088700  0.79549400  0.31032600  1
  Ca  Ca19  1  0.36088700  0.20450600  0.18967400  1
  Ca  Ca20  1  0.86088700  0.29549400  0.18967400  1
  Ca  Ca21  1  0.36088700  0.70450600  0.31032600  1
  Ca  Ca22  1  0.13911300  0.20450600  0.68967400  1
  Ca  Ca23  1  0.63911300  0.79549400  0.81032600  1
  Ca  Ca24  1  0.10913600  0.87622400  0.95692300  1
  Ca  Ca25  1  0.60913600  0.12377600  0.54307700  1
  Ca  Ca26  1  0.89086400  0.62377600  0.45692300  1
  Ca  Ca27  1  0.39086400  0.37622400  0.04307700  1
  Ca  Ca28  1  0.89086400  0.12377600  0.04307700  1
  Ca  Ca29  1  0.39086400  0.87622400  0.45692300  1
  Ca  Ca30  1  0.10913600  0.37622400  0.54307700  1
  Ca  Ca31  1  0.60913600  0.62377600  0.95692300  1
  Sn  Sn0  1  0.38288700  0.59380800  0.79629400  1
  Sn  Sn1  1  0.88288700  0.40619200  0.70370600  1
  Sn  Sn2  1  0.61711300  0.90619200  0.29629400  1
  Sn  Sn3  1  0.11711300  0.09380800  0.20370600  1
  Sn  Sn4  1  0.61711300  0.40619200  0.20370600  1
  Sn  Sn5  1  0.11711300  0.59380800  0.29629400  1
  Sn  Sn6  1  0.38288700  0.09380800  0.70370600  1
  Sn  Sn7  1  0.88288700  0.90619200  0.79629400  1
  Sn  Sn8  1  0.32184800  0.92598200  0.85361500  1
  Sn  Sn9  1  0.82184800  0.07401800  0.64638500  1
  Sn  Sn10  1  0.67815200  0.57401800  0.35361500  1
  Sn  Sn11  1  0.17815200  0.42598200  0.14638500  1
  Sn  Sn12  1  0.67815200  0.07401800  0.14638500  1
  Sn  Sn13  1  0.17815200  0.92598200  0.35361500  1
  Sn  Sn14  1  0.32184800  0.42598200  0.64638500  1
  Sn  Sn15  1  0.82184800  0.57401800  0.85361500  1
  Sn  Sn16  1  0.17012200  0.92883300  0.65661900  1
  Sn  Sn17  1  0.67012200  0.07116700  0.84338100  1
  Sn  Sn18  1  0.82987800  0.57116700  0.15661900  1
  Sn  Sn19  1  0.32987800  0.42883300  0.34338100  1
  Sn  Sn20  1  0.82987800  0.07116700  0.34338100  1
  Sn  Sn21  1  0.32987800  0.92883300  0.15661900  1
  Sn  Sn22  1  0.17012200  0.42883300  0.84338100  1
  Sn  Sn23  1  0.67012200  0.57116700  0.65661900  1
  Sn  Sn24  1  0.12043000  0.56458500  0.98067300  1
  Sn  Sn25  1  0.62043000  0.43541500  0.51932700  1
  Sn  Sn26  1  0.87957000  0.93541500  0.48067300  1
  Sn  Sn27  1  0.37957000  0.06458500  0.01932700  1
  Sn  Sn28  1  0.87957000  0.43541500  0.01932700  1
  Sn  Sn29  1  0.37957000  0.56458500  0.48067300  1
  Sn  Sn30  1  0.12043000  0.06458500  0.51932700  1
  Sn  Sn31  1  0.62043000  0.93541500  0.98067300  1
  Sn  Sn32  1  0.10656200  0.61002000  0.64590900  1
  Sn  Sn33  1  0.60656200  0.38998000  0.85409100  1
  Sn  Sn34  1  0.89343800  0.88998000  0.14590900  1
  Sn  Sn35  1  0.39343800  0.11002000  0.35409100  1
  Sn  Sn36  1  0.89343800  0.38998000  0.35409100  1
  Sn  Sn37  1  0.39343800  0.61002000  0.14590900  1
  Sn  Sn38  1  0.10656200  0.11002000  0.85409100  1
  Sn  Sn39  1  0.60656200  0.88998000  0.64590900  1
  S  S0  1  0.53240200  0.57092300  0.56761300  1
  S  S1  1  0.03240200  0.42907700  0.93238700  1
  S  S2  1  0.46759800  0.92907700  0.06761300  1
  S  S3  1  0.96759800  0.07092300  0.43238700  1
  S  S4  1  0.46759800  0.42907700  0.43238700  1
  S  S5  1  0.96759800  0.57092300  0.06761300  1
  S  S6  1  0.53240200  0.07092300  0.93238700  1
  S  S7  1  0.03240200  0.92907700  0.56761300  1
  S  S8  1  0.48588600  0.74411600  0.88895500  1
  S  S9  1  0.98588600  0.25588400  0.61104500  1
  S  S10  1  0.51411400  0.75588400  0.38895500  1
  S  S11  1  0.01411400  0.24411600  0.11104500  1
  S  S12  1  0.51411400  0.25588400  0.11104500  1
  S  S13  1  0.01411400  0.74411600  0.38895500  1
  S  S14  1  0.48588600  0.24411600  0.61104500  1
  S  S15  1  0.98588600  0.75588400  0.88895500  1
  S  S16  1  0.54337200  0.53378700  0.84981300  1
  S  S17  1  0.04337200  0.46621300  0.65018700  1
  S  S18  1  0.45662800  0.96621300  0.34981300  1
  S  S19  1  0.95662800  0.03378700  0.15018700  1
  S  S20  1  0.45662800  0.46621300  0.15018700  1
  S  S21  1  0.95662800  0.53378700  0.34981300  1
  S  S22  1  0.54337200  0.03378700  0.65018700  1
  S  S23  1  0.04337200  0.96621300  0.84981300  1
  S  S24  1  0.49055500  0.81712400  0.72398900  1
  S  S25  1  0.99055500  0.18287600  0.77601100  1
  S  S26  1  0.50944500  0.68287600  0.22398900  1
  S  S27  1  0.00944500  0.31712400  0.27601200  1
  S  S28  1  0.50944500  0.18287600  0.27601200  1
  S  S29  1  0.00944500  0.81712400  0.22398900  1
  S  S30  1  0.49055500  0.31712400  0.77601100  1
  S  S31  1  0.99055500  0.68287600  0.72398900  1
  S  S32  1  0.29948200  0.74466400  0.53419900  1
  S  S33  1  0.79948200  0.25533600  0.96580100  1
  S  S34  1  0.70051800  0.75533600  0.03419900  1
  S  S35  1  0.20051800  0.24466400  0.46580100  1
  S  S36  1  0.70051800  0.25533600  0.46580100  1
  S  S37  1  0.20051800  0.74466400  0.03419900  1
  S  S38  1  0.29948200  0.24466400  0.96580100  1
  S  S39  1  0.79948200  0.75533600  0.53419900  1
  S  S40  1  0.25041700  0.79859100  0.88736900  1
  S  S41  1  0.75041700  0.20140900  0.61263100  1
  S  S42  1  0.74958300  0.70140900  0.38736900  1
  S  S43  1  0.24958400  0.29859100  0.11263100  1
  S  S44  1  0.74958300  0.20140900  0.11263100  1
  S  S45  1  0.24958400  0.79859100  0.38736900  1
  S  S46  1  0.25041700  0.29859100  0.61263100  1
  S  S47  1  0.75041700  0.70140900  0.88736900  1
  S  S48  1  0.33222800  0.94546600  0.74598500  1
  S  S49  1  0.83222800  0.05453400  0.75401500  1
  S  S50  1  0.66777200  0.55453400  0.24598500  1
  S  S51  1  0.16777200  0.44546600  0.25401500  1
  S  S52  1  0.66777200  0.05453400  0.25401500  1
  S  S53  1  0.16777200  0.94546600  0.24598500  1
  S  S54  1  0.33222800  0.44546600  0.75401500  1
  S  S55  1  0.83222800  0.55453400  0.74598500  1
  S  S56  1  0.24135700  0.57086900  0.87983600  1
  S  S57  1  0.74135700  0.42913100  0.62016400  1
  S  S58  1  0.75864300  0.92913100  0.37983600  1
  S  S59  1  0.25864300  0.07086900  0.12016400  1
  S  S60  1  0.75864300  0.42913100  0.12016400  1
  S  S61  1  0.25864300  0.57086900  0.37983600  1
  S  S62  1  0.24135700  0.07086900  0.62016400  1
  S  S63  1  0.74135700  0.92913100  0.87983600  1
  S  S64  1  0.28675600  0.86986700  0.56680100  1
  S  S65  1  0.78675600  0.13013300  0.93319900  1
  S  S66  1  0.71324400  0.63013300  0.06680100  1
  S  S67  1  0.21324400  0.36986700  0.43319900  1
  S  S68  1  0.71324400  0.13013300  0.43319900  1
  S  S69  1  0.21324400  0.86986700  0.06680100  1
  S  S70  1  0.28675600  0.36986700  0.93319900  1
  S  S71  1  0.78675600  0.63013300  0.56680100  1
  S  S72  1  0.24564700  0.66344900  0.70255000  1
  S  S73  1  0.74564700  0.33655100  0.79745000  1
  S  S74  1  0.75435300  0.83655100  0.20255000  1
  S  S75  1  0.25435300  0.16344900  0.29745000  1
  S  S76  1  0.75435300  0.33655100  0.29745000  1
  S  S77  1  0.25435300  0.66344900  0.20255000  1
  S  S78  1  0.24564700  0.16344900  0.79745000  1
  S  S79  1  0.74564700  0.83655100  0.70255000  1
  S  S80  1  0.24962400  0.51986200  0.57279500  1
  S  S81  1  0.74962400  0.48013800  0.92720500  1
  S  S82  1  0.75037600  0.98013800  0.07279500  1
  S  S83  1  0.25037600  0.01986200  0.42720500  1
  S  S84  1  0.75037600  0.48013800  0.42720500  1
  S  S85  1  0.25037600  0.51986200  0.07279500  1
  S  S86  1  0.24962400  0.01986200  0.92720500  1
  S  S87  1  0.74962400  0.98013800  0.57279500  1
  S  S88  1  0.04980000  0.80577400  0.71988400  1
  S  S89  1  0.54980000  0.19422600  0.78011600  1
  S  S90  1  0.95020000  0.69422600  0.21988400  1
  S  S91  1  0.45020000  0.30577400  0.28011600  1
  S  S92  1  0.95020000  0.19422600  0.28011600  1
  S  S93  1  0.45020000  0.80577400  0.21988400  1
  S  S94  1  0.04980000  0.30577400  0.78011600  1
  S  S95  1  0.54980000  0.69422600  0.71988400  1
  S  S96  1  0.03445900  0.67720000  0.55718600  1
  S  S97  1  0.53445900  0.32280000  0.94281400  1
  S  S98  1  0.96554100  0.82280000  0.05718600  1
  S  S99  1  0.46554100  0.17720000  0.44281400  1
  S  S100  1  0.96554100  0.32280000  0.44281400  1
  S  S101  1  0.46554100  0.67720000  0.05718600  1
  S  S102  1  0.03445900  0.17720000  0.94281400  1
  S  S103  1  0.53445900  0.82280000  0.55718600  1
  S  S104  1  0.98688000  0.62471800  0.89336100  1
  S  S105  1  0.48688000  0.37528200  0.60663900  1
  S  S106  1  0.01312000  0.87528200  0.39336100  1
  S  S107  1  0.51312000  0.12471800  0.10663900  1
  S  S108  1  0.01312000  0.37528200  0.10663900  1
  S  S109  1  0.51312000  0.62471800  0.39336100  1
  S  S110  1  0.98688000  0.12471800  0.60663900  1
  S  S111  1  0.48688000  0.87528200  0.89336100  1
loop_
_geom_bond_atom_site_label_1
_geom_bond_atom_site_label_2
_geom_bond_distance
_geom_bond_site_symmetry_2
Ca0 S32 2.704253 1_555
Ca0 S95 2.770456 1_555
Ca0 S24 2.803218 1_555
Ca0 S103 2.916898 1_555
Ca0 S72 2.957947 1_555
Ca0 S0 3.215689 1_555
Ca0 S64 3.336953 1_555
Ca1 S33 2.704253 1_555
Ca1 S94 2.770456 1_655
Ca1 S25 2.803218 1_555
Ca1 S102 2.916898 1_655
Ca1 S73 2.957947 1_555
Ca1 S1 3.215689 1_655
Ca1 S65 3.336953 1_555
Ca2 S34 2.704253 1_555
Ca2 S93 2.770456 1_555
Ca2 S26 2.803218 1_555
Ca2 S101 2.916898 1_555
Ca2 S74 2.957947 1_555
Ca2 S2 3.215689 1_555
Ca2 S66 3.336953 1_555
Ca3 S35 2.704253 1_555
Ca3 S92 2.770456 1_455
Ca3 S27 2.803203 1_555
Ca3 S100 2.916898 1_455
Ca3 S75 2.957947 1_555
Ca3 S3 3.215689 1_455
Ca3 S67 3.336953 1_555
Ca4 S36 2.704253 1_555
Ca4 S91 2.770456 1_555
Ca4 S28 2.803203 1_555
Ca4 S99 2.916898 1_555
Ca4 S76 2.957947 1_555
Ca4 S4 3.215689 1_555
Ca4 S68 3.336953 1_555
Ca5 S37 2.704253 1_555
Ca5 S90 2.770456 1_455
Ca5 S29 2.803218 1_555
Ca5 S98 2.916898 1_455
Ca5 S77 2.957947 1_555
Ca5 S5 3.215689 1_455
Ca5 S69 3.336953 1_555
Ca6 S38 2.704253 1_555
Ca6 S89 2.770456 1_555
Ca6 S30 2.803218 1_555
Ca6 S97 2.916898 1_555
Ca6 S78 2.957947 1_555
Ca6 S6 3.215689 1_555
Ca6 S70 3.336953 1_555
Ca7 S39 2.704253 1_555
Ca7 S88 2.770456 1_655
Ca7 S31 2.803218 1_555
Ca7 S96 2.916898 1_655
Ca7 S79 2.957947 1_555
Ca7 S7 3.215689 1_655
Ca7 S71 3.336953 1_555
Ca8 S101 2.725284 1_556
Ca8 S37 2.750600 1_556
Ca8 S40 2.924406 1_555
Ca8 S2 2.934617 1_556
Ca8 S8 2.945469 1_555
Ca8 S69 2.989456 1_556
Ca8 S111 2.991199 1_555
Ca9 S100 2.725284 1_555
Ca9 S36 2.750600 1_555
Ca9 S41 2.924406 1_555
Ca9 S3 2.934617 1_555
Ca9 S9 2.945469 1_555
Ca9 S68 2.989456 1_555
Ca9 S110 2.991199 1_555
Ca10 S103 2.725284 1_555
Ca10 S39 2.750600 1_555
Ca10 S42 2.924406 1_555
Ca10 S0 2.934617 1_555
Ca10 S10 2.945469 1_555
Ca10 S71 2.989456 1_555
Ca10 S109 2.991199 1_555
Ca11 S102 2.725284 1_554
Ca11 S38 2.750600 1_554
Ca11 S43 2.924415 1_555
Ca11 S1 2.934617 1_554
Ca11 S11 2.945469 1_555
Ca11 S70 2.989456 1_554
Ca11 S108 2.991199 1_555
Ca12 S97 2.725284 1_554
Ca12 S33 2.750600 1_554
Ca12 S44 2.924406 1_555
Ca12 S6 2.934617 1_554
Ca12 S12 2.945469 1_555
Ca12 S65 2.989456 1_554
Ca12 S107 2.991199 1_555
Ca13 S96 2.725284 1_555
Ca13 S32 2.750600 1_555
Ca13 S45 2.924415 1_555
Ca13 S7 2.934617 1_555
Ca13 S13 2.945469 1_555
Ca13 S64 2.989456 1_555
Ca13 S106 2.991199 1_555
Ca14 S99 2.725284 1_555
Ca14 S35 2.750600 1_555
Ca14 S46 2.924406 1_555
Ca14 S4 2.934617 1_555
Ca14 S14 2.945469 1_555
Ca14 S67 2.989456 1_555
Ca14 S105 2.991199 1_555
Ca15 S98 2.725284 1_556
Ca15 S34 2.750600 1_556
Ca15 S47 2.924406 1_555
Ca15 S5 2.934617 1_556
Ca15 S15 2.945469 1_555
Ca15 S66 2.989456 1_556
Ca15 S104 2.991199 1_555
Ca16 S40 2.756938 1_555
Ca16 S31 2.853582 1_455
Ca16 S88 2.853692 1_555
Ca16 S72 2.878251 1_555
Ca16 S15 2.893441 1_455
Ca16 S56 2.996450 1_555
Ca16 S104 3.098774 1_455
Ca17 S41 2.756938 1_555
Ca17 S30 2.853582 1_555
Ca17 S89 2.853692 1_555
Ca17 S73 2.878251 1_555
Ca17 S14 2.893441 1_555
Ca17 S57 2.996450 1_555
Ca17 S105 3.098774 1_555
Ca18 S42 2.756938 1_555
Ca18 S29 2.853582 1_655
Ca18 S90 2.853692 1_555
Ca18 S74 2.878251 1_555
Ca18 S13 2.893441 1_655
Ca18 S58 2.996450 1_555
Ca18 S106 3.098774 1_655
Ca19 S43 2.756930 1_555
Ca19 S28 2.853596 1_555
Ca19 S91 2.853692 1_555
Ca19 S75 2.878251 1_555
Ca19 S12 2.893441 1_555
Ca19 S59 2.996450 1_555
Ca19 S107 3.098774 1_555
Ca20 S44 2.756938 1_555
Ca20 S27 2.853596 1_655
Ca20 S92 2.853692 1_555
Ca20 S76 2.878251 1_555
Ca20 S11 2.893441 1_655
Ca20 S60 2.996450 1_555
Ca20 S108 3.098774 1_655
Ca21 S45 2.756930 1_555
Ca21 S26 2.853582 1_555
Ca21 S93 2.853692 1_555
Ca21 S77 2.878251 1_555
Ca21 S10 2.893441 1_555
Ca21 S61 2.996450 1_555
Ca21 S109 3.098774 1_555
Ca22 S46 2.756938 1_555
Ca22 S25 2.853582 1_455
Ca22 S94 2.853692 1_555
Ca22 S78 2.878251 1_555
Ca22 S9 2.893441 1_455
Ca22 S62 2.996450 1_555
Ca22 S110 3.098774 1_455
Ca23 S47 2.756938 1_555
Ca23 S24 2.853582 1_555
Ca23 S95 2.853692 1_555
Ca23 S79 2.878251 1_555
Ca23 S8 2.893441 1_555
Ca23 S63 2.996450 1_555
Ca23 S111 3.098774 1_555
Ca24 S40 2.807467 1_555
Ca24 S69 2.825026 1_556
Ca24 S23 2.904134 1_555
Ca24 S37 2.993324 1_556
Ca24 S15 2.995243 1_455
Ca24 S86 3.109238 1_565
Ca24 S98 3.115106 1_456
Ca25 S41 2.807467 1_555
Ca25 S68 2.825026 1_555
Ca25 S22 2.904134 1_555
Ca25 S36 2.993324 1_555
Ca25 S14 2.995243 1_555
Ca25 S87 3.109238 1_545
Ca25 S99 3.115106 1_555
Ca26 S42 2.807467 1_555
Ca26 S71 2.825026 1_555
Ca26 S21 2.904134 1_555
Ca26 S39 2.993324 1_555
Ca26 S13 2.995243 1_655
Ca26 S84 3.109238 1_555
Ca26 S96 3.115106 1_655
Ca27 S43 2.807457 1_555
Ca27 S70 2.825026 1_554
Ca27 S20 2.904134 1_555
Ca27 S38 2.993324 1_554
Ca27 S12 2.995243 1_555
Ca27 S85 3.109238 1_555
Ca27 S97 3.115106 1_554
Ca28 S44 2.807467 1_555
Ca28 S65 2.825026 1_554
Ca28 S19 2.904134 1_555
Ca28 S33 2.993324 1_554
Ca28 S11 2.995243 1_655
Ca28 S82 3.109238 1_545
Ca28 S102 3.115106 1_654
Ca29 S45 2.807457 1_555
Ca29 S64 2.825026 1_555
Ca29 S18 2.904134 1_555
Ca29 S32 2.993324 1_555
Ca29 S10 2.995243 1_555
Ca29 S83 3.109238 1_565
Ca29 S103 3.115106 1_555
Ca30 S46 2.807467 1_555
Ca30 S67 2.825026 1_555
Ca30 S17 2.904134 1_555
Ca30 S35 2.993324 1_555
Ca30 S9 2.995243 1_455
Ca30 S80 3.109238 1_555
Ca30 S100 3.115106 1_455
Ca31 S47 2.807467 1_555
Ca31 S66 2.825026 1_556
Ca31 S16 2.904134 1_555
Ca31 S34 2.993324 1_556
Ca31 S8 2.995243 1_555
Ca31 S81 3.109238 1_555
Ca31 S101 3.115106 1_556
S0 Sn25 2.713619 1_555
S0 Sn23 2.760764 1_555
S0 Sn29 2.888562 1_555
S1 Sn24 2.713619 1_555
S1 Sn22 2.760764 1_555
S1 Sn28 2.888562 1_456
S2 Sn27 2.713619 1_565
S2 Sn21 2.760764 1_555
S2 Sn31 2.888562 1_554
S3 Sn26 2.713619 1_545
S3 Sn20 2.760764 1_555
S3 Sn30 2.888562 1_655
S4 Sn29 2.713619 1_555
S4 Sn19 2.760764 1_555
S4 Sn25 2.888562 1_555
S5 Sn28 2.713619 1_555
S5 Sn18 2.760764 1_555
S5 Sn24 2.888562 1_654
S6 Sn31 2.713619 1_545
S6 Sn17 2.760764 1_555
S6 Sn27 2.888562 1_556
S7 Sn30 2.713619 1_565
S7 Sn16 2.760764 1_555
S7 Sn26 2.888562 1_455
S10 S109 2.097036 1_555
S16 Sn33 2.467587 1_555
S16 Sn0 2.736300 1_555
S17 Sn32 2.467587 1_555
S17 Sn1 2.736300 1_455
S18 Sn35 2.467587 1_565
S18 Sn2 2.736300 1_555
S19 Sn34 2.467587 1_545
S19 Sn3 2.736300 1_655
S20 Sn37 2.467587 1_555
S20 Sn4 2.736300 1_555
S21 Sn36 2.467587 1_555
S21 Sn5 2.736300 1_655
S22 Sn39 2.467587 1_545
S22 Sn6 2.736300 1_555
S23 Sn38 2.467587 1_565
S23 Sn7 2.736300 1_455
S24 S95 2.137412 1_555
S24 Sn39 2.643776 1_555
S25 S94 2.137412 1_655
S25 Sn38 2.643776 1_655
S26 S93 2.137412 1_555
S26 Sn37 2.643776 1_555
S27 S92 2.137412 1_455
S27 Sn36 2.643762 1_455
S28 S91 2.137412 1_555
S28 Sn35 2.643762 1_555
S29 S90 2.137412 1_455
S29 Sn34 2.643776 1_455
S30 S89 2.137412 1_555
S30 Sn33 2.643776 1_555
S31 S88 2.137412 1_655
S31 Sn32 2.643776 1_655
S32 S64 2.130730 1_555
S33 S65 2.130730 1_555
S34 S66 2.130730 1_555
S35 S67 2.130730 1_555
S36 S68 2.130730 1_555
S37 S69 2.130730 1_555
S38 S70 2.130730 1_555
S39 S71 2.130730 1_555
S40 Sn8 2.390474 1_555
S41 Sn9 2.390474 1_555
S42 Sn10 2.390474 1_555
S43 Sn11 2.390480 1_555
S44 Sn12 2.390474 1_555
S45 Sn13 2.390480 1_555
S46 Sn14 2.390474 1_555
S47 Sn15 2.390474 1_555
S48 Sn8 2.380766 1_555
S48 Sn6 2.643222 1_565
S48 Sn16 3.032868 1_555
S49 Sn9 2.380766 1_555
S49 Sn7 2.643222 1_545
S49 Sn17 3.032868 1_555
S50 Sn10 2.380766 1_555
S50 Sn4 2.643222 1_555
S50 Sn18 3.032868 1_555
S51 Sn11 2.380766 1_555
S51 Sn5 2.643222 1_555
S51 Sn19 3.032868 1_555
S52 Sn12 2.380766 1_555
S52 Sn2 2.643222 1_545
S52 Sn20 3.032868 1_555
S53 Sn13 2.380766 1_555
S53 Sn3 2.643222 1_565
S53 Sn21 3.032868 1_555
S54 Sn14 2.380766 1_555
S54 Sn0 2.643222 1_555
S54 Sn22 3.032868 1_555
S55 Sn15 2.380766 1_555
S55 Sn1 2.643222 1_555
S55 Sn23 3.032868 1_555
S56 Sn22 2.608821 1_555
S56 Sn0 2.742083 1_555
S56 Sn24 2.798486 1_555
S57 Sn23 2.608821 1_555
S57 Sn1 2.742083 1_555
S57 Sn25 2.798486 1_555
S58 Sn20 2.608821 1_565
S58 Sn2 2.742083 1_555
S58 Sn26 2.798486 1_555
S59 Sn21 2.608821 1_545
S59 Sn3 2.742083 1_555
S59 Sn27 2.798486 1_555
S60 Sn18 2.608821 1_555
S60 Sn4 2.742083 1_555
S60 Sn28 2.798486 1_555
S61 Sn19 2.608821 1_555
S61 Sn5 2.742083 1_555
S61 Sn29 2.798486 1_555
S62 Sn16 2.608821 1_545
S62 Sn6 2.742083 1_555
S62 Sn30 2.798486 1_555
S63 Sn17 2.608821 1_565
S63 Sn7 2.742083 1_555
S63 Sn31 2.798486 1_555
S64 Sn16 2.737899 1_555
S65 Sn17 2.737899 1_555
S66 Sn18 2.737899 1_555
S67 Sn19 2.737899 1_555
S68 Sn20 2.737899 1_555
S69 Sn21 2.737899 1_555
S70 Sn22 2.737899 1_555
S71 Sn23 2.737899 1_555
S72 Sn32 2.483530 1_555
S72 Sn0 3.040880 1_555
S73 Sn33 2.483530 1_555
S73 Sn1 3.040880 1_555
S74 Sn34 2.483530 1_555
S74 Sn2 3.040880 1_555
S75 Sn35 2.483530 1_555
S75 Sn3 3.040880 1_555
S76 Sn36 2.483530 1_555
S76 Sn4 3.040880 1_555
S77 Sn37 2.483530 1_555
S77 Sn5 3.040880 1_555
S78 Sn38 2.483530 1_555
S78 Sn6 3.040880 1_555
S79 Sn39 2.483530 1_555
S79 Sn7 3.040880 1_555
S80 Sn14 2.427889 1_555
S80 Sn29 2.825332 1_555
S80 Sn32 2.960299 1_555
S81 Sn15 2.427889 1_555
S81 Sn28 2.825332 1_556
S81 Sn33 2.960299 1_555
S82 Sn12 2.427889 1_565
S82 Sn31 2.825332 1_554
S82 Sn34 2.960299 1_555
S83 Sn13 2.427889 1_545
S83 Sn30 2.825332 1_555
S83 Sn35 2.960299 1_555
S84 Sn10 2.427889 1_555
S84 Sn25 2.825332 1_555
S84 Sn36 2.960299 1_555
S85 Sn11 2.427889 1_555
S85 Sn24 2.825332 1_554
S85 Sn37 2.960299 1_555
S86 Sn8 2.427889 1_545
S86 Sn27 2.825332 1_556
S86 Sn38 2.960299 1_555
S87 Sn9 2.427889 1_565
S87 Sn26 2.825332 1_555
S87 Sn39 2.960299 1_555
S88 Sn16 2.949698 1_555
S89 Sn17 2.949698 1_555
S90 Sn18 2.949698 1_555
S91 Sn19 2.949698 1_555
S92 Sn20 2.949698 1_555
S93 Sn21 2.949698 1_555
S94 Sn22 2.949698 1_555
S95 Sn23 2.949698 1_555
S96 Sn32 2.443565 1_555
S97 Sn33 2.443565 1_555
S98 Sn34 2.443565 1_555
S99 Sn35 2.443565 1_555
S100 Sn36 2.443565 1_555
S101 Sn37 2.443565 1_555
S102 Sn38 2.443565 1_555
S103 Sn39 2.443565 1_555
S104 S15 2.097036 1_555
S104 Sn15 2.628189 1_555
S104 Sn24 2.858803 1_655
S105 S14 2.097036 1_555
S105 Sn14 2.628189 1_555
S105 Sn25 2.858803 1_555
S106 S13 2.097036 1_555
S106 Sn13 2.628189 1_555
S106 Sn26 2.858803 1_455
S107 S12 2.097036 1_555
S107 Sn12 2.628189 1_555
S107 Sn27 2.858803 1_555
S108 S11 2.097036 1_555
S108 Sn11 2.628189 1_555
S108 Sn28 2.858803 1_455
S109 Sn10 2.628189 1_555
S109 Sn29 2.858803 1_555
S110 S9 2.097036 1_555
S110 Sn9 2.628189 1_555
S110 Sn30 2.858803 1_655
S111 S8 2.097036 1_555
S111 Sn8 2.628189 1_555
S111 Sn31 2.858803 1_555
