# generated using pymatgen
data_Li3Cr4(PO4)6
_symmetry_space_group_name_H-M   'P 1'
_cell_length_a   8.54965915
_cell_length_b   8.64311855
_cell_length_c   8.58943011
_cell_angle_alpha   60.76528563
_cell_angle_beta   59.97268499
_cell_angle_gamma   89.77276859
_symmetry_Int_Tables_number   1
_chemical_formula_structural   Li3Cr4(PO4)6
_chemical_formula_sum   'Li3 Cr4 P6 O24'
_cell_volume   454.60750104
_cell_formula_units_Z   1
loop_
 _symmetry_equiv_pos_site_id
 _symmetry_equiv_pos_as_xyz
  1  'x, y, z'
loop_
 _atom_site_type_symbol
 _atom_site_label
 _atom_site_symmetry_multiplicity
 _atom_site_fract_x
 _atom_site_fract_y
 _atom_site_fract_z
 _atom_site_occupancy
  Li  Li0  1  0.35027700  0.55795900  0.61963800  1
  Li  Li1  1  0.03038400  0.05459400  0.61376400  1
  Li  Li2  1  0.74133200  0.33925600  0.36579300  1
  Cr  Cr0  1  0.84891500  0.57524100  0.78923900  1
  Cr  Cr1  1  0.35502200  0.07328400  0.79587400  1
  Cr  Cr2  1  0.64600000  0.92915100  0.20145300  1
  Cr  Cr3  1  0.15382500  0.43227400  0.20114700  1
  P  P0  1  0.52861000  0.74183900  0.72008300  1
  P  P1  1  0.24930600  0.75975700  0.27867600  1
  P  P2  1  0.75294600  0.24323300  0.72100700  1
  P  P3  1  0.03561200  0.25255000  0.00015000  1
  P  P4  1  0.47539100  0.25682800  0.27751400  1
  P  P5  1  0.95766500  0.75256400  0.99967000  1
  O  O0  1  0.11940300  0.93284300  0.87062900  1
  O  O1  1  0.01065200  0.44108000  0.86425500  1
  O  O2  1  0.48486800  0.89635300  0.75802100  1
  O  O3  1  0.06193200  0.71320200  0.48370600  1
  O  O4  1  0.36931800  0.55088500  0.90188300  1
  O  O5  1  0.23228700  0.26472800  0.82170800  1
  O  O6  1  0.28800900  0.95260700  0.08728200  1
  O  O7  1  0.54872100  0.77833200  0.51562100  1
  O  O8  1  0.72275600  0.73461000  0.69257300  1
  O  O9  1  0.94477400  0.76468200  0.81914100  1
  O  O10  1  0.40756200  0.75885100  0.32065500  1
  O  O11  1  0.24887400  0.61111100  0.23015400  1
  O  O12  1  0.75820200  0.39423600  0.76432900  1
  O  O13  1  0.04185400  0.24884300  0.17841200  1
  O  O14  1  0.59684400  0.24355900  0.67929900  1
  O  O15  1  0.27709700  0.25667000  0.32223300  1
  O  O16  1  0.72643700  0.04994800  0.90354400  1
  O  O17  1  0.47310900  0.21832800  0.47477400  1
  O  O18  1  0.76633400  0.74902300  0.17445400  1
  O  O19  1  0.63457300  0.44813800  0.08910000  1
  O  O20  1  0.93933400  0.27949400  0.51623300  1
  O  O21  1  0.52045400  0.10185700  0.23873200  1
  O  O22  1  0.98260400  0.56744600  0.13296200  1
  O  O23  1  0.87638400  0.07722000  0.11620100  1
loop_
_geom_bond_atom_site_label_1
_geom_bond_atom_site_label_2
_geom_bond_distance
_geom_bond_site_symmetry_2
Li0 O7 2.037403 1_555
Li0 O10 2.059674 1_555
Li0 O5 2.103490 1_555
Li0 O1 2.389676 1_555
Li0 O4 2.481474 1_555
Li1 O20 2.033801 1_455
Li1 O15 2.059397 1_555
Li1 O9 2.081121 1_445
Li1 O0 2.441491 1_545
Li1 O16 2.525792 1_455
Li2 O14 1.991177 1_555
Li2 O17 2.035301 1_555
Li2 O22 2.048246 1_555
Li2 O20 2.516488 1_555
Cr0 O8 1.875519 1_555
Cr0 O12 1.896692 1_555
Cr0 O19 1.930616 1_556
Cr0 O3 1.950138 1_655
Cr0 O1 1.954766 1_655
Cr0 O9 2.012633 1_555
Cr1 O6 1.923719 1_546
Cr1 O2 1.946185 1_545
Cr1 O0 1.976690 1_545
Cr1 O14 1.988941 1_555
Cr1 O5 2.000033 1_555
Cr1 O17 2.010896 1_555
Cr2 O21 1.895536 1_565
Cr2 O18 1.907157 1_555
Cr2 O23 1.927398 1_565
Cr2 O16 1.935388 1_564
Cr2 O10 1.957905 1_555
Cr2 O7 1.999853 1_555
Cr3 O11 1.923655 1_555
Cr3 O4 1.937542 1_554
Cr3 O13 1.992405 1_555
Cr3 O20 1.998123 1_455
Cr3 O22 2.006749 1_455
Cr3 O15 2.009621 1_555
O0 P5 1.537779 1_455
O1 P3 1.565867 1_556
O2 P0 1.526013 1_555
O3 P1 1.522851 1_555
O4 P0 1.545689 1_555
O5 P3 1.565944 1_556
O6 P1 1.540713 1_555
O7 P0 1.539635 1_555
O8 P0 1.560769 1_555
O9 P5 1.562024 1_555
O10 P1 1.564037 1_555
O11 P1 1.532625 1_555
O12 P2 1.528217 1_555
O13 P3 1.543438 1_555
O14 P2 1.545012 1_555
O15 P4 1.539321 1_555
O16 P2 1.545766 1_555
O17 P4 1.548607 1_555
O18 P5 1.558320 1_554
O19 P4 1.550831 1_555
O20 P2 1.546496 1_555
O21 P4 1.535176 1_555
O22 P5 1.539015 1_554
O23 P3 1.525148 1_655
