# generated using pymatgen
data_Y2CuRu
_symmetry_space_group_name_H-M   'P 1'
_cell_length_a   4.83993117
_cell_length_b   4.83993117
_cell_length_c   4.83993117
_cell_angle_alpha   60.00000000
_cell_angle_beta   60.00000000
_cell_angle_gamma   60.00000000
_symmetry_Int_Tables_number   1
_chemical_formula_structural   Y2CuRu
_chemical_formula_sum   'Y2 Cu1 Ru1'
_cell_volume   80.16827858
_cell_formula_units_Z   1
loop_
 _symmetry_equiv_pos_site_id
 _symmetry_equiv_pos_as_xyz
  1  'x, y, z'
loop_
 _atom_site_type_symbol
 _atom_site_label
 _atom_site_symmetry_multiplicity
 _atom_site_fract_x
 _atom_site_fract_y
 _atom_site_fract_z
 _atom_site_occupancy
  Y  Y0  1  0.50000100  0.50000100  0.50000100  1
  Y  Y1  1  -0.00000000  -0.00000000  0.00000000  1
  Cu  Cu0  1  0.25000000  0.25000000  0.25000000  1
  Ru  Ru0  1  0.75000000  0.75000000  0.75000000  1
loop_
_geom_bond_atom_site_label_1
_geom_bond_atom_site_label_2
_geom_bond_distance
_geom_bond_site_symmetry_2
Cu0 Y0 2.963836 1_545
Cu0 Y0 2.963836 1_554
Cu0 Y0 2.963836 1_455
Cu0 Y1 2.963840 1_655
Cu0 Y1 2.963840 1_556
Cu0 Y1 2.963840 1_565
Cu0 Y1 2.963840 1_555
Cu0 Y0 2.963852 1_555
Ru0 Y0 2.963829 1_555
Ru0 Y1 2.963840 1_666
Ru0 Y1 2.963840 1_566
Ru0 Y1 2.963840 1_656
Ru0 Y1 2.963840 1_665
Ru0 Y0 2.963844 1_565
Ru0 Y0 2.963844 1_655
Ru0 Y0 2.963844 1_556
