# generated using pymatgen
data_Cs2NbF6
_symmetry_space_group_name_H-M   'P 1'
_cell_length_a   6.40929625
_cell_length_b   6.40929659
_cell_length_c   4.86831740
_cell_angle_alpha   90.00000000
_cell_angle_beta   90.00000000
_cell_angle_gamma   119.99999831
_symmetry_Int_Tables_number   1
_chemical_formula_structural   Cs2NbF6
_chemical_formula_sum   'Cs2 Nb1 F6'
_cell_volume   173.19296177
_cell_formula_units_Z   1
loop_
 _symmetry_equiv_pos_site_id
 _symmetry_equiv_pos_as_xyz
  1  'x, y, z'
loop_
 _atom_site_type_symbol
 _atom_site_label
 _atom_site_symmetry_multiplicity
 _atom_site_fract_x
 _atom_site_fract_y
 _atom_site_fract_z
 _atom_site_occupancy
  Cs  Cs0  1  0.66666700  0.33333300  0.30199607  1
  Cs  Cs1  1  0.33333300  0.66666700  0.69800393  1
  Nb  Nb0  1  0.00000000  0.00000000  -0.00000000  1
  F  F0  1  0.84463215  0.15536785  0.78781500  1
  F  F1  1  0.84463215  0.68926530  0.78781500  1
  F  F2  1  0.31073470  0.15536785  0.78781500  1
  F  F3  1  0.15536785  0.84463215  0.21218500  1
  F  F4  1  0.15536785  0.31073470  0.21218500  1
  F  F5  1  0.68926530  0.84463215  0.21218500  1
loop_
_geom_bond_atom_site_label_1
_geom_bond_atom_site_label_2
_geom_bond_distance
_geom_bond_site_symmetry_2
Cs0 F0 3.081707 1_555
Cs0 F2 3.081714 1_555
Cs0 F1 3.081714 1_555
Cs0 F0 3.188905 1_554
Cs0 F2 3.188912 1_554
Cs0 F1 3.188912 1_554
Cs0 F4 3.236769 1_555
Cs0 F4 3.236769 1_655
Cs0 F3 3.236769 1_545
Cs0 F5 3.236769 1_545
Cs0 F3 3.236769 1_655
Cs0 F5 3.236769 1_555
Cs1 F3 3.081707 1_555
Cs1 F5 3.081714 1_555
Cs1 F4 3.081714 1_555
Cs1 F3 3.188905 1_556
Cs1 F5 3.188912 1_556
Cs1 F4 3.188912 1_556
Cs1 F1 3.236769 1_555
Cs1 F1 3.236769 1_455
Cs1 F0 3.236769 1_565
Cs1 F2 3.236769 1_565
Cs1 F0 3.236769 1_455
Cs1 F2 3.236769 1_555
F0 Nb0 2.010448 1_656
F1 Nb0 2.010443 1_666
F2 Nb0 2.010443 1_556
F3 Nb0 2.010448 1_565
F4 Nb0 2.010443 1_555
F5 Nb0 2.010443 1_665
