# generated using pymatgen
data_CaSnS3
_symmetry_space_group_name_H-M   'P 1'
_cell_length_a   7.19223993
_cell_length_b   16.58966631
_cell_length_c   27.99056523
_cell_angle_alpha   86.39820362
_cell_angle_beta   82.61845506
_cell_angle_gamma   77.48068326
_symmetry_Int_Tables_number   1
_chemical_formula_structural   CaSnS3
_chemical_formula_sum   'Ca24 Sn24 S72'
_cell_volume   3231.20716122
_cell_formula_units_Z   24
loop_
 _symmetry_equiv_pos_site_id
 _symmetry_equiv_pos_as_xyz
  1  'x, y, z'
loop_
 _atom_site_type_symbol
 _atom_site_label
 _atom_site_symmetry_multiplicity
 _atom_site_fract_x
 _atom_site_fract_y
 _atom_site_fract_z
 _atom_site_occupancy
  Ca  Ca0  1  0.50000000  0.50000000  0.00000000  1
  Ca  Ca1  1  0.00000000  -0.00000000  0.50000000  1
  Ca  Ca2  1  0.93957530  0.75000000  0.25000000  1
  Ca  Ca3  1  0.06042470  0.25000000  0.75000000  1
  Ca  Ca4  1  0.24209847  0.47466264  0.45792177  1
  Ca  Ca5  1  0.17468188  0.02533736  0.04207823  1
  Ca  Ca6  1  0.75790153  0.52533736  0.54207823  1
  Ca  Ca7  1  0.82531812  0.97466264  0.95792177  1
  Ca  Ca8  1  0.47031626  0.15044149  0.42461194  1
  Ca  Ca9  1  0.04536969  0.34955851  0.07538806  1
  Ca  Ca10  1  0.52968374  0.84955851  0.57538806  1
  Ca  Ca11  1  0.95463031  0.65044149  0.92461194  1
  Ca  Ca12  1  0.37635668  0.56490739  0.31607477  1
  Ca  Ca13  1  0.25733885  0.93509261  0.18392523  1
  Ca  Ca14  1  0.62364332  0.43509261  0.68392523  1
  Ca  Ca15  1  0.74266115  0.06490739  0.81607477  1
  Ca  Ca16  1  0.50171872  0.85505243  0.87620512  1
  Ca  Ca17  1  0.23297727  0.64494757  0.62379488  1
  Ca  Ca18  1  0.49828128  0.14494757  0.12379488  1
  Ca  Ca19  1  0.76702273  0.35505243  0.37620512  1
  Ca  Ca20  1  0.39708396  0.95057891  0.72518858  1
  Ca  Ca21  1  0.07285146  0.54942109  0.77481142  1
  Ca  Ca22  1  0.60291604  0.04942109  0.27481142  1
  Ca  Ca23  1  0.92714854  0.45057891  0.22518858  1
  Sn  Sn0  1  0.43992861  0.29429386  0.28218296  1
  Sn  Sn1  1  0.01640542  0.20570614  0.21781704  1
  Sn  Sn2  1  0.56007139  0.70570614  0.71781704  1
  Sn  Sn3  1  0.98359458  0.79429386  0.78218296  1
  Sn  Sn4  1  0.58611641  0.56147768  0.86067611  1
  Sn  Sn5  1  0.00827021  0.93852232  0.63932389  1
  Sn  Sn6  1  0.41388359  0.43852232  0.13932389  1
  Sn  Sn7  1  0.99172979  0.06147768  0.36067611  1
  Sn  Sn8  1  0.23024228  0.12193933  0.88761435  1
  Sn  Sn9  1  0.23979496  0.37806067  0.61238565  1
  Sn  Sn10  1  0.76975772  0.87806067  0.11238565  1
  Sn  Sn11  1  0.76020504  0.62193933  0.38761435  1
  Sn  Sn12  1  0.63554996  0.86464951  0.40173145  1
  Sn  Sn13  1  0.90193191  0.63535049  0.09826855  1
  Sn  Sn14  1  0.36445004  0.13535049  0.59826855  1
  Sn  Sn15  1  0.09806809  0.36464951  0.90173145  1
  Sn  Sn16  1  0.27754688  0.74289146  0.01558055  1
  Sn  Sn17  1  0.03601789  0.75710854  0.48441945  1
  Sn  Sn18  1  0.72245312  0.25710854  0.98441945  1
  Sn  Sn19  1  0.96398211  0.24289146  0.51558055  1
  Sn  Sn20  1  0.61117589  0.34918887  0.82697492  1
  Sn  Sn21  1  0.78733867  0.15081113  0.67302508  1
  Sn  Sn22  1  0.38882411  0.65081113  0.17302508  1
  Sn  Sn23  1  0.21266133  0.84918887  0.32697492  1
  S  S0  1  0.30796011  0.33427330  0.40680541  1
  S  S1  1  0.04903783  0.16572670  0.09319459  1
  S  S2  1  0.69203989  0.66572770  0.59319459  1
  S  S3  1  0.95096217  0.83427230  0.90680541  1
  S  S4  1  0.59531114  0.40683718  0.29237060  1
  S  S5  1  0.29451791  0.09316282  0.20762940  1
  S  S6  1  0.40468886  0.59316282  0.70762940  1
  S  S7  1  0.70548209  0.90683718  0.79237060  1
  S  S8  1  0.06830025  0.41090437  0.31823739  1
  S  S9  1  0.79744301  0.08909563  0.18176261  1
  S  S10  1  0.93169975  0.58909563  0.68176261  1
  S  S11  1  0.20255699  0.91090437  0.81823739  1
  S  S12  1  0.56600307  0.63179634  0.94063406  1
  S  S13  1  0.13843347  0.86820366  0.55936594  1
  S  S14  1  0.43399693  0.36820366  0.05936594  1
  S  S15  1  0.86156653  0.13179634  0.44063406  1
  S  S16  1  0.15429189  0.67782519  0.82588998  1
  S  S17  1  0.65800706  0.82217481  0.67411002  1
  S  S18  1  0.84570811  0.32217481  0.17411002  1
  S  S19  1  0.34199294  0.17782519  0.32588998  1
  S  S20  1  0.72882866  0.69059231  0.79016180  1
  S  S21  1  0.20958277  0.80940769  0.70983820  1
  S  S22  1  0.27117134  0.30940769  0.20983820  1
  S  S23  1  0.79041723  0.19059231  0.29016180  1
  S  S24  1  0.39787349  0.14817365  0.78272824  1
  S  S25  1  0.32877638  0.35182635  0.71727176  1
  S  S26  1  0.60212651  0.85182635  0.21727176  1
  S  S27  1  0.67122362  0.64817365  0.28272824  1
  S  S28  1  0.06028706  0.00407790  0.86559345  1
  S  S29  1  0.92995942  0.49592210  0.63440655  1
  S  S30  1  0.93971294  0.99592210  0.13440655  1
  S  S31  1  0.07004058  0.50407790  0.36559345  1
  S  S32  1  0.66074680  0.01133142  0.37209413  1
  S  S33  1  0.04417335  0.48866858  0.12790587  1
  S  S34  1  0.33925320  0.98866858  0.62790587  1
  S  S35  1  0.95582665  0.51133142  0.87209413  1
  S  S36  1  0.73913528  0.88663374  0.48585952  1
  S  S37  1  0.11162854  0.61336626  0.01414048  1
  S  S38  1  0.26086472  0.11336626  0.51414048  1
  S  S39  1  0.88837146  0.38663374  0.98585952  1
  S  S40  1  0.22895343  0.91129831  0.40495229  1
  S  S41  1  0.54520402  0.58870169  0.09504771  1
  S  S42  1  0.77104657  0.08870169  0.59504771  1
  S  S43  1  0.45479598  0.41129831  0.90495229  1
  S  S44  1  0.01006598  0.88859946  0.03425599  1
  S  S45  1  0.93292042  0.61140054  0.46574401  1
  S  S46  1  0.98993402  0.11140054  0.96574401  1
  S  S47  1  0.06707958  0.38859946  0.53425599  1
  S  S48  1  0.22150728  0.76117986  0.92362072  1
  S  S49  1  0.90630787  0.73882014  0.57637928  1
  S  S50  1  0.77849272  0.23882014  0.07637928  1
  S  S51  1  0.09369213  0.26117986  0.42362072  1
  S  S52  1  0.72848910  0.80616401  0.95624671  1
  S  S53  1  0.49089982  0.69383599  0.54375329  1
  S  S54  1  0.27151090  0.19383599  0.04375329  1
  S  S55  1  0.50910018  0.30616401  0.45624671  1
  S  S56  1  0.82347830  0.21969921  0.83992400  1
  S  S57  1  0.88310151  0.28030079  0.66007600  1
  S  S58  1  0.17652170  0.78030079  0.16007600  1
  S  S59  1  0.11689849  0.71969921  0.33992400  1
  S  S60  1  0.29845955  0.38052689  0.79086595  1
  S  S61  1  0.46985138  0.11947311  0.70913405  1
  S  S62  1  0.70154045  0.61947311  0.20913405  1
  S  S63  1  0.53014862  0.88052689  0.29086595  1
  S  S64  1  0.81199873  0.41729727  0.76969758  1
  S  S65  1  0.99899357  0.08270273  0.73030242  1
  S  S66  1  0.18800127  0.58270273  0.23030242  1
  S  S67  1  0.00100643  0.91729727  0.26969758  1
  S  S68  1  0.52162619  0.01187623  0.90601250  1
  S  S69  1  0.43951593  0.48812377  0.59398750  1
  S  S70  1  0.47837381  0.98812377  0.09398750  1
  S  S71  1  0.56048407  0.51187623  0.40601250  1
loop_
_geom_bond_atom_site_label_1
_geom_bond_atom_site_label_2
_geom_bond_distance
_geom_bond_site_symmetry_2
Ca0 S14 2.749173 1_555
Ca0 S12 2.749173 1_554
Ca0 S39 3.004658 1_554
Ca0 S37 3.004658 1_555
Ca0 S43 3.204777 1_554
Ca0 S41 3.204777 1_555
Ca1 S13 2.749173 1_545
Ca1 S15 2.749173 1_455
Ca1 S36 3.004658 1_445
Ca1 S38 3.004658 1_555
Ca1 S40 3.204777 1_545
Ca1 S42 3.204777 1_455
Ca2 S26 2.860529 1_555
Ca2 S27 2.860535 1_555
Ca2 S58 2.933010 1_655
Ca2 S59 2.933010 1_655
Ca2 S66 2.998091 1_655
Ca2 S67 2.998091 1_655
Ca3 S24 2.860529 1_555
Ca3 S25 2.860535 1_555
Ca3 S56 2.933010 1_455
Ca3 S57 2.933010 1_455
Ca3 S64 2.998091 1_455
Ca3 S65 2.998091 1_455
Ca4 S71 2.716834 1_555
Ca4 S0 2.731674 1_555
Ca4 S45 2.808722 1_455
Ca4 S47 2.809454 1_555
Ca4 S31 2.974845 1_555
Ca4 S55 3.028186 1_555
Ca5 S70 2.716846 1_545
Ca5 S1 2.731674 1_555
Ca5 S44 2.808714 1_545
Ca5 S46 2.809454 1_454
Ca5 S30 2.974838 1_445
Ca5 S54 3.028190 1_555
Ca6 S69 2.716834 1_555
Ca6 S2 2.731688 1_555
Ca6 S47 2.808722 1_655
Ca6 S45 2.809454 1_555
Ca6 S29 2.974845 1_555
Ca6 S53 3.028186 1_555
Ca7 S68 2.716846 1_565
Ca7 S3 2.731687 1_555
Ca7 S46 2.808714 1_565
Ca7 S44 2.809454 1_656
Ca7 S28 2.974838 1_665
Ca7 S52 3.028190 1_555
Ca8 S32 2.810916 1_555
Ca8 S15 2.853890 1_555
Ca8 S38 2.857528 1_555
Ca8 S55 2.863398 1_555
Ca8 S51 2.927231 1_555
Ca8 S19 3.001622 1_555
Ca8 S0 3.054070 1_555
Ca9 S33 2.810918 1_555
Ca9 S14 2.853890 1_555
Ca9 S39 2.857528 1_454
Ca9 S54 2.863397 1_555
Ca9 S50 2.927231 1_455
Ca9 S18 3.001622 1_455
Ca9 S1 3.054071 1_555
Ca10 S34 2.810916 1_555
Ca10 S13 2.853890 1_555
Ca10 S36 2.857528 1_555
Ca10 S53 2.863398 1_555
Ca10 S49 2.927231 1_555
Ca10 S17 3.001622 1_555
Ca10 S2 3.054055 1_555
Ca11 S35 2.810918 1_555
Ca11 S12 2.853890 1_555
Ca11 S37 2.857528 1_656
Ca11 S52 2.863397 1_555
Ca11 S48 2.927231 1_655
Ca11 S16 3.001622 1_655
Ca11 S3 3.054055 1_555
Ca12 S31 2.792247 1_555
Ca12 S27 2.806491 1_555
Ca12 S4 2.820738 1_555
Ca12 S66 2.873943 1_555
Ca12 S59 2.887910 1_555
Ca12 S71 2.989704 1_555
Ca13 S30 2.792241 1_455
Ca13 S26 2.806497 1_555
Ca13 S5 2.820736 1_565
Ca13 S67 2.873943 1_555
Ca13 S58 2.887910 1_555
Ca13 S70 2.989707 1_555
Ca14 S29 2.792247 1_555
Ca14 S25 2.806491 1_555
Ca14 S6 2.820738 1_555
Ca14 S64 2.873943 1_555
Ca14 S57 2.887910 1_555
Ca14 S69 2.989704 1_555
Ca15 S28 2.792241 1_655
Ca15 S24 2.806497 1_555
Ca15 S7 2.820736 1_545
Ca15 S65 2.873943 1_555
Ca15 S56 2.887910 1_555
Ca15 S68 2.989707 1_555
Ca16 S7 2.793043 1_555
Ca16 S68 2.819596 1_565
Ca16 S11 2.822163 1_555
Ca16 S52 2.911096 1_555
Ca16 S48 2.943126 1_555
Ca16 S3 3.388712 1_555
Ca17 S6 2.793036 1_555
Ca17 S69 2.819596 1_555
Ca17 S10 2.822164 1_455
Ca17 S53 2.911092 1_555
Ca17 S49 2.943131 1_455
Ca17 S2 3.388705 1_555
Ca18 S5 2.793043 1_555
Ca18 S70 2.819596 1_545
Ca18 S9 2.822163 1_555
Ca18 S54 2.911096 1_555
Ca18 S50 2.943126 1_555
Ca18 S1 3.388714 1_555
Ca19 S4 2.793036 1_555
Ca19 S71 2.819596 1_555
Ca19 S8 2.822164 1_655
Ca19 S55 2.911092 1_555
Ca19 S51 2.943131 1_655
Ca19 S0 3.388700 1_555
Ca20 S34 2.819201 1_555
Ca20 S17 2.839653 1_555
Ca20 S11 2.901990 1_555
Ca20 S61 2.956956 1_565
Ca20 S21 3.022027 1_555
Ca20 S7 3.030687 1_555
Ca20 S65 3.199361 1_465
Ca21 S35 2.819203 1_455
Ca21 S16 2.839653 1_555
Ca21 S10 2.901987 1_455
Ca21 S60 2.956959 1_555
Ca21 S20 3.022027 1_455
Ca21 S6 3.030681 1_555
Ca21 S64 3.199361 1_455
Ca22 S32 2.819201 1_555
Ca22 S19 2.839653 1_555
Ca22 S9 2.901990 1_555
Ca22 S63 2.956956 1_545
Ca22 S23 3.022027 1_555
Ca22 S5 3.030687 1_555
Ca22 S67 3.199361 1_645
Ca23 S33 2.819203 1_655
Ca23 S18 2.839653 1_555
Ca23 S8 2.901987 1_655
Ca23 S62 2.956959 1_555
Ca23 S22 3.022027 1_655
Ca23 S4 3.030681 1_555
Ca23 S66 3.199361 1_655
S0 S55 2.089562 1_555
S0 S51 2.149155 1_555
S1 S54 2.089567 1_555
S1 S50 2.149149 1_455
S2 S53 2.089561 1_555
S2 S49 2.149143 1_555
S3 S52 2.089561 1_555
S3 S48 2.149143 1_655
S4 Sn0 2.422704 1_555
S5 Sn1 2.422699 1_555
S6 Sn2 2.422704 1_555
S7 Sn3 2.422699 1_555
S8 Sn0 3.035694 1_555
S9 Sn1 3.035689 1_655
S10 S29 2.101545 1_555
S10 Sn2 3.035694 1_555
S11 S28 2.101545 1_565
S11 Sn3 3.035689 1_455
S12 Sn4 2.561724 1_555
S13 Sn5 2.561724 1_555
S14 Sn6 2.561724 1_555
S15 Sn7 2.561724 1_555
S16 Sn3 2.407849 1_455
S17 Sn2 2.407850 1_555
S18 Sn1 2.407849 1_655
S19 Sn0 2.407850 1_555
S20 Sn2 2.464214 1_555
S20 Sn3 2.753224 1_555
S20 Sn4 3.072234 1_555
S21 Sn3 2.464214 1_455
S21 Sn2 2.753224 1_555
S21 Sn5 3.072234 1_555
S22 Sn0 2.464214 1_555
S22 Sn1 2.753224 1_555
S22 Sn6 3.072234 1_555
S23 Sn1 2.464214 1_655
S23 Sn0 2.753224 1_555
S23 Sn7 3.072234 1_555
S24 S61 2.116700 1_555
S24 Sn8 3.069119 1_555
S25 S60 2.116700 1_555
S25 Sn9 3.069123 1_555
S26 S63 2.116700 1_555
S26 Sn10 3.069119 1_555
S27 S62 2.116700 1_555
S27 Sn11 3.069123 1_555
S28 Sn8 2.660528 1_555
S29 Sn9 2.660518 1_655
S30 S9 2.101545 1_565
S30 Sn10 2.660528 1_555
S31 S8 2.101545 1_555
S31 Sn11 2.660518 1_455
S32 Sn12 2.557615 1_545
S32 Sn7 2.662838 1_555
S33 Sn13 2.557615 1_455
S33 Sn6 2.662831 1_555
S34 Sn14 2.557615 1_565
S34 Sn5 2.662838 1_555
S35 Sn15 2.557615 1_655
S35 Sn4 2.662831 1_555
S36 Sn12 2.628609 1_555
S36 Sn17 2.679140 1_655
S37 Sn13 2.628606 1_455
S37 Sn16 2.679145 1_555
S38 Sn14 2.628609 1_555
S38 Sn19 2.679140 1_455
S39 Sn15 2.628606 1_655
S39 Sn18 2.679145 1_555
S40 Sn23 2.497980 1_555
S40 Sn12 2.849329 1_555
S40 Sn7 2.994431 1_465
S41 Sn22 2.497981 1_555
S41 Sn13 2.849336 1_555
S41 Sn6 2.994431 1_555
S42 Sn21 2.497980 1_555
S42 Sn14 2.849329 1_555
S42 Sn5 2.994431 1_645
S43 Sn20 2.497981 1_555
S43 Sn15 2.849336 1_555
S43 Sn4 2.994431 1_555
S44 Sn10 2.629075 1_455
S44 Sn16 2.775174 1_555
S45 Sn11 2.629067 1_555
S45 Sn17 2.775174 1_655
S46 Sn8 2.629075 1_655
S46 Sn18 2.775174 1_555
S47 Sn9 2.629067 1_555
S47 Sn19 2.775174 1_455
S48 Sn16 2.644892 1_556
S49 Sn17 2.644890 1_655
S50 Sn18 2.644892 1_554
S51 Sn19 2.644890 1_455
S56 Sn20 2.387452 1_555
S57 Sn21 2.387455 1_555
S58 Sn22 2.387452 1_555
S59 Sn23 2.387455 1_555
S60 Sn20 2.522214 1_555
S61 Sn21 2.522214 1_555
S62 Sn22 2.522214 1_555
S63 Sn23 2.522214 1_555
S64 Sn20 2.412074 1_555
S65 Sn21 2.412079 1_555
S66 Sn22 2.412074 1_555
S67 Sn23 2.412079 1_555
S68 Sn8 2.547808 1_555
S69 Sn9 2.547819 1_555
S70 Sn10 2.547808 1_555
S71 Sn11 2.547819 1_555
