# generated using pymatgen
data_Ni3GeC
_symmetry_space_group_name_H-M   'P 1'
_cell_length_a   3.80870900
_cell_length_b   3.80870900
_cell_length_c   3.80870900
_cell_angle_alpha   90.00000000
_cell_angle_beta   90.00000000
_cell_angle_gamma   90.00000000
_symmetry_Int_Tables_number   1
_chemical_formula_structural   Ni3GeC
_chemical_formula_sum   'Ni3 Ge1 C1'
_cell_volume   55.25013919
_cell_formula_units_Z   1
loop_
 _symmetry_equiv_pos_site_id
 _symmetry_equiv_pos_as_xyz
  1  'x, y, z'
loop_
 _atom_site_type_symbol
 _atom_site_label
 _atom_site_symmetry_multiplicity
 _atom_site_fract_x
 _atom_site_fract_y
 _atom_site_fract_z
 _atom_site_occupancy
  Ni  Ni0  1  0.00000000  0.50000000  0.50000000  1
  Ni  Ni1  1  0.50000000  0.50000000  0.00000000  1
  Ni  Ni2  1  0.50000000  0.00000000  0.50000000  1
  Ge  Ge0  1  0.00000000  0.00000000  0.00000000  1
  C  C0  1  0.50000000  0.50000000  0.50000000  1
loop_
_geom_bond_atom_site_label_1
_geom_bond_atom_site_label_2
_geom_bond_distance
_geom_bond_site_symmetry_2
Ge0 Ni2 2.693164 1_554
Ge0 Ni2 2.693164 1_455
Ge0 Ni2 2.693164 1_454
Ge0 Ni0 2.693164 1_545
Ge0 Ni0 2.693164 1_554
Ge0 Ni1 2.693164 1_545
Ge0 Ni1 2.693164 1_555
Ge0 Ni1 2.693164 1_455
Ge0 Ni2 2.693164 1_555
Ge0 Ni0 2.693164 1_544
Ge0 Ni0 2.693164 1_555
Ge0 Ni1 2.693164 1_445
C0 Ni1 1.904354 1_555
C0 Ni2 1.904354 1_555
C0 Ni2 1.904354 1_565
C0 Ni1 1.904354 1_556
C0 Ni0 1.904354 1_555
C0 Ni0 1.904354 1_655
