# generated using pymatgen
data_Th2Ni7
_symmetry_space_group_name_H-M   'P 1'
_cell_length_a   4.97426538
_cell_length_b   4.97426538
_cell_length_c   24.76198800
_cell_angle_alpha   90.00000000
_cell_angle_beta   90.00000000
_cell_angle_gamma   119.99999169
_symmetry_Int_Tables_number   1
_chemical_formula_structural   Th2Ni7
_chemical_formula_sum   'Th8 Ni28'
_cell_volume   530.60834859
_cell_formula_units_Z   4
loop_
 _symmetry_equiv_pos_site_id
 _symmetry_equiv_pos_as_xyz
  1  'x, y, z'
loop_
 _atom_site_type_symbol
 _atom_site_label
 _atom_site_symmetry_multiplicity
 _atom_site_fract_x
 _atom_site_fract_y
 _atom_site_fract_z
 _atom_site_occupancy
  Th  Th0  1  0.33333300  0.66666700  0.17566500  1
  Th  Th1  1  0.66666700  0.33333300  0.67566500  1
  Th  Th2  1  0.66666700  0.33333300  0.82433500  1
  Th  Th3  1  0.33333300  0.66666700  0.32433500  1
  Th  Th4  1  0.33333300  0.66666700  0.03195200  1
  Th  Th5  1  0.66666700  0.33333300  0.53195200  1
  Th  Th6  1  0.66666700  0.33333300  0.96804800  1
  Th  Th7  1  0.33333300  0.66666700  0.46804800  1
  Ni  Ni0  1  0.83342300  0.66684600  0.25000000  1
  Ni  Ni1  1  0.16657700  0.33315400  0.75000000  1
  Ni  Ni2  1  0.33315400  0.16657700  0.25000000  1
  Ni  Ni3  1  0.83342300  0.16657700  0.25000000  1
  Ni  Ni4  1  0.16657700  0.83342300  0.75000000  1
  Ni  Ni5  1  0.66684600  0.83342300  0.75000000  1
  Ni  Ni6  1  0.83278300  0.66556700  0.08553900  1
  Ni  Ni7  1  0.16721700  0.33443300  0.58553900  1
  Ni  Ni8  1  0.33443300  0.16721700  0.08553900  1
  Ni  Ni9  1  0.83278300  0.16721700  0.08553900  1
  Ni  Ni10  1  0.16721700  0.83278300  0.58553900  1
  Ni  Ni11  1  0.66556700  0.83278300  0.58553900  1
  Ni  Ni12  1  0.16721700  0.33443300  0.91446100  1
  Ni  Ni13  1  0.16721700  0.83278300  0.91446100  1
  Ni  Ni14  1  0.66556700  0.83278300  0.91446100  1
  Ni  Ni15  1  0.33443300  0.16721700  0.41446100  1
  Ni  Ni16  1  0.83278300  0.16721700  0.41446100  1
  Ni  Ni17  1  0.83278300  0.66556700  0.41446100  1
  Ni  Ni18  1  0.00000000  0.00000000  0.00000000  1
  Ni  Ni19  1  0.00000000  0.00000000  0.50000000  1
  Ni  Ni20  1  0.00000000  0.00000000  0.16737600  1
  Ni  Ni21  1  0.00000000  0.00000000  0.66737600  1
  Ni  Ni22  1  0.00000000  0.00000000  0.83262400  1
  Ni  Ni23  1  0.00000000  0.00000000  0.33262400  1
  Ni  Ni24  1  0.33333300  0.66666700  0.83247500  1
  Ni  Ni25  1  0.66666700  0.33333300  0.33247500  1
  Ni  Ni26  1  0.66666700  0.33333300  0.16752500  1
  Ni  Ni27  1  0.33333300  0.66666700  0.66752500  1
loop_
_geom_bond_atom_site_label_1
_geom_bond_atom_site_label_2
_geom_bond_distance
_geom_bond_site_symmetry_2
Th0 Th4 3.558620 1_555
Th0 Th3 3.681365 1_555
Th1 Th5 3.558620 1_555
Th1 Th2 3.681365 1_555
Th2 Th6 3.558620 1_555
Th3 Th7 3.558620 1_555
Th4 Th6 3.278981 1_454
Th4 Th6 3.278981 1_564
Th4 Th6 3.278988 1_554
Th5 Th7 3.278981 1_545
Th5 Th7 3.278981 1_655
Th5 Th7 3.278988 1_555
Ni0 Ni3 2.485795 1_565
Ni0 Ni2 2.485795 1_665
Ni0 Ni3 2.488471 1_555
Ni0 Ni2 2.488471 1_555
Ni0 Ni25 2.496984 1_555
Ni0 Ni26 2.496984 1_555
Ni0 Ni23 2.499114 1_665
Ni0 Ni20 2.499114 1_665
Ni0 Th3 3.094177 1_655
Ni0 Th0 3.094177 1_655
Ni0 Th3 3.094181 1_555
Ni0 Th0 3.094181 1_555
Ni1 Ni4 2.485795 1_545
Ni1 Ni5 2.485795 1_445
Ni1 Ni4 2.488471 1_555
Ni1 Ni5 2.488471 1_555
Ni1 Ni24 2.496984 1_555
Ni1 Ni27 2.496984 1_555
Ni1 Ni22 2.499114 1_555
Ni1 Ni21 2.499114 1_555
Ni1 Th2 3.094177 1_455
Ni1 Th1 3.094177 1_455
Ni1 Th2 3.094181 1_555
Ni1 Th1 3.094181 1_555
Ni2 Ni3 2.485795 1_455
Ni2 Ni3 2.488471 1_555
Ni2 Ni25 2.496984 1_555
Ni2 Ni26 2.496984 1_555
Ni2 Ni23 2.499114 1_555
Ni2 Ni20 2.499114 1_555
Ni2 Th3 3.094177 1_545
Ni2 Th0 3.094177 1_545
Ni2 Th0 3.094181 1_555
Ni2 Th3 3.094181 1_555
Ni3 Th3 3.094179 1_545
Ni3 Th0 3.094179 1_545
Ni3 Th3 3.094179 1_655
Ni3 Th0 3.094179 1_655
Ni4 Ni5 2.485795 1_455
Ni4 Ni5 2.488471 1_555
Ni4 Th2 3.094179 1_455
Ni4 Th2 3.094179 1_565
Ni4 Th1 3.094179 1_455
Ni4 Th1 3.094179 1_565
Ni5 Th2 3.094177 1_565
Ni5 Th1 3.094177 1_565
Ni5 Th2 3.094181 1_555
Ni5 Th1 3.094181 1_555
Ni6 Ni9 2.478925 1_555
Ni6 Ni8 2.478925 1_555
Ni6 Ni9 2.495340 1_565
Ni6 Ni8 2.495341 1_665
Ni6 Th4 2.818966 1_555
Ni6 Th4 2.818966 1_655
Ni6 Th6 3.242291 1_554
Ni6 Th0 3.341606 1_555
Ni6 Th0 3.341606 1_655
Ni7 Th5 2.818966 1_555
Ni7 Th5 2.818966 1_455
Ni7 Th7 3.242291 1_555
Ni7 Th1 3.341606 1_555
Ni7 Th1 3.341606 1_455
Ni8 Ni9 2.478925 1_555
Ni8 Ni9 2.495340 1_455
Ni8 Th4 2.818966 1_555
Ni8 Th4 2.818966 1_545
Ni8 Th6 3.242291 1_554
Ni8 Th0 3.341606 1_555
Ni8 Th0 3.341606 1_545
Ni9 Th4 2.818966 1_545
Ni9 Th4 2.818966 1_655
Ni9 Th6 3.242288 1_554
Ni9 Th0 3.341606 1_545
Ni9 Th0 3.341606 1_655
Ni10 Ni7 2.478925 1_555
Ni10 Ni11 2.478925 1_555
Ni10 Ni27 2.483907 1_555
Ni10 Ni21 2.486377 1_565
Ni10 Ni11 2.495340 1_455
Ni10 Ni7 2.495340 1_565
Ni10 Ni19 2.561639 1_565
Ni10 Th5 2.818966 1_455
Ni10 Th5 2.818966 1_565
Ni10 Th7 3.242288 1_555
Ni10 Th1 3.341606 1_455
Ni10 Th1 3.341606 1_565
Ni11 Ni7 2.478925 1_555
Ni11 Ni27 2.483912 1_555
Ni11 Ni21 2.486374 1_665
Ni11 Ni7 2.495341 1_665
Ni11 Ni19 2.561637 1_665
Ni11 Th5 2.818966 1_555
Ni11 Th5 2.818966 1_565
Ni11 Th7 3.242291 1_555
Ni11 Th1 3.341606 1_555
Ni11 Th1 3.341606 1_565
Ni12 Ni13 2.478925 1_555
Ni12 Ni14 2.478925 1_555
Ni12 Ni24 2.483912 1_555
Ni12 Ni22 2.486374 1_555
Ni12 Ni13 2.495340 1_545
Ni12 Ni14 2.495341 1_445
Ni12 Ni18 2.561637 1_556
Ni12 Th6 2.818966 1_555
Ni12 Th6 2.818966 1_455
Ni12 Th4 3.242291 1_556
Ni12 Th2 3.341606 1_555
Ni12 Th2 3.341606 1_455
Ni13 Ni14 2.478925 1_555
Ni13 Ni24 2.483907 1_555
Ni13 Ni22 2.486377 1_565
Ni13 Ni14 2.495340 1_455
Ni13 Ni18 2.561639 1_566
Ni13 Th6 2.818966 1_455
Ni13 Th6 2.818966 1_565
Ni13 Th4 3.242288 1_556
Ni13 Th2 3.341606 1_455
Ni13 Th2 3.341606 1_565
Ni14 Ni24 2.483912 1_555
Ni14 Ni22 2.486374 1_665
Ni14 Ni18 2.561637 1_666
Ni14 Th6 2.818966 1_555
Ni14 Th6 2.818966 1_565
Ni14 Th4 3.242291 1_556
Ni14 Th2 3.341606 1_555
Ni14 Th2 3.341606 1_565
Ni15 Ni16 2.478925 1_555
Ni15 Ni17 2.478925 1_555
Ni15 Ni25 2.483912 1_555
Ni15 Ni23 2.486374 1_555
Ni15 Ni16 2.495340 1_455
Ni15 Ni17 2.495341 1_445
Ni15 Ni19 2.561637 1_555
Ni15 Th7 2.818966 1_555
Ni15 Th7 2.818966 1_545
Ni15 Th5 3.242291 1_555
Ni15 Th3 3.341606 1_555
Ni15 Th3 3.341606 1_545
Ni16 Ni17 2.478925 1_555
Ni16 Ni25 2.483907 1_555
Ni16 Ni23 2.486377 1_655
Ni16 Ni17 2.495340 1_545
Ni16 Ni19 2.561639 1_655
Ni16 Th7 2.818966 1_545
Ni16 Th7 2.818966 1_655
Ni16 Th5 3.242288 1_555
Ni16 Th3 3.341606 1_545
Ni16 Th3 3.341606 1_655
Ni17 Ni25 2.483912 1_555
Ni17 Ni23 2.486374 1_665
Ni17 Ni19 2.561637 1_665
Ni17 Th7 2.818966 1_555
Ni17 Th7 2.818966 1_655
Ni17 Th5 3.242291 1_555
Ni17 Th3 3.341606 1_555
Ni17 Th3 3.341606 1_655
Ni18 Ni8 2.561637 1_555
Ni18 Ni6 2.561637 1_445
Ni18 Ni9 2.561639 1_455
Ni18 Th4 2.978883 1_545
Ni18 Th6 2.978883 1_454
Ni18 Th4 2.978888 1_445
Ni18 Th4 2.978888 1_555
Ni18 Th6 2.978888 1_444
Ni18 Th6 2.978888 1_554
Ni19 Ni7 2.561637 1_555
Ni19 Th5 2.978883 1_455
Ni19 Th7 2.978883 1_545
Ni19 Th5 2.978888 1_445
Ni19 Th5 2.978888 1_555
Ni19 Th7 2.978888 1_445
Ni19 Th7 2.978888 1_555
Ni20 Ni6 2.486374 1_445
Ni20 Ni8 2.486374 1_555
Ni20 Ni9 2.486377 1_455
Ni20 Ni3 2.499114 1_455
Ni20 Ni26 2.871893 1_455
Ni20 Ni26 2.871897 1_555
Ni20 Ni26 2.871897 1_445
Ni20 Th0 2.879216 1_545
Ni20 Th0 2.879220 1_555
Ni20 Th0 2.879220 1_445
Ni21 Ni7 2.486374 1_555
Ni21 Ni4 2.499114 1_545
Ni21 Ni5 2.499114 1_445
Ni21 Ni27 2.871893 1_545
Ni21 Ni27 2.871897 1_445
Ni21 Ni27 2.871897 1_555
Ni21 Th1 2.879216 1_455
Ni21 Th1 2.879220 1_555
Ni21 Th1 2.879220 1_445
Ni22 Ni4 2.499114 1_545
Ni22 Ni5 2.499114 1_445
Ni22 Ni24 2.871893 1_545
Ni22 Ni24 2.871897 1_445
Ni22 Ni24 2.871897 1_555
Ni22 Th2 2.879216 1_455
Ni22 Th2 2.879220 1_445
Ni22 Th2 2.879220 1_555
Ni23 Ni3 2.499114 1_455
Ni23 Ni25 2.871893 1_455
Ni23 Ni25 2.871897 1_555
Ni23 Ni25 2.871897 1_445
Ni23 Th3 2.879216 1_545
Ni23 Th3 2.879220 1_445
Ni23 Th3 2.879220 1_555
Ni24 Ni4 2.496982 1_555
Ni24 Ni5 2.496984 1_555
Ni24 Th2 2.878955 1_455
Ni24 Th2 2.878955 1_565
Ni24 Th2 2.878964 1_555
Ni25 Ni3 2.496982 1_555
Ni25 Th3 2.878955 1_545
Ni25 Th3 2.878955 1_655
Ni25 Th3 2.878964 1_555
Ni26 Ni9 2.483907 1_555
Ni26 Ni8 2.483912 1_555
Ni26 Ni6 2.483912 1_555
Ni26 Ni3 2.496982 1_555
Ni26 Th0 2.878955 1_545
Ni26 Th0 2.878955 1_655
Ni26 Th0 2.878964 1_555
Ni27 Ni7 2.483912 1_555
Ni27 Ni4 2.496982 1_555
Ni27 Ni5 2.496984 1_555
Ni27 Th1 2.878955 1_455
Ni27 Th1 2.878955 1_565
Ni27 Th1 2.878964 1_555
