# generated using pymatgen
data_NdNi4B
_symmetry_space_group_name_H-M   'P 1'
_cell_length_a   5.02251806
_cell_length_b   5.02251857
_cell_length_c   6.91459546
_cell_angle_alpha   90.00000000
_cell_angle_beta   90.00000000
_cell_angle_gamma   120.00000339
_symmetry_Int_Tables_number   1
_chemical_formula_structural   NdNi4B
_chemical_formula_sum   'Nd2 Ni8 B2'
_cell_volume   151.05685949
_cell_formula_units_Z   2
loop_
 _symmetry_equiv_pos_site_id
 _symmetry_equiv_pos_as_xyz
  1  'x, y, z'
loop_
 _atom_site_type_symbol
 _atom_site_label
 _atom_site_symmetry_multiplicity
 _atom_site_fract_x
 _atom_site_fract_y
 _atom_site_fract_z
 _atom_site_occupancy
  Nd  Nd0  1  0.00000000  0.00000000  0.50000000  1
  Nd  Nd1  1  0.00000000  0.00000000  0.00000000  1
  Ni  Ni0  1  0.33333300  0.66666700  0.00000000  1
  Ni  Ni1  1  0.66666700  0.33333300  0.00000000  1
  Ni  Ni2  1  0.50000000  0.00000000  0.29254574  1
  Ni  Ni3  1  0.50000000  0.50000000  0.29254574  1
  Ni  Ni4  1  0.00000000  0.50000000  0.29254574  1
  Ni  Ni5  1  0.50000000  -0.00000000  0.70745426  1
  Ni  Ni6  1  0.50000000  0.50000000  0.70745426  1
  Ni  Ni7  1  0.00000000  0.50000000  0.70745426  1
  B  B0  1  0.66666700  0.33333300  0.50000000  1
  B  B1  1  0.33333300  0.66666700  0.50000000  1
loop_
_geom_bond_atom_site_label_1
_geom_bond_atom_site_label_2
_geom_bond_distance
_geom_bond_site_symmetry_2
Nd0 Ni6 2.892076 1_445
Nd0 Ni6 2.892076 1_555
Nd0 Ni3 2.892076 1_445
Nd0 Ni3 2.892076 1_555
Nd0 Ni5 2.892076 1_455
Nd0 Ni2 2.892076 1_455
Nd0 Ni2 2.892076 1_555
Nd0 Ni5 2.892076 1_555
Nd0 Ni7 2.892076 1_555
Nd0 Ni4 2.892076 1_555
Nd0 Ni4 2.892076 1_545
Nd0 Ni7 2.892076 1_545
Nd1 Ni1 2.899749 1_455
Nd1 Ni0 2.899749 1_545
Nd1 Ni0 2.899754 1_445
Nd1 Ni1 2.899754 1_555
Nd1 Ni0 2.899754 1_555
Nd1 Ni1 2.899754 1_445
Ni0 Ni7 2.488775 1_554
Ni0 Ni4 2.488775 1_555
Ni0 Ni5 2.488775 1_564
Ni0 Ni2 2.488775 1_565
Ni0 Ni3 2.488777 1_555
Ni0 Ni6 2.488777 1_554
Ni1 Ni7 2.488775 1_654
Ni1 Ni4 2.488775 1_655
Ni1 Ni5 2.488775 1_554
Ni1 Ni2 2.488775 1_555
Ni1 Ni3 2.488777 1_555
Ni1 Ni6 2.488777 1_554
B0 Ni4 2.039563 1_655
B0 Ni7 2.039563 1_655
B0 Ni5 2.039563 1_555
B0 Ni2 2.039563 1_555
B0 Ni6 2.039566 1_555
B0 Ni3 2.039566 1_555
B0 Nd0 2.899749 1_655
B0 Nd0 2.899754 1_555
B0 Nd0 2.899754 1_665
B1 Ni7 2.039563 1_555
B1 Ni4 2.039563 1_555
B1 Ni5 2.039563 1_565
B1 Ni2 2.039563 1_565
B1 Ni6 2.039566 1_555
B1 Ni3 2.039566 1_555
B1 Nd0 2.899749 1_565
B1 Nd0 2.899754 1_665
B1 Nd0 2.899754 1_555
