# generated using pymatgen
data_IrCl2
_symmetry_space_group_name_H-M   'P 1'
_cell_length_a   5.65768800
_cell_length_b   5.65768800
_cell_length_c   3.76222500
_cell_angle_alpha   90.00000000
_cell_angle_beta   90.00000000
_cell_angle_gamma   90.00000000
_symmetry_Int_Tables_number   1
_chemical_formula_structural   IrCl2
_chemical_formula_sum   'Ir2 Cl4'
_cell_volume   120.42669097
_cell_formula_units_Z   2
loop_
 _symmetry_equiv_pos_site_id
 _symmetry_equiv_pos_as_xyz
  1  'x, y, z'
loop_
 _atom_site_type_symbol
 _atom_site_label
 _atom_site_symmetry_multiplicity
 _atom_site_fract_x
 _atom_site_fract_y
 _atom_site_fract_z
 _atom_site_occupancy
  Ir  Ir0  1  0.00000000  0.00000000  0.00000000  1
  Ir  Ir1  1  0.50000000  0.50000000  0.50000000  1
  Cl  Cl0  1  0.30399400  0.30399400  0.00000000  1
  Cl  Cl1  1  0.69600600  0.69600600  0.00000000  1
  Cl  Cl2  1  0.19600600  0.80399400  0.50000000  1
  Cl  Cl3  1  0.80399400  0.19600600  0.50000000  1
loop_
_geom_bond_atom_site_label_1
_geom_bond_atom_site_label_2
_geom_bond_distance
_geom_bond_site_symmetry_2
Cl0 Ir0 2.432310 1_555
Cl0 Ir1 2.449099 1_555
Cl0 Ir1 2.449099 1_554
Cl1 Ir0 2.432310 1_665
Cl1 Ir1 2.449099 1_555
Cl1 Ir1 2.449099 1_554
Cl2 Ir1 2.432310 1_555
Cl2 Ir0 2.449099 1_566
Cl2 Ir0 2.449099 1_565
Cl3 Ir1 2.432310 1_555
Cl3 Ir0 2.449099 1_655
Cl3 Ir0 2.449099 1_656
