# generated using pymatgen
data_Bi2B2O7
_symmetry_space_group_name_H-M   'P 1'
_cell_length_a   8.33804900
_cell_length_b   8.60066041
_cell_length_c   5.23153183
_cell_angle_alpha   93.00715290
_cell_angle_beta   94.65333237
_cell_angle_gamma   115.16657812
_symmetry_Int_Tables_number   1
_chemical_formula_structural   Bi2B2O7
_chemical_formula_sum   'Bi4 B4 O14'
_cell_volume   336.85936990
_cell_formula_units_Z   2
loop_
 _symmetry_equiv_pos_site_id
 _symmetry_equiv_pos_as_xyz
  1  'x, y, z'
loop_
 _atom_site_type_symbol
 _atom_site_label
 _atom_site_symmetry_multiplicity
 _atom_site_fract_x
 _atom_site_fract_y
 _atom_site_fract_z
 _atom_site_occupancy
  Bi  Bi0  1  0.66892100  0.27769200  0.02414800  1
  Bi  Bi1  1  0.05190700  0.86390500  0.29571700  1
  Bi  Bi2  1  0.94809300  0.13609500  0.70428300  1
  Bi  Bi3  1  0.33107900  0.72230800  0.97585200  1
  B  B0  1  0.14792000  0.35815400  0.12075000  1
  B  B1  1  0.65440200  0.84744700  0.24733200  1
  B  B2  1  0.34559800  0.15255300  0.75266800  1
  B  B3  1  0.85208000  0.64184600  0.87925000  1
  O  O0  1  0.83284300  0.76061900  0.02564100  1
  O  O1  1  0.53825400  0.02939000  0.17836700  1
  O  O2  1  0.57997000  0.59476100  0.17686200  1
  O  O3  1  0.82395400  0.91525800  0.36437900  1
  O  O4  1  0.20831400  0.61746600  0.17086800  1
  O  O5  1  0.06871400  0.24447200  0.21519400  1
  O  O6  1  0.43987200  0.06789600  0.46974000  1
  O  O7  1  0.56012800  0.93210400  0.53026000  1
  O  O8  1  0.93128600  0.75552800  0.78480600  1
  O  O9  1  0.79168600  0.38253400  0.82913200  1
  O  O10  1  0.17604600  0.08474200  0.63562100  1
  O  O11  1  0.42003000  0.40523900  0.82313800  1
  O  O12  1  0.46174600  0.97061000  0.82163300  1
  O  O13  1  0.16715700  0.23938100  0.97435900  1
loop_
_geom_bond_atom_site_label_1
_geom_bond_atom_site_label_2
_geom_bond_distance
_geom_bond_site_symmetry_2
Bi0 O9 1.543600 1_554
Bi0 O1 2.177867 1_555
Bi0 O12 2.571211 1_544
Bi1 O0 2.047277 1_455
Bi1 O3 2.178257 1_455
Bi1 O10 2.348592 1_565
Bi2 O13 2.047277 1_655
Bi2 O10 2.178257 1_655
Bi2 O3 2.348592 1_545
Bi3 O4 1.543600 1_556
Bi3 O12 2.177867 1_555
Bi3 O1 2.571211 1_566
B0 O5 1.091191 1_555
B0 O13 1.316424 1_554
B0 O4 2.063589 1_555
B1 O3 1.354458 1_555
B1 O7 1.975182 1_555
B1 O2 1.993953 1_555
B1 O1 2.192760 1_565
B2 O10 1.354458 1_555
B2 O6 1.975182 1_555
B2 O11 1.993953 1_555
B2 O12 2.192760 1_545
B3 O8 1.091191 1_555
B3 O0 1.316424 1_556
B3 O9 2.063589 1_555
O1 O6 1.867389 1_555
O1 O12 1.891831 1_544
O12 O7 1.867389 1_555
