# generated using pymatgen
data_LiMnP2O7
_symmetry_space_group_name_H-M   'P 1'
_cell_length_a   9.74282900
_cell_length_b   9.79540378
_cell_length_c   11.12347069
_cell_angle_alpha   101.58971374
_cell_angle_beta   90.03556175
_cell_angle_gamma   91.48949246
_symmetry_Int_Tables_number   1
_chemical_formula_structural   LiMnP2O7
_chemical_formula_sum   'Li8 Mn8 P16 O56'
_cell_volume   1039.55396571
_cell_formula_units_Z   8
loop_
 _symmetry_equiv_pos_site_id
 _symmetry_equiv_pos_as_xyz
  1  'x, y, z'
loop_
 _atom_site_type_symbol
 _atom_site_label
 _atom_site_symmetry_multiplicity
 _atom_site_fract_x
 _atom_site_fract_y
 _atom_site_fract_z
 _atom_site_occupancy
  Li  Li0  1  0.29194000  0.11538300  0.45178700  1
  Li  Li1  1  0.89699100  0.08917600  0.02192400  1
  Li  Li2  1  0.40331000  0.41736700  0.97423100  1
  Li  Li3  1  0.03184800  0.40498700  0.50648100  1
  Li  Li4  1  0.89116800  0.65288700  0.04132300  1
  Li  Li5  1  0.10919600  0.90967000  0.97930100  1
  Li  Li6  1  0.42184800  0.83006600  0.45911400  1
  Li  Li7  1  0.71696100  0.88698000  0.54976700  1
  Mn  Mn0  1  0.07217000  0.19727000  0.67112800  1
  Mn  Mn1  1  0.77246400  0.27686300  0.83621800  1
  Mn  Mn2  1  0.29143100  0.23678800  0.17115700  1
  Mn  Mn3  1  0.57733300  0.29986700  0.33265500  1
  Mn  Mn4  1  0.42392600  0.70081700  0.67633000  1
  Mn  Mn5  1  0.70720900  0.76018800  0.82806600  1
  Mn  Mn6  1  0.22951900  0.72001800  0.16331600  1
  Mn  Mn7  1  0.92977300  0.80345200  0.33497600  1
  P  P0  1  0.55273100  0.02069900  0.75027500  1
  P  P1  1  0.28893900  0.11981200  0.88071900  1
  P  P2  1  0.06949200  0.06065000  0.24503000  1
  P  P3  1  0.85085200  0.12891700  0.43521000  1
  P  P4  1  0.34983800  0.37989200  0.57916300  1
  P  P5  1  0.57686300  0.42993300  0.75851800  1
  P  P6  1  0.93967000  0.52912300  0.75460000  1
  P  P7  1  0.79110400  0.38105500  0.11549400  1
  P  P8  1  0.21035400  0.61439700  0.88290900  1
  P  P9  1  0.06414700  0.46279100  0.23970700  1
  P  P10  1  0.42474100  0.56665600  0.24079900  1
  P  P11  1  0.65071900  0.62242100  0.41760800  1
  P  P12  1  0.14736200  0.87295200  0.56485900  1
  P  P13  1  0.93164500  0.93625000  0.75617400  1
  P  P14  1  0.71312300  0.88217300  0.11850200  1
  P  P15  1  0.44561300  0.97432700  0.24179300  1
  O  O0  1  0.57307700  0.00688500  0.61511400  1
  O  O1  1  0.16123200  0.02636900  0.55312800  1
  O  O2  1  0.92145000  0.08510800  0.72823800  1
  O  O3  1  0.66004400  0.10347100  0.83838300  1
  O  O4  1  0.41057900  0.09696300  0.78020200  1
  O  O5  1  0.17800000  0.19114100  0.81626900  1
  O  O6  1  0.34625000  0.22626400  0.99492000  1
  O  O7  1  0.74964600  0.02332800  0.09729300  1
  O  O8  1  0.93365700  0.12663600  0.30717100  1
  O  O9  1  0.06335800  0.06327900  0.11016100  1
  O  O10  1  0.45882000  0.12944900  0.21788000  1
  O  O11  1  0.71546500  0.19033500  0.41438500  1
  O  O12  1  0.19282400  0.15525000  0.30281900  1
  O  O13  1  0.94463400  0.22059600  0.53455500  1
  O  O14  1  0.42012900  0.28966500  0.46910400  1
  O  O15  1  0.68940200  0.33182400  0.69469400  1
  O  O16  1  0.20335900  0.32181300  0.59430100  1
  O  O17  1  0.94181300  0.38595800  0.79833600  1
  O  O18  1  0.43073800  0.36724300  0.70183500  1
  O  O19  1  0.57888000  0.41520200  0.89136600  1
  O  O20  1  0.24118000  0.47664100  0.91052900  1
  O  O21  1  0.83703300  0.26887200  0.00155800  1
  O  O22  1  0.66872900  0.32188300  0.17883900  1
  O  O23  1  0.91359500  0.39151300  0.21521100  1
  O  O24  1  0.41053400  0.41908400  0.26734200  1
  O  O25  1  0.15907800  0.37023500  0.14600900  1
  O  O26  1  0.91500100  0.52145500  0.62152900  1
  O  O27  1  0.65462400  0.47033800  0.43155300  1
  O  O28  1  0.34661500  0.53553400  0.57386200  1
  O  O29  1  0.09715100  0.46888200  0.37114600  1
  O  O30  1  0.84741500  0.62708000  0.84885300  1
  O  O31  1  0.58815200  0.57960300  0.73392800  1
  O  O32  1  0.09045800  0.60005800  0.78218900  1
  O  O33  1  0.32666500  0.69162300  0.82751100  1
  O  O34  1  0.15044200  0.71827900  0.99913600  1
  O  O35  1  0.77412700  0.51828300  0.08072200  1
  O  O36  1  0.40713200  0.57709000  0.10780600  1
  O  O37  1  0.57394200  0.62594700  0.28914100  1
  O  O38  1  0.05922000  0.60848500  0.19897200  1
  O  O39  1  0.79198000  0.68914600  0.40632200  1
  O  O40  1  0.32197900  0.67622200  0.30967000  1
  O  O41  1  0.56742000  0.71564700  0.51952100  1
  O  O42  1  0.06148900  0.78163000  0.46180900  1
  O  O43  1  0.80712900  0.84307300  0.69913400  1
  O  O44  1  0.28706700  0.81341800  0.58283900  1
  O  O45  1  0.54026800  0.86638000  0.78353700  1
  O  O46  1  0.94103300  0.93254000  0.89081800  1
  O  O47  1  0.06717500  0.86961100  0.69176400  1
  O  O48  1  0.25265800  0.98127100  0.90869500  1
  O  O49  1  0.66491800  0.77529800  0.00284900  1
  O  O50  1  0.82676800  0.80813100  0.18098300  1
  O  O51  1  0.58924700  0.89891300  0.21725900  1
  O  O52  1  0.34063400  0.89135100  0.15042800  1
  O  O53  1  0.07992200  0.91084000  0.27193800  1
  O  O54  1  0.84004000  0.97669100  0.44990300  1
  O  O55  1  0.41575100  0.97674400  0.37483700  1
loop_
_geom_bond_atom_site_label_1
_geom_bond_atom_site_label_2
_geom_bond_distance
_geom_bond_site_symmetry_2
Li0 O55 1.910852 1_545
Li0 O1 1.997920 1_555
Li0 O12 2.026926 1_555
Li0 O14 2.065925 1_555
Li0 O16 2.480128 1_555
Li1 O7 1.830396 1_555
Li1 O21 1.924672 1_555
Li1 O9 1.942783 1_655
Li1 O46 1.949608 1_544
Li2 O20 1.883071 1_555
Li2 O36 1.928656 1_556
Li2 O19 1.942172 1_555
Li2 O6 1.996320 1_555
Li3 O29 1.849810 1_555
Li3 O26 1.928201 1_455
Li3 O13 2.056454 1_455
Li3 O16 2.190621 1_555
Li4 O35 1.839960 1_555
Li4 O50 2.054535 1_555
Li4 O30 2.145931 1_554
Li4 O38 2.506984 1_655
Li5 O48 1.798360 1_555
Li5 O9 1.933385 1_566
Li5 O46 1.951636 1_455
Li5 O34 1.982452 1_555
Li6 O55 1.868747 1_555
Li6 O44 1.930365 1_555
Li6 O41 2.025641 1_555
Li6 O40 2.212748 1_555
Li7 O0 1.901796 1_565
Li7 O54 1.945042 1_555
Li7 O43 2.005539 1_555
Li7 O41 2.167467 1_555
Li7 O39 2.380790 1_555
Mn0 O5 1.927006 1_555
Mn0 O2 1.991149 1_455
Mn0 O13 2.013931 1_455
Mn0 O16 2.047304 1_555
Mn0 O1 2.114767 1_555
Mn0 O17 2.470784 1_455
Mn1 O15 1.945396 1_555
Mn1 O21 1.960442 1_556
Mn1 O3 2.001177 1_555
Mn1 O17 2.032722 1_555
Mn1 O19 2.360100 1_555
Mn1 O2 2.512994 1_555
Mn2 O25 1.919331 1_555
Mn2 O6 2.015411 1_554
Mn2 O12 2.034112 1_555
Mn2 O10 2.083967 1_555
Mn2 O24 2.191557 1_555
Mn3 O27 1.939354 1_555
Mn3 O22 1.976612 1_555
Mn3 O11 2.062589 1_555
Mn3 O14 2.171490 1_555
Mn3 O10 2.188931 1_555
Mn3 O24 2.229470 1_555
Mn4 O28 1.918793 1_555
Mn4 O33 1.947413 1_555
Mn4 O45 2.112507 1_555
Mn4 O44 2.147461 1_555
Mn4 O31 2.187120 1_555
Mn4 O41 2.261047 1_555
Mn5 O30 1.957749 1_555
Mn5 O49 1.964716 1_556
Mn5 O43 2.022925 1_555
Mn5 O45 2.065610 1_555
Mn5 O31 2.172228 1_555
Mn6 O34 1.978415 1_554
Mn6 O40 1.986121 1_555
Mn6 O52 2.002883 1_555
Mn6 O38 2.045604 1_555
Mn6 O36 2.261805 1_555
Mn6 O53 2.512841 1_555
Mn7 O42 1.953490 1_655
Mn7 O53 1.988931 1_655
Mn7 O39 1.991482 1_555
Mn7 O50 1.993787 1_555
Mn7 O54 2.117800 1_555
Mn7 O38 2.548177 1_655
O0 P0 1.496000 1_555
O1 P12 1.536847 1_545
O2 P13 1.556312 1_545
O3 P0 1.531802 1_555
O4 P0 1.594189 1_555
O4 P1 1.618525 1_555
O5 P1 1.552402 1_555
O6 P1 1.565055 1_555
O7 P14 1.483121 1_545
O8 P2 1.585273 1_655
O8 P3 1.633825 1_555
O9 P2 1.506772 1_555
O10 P15 1.596376 1_545
O11 P3 1.500790 1_555
O12 P2 1.554846 1_555
O13 P3 1.555577 1_555
O14 P4 1.531872 1_555
O15 P5 1.552862 1_555
O16 P4 1.544429 1_555
O17 P6 1.574599 1_555
O18 P4 1.603198 1_555
O18 P5 1.612246 1_555
O19 P5 1.513501 1_555
O20 P8 1.480856 1_555
O21 P7 1.575012 1_555
O22 P7 1.543755 1_555
O23 P9 1.607189 1_655
O23 P7 1.615979 1_555
O24 P10 1.535258 1_555
O25 P9 1.558459 1_555
O26 P6 1.486062 1_555
O27 P11 1.529884 1_555
O28 P4 1.538637 1_555
O29 P9 1.485913 1_555
O30 P6 1.571484 1_555
O31 P5 1.545665 1_555
O32 P8 1.601893 1_555
O32 P6 1.611189 1_455
O33 P8 1.542626 1_555
O34 P8 1.597133 1_555
O35 P7 1.484665 1_555
O36 P10 1.513171 1_555
O37 P10 1.602867 1_555
O37 P11 1.619451 1_555
O38 P9 1.583567 1_555
O39 P11 1.524310 1_555
O40 P10 1.570852 1_555
O41 P11 1.549638 1_555
O42 P12 1.536884 1_555
O43 P13 1.554382 1_555
O44 P12 1.523325 1_555
O45 P0 1.628452 1_565
O46 P13 1.508207 1_555
O47 P13 1.594069 1_455
O47 P12 1.619477 1_555
O48 P1 1.486033 1_565
O49 P14 1.550508 1_555
O50 P14 1.574270 1_555
O51 P15 1.597407 1_555
O51 P14 1.621668 1_555
O52 P15 1.537260 1_555
O53 P2 1.561255 1_565
O54 P3 1.533300 1_565
O55 P15 1.504047 1_555
