# generated using pymatgen
data_K6Al32O51
_symmetry_space_group_name_H-M   'P 1'
_cell_length_a   9.83504798
_cell_length_b   9.83504798
_cell_length_c   12.01334859
_cell_angle_alpha   82.15450402
_cell_angle_beta   82.15450402
_cell_angle_gamma   120.00367271
_symmetry_Int_Tables_number   1
_chemical_formula_structural   K6Al32O51
_chemical_formula_sum   'K6 Al32 O51'
_cell_volume   968.07832129
_cell_formula_units_Z   1
loop_
 _symmetry_equiv_pos_site_id
 _symmetry_equiv_pos_as_xyz
  1  'x, y, z'
loop_
 _atom_site_type_symbol
 _atom_site_label
 _atom_site_symmetry_multiplicity
 _atom_site_fract_x
 _atom_site_fract_y
 _atom_site_fract_z
 _atom_site_occupancy
  K  K0  1  0.81188600  0.81188600  0.51303700  1
  K  K1  1  0.81835700  0.50859800  0.47424000  1
  K  K2  1  0.49582900  0.17959600  0.51246600  1
  K  K3  1  0.50859800  0.81835700  0.47424000  1
  K  K4  1  0.19877800  0.19877800  0.47416100  1
  K  K5  1  0.17959600  0.49582900  0.51246600  1
  Al  Al0  1  0.99898100  0.99898100  0.00217000  1
  Al  Al1  1  0.90068000  0.90068000  0.79322200  1
  Al  Al2  1  0.90356700  0.40326700  0.79118700  1
  Al  Al3  1  0.73540300  0.56996400  0.79554600  1
  Al  Al4  1  0.66599900  0.33293700  0.00215300  1
  Al  Al5  1  0.98216200  0.31605200  0.05196000  1
  Al  Al6  1  0.88446200  0.21778700  0.34656100  1
  Al  Al7  1  0.78249600  0.11542000  0.65232600  1
  Al  Al8  1  0.68325300  0.01764300  0.95008500  1
  Al  Al9  1  0.92545300  0.75888000  0.21279200  1
  Al  Al10  1  0.75888000  0.92545300  0.21279200  1
  Al  Al11  1  0.76207700  0.43295500  0.21279600  1
  Al  Al12  1  0.56859700  0.23496900  0.79353300  1
  Al  Al13  1  0.56996400  0.73540300  0.79554600  1
  Al  Al14  1  0.40326700  0.90356700  0.79118700  1
  Al  Al15  1  0.64606100  0.64606100  0.06342800  1
  Al  Al16  1  0.34897900  0.34897900  0.94979000  1
  Al  Al17  1  0.44765700  0.44765700  0.65807900  1
  Al  Al18  1  0.33293700  0.66599900  0.00215300  1
  Al  Al19  1  0.59740000  0.09504100  0.20704600  1
  Al  Al20  1  0.42919900  0.26646100  0.21260200  1
  Al  Al21  1  0.23496900  0.56859700  0.79353300  1
  Al  Al22  1  0.43295500  0.76207700  0.21279600  1
  Al  Al23  1  0.23534900  0.06778000  0.79351700  1
  Al  Al24  1  0.06778000  0.23534900  0.79351700  1
  Al  Al25  1  0.31605200  0.98216200  0.05196000  1
  Al  Al26  1  0.11542000  0.78249600  0.65232600  1
  Al  Al27  1  0.01764300  0.68325300  0.95008500  1
  Al  Al28  1  0.21778700  0.88446200  0.34656100  1
  Al  Al29  1  0.26646100  0.42919900  0.21260200  1
  Al  Al30  1  0.09504100  0.59740000  0.20704600  1
  Al  Al31  1  0.10035800  0.10035800  0.20700300  1
  O  O0  1  0.93279800  0.26609100  0.71031300  1
  O  O1  1  0.92632700  0.76264400  0.71132700  1
  O  O2  1  0.87654900  0.03419400  0.89993700  1
  O  O3  1  0.85726100  0.52380000  0.89993100  1
  O  O4  1  0.70422400  0.70422400  0.89556600  1
  O  O5  1  0.91078600  0.91078600  0.28011400  1
  O  O6  1  0.97256100  0.63189100  0.10429800  1
  O  O7  1  0.75994800  0.42773300  0.71975200  1
  O  O8  1  0.83314800  0.16629500  0.50022400  1
  O  O9  1  0.76264400  0.92632700  0.71132700  1
  O  O10  1  0.96654800  0.12421600  0.09770500  1
  O  O11  1  0.90578200  0.40495300  0.28816700  1
  O  O12  1  0.69998500  0.21079000  0.89899600  1
  O  O13  1  0.59711300  0.59711300  0.71994000  1
  O  O14  1  0.81357300  0.81357300  0.09770600  1
  O  O15  1  0.75537700  0.57209200  0.28444700  1
  O  O16  1  0.54298600  0.36530500  0.90229700  1
  O  O17  1  0.59385400  0.09705100  0.71031300  1
  O  O18  1  0.79096500  0.30130600  0.09757600  1
  O  O19  1  0.52380000  0.85726100  0.89993100  1
  O  O20  1  0.73607900  0.07168500  0.28813200  1
  O  O21  1  0.49575800  0.49575800  0.51368400  1
  O  O22  1  0.57313500  0.23602900  0.28004700  1
  O  O23  1  0.42773300  0.75994800  0.71975200  1
  O  O24  1  0.36940200  0.03315300  0.89178000  1
  O  O25  1  0.63189100  0.97256100  0.10429800  1
  O  O26  1  0.42677900  0.25652600  0.71893300  1
  O  O27  1  0.63453700  0.45546000  0.09778100  1
  O  O28  1  0.36530500  0.54298600  0.90229700  1
  O  O29  1  0.57209200  0.75537700  0.28444700  1
  O  O30  1  0.47694500  0.14359300  0.09766700  1
  O  O31  1  0.26609100  0.93279800  0.71031300  1
  O  O32  1  0.21079000  0.69998500  0.89899600  1
  O  O33  1  0.45546000  0.63453700  0.09778100  1
  O  O34  1  0.40495300  0.90578200  0.28816700  1
  O  O35  1  0.25652600  0.42677900  0.71893300  1
  O  O36  1  0.18758500  0.18758500  0.90136400  1
  O  O37  1  0.38859800  0.38859800  0.28438900  1
  O  O38  1  0.09264200  0.09264200  0.71976100  1
  O  O39  1  0.29124100  0.29124100  0.10440400  1
  O  O40  1  0.16629500  0.83314800  0.50022400  1
  O  O41  1  0.03315300  0.36940200  0.89178000  1
  O  O42  1  0.23602900  0.57313500  0.28004700  1
  O  O43  1  0.03419400  0.87654900  0.89993700  1
  O  O44  1  0.30130600  0.79096500  0.09757600  1
  O  O45  1  0.23530800  0.06970900  0.28815400  1
  O  O46  1  0.09705100  0.59385400  0.71031300  1
  O  O47  1  0.14359300  0.47694500  0.09766700  1
  O  O48  1  0.12421600  0.96654800  0.09770500  1
  O  O49  1  0.06970900  0.23530800  0.28815400  1
  O  O50  1  0.07168500  0.73607900  0.28813200  1
loop_
_geom_bond_atom_site_label_1
_geom_bond_atom_site_label_2
_geom_bond_distance
_geom_bond_site_symmetry_2
K0 O5 2.699954 1_555
K0 O13 2.787973 1_555
K0 O9 2.852729 1_555
K0 O1 2.852729 1_555
K0 O21 3.106848 1_555
K1 O15 2.521101 1_555
K1 O11 2.783728 1_555
K1 O50 2.783982 1_655
K1 O7 2.846356 1_555
K1 O21 3.078881 1_555
K2 O22 2.693965 1_555
K2 O26 2.784276 1_555
K2 O17 2.849435 1_555
K2 O31 2.849560 1_545
K2 O21 3.111848 1_555
K3 O29 2.521101 1_555
K3 O34 2.783728 1_555
K3 O20 2.783982 1_565
K3 O23 2.846356 1_555
K3 O21 3.078881 1_555
K4 O37 2.521602 1_555
K4 O45 2.782998 1_555
K4 O49 2.782998 1_555
K4 O38 2.848367 1_555
K4 O21 3.084291 1_555
K5 O42 2.693965 1_555
K5 O35 2.784276 1_555
K5 O46 2.849435 1_555
K5 O0 2.849560 1_455
K5 O21 3.111848 1_555
Al0 O14 1.870640 1_555
Al0 O10 1.901295 1_565
Al0 O48 1.901295 1_655
Al0 O36 1.918441 1_664
Al0 O43 1.944970 1_654
Al0 O2 1.944970 1_564
Al1 O38 1.852857 1_665
Al1 O1 1.874558 1_555
Al1 O9 1.874558 1_555
Al1 O4 1.986801 1_555
Al1 O2 2.027888 1_565
Al1 O43 2.027888 1_655
Al2 O7 1.844991 1_555
Al2 O46 1.873325 1_655
Al2 O0 1.875166 1_555
Al2 O41 1.982608 1_655
Al2 O12 2.025316 1_555
Al2 O3 2.029686 1_555
Al3 O13 1.838575 1_555
Al3 O7 1.862680 1_555
Al3 O1 1.881441 1_555
Al3 O3 2.003523 1_555
Al3 O4 2.004728 1_555
Al3 O16 2.024990 1_555
Al4 O27 1.876535 1_555
Al4 O18 1.895026 1_555
Al4 O30 1.900776 1_555
Al4 O16 1.918658 1_554
Al4 O3 1.943902 1_554
Al4 O12 1.945664 1_554
Al5 O18 1.811517 1_555
Al5 O47 1.813504 1_655
Al5 O10 1.813675 1_555
Al5 O41 1.851341 1_654
Al6 O20 1.773403 1_555
Al6 O49 1.773527 1_655
Al6 O11 1.773656 1_555
Al6 O8 1.775876 1_555
Al7 O8 1.757835 1_555
Al7 O17 1.799347 1_555
Al7 O9 1.799541 1_545
Al7 O0 1.799588 1_555
Al8 O25 1.783313 1_546
Al8 O12 1.831335 1_555
Al8 O19 1.831372 1_545
Al8 O2 1.831554 1_555
Al9 O15 1.736587 1_555
Al9 O5 1.849460 1_555
Al9 O50 1.886900 1_655
Al9 O14 2.053251 1_555
Al9 O6 2.081241 1_555
Al9 O48 2.098239 1_655
Al10 O29 1.736587 1_555
Al10 O5 1.849460 1_555
Al10 O20 1.886900 1_565
Al10 O14 2.053251 1_555
Al10 O25 2.081241 1_555
Al10 O10 2.098239 1_565
Al11 O15 1.736117 1_555
Al11 O22 1.849450 1_555
Al11 O11 1.887808 1_555
Al11 O27 2.049120 1_555
Al11 O6 2.080576 1_555
Al11 O18 2.103076 1_555
Al12 O26 1.838118 1_555
Al12 O7 1.854495 1_555
Al12 O17 1.881624 1_555
Al12 O12 2.000893 1_555
Al12 O24 2.002748 1_555
Al12 O16 2.025881 1_555
Al13 O13 1.838575 1_555
Al13 O23 1.862680 1_555
Al13 O9 1.881441 1_555
Al13 O19 2.003523 1_555
Al13 O4 2.004728 1_555
Al13 O28 2.024990 1_555
Al14 O23 1.844991 1_555
Al14 O17 1.873325 1_565
Al14 O31 1.875166 1_555
Al14 O24 1.982608 1_565
Al14 O32 2.025316 1_555
Al14 O19 2.029686 1_555
Al15 O14 1.803862 1_555
Al15 O27 1.805746 1_555
Al15 O33 1.805746 1_555
Al15 O4 1.940090 1_554
Al16 O39 1.787896 1_556
Al16 O36 1.833561 1_555
Al16 O28 1.833960 1_555
Al16 O16 1.833960 1_555
Al17 O21 1.668765 1_555
Al17 O35 1.818794 1_555
Al17 O26 1.818794 1_555
Al17 O13 1.819097 1_555
Al18 O33 1.876535 1_555
Al18 O44 1.895026 1_555
Al18 O47 1.900776 1_555
Al18 O28 1.918658 1_554
Al18 O19 1.943902 1_554
Al18 O32 1.945664 1_554
Al19 O22 1.831552 1_555
Al19 O34 1.864025 1_545
Al19 O20 1.864643 1_555
Al19 O25 1.946798 1_545
Al19 O30 2.043905 1_555
Al19 O18 2.048116 1_555
Al20 O37 1.736273 1_555
Al20 O22 1.849517 1_555
Al20 O45 1.887382 1_555
Al20 O27 2.054631 1_555
Al20 O39 2.077403 1_555
Al20 O30 2.105533 1_555
Al21 O35 1.838118 1_555
Al21 O23 1.854495 1_555
Al21 O46 1.881624 1_555
Al21 O32 2.000893 1_555
Al21 O41 2.002748 1_555
Al21 O28 2.025881 1_555
Al22 O29 1.736117 1_555
Al22 O42 1.849450 1_555
Al22 O34 1.887808 1_555
Al22 O33 2.049120 1_555
Al22 O25 2.080576 1_555
Al22 O44 2.103076 1_555
Al23 O26 1.839418 1_555
Al23 O38 1.854285 1_555
Al23 O31 1.879927 1_545
Al23 O24 2.002971 1_555
Al23 O43 2.004367 1_545
Al23 O36 2.022823 1_555
Al24 O35 1.839418 1_555
Al24 O38 1.854285 1_555
Al24 O0 1.879927 1_455
Al24 O41 2.002971 1_555
Al24 O2 2.004367 1_455
Al24 O36 2.022823 1_555
Al25 O44 1.811517 1_555
Al25 O30 1.813504 1_565
Al25 O48 1.813675 1_555
Al25 O24 1.851341 1_564
Al26 O40 1.757835 1_555
Al26 O46 1.799347 1_555
Al26 O1 1.799541 1_455
Al26 O31 1.799588 1_555
Al27 O6 1.783313 1_456
Al27 O32 1.831335 1_555
Al27 O3 1.831372 1_455
Al27 O43 1.831554 1_555
Al28 O50 1.773403 1_555
Al28 O45 1.773527 1_565
Al28 O34 1.773656 1_555
Al28 O40 1.775876 1_555
Al29 O37 1.736273 1_555
Al29 O42 1.849517 1_555
Al29 O49 1.887382 1_555
Al29 O33 2.054631 1_555
Al29 O39 2.077403 1_555
Al29 O47 2.105533 1_555
Al30 O42 1.831552 1_555
Al30 O11 1.864025 1_455
Al30 O50 1.864643 1_555
Al30 O6 1.946798 1_455
Al30 O47 2.043905 1_555
Al30 O44 2.048116 1_555
Al31 O5 1.831144 1_445
Al31 O45 1.864400 1_555
Al31 O49 1.864400 1_555
Al31 O39 1.944170 1_555
Al31 O48 2.051224 1_545
Al31 O10 2.051224 1_455
