# generated using pymatgen
data_Li2FeOF3
_symmetry_space_group_name_H-M   'P 1'
_cell_length_a   5.96411500
_cell_length_b   5.96424900
_cell_length_c   8.58639000
_cell_angle_alpha   90.00007179
_cell_angle_beta   89.99975500
_cell_angle_gamma   89.99676256
_symmetry_Int_Tables_number   1
_chemical_formula_structural   Li2FeOF3
_chemical_formula_sum   'Li8 Fe4 O4 F12'
_cell_volume   305.43048764
_cell_formula_units_Z   4
loop_
 _symmetry_equiv_pos_site_id
 _symmetry_equiv_pos_as_xyz
  1  'x, y, z'
loop_
 _atom_site_type_symbol
 _atom_site_label
 _atom_site_symmetry_multiplicity
 _atom_site_fract_x
 _atom_site_fract_y
 _atom_site_fract_z
 _atom_site_occupancy
  Li  Li0  1  0.23460900  0.25386800  0.37280600  1
  Li  Li1  1  0.25384800  0.76537800  0.12279400  1
  Li  Li2  1  0.74615400  0.23462500  0.62279500  1
  Li  Li3  1  0.76539500  0.74613200  0.87280400  1
  Li  Li4  1  0.25870000  0.49879400  0.74501900  1
  Li  Li5  1  0.50128800  0.25871800  0.99502900  1
  Li  Li6  1  0.49871000  0.74128300  0.49503000  1
  Li  Li7  1  0.74130100  0.50120100  0.24502100  1
  Fe  Fe0  1  0.24992300  0.98225700  0.76852800  1
  Fe  Fe1  1  0.75007800  0.01774100  0.26851800  1
  Fe  Fe2  1  0.01793500  0.24980700  0.01855400  1
  Fe  Fe3  1  0.98206500  0.75019400  0.51855900  1
  O  O0  1  0.02751400  0.76042300  0.73473400  1
  O  O1  1  0.23968100  0.02751700  0.98469500  1
  O  O2  1  0.76031400  0.97248300  0.48469800  1
  O  O3  1  0.97248300  0.23957400  0.23473700  1
  F  F0  1  0.01443700  0.24937600  0.76136700  1
  F  F1  1  0.24933700  0.98561200  0.51136500  1
  F  F2  1  0.75066100  0.01438700  0.01136000  1
  F  F3  1  0.98556600  0.75062300  0.26136800  1
  F  F4  1  0.24681400  0.49186000  0.99521300  1
  F  F5  1  0.49186900  0.75323200  0.74519600  1
  F  F6  1  0.50813500  0.24676600  0.24519700  1
  F  F7  1  0.75318500  0.50814600  0.49521200  1
  F  F8  1  0.23772600  0.52613600  0.49735600  1
  F  F9  1  0.47392200  0.23781800  0.74734400  1
  F  F10  1  0.52607800  0.76217500  0.24734400  1
  F  F11  1  0.76227200  0.47387300  0.99735600  1
loop_
_geom_bond_atom_site_label_1
_geom_bond_atom_site_label_2
_geom_bond_distance
_geom_bond_site_symmetry_2
Li0 O3 1.963875 1_455
Li1 O1 1.964077 1_564
Li2 O2 1.964076 1_545
Li3 O0 1.963838 1_655
Li4 O0 2.084134 1_555
Li5 O1 2.084223 1_555
Li6 O2 2.084205 1_555
Li7 O3 2.084108 1_555
Fe0 O1 1.876614 1_565
Fe0 O0 1.895904 1_555
Fe1 O2 1.876723 1_545
Fe1 O3 1.895865 1_555
Fe2 O3 1.876913 1_455
Fe2 O1 1.895020 1_554
Fe3 O0 1.876844 1_655
Fe3 O2 1.895042 1_555
F0 Li2 1.995921 1_455
F0 Li4 2.086906 1_555
F0 Fe0 2.124670 1_545
F0 Fe2 2.208408 1_556
F1 Li0 1.995738 1_565
F1 Li6 2.086864 1_555
F1 Fe3 2.125208 1_455
F1 Fe0 2.208195 1_555
F2 Li3 1.995716 1_544
F2 Li5 2.086871 1_554
F2 Fe2 2.125225 1_655
F2 Fe1 2.208152 1_555
F3 Li1 1.995920 1_655
F3 Li7 2.086932 1_555
F3 Fe1 2.124671 1_565
F3 Fe3 2.208442 1_555
F4 Li1 1.965460 1_556
F4 Fe2 1.996984 1_556
F4 Li5 2.058337 1_555
F4 Li4 2.149830 1_555
F5 Li3 1.965608 1_555
F5 Fe0 1.996996 1_555
F5 Li4 2.058407 1_555
F5 Li6 2.149592 1_555
F6 Li0 1.965605 1_555
F6 Fe1 1.996975 1_555
F6 Li7 2.058382 1_555
F6 Li5 2.149611 1_554
F7 Li2 1.965486 1_555
F7 Fe3 1.996972 1_555
F7 Li6 2.058321 1_555
F7 Li7 2.149806 1_555
F8 Li0 1.944480 1_555
F8 Li6 2.017428 1_555
F8 Fe3 2.035608 1_455
F8 Li4 2.136440 1_555
F9 Li2 1.944266 1_555
F9 Li4 2.017572 1_555
F9 Fe0 2.035035 1_545
F9 Li5 2.136614 1_555
F10 Li1 1.944269 1_555
F10 Li7 2.017566 1_555
F10 Fe1 2.035054 1_565
F10 Li6 2.136620 1_555
F11 Li3 1.944447 1_555
F11 Li5 2.017458 1_555
F11 Fe2 2.035646 1_656
F11 Li7 2.136448 1_556
