# generated using pymatgen
data_Li3V2Cr2O8
_symmetry_space_group_name_H-M   'P 1'
_cell_length_a   5.87241853
_cell_length_b   5.84815882
_cell_length_c   5.94571629
_cell_angle_alpha   59.94987059
_cell_angle_beta   59.61589202
_cell_angle_gamma   89.84097242
_symmetry_Int_Tables_number   1
_chemical_formula_structural   Li3V2Cr2O8
_chemical_formula_sum   'Li3 V2 Cr2 O8'
_cell_volume   143.63507301
_cell_formula_units_Z   1
loop_
 _symmetry_equiv_pos_site_id
 _symmetry_equiv_pos_as_xyz
  1  'x, y, z'
loop_
 _atom_site_type_symbol
 _atom_site_label
 _atom_site_symmetry_multiplicity
 _atom_site_fract_x
 _atom_site_fract_y
 _atom_site_fract_z
 _atom_site_occupancy
  Li  Li0  1  0.00000000  0.50000000  0.00000000  1
  Li  Li1  1  0.50000000  0.00000000  0.50000000  1
  Li  Li2  1  0.50000000  0.50000000  0.00000000  1
  V  V0  1  0.00000000  0.50000000  0.50000000  1
  V  V1  1  0.50000000  0.00000000  0.00000000  1
  Cr  Cr0  1  0.00000000  0.00000000  0.50000000  1
  Cr  Cr1  1  0.00000000  0.00000000  0.00000000  1
  O  O0  1  0.76230200  0.78116400  0.97119700  1
  O  O1  1  0.23989500  0.76064400  0.47995900  1
  O  O2  1  0.21756500  0.23789600  0.52125000  1
  O  O3  1  0.75801500  0.24437100  0.98382800  1
  O  O4  1  0.24198500  0.75562900  0.01617200  1
  O  O5  1  0.78243500  0.76210400  0.47875000  1
  O  O6  1  0.76010500  0.23935600  0.52004100  1
  O  O7  1  0.23769800  0.21883600  0.02880300  1
loop_
_geom_bond_atom_site_label_1
_geom_bond_atom_site_label_2
_geom_bond_distance
_geom_bond_site_symmetry_2
Li0 O4 2.134824 1_555
Li0 O3 2.134824 1_454
Li0 O7 2.151398 1_555
Li0 O0 2.151398 1_454
Li0 O6 2.180341 1_455
Li0 O1 2.180341 1_554
Li1 O5 2.157239 1_545
Li1 O2 2.157239 1_555
Li1 O6 2.160958 1_555
Li1 O1 2.160958 1_545
Li1 O4 2.161570 1_546
Li1 O3 2.161570 1_554
Li2 O4 2.126948 1_555
Li2 O3 2.126948 1_554
Li2 O0 2.137963 1_554
Li2 O7 2.137963 1_555
Li2 O5 2.182209 1_554
Li2 O2 2.182209 1_555
Cr0 O0 1.974417 1_445
Cr0 O7 1.974417 1_555
Cr0 O2 1.983205 1_555
Cr0 O5 1.983205 1_445
Cr0 O6 1.986082 1_455
Cr0 O1 1.986082 1_545
Cr1 O5 2.008797 1_445
Cr1 O2 2.008797 1_554
Cr1 O4 2.015019 1_545
Cr1 O3 2.015019 1_454
Cr1 O7 2.021596 1_555
Cr1 O0 2.021596 1_444
O0 V1 1.995386 1_566
O1 V0 1.995613 1_555
O1 V1 2.009466 1_565
O2 V0 1.989052 1_555
O3 V1 2.018513 1_556
O3 V0 2.024628 1_655
O4 V1 2.018513 1_565
O4 V0 2.024628 1_555
O5 V0 1.989052 1_655
O6 V0 1.995613 1_655
O6 V1 2.009466 1_556
O7 V1 1.995386 1_555
