# generated using pymatgen
data_LiFeSiO4
_symmetry_space_group_name_H-M   'P 1'
_cell_length_a   8.60871792
_cell_length_b   8.60871792
_cell_length_c   8.60871762
_cell_angle_alpha   107.36503042
_cell_angle_beta   107.36503042
_cell_angle_gamma   107.36503832
_symmetry_Int_Tables_number   1
_chemical_formula_structural   LiFeSiO4
_chemical_formula_sum   'Li6 Fe6 Si6 O24'
_cell_volume   525.94559930
_cell_formula_units_Z   6
loop_
 _symmetry_equiv_pos_site_id
 _symmetry_equiv_pos_as_xyz
  1  'x, y, z'
loop_
 _atom_site_type_symbol
 _atom_site_label
 _atom_site_symmetry_multiplicity
 _atom_site_fract_x
 _atom_site_fract_y
 _atom_site_fract_z
 _atom_site_occupancy
  Li  Li0  1  0.54034100  0.76744100  0.94263100  1
  Li  Li1  1  0.23255900  0.05736900  0.45965900  1
  Li  Li2  1  0.05736900  0.45965900  0.23255900  1
  Li  Li3  1  0.94263100  0.54034100  0.76744100  1
  Li  Li4  1  0.76744100  0.94263100  0.54034100  1
  Li  Li5  1  0.45965900  0.23255900  0.05736900  1
  Fe  Fe0  1  0.10905800  0.28634300  0.87327900  1
  Fe  Fe1  1  0.12672100  0.89094200  0.71365700  1
  Fe  Fe2  1  0.71365700  0.12672100  0.89094200  1
  Fe  Fe3  1  0.28634300  0.87327900  0.10905800  1
  Fe  Fe4  1  0.87327900  0.10905800  0.28634300  1
  Fe  Fe5  1  0.89094200  0.71365700  0.12672100  1
  Si  Si0  1  0.21549500  0.43921400  0.61103400  1
  Si  Si1  1  0.56078600  0.38896600  0.78450500  1
  Si  Si2  1  0.38896600  0.78450500  0.56078600  1
  Si  Si3  1  0.61103400  0.21549500  0.43921400  1
  Si  Si4  1  0.43921400  0.61103400  0.21549500  1
  Si  Si5  1  0.78450500  0.56078600  0.38896600  1
  O  O0  1  0.01992300  0.04933400  0.70437300  1
  O  O1  1  0.29562700  0.98007700  0.95066600  1
  O  O2  1  0.11442400  0.43486300  0.74239900  1
  O  O3  1  0.25760100  0.88557600  0.56513700  1
  O  O4  1  0.07591600  0.34371800  0.40003300  1
  O  O5  1  0.35174800  0.65086700  0.66644400  1
  O  O6  1  0.56513700  0.25760100  0.88557600  1
  O  O7  1  0.34913300  0.33355600  0.64825200  1
  O  O8  1  0.65628200  0.59996700  0.92408400  1
  O  O9  1  0.59996700  0.92408400  0.65628200  1
  O  O10  1  0.33355600  0.64825200  0.34913300  1
  O  O11  1  0.95066600  0.29562700  0.98007700  1
  O  O12  1  0.04933400  0.70437300  0.01992300  1
  O  O13  1  0.66644400  0.35174800  0.65086700  1
  O  O14  1  0.40003300  0.07591600  0.34371800  1
  O  O15  1  0.34371800  0.40003300  0.07591600  1
  O  O16  1  0.65086700  0.66644400  0.35174800  1
  O  O17  1  0.43486300  0.74239900  0.11442400  1
  O  O18  1  0.64825200  0.34913300  0.33355500  1
  O  O19  1  0.92408400  0.65628200  0.59996700  1
  O  O20  1  0.74239900  0.11442400  0.43486300  1
  O  O21  1  0.88557600  0.56513700  0.25760100  1
  O  O22  1  0.70437300  0.01992300  0.04933400  1
  O  O23  1  0.98007700  0.95066600  0.29562700  1
loop_
_geom_bond_atom_site_label_1
_geom_bond_atom_site_label_2
_geom_bond_distance
_geom_bond_site_symmetry_2
Li0 O22 1.940094 1_566
Li0 O8 1.979139 1_555
Li0 O17 1.983243 1_556
Li0 O5 2.143602 1_555
Li1 O23 1.940094 1_445
Li1 O14 1.979139 1_555
Li1 O3 1.983243 1_545
Li1 O7 2.143602 1_555
Li2 O11 1.940094 1_454
Li2 O4 1.979139 1_555
Li2 O21 1.983244 1_455
Li2 O10 2.143602 1_555
Li3 O12 1.940094 1_656
Li3 O19 1.979139 1_555
Li3 O2 1.983244 1_655
Li3 O13 2.143602 1_555
Li4 O0 1.940094 1_665
Li4 O9 1.979139 1_555
Li4 O20 1.983243 1_565
Li4 O16 2.143602 1_555
Li5 O1 1.940094 1_544
Li5 O15 1.979139 1_555
Li5 O6 1.983243 1_554
Li5 O18 2.143596 1_555
Fe0 O11 1.865598 1_455
Fe0 O0 1.869390 1_555
Fe0 O2 1.939602 1_555
Fe0 O15 1.943972 1_556
Fe1 O0 1.865598 1_565
Fe1 O1 1.869390 1_555
Fe1 O3 1.939602 1_555
Fe1 O19 1.943972 1_455
Fe2 O22 1.865598 1_556
Fe2 O11 1.869390 1_555
Fe2 O6 1.939602 1_555
Fe2 O9 1.943972 1_545
Fe3 O1 1.865598 1_554
Fe3 O12 1.869390 1_555
Fe3 O17 1.939602 1_555
Fe3 O14 1.943972 1_565
Fe4 O23 1.865598 1_545
Fe4 O22 1.869390 1_555
Fe4 O20 1.939602 1_555
Fe4 O4 1.943972 1_655
Fe5 O12 1.865598 1_655
Fe5 O23 1.869390 1_555
Fe5 O21 1.939602 1_555
Fe5 O8 1.943972 1_554
O2 Si0 1.621895 1_555
O3 Si2 1.621895 1_555
O4 Si0 1.623355 1_555
O5 Si0 1.671754 1_555
O5 Si2 1.682883 1_555
O6 Si1 1.621895 1_555
O7 Si1 1.671754 1_555
O7 Si0 1.682883 1_555
O8 Si1 1.623355 1_555
O9 Si2 1.623355 1_555
O10 Si2 1.671754 1_555
O10 Si4 1.682883 1_555
O13 Si3 1.671754 1_555
O13 Si1 1.682883 1_555
O14 Si3 1.623355 1_555
O15 Si4 1.623355 1_555
O16 Si4 1.671754 1_555
O16 Si5 1.682883 1_555
O17 Si4 1.621895 1_555
O18 Si5 1.671752 1_555
O18 Si3 1.682889 1_555
O19 Si5 1.623355 1_555
O20 Si3 1.621895 1_555
O21 Si5 1.621895 1_555
