# generated using pymatgen
data_Lu2MgAl
_symmetry_space_group_name_H-M   'P 1'
_cell_length_a   5.06692821
_cell_length_b   5.06692821
_cell_length_c   5.06692821
_cell_angle_alpha   60.00000000
_cell_angle_beta   60.00000000
_cell_angle_gamma   60.00000000
_symmetry_Int_Tables_number   1
_chemical_formula_structural   Lu2MgAl
_chemical_formula_sum   'Lu2 Mg1 Al1'
_cell_volume   91.98547525
_cell_formula_units_Z   1
loop_
 _symmetry_equiv_pos_site_id
 _symmetry_equiv_pos_as_xyz
  1  'x, y, z'
loop_
 _atom_site_type_symbol
 _atom_site_label
 _atom_site_symmetry_multiplicity
 _atom_site_fract_x
 _atom_site_fract_y
 _atom_site_fract_z
 _atom_site_occupancy
  Lu  Lu0  1  -0.00000000  0.00000000  0.00000000  1
  Lu  Lu1  1  0.49999900  0.49999900  0.49999900  1
  Mg  Mg0  1  0.75000000  0.75000000  0.75000000  1
  Al  Al0  1  0.24999900  0.24999900  0.24999900  1
loop_
_geom_bond_atom_site_label_1
_geom_bond_atom_site_label_2
_geom_bond_distance
_geom_bond_site_symmetry_2
Lu0 Mg0 3.102847 1_454
Lu0 Mg0 3.102847 1_444
Lu0 Mg0 3.102847 1_445
Lu0 Mg0 3.102847 1_544
Lu1 Mg0 3.102843 1_545
Lu1 Mg0 3.102843 1_554
Lu1 Mg0 3.102843 1_455
Lu1 Mg0 3.102860 1_555
Al0 Lu0 3.102835 1_555
Al0 Lu1 3.102847 1_554
Al0 Lu1 3.102847 1_455
Al0 Lu1 3.102847 1_555
Al0 Lu1 3.102847 1_545
Al0 Lu0 3.102851 1_556
Al0 Lu0 3.102851 1_655
Al0 Lu0 3.102851 1_565
