# generated using pymatgen
data_LiFeP2HO7
_symmetry_space_group_name_H-M   'P 1'
_cell_length_a   6.57173000
_cell_length_b   8.74544320
_cell_length_c   9.94681282
_cell_angle_alpha   89.58400361
_cell_angle_beta   108.73967621
_cell_angle_gamma   102.00290767
_symmetry_Int_Tables_number   1
_chemical_formula_structural   LiFeP2HO7
_chemical_formula_sum   'Li4 Fe4 P8 H4 O28'
_cell_volume   528.43344814
_cell_formula_units_Z   4
loop_
 _symmetry_equiv_pos_site_id
 _symmetry_equiv_pos_as_xyz
  1  'x, y, z'
loop_
 _atom_site_type_symbol
 _atom_site_label
 _atom_site_symmetry_multiplicity
 _atom_site_fract_x
 _atom_site_fract_y
 _atom_site_fract_z
 _atom_site_occupancy
  Li  Li0  1  0.28150000  0.03123400  0.37308600  1
  Li  Li1  1  0.71850000  0.96876600  0.62691400  1
  Li  Li2  1  0.32306500  0.50889800  0.87846400  1
  Li  Li3  1  0.67693500  0.49110200  0.12153600  1
  Fe  Fe0  1  0.16459800  0.41438000  0.31053900  1
  Fe  Fe1  1  0.39175800  0.97279700  0.77447600  1
  Fe  Fe2  1  0.83540200  0.58562000  0.68946100  1
  Fe  Fe3  1  0.60824200  0.02720300  0.22552400  1
  P  P0  1  0.21128300  0.24614000  0.63881600  1
  P  P1  1  0.78871700  0.75386000  0.36118400  1
  P  P2  1  0.23263200  0.70616900  0.55455900  1
  P  P3  1  0.25938300  0.23179400  0.07347300  1
  P  P4  1  0.76736800  0.29383100  0.44544100  1
  P  P5  1  0.74061700  0.76820600  0.92652700  1
  P  P6  1  0.17315200  0.74234100  0.12745200  1
  P  P7  1  0.82684800  0.25765900  0.87254800  1
  H  H0  1  0.55619100  0.69215200  0.48590200  1
  H  H1  1  0.60012800  0.21454400  0.00371300  1
  H  H2  1  0.44380900  0.30784800  0.51409800  1
  H  H3  1  0.39987200  0.78545600  0.99628700  1
  O  O0  1  0.28679300  0.24027600  0.49982300  1
  O  O1  1  0.62933200  0.12413700  0.42498400  1
  O  O2  1  0.85574800  0.92246000  0.32049500  1
  O  O3  1  0.62922800  0.63760900  0.24986700  1
  O  O4  1  0.14425200  0.07754000  0.67950500  1
  O  O5  1  0.66490800  0.13578400  0.75814300  1
  O  O6  1  0.37066800  0.87586300  0.57501600  1
  O  O7  1  0.71320700  0.75972400  0.50017700  1
  O  O8  1  0.01251600  0.69475400  0.42128800  1
  O  O9  1  0.83778700  0.33500400  0.31418000  1
  O  O10  1  0.34293400  0.59153400  0.50073000  1
  O  O11  1  0.02942400  0.17290800  0.94384300  1
  O  O12  1  0.79111600  0.78217700  0.78486600  1
  O  O13  1  0.40322900  0.11434400  0.05940200  1
  O  O14  1  0.65706600  0.40846600  0.49927000  1
  O  O15  1  0.16221300  0.66499600  0.68582000  1
  O  O16  1  0.98748400  0.30524600  0.57871200  1
  O  O17  1  0.59677100  0.88565600  0.94059800  1
  O  O18  1  0.20888400  0.21782300  0.21513400  1
  O  O19  1  0.97057600  0.82709200  0.05615700  1
  O  O20  1  0.26006100  0.71462000  0.00093400  1
  O  O21  1  0.63947400  0.60486200  0.95035000  1
  O  O22  1  0.37077200  0.36239100  0.75013300  1
  O  O23  1  0.91348400  0.41387600  0.82256300  1
  O  O24  1  0.33509200  0.86421600  0.24185700  1
  O  O25  1  0.08651600  0.58612400  0.17743700  1
  O  O26  1  0.36052600  0.39513800  0.04965000  1
  O  O27  1  0.73993900  0.28538000  0.99906600  1
loop_
_geom_bond_atom_site_label_1
_geom_bond_atom_site_label_2
_geom_bond_distance
_geom_bond_site_symmetry_2
Li0 O24 2.120943 1_545
Li0 O1 2.151090 1_555
Li0 O0 2.216173 1_555
Li0 O18 2.272408 1_555
Li0 O6 2.399850 1_545
Li0 O2 2.639458 1_445
Li1 O5 2.120943 1_565
Li1 O6 2.151090 1_555
Li1 O7 2.216173 1_555
Li1 O12 2.272408 1_555
Li1 O1 2.399850 1_565
Li1 O4 2.639458 1_665
Li2 O26 1.938478 1_556
Li2 O22 1.953797 1_555
Li2 O21 1.966440 1_555
Li2 O20 2.357545 1_556
Li2 O15 2.431779 1_555
Li2 O23 2.521801 1_455
Li3 O21 1.938478 1_554
Li3 O3 1.953797 1_555
Li3 O26 1.966440 1_555
Li3 O27 2.357545 1_554
Li3 O9 2.431779 1_555
Li3 O25 2.521801 1_655
Fe0 O25 2.031559 1_555
Fe0 O18 2.085514 1_555
Fe0 O9 2.127295 1_455
Fe0 O10 2.283742 1_555
Fe0 O0 2.450206 1_555
Fe1 O4 1.999246 1_565
Fe1 O17 2.025996 1_555
Fe1 O5 2.097670 1_565
Fe1 O6 2.114935 1_555
Fe2 O23 2.031559 1_555
Fe2 O12 2.085514 1_555
Fe2 O15 2.127295 1_655
Fe2 O14 2.283742 1_555
Fe2 O7 2.450206 1_555
Fe3 O2 1.999246 1_545
Fe3 O13 2.025996 1_555
Fe3 O24 2.097670 1_545
Fe3 O1 2.114935 1_555
H0 O7 1.042873 1_555
H0 O10 1.542135 1_555
H1 O27 1.010067 1_554
H1 O13 1.652563 1_555
H2 O0 1.042873 1_555
H2 O14 1.542135 1_555
H3 O20 1.010067 1_556
H3 O17 1.652563 1_555
O0 P0 1.616390 1_555
O1 P4 1.546788 1_555
O2 P1 1.538729 1_555
O3 P1 1.478386 1_555
O4 P0 1.538729 1_555
O5 P7 1.526847 1_555
O6 P2 1.546788 1_555
O7 P1 1.616390 1_555
O8 P1 1.591996 1_455
O8 P2 1.602958 1_555
O9 P4 1.536417 1_555
O10 P2 1.541632 1_555
O11 P7 1.618861 1_455
O11 P3 1.626497 1_556
O12 P5 1.546499 1_555
O13 P3 1.568187 1_555
O14 P4 1.541632 1_555
O15 P2 1.536417 1_555
O16 P0 1.591996 1_655
O16 P4 1.602958 1_555
O17 P5 1.568187 1_555
O18 P3 1.546499 1_555
O19 P6 1.618861 1_655
O19 P5 1.626497 1_554
O20 P6 1.578773 1_555
O21 P5 1.496656 1_555
O22 P0 1.478386 1_555
O23 P7 1.512060 1_555
O24 P6 1.526847 1_555
O25 P6 1.512060 1_555
O26 P3 1.496656 1_555
O27 P7 1.578773 1_555
