# generated using pymatgen
data_Li3V3P8O29
_symmetry_space_group_name_H-M   'P 1'
_cell_length_a   9.75202400
_cell_length_b   9.76189748
_cell_length_c   14.15339071
_cell_angle_alpha   90.18964684
_cell_angle_beta   90.05553729
_cell_angle_gamma   119.78735358
_symmetry_Int_Tables_number   1
_chemical_formula_structural   Li3V3P8O29
_chemical_formula_sum   'Li6 V6 P16 O58'
_cell_volume   1169.34427077
_cell_formula_units_Z   2
loop_
 _symmetry_equiv_pos_site_id
 _symmetry_equiv_pos_as_xyz
  1  'x, y, z'
loop_
 _atom_site_type_symbol
 _atom_site_label
 _atom_site_symmetry_multiplicity
 _atom_site_fract_x
 _atom_site_fract_y
 _atom_site_fract_z
 _atom_site_occupancy
  Li  Li0  1  0.66244100  0.32682000  0.61041500  1
  Li  Li1  1  0.91571800  0.68629900  0.44598700  1
  Li  Li2  1  0.09303400  0.76858800  0.05247300  1
  Li  Li3  1  0.67355900  0.90718900  0.05529100  1
  Li  Li4  1  0.03068900  0.04627000  0.99028400  1
  Li  Li5  1  0.01178300  0.04671000  0.51356100  1
  V  V0  1  0.00153800  0.42871100  0.75235800  1
  V  V1  1  0.00101500  0.55845100  0.24890600  1
  V  V2  1  0.43457700  0.43529600  0.24815600  1
  V  V3  1  0.56419100  0.56608500  0.75282400  1
  V  V4  1  0.43032900  0.99872900  0.74889100  1
  V  V5  1  0.56271900  0.00070800  0.25795100  1
  P  P0  1  0.30784000  0.08252000  0.16049400  1
  P  P1  1  0.30759900  0.22094100  0.65600500  1
  P  P2  1  0.78099700  0.08761600  0.65702700  1
  P  P3  1  0.66736400  0.33250800  0.86875600  1
  P  P4  1  0.66755600  0.33816100  0.36936200  1
  P  P5  1  0.91164200  0.21685700  0.15752500  1
  P  P6  1  0.08588200  0.30536500  0.34227000  1
  P  P7  1  0.77531400  0.69079600  0.15696200  1
  P  P8  1  0.22404700  0.30305900  0.84238400  1
  P  P9  1  0.90552200  0.68184400  0.65888700  1
  P  P10  1  0.08522400  0.77425700  0.83984400  1
  P  P11  1  0.33077000  0.66460300  0.63109500  1
  P  P12  1  0.33659400  0.67043000  0.13249200  1
  P  P13  1  0.21963700  0.91349000  0.34532700  1
  P  P14  1  0.69143200  0.77283700  0.34252400  1
  P  P15  1  0.68960800  0.91655600  0.84108300  1
  O  O0  1  0.20844600  0.98883700  0.43271000  1
  O  O1  1  0.34738600  0.08380300  0.66567900  1
  O  O2  1  0.20495200  0.20872900  0.92754700  1
  O  O3  1  0.34733300  0.25700400  0.16719200  1
  O  O4  1  0.46438600  0.07909700  0.17552800  1
  O  O5  1  0.52451200  0.18440300  0.82073800  1
  O  O6  1  0.62610000  0.09624600  0.66533000  1
  O  O7  1  0.77044700  0.98509000  0.93252000  1
  O  O8  1  0.73647600  0.08244700  0.16597000  1
  O  O9  1  0.52222400  0.33726200  0.32373400  1
  O  O10  1  0.46989100  0.37477700  0.66644800  1
  O  O11  1  0.66711500  0.18797500  0.32704400  1
  O  O12  1  0.66925700  0.33369800  0.97300700  1
  O  O13  1  0.67191100  0.34422500  0.47455600  1
  O  O14  1  0.81735200  0.33742600  0.82303100  1
  O  O15  1  0.61646600  0.53445400  0.17106200  1
  O  O16  1  0.66188700  0.47627100  0.82184700  1
  O  O17  1  0.91865400  0.26309700  0.66657400  1
  O  O18  1  0.99645700  0.19915500  0.25076000  1
  O  O19  1  0.00873900  0.22235200  0.42968200  1
  O  O20  1  0.98876400  0.20575800  0.07077800  1
  O  O21  1  0.91574700  0.37939900  0.17360600  1
  O  O22  1  0.81811400  0.48743800  0.32783700  1
  O  O23  1  0.08833200  0.34420200  0.83243400  1
  O  O24  1  0.89445000  0.51872600  0.67050600  1
  O  O25  1  0.73312100  0.65144900  0.66813300  1
  O  O26  1  0.20535000  0.20083700  0.74950500  1
  O  O27  1  0.21007000  0.20182900  0.57202500  1
  O  O28  1  0.78430400  0.78072100  0.42715300  1
  O  O29  1  0.26027700  0.34697500  0.32953500  1
  O  O30  1  0.08346600  0.46448300  0.32468700  1
  O  O31  1  0.91402800  0.65405000  0.16077800  1
  O  O32  1  0.17926800  0.52531400  0.67736300  1
  O  O33  1  0.08333700  0.61675800  0.82598400  1
  O  O34  1  0.01451600  0.78752200  0.93004700  1
  O  O35  1  0.98226400  0.76721500  0.57070400  1
  O  O36  1  0.99500300  0.79152700  0.74948700  1
  O  O37  1  0.08341500  0.73775700  0.33533300  1
  O  O38  1  0.33442400  0.52248600  0.17704900  1
  O  O39  1  0.38345000  0.45776300  0.83047200  1
  O  O40  1  0.18493600  0.67154700  0.17452400  1
  O  O41  1  0.33483000  0.67518400  0.02769600  1
  O  O42  1  0.33037800  0.66541500  0.52701500  1
  O  O43  1  0.34365000  0.81824900  0.67654800  1
  O  O44  1  0.53426000  0.61540200  0.32749000  1
  O  O45  1  0.46921500  0.65155400  0.67931300  1
  O  O46  1  0.25822800  0.91355000  0.82975400  1
  O  O47  1  0.20181100  0.99917700  0.25288000  1
  O  O48  1  0.21371200  0.99596100  0.07594500  1
  O  O49  1  0.38091500  0.91536100  0.32918400  1
  O  O50  1  0.48650400  0.81722300  0.17524000  1
  O  O51  1  0.53402700  0.91816000  0.82520000  1
  O  O52  1  0.65367100  0.74221500  0.83038600  1
  O  O53  1  0.78250400  0.78622200  0.07366600  1
  O  O54  1  0.79856400  0.79434200  0.25086300  1
  O  O55  1  0.65276700  0.90963900  0.33401300  1
  O  O56  1  0.80228000  0.00717500  0.57473600  1
  O  O57  1  0.80053000  0.00935900  0.75409900  1
loop_
_geom_bond_atom_site_label_1
_geom_bond_atom_site_label_2
_geom_bond_distance
_geom_bond_site_symmetry_2
Li0 O13 1.929177 1_555
Li0 O6 2.239537 1_555
Li0 O24 2.264156 1_555
Li0 O10 2.290830 1_555
Li1 O35 1.907915 1_555
Li1 O28 1.933301 1_555
Li1 O37 2.138583 1_655
Li1 O22 2.368622 1_555
Li2 O34 1.939855 1_554
Li2 O48 1.954730 1_555
Li2 O31 2.173593 1_455
Li2 O40 2.352875 1_555
Li3 O7 1.946387 1_554
Li3 O53 1.959303 1_555
Li3 O8 2.166742 1_565
Li3 O50 2.324897 1_555
Li4 O2 1.877774 1_555
Li4 O20 2.123829 1_456
Li4 O48 2.401546 1_546
Li4 O7 2.439824 1_445
Li4 O34 2.592571 1_545
Li5 O27 1.948382 1_555
Li5 O56 2.072438 1_455
Li5 O19 2.100973 1_555
Li5 O0 2.526524 1_545
O0 P13 1.468502 1_555
O1 P1 1.574383 1_555
O1 V4 1.844740 1_545
O2 P8 1.474073 1_555
O3 P0 1.551003 1_555
O3 V2 1.892051 1_555
O4 P0 1.557923 1_555
O4 V5 1.897063 1_555
O5 P3 1.575879 1_555
O5 V4 1.869450 1_545
O6 P2 1.558658 1_555
O6 V4 2.038608 1_545
O7 P15 1.487330 1_555
O8 P5 1.558337 1_555
O8 V5 1.967367 1_555
O9 P4 1.552945 1_555
O9 V2 1.899570 1_555
O10 P1 1.555160 1_555
O10 V3 2.025894 1_555
O11 P4 1.579911 1_555
O11 V5 1.863259 1_555
O12 P3 1.475538 1_555
O13 P4 1.489558 1_555
O14 P3 1.578876 1_555
O14 V0 1.854716 1_655
O15 P7 1.556403 1_555
O15 V2 1.891744 1_555
O16 P3 1.579161 1_555
O16 V3 1.861332 1_555
O17 P2 1.571031 1_555
O17 V0 1.851470 1_655
O18 P5 1.611431 1_555
O18 P6 1.613548 1_655
O19 P6 1.468325 1_555
O20 P5 1.471959 1_555
O21 P5 1.582896 1_555
O21 V1 1.850475 1_655
O22 P4 1.583102 1_555
O22 V1 1.921058 1_655
O23 P8 1.568737 1_555
O23 V0 1.838362 1_555
O24 P9 1.550869 1_555
O24 V0 2.030024 1_655
O25 P9 1.561037 1_555
O25 V3 1.868591 1_555
O26 P8 1.602228 1_555
O26 P1 1.610550 1_555
O27 P1 1.473845 1_555
O28 P14 1.479501 1_555
O29 P6 1.550673 1_555
O29 V2 1.874434 1_555
O30 P6 1.585596 1_555
O30 V1 1.837394 1_555
O31 P7 1.563205 1_555
O31 V1 1.984572 1_655
O32 P11 1.572359 1_555
O32 V0 1.845603 1_555
O33 P10 1.540317 1_555
O33 V0 1.903365 1_555
O34 P10 1.487104 1_555
O35 P9 1.483696 1_555
O36 P10 1.607680 1_655
O36 P9 1.616357 1_555
O37 P13 1.568895 1_555
O37 V1 1.947368 1_555
O38 P12 1.568308 1_555
O38 V2 1.876417 1_555
O39 P8 1.547677 1_555
O39 V3 1.895329 1_555
O40 P12 1.599708 1_555
O40 V1 1.894227 1_555
O41 P12 1.484448 1_555
O42 P11 1.473144 1_555
O43 P11 1.576558 1_555
O43 V4 1.836744 1_555
O44 P14 1.553472 1_555
O44 V2 1.893049 1_555
O45 P11 1.573038 1_555
O45 V3 1.846119 1_555
O46 P10 1.561472 1_555
O46 V4 1.855131 1_555
O47 P13 1.610338 1_555
O47 P0 1.616990 1_565
O48 P0 1.486309 1_565
O49 P13 1.580626 1_555
O49 V5 1.842648 1_565
O50 P12 1.570934 1_555
O50 V5 1.947511 1_565
O51 P15 1.541341 1_555
O51 V4 1.897754 1_555
O52 P15 1.564541 1_555
O52 V3 1.848707 1_555
O53 P7 1.484948 1_555
O54 P7 1.613145 1_555
O54 P14 1.614039 1_555
O55 P14 1.562494 1_555
O55 V5 1.870981 1_565
O56 P2 1.473965 1_555
O57 P15 1.594611 1_545
O57 P2 1.630492 1_555
