# generated using pymatgen
data_Mn6O5F7
_symmetry_space_group_name_H-M   'P 1'
_cell_length_a   4.71596583
_cell_length_b   5.75376258
_cell_length_c   15.63529145
_cell_angle_alpha   90.35599689
_cell_angle_beta   90.24049129
_cell_angle_gamma   86.83601829
_symmetry_Int_Tables_number   1
_chemical_formula_structural   Mn6O5F7
_chemical_formula_sum   'Mn12 O10 F14'
_cell_volume   423.59851676
_cell_formula_units_Z   2
loop_
 _symmetry_equiv_pos_site_id
 _symmetry_equiv_pos_as_xyz
  1  'x, y, z'
loop_
 _atom_site_type_symbol
 _atom_site_label
 _atom_site_symmetry_multiplicity
 _atom_site_fract_x
 _atom_site_fract_y
 _atom_site_fract_z
 _atom_site_occupancy
  Mn  Mn0  1  0.99130900  0.15206600  0.41278000  1
  Mn  Mn1  1  0.03972900  0.83379800  0.24353500  1
  Mn  Mn2  1  0.02067200  0.17513100  0.08799700  1
  Mn  Mn3  1  0.03257600  0.16916000  0.74839900  1
  Mn  Mn4  1  0.00737700  0.85353900  0.57808900  1
  Mn  Mn5  1  0.01263900  0.84714800  0.90959000  1
  Mn  Mn6  1  0.48408400  0.31822300  0.59569800  1
  Mn  Mn7  1  0.50548600  0.35070300  0.91931000  1
  Mn  Mn8  1  0.50550200  0.36102700  0.25511700  1
  Mn  Mn9  1  0.49591100  0.63706100  0.08716700  1
  Mn  Mn10  1  0.48296700  0.65019900  0.41412600  1
  Mn  Mn11  1  0.48887700  0.64114500  0.75212200  1
  O  O0  1  0.20666100  0.10849800  0.63907900  1
  O  O1  1  0.23989700  0.88208600  0.14004500  1
  O  O2  1  0.21574500  0.89002600  0.46486600  1
  O  O3  1  0.23355800  0.88832300  0.80182300  1
  O  O4  1  0.29414200  0.39575500  0.14758200  1
  O  O5  1  0.28361600  0.61724300  0.30700500  1
  O  O6  1  0.28568800  0.39692900  0.81372500  1
  O  O7  1  0.71872600  0.38512200  0.02656000  1
  O  O8  1  0.71926700  0.38327000  0.36321700  1
  O  O9  1  0.72027100  0.37968900  0.69681500  1
  F  F0  1  0.23177100  0.11990300  0.30788400  1
  F  F1  1  0.23733800  0.11705600  0.97051700  1
  F  F2  1  0.25189600  0.38006600  0.48370400  1
  F  F3  1  0.24399700  0.60808200  0.64073300  1
  F  F4  1  0.25498900  0.61220200  0.97571200  1
  F  F5  1  0.76213900  0.61458600  0.19217200  1
  F  F6  1  0.70740400  0.62533200  0.52505400  1
  F  F7  1  0.73207300  0.61714700  0.86635600  1
  F  F8  1  0.77140300  0.11565700  0.20047600  1
  F  F9  1  0.74997300  0.11923400  0.51732900  1
  F  F10  1  0.78458800  0.87854100  0.34662800  1
  F  F11  1  0.76283400  0.87976000  0.02412500  1
  F  F12  1  0.78204800  0.13001200  0.85536600  1
  F  F13  1  0.74284500  0.86628200  0.68929400  1
loop_
_geom_bond_atom_site_label_1
_geom_bond_atom_site_label_2
_geom_bond_distance
_geom_bond_site_symmetry_2
Mn0 O8 1.957601 1_555
Mn0 O2 1.971944 1_645
Mn1 O1 1.906279 1_555
Mn1 O5 1.925563 1_555
Mn2 O7 2.055058 1_455
Mn2 O4 2.073296 1_555
Mn2 O1 2.095624 1_545
Mn3 O0 1.920964 1_555
Mn3 O3 2.012012 1_545
Mn3 O9 2.022931 1_455
Mn3 O6 2.081197 1_555
Mn4 O0 2.017894 1_565
Mn4 O2 2.045863 1_555
Mn5 O3 2.006896 1_555
Mn6 O0 1.954428 1_555
Mn6 O9 1.971556 1_555
Mn7 O6 1.957337 1_555
Mn7 O7 1.966256 1_556
Mn8 O5 1.936081 1_555
Mn8 O4 1.956655 1_555
Mn8 O8 1.971447 1_555
Mn9 O4 1.973597 1_555
Mn9 O7 1.981563 1_555
Mn9 O1 1.983638 1_555
Mn10 O5 1.930674 1_555
Mn10 O2 1.981030 1_555
Mn10 O8 2.009372 1_555
Mn11 O3 1.970132 1_555
Mn11 O6 1.998400 1_555
Mn11 O9 2.003053 1_555
F0 Mn0 1.999691 1_455
F0 Mn8 2.119615 1_555
F0 Mn1 2.163042 1_545
F1 Mn7 2.063246 1_555
F1 Mn2 2.121346 1_556
F1 Mn5 2.144049 1_545
F2 Mn6 2.083378 1_555
F2 Mn0 2.146941 1_455
F2 Mn10 2.237115 1_555
F3 Mn4 2.008281 1_555
F3 Mn6 2.083967 1_555
F3 Mn11 2.099114 1_555
F4 Mn5 2.009825 1_555
F4 Mn7 2.057453 1_555
F4 Mn9 2.084790 1_556
F5 Mn1 2.027413 1_655
F5 Mn9 2.062989 1_555
F5 Mn8 2.187368 1_555
F6 Mn10 2.029737 1_555
F6 Mn4 2.143511 1_655
F6 Mn6 2.385587 1_555
F7 Mn5 2.033130 1_655
F7 Mn7 2.093240 1_555
F7 Mn11 2.119653 1_555
F8 Mn8 2.023389 1_555
F8 Mn1 2.112932 1_645
F8 Mn2 2.158950 1_655
F9 Mn0 2.011545 1_555
F9 Mn6 2.054653 1_555
F9 Mn4 2.125242 1_645
F10 Mn1 2.022170 1_655
F10 Mn0 2.153534 1_565
F10 Mn10 2.258174 1_555
F11 Mn5 2.149213 1_654
F11 Mn9 2.174334 1_555
F11 Mn2 2.358173 1_665
F12 Mn7 2.031109 1_555
F12 Mn3 2.072295 1_655
F12 Mn5 2.089077 1_645
F13 Mn11 2.067475 1_555
F13 Mn4 2.142750 1_655
F13 Mn3 2.447478 1_665
