# generated using pymatgen
data_LiFePO4
_symmetry_space_group_name_H-M   'P 1'
_cell_length_a   4.97094800
_cell_length_b   6.31792500
_cell_length_c   9.39610600
_cell_angle_alpha   90.00000000
_cell_angle_beta   90.00000000
_cell_angle_gamma   90.00000000
_symmetry_Int_Tables_number   1
_chemical_formula_structural   LiFePO4
_chemical_formula_sum   'Li4 Fe4 P4 O16'
_cell_volume   295.09482518
_cell_formula_units_Z   4
loop_
 _symmetry_equiv_pos_site_id
 _symmetry_equiv_pos_as_xyz
  1  'x, y, z'
loop_
 _atom_site_type_symbol
 _atom_site_label
 _atom_site_symmetry_multiplicity
 _atom_site_fract_x
 _atom_site_fract_y
 _atom_site_fract_z
 _atom_site_occupancy
  Li  Li0  1  0.97574200  0.75000000  0.16882900  1
  Li  Li1  1  0.47574200  0.25000000  0.33117100  1
  Li  Li2  1  0.52425800  0.75000000  0.66882900  1
  Li  Li3  1  0.02425800  0.25000000  0.83117100  1
  Fe  Fe0  1  0.50000000  0.00000000  0.00000000  1
  Fe  Fe1  1  0.50000000  0.50000000  0.00000000  1
  Fe  Fe2  1  0.00000000  0.00000000  0.50000000  1
  Fe  Fe3  1  0.00000000  0.50000000  0.50000000  1
  P  P0  1  0.97128600  0.25000000  0.17778200  1
  P  P1  1  0.47128600  0.75000000  0.32221800  1
  P  P2  1  0.52871400  0.25000000  0.67778200  1
  P  P3  1  0.02871400  0.75000000  0.82221800  1
  O  O0  1  0.83979000  0.04706300  0.11755200  1
  O  O1  1  0.83979000  0.45293700  0.11755200  1
  O  O2  1  0.27739100  0.25000000  0.13975300  1
  O  O3  1  0.41528600  0.75000000  0.15675800  1
  O  O4  1  0.91528600  0.25000000  0.34324200  1
  O  O5  1  0.77739100  0.75000000  0.36024700  1
  O  O6  1  0.33979000  0.54706300  0.38244800  1
  O  O7  1  0.33979000  0.95293700  0.38244800  1
  O  O8  1  0.66021000  0.04706300  0.61755200  1
  O  O9  1  0.66021000  0.45293700  0.61755200  1
  O  O10  1  0.22260900  0.25000000  0.63975300  1
  O  O11  1  0.08471400  0.75000000  0.65675800  1
  O  O12  1  0.58471400  0.25000000  0.84324200  1
  O  O13  1  0.72260900  0.75000000  0.86024700  1
  O  O14  1  0.16021000  0.54706300  0.88244800  1
  O  O15  1  0.16021000  0.95293700  0.88244800  1
loop_
_geom_bond_atom_site_label_1
_geom_bond_atom_site_label_2
_geom_bond_distance
_geom_bond_site_symmetry_2
Li0 O5 2.051118 1_555
Li0 O1 2.052149 1_555
Li0 O0 2.052149 1_565
Li0 O3 2.187892 1_655
Li1 O2 2.051118 1_555
Li1 O7 2.052149 1_545
Li1 O6 2.052149 1_555
Li1 O4 2.187892 1_555
Li2 O13 2.051118 1_555
Li2 O9 2.052149 1_555
Li2 O8 2.052149 1_565
Li2 O11 2.187892 1_555
Li3 O10 2.051118 1_555
Li3 O14 2.052149 1_555
Li3 O15 2.052149 1_545
Li3 O12 2.187892 1_455
Fe0 O15 2.039948 1_544
Fe0 O0 2.039948 1_555
Fe0 O12 2.200357 1_554
Fe0 O3 2.200357 1_545
Fe0 O13 2.333152 1_544
Fe0 O2 2.333152 1_555
Fe1 O1 2.039948 1_555
Fe1 O14 2.039948 1_554
Fe1 O12 2.200357 1_554
Fe1 O3 2.200357 1_555
Fe1 O2 2.333152 1_555
Fe1 O13 2.333152 1_554
Fe2 O7 2.039948 1_545
Fe2 O8 2.039948 1_455
Fe2 O11 2.200357 1_545
Fe2 O4 2.200357 1_455
Fe2 O5 2.333152 1_445
Fe2 O10 2.333152 1_555
Fe3 O6 2.039948 1_555
Fe3 O9 2.039948 1_455
Fe3 O11 2.200357 1_555
Fe3 O4 2.200357 1_455
Fe3 O5 2.333152 1_455
Fe3 O10 2.333152 1_555
O0 P0 1.546425 1_555
O1 P0 1.546425 1_555
O2 P0 1.563024 1_455
O3 P1 1.579405 1_555
O4 P0 1.579405 1_555
O5 P1 1.563024 1_555
O6 P1 1.546425 1_555
O7 P1 1.546425 1_555
O8 P2 1.546425 1_555
O9 P2 1.546425 1_555
O10 P2 1.563024 1_555
O11 P3 1.579405 1_555
O12 P2 1.579405 1_555
O13 P3 1.563024 1_655
O14 P3 1.546425 1_555
O15 P3 1.546425 1_555
