# generated using pymatgen
data_Ta2MoOs
_symmetry_space_group_name_H-M   'P 1'
_cell_length_a   4.51640712
_cell_length_b   4.51640712
_cell_length_c   4.51640712
_cell_angle_alpha   60.00000000
_cell_angle_beta   60.00000000
_cell_angle_gamma   60.00000000
_symmetry_Int_Tables_number   1
_chemical_formula_structural   Ta2MoOs
_chemical_formula_sum   'Ta2 Mo1 Os1'
_cell_volume   65.14247453
_cell_formula_units_Z   1
loop_
 _symmetry_equiv_pos_site_id
 _symmetry_equiv_pos_as_xyz
  1  'x, y, z'
loop_
 _atom_site_type_symbol
 _atom_site_label
 _atom_site_symmetry_multiplicity
 _atom_site_fract_x
 _atom_site_fract_y
 _atom_site_fract_z
 _atom_site_occupancy
  Ta  Ta0  1  0.00000000  -0.00000000  -0.00000000  1
  Ta  Ta1  1  0.50000100  0.50000100  0.50000100  1
  Mo  Mo0  1  0.25000000  0.25000000  0.25000000  1
  Os  Os0  1  0.75000000  0.75000000  0.75000000  1
loop_
_geom_bond_atom_site_label_1
_geom_bond_atom_site_label_2
_geom_bond_distance
_geom_bond_site_symmetry_2
Mo0 Ta1 2.765720 1_455
Mo0 Ta1 2.765720 1_545
Mo0 Ta1 2.765720 1_554
Mo0 Ta0 2.765723 1_655
Mo0 Ta0 2.765723 1_565
Mo0 Ta0 2.765723 1_556
Mo0 Ta0 2.765723 1_555
Mo0 Ta1 2.765734 1_555
Os0 Ta1 2.765712 1_555
Os0 Ta0 2.765723 1_566
Os0 Ta0 2.765723 1_665
Os0 Ta0 2.765723 1_656
Os0 Ta0 2.765723 1_666
Os0 Ta1 2.765727 1_565
Os0 Ta1 2.765727 1_655
Os0 Ta1 2.765727 1_556
