# generated using pymatgen
data_NbZnRh2
_symmetry_space_group_name_H-M   'P 1'
_cell_length_a   4.37384084
_cell_length_b   4.37384084
_cell_length_c   4.37384084
_cell_angle_alpha   60.00000000
_cell_angle_beta   60.00000000
_cell_angle_gamma   60.00000000
_symmetry_Int_Tables_number   1
_chemical_formula_structural   NbZnRh2
_chemical_formula_sum   'Nb1 Zn1 Rh2'
_cell_volume   59.16623435
_cell_formula_units_Z   1
loop_
 _symmetry_equiv_pos_site_id
 _symmetry_equiv_pos_as_xyz
  1  'x, y, z'
loop_
 _atom_site_type_symbol
 _atom_site_label
 _atom_site_symmetry_multiplicity
 _atom_site_fract_x
 _atom_site_fract_y
 _atom_site_fract_z
 _atom_site_occupancy
  Nb  Nb0  1  0.25000000  0.25000000  0.25000000  1
  Zn  Zn0  1  0.75000100  0.75000100  0.75000100  1
  Rh  Rh0  1  0.00000000  -0.00000000  0.00000000  1
  Rh  Rh1  1  0.50000000  0.50000000  0.50000000  1
loop_
_geom_bond_atom_site_label_1
_geom_bond_atom_site_label_2
_geom_bond_distance
_geom_bond_site_symmetry_2
Nb0 Rh1 2.678420 1_455
Nb0 Rh0 2.678420 1_655
Nb0 Rh1 2.678420 1_555
Nb0 Rh1 2.678420 1_545
Nb0 Rh0 2.678420 1_555
Nb0 Rh0 2.678420 1_556
Nb0 Rh0 2.678420 1_565
Nb0 Rh1 2.678420 1_554
Rh0 Zn0 2.678409 1_444
Rh0 Zn0 2.678423 1_445
Rh0 Zn0 2.678423 1_454
Rh0 Zn0 2.678423 1_544
Rh1 Zn0 2.678416 1_545
Rh1 Zn0 2.678416 1_554
Rh1 Zn0 2.678416 1_455
Rh1 Zn0 2.678430 1_555
