# generated using pymatgen
data_La16Ni8O33
_symmetry_space_group_name_H-M   'P 1'
_cell_length_a   13.83523460
_cell_length_b   13.83523460
_cell_length_c   13.83523460
_cell_angle_alpha   147.42318458
_cell_angle_beta   147.42318458
_cell_angle_gamma   46.73759438
_symmetry_Int_Tables_number   1
_chemical_formula_structural   La16Ni8O33
_chemical_formula_sum   'La16 Ni8 O33'
_cell_volume   764.94293254
_cell_formula_units_Z   1
loop_
 _symmetry_equiv_pos_site_id
 _symmetry_equiv_pos_as_xyz
  1  'x, y, z'
loop_
 _atom_site_type_symbol
 _atom_site_label
 _atom_site_symmetry_multiplicity
 _atom_site_fract_x
 _atom_site_fract_y
 _atom_site_fract_z
 _atom_site_occupancy
  La  La0  1  0.93645500  0.19285800  0.24301300  1
  La  La1  1  0.81062900  0.56285400  0.26133600  1
  La  La2  1  0.45070700  0.18937100  0.75222500  1
  La  La3  1  0.93787600  0.69569700  0.24423100  1
  La  La4  1  0.94984500  0.69344200  0.75698700  1
  La  La5  1  0.45146600  0.69364500  0.75576900  1
  La  La6  1  0.43714600  0.69848200  0.24777500  1
  La  La7  1  0.94478300  0.20695800  0.75758300  1
  La  La8  1  0.30151800  0.54929300  0.73866400  1
  La  La9  1  0.81279900  0.05521700  0.26217400  1
  La  La10  1  0.80714200  0.05015500  0.74359600  1
  La  La11  1  0.30655800  0.06354500  0.25640400  1
  La  La12  1  0.30635500  0.06212400  0.75782100  1
  La  La13  1  0.79304200  0.55062500  0.73782600  1
  La  La14  1  0.44937500  0.18720100  0.24241700  1
  La  La15  1  0.30430300  0.54853400  0.24217900  1
  Ni  Ni0  1  0.12350300  0.87506500  0.25036600  1
  Ni  Ni1  1  0.12786700  0.37618000  0.75240500  1
  Ni  Ni2  1  0.62470000  0.87313700  0.74963400  1
  Ni  Ni3  1  0.12493500  0.37530000  0.24843800  1
  Ni  Ni4  1  0.62382000  0.37622400  0.75168700  1
  Ni  Ni5  1  0.62377600  0.37546300  0.24759500  1
  Ni  Ni6  1  0.12686300  0.87649700  0.75156200  1
  Ni  Ni7  1  0.62453700  0.87213300  0.24831300  1
  O  O0  1  0.87751200  0.87751200  0.00000000  1
  O  O1  1  0.05865500  0.28508900  0.27210400  1
  O  O2  1  0.86961200  0.36969300  0.99927400  1
  O  O3  1  0.37761100  0.87761100  0.50000000  1
  O  O4  1  0.12238900  0.62238900  0.50000000  1
  O  O5  1  0.87138700  0.37138700  0.50000000  1
  O  O6  1  0.72522500  0.44061700  0.23744100  1
  O  O7  1  0.51221700  0.27477500  0.71539200  1
  O  O8  1  0.03756600  0.81096100  0.27358900  1
  O  O9  1  0.01298500  0.78655100  0.72789600  1
  O  O10  1  0.61416900  0.61416900  0.00000000  1
  O  O11  1  0.38583100  0.38583100  0.00000000  1
  O  O12  1  0.88026300  0.88213500  0.50378400  1
  O  O13  1  0.12248800  0.12248800  0.00000000  1
  O  O14  1  0.63030700  0.62958000  0.49991800  1
  O  O15  1  0.12966200  0.13038800  0.50008200  1
  O  O16  1  0.53737200  0.76397800  0.72641100  1
  O  O17  1  0.55938300  0.79682500  0.28460800  1
  O  O18  1  0.09696600  0.27669200  0.79306900  1
  O  O19  1  0.20317500  0.48778300  0.76255900  1
  O  O20  1  0.69610300  0.90303400  0.17972600  1
  O  O21  1  0.71491100  0.98701500  0.77356600  1
  O  O22  1  0.62861300  0.12861300  0.50000000  1
  O  O23  1  0.37042000  0.87033800  0.00072600  1
  O  O24  1  0.75000000  0.25000000  0.50000000  1
  O  O25  1  0.11786500  0.62164900  0.99812800  1
  O  O26  1  0.62352100  0.11973700  0.00187200  1
  O  O27  1  0.23602200  0.96243400  0.77339500  1
  O  O28  1  0.21344900  0.94134500  0.22643400  1
  O  O29  1  0.72330800  0.51637700  0.82027400  1
  O  O30  1  0.48362300  0.30389700  0.20693100  1
  O  O31  1  0.37835100  0.37647900  0.49621600  1
  O  O32  1  0.18903900  0.46262800  0.22660500  1
loop_
_geom_bond_atom_site_label_1
_geom_bond_atom_site_label_2
_geom_bond_distance
_geom_bond_site_symmetry_2
La0 O1 2.365014 1_655
La0 O15 2.555987 1_655
La0 O0 2.556954 1_545
La0 O6 2.575112 1_555
La0 O26 2.621139 1_555
La0 O21 2.632402 1_544
La0 O5 2.664317 1_555
La0 O19 2.904949 1_655
La0 O28 2.950483 1_645
La1 O6 2.346042 1_555
La1 O10 2.466410 1_555
La1 O4 2.543347 1_655
La1 O2 2.573080 1_554
La1 O9 2.614148 1_655
La1 O12 2.665961 1_555
La1 O17 2.715078 1_555
La1 O1 2.931492 1_655
La1 O7 3.040450 1_554
La2 O7 2.346054 1_555
La2 O11 2.466410 1_556
La2 O3 2.543347 1_545
La2 O15 2.573085 1_555
La2 O21 2.614148 1_545
La2 O26 2.665961 1_556
La2 O6 2.715075 1_556
La2 O28 2.931492 1_545
La2 O19 3.040448 1_555
La3 O8 2.364177 1_655
La3 O29 2.365612 1_554
La3 O20 2.518996 1_555
La3 O12 2.564961 1_555
La3 O32 2.697509 1_655
La3 O4 2.709760 1_655
La3 O2 2.720941 1_554
La3 O10 2.782773 1_555
La3 O27 2.944173 1_655
La4 O9 2.365014 1_655
La4 O14 2.555976 1_555
La4 O0 2.556954 1_556
La4 O19 2.575107 1_655
La4 O25 2.621139 1_655
La4 O28 2.632402 1_656
La4 O5 2.664317 1_555
La4 O6 2.904954 1_555
La4 O21 2.950483 1_555
La5 O16 2.364190 1_555
La5 O20 2.365612 1_556
La5 O29 2.518996 1_555
La5 O31 2.564961 1_555
La5 O27 2.697513 1_555
La5 O4 2.709760 1_555
La5 O23 2.720929 1_556
La5 O10 2.782773 1_556
La5 O32 2.944175 1_555
La6 O17 2.346054 1_555
La6 O11 2.466410 1_555
La6 O3 2.543347 1_555
La6 O14 2.573080 1_555
La6 O28 2.614148 1_555
La6 O25 2.665961 1_554
La6 O19 2.715070 1_554
La6 O21 2.931492 1_555
La6 O6 3.040453 1_555
La7 O24 2.346995 1_555
La7 O18 2.418433 1_655
La7 O22 2.593423 1_555
La7 O32 2.604368 1_656
La7 O12 2.635102 1_545
La7 O2 2.700985 1_555
La7 O13 2.725705 1_656
La7 O29 2.951119 1_555
La7 O27 2.967466 1_645
La7 O20 3.201679 1_545
La8 O19 2.346067 1_555
La8 O10 2.466410 1_556
La8 O4 2.543347 1_555
La8 O23 2.573085 1_556
La8 O1 2.614148 1_555
La8 O31 2.665961 1_555
La8 O7 2.715078 1_555
La8 O9 2.931492 1_555
La8 O17 3.040450 1_556
La9 O24 2.346995 1_555
La9 O20 2.418433 1_545
La9 O5 2.593423 1_555
La9 O8 2.604373 1_645
La9 O26 2.635096 1_555
La9 O15 2.700983 1_655
La9 O0 2.725705 1_545
La9 O18 2.951125 1_655
La9 O16 2.967466 1_544
La9 O30 3.201673 1_555
La10 O21 2.365027 1_545
La10 O2 2.555971 1_555
La10 O13 2.556949 1_656
La10 O17 2.575107 1_545
La10 O12 2.621127 1_545
La10 O9 2.632404 1_645
La10 O22 2.664306 1_555
La10 O7 2.904948 1_555
La10 O1 2.950490 1_656
La11 O28 2.365002 1_545
La11 O23 2.555998 1_545
La11 O13 2.556966 1_555
La11 O7 2.575101 1_555
La11 O31 2.621145 1_555
La11 O1 2.632399 1_555
La11 O22 2.664323 1_555
La11 O17 2.904943 1_545
La11 O9 2.950486 1_544
La12 O27 2.364190 1_545
La12 O18 2.365612 1_555
La12 O30 2.518996 1_556
La12 O26 2.564961 1_556
La12 O8 2.697509 1_545
La12 O3 2.709760 1_545
La12 O15 2.720929 1_555
La12 O11 2.782773 1_556
La12 O16 2.944168 1_545
La13 O24 2.346991 1_555
La13 O29 2.418420 1_555
La13 O5 2.593434 1_555
La13 O16 2.604370 1_555
La13 O25 2.635107 1_655
La13 O14 2.700996 1_555
La13 O0 2.725711 1_556
La13 O30 2.951123 1_555
La13 O8 2.967466 1_656
La13 O18 3.201678 1_655
La14 O24 2.346991 1_555
La14 O30 2.418420 1_555
La14 O22 2.593434 1_555
La14 O27 2.604364 1_544
La14 O31 2.635107 1_555
La14 O23 2.700990 1_545
La14 O13 2.725711 1_555
La14 O20 2.951123 1_545
La14 O32 2.967466 1_555
La14 O29 3.201678 1_555
La15 O32 2.364177 1_555
La15 O30 2.365612 1_555
La15 O18 2.518996 1_554
La15 O25 2.564961 1_554
La15 O16 2.697507 1_555
La15 O3 2.709760 1_555
La15 O14 2.720941 1_555
La15 O11 2.782773 1_555
La15 O8 2.944175 1_555
Ni0 O0 1.937513 1_455
Ni0 O15 1.941616 1_565
Ni0 O25 1.942271 1_554
Ni0 O3 1.946899 1_555
Ni0 O8 2.207453 1_555
Ni0 O28 2.295511 1_555
Ni1 O11 1.941050 1_556
Ni1 O15 1.942819 1_555
Ni1 O25 1.949559 1_555
Ni1 O5 1.959322 1_455
Ni1 O18 2.216060 1_555
Ni1 O19 2.254382 1_555
Ni2 O0 1.937509 1_556
Ni2 O14 1.941616 1_555
Ni2 O26 1.942275 1_566
Ni2 O3 1.946903 1_555
Ni2 O16 2.207452 1_555
Ni2 O21 2.295499 1_555
Ni3 O13 1.937509 1_555
Ni3 O2 1.941616 1_454
Ni3 O31 1.942267 1_555
Ni3 O4 1.946903 1_555
Ni3 O32 2.207466 1_555
Ni3 O1 2.295498 1_555
Ni4 O10 1.941052 1_556
Ni4 O2 1.942819 1_555
Ni4 O31 1.949563 1_555
Ni4 O22 1.959319 1_555
Ni4 O29 2.216073 1_555
Ni4 O7 2.254382 1_555
Ni5 O11 1.941047 1_555
Ni5 O14 1.942815 1_555
Ni5 O26 1.949560 1_555
Ni5 O5 1.959323 1_555
Ni5 O30 2.216085 1_555
Ni5 O6 2.254382 1_555
Ni6 O13 1.937513 1_566
Ni6 O23 1.941616 1_556
Ni6 O12 1.942271 1_455
Ni6 O4 1.946899 1_555
Ni6 O27 2.207440 1_555
Ni6 O9 2.295511 1_555
Ni7 O10 1.941052 1_555
Ni7 O23 1.942815 1_555
Ni7 O12 1.949563 1_555
Ni7 O22 1.959319 1_565
Ni7 O20 2.216073 1_555
Ni7 O17 2.254382 1_555
