# generated using pymatgen
data_Sr(Mo3S4)2
_symmetry_space_group_name_H-M   'P 1'
_cell_length_a   6.54651989
_cell_length_b   6.64188151
_cell_length_c   6.68867956
_cell_angle_alpha   89.57599036
_cell_angle_beta   89.69171961
_cell_angle_gamma   88.39600432
_symmetry_Int_Tables_number   1
_chemical_formula_structural   Sr(Mo3S4)2
_chemical_formula_sum   'Sr1 Mo6 S8'
_cell_volume   290.70606485
_cell_formula_units_Z   1
loop_
 _symmetry_equiv_pos_site_id
 _symmetry_equiv_pos_as_xyz
  1  'x, y, z'
loop_
 _atom_site_type_symbol
 _atom_site_label
 _atom_site_symmetry_multiplicity
 _atom_site_fract_x
 _atom_site_fract_y
 _atom_site_fract_z
 _atom_site_occupancy
  Sr  Sr0  1  -0.00000000  0.00000000  0.00000000  1
  Mo  Mo0  1  0.41863773  0.23197993  0.56156201  1
  Mo  Mo1  1  0.76074589  0.43876044  0.57902977  1
  Mo  Mo2  1  0.23925411  0.56123956  0.42097023  1
  Mo  Mo3  1  0.43580985  0.58290506  0.76833841  1
  Mo  Mo4  1  0.56419015  0.41709494  0.23166159  1
  Mo  Mo5  1  0.58136227  0.76802007  0.43843799  1
  S  S0  1  0.87343383  0.61517346  0.26048280  1
  S  S1  1  0.12656617  0.38482654  0.73951720  1
  S  S2  1  0.26166571  0.87669855  0.62053269  1
  S  S3  1  0.73833429  0.12330145  0.37946731  1
  S  S4  1  0.74603860  0.75952440  0.75302286  1
  S  S5  1  0.25396140  0.24047560  0.24697714  1
  S  S6  1  0.61591319  0.26508544  0.87335146  1
  S  S7  1  0.38408681  0.73491456  0.12664854  1
loop_
_geom_bond_atom_site_label_1
_geom_bond_atom_site_label_2
_geom_bond_distance
_geom_bond_site_symmetry_2
Mo0 S5 2.368991 1_555
Mo0 S1 2.447051 1_555
Mo0 S6 2.473266 1_555
Mo0 S3 2.507137 1_555
Mo0 S2 2.626320 1_545
Mo1 S4 2.434461 1_555
Mo1 S6 2.472373 1_555
Mo1 S3 2.500798 1_555
Mo1 S0 2.539955 1_555
Mo1 S1 2.643836 1_655
Mo2 S5 2.434461 1_555
Mo2 S7 2.472373 1_555
Mo2 S2 2.500798 1_555
Mo2 S1 2.539955 1_555
Mo2 S0 2.643836 1_455
Mo3 S4 2.374997 1_555
Mo3 S2 2.437999 1_555
Mo3 S1 2.454290 1_555
Mo3 S6 2.487396 1_555
Mo3 S7 2.624070 1_556
Mo4 S5 2.374997 1_555
Mo4 S3 2.437999 1_555
Mo4 S0 2.454290 1_555
Mo4 S7 2.487396 1_555
Mo4 S6 2.624070 1_554
Mo5 S4 2.368991 1_555
Mo5 S0 2.447051 1_555
Mo5 S7 2.473266 1_555
Mo5 S2 2.507137 1_555
Mo5 S3 2.626320 1_565
S0 Sr0 3.208145 1_665
S1 Sr0 3.208145 1_556
S2 Sr0 3.154778 1_566
S3 Sr0 3.154778 1_655
S4 Sr0 2.874266 1_666
S5 Sr0 2.874266 1_555
S6 Sr0 3.145301 1_656
S7 Sr0 3.145301 1_565
