# generated using pymatgen
data_LiAsRh2
_symmetry_space_group_name_H-M   'P 1'
_cell_length_a   4.15989457
_cell_length_b   4.15989457
_cell_length_c   4.15989457
_cell_angle_alpha   60.00000000
_cell_angle_beta   60.00000000
_cell_angle_gamma   60.00000000
_symmetry_Int_Tables_number   1
_chemical_formula_structural   LiAsRh2
_chemical_formula_sum   'Li1 As1 Rh2'
_cell_volume   50.90166330
_cell_formula_units_Z   1
loop_
 _symmetry_equiv_pos_site_id
 _symmetry_equiv_pos_as_xyz
  1  'x, y, z'
loop_
 _atom_site_type_symbol
 _atom_site_label
 _atom_site_symmetry_multiplicity
 _atom_site_fract_x
 _atom_site_fract_y
 _atom_site_fract_z
 _atom_site_occupancy
  Li  Li0  1  0.74999900  0.74999900  0.74999900  1
  As  As0  1  0.24999900  0.24999900  0.24999900  1
  Rh  Rh0  1  0.00000000  -0.00000000  -0.00000000  1
  Rh  Rh1  1  0.50000000  0.50000000  0.50000000  1
loop_
_geom_bond_atom_site_label_1
_geom_bond_atom_site_label_2
_geom_bond_distance
_geom_bond_site_symmetry_2
Li0 Rh1 2.547395 1_555
Li0 Rh0 2.547401 1_656
Li0 Rh0 2.547401 1_665
Li0 Rh0 2.547401 1_566
Li0 Rh1 2.547408 1_655
Li0 Rh1 2.547408 1_556
Li0 Rh1 2.547408 1_565
Li0 Rh0 2.547415 1_666
As0 Rh0 2.547395 1_555
As0 Rh1 2.547401 1_455
As0 Rh1 2.547401 1_554
As0 Rh1 2.547401 1_545
As0 Rh0 2.547408 1_556
As0 Rh0 2.547408 1_565
As0 Rh0 2.547408 1_655
As0 Rh1 2.547415 1_555
As0 Li0 2.941490 1_545
As0 Li0 2.941490 1_455
As0 Li0 2.941490 1_454
As0 Li0 2.941490 1_445
As0 Li0 2.941490 1_544
As0 Li0 2.941490 1_554
