# generated using pymatgen
data_TiAlRu2
_symmetry_space_group_name_H-M   'P 1'
_cell_length_a   4.28368253
_cell_length_b   4.28368251
_cell_length_c   4.28368261
_cell_angle_alpha   59.99992978
_cell_angle_beta   59.99992983
_cell_angle_gamma   59.99993180
_symmetry_Int_Tables_number   1
_chemical_formula_structural   TiAlRu2
_chemical_formula_sum   'Ti1 Al1 Ru2'
_cell_volume   55.58225400
_cell_formula_units_Z   1
loop_
 _symmetry_equiv_pos_site_id
 _symmetry_equiv_pos_as_xyz
  1  'x, y, z'
loop_
 _atom_site_type_symbol
 _atom_site_label
 _atom_site_symmetry_multiplicity
 _atom_site_fract_x
 _atom_site_fract_y
 _atom_site_fract_z
 _atom_site_occupancy
  Ti  Ti0  1  0.74999918  0.74999920  0.74999920  1
  Al  Al0  1  0.25000003  0.25000002  0.25000002  1
  Ru  Ru0  1  0.00000003  0.00000002  0.00000002  1
  Ru  Ru1  1  0.50000076  0.50000075  0.50000075  1
loop_
_geom_bond_atom_site_label_1
_geom_bond_atom_site_label_2
_geom_bond_distance
_geom_bond_site_symmetry_2
Al0 Ru1 2.623204 1_545
Al0 Ru1 2.623204 1_554
Al0 Ru1 2.623204 1_455
Al0 Ru0 2.623207 1_565
Al0 Ru0 2.623207 1_556
Al0 Ru0 2.623207 1_655
Al0 Ru0 2.623210 1_555
Al0 Ru1 2.623218 1_555
Ru0 Ti0 2.623204 1_544
Ru0 Ti0 2.623204 1_454
Ru0 Ti0 2.623204 1_445
Ru0 Ti0 2.623219 1_444
Ru1 Ti0 2.623194 1_555
Ru1 Ti0 2.623212 1_545
Ru1 Ti0 2.623212 1_554
Ru1 Ti0 2.623212 1_455
