# generated using pymatgen
data_Li4MnO2F3
_symmetry_space_group_name_H-M   'P 1'
_cell_length_a   5.10701100
_cell_length_b   5.26303469
_cell_length_c   7.67620833
_cell_angle_alpha   109.59190499
_cell_angle_beta   103.69237932
_cell_angle_gamma   97.18992520
_symmetry_Int_Tables_number   1
_chemical_formula_structural   Li4MnO2F3
_chemical_formula_sum   'Li8 Mn2 O4 F6'
_cell_volume   184.07955988
_cell_formula_units_Z   2
loop_
 _symmetry_equiv_pos_site_id
 _symmetry_equiv_pos_as_xyz
  1  'x, y, z'
loop_
 _atom_site_type_symbol
 _atom_site_label
 _atom_site_symmetry_multiplicity
 _atom_site_fract_x
 _atom_site_fract_y
 _atom_site_fract_z
 _atom_site_occupancy
  Li  Li0  1  0.49550300  0.25546100  0.31797400  1
  Li  Li1  1  0.50000000  0.50000000  0.50000000  1
  Li  Li2  1  0.00000000  0.50000000  0.00000000  1
  Li  Li3  1  0.51032100  0.11329300  0.09076800  1
  Li  Li4  1  0.99710100  0.08297600  0.59156900  1
  Li  Li5  1  0.00289900  0.91702400  0.40843100  1
  Li  Li6  1  0.48967900  0.88670700  0.90923200  1
  Li  Li7  1  0.50449700  0.74453900  0.68202600  1
  Mn  Mn0  1  0.98136800  0.30503000  0.79886100  1
  Mn  Mn1  1  0.01863200  0.69497000  0.20113900  1
  O  O0  1  0.22623700  0.82639400  0.03989000  1
  O  O1  1  0.75852200  0.76076600  0.56681100  1
  O  O2  1  0.24147800  0.23923400  0.43318900  1
  O  O3  1  0.77376300  0.17360600  0.96011000  1
  F  F0  1  0.74123900  0.99053600  0.74723000  1
  F  F1  1  0.76537500  0.60841800  0.34114300  1
  F  F2  1  0.73782700  0.38489600  0.15005600  1
  F  F3  1  0.26217300  0.61510400  0.84994400  1
  F  F4  1  0.23462500  0.39158200  0.65885700  1
  F  F5  1  0.25876100  0.00946400  0.25277000  1
loop_
_geom_bond_atom_site_label_1
_geom_bond_atom_site_label_2
_geom_bond_distance
_geom_bond_site_symmetry_2
Li0 O2 1.743156 1_555
Li1 O2 1.625894 1_555
Li1 O1 1.625894 1_555
Li2 Mn0 1.513072 1_454
Li2 Mn1 1.513072 1_555
Li2 O0 1.833725 1_555
Li2 O3 1.833725 1_454
Li3 O0 1.823537 1_545
Li3 O3 1.913692 1_554
Li4 Li5 1.393827 1_645
Li4 Mn0 1.655638 1_555
Li4 O1 1.885062 1_545
Li5 Mn1 1.655638 1_555
Li5 O2 1.885062 1_565
Li6 O3 1.823537 1_565
Li6 O0 1.913692 1_556
Li7 O1 1.743156 1_555
Mn0 O3 2.036304 1_555
Mn1 O0 2.036304 1_555
F0 Li7 1.508518 1_555
F0 O1 1.532849 1_555
F0 O3 1.549771 1_565
F0 Mn0 1.795136 1_565
F0 Li4 2.083695 1_565
F1 F2 1.502974 1_555
F1 O1 1.658054 1_555
F1 Li5 1.738928 1_655
F1 Mn1 1.968303 1_655
F1 Li0 2.098442 1_555
F1 Li1 2.169053 1_555
F2 O3 1.576906 1_554
F2 Li3 1.580526 1_555
F2 Mn1 1.895345 1_655
F2 Li2 2.116965 1_655
F3 F4 1.502974 1_555
F3 O0 1.576906 1_556
F3 Li6 1.580526 1_555
F3 Mn0 1.895345 1_455
F3 Li2 2.116965 1_556
F4 O2 1.658054 1_555
F4 Li4 1.738928 1_455
F4 Mn0 1.968303 1_455
F4 Li7 2.098442 1_555
F4 Li1 2.169053 1_555
F5 Li0 1.508518 1_555
F5 O2 1.532849 1_555
F5 O0 1.549771 1_545
F5 Mn1 1.795136 1_545
F5 Li5 2.083695 1_545
