# generated using pymatgen
data_Ac3Sn
_symmetry_space_group_name_H-M   'P 1'
_cell_length_a   5.31714098
_cell_length_b   5.31714098
_cell_length_c   5.31714098
_cell_angle_alpha   90.00000000
_cell_angle_beta   90.00000000
_cell_angle_gamma   90.00000000
_symmetry_Int_Tables_number   1
_chemical_formula_structural   Ac3Sn
_chemical_formula_sum   'Ac3 Sn1'
_cell_volume   150.32614705
_cell_formula_units_Z   1
loop_
 _symmetry_equiv_pos_site_id
 _symmetry_equiv_pos_as_xyz
  1  'x, y, z'
loop_
 _atom_site_type_symbol
 _atom_site_label
 _atom_site_symmetry_multiplicity
 _atom_site_fract_x
 _atom_site_fract_y
 _atom_site_fract_z
 _atom_site_occupancy
  Ac  Ac0  1  -0.00000000  0.49999900  0.49999900  1
  Ac  Ac1  1  0.49999900  -0.00000000  0.49999900  1
  Ac  Ac2  1  0.49999900  0.49999900  -0.00000000  1
  Sn  Sn0  1  -0.00000000  0.00000000  -0.00000000  1
loop_
_geom_bond_atom_site_label_1
_geom_bond_atom_site_label_2
_geom_bond_distance
_geom_bond_site_symmetry_2
Ac0 Ac1 3.759779 1_555
Ac0 Sn0 3.759779 1_555
Ac0 Ac2 3.759779 1_555
Ac0 Sn0 3.759786 1_565
Ac0 Ac1 3.759786 1_455
Ac0 Ac2 3.759786 1_455
Ac0 Sn0 3.759786 1_556
Ac0 Ac2 3.759786 1_556
Ac0 Ac1 3.759786 1_565
Ac0 Ac2 3.759794 1_456
Ac0 Sn0 3.759794 1_566
Ac0 Ac1 3.759794 1_465
Ac1 Sn0 3.759779 1_555
Ac1 Ac2 3.759779 1_555
Ac1 Sn0 3.759786 1_655
Ac1 Ac2 3.759786 1_545
Ac1 Sn0 3.759786 1_556
Ac1 Ac2 3.759786 1_556
Ac1 Ac2 3.759794 1_546
Ac1 Sn0 3.759794 1_656
Ac2 Sn0 3.759779 1_555
Ac2 Sn0 3.759786 1_655
Ac2 Sn0 3.759786 1_565
Ac2 Sn0 3.759794 1_665
