# generated using pymatgen
data_AcSbAu2
_symmetry_space_group_name_H-M   'P 1'
_cell_length_a   5.24684957
_cell_length_b   5.24684957
_cell_length_c   5.24684957
_cell_angle_alpha   60.00000000
_cell_angle_beta   60.00000000
_cell_angle_gamma   60.00000000
_symmetry_Int_Tables_number   1
_chemical_formula_structural   AcSbAu2
_chemical_formula_sum   'Ac1 Sb1 Au2'
_cell_volume   102.13646924
_cell_formula_units_Z   1
loop_
 _symmetry_equiv_pos_site_id
 _symmetry_equiv_pos_as_xyz
  1  'x, y, z'
loop_
 _atom_site_type_symbol
 _atom_site_label
 _atom_site_symmetry_multiplicity
 _atom_site_fract_x
 _atom_site_fract_y
 _atom_site_fract_z
 _atom_site_occupancy
  Ac  Ac0  1  0.25000000  0.25000000  0.25000000  1
  Sb  Sb0  1  0.75000100  0.75000100  0.75000100  1
  Au  Au0  1  0.50000100  0.50000100  0.50000100  1
  Au  Au1  1  -0.00000000  -0.00000000  -0.00000000  1
loop_
_geom_bond_atom_site_label_1
_geom_bond_atom_site_label_2
_geom_bond_distance
_geom_bond_site_symmetry_2
Ac0 Au0 3.213022 1_554
Ac0 Au0 3.213022 1_545
Ac0 Au0 3.213022 1_455
Ac0 Au1 3.213026 1_655
Ac0 Au1 3.213026 1_565
Ac0 Au1 3.213026 1_555
Ac0 Au1 3.213026 1_556
Ac0 Au0 3.213039 1_555
Ac0 Sb0 3.710075 1_454
Ac0 Sb0 3.710075 1_544
Ac0 Sb0 3.710075 1_445
Ac0 Sb0 3.710090 1_455
Ac0 Sb0 3.710090 1_545
Ac0 Sb0 3.710090 1_554
Au0 Sb0 3.213026 1_555
Au0 Sb0 3.213026 1_554
Au0 Sb0 3.213026 1_455
Au0 Sb0 3.213026 1_545
Au1 Sb0 3.213013 1_444
Au1 Sb0 3.213030 1_454
Au1 Sb0 3.213030 1_445
Au1 Sb0 3.213030 1_544
