# generated using pymatgen
data_CaSnS3
_symmetry_space_group_name_H-M   'P 1'
_cell_length_a   9.97472900
_cell_length_b   9.97472900
_cell_length_c   9.97472900
_cell_angle_alpha   90.00000000
_cell_angle_beta   90.00000000
_cell_angle_gamma   90.00000000
_symmetry_Int_Tables_number   1
_chemical_formula_structural   CaSnS3
_chemical_formula_sum   'Ca8 Sn8 S24'
_cell_volume   992.43784256
_cell_formula_units_Z   8
loop_
 _symmetry_equiv_pos_site_id
 _symmetry_equiv_pos_as_xyz
  1  'x, y, z'
loop_
 _atom_site_type_symbol
 _atom_site_label
 _atom_site_symmetry_multiplicity
 _atom_site_fract_x
 _atom_site_fract_y
 _atom_site_fract_z
 _atom_site_occupancy
  Ca  Ca0  1  0.25403400  0.75403400  0.74596600  1
  Ca  Ca1  1  0.75403400  0.74596600  0.25403400  1
  Ca  Ca2  1  0.74596600  0.25403400  0.75403400  1
  Ca  Ca3  1  0.24596600  0.24596600  0.24596600  1
  Ca  Ca4  1  0.70960900  0.20960900  0.29039100  1
  Ca  Ca5  1  0.20960900  0.29039100  0.70960900  1
  Ca  Ca6  1  0.29039100  0.70960900  0.20960900  1
  Ca  Ca7  1  0.79039100  0.79039100  0.79039100  1
  Sn  Sn0  1  0.01596100  0.51596100  0.98403900  1
  Sn  Sn1  1  0.51596100  0.98403900  0.01596100  1
  Sn  Sn2  1  0.98403900  0.01596100  0.51596100  1
  Sn  Sn3  1  0.48403900  0.48403900  0.48403900  1
  Sn  Sn4  1  0.48144300  0.98144300  0.51855700  1
  Sn  Sn5  1  0.98144300  0.51855700  0.48144300  1
  Sn  Sn6  1  0.51855700  0.48144300  0.98144300  1
  Sn  Sn7  1  0.01855700  0.01855700  0.01855700  1
  S  S0  1  0.03759300  0.77537600  0.93295100  1
  S  S1  1  0.06704900  0.53759300  0.72462400  1
  S  S2  1  0.27537600  0.56704900  0.96240700  1
  S  S3  1  0.53759300  0.72462400  0.06704900  1
  S  S4  1  0.56704900  0.96240700  0.27537600  1
  S  S5  1  0.77537600  0.93295100  0.03759300  1
  S  S6  1  0.96240700  0.27537600  0.56704900  1
  S  S7  1  0.93295100  0.03759300  0.77537600  1
  S  S8  1  0.72462400  0.06704900  0.53759300  1
  S  S9  1  0.46240700  0.22462400  0.43295100  1
  S  S10  1  0.43295100  0.46240700  0.22462400  1
  S  S11  1  0.22462400  0.43295100  0.46240700  1
  S  S12  1  0.10107200  0.27351100  0.99258100  1
  S  S13  1  0.00741900  0.60107200  0.22648900  1
  S  S14  1  0.77351100  0.50741900  0.89892800  1
  S  S15  1  0.60107200  0.22648900  0.00741900  1
  S  S16  1  0.50741900  0.89892800  0.77351100  1
  S  S17  1  0.27351100  0.99258100  0.10107200  1
  S  S18  1  0.89892800  0.77351100  0.50741900  1
  S  S19  1  0.99258100  0.10107200  0.27351100  1
  S  S20  1  0.22648900  0.00741900  0.60107200  1
  S  S21  1  0.39892800  0.72648900  0.49258100  1
  S  S22  1  0.49258100  0.39892800  0.72648900  1
  S  S23  1  0.72648900  0.49258100  0.39892800  1
loop_
_geom_bond_atom_site_label_1
_geom_bond_atom_site_label_2
_geom_bond_distance
_geom_bond_site_symmetry_2
Ca0 S2 2.860949 1_555
Ca0 S0 2.860949 1_555
Ca0 S1 2.860949 1_555
Ca0 S20 2.924433 1_565
Ca0 S16 2.924433 1_555
Ca0 S21 2.924433 1_555
Ca1 S4 2.860949 1_555
Ca1 S5 2.860949 1_555
Ca1 S3 2.860949 1_555
Ca1 S13 2.924433 1_655
Ca1 S18 2.924433 1_555
Ca1 S23 2.924433 1_555
Ca2 S6 2.860949 1_555
Ca2 S7 2.860949 1_555
Ca2 S8 2.860949 1_555
Ca2 S15 2.924433 1_556
Ca2 S14 2.924433 1_555
Ca2 S22 2.924433 1_555
Ca3 S11 2.860949 1_555
Ca3 S9 2.860949 1_555
Ca3 S10 2.860949 1_555
Ca3 S12 2.924433 1_554
Ca3 S19 2.924433 1_455
Ca3 S17 2.924433 1_545
Ca4 S8 2.850359 1_555
Ca4 S9 2.850359 1_555
Ca4 S4 2.850359 1_545
Ca4 S19 3.027759 1_555
Ca4 S23 3.027759 1_555
Ca4 S15 3.027759 1_555
Ca5 S11 2.850359 1_555
Ca5 S1 2.850359 1_555
Ca5 S6 2.850359 1_455
Ca5 S12 3.027759 1_555
Ca5 S22 3.027759 1_555
Ca5 S20 3.027759 1_555
Ca6 S3 2.850359 1_555
Ca6 S10 2.850359 1_555
Ca6 S2 2.850359 1_554
Ca6 S21 3.027759 1_555
Ca6 S17 3.027759 1_555
Ca6 S13 3.027759 1_555
Ca7 S0 2.850359 1_655
Ca7 S7 2.850359 1_565
Ca7 S5 2.850359 1_556
Ca7 S16 3.027759 1_555
Ca7 S14 3.027759 1_555
Ca7 S18 3.027759 1_555
S0 Sn7 2.578574 1_566
S0 Sn0 2.646107 1_555
S1 Sn5 2.578574 1_455
S1 Sn0 2.646107 1_555
S2 Sn6 2.578574 1_555
S2 Sn0 2.646107 1_555
S3 Sn6 2.578574 1_554
S3 Sn1 2.646107 1_555
S4 Sn4 2.578574 1_555
S4 Sn1 2.646107 1_555
S5 Sn7 2.578574 1_665
S5 Sn1 2.646107 1_555
S6 Sn5 2.578574 1_555
S6 Sn2 2.646107 1_555
S7 Sn7 2.578574 1_656
S7 Sn2 2.646107 1_555
S8 Sn4 2.578574 1_545
S8 Sn2 2.646107 1_555
S9 Sn4 2.578574 1_545
S9 Sn3 2.646107 1_555
S10 Sn6 2.578574 1_554
S10 Sn3 2.646107 1_555
S11 Sn5 2.578574 1_455
S11 Sn3 2.646107 1_555
S12 Sn0 2.564473 1_555
S12 Sn7 2.685500 1_556
S13 Sn0 2.564473 1_554
S13 Sn5 2.685500 1_455
S14 Sn0 2.564473 1_655
S14 Sn6 2.685500 1_555
S15 Sn1 2.564473 1_545
S15 Sn6 2.685500 1_554
S16 Sn1 2.564473 1_556
S16 Sn4 2.685500 1_555
S17 Sn1 2.564473 1_555
S17 Sn7 2.685500 1_565
S18 Sn2 2.564473 1_565
S18 Sn5 2.685500 1_555
S19 Sn2 2.564473 1_555
S19 Sn7 2.685500 1_655
S20 Sn2 2.564473 1_455
S20 Sn4 2.685500 1_545
S21 Sn3 2.564473 1_555
S21 Sn4 2.685500 1_555
S22 Sn3 2.564473 1_555
S22 Sn6 2.685500 1_555
S23 Sn3 2.564473 1_555
S23 Sn5 2.685500 1_555
