# generated using pymatgen
data_Er2TlAg
_symmetry_space_group_name_H-M   'P 1'
_cell_length_a   5.17447324
_cell_length_b   5.17447324
_cell_length_c   5.17447324
_cell_angle_alpha   60.00000000
_cell_angle_beta   60.00000000
_cell_angle_gamma   60.00000000
_symmetry_Int_Tables_number   1
_chemical_formula_structural   Er2TlAg
_chemical_formula_sum   'Er2 Tl1 Ag1'
_cell_volume   97.96781888
_cell_formula_units_Z   1
loop_
 _symmetry_equiv_pos_site_id
 _symmetry_equiv_pos_as_xyz
  1  'x, y, z'
loop_
 _atom_site_type_symbol
 _atom_site_label
 _atom_site_symmetry_multiplicity
 _atom_site_fract_x
 _atom_site_fract_y
 _atom_site_fract_z
 _atom_site_occupancy
  Er  Er0  1  0.50000000  0.50000000  0.50000000  1
  Er  Er1  1  -0.00000000  0.00000000  -0.00000000  1
  Tl  Tl0  1  0.74999900  0.74999900  0.74999900  1
  Ag  Ag0  1  0.25000000  0.25000000  0.25000000  1
loop_
_geom_bond_atom_site_label_1
_geom_bond_atom_site_label_2
_geom_bond_distance
_geom_bond_site_symmetry_2
Er0 Tl0 3.168692 1_555
Er0 Tl0 3.168709 1_455
Er0 Tl0 3.168709 1_545
Er0 Tl0 3.168709 1_554
Er1 Tl0 3.168701 1_454
Er1 Tl0 3.168701 1_544
Er1 Tl0 3.168701 1_445
Er1 Tl0 3.168717 1_444
Ag0 Er0 3.168705 1_554
Ag0 Er0 3.168705 1_455
Ag0 Er1 3.168705 1_655
Ag0 Er1 3.168705 1_556
Ag0 Er1 3.168705 1_565
Ag0 Er0 3.168705 1_545
Ag0 Er1 3.168705 1_555
Ag0 Er0 3.168705 1_555
