# generated using pymatgen
data_CaSnRh2
_symmetry_space_group_name_H-M   'P 1'
_cell_length_a   4.63074798
_cell_length_b   4.63074798
_cell_length_c   4.63074798
_cell_angle_alpha   60.00000000
_cell_angle_beta   60.00000000
_cell_angle_gamma   60.00000000
_symmetry_Int_Tables_number   1
_chemical_formula_structural   CaSnRh2
_chemical_formula_sum   'Ca1 Sn1 Rh2'
_cell_volume   70.21638079
_cell_formula_units_Z   1
loop_
 _symmetry_equiv_pos_site_id
 _symmetry_equiv_pos_as_xyz
  1  'x, y, z'
loop_
 _atom_site_type_symbol
 _atom_site_label
 _atom_site_symmetry_multiplicity
 _atom_site_fract_x
 _atom_site_fract_y
 _atom_site_fract_z
 _atom_site_occupancy
  Ca  Ca0  1  0.25000000  0.25000000  0.25000000  1
  Sn  Sn0  1  0.75000100  0.75000100  0.75000100  1
  Rh  Rh0  1  -0.00000000  -0.00000000  0.00000000  1
  Rh  Rh1  1  0.50000100  0.50000100  0.50000100  1
loop_
_geom_bond_atom_site_label_1
_geom_bond_atom_site_label_2
_geom_bond_distance
_geom_bond_site_symmetry_2
Ca0 Rh1 2.835739 1_554
Ca0 Rh1 2.835739 1_455
Ca0 Rh1 2.835739 1_545
Ca0 Rh0 2.835742 1_655
Ca0 Rh0 2.835742 1_555
Ca0 Rh0 2.835742 1_556
Ca0 Rh0 2.835742 1_565
Ca0 Rh1 2.835754 1_555
Rh0 Sn0 2.835731 1_444
Rh0 Sn0 2.835746 1_544
Rh0 Sn0 2.835746 1_445
Rh0 Sn0 2.835746 1_454
Rh1 Sn0 2.835742 1_555
Rh1 Sn0 2.835742 1_545
Rh1 Sn0 2.835742 1_455
Rh1 Sn0 2.835742 1_554
