# generated using pymatgen
data_Li2V3CuO8
_symmetry_space_group_name_H-M   'P 1'
_cell_length_a   5.97858048
_cell_length_b   5.97858048
_cell_length_c   5.97858056
_cell_angle_alpha   59.27737793
_cell_angle_beta   59.27737793
_cell_angle_gamma   59.27738434
_symmetry_Int_Tables_number   1
_chemical_formula_structural   Li2V3CuO8
_chemical_formula_sum   'Li2 V3 Cu1 O8'
_cell_volume   148.61850573
_cell_formula_units_Z   1
loop_
 _symmetry_equiv_pos_site_id
 _symmetry_equiv_pos_as_xyz
  1  'x, y, z'
loop_
 _atom_site_type_symbol
 _atom_site_label
 _atom_site_symmetry_multiplicity
 _atom_site_fract_x
 _atom_site_fract_y
 _atom_site_fract_z
 _atom_site_occupancy
  Li  Li0  1  0.87581100  0.87581100  0.87581100  1
  Li  Li1  1  0.12418900  0.12418900  0.12418900  1
  V  V0  1  0.50000000  0.50000000  0.00000000  1
  V  V1  1  0.00000000  0.50000000  0.50000000  1
  V  V2  1  0.50000000  0.00000000  0.50000000  1
  Cu  Cu0  1  0.50000000  0.50000000  0.50000000  1
  O  O0  1  0.73941100  0.73941100  0.73941100  1
  O  O1  1  0.74884500  0.28743800  0.74884500  1
  O  O2  1  0.28743800  0.74884500  0.74884500  1
  O  O3  1  0.74884500  0.74884500  0.28743800  1
  O  O4  1  0.25115500  0.25115500  0.71256200  1
  O  O5  1  0.71256200  0.25115500  0.25115500  1
  O  O6  1  0.25115500  0.71256200  0.25115500  1
  O  O7  1  0.26058900  0.26058900  0.26058900  1
loop_
_geom_bond_atom_site_label_1
_geom_bond_atom_site_label_2
_geom_bond_distance
_geom_bond_site_symmetry_2
Li0 O3 1.994988 1_556
Li0 O1 1.994988 1_565
Li0 O2 1.994988 1_655
Li0 O0 2.008345 1_555
Li1 O4 1.994988 1_554
Li1 O6 1.994988 1_545
Li1 O5 1.994988 1_455
Li1 O7 2.008345 1_555
Cu0 O4 2.107052 1_555
Cu0 O3 2.107052 1_555
Cu0 O1 2.107052 1_555
Cu0 O5 2.107052 1_555
Cu0 O2 2.107052 1_555
Cu0 O6 2.107052 1_555
O0 V0 2.015194 1_556
O0 V1 2.015195 1_655
O0 V2 2.015195 1_565
O1 V1 1.954073 1_655
O1 V0 1.954073 1_556
O2 V2 1.954073 1_565
O2 V0 1.954073 1_556
O3 V2 1.954073 1_565
O3 V1 1.954073 1_655
O4 V2 1.954073 1_555
O4 V1 1.954073 1_555
O5 V2 1.954073 1_555
O5 V0 1.954073 1_555
O6 V1 1.954073 1_555
O6 V0 1.954073 1_555
O7 V0 2.015194 1_555
O7 V1 2.015195 1_555
O7 V2 2.015195 1_555
