# generated using pymatgen
data_LiVPHO5
_symmetry_space_group_name_H-M   'P 1'
_cell_length_a   6.21068393
_cell_length_b   6.58042477
_cell_length_c   10.88471014
_cell_angle_alpha   103.53139506
_cell_angle_beta   76.11932652
_cell_angle_gamma   75.55312703
_symmetry_Int_Tables_number   1
_chemical_formula_structural   LiVPHO5
_chemical_formula_sum   'Li4 V4 P4 H4 O20'
_cell_volume   397.24895256
_cell_formula_units_Z   4
loop_
 _symmetry_equiv_pos_site_id
 _symmetry_equiv_pos_as_xyz
  1  'x, y, z'
loop_
 _atom_site_type_symbol
 _atom_site_label
 _atom_site_symmetry_multiplicity
 _atom_site_fract_x
 _atom_site_fract_y
 _atom_site_fract_z
 _atom_site_occupancy
  Li  Li0  1  0.00014800  0.49957700  0.00018800  1
  Li  Li1  1  0.99986200  0.50042000  0.49980600  1
  Li  Li2  1  0.99964000  0.00051700  0.00054600  1
  Li  Li3  1  0.00037000  0.99949300  0.49945600  1
  V  V0  1  0.38304500  0.72775600  0.62080600  1
  V  V1  1  0.61693100  0.27223000  0.87919400  1
  V  V2  1  0.38408100  0.72716200  0.12019400  1
  V  V3  1  0.61593800  0.27284400  0.37980800  1
  P  P0  1  0.55145700  0.76953000  0.32683500  1
  P  P1  1  0.55151800  0.76978100  0.82696300  1
  P  P2  1  0.44855300  0.23047800  0.17317100  1
  P  P3  1  0.44847900  0.23020200  0.67303000  1
  H  H0  1  0.94655300  0.83379500  0.16704700  1
  H  H1  1  0.94531700  0.83423600  0.66700600  1
  H  H2  1  0.05346500  0.16620400  0.33295600  1
  H  H3  1  0.05464900  0.16578400  0.83299600  1
  O  O0  1  0.67913100  0.64037800  0.17541200  1
  O  O1  1  0.67846300  0.64122100  0.67542700  1
  O  O2  1  0.32088200  0.35963300  0.32459400  1
  O  O3  1  0.32152200  0.35877400  0.82456400  1
  O  O4  1  0.65049300  0.95596000  0.37179900  1
  O  O5  1  0.65077900  0.95601400  0.87191300  1
  O  O6  1  0.34952300  0.04404500  0.12820700  1
  O  O7  1  0.34921800  0.04396700  0.62808300  1
  O  O8  1  0.08456500  0.75669600  0.08801900  1
  O  O9  1  0.08387500  0.75699100  0.58828700  1
  O  O10  1  0.91545200  0.24330900  0.41198300  1
  O  O11  1  0.91609100  0.24301300  0.91171400  1
  O  O12  1  0.41450500  0.38496000  0.08379400  1
  O  O13  1  0.41361000  0.38556800  0.58426400  1
  O  O14  1  0.58549600  0.61504300  0.41621100  1
  O  O15  1  0.58638600  0.61441800  0.91573000  1
  O  O16  1  0.70985000  0.15302300  0.16735400  1
  O  O17  1  0.71008900  0.15251700  0.66647300  1
  O  O18  1  0.29016200  0.84698500  0.33264900  1
  O  O19  1  0.28990400  0.84747500  0.83352400  1
loop_
_geom_bond_atom_site_label_1
_geom_bond_atom_site_label_2
_geom_bond_distance
_geom_bond_site_symmetry_2
Li0 O11 1.992600 1_454
Li0 O8 1.994421 1_555
Li0 O0 2.213131 1_455
Li0 O3 2.216825 1_554
Li1 O9 1.992502 1_655
Li1 O10 1.994323 1_555
Li1 O2 2.213071 1_655
Li1 O1 2.216898 1_555
Li2 O16 2.054555 1_555
Li2 O19 2.057678 1_644
Li2 O8 2.071842 1_645
Li2 O11 2.073671 1_554
Li3 O18 2.054557 1_555
Li3 O17 2.057697 1_465
Li3 O10 2.071808 1_465
Li3 O9 2.073649 1_555
H0 O8 0.978298 1_655
H1 O9 0.978379 1_655
H2 O10 0.978299 1_455
H3 O11 0.978363 1_455
O0 P0 1.564859 1_555
O0 V2 2.052362 1_555
O1 P1 1.564659 1_555
O1 V0 2.050494 1_555
O2 P2 1.564860 1_555
O2 V3 2.052374 1_555
O3 P3 1.564663 1_555
O3 V1 2.050507 1_555
O4 P0 1.537154 1_555
O4 V3 2.021018 1_565
O5 P1 1.536996 1_555
O5 V1 2.019139 1_565
O6 P2 1.537145 1_555
O6 V2 2.020998 1_545
O7 P3 1.537000 1_555
O7 V0 2.019137 1_545
O8 V2 1.945457 1_555
O9 V0 1.945177 1_555
O10 V3 1.945444 1_555
O11 V1 1.945132 1_555
O12 P2 1.574407 1_555
O12 V1 2.123361 1_554
O12 V2 2.144227 1_555
O13 P3 1.574118 1_555
O13 V3 2.121916 1_555
O13 V0 2.143819 1_555
O14 P0 1.574417 1_555
O14 V0 2.123361 1_555
O14 V3 2.144181 1_555
O15 P1 1.574111 1_555
O15 V2 2.121946 1_556
O15 V1 2.143851 1_555
O16 P2 1.555719 1_555
O16 V3 2.140018 1_555
O17 P3 1.555370 1_555
O17 V1 2.143059 1_555
O18 P0 1.555717 1_555
O18 V2 2.140026 1_555
O19 P1 1.555384 1_555
O19 V0 2.143039 1_555
