# generated using pymatgen
data_LiHg2Pd
_symmetry_space_group_name_H-M   'P 1'
_cell_length_a   4.64272384
_cell_length_b   4.64272384
_cell_length_c   4.64272384
_cell_angle_alpha   60.00000000
_cell_angle_beta   60.00000000
_cell_angle_gamma   60.00000000
_symmetry_Int_Tables_number   1
_chemical_formula_structural   LiHg2Pd
_chemical_formula_sum   'Li1 Hg2 Pd1'
_cell_volume   70.76256336
_cell_formula_units_Z   1
loop_
 _symmetry_equiv_pos_site_id
 _symmetry_equiv_pos_as_xyz
  1  'x, y, z'
loop_
 _atom_site_type_symbol
 _atom_site_label
 _atom_site_symmetry_multiplicity
 _atom_site_fract_x
 _atom_site_fract_y
 _atom_site_fract_z
 _atom_site_occupancy
  Li  Li0  1  0.25000000  0.25000000  0.25000000  1
  Hg  Hg0  1  0.00000000  -0.00000000  -0.00000000  1
  Hg  Hg1  1  0.50000100  0.50000100  0.50000100  1
  Pd  Pd0  1  0.75000000  0.75000000  0.75000000  1
loop_
_geom_bond_atom_site_label_1
_geom_bond_atom_site_label_2
_geom_bond_distance
_geom_bond_site_symmetry_2
Li0 Pd0 3.282902 1_545
Li0 Pd0 3.282902 1_445
Li0 Pd0 3.282902 1_544
Li0 Pd0 3.282902 1_554
Li0 Pd0 3.282902 1_454
Li0 Pd0 3.282902 1_455
Hg0 Li0 2.843076 1_545
Hg0 Li0 2.843076 1_455
Hg0 Pd0 2.843076 1_444
Hg0 Pd0 2.843076 1_454
Hg0 Li0 2.843076 1_555
Hg0 Li0 2.843076 1_554
Hg0 Pd0 2.843076 1_544
Hg0 Pd0 2.843076 1_445
Hg1 Pd0 2.843065 1_555
Hg1 Li0 2.843072 1_655
Hg1 Li0 2.843072 1_565
Hg1 Li0 2.843072 1_556
Hg1 Pd0 2.843080 1_554
Hg1 Pd0 2.843080 1_455
Hg1 Pd0 2.843080 1_545
Hg1 Li0 2.843087 1_555
