# generated using pymatgen
data_Na(Cu2Sb)2
_symmetry_space_group_name_H-M   'P 1'
_cell_length_a   8.78053099
_cell_length_b   8.78053099
_cell_length_c   8.78053135
_cell_angle_alpha   27.93169004
_cell_angle_beta   27.93169004
_cell_angle_gamma   27.93168680
_symmetry_Int_Tables_number   1
_chemical_formula_structural   Na(Cu2Sb)2
_chemical_formula_sum   'Na1 Cu4 Sb2'
_cell_volume   131.18040258
_cell_formula_units_Z   1
loop_
 _symmetry_equiv_pos_site_id
 _symmetry_equiv_pos_as_xyz
  1  'x, y, z'
loop_
 _atom_site_type_symbol
 _atom_site_label
 _atom_site_symmetry_multiplicity
 _atom_site_fract_x
 _atom_site_fract_y
 _atom_site_fract_z
 _atom_site_occupancy
  Na  Na0  1  0.00000000  0.00000000  -0.00000000  1
  Cu  Cu0  1  0.14330156  0.14330156  0.14330156  1
  Cu  Cu1  1  0.85669844  0.85669844  0.85669844  1
  Cu  Cu2  1  0.45017114  0.45017114  0.45017114  1
  Cu  Cu3  1  0.54982886  0.54982886  0.54982886  1
  Sb  Sb0  1  0.24865233  0.24865233  0.24865233  1
  Sb  Sb1  1  0.75134767  0.75134767  0.75134767  1
loop_
_geom_bond_atom_site_label_1
_geom_bond_atom_site_label_2
_geom_bond_distance
_geom_bond_site_symmetry_2
Na0 Sb0 3.252211 1_545
Na0 Sb0 3.252211 1_455
Na0 Sb1 3.252211 1_454
Na0 Sb1 3.252211 1_544
Na0 Sb0 3.252211 1_554
Na0 Sb1 3.252211 1_445
Cu0 Cu2 2.536885 1_455
Cu0 Cu2 2.536885 1_545
Cu0 Cu2 2.536885 1_554
Cu0 Sb0 2.665169 1_555
Cu0 Cu1 2.717561 1_454
Cu0 Cu1 2.717561 1_544
Cu0 Cu1 2.717561 1_445
Cu0 Sb1 2.861263 1_544
Cu0 Sb1 2.861263 1_454
Cu0 Sb1 2.861263 1_445
Cu1 Cu3 2.536885 1_655
Cu1 Cu3 2.536885 1_565
Cu1 Cu3 2.536885 1_556
Cu1 Sb1 2.665169 1_555
Cu1 Sb0 2.861263 1_566
Cu1 Sb0 2.861263 1_656
Cu1 Sb0 2.861263 1_665
Cu2 Cu3 2.521146 1_555
Cu2 Sb1 2.578637 1_545
Cu2 Sb1 2.578637 1_455
Cu2 Sb1 2.578637 1_554
Cu3 Sb0 2.578637 1_655
Cu3 Sb0 2.578637 1_565
Cu3 Sb0 2.578637 1_556
