# generated using pymatgen
data_BeCrRu2
_symmetry_space_group_name_H-M   'P 1'
_cell_length_a   4.05632693
_cell_length_b   4.05632693
_cell_length_c   4.05632693
_cell_angle_alpha   60.00000000
_cell_angle_beta   60.00000000
_cell_angle_gamma   60.00000000
_symmetry_Int_Tables_number   1
_chemical_formula_structural   BeCrRu2
_chemical_formula_sum   'Be1 Cr1 Ru2'
_cell_volume   47.19368126
_cell_formula_units_Z   1
loop_
 _symmetry_equiv_pos_site_id
 _symmetry_equiv_pos_as_xyz
  1  'x, y, z'
loop_
 _atom_site_type_symbol
 _atom_site_label
 _atom_site_symmetry_multiplicity
 _atom_site_fract_x
 _atom_site_fract_y
 _atom_site_fract_z
 _atom_site_occupancy
  Be  Be0  1  0.24999900  0.24999900  0.24999900  1
  Cr  Cr0  1  0.74999900  0.74999900  0.74999900  1
  Ru  Ru0  1  -0.00000000  -0.00000000  0.00000000  1
  Ru  Ru1  1  0.50000000  0.50000000  0.50000000  1
loop_
_geom_bond_atom_site_label_1
_geom_bond_atom_site_label_2
_geom_bond_distance
_geom_bond_site_symmetry_2
Be0 Ru0 2.483973 1_555
Be0 Ru1 2.483979 1_545
Be0 Ru1 2.483979 1_455
Be0 Ru1 2.483979 1_554
Be0 Ru0 2.483986 1_655
Be0 Ru0 2.483986 1_556
Be0 Ru0 2.483986 1_565
Be0 Ru1 2.483993 1_555
Cr0 Ru1 2.483973 1_555
Cr0 Ru0 2.483979 1_656
Cr0 Ru0 2.483979 1_566
Cr0 Ru0 2.483979 1_665
Cr0 Ru1 2.483986 1_556
Cr0 Ru1 2.483986 1_655
Cr0 Ru1 2.483986 1_565
Cr0 Ru0 2.483993 1_666
