# generated using pymatgen
data_Li4Mn2Co3Sn3O16
_symmetry_space_group_name_H-M   'P 1'
_cell_length_a   5.96260500
_cell_length_b   6.01038888
_cell_length_c   9.58539634
_cell_angle_alpha   89.59394061
_cell_angle_beta   91.27008702
_cell_angle_gamma   119.48116205
_symmetry_Int_Tables_number   1
_chemical_formula_structural   Li4Mn2Co3Sn3O16
_chemical_formula_sum   'Li4 Mn2 Co3 Sn3 O16'
_cell_volume   298.96153866
_cell_formula_units_Z   1
loop_
 _symmetry_equiv_pos_site_id
 _symmetry_equiv_pos_as_xyz
  1  'x, y, z'
loop_
 _atom_site_type_symbol
 _atom_site_label
 _atom_site_symmetry_multiplicity
 _atom_site_fract_x
 _atom_site_fract_y
 _atom_site_fract_z
 _atom_site_occupancy
  Li  Li0  1  0.32474600  0.67816600  0.88900800  1
  Li  Li1  1  0.01934100  0.97320000  0.99027300  1
  Li  Li2  1  0.01168900  0.97943500  0.50162100  1
  Li  Li3  1  0.66502000  0.33890600  0.40277800  1
  Mn  Mn0  1  0.33151800  0.67126300  0.49549900  1
  Mn  Mn1  1  0.66007800  0.34080300  0.97863600  1
  Co  Co0  1  0.17537700  0.83272500  0.21325700  1
  Co  Co1  1  0.33279000  0.16541200  0.71566200  1
  Co  Co2  1  0.82330600  0.65801400  0.71565700  1
  Sn  Sn0  1  0.17417300  0.34193600  0.21280500  1
  Sn  Sn1  1  0.66251400  0.83422500  0.21290300  1
  Sn  Sn2  1  0.83090200  0.16853600  0.71098100  1
  O  O0  1  0.16391100  0.30926700  0.59912100  1
  O  O1  1  0.48869400  0.52328400  0.34665200  1
  O  O2  1  0.32061000  0.67592500  0.09845600  1
  O  O3  1  0.01814200  0.99345500  0.31291200  1
  O  O4  1  0.00593400  0.98695000  0.80843200  1
  O  O5  1  0.66680400  0.82417600  0.59756100  1
  O  O6  1  0.04706900  0.54046400  0.34235600  1
  O  O7  1  0.47903900  0.97810000  0.33199700  1
  O  O8  1  0.83812300  0.16644800  0.08548900  1
  O  O9  1  0.16148600  0.83034800  0.61455800  1
  O  O10  1  0.51160400  0.04993800  0.84623700  1
  O  O11  1  0.94961100  0.49169700  0.84640500  1
  O  O12  1  0.64946200  0.34170100  0.61114400  1
  O  O13  1  0.33395000  0.16038800  0.09479500  1
  O  O14  1  0.51644300  0.47910800  0.83598900  1
  O  O15  1  0.83736600  0.66583200  0.09665600  1
loop_
_geom_bond_atom_site_label_1
_geom_bond_atom_site_label_2
_geom_bond_distance
_geom_bond_site_symmetry_2
Li0 O11 1.981055 1_455
Li0 O10 1.989781 1_565
Li0 O2 2.008208 1_556
Li0 O14 2.092021 1_555
Li1 O4 1.746315 1_555
Li1 O13 1.908889 1_566
Li1 O15 1.918178 1_456
Li1 O8 2.154913 1_466
Li2 O3 1.810595 1_555
Li2 O9 1.871837 1_555
Li2 O0 1.960830 1_565
Li2 O5 2.031800 1_455
Li3 O1 1.932905 1_555
Li3 O12 2.002049 1_555
Li3 O7 2.003324 1_545
Li3 O6 2.079570 1_655
Mn0 O5 1.978897 1_555
Mn0 O6 2.059873 1_555
Mn0 O9 2.065287 1_555
Mn0 O0 2.142973 1_555
Mn0 O1 2.145387 1_555
Mn0 O7 2.248223 1_555
Mn1 O10 1.977092 1_555
Mn1 O14 1.981613 1_555
Mn1 O11 1.987217 1_555
Mn1 O15 2.039430 1_556
Mn1 O13 2.049472 1_556
Mn1 O8 2.075052 1_556
Co0 O3 1.915443 1_555
Co0 O7 1.924264 1_555
Co0 O2 1.925929 1_555
Co0 O6 1.972480 1_555
Co0 O15 2.059971 1_455
Co0 O13 2.060324 1_565
Co1 O4 1.935267 1_545
Co1 O12 1.947113 1_555
Co1 O0 1.950084 1_555
Co1 O10 1.960074 1_555
Co1 O9 1.999318 1_545
Co1 O14 2.006725 1_555
Co2 O12 1.932295 1_555
Co2 O4 1.936041 1_655
Co2 O11 1.954101 1_555
Co2 O14 1.993469 1_555
Co2 O5 2.001010 1_555
Co2 O9 2.023514 1_655
O0 Sn2 2.058191 1_455
O1 Sn0 2.062103 1_555
O1 Sn1 2.080612 1_555
O2 Sn1 2.066700 1_555
O2 Sn0 2.068693 1_555
O3 Sn1 2.063180 1_455
O3 Sn0 2.065522 1_565
O4 Sn2 2.053381 1_465
O5 Sn2 2.101089 1_565
O6 Sn0 2.119681 1_555
O7 Sn1 2.061131 1_555
O8 Sn0 2.108648 1_655
O8 Sn1 2.130577 1_545
O10 Sn2 2.138733 1_555
O11 Sn2 2.144874 1_555
O12 Sn2 2.053709 1_555
O13 Sn0 2.113361 1_555
O15 Sn1 2.111638 1_555
