# generated using pymatgen
data_MgAlRh2
_symmetry_space_group_name_H-M   'P 1'
_cell_length_a   4.27432879
_cell_length_b   4.27432879
_cell_length_c   4.27432879
_cell_angle_alpha   60.00000000
_cell_angle_beta   60.00000000
_cell_angle_gamma   60.00000000
_symmetry_Int_Tables_number   1
_chemical_formula_structural   MgAlRh2
_chemical_formula_sum   'Mg1 Al1 Rh2'
_cell_volume   55.21903070
_cell_formula_units_Z   1
loop_
 _symmetry_equiv_pos_site_id
 _symmetry_equiv_pos_as_xyz
  1  'x, y, z'
loop_
 _atom_site_type_symbol
 _atom_site_label
 _atom_site_symmetry_multiplicity
 _atom_site_fract_x
 _atom_site_fract_y
 _atom_site_fract_z
 _atom_site_occupancy
  Mg  Mg0  1  0.75000000  0.75000000  0.75000000  1
  Al  Al0  1  0.25000000  0.25000000  0.25000000  1
  Rh  Rh0  1  0.00000000  -0.00000000  -0.00000000  1
  Rh  Rh1  1  0.50000100  0.50000100  0.50000100  1
loop_
_geom_bond_atom_site_label_1
_geom_bond_atom_site_label_2
_geom_bond_distance
_geom_bond_site_symmetry_2
Mg0 Rh1 2.617471 1_555
Mg0 Rh0 2.617481 1_566
Mg0 Rh0 2.617481 1_666
Mg0 Rh0 2.617481 1_665
Mg0 Rh0 2.617481 1_656
Mg0 Rh1 2.617485 1_556
Mg0 Rh1 2.617485 1_655
Mg0 Rh1 2.617485 1_565
Al0 Rh1 2.617478 1_554
Al0 Rh1 2.617478 1_545
Al0 Rh1 2.617478 1_455
Al0 Rh0 2.617481 1_655
Al0 Rh0 2.617481 1_555
Al0 Rh0 2.617481 1_556
Al0 Rh0 2.617481 1_565
Al0 Rh1 2.617492 1_555
