# generated using pymatgen
data_Li4Ti2Ni3Sb3O16
_symmetry_space_group_name_H-M   'P 1'
_cell_length_a   6.13110629
_cell_length_b   9.71285220
_cell_length_c   10.54780711
_cell_angle_alpha   90.44063254
_cell_angle_beta   90.00009656
_cell_angle_gamma   90.00024389
_symmetry_Int_Tables_number   1
_chemical_formula_structural   Li4Ti2Ni3Sb3O16
_chemical_formula_sum   'Li8 Ti4 Ni6 Sb6 O32'
_cell_volume   628.10892115
_cell_formula_units_Z   2
loop_
 _symmetry_equiv_pos_site_id
 _symmetry_equiv_pos_as_xyz
  1  'x, y, z'
loop_
 _atom_site_type_symbol
 _atom_site_label
 _atom_site_symmetry_multiplicity
 _atom_site_fract_x
 _atom_site_fract_y
 _atom_site_fract_z
 _atom_site_occupancy
  Li  Li0  1  0.50000500  0.89056200  0.17355400  1
  Li  Li1  1  0.00000500  0.89050600  0.67352600  1
  Li  Li2  1  0.50000600  0.98450500  0.48417400  1
  Li  Li3  1  0.00000900  0.98450200  0.98413600  1
  Li  Li4  1  0.50000600  0.50419000  0.49163000  1
  Li  Li5  1  0.00000600  0.50419900  0.99163500  1
  Li  Li6  1  0.00000900  0.40348600  0.32436000  1
  Li  Li7  1  0.50000400  0.40347500  0.82436100  1
  Ti  Ti0  1  0.50000900  0.50405800  0.17786600  1
  Ti  Ti1  1  0.00001000  0.50403200  0.67784700  1
  Ti  Ti2  1  0.00000800  0.97328500  0.35975400  1
  Ti  Ti3  1  0.49999800  0.97325700  0.85971200  1
  Ni  Ni0  1  0.99997400  0.21421400  0.82790300  1
  Ni  Ni1  1  0.24350500  0.71233600  0.41885100  1
  Ni  Ni2  1  0.75652300  0.71233800  0.41885200  1
  Ni  Ni3  1  0.50003900  0.21422300  0.32790200  1
  Ni  Ni4  1  0.74359300  0.71235200  0.91884300  1
  Ni  Ni5  1  0.25647100  0.71233300  0.91884200  1
  Sb  Sb0  1  0.00001200  0.71572600  0.17486100  1
  Sb  Sb1  1  0.50001400  0.71569400  0.67486500  1
  Sb  Sb2  1  0.74634200  0.21594600  0.08192400  1
  Sb  Sb3  1  0.24633500  0.21593200  0.58193800  1
  Sb  Sb4  1  0.25367500  0.21594200  0.08192800  1
  Sb  Sb5  1  0.75367700  0.21592800  0.58193900  1
  O  O0  1  0.50000400  0.33777300  0.00858500  1
  O  O1  1  0.00000100  0.33771200  0.50854600  1
  O  O2  1  0.50001100  0.10154400  0.16205200  1
  O  O3  1  0.00000200  0.10156100  0.66202100  1
  O  O4  1  0.50001600  0.31686000  0.49667300  1
  O  O5  1  0.00000800  0.31683400  0.99663400  1
  O  O6  1  0.00003600  0.80095600  0.00557100  1
  O  O7  1  0.50002200  0.80093200  0.50560000  1
  O  O8  1  0.00000700  0.10236700  0.15563100  1
  O  O9  1  0.50000900  0.10233900  0.65560700  1
  O  O10  1  0.50001000  0.59041200  0.32711400  1
  O  O11  1  0.00001400  0.59039200  0.82709500  1
  O  O12  1  0.00002200  0.60580300  0.33280500  1
  O  O13  1  0.50003200  0.60581600  0.83280100  1
  O  O14  1  0.00001300  0.85116200  0.48710300  1
  O  O15  1  0.50001900  0.85117800  0.98709800  1
  O  O16  1  0.75275400  0.59346900  0.09279400  1
  O  O17  1  0.25272500  0.59344200  0.59280400  1
  O  O18  1  0.24727000  0.59346400  0.09279400  1
  O  O19  1  0.74729400  0.59343800  0.59280400  1
  O  O20  1  0.71910900  0.34461100  0.23258600  1
  O  O21  1  0.21904700  0.34454700  0.73258700  1
  O  O22  1  0.28092500  0.34460900  0.23259200  1
  O  O23  1  0.78095100  0.34454800  0.73258800  1
  O  O24  1  0.21487300  0.84652800  0.25951400  1
  O  O25  1  0.71488200  0.84650300  0.75948300  1
  O  O26  1  0.78514500  0.84652500  0.25951300  1
  O  O27  1  0.28513700  0.84649800  0.75948400  1
  O  O28  1  0.24854600  0.09271100  0.41958400  1
  O  O29  1  0.74858900  0.09270800  0.91957200  1
  O  O30  1  0.75147300  0.09271400  0.41958600  1
  O  O31  1  0.25142000  0.09271000  0.91957700  1
loop_
_geom_bond_atom_site_label_1
_geom_bond_atom_site_label_2
_geom_bond_distance
_geom_bond_site_symmetry_2
Li0 O15 2.000669 1_554
Li0 O24 2.016702 1_555
Li0 O26 2.016747 1_555
Li0 O2 2.053756 1_565
Li1 O14 2.000256 1_555
Li1 O25 2.016575 1_455
Li1 O27 2.016639 1_555
Li1 O3 2.054466 1_565
Li2 O7 1.799006 1_555
Li2 O28 1.989139 1_565
Li2 O30 1.989175 1_565
Li2 O9 2.132557 1_565
Li3 O6 1.798759 1_556
Li3 O31 1.988798 1_565
Li3 O29 1.988853 1_465
Li3 O8 2.133268 1_566
Li4 O4 1.820695 1_555
Li4 O10 1.932589 1_555
Li4 O17 2.043209 1_555
Li4 O19 2.043217 1_555
Li5 O5 1.821018 1_555
Li5 O11 1.932693 1_555
Li5 O16 2.043069 1_456
Li5 O18 2.043095 1_556
Li6 O12 1.966409 1_555
Li6 O1 2.049764 1_555
Li6 O20 2.054653 1_455
Li6 O22 2.054717 1_555
Li7 O13 1.966639 1_555
Li7 O0 2.049922 1_556
Li7 O23 2.055035 1_555
Li7 O21 2.055087 1_555
Ni0 O5 2.033144 1_655
Ni0 O3 2.056504 1_655
Ni0 O23 2.106214 1_555
Ni0 O21 2.106404 1_655
Ni0 O29 2.172731 1_555
Ni0 O31 2.173014 1_655
Ni1 O7 2.009752 1_555
Ni1 O12 2.026935 1_555
Ni1 O14 2.133122 1_555
Ni1 O24 2.141946 1_555
Ni1 O17 2.176217 1_555
Ni1 O10 2.189601 1_555
Ni2 O7 2.009670 1_555
Ni2 O12 2.027031 1_655
Ni2 O14 2.133088 1_655
Ni2 O26 2.141927 1_555
Ni2 O19 2.176241 1_555
Ni2 O10 2.189641 1_555
Ni3 O4 2.033591 1_555
Ni3 O2 2.056351 1_555
Ni3 O20 2.106715 1_555
Ni3 O22 2.106850 1_555
Ni3 O30 2.173036 1_555
Ni3 O28 2.173294 1_555
Ni4 O6 2.009330 1_656
Ni4 O13 2.027284 1_555
Ni4 O15 2.133484 1_555
Ni4 O25 2.141932 1_555
Ni4 O16 2.176133 1_556
Ni4 O11 2.189469 1_655
Ni5 O6 2.009383 1_556
Ni5 O13 2.027194 1_555
Ni5 O15 2.133483 1_555
Ni5 O27 2.141976 1_555
Ni5 O18 2.176075 1_556
Ni5 O11 2.189515 1_555
O0 Sb4 2.072128 1_555
O0 Sb2 2.072135 1_555
O0 Ti0 2.398408 1_555
O1 Sb5 2.072043 1_455
O1 Sb3 2.072066 1_555
O1 Ti1 2.398791 1_555
O2 Sb4 2.060184 1_555
O2 Sb2 2.060195 1_555
O3 Sb5 2.059787 1_455
O3 Sb3 2.059844 1_555
O4 Sb5 2.049930 1_555
O4 Sb3 2.049996 1_555
O5 Sb2 2.049856 1_456
O5 Sb4 2.049902 1_556
O6 Sb0 1.973965 1_555
O7 Sb1 1.973758 1_555
O8 Sb4 2.062353 1_555
O8 Sb2 2.062381 1_455
O8 Ti2 2.499809 1_545
O9 Sb5 2.062286 1_555
O9 Sb3 2.062343 1_555
O9 Ti3 2.499644 1_545
O10 Ti0 1.778036 1_555
O11 Ti1 1.778063 1_555
O12 Sb0 1.985623 1_555
O13 Sb1 1.985314 1_555
O14 Ti2 1.798837 1_555
O15 Ti3 1.798847 1_555
O16 Ti0 1.993145 1_555
O16 Sb0 2.107534 1_655
O17 Ti1 1.992859 1_555
O17 Sb1 2.107618 1_555
O18 Ti0 1.993099 1_555
O18 Sb0 2.107571 1_555
O19 Ti1 1.992851 1_655
O19 Sb1 2.107610 1_555
O20 Sb2 2.021016 1_555
O20 Ti0 2.133036 1_555
O21 Sb3 2.020639 1_555
O21 Ti1 2.133120 1_555
O22 Sb4 2.021052 1_555
O22 Ti0 2.132999 1_555
O23 Sb5 2.020661 1_555
O23 Ti1 2.133194 1_655
O24 Sb0 2.032056 1_555
O24 Ti2 2.085456 1_555
O25 Sb1 2.031966 1_555
O25 Ti3 2.085455 1_555
O26 Sb0 2.032067 1_655
O26 Ti2 2.085462 1_655
O27 Sb1 2.031985 1_555
O27 Ti3 2.085380 1_555
O28 Ti2 2.013581 1_545
O28 Sb3 2.081739 1_555
O29 Ti3 2.014064 1_545
O29 Sb2 2.081818 1_556
O30 Ti2 2.013599 1_645
O30 Sb5 2.081692 1_555
O31 Ti3 2.014040 1_545
O31 Sb4 2.081776 1_556
