# generated using pymatgen
data_Ho4Ni13C4
_symmetry_space_group_name_H-M   'P 1'
_cell_length_a   8.30454478
_cell_length_b   8.30454478
_cell_length_c   3.81847484
_cell_angle_alpha   90.00000000
_cell_angle_beta   90.00000000
_cell_angle_gamma   91.26347532
_symmetry_Int_Tables_number   1
_chemical_formula_structural   Ho4Ni13C4
_chemical_formula_sum   'Ho4 Ni13 C4'
_cell_volume   263.27886234
_cell_formula_units_Z   1
loop_
 _symmetry_equiv_pos_site_id
 _symmetry_equiv_pos_as_xyz
  1  'x, y, z'
loop_
 _atom_site_type_symbol
 _atom_site_label
 _atom_site_symmetry_multiplicity
 _atom_site_fract_x
 _atom_site_fract_y
 _atom_site_fract_z
 _atom_site_occupancy
  Ho  Ho0  1  0.34768709  0.34768709  0.50000000  1
  Ho  Ho1  1  0.65231291  0.65231291  0.50000000  1
  Ho  Ho2  1  0.81280254  0.18719746  0.50000000  1
  Ho  Ho3  1  0.18719746  0.81280254  0.50000000  1
  Ni  Ni0  1  0.00000000  -0.00000000  0.00000000  1
  Ni  Ni1  1  0.21525280  0.56979183  -0.00000000  1
  Ni  Ni2  1  0.78474720  0.43020817  -0.00000000  1
  Ni  Ni3  1  0.43020817  0.78474720  -0.00000000  1
  Ni  Ni4  1  0.56979183  0.21525280  0.00000000  1
  Ni  Ni5  1  0.00000000  0.50000000  0.50000000  1
  Ni  Ni6  1  0.50000000  -0.00000000  0.50000000  1
  Ni  Ni7  1  0.07464581  0.29031550  0.00000000  1
  Ni  Ni8  1  0.92535419  0.70968450  -0.00000000  1
  Ni  Ni9  1  0.70968450  0.92535419  0.00000000  1
  Ni  Ni10  1  0.29031550  0.07464581  0.00000000  1
  Ni  Ni11  1  0.12325981  0.12325981  0.50000000  1
  Ni  Ni12  1  0.87674019  0.87674019  0.50000000  1
  C  C0  1  0.44280521  0.55719479  0.00000000  1
  C  C1  1  0.55719479  0.44280521  0.00000000  1
  C  C2  1  0.00000000  0.50000000  0.00000000  1
  C  C3  1  0.50000000  -0.00000000  0.00000000  1
loop_
_geom_bond_atom_site_label_1
_geom_bond_atom_site_label_2
_geom_bond_distance
_geom_bond_site_symmetry_2
Ho0 Ni11 2.606542 1_555
Ho0 Ni1 2.889000 1_556
Ho0 Ni4 2.889000 1_556
Ho0 Ni1 2.889000 1_555
Ho0 Ni4 2.889000 1_555
Ho0 Ni10 2.994332 1_555
Ho0 Ni10 2.994332 1_556
Ho0 Ni7 2.994332 1_556
Ho0 Ni7 2.994332 1_555
Ho0 Ni5 3.177733 1_555
Ho0 Ni6 3.177733 1_555
Ho1 Ni12 2.606542 1_555
Ho1 Ni3 2.889000 1_555
Ho1 Ni3 2.889000 1_556
Ho1 Ni2 2.889000 1_556
Ho1 Ni2 2.889000 1_555
Ho1 Ni8 2.994332 1_556
Ho1 Ni8 2.994332 1_555
Ho1 Ni9 2.994332 1_555
Ho1 Ni9 2.994332 1_556
Ho1 Ni6 3.177733 1_565
Ho1 Ni5 3.177733 1_655
Ho2 Ni11 2.643757 1_655
Ho2 Ni12 2.643757 1_545
Ho2 Ni4 2.791578 1_556
Ho2 Ni4 2.791578 1_555
Ho2 Ni2 2.791578 1_556
Ho2 Ni2 2.791578 1_555
Ho2 Ni0 2.930062 1_656
Ho2 Ni0 2.930062 1_655
Ho2 Ni5 2.997768 1_655
Ho2 Ni6 2.997768 1_555
Ho2 Ni7 3.004131 1_656
Ho2 Ni7 3.004131 1_655
Ho2 Ni9 3.004131 1_546
Ho2 Ni9 3.004131 1_545
Ho3 Ni12 2.643757 1_455
Ho3 Ni11 2.643757 1_565
Ho3 Ni1 2.791578 1_555
Ho3 Ni3 2.791578 1_556
Ho3 Ni1 2.791578 1_556
Ho3 Ni3 2.791578 1_555
Ho3 Ni0 2.930062 1_565
Ho3 Ni0 2.930062 1_566
Ho3 Ni6 2.997768 1_565
Ho3 Ni5 2.997768 1_555
Ho3 Ni10 3.004131 1_565
Ho3 Ni10 3.004131 1_566
Ho3 Ni8 3.004131 1_456
Ho3 Ni8 3.004131 1_455
Ni0 Ni12 2.386328 1_445
Ni0 Ni11 2.386328 1_554
Ni0 Ni11 2.386328 1_555
Ni0 Ni12 2.386328 1_444
Ni0 Ni7 2.476083 1_555
Ni0 Ni10 2.476083 1_555
Ni0 Ni9 2.476083 1_445
Ni0 Ni8 2.476083 1_445
Ni10 Ni11 2.399487 1_555
Ni10 Ni11 2.399487 1_554
Ni11 Ni7 2.399487 1_555
Ni11 Ni7 2.399487 1_556
Ni12 Ni9 2.399487 1_556
Ni12 Ni8 2.399487 1_556
Ni12 Ni8 2.399487 1_555
Ni12 Ni9 2.399487 1_555
C0 C1 1.358168 1_555
C0 Ni3 1.894914 1_555
C0 Ni1 1.894914 1_555
C0 Ho0 2.689921 1_554
C0 Ho1 2.689921 1_555
C0 Ho1 2.689921 1_554
C0 Ho0 2.689921 1_555
C1 Ni2 1.894914 1_555
C1 Ni4 1.894914 1_555
C1 Ho0 2.689921 1_554
C1 Ho1 2.689921 1_555
C1 Ho1 2.689921 1_554
C1 Ho0 2.689921 1_555
C2 Ni8 1.861216 1_455
C2 Ni7 1.861216 1_555
C2 Ni1 1.866993 1_555
C2 Ni2 1.866993 1_455
C2 Ni5 1.909237 1_554
C2 Ni5 1.909237 1_555
C3 Ni9 1.861216 1_545
C3 Ni10 1.861216 1_555
C3 Ni4 1.866993 1_555
C3 Ni3 1.866993 1_545
C3 Ni6 1.909237 1_555
C3 Ni6 1.909237 1_554
