# generated using pymatgen
data_Li2Cu2F7
_symmetry_space_group_name_H-M   'P 1'
_cell_length_a   7.09358492
_cell_length_b   7.09358492
_cell_length_c   7.09358492
_cell_angle_alpha   60.00000000
_cell_angle_beta   60.00000000
_cell_angle_gamma   60.00000000
_symmetry_Int_Tables_number   1
_chemical_formula_structural   Li2Cu2F7
_chemical_formula_sum   'Li4 Cu4 F14'
_cell_volume   252.39591338
_cell_formula_units_Z   2
loop_
 _symmetry_equiv_pos_site_id
 _symmetry_equiv_pos_as_xyz
  1  'x, y, z'
loop_
 _atom_site_type_symbol
 _atom_site_label
 _atom_site_symmetry_multiplicity
 _atom_site_fract_x
 _atom_site_fract_y
 _atom_site_fract_z
 _atom_site_occupancy
  Li  Li0  1  0.12500000  0.12500000  0.62500000  1
  Li  Li1  1  0.12500000  0.62500000  0.12500000  1
  Li  Li2  1  0.12500000  0.12500000  0.12500000  1
  Li  Li3  1  0.62500000  0.12500000  0.12500000  1
  Cu  Cu0  1  0.12500000  0.62500000  0.62500000  1
  Cu  Cu1  1  0.62500000  0.62500000  0.62500000  1
  Cu  Cu2  1  0.62500000  0.12500000  0.62500000  1
  Cu  Cu3  1  0.62500000  0.62500000  0.12500000  1
  F  F0  1  0.29621000  0.70379000  0.70379000  1
  F  F1  1  0.70379000  0.29621000  0.70379000  1
  F  F2  1  0.29621000  0.29621000  0.70379000  1
  F  F3  1  0.54621000  0.95379000  0.95379000  1
  F  F4  1  0.70379000  0.70379000  0.29621000  1
  F  F5  1  0.00000000  0.00000000  0.00000000  1
  F  F6  1  0.95379000  0.54621000  0.95379000  1
  F  F7  1  0.29621000  0.70379000  0.29621000  1
  F  F8  1  0.25000000  0.25000000  0.25000000  1
  F  F9  1  0.54621000  0.54621000  0.95379000  1
  F  F10  1  0.70379000  0.29621000  0.29621000  1
  F  F11  1  0.95379000  0.95379000  0.54621000  1
  F  F12  1  0.54621000  0.95379000  0.54621000  1
  F  F13  1  0.95379000  0.54621000  0.54621000  1
loop_
_geom_bond_atom_site_label_1
_geom_bond_atom_site_label_2
_geom_bond_distance
_geom_bond_site_symmetry_2
Cu0 F0 1.941567 1_555
Cu0 F7 1.941567 1_555
Cu0 F11 1.941567 1_455
Cu0 F2 1.941567 1_555
Cu0 F6 1.941567 1_455
Cu0 F13 1.941567 1_455
Cu1 F0 1.941567 1_555
Cu1 F4 1.941567 1_555
Cu1 F1 1.941567 1_555
Cu1 F12 1.941567 1_555
Cu1 F9 1.941567 1_555
Cu1 F13 1.941567 1_555
Cu2 F1 1.941567 1_555
Cu2 F10 1.941567 1_555
Cu2 F2 1.941567 1_555
Cu2 F3 1.941567 1_545
Cu2 F11 1.941567 1_545
Cu2 F12 1.941567 1_545
Cu3 F7 1.941567 1_555
Cu3 F4 1.941567 1_555
Cu3 F10 1.941567 1_555
Cu3 F6 1.941567 1_554
Cu3 F9 1.941567 1_554
Cu3 F3 1.941567 1_554
F0 Li1 2.468789 1_556
F0 Li0 2.468789 1_565
F1 Li0 2.468789 1_655
F1 Li3 2.468789 1_556
F2 Li0 2.468789 1_555
F2 Li2 2.468789 1_556
F3 Li3 2.468789 1_566
F3 Li2 2.468789 1_566
F4 Li3 2.468789 1_565
F4 Li1 2.468789 1_655
F5 Li0 2.171958 1_554
F5 Li2 2.171958 1_555
F5 Li3 2.171958 1_455
F5 Li1 2.171958 1_545
F6 Li1 2.468789 1_656
F6 Li2 2.468789 1_656
F7 Li2 2.468789 1_565
F7 Li1 2.468789 1_555
F8 Li0 2.171958 1_555
F8 Li2 2.171958 1_555
F8 Li1 2.171958 1_555
F8 Li3 2.171958 1_555
F9 Li3 2.468789 1_556
F9 Li1 2.468789 1_556
F10 Li2 2.468789 1_655
F10 Li3 2.468789 1_555
F11 Li0 2.468789 1_665
F11 Li2 2.468789 1_665
F12 Li3 2.468789 1_565
F12 Li0 2.468789 1_565
F13 Li0 2.468789 1_655
F13 Li1 2.468789 1_655
