# generated using pymatgen
data_CaInHg2
_symmetry_space_group_name_H-M   'P 1'
_cell_length_a   5.16289509
_cell_length_b   5.16289509
_cell_length_c   5.16289509
_cell_angle_alpha   60.15768467
_cell_angle_beta   60.15768467
_cell_angle_gamma   60.15768467
_symmetry_Int_Tables_number   1
_chemical_formula_structural   CaInHg2
_chemical_formula_sum   'Ca1 In1 Hg2'
_cell_volume   97.65921678
_cell_formula_units_Z   1
loop_
 _symmetry_equiv_pos_site_id
 _symmetry_equiv_pos_as_xyz
  1  'x, y, z'
loop_
 _atom_site_type_symbol
 _atom_site_label
 _atom_site_symmetry_multiplicity
 _atom_site_fract_x
 _atom_site_fract_y
 _atom_site_fract_z
 _atom_site_occupancy
  Ca  Ca0  1  0.24999900  0.24999900  0.24999900  1
  In  In0  1  0.75000200  0.75000200  0.75000200  1
  Hg  Hg0  1  0.00032755  0.00032755  0.00032755  1
  Hg  Hg1  1  0.49967145  0.49967145  0.49967145  1
loop_
_geom_bond_atom_site_label_1
_geom_bond_atom_site_label_2
_geom_bond_distance
_geom_bond_site_symmetry_2
Ca0 Hg0 3.153692 1_555
Ca0 Hg1 3.153704 1_555
Ca0 Hg1 3.169270 1_545
Ca0 Hg1 3.169270 1_455
Ca0 Hg1 3.169270 1_554
Ca0 Hg0 3.169274 1_556
Ca0 Hg0 3.169274 1_565
Ca0 Hg0 3.169274 1_655
Hg0 In0 3.161954 1_444
Hg0 In0 3.166529 1_544
Hg0 In0 3.166529 1_445
Hg0 In0 3.166529 1_454
Hg1 In0 3.162017 1_555
Hg1 In0 3.166508 1_545
Hg1 In0 3.166508 1_554
Hg1 In0 3.166508 1_455
