# generated using pymatgen
data_LiV4OF11
_symmetry_space_group_name_H-M   'P 1'
_cell_length_a   5.23672100
_cell_length_b   5.54141036
_cell_length_c   17.22778794
_cell_angle_alpha   83.63258119
_cell_angle_beta   82.16091488
_cell_angle_gamma   62.11513943
_symmetry_Int_Tables_number   1
_chemical_formula_structural   LiV4OF11
_chemical_formula_sum   'Li2 V8 O2 F22'
_cell_volume   437.11931013
_cell_formula_units_Z   2
loop_
 _symmetry_equiv_pos_site_id
 _symmetry_equiv_pos_as_xyz
  1  'x, y, z'
loop_
 _atom_site_type_symbol
 _atom_site_label
 _atom_site_symmetry_multiplicity
 _atom_site_fract_x
 _atom_site_fract_y
 _atom_site_fract_z
 _atom_site_occupancy
  Li  Li0  1  0.48332800  0.34375500  0.70792800  1
  Li  Li1  1  0.51667200  0.65624500  0.29207200  1
  V  V0  1  0.78177900  0.73219100  0.75474300  1
  V  V1  1  0.35896300  0.38619300  0.87344400  1
  V  V2  1  0.87137400  0.87915000  0.37637300  1
  V  V3  1  0.50000000  0.50000000  0.50000000  1
  V  V4  1  0.00000000  0.00000000  0.00000000  1
  V  V5  1  0.64103700  0.61380700  0.12655600  1
  V  V6  1  0.21822100  0.26780900  0.24525700  1
  V  V7  1  0.12862600  0.12085000  0.62362700  1
  O  O0  1  0.15236600  0.53089700  0.78368400  1
  O  O1  1  0.84763400  0.46910300  0.21631600  1
  F  F0  1  0.07684800  0.68372400  0.94030400  1
  F  F1  1  0.17961400  0.57601500  0.31493000  1
  F  F2  1  0.66345300  0.09492000  0.80165100  1
  F  F3  1  0.10679000  0.70330700  0.46557600  1
  F  F4  1  0.42176400  0.39196600  0.16096800  1
  F  F5  1  0.61332000  0.20722600  0.96047400  1
  F  F6  1  0.34820400  0.34599800  0.59727800  1
  F  F7  1  0.62509100  0.03869600  0.29087100  1
  F  F8  1  0.83590100  0.84783500  0.09017100  1
  F  F9  1  0.57823600  0.60803400  0.83903200  1
  F  F10  1  0.58661300  0.17770700  0.44191700  1
  F  F11  1  0.92315200  0.31627600  0.05969600  1
  F  F12  1  0.90250900  0.91618200  0.65693500  1
  F  F13  1  0.65179600  0.65400200  0.40272200  1
  F  F14  1  0.16409900  0.15216500  0.90982900  1
  F  F15  1  0.89321000  0.29669300  0.53442400  1
  F  F16  1  0.09749100  0.08381800  0.34306500  1
  F  F17  1  0.38668000  0.79277400  0.03952600  1
  F  F18  1  0.82038600  0.42398500  0.68507000  1
  F  F19  1  0.33654700  0.90508000  0.19834900  1
  F  F20  1  0.41338700  0.82229300  0.55808300  1
  F  F21  1  0.37490900  0.96130400  0.70912900  1
loop_
_geom_bond_atom_site_label_1
_geom_bond_atom_site_label_2
_geom_bond_distance
_geom_bond_site_symmetry_2
Li0 O0 1.945388 1_555
Li1 O1 1.945388 1_555
O0 V0 1.837040 1_455
O0 V1 1.890654 1_555
O1 V6 1.837040 1_655
O1 V5 1.890654 1_555
F0 V1 1.976442 1_555
F0 V4 1.979504 1_566
F1 V2 1.984880 1_455
F1 Li1 1.993446 1_555
F1 V6 2.112832 1_555
F2 Li0 2.025624 1_555
F2 V0 2.033693 1_545
F2 V1 2.043262 1_555
F3 V3 1.968739 1_555
F3 V2 1.972805 1_455
F4 V6 1.939142 1_555
F4 V5 2.038195 1_555
F5 V4 1.977457 1_656
F5 V1 1.996265 1_555
F6 V3 2.030436 1_555
F6 V7 2.039310 1_555
F6 Li0 2.118758 1_555
F7 V2 1.943594 1_545
F7 V6 2.115244 1_555
F7 Li1 2.434519 1_545
F8 V4 1.971234 1_665
F8 V5 1.999778 1_555
F9 V0 1.939142 1_555
F9 V1 2.038195 1_555
F10 V2 1.970590 1_545
F10 V3 1.977757 1_555
F11 V5 1.976442 1_555
F11 V4 1.979504 1_655
F12 V7 1.985996 1_665
F12 V0 2.051781 1_555
F12 Li0 2.504963 1_565
F13 V3 2.030436 1_555
F13 V2 2.039310 1_555
F13 Li1 2.118758 1_555
F14 V4 1.971234 1_556
F14 V1 1.999778 1_555
F15 V3 1.968739 1_555
F15 V7 1.972805 1_655
F16 V2 1.985996 1_445
F16 V6 2.051781 1_555
F16 Li1 2.504963 1_545
F17 V4 1.977457 1_565
F17 V5 1.996265 1_555
F18 V7 1.984880 1_655
F18 Li0 1.993446 1_555
F18 V0 2.112832 1_555
F19 Li1 2.025624 1_555
F19 V6 2.033693 1_565
F19 V5 2.043262 1_555
F20 V7 1.970590 1_565
F20 V3 1.977757 1_555
F21 V7 1.943594 1_565
F21 V0 2.115244 1_555
F21 Li0 2.434519 1_565
