# generated using pymatgen
data_Re3Pd
_symmetry_space_group_name_H-M   'P 1'
_cell_length_a   5.54033499
_cell_length_b   5.54034130
_cell_length_c   4.41596740
_cell_angle_alpha   90.00000000
_cell_angle_beta   90.00000000
_cell_angle_gamma   120.00001559
_symmetry_Int_Tables_number   1
_chemical_formula_structural   Re3Pd
_chemical_formula_sum   'Re6 Pd2'
_cell_volume   117.38942253
_cell_formula_units_Z   2
loop_
 _symmetry_equiv_pos_site_id
 _symmetry_equiv_pos_as_xyz
  1  'x, y, z'
loop_
 _atom_site_type_symbol
 _atom_site_label
 _atom_site_symmetry_multiplicity
 _atom_site_fract_x
 _atom_site_fract_y
 _atom_site_fract_z
 _atom_site_occupancy
  Re  Re0  1  0.84034771  0.15963759  0.75000100  1
  Re  Re1  1  0.31928958  0.15963726  0.75000100  1
  Re  Re2  1  0.84035791  0.68071556  0.75000100  1
  Re  Re3  1  0.15963688  0.84035213  0.25000100  1
  Re  Re4  1  0.68071369  0.84034925  0.25000100  1
  Re  Re5  1  0.15964647  0.31928908  0.25000100  1
  Pd  Pd0  1  0.66666872  0.33333991  0.25000100  1
  Pd  Pd1  1  0.33333604  0.66667323  0.75000100  1
loop_
_geom_bond_atom_site_label_1
_geom_bond_atom_site_label_2
_geom_bond_distance
_geom_bond_site_symmetry_2
Re0 Re2 2.653420 1_545
Re0 Re1 2.653499 1_655
Re0 Re4 2.687401 1_545
Re0 Re4 2.687401 1_546
Re0 Re5 2.687428 1_655
Re0 Re5 2.687428 1_656
Re0 Re1 2.886836 1_555
Re0 Re2 2.886922 1_555
Re1 Re2 2.653415 1_445
Re1 Re3 2.687392 1_545
Re1 Re3 2.687392 1_546
Re1 Re5 2.687418 1_555
Re1 Re5 2.687418 1_556
Re1 Re2 2.886922 1_555
Re2 Re4 2.687372 1_555
Re2 Re4 2.687372 1_556
Re2 Re3 2.687374 1_655
Re2 Re3 2.687374 1_656
Re3 Re4 2.653387 1_455
Re3 Re5 2.653448 1_565
Re3 Re5 2.886894 1_555
Re3 Re4 2.886948 1_555
Re4 Re5 2.653468 1_665
Re4 Re5 2.886868 1_555
Pd0 Re2 2.766441 1_555
Pd0 Re2 2.766441 1_554
Pd0 Re1 2.766450 1_555
Pd0 Re1 2.766450 1_554
Pd0 Re0 2.766457 1_555
Pd0 Re0 2.766457 1_554
Pd0 Re4 2.770917 1_555
Pd0 Re3 2.770934 1_655
Pd0 Re5 2.770970 1_555
Pd0 Re5 2.771005 1_655
Pd0 Re3 2.771042 1_545
Pd0 Re4 2.771063 1_545
Pd1 Re4 2.766446 1_555
Pd1 Re4 2.766446 1_556
Pd1 Re3 2.766448 1_555
Pd1 Re3 2.766448 1_556
Pd1 Re5 2.766466 1_555
Pd1 Re5 2.766466 1_556
Pd1 Re1 2.770920 1_565
Pd1 Re0 2.770922 1_565
Pd1 Re2 2.770983 1_455
Pd1 Re2 2.770991 1_555
Pd1 Re0 2.771055 1_455
Pd1 Re1 2.771061 1_555
