# generated using pymatgen
data_CdSnO3
_symmetry_space_group_name_H-M   'P 1'
_cell_length_a   5.47790823
_cell_length_b   5.60073751
_cell_length_c   7.91411222
_cell_angle_alpha   90.00000000
_cell_angle_beta   90.00000000
_cell_angle_gamma   90.00000000
_symmetry_Int_Tables_number   1
_chemical_formula_structural   CdSnO3
_chemical_formula_sum   'Cd4 Sn4 O12'
_cell_volume   242.80754370
_cell_formula_units_Z   4
loop_
 _symmetry_equiv_pos_site_id
 _symmetry_equiv_pos_as_xyz
  1  'x, y, z'
loop_
 _atom_site_type_symbol
 _atom_site_label
 _atom_site_symmetry_multiplicity
 _atom_site_fract_x
 _atom_site_fract_y
 _atom_site_fract_z
 _atom_site_occupancy
  Cd  Cd0  1  0.01189613  0.95334974  0.75000000  1
  Cd  Cd1  1  0.48810387  0.45334974  0.75000000  1
  Cd  Cd2  1  0.51189613  0.54665026  0.25000000  1
  Cd  Cd3  1  0.98810387  0.04665026  0.25000000  1
  Sn  Sn0  1  0.00000000  0.50000000  0.00000000  1
  Sn  Sn1  1  0.00000000  0.50000000  0.50000000  1
  Sn  Sn2  1  0.50000000  0.00000000  0.00000000  1
  Sn  Sn3  1  0.50000000  0.00000000  0.50000000  1
  O  O0  1  0.11260973  0.44953684  0.25000000  1
  O  O1  1  0.19462543  0.19809466  0.56052039  1
  O  O2  1  0.19462543  0.19809466  0.93947961  1
  O  O3  1  0.30537457  0.69809466  0.56052039  1
  O  O4  1  0.30537457  0.69809466  0.93947961  1
  O  O5  1  0.38739027  0.94953684  0.25000000  1
  O  O6  1  0.61260973  0.05046316  0.75000000  1
  O  O7  1  0.69462543  0.30190534  0.06052039  1
  O  O8  1  0.69462543  0.30190534  0.43947961  1
  O  O9  1  0.80537457  0.80190534  0.06052039  1
  O  O10  1  0.80537457  0.80190534  0.43947961  1
  O  O11  1  0.88739027  0.55046316  0.75000000  1
loop_
_geom_bond_atom_site_label_1
_geom_bond_atom_site_label_2
_geom_bond_distance
_geom_bond_site_symmetry_2
Cd0 O6 2.253867 1_465
Cd0 O2 2.264862 1_565
Cd0 O1 2.264862 1_565
Cd0 O11 2.357284 1_455
Cd0 O3 2.622408 1_555
Cd0 O4 2.622408 1_555
Cd1 O11 2.253867 1_555
Cd1 O3 2.264862 1_555
Cd1 O4 2.264862 1_555
Cd1 O6 2.357284 1_555
Cd1 O2 2.622408 1_555
Cd1 O1 2.622408 1_555
Cd2 O0 2.253867 1_555
Cd2 O7 2.264862 1_555
Cd2 O8 2.264862 1_555
Cd2 O5 2.357284 1_555
Cd2 O9 2.622408 1_555
Cd2 O10 2.622408 1_555
Cd3 O5 2.253867 1_645
Cd3 O9 2.264862 1_545
Cd3 O10 2.264862 1_545
Cd3 O0 2.357284 1_655
Cd3 O8 2.622408 1_555
Cd3 O7 2.622408 1_555
O0 Sn0 2.091645 1_555
O0 Sn1 2.091645 1_555
O1 Sn1 2.055524 1_555
O1 Sn3 2.063650 1_555
O2 Sn0 2.055524 1_556
O2 Sn2 2.063650 1_556
O3 Sn3 2.055524 1_565
O3 Sn1 2.063650 1_555
O4 Sn2 2.055524 1_566
O4 Sn0 2.063650 1_556
O5 Sn3 2.091645 1_565
O5 Sn2 2.091645 1_565
O6 Sn3 2.091645 1_555
O6 Sn2 2.091645 1_556
O7 Sn2 2.055524 1_555
O7 Sn0 2.063650 1_655
O8 Sn3 2.055524 1_555
O8 Sn1 2.063650 1_655
O9 Sn0 2.055524 1_655
O9 Sn2 2.063650 1_565
O10 Sn1 2.055524 1_655
O10 Sn3 2.063650 1_565
O11 Sn1 2.091645 1_655
O11 Sn0 2.091645 1_656
