# generated using pymatgen
data_RbZnH2Se2BrO6
_symmetry_space_group_name_H-M   'P 1'
_cell_length_a   6.23994600
_cell_length_b   6.56593000
_cell_length_c   10.95020061
_cell_angle_alpha   77.16217136
_cell_angle_beta   90.00000000
_cell_angle_gamma   90.00000000
_symmetry_Int_Tables_number   1
_chemical_formula_structural   RbZnH2Se2BrO6
_chemical_formula_sum   'Rb2 Zn2 H4 Se4 Br2 O12'
_cell_volume   437.42645847
_cell_formula_units_Z   2
loop_
 _symmetry_equiv_pos_site_id
 _symmetry_equiv_pos_as_xyz
  1  'x, y, z'
loop_
 _atom_site_type_symbol
 _atom_site_label
 _atom_site_symmetry_multiplicity
 _atom_site_fract_x
 _atom_site_fract_y
 _atom_site_fract_z
 _atom_site_occupancy
  Rb  Rb0  1  0.83741800  0.50000000  0.25000000  1
  Rb  Rb1  1  0.16258200  0.50000000  0.75000000  1
  Zn  Zn0  1  0.45043400  0.00000000  0.25000000  1
  Zn  Zn1  1  0.54956600  0.00000000  0.75000000  1
  H  H0  1  0.34341200  0.42813900  0.09138000  1
  H  H1  1  0.34341200  0.57186100  0.40862000  1
  H  H2  1  0.65658800  0.42813900  0.59138000  1
  H  H3  1  0.65658800  0.57186100  0.90862000  1
  Se  Se0  1  0.31542100  0.79369000  0.01339400  1
  Se  Se1  1  0.31542100  0.20631000  0.48660600  1
  Se  Se2  1  0.68457900  0.79369000  0.51339400  1
  Se  Se3  1  0.68457900  0.20631000  0.98660600  1
  Br  Br0  1  0.05434600  0.00000000  0.25000000  1
  Br  Br1  1  0.94565400  0.00000000  0.75000000  1
  O  O0  1  0.21892400  0.53218700  0.07831900  1
  O  O1  1  0.52099400  0.81612900  0.11439100  1
  O  O2  1  0.54771700  0.25790700  0.11566900  1
  O  O3  1  0.54771700  0.74209300  0.38433100  1
  O  O4  1  0.52099400  0.18387100  0.38560900  1
  O  O5  1  0.21892400  0.46781300  0.42168100  1
  O  O6  1  0.78107600  0.53218700  0.57831900  1
  O  O7  1  0.47900600  0.81612900  0.61439100  1
  O  O8  1  0.45228300  0.25790700  0.61566900  1
  O  O9  1  0.45228300  0.74209300  0.88433100  1
  O  O10  1  0.47900600  0.18387100  0.88560900  1
  O  O11  1  0.78107600  0.46781300  0.92168100  1
loop_
_geom_bond_atom_site_label_1
_geom_bond_atom_site_label_2
_geom_bond_distance
_geom_bond_site_symmetry_2
H0 O0 1.023316 1_555
H0 O2 1.677261 1_555
H1 O5 1.023316 1_555
H1 O3 1.677261 1_555
H2 O6 1.023316 1_555
H2 O8 1.677261 1_555
H3 O11 1.023316 1_555
H3 O9 1.677261 1_555
Br0 Zn0 2.471568 1_555
Br0 Rb0 3.551076 1_455
Br0 Rb0 3.551076 1_445
Br1 Zn1 2.471568 1_555
Br1 Rb1 3.551076 1_645
Br1 Rb1 3.551076 1_655
O0 Se0 1.809329 1_555
O0 Rb0 3.011550 1_455
O1 Se0 1.721249 1_555
O1 Zn0 2.157110 1_565
O1 Rb0 3.007046 1_555
O2 Se3 1.747626 1_554
O2 Zn0 2.071926 1_555
O2 Rb0 2.999552 1_555
O3 Se2 1.747626 1_555
O3 Zn0 2.071926 1_565
O3 Rb0 2.999552 1_555
O4 Se1 1.721249 1_555
O4 Zn0 2.157110 1_555
O4 Rb0 3.007046 1_555
O5 Se1 1.809329 1_555
O5 Rb0 3.011550 1_455
O6 Se2 1.809329 1_555
O6 Rb1 3.011550 1_655
O7 Se2 1.721249 1_555
O7 Zn1 2.157110 1_565
O7 Rb1 3.007046 1_555
O8 Se1 1.747626 1_555
O8 Zn1 2.071926 1_555
O8 Rb1 2.999552 1_555
O9 Se0 1.747626 1_556
O9 Zn1 2.071926 1_565
O9 Rb1 2.999552 1_555
O10 Se3 1.721249 1_555
O10 Zn1 2.157110 1_555
O10 Rb1 3.007046 1_555
O11 Se3 1.809329 1_555
O11 Rb1 3.011550 1_655
