# generated using pymatgen
data_Rb3CO3F
_symmetry_space_group_name_H-M   'P 1'
_cell_length_a   7.39180079
_cell_length_b   7.39180079
_cell_length_c   7.39180078
_cell_angle_alpha   65.41879073
_cell_angle_beta   65.41879073
_cell_angle_gamma   65.41879491
_symmetry_Int_Tables_number   1
_chemical_formula_structural   Rb3CO3F
_chemical_formula_sum   'Rb6 C2 O6 F2'
_cell_volume   319.25314210
_cell_formula_units_Z   2
loop_
 _symmetry_equiv_pos_site_id
 _symmetry_equiv_pos_as_xyz
  1  'x, y, z'
loop_
 _atom_site_type_symbol
 _atom_site_label
 _atom_site_symmetry_multiplicity
 _atom_site_fract_x
 _atom_site_fract_y
 _atom_site_fract_z
 _atom_site_occupancy
  Rb  Rb0  1  0.32922900  0.75000000  0.17077100  1
  Rb  Rb1  1  0.17077100  0.32922900  0.75000000  1
  Rb  Rb2  1  0.75000000  0.17077100  0.32922900  1
  Rb  Rb3  1  0.67077100  0.25000000  0.82922900  1
  Rb  Rb4  1  0.82922900  0.67077100  0.25000000  1
  Rb  Rb5  1  0.25000000  0.82922900  0.67077100  1
  C  C0  1  0.25000000  0.25000000  0.25000000  1
  C  C1  1  0.75000000  0.75000000  0.75000000  1
  O  O0  1  0.91402000  0.75000000  0.58598000  1
  O  O1  1  0.58598000  0.91402000  0.75000000  1
  O  O2  1  0.75000000  0.58598000  0.91402000  1
  O  O3  1  0.08598000  0.25000000  0.41402000  1
  O  O4  1  0.25000000  0.41402000  0.08598000  1
  O  O5  1  0.41402000  0.08598000  0.25000000  1
  F  F0  1  0.00000000  0.00000000  0.00000000  1
  F  F1  1  0.50000000  0.50000000  0.50000000  1
loop_
_geom_bond_atom_site_label_1
_geom_bond_atom_site_label_2
_geom_bond_distance
_geom_bond_site_symmetry_2
C0 O4 1.310313 1_555
C0 O3 1.310313 1_555
C0 O5 1.310313 1_555
C1 O2 1.310313 1_555
C1 O0 1.310313 1_555
C1 O1 1.310313 1_555
O0 Rb2 2.934553 1_565
O0 Rb1 2.934553 1_655
O0 Rb5 3.116728 1_655
O0 Rb4 3.116728 1_555
O0 Rb0 3.316996 1_655
O1 Rb2 2.934553 1_565
O1 Rb0 2.934553 1_556
O1 Rb3 3.116728 1_565
O1 Rb5 3.116728 1_555
O1 Rb1 3.316996 1_565
O2 Rb0 2.934553 1_556
O2 Rb1 2.934553 1_655
O2 Rb3 3.116728 1_555
O2 Rb4 3.116728 1_556
O2 Rb2 3.316996 1_556
O3 Rb5 2.934553 1_545
O3 Rb4 2.934553 1_455
O3 Rb2 3.116728 1_455
O3 Rb1 3.116728 1_555
O3 Rb3 3.316996 1_455
O4 Rb3 2.934553 1_554
O4 Rb4 2.934553 1_455
O4 Rb0 3.116728 1_555
O4 Rb1 3.116728 1_554
O4 Rb5 3.316996 1_554
O5 Rb5 2.934553 1_545
O5 Rb3 2.934553 1_554
O5 Rb2 3.116728 1_555
O5 Rb0 3.116728 1_545
O5 Rb4 3.316996 1_545
F0 Rb1 2.793614 1_554
F0 Rb4 2.793614 1_445
F0 Rb5 2.793614 1_544
F0 Rb2 2.793614 1_455
F0 Rb0 2.793614 1_545
F0 Rb3 2.793614 1_454
F1 Rb1 2.793614 1_555
F1 Rb4 2.793614 1_555
F1 Rb3 2.793614 1_555
F1 Rb0 2.793614 1_555
F1 Rb5 2.793614 1_555
F1 Rb2 2.793614 1_555
