# generated using pymatgen
data_Li6MnV3(PO4)6
_symmetry_space_group_name_H-M   'P 1'
_cell_length_a   8.57249700
_cell_length_b   8.76967324
_cell_length_c   12.06310878
_cell_angle_alpha   90.27907777
_cell_angle_beta   91.09426213
_cell_angle_gamma   90.13747593
_symmetry_Int_Tables_number   1
_chemical_formula_structural   Li6MnV3(PO4)6
_chemical_formula_sum   'Li12 Mn2 V6 P12 O48'
_cell_volume   906.70140157
_cell_formula_units_Z   2
loop_
 _symmetry_equiv_pos_site_id
 _symmetry_equiv_pos_as_xyz
  1  'x, y, z'
loop_
 _atom_site_type_symbol
 _atom_site_label
 _atom_site_symmetry_multiplicity
 _atom_site_fract_x
 _atom_site_fract_y
 _atom_site_fract_z
 _atom_site_occupancy
  Li  Li0  1  0.06511300  0.48655500  0.34679000  1
  Li  Li1  1  0.07993500  0.91351400  0.69046700  1
  Li  Li2  1  0.17998500  0.21935400  0.17757400  1
  Li  Li3  1  0.31963900  0.72110800  0.32171900  1
  Li  Li4  1  0.41999900  0.41283500  0.80998700  1
  Li  Li5  1  0.43411000  0.98840100  0.15373700  1
  Li  Li6  1  0.56539200  0.01406000  0.84675100  1
  Li  Li7  1  0.58003500  0.58612200  0.19091200  1
  Li  Li8  1  0.68040600  0.27876700  0.67851600  1
  Li  Li9  1  0.82068500  0.77994400  0.82272300  1
  Li  Li10  1  0.92048300  0.08553700  0.30935500  1
  Li  Li11  1  0.93515500  0.51336000  0.65288200  1
  Mn  Mn0  1  0.75398400  0.46348500  0.89098200  1
  Mn  Mn1  1  0.75222100  0.02850100  0.10634700  1
  V  V0  1  0.24349700  0.97295700  0.89579300  1
  V  V1  1  0.24438600  0.53511000  0.10800700  1
  V  V2  1  0.25472100  0.47128100  0.60554000  1
  V  V3  1  0.25505100  0.03412100  0.39116600  1
  V  V4  1  0.74514600  0.96583900  0.60923100  1
  V  V5  1  0.74479200  0.52779900  0.39511900  1
  P  P0  1  0.03986300  0.75100900  0.49067000  1
  P  P1  1  0.11440300  0.61815500  0.84634800  1
  P  P2  1  0.11435300  0.88866500  0.14670700  1
  P  P3  1  0.38669200  0.11720500  0.65249500  1
  P  P4  1  0.38558700  0.38963600  0.35304900  1
  P  P5  1  0.45705300  0.25149100  0.00981900  1
  P  P6  1  0.54271400  0.75031600  0.98979400  1
  P  P7  1  0.61605600  0.61035300  0.64866000  1
  P  P8  1  0.61330400  0.88239500  0.34896900  1
  P  P9  1  0.88491100  0.11086100  0.85282900  1
  P  P10  1  0.88373700  0.38124300  0.14954100  1
  P  P11  1  0.95988800  0.24897500  0.50936200  1
  O  O0  1  0.05223400  0.10988100  0.89787300  1
  O  O1  1  0.05085700  0.12794300  0.44500900  1
  O  O2  1  0.05542300  0.33452600  0.60016400  1
  O  O3  1  0.05599300  0.42000100  0.18738300  1
  O  O4  1  0.09827000  0.63976200  0.58191800  1
  O  O5  1  0.12688500  0.79485000  0.83038500  1
  O  O6  1  0.13949400  0.57901200  0.96890200  1
  O  O7  1  0.12738900  0.00608400  0.24629500  1
  O  O8  1  0.17354400  0.73037400  0.18740400  1
  O  O9  1  0.18470700  0.82243400  0.43385000  1
  O  O10  1  0.23134500  0.52879200  0.77465300  1
  O  O11  1  0.23664700  0.95034800  0.06294700  1
  O  O12  1  0.26542600  0.44982100  0.43913300  1
  O  O13  1  0.27024800  0.02848500  0.72378400  1
  O  O14  1  0.31134000  0.32313300  0.06617300  1
  O  O15  1  0.32725700  0.23097000  0.31274400  1
  O  O16  1  0.36195700  0.07913800  0.52967100  1
  O  O17  1  0.37144100  0.50657100  0.25453600  1
  O  O18  1  0.37831700  0.29407700  0.66977800  1
  O  O19  1  0.39980600  0.13876600  0.91780800  1
  O  O20  1  0.44599600  0.83507700  0.90061300  1
  O  O21  1  0.44136300  0.92071900  0.31086400  1
  O  O22  1  0.44852200  0.60801600  0.60503700  1
  O  O23  1  0.45109400  0.63187500  0.05624700  1
  O  O24  1  0.54602200  0.37278800  0.94592400  1
  O  O25  1  0.55310300  0.39012600  0.39728600  1
  O  O26  1  0.55892700  0.07824900  0.68945600  1
  O  O27  1  0.55130500  0.16888200  0.10183200  1
  O  O28  1  0.60187500  0.86351600  0.08361000  1
  O  O29  1  0.62329200  0.70542000  0.33057400  1
  O  O30  1  0.63011900  0.49250500  0.74815400  1
  O  O31  1  0.63644800  0.91980800  0.47167200  1
  O  O32  1  0.67271600  0.76932600  0.68853000  1
  O  O33  1  0.68746100  0.67856700  0.93471400  1
  O  O34  1  0.73016600  0.97199900  0.27910600  1
  O  O35  1  0.73557800  0.54939500  0.56271300  1
  O  O36  1  0.76250100  0.04980700  0.93515200  1
  O  O37  1  0.76893200  0.46933100  0.22324100  1
  O  O38  1  0.81498600  0.17775700  0.56570300  1
  O  O39  1  0.82952200  0.27032200  0.81157200  1
  O  O40  1  0.87405000  0.99456200  0.75245600  1
  O  O41  1  0.86167600  0.41944500  0.02689300  1
  O  O42  1  0.87576000  0.20289000  0.16618100  1
  O  O43  1  0.90155400  0.36044100  0.41745000  1
  O  O44  1  0.94360000  0.58183200  0.80782200  1
  O  O45  1  0.94438100  0.66498900  0.39946700  1
  O  O46  1  0.94881900  0.87221400  0.55439200  1
  O  O47  1  0.94835500  0.88622000  0.10109200  1
loop_
_geom_bond_atom_site_label_1
_geom_bond_atom_site_label_2
_geom_bond_distance
_geom_bond_site_symmetry_2
Li0 O45 1.986654 1_455
Li0 O43 1.990738 1_455
Li0 O3 2.006885 1_555
Li0 O12 2.055834 1_555
Li1 O13 1.950098 1_565
Li1 O46 2.002699 1_455
Li1 O5 2.021615 1_555
Li1 O40 2.056856 1_455
Li2 O14 1.991725 1_555
Li2 O15 2.045031 1_555
Li2 O3 2.061983 1_555
Li2 O7 2.100929 1_555
Li3 O9 2.002550 1_555
Li3 O8 2.030912 1_555
Li3 O21 2.041816 1_555
Li3 O17 2.096818 1_555
Li4 O10 1.953718 1_555
Li4 O24 1.979708 1_555
Li4 O18 2.007733 1_555
Li4 O30 2.083119 1_555
Li5 O27 1.983066 1_565
Li5 O21 1.988843 1_555
Li5 O28 2.007091 1_555
Li5 O11 2.024641 1_555
Li6 O26 1.981632 1_555
Li6 O20 1.990252 1_545
Li6 O19 1.997622 1_555
Li6 O36 2.003992 1_555
Li7 O37 1.952188 1_555
Li7 O23 1.990379 1_555
Li7 O29 2.006880 1_555
Li7 O17 2.079655 1_555
Li8 O38 2.005190 1_555
Li8 O39 2.034458 1_555
Li8 O26 2.047645 1_555
Li8 O30 2.099360 1_555
Li9 O33 1.996385 1_555
Li9 O32 2.039037 1_555
Li9 O44 2.043044 1_555
Li9 O40 2.120472 1_555
Li10 O34 1.937071 1_545
Li10 O1 1.996861 1_655
Li10 O42 2.045239 1_555
Li10 O7 2.064577 1_655
Li11 O44 1.960327 1_555
Li11 O2 1.987480 1_655
Li11 O4 1.991073 1_655
Li11 O35 2.035915 1_555
Mn0 O41 1.907748 1_556
Mn0 O30 2.023982 1_555
Mn0 O33 2.041620 1_555
Mn0 O39 2.054180 1_555
Mn0 O24 2.072093 1_555
Mn0 O44 2.188614 1_555
Mn1 O28 1.950241 1_545
Mn1 O42 1.983350 1_555
Mn1 O36 2.078011 1_554
Mn1 O47 2.097916 1_545
Mn1 O27 2.119506 1_555
Mn1 O34 2.156161 1_545
O0 P9 1.524170 1_455
O0 V0 2.035072 1_545
O1 P11 1.535069 1_455
O1 V3 2.051356 1_555
O2 P11 1.545375 1_455
O2 V2 2.084851 1_555
O3 P10 1.573145 1_455
O3 V1 2.145868 1_555
O4 P0 1.551084 1_555
O4 V2 2.015450 1_555
O5 P1 1.566064 1_555
O5 V0 2.002974 1_555
O6 P1 1.530643 1_555
O6 V1 1.929483 1_556
O7 P2 1.580605 1_545
O7 V3 2.057593 1_555
O8 P2 1.557555 1_555
O8 V1 2.056620 1_555
O9 P0 1.561046 1_555
O9 V3 2.022592 1_565
O10 P1 1.548357 1_555
O10 V2 2.112421 1_555
O11 P2 1.567057 1_555
O11 V0 2.029034 1_554
O12 P4 1.567203 1_555
O12 V2 2.019127 1_555
O13 P3 1.541723 1_555
O13 V0 2.150041 1_545
O14 P5 1.564997 1_555
O14 V1 2.011694 1_555
O15 P4 1.550272 1_555
O15 V3 2.071557 1_555
O16 P3 1.527909 1_555
O16 V3 1.928903 1_555
O17 P4 1.576551 1_555
O17 V1 2.074952 1_555
O18 P3 1.566052 1_555
O18 V2 2.031339 1_555
O19 P5 1.554423 1_556
O19 V0 1.988389 1_545
O20 P6 1.540776 1_555
O20 V0 2.117967 1_555
O21 P8 1.573156 1_555
O21 V3 2.129704 1_565
O22 P7 1.520148 1_555
O22 V2 2.046689 1_555
O23 P6 1.538376 1_554
O23 V1 2.071274 1_555
O24 P5 1.527698 1_556
O25 P4 1.522382 1_555
O25 V5 2.037420 1_555
O26 P3 1.572982 1_555
O26 V4 2.124618 1_545
O27 P5 1.544689 1_555
O28 P6 1.577405 1_554
O29 P8 1.569498 1_555
O29 V5 2.026344 1_555
O30 P7 1.590687 1_555
O31 P8 1.523707 1_555
O31 V4 1.928060 1_555
O32 P7 1.546663 1_555
O32 V4 2.074646 1_555
O33 P6 1.551851 1_555
O34 P8 1.538263 1_555
O35 P7 1.564711 1_555
O35 V5 2.032692 1_555
O36 P9 1.554448 1_555
O37 P10 1.544711 1_555
O37 V5 2.147368 1_555
O38 P11 1.558090 1_555
O38 V4 2.025876 1_545
O39 P9 1.558740 1_555
O40 P9 1.580552 1_565
O40 V4 2.047223 1_555
O41 P10 1.526898 1_555
O42 P10 1.579379 1_555
O43 P11 1.557773 1_555
O43 V5 2.007993 1_555
O44 P1 1.559387 1_655
O45 P0 1.550491 1_655
O45 V5 2.088958 1_555
O46 P0 1.532570 1_655
O46 V4 2.050837 1_555
O47 P2 1.515933 1_655
