# generated using pymatgen
data_MgTaOs2
_symmetry_space_group_name_H-M   'P 1'
_cell_length_a   4.42848184
_cell_length_b   4.42848184
_cell_length_c   4.42848184
_cell_angle_alpha   60.00000000
_cell_angle_beta   60.00000000
_cell_angle_gamma   60.00000000
_symmetry_Int_Tables_number   1
_chemical_formula_structural   MgTaOs2
_chemical_formula_sum   'Mg1 Ta1 Os2'
_cell_volume   61.41148605
_cell_formula_units_Z   1
loop_
 _symmetry_equiv_pos_site_id
 _symmetry_equiv_pos_as_xyz
  1  'x, y, z'
loop_
 _atom_site_type_symbol
 _atom_site_label
 _atom_site_symmetry_multiplicity
 _atom_site_fract_x
 _atom_site_fract_y
 _atom_site_fract_z
 _atom_site_occupancy
  Mg  Mg0  1  0.24999900  0.24999900  0.24999900  1
  Ta  Ta0  1  0.75000000  0.75000000  0.75000000  1
  Os  Os0  1  -0.00000000  -0.00000000  0.00000000  1
  Os  Os1  1  0.50000000  0.50000000  0.50000000  1
loop_
_geom_bond_atom_site_label_1
_geom_bond_atom_site_label_2
_geom_bond_distance
_geom_bond_site_symmetry_2
Mg0 Os0 2.711869 1_555
Mg0 Os1 2.711877 1_545
Mg0 Os1 2.711877 1_455
Mg0 Os1 2.711877 1_554
Mg0 Os0 2.711884 1_556
Mg0 Os0 2.711884 1_565
Mg0 Os0 2.711884 1_655
Mg0 Os1 2.711891 1_555
Os0 Ta0 2.711880 1_444
Os0 Ta0 2.711880 1_445
Os0 Ta0 2.711880 1_544
Os0 Ta0 2.711880 1_454
Os1 Ta0 2.711880 1_455
Os1 Ta0 2.711880 1_554
Os1 Ta0 2.711880 1_555
Os1 Ta0 2.711880 1_545
