# generated using pymatgen
data_Ti5Fe11O24
_symmetry_space_group_name_H-M   'P 1'
_cell_length_a   5.16601000
_cell_length_b   5.59102518
_cell_length_c   15.06563818
_cell_angle_alpha   84.34933135
_cell_angle_beta   89.81013104
_cell_angle_gamma   89.91484064
_symmetry_Int_Tables_number   1
_chemical_formula_structural   Ti5Fe11O24
_chemical_formula_sum   'Ti5 Fe11 O24'
_cell_volume   433.02805956
_cell_formula_units_Z   1
loop_
 _symmetry_equiv_pos_site_id
 _symmetry_equiv_pos_as_xyz
  1  'x, y, z'
loop_
 _atom_site_type_symbol
 _atom_site_label
 _atom_site_symmetry_multiplicity
 _atom_site_fract_x
 _atom_site_fract_y
 _atom_site_fract_z
 _atom_site_occupancy
  Ti  Ti0  1  0.49829100  0.79133000  0.82133100  1
  Ti  Ti1  1  0.50688000  0.20731800  0.67455700  1
  Ti  Ti2  1  0.99770700  0.70576300  0.42941200  1
  Ti  Ti3  1  0.50373300  0.79429900  0.32092700  1
  Ti  Ti4  1  0.99844100  0.29264500  0.07473500  1
  Fe  Fe0  1  0.00102000  0.70665300  0.92601700  1
  Fe  Fe1  1  0.00431400  0.29020800  0.82246500  1
  Fe  Fe2  1  0.49875700  0.20582500  0.92531600  1
  Fe  Fe3  1  0.99591200  0.70944100  0.67582900  1
  Fe  Fe4  1  0.99930900  0.29283100  0.57505400  1
  Fe  Fe5  1  0.49943800  0.21493900  0.42667300  1
  Fe  Fe6  1  0.50302900  0.79217100  0.57379600  1
  Fe  Fe7  1  0.00413300  0.28473100  0.32269700  1
  Fe  Fe8  1  0.99464300  0.70866800  0.17666100  1
  Fe  Fe9  1  0.49806900  0.21108400  0.17697300  1
  Fe  Fe10  1  0.50129100  0.78841900  0.07300700  1
  O  O0  1  0.32074300  0.51041100  0.87484600  1
  O  O1  1  0.84903100  0.34324200  0.95749200  1
  O  O2  1  0.63254200  0.14824900  0.79756600  1
  O  O3  1  0.20696900  0.98831600  0.87820300  1
  O  O4  1  0.17716100  0.34272600  0.69741000  1
  O  O5  1  0.65513500  0.85382900  0.95211500  1
  O  O6  1  0.34727700  0.16255300  0.54725100  1
  O  O7  1  0.82931900  0.66026400  0.80444600  1
  O  O8  1  0.80285300  0.01518100  0.62551400  1
  O  O9  1  0.36385900  0.84757000  0.70755000  1
  O  O10  1  0.13298300  0.65489200  0.54201700  1
  O  O11  1  0.68819200  0.47773300  0.63050900  1
  O  O12  1  0.31578900  0.51455900  0.37443000  1
  O  O13  1  0.84756200  0.35376200  0.45051900  1
  O  O14  1  0.62721900  0.14428500  0.30063200  1
  O  O15  1  0.20138600  0.97294700  0.38065300  1
  O  O16  1  0.67201300  0.85060400  0.44700500  1
  O  O17  1  0.15068600  0.33498500  0.19638700  1
  O  O18  1  0.82918100  0.66222700  0.30139700  1
  O  O19  1  0.32821900  0.15244300  0.04771500  1
  O  O20  1  0.80011500  0.02432000  0.11876700  1
  O  O21  1  0.37178500  0.84436200  0.20304800  1
  O  O22  1  0.15585500  0.64778900  0.04781400  1
  O  O23  1  0.68915300  0.49642500  0.12126000  1
loop_
_geom_bond_atom_site_label_1
_geom_bond_atom_site_label_2
_geom_bond_distance
_geom_bond_site_symmetry_2
Fe0 O3 1.976693 1_555
Fe0 O22 2.001295 1_556
Fe0 O5 2.019703 1_455
Fe0 O7 2.076923 1_455
Fe0 O0 2.163097 1_555
Fe0 O1 2.186841 1_455
Fe1 O4 2.076972 1_555
Fe1 O3 2.090836 1_545
Fe1 O2 2.127728 1_455
Fe1 O1 2.230906 1_455
Fe1 O0 2.239764 1_555
Fe1 O7 2.248810 1_455
Fe2 O0 2.017146 1_555
Fe2 O19 2.036487 1_556
Fe2 O1 2.045219 1_555
Fe2 O2 2.097151 1_555
Fe2 O3 2.106516 1_545
Fe2 O5 2.128307 1_545
Fe3 O8 2.058184 1_565
Fe3 O7 2.110846 1_555
Fe3 O9 2.126259 1_655
Fe3 O10 2.183923 1_655
Fe3 O11 2.204328 1_555
Fe3 O4 2.247499 1_655
Fe4 O8 1.945480 1_555
Fe4 O6 1.997145 1_655
Fe4 O13 2.033176 1_555
Fe4 O4 2.105530 1_655
Fe4 O11 2.122775 1_555
Fe4 O10 2.150774 1_655
Fe5 O6 1.972335 1_555
Fe5 O13 2.007267 1_555
Fe5 O12 2.016531 1_555
Fe5 O14 2.082358 1_555
Fe5 O15 2.209084 1_545
Fe5 O16 2.216207 1_545
Fe6 O16 2.093928 1_555
Fe6 O11 2.107205 1_555
Fe6 O10 2.134377 1_555
Fe6 O8 2.183087 1_565
Fe6 O9 2.187707 1_555
Fe6 O6 2.220295 1_565
Fe7 O17 2.039390 1_555
Fe7 O15 2.130814 1_545
Fe7 O14 2.139790 1_455
Fe7 O13 2.155621 1_455
Fe7 O12 2.249990 1_555
Fe7 O18 2.288515 1_455
Fe8 O18 2.055112 1_555
Fe8 O20 2.140709 1_565
Fe8 O21 2.144407 1_655
Fe8 O22 2.167053 1_655
Fe8 O23 2.191972 1_555
Fe8 O17 2.231034 1_655
Fe9 O17 1.954145 1_555
Fe9 O14 1.981384 1_555
Fe9 O23 1.989873 1_555
Fe9 O20 2.111990 1_555
Fe9 O21 2.151170 1_545
Fe9 O19 2.192603 1_555
Fe10 O23 1.975297 1_555
Fe10 O5 1.985618 1_554
Fe10 O22 2.003555 1_555
Fe10 O21 2.120157 1_555
Fe10 O20 2.188632 1_565
Fe10 O19 2.220593 1_565
O0 Ti0 1.925664 1_555
O1 Ti4 1.925027 1_556
O2 Ti1 1.962572 1_555
O2 Ti0 2.110249 1_545
O3 Ti0 2.093898 1_555
O4 Ti1 1.906998 1_555
O5 Ti0 2.192689 1_555
O6 Ti1 2.127581 1_555
O7 Ti0 1.885794 1_555
O8 Ti1 2.044918 1_555
O9 Ti0 1.849511 1_555
O9 Ti1 2.154910 1_565
O10 Ti2 1.832898 1_455
O11 Ti1 1.845550 1_555
O12 Ti3 1.946709 1_555
O12 Ti2 2.165469 1_455
O13 Ti2 2.110834 1_555
O14 Ti3 2.052810 1_545
O15 Ti2 1.913569 1_455
O15 Ti3 2.099992 1_555
O16 Ti2 1.895321 1_555
O16 Ti3 2.142953 1_555
O17 Ti4 2.032041 1_455
O18 Ti3 1.869307 1_555
O18 Ti2 2.154302 1_555
O19 Ti4 1.933084 1_455
O20 Ti4 1.882682 1_555
O21 Ti3 1.899066 1_555
O22 Ti4 2.147673 1_455
O23 Ti4 2.118193 1_555
