# generated using pymatgen
data_LiHoAu2
_symmetry_space_group_name_H-M   'P 1'
_cell_length_a   4.79863465
_cell_length_b   4.79863465
_cell_length_c   4.79863465
_cell_angle_alpha   60.00000000
_cell_angle_beta   60.00000000
_cell_angle_gamma   60.00000000
_symmetry_Int_Tables_number   1
_chemical_formula_structural   LiHoAu2
_chemical_formula_sum   'Li1 Ho1 Au2'
_cell_volume   78.13364024
_cell_formula_units_Z   1
loop_
 _symmetry_equiv_pos_site_id
 _symmetry_equiv_pos_as_xyz
  1  'x, y, z'
loop_
 _atom_site_type_symbol
 _atom_site_label
 _atom_site_symmetry_multiplicity
 _atom_site_fract_x
 _atom_site_fract_y
 _atom_site_fract_z
 _atom_site_occupancy
  Li  Li0  1  0.74999900  0.74999900  0.74999900  1
  Ho  Ho0  1  0.25000000  0.25000000  0.25000000  1
  Au  Au0  1  0.00000000  0.00000000  0.00000000  1
  Au  Au1  1  0.50000000  0.50000000  0.50000000  1
loop_
_geom_bond_atom_site_label_1
_geom_bond_atom_site_label_2
_geom_bond_distance
_geom_bond_site_symmetry_2
Au0 Li0 2.938548 1_544
Au0 Li0 2.938548 1_445
Au0 Li0 2.938548 1_454
Au0 Ho0 2.938552 1_555
Au0 Ho0 2.938552 1_455
Au0 Ho0 2.938552 1_545
Au0 Ho0 2.938552 1_554
Au0 Li0 2.938563 1_444
Au1 Li0 2.938540 1_555
Au1 Ho0 2.938552 1_565
Au1 Ho0 2.938552 1_655
Au1 Ho0 2.938552 1_555
Au1 Ho0 2.938552 1_556
Au1 Li0 2.938556 1_554
Au1 Li0 2.938556 1_545
Au1 Li0 2.938556 1_455
