# generated using pymatgen
data_LiMnPO4
_symmetry_space_group_name_H-M   'P 1'
_cell_length_a   5.06954000
_cell_length_b   9.39589000
_cell_length_c   6.42300500
_cell_angle_alpha   90.00017458
_cell_angle_beta   90.00000000
_cell_angle_gamma   90.00016449
_symmetry_Int_Tables_number   1
_chemical_formula_structural   LiMnPO4
_chemical_formula_sum   'Li4 Mn4 P4 O16'
_cell_volume   305.94597071
_cell_formula_units_Z   4
loop_
 _symmetry_equiv_pos_site_id
 _symmetry_equiv_pos_as_xyz
  1  'x, y, z'
loop_
 _atom_site_type_symbol
 _atom_site_label
 _atom_site_symmetry_multiplicity
 _atom_site_fract_x
 _atom_site_fract_y
 _atom_site_fract_z
 _atom_site_occupancy
  Li  Li0  1  0.00002700  0.00000700  0.00000100  1
  Li  Li1  1  0.00002800  0.00000700  0.50000100  1
  Li  Li2  1  0.50002400  0.49999400  0.00000100  1
  Li  Li3  1  0.50002500  0.49999400  0.50000200  1
  Mn  Mn0  1  0.02645800  0.64749500  0.74998900  1
  Mn  Mn1  1  0.52653700  0.85248800  0.25000800  1
  Mn  Mn2  1  0.47324000  0.14744900  0.75002900  1
  Mn  Mn3  1  0.97325500  0.35254300  0.24996800  1
  P  P0  1  0.46111700  0.18031700  0.25000400  1
  P  P1  1  0.96111700  0.31968600  0.74999700  1
  P  P2  1  0.03893400  0.68028900  0.25000000  1
  P  P3  1  0.53892600  0.81971300  0.75000000  1
  O  O0  1  0.76260500  0.15074600  0.24999900  1
  O  O1  1  0.26260800  0.34925500  0.75000300  1
  O  O2  1  0.73745000  0.65072400  0.25000300  1
  O  O3  1  0.23744900  0.84928200  0.74999900  1
  O  O4  1  0.89947000  0.15603700  0.75000100  1
  O  O5  1  0.39947300  0.34396500  0.24999900  1
  O  O6  1  0.60052600  0.65605700  0.74999700  1
  O  O7  1  0.10053100  0.84394600  0.25000200  1
  O  O8  1  0.33076400  0.11170200  0.05526400  1
  O  O9  1  0.33076300  0.11170400  0.44474200  1
  O  O10  1  0.83076200  0.38829900  0.94473700  1
  O  O11  1  0.83076600  0.38829800  0.55525700  1
  O  O12  1  0.16928200  0.61167900  0.05525700  1
  O  O13  1  0.16928700  0.61168000  0.44474100  1
  O  O14  1  0.66928900  0.88832200  0.55526400  1
  O  O15  1  0.66928800  0.88832300  0.94473600  1
loop_
_geom_bond_atom_site_label_1
_geom_bond_atom_site_label_2
_geom_bond_distance
_geom_bond_site_symmetry_2
Li0 O15 2.009595 1_444
Li0 O8 2.009638 1_555
Li0 O4 2.233295 1_454
Li0 O7 2.233429 1_545
Li0 O3 2.456173 1_544
Li0 O0 2.456232 1_455
Li1 O14 2.009599 1_445
Li1 O9 2.009636 1_555
Li1 O4 2.233289 1_455
Li1 O7 2.233412 1_545
Li1 O3 2.456159 1_545
Li1 O0 2.456257 1_455
Li2 O12 2.009608 1_555
Li2 O10 2.009649 1_554
Li2 O5 2.233270 1_555
Li2 O6 2.233451 1_554
Li2 O2 2.456206 1_555
Li2 O1 2.456213 1_554
Li3 O13 2.009602 1_555
Li3 O11 2.009657 1_555
Li3 O5 2.233288 1_555
Li3 O6 2.233402 1_555
Li3 O2 2.456197 1_555
Li3 O1 2.456234 1_555
Mn0 O13 2.116959 1_555
Mn0 O12 2.117073 1_556
Mn0 O6 2.160778 1_455
Mn0 O3 2.176876 1_555
Mn1 O14 2.116901 1_555
Mn1 O15 2.116998 1_554
Mn1 O7 2.161145 1_555
Mn1 O2 2.176498 1_555
Mn2 O8 2.116170 1_556
Mn2 O9 2.116476 1_555
Mn2 O4 2.162296 1_555
Mn2 O1 2.176143 1_555
Mn3 O10 2.116190 1_554
Mn3 O11 2.116525 1_555
Mn3 O5 2.162232 1_655
Mn3 O0 2.176109 1_555
O0 P0 1.553456 1_555
O1 P1 1.553466 1_455
O2 P2 1.553424 1_655
O3 P3 1.553397 1_555
O4 P1 1.569066 1_555
O5 P0 1.569055 1_555
O6 P3 1.569084 1_555
O7 P2 1.569089 1_555
O8 P0 1.554627 1_555
O9 P0 1.554614 1_555
O10 P1 1.554625 1_555
O11 P1 1.554616 1_555
O12 P2 1.554614 1_555
O13 P2 1.554614 1_555
O14 P3 1.554608 1_555
O15 P3 1.554607 1_555
