# generated using pymatgen
data_FeBO3
_symmetry_space_group_name_H-M   'P 1'
_cell_length_a   4.98875798
_cell_length_b   8.65785400
_cell_length_c   5.45618250
_cell_angle_alpha   89.99964314
_cell_angle_beta   93.91656595
_cell_angle_gamma   90.00085421
_symmetry_Int_Tables_number   1
_chemical_formula_structural   FeBO3
_chemical_formula_sum   'Fe4 B4 O12'
_cell_volume   235.11272343
_cell_formula_units_Z   4
loop_
 _symmetry_equiv_pos_site_id
 _symmetry_equiv_pos_as_xyz
  1  'x, y, z'
loop_
 _atom_site_type_symbol
 _atom_site_label
 _atom_site_symmetry_multiplicity
 _atom_site_fract_x
 _atom_site_fract_y
 _atom_site_fract_z
 _atom_site_occupancy
  Fe  Fe0  1  0.49996700  0.50003300  0.49984800  1
  Fe  Fe1  1  0.00005900  0.00009400  0.00019800  1
  Fe  Fe2  1  0.00002700  0.00009500  0.50003600  1
  Fe  Fe3  1  0.50010600  0.50000100  0.00001500  1
  B  B0  1  0.99998300  0.33330600  0.75000100  1
  B  B1  1  0.49999200  0.83320800  0.75000000  1
  B  B2  1  0.99998900  0.66675100  0.24999700  1
  B  B3  1  0.50000400  0.16665300  0.25000000  1
  O  O0  1  0.99998700  0.17371400  0.75000200  1
  O  O1  1  0.49998700  0.67364500  0.75001900  1
  O  O2  1  0.99998600  0.82633500  0.24999500  1
  O  O3  1  0.49998900  0.32626000  0.25001000  1
  O  O4  1  0.23811300  0.41287600  0.73449600  1
  O  O5  1  0.73813500  0.91294200  0.73449000  1
  O  O6  1  0.26184700  0.91293800  0.76546300  1
  O  O7  1  0.76187100  0.41287800  0.76548600  1
  O  O8  1  0.23812200  0.58704000  0.23449200  1
  O  O9  1  0.73811200  0.08709700  0.23448100  1
  O  O10  1  0.26187400  0.08709500  0.26548200  1
  O  O11  1  0.76185300  0.58703900  0.26548900  1
loop_
_geom_bond_atom_site_label_1
_geom_bond_atom_site_label_2
_geom_bond_distance
_geom_bond_site_symmetry_2
Fe0 O8 2.027730 1_555
Fe0 O7 2.029413 1_555
Fe0 O3 2.030217 1_555
Fe0 O1 2.030395 1_555
Fe0 O11 2.034111 1_555
Fe0 O4 2.035547 1_555
Fe1 O10 2.027351 1_555
Fe1 O5 2.029711 1_444
Fe1 O2 2.029976 1_445
Fe1 O0 2.030514 1_454
Fe1 O9 2.034052 1_455
Fe1 O6 2.035658 1_544
Fe2 O6 2.028398 1_545
Fe2 O9 2.028650 1_455
Fe2 O0 2.029702 1_455
Fe2 O2 2.030863 1_445
Fe2 O10 2.034674 1_555
Fe2 O5 2.034952 1_445
Fe3 O11 2.027963 1_555
Fe3 O4 2.029138 1_554
Fe3 O1 2.029924 1_554
Fe3 O3 2.030596 1_555
Fe3 O7 2.034717 1_554
Fe3 O8 2.035005 1_555
B0 O7 1.380780 1_555
B0 O4 1.380844 1_655
B0 O0 1.381724 1_555
B1 O1 1.381473 1_555
B1 O6 1.381591 1_555
B1 O5 1.381613 1_555
B2 O11 1.381475 1_555
B2 O8 1.381485 1_655
B2 O2 1.381655 1_555
B3 O9 1.380716 1_555
B3 O10 1.380777 1_555
B3 O3 1.381854 1_555
