# generated using pymatgen
data_Li4Mn5Sn(PO4)6
_symmetry_space_group_name_H-M   'P 1'
_cell_length_a   8.65459700
_cell_length_b   8.71264967
_cell_length_c   8.71580600
_cell_angle_alpha   62.74117773
_cell_angle_beta   63.04628048
_cell_angle_gamma   62.96335069
_symmetry_Int_Tables_number   1
_chemical_formula_structural   Li4Mn5Sn(PO4)6
_chemical_formula_sum   'Li4 Mn5 Sn1 P6 O24'
_cell_volume   494.82460466
_cell_formula_units_Z   1
loop_
 _symmetry_equiv_pos_site_id
 _symmetry_equiv_pos_as_xyz
  1  'x, y, z'
loop_
 _atom_site_type_symbol
 _atom_site_label
 _atom_site_symmetry_multiplicity
 _atom_site_fract_x
 _atom_site_fract_y
 _atom_site_fract_z
 _atom_site_occupancy
  Li  Li0  1  0.25175500  0.64813900  0.84979800  1
  Li  Li1  1  0.70679100  0.35582900  0.14992700  1
  Li  Li2  1  0.35745000  0.14632900  0.71082000  1
  Li  Li3  1  0.14828000  0.70387900  0.35916400  1
  Mn  Mn0  1  0.98116100  0.00008800  0.99553000  1
  Mn  Mn1  1  0.65410100  0.65232100  0.64651100  1
  Mn  Mn2  1  0.51250600  0.50047900  0.49563900  1
  Mn  Mn3  1  0.84692300  0.84885500  0.84655600  1
  Mn  Mn4  1  0.34544700  0.34094800  0.34692800  1
  Sn  Sn0  1  0.14928800  0.14870500  0.15477700  1
  P  P0  1  0.94380900  0.55938500  0.25535700  1
  P  P1  1  0.55829600  0.25388600  0.94406700  1
  P  P2  1  0.25417700  0.94210500  0.56128900  1
  P  P3  1  0.75395400  0.05634400  0.44506400  1
  P  P4  1  0.43514200  0.75103700  0.05284500  1
  P  P5  1  0.06631300  0.44831100  0.75663000  1
  O  O0  1  0.53101400  0.31919800  0.09461200  1
  O  O1  1  0.32397600  0.08985600  0.53206400  1
  O  O2  1  0.09050900  0.52534400  0.33128200  1
  O  O3  1  0.94822500  0.73542200  0.08941800  1
  O  O4  1  0.99128600  0.39445600  0.19327100  1
  O  O5  1  0.75355000  0.57359200  0.39645600  1
  O  O6  1  0.74278300  0.10086600  0.92354400  1
  O  O7  1  0.54806100  0.41062300  0.76385000  1
  O  O8  1  0.82909200  0.01881100  0.58930700  1
  O  O9  1  0.39574300  0.74987400  0.57596000  1
  O  O10  1  0.90266900  0.09092400  0.24242000  1
  O  O11  1  0.59325700  0.81593000  0.99677200  1
  O  O12  1  0.39728600  0.18203400  0.99724700  1
  O  O13  1  0.10194100  0.92325600  0.74837700  1
  O  O14  1  0.60183900  0.24819000  0.42338200  1
  O  O15  1  0.19015900  0.98815500  0.39907500  1
  O  O16  1  0.42312700  0.59927500  0.24421100  1
  O  O17  1  0.23794800  0.90448600  0.09348200  1
  O  O18  1  0.25290300  0.41846900  0.60013600  1
  O  O19  1  0.05606700  0.58889100  0.82236400  1
  O  O20  1  0.08938800  0.24715700  0.90665900  1
  O  O21  1  0.89880700  0.49424700  0.71012900  1
  O  O22  1  0.69675000  0.90377800  0.47141100  1
  O  O23  1  0.43821900  0.69752500  0.90666800  1
loop_
_geom_bond_atom_site_label_1
_geom_bond_atom_site_label_2
_geom_bond_distance
_geom_bond_site_symmetry_2
Li0 O9 2.098822 1_555
Li0 O19 2.113504 1_555
Li0 O13 2.116778 1_555
Li0 O23 2.141696 1_555
Li0 O7 2.504752 1_555
Li0 O3 2.550681 1_456
Li1 O0 1.973781 1_555
Li1 O14 2.037022 1_555
Li1 O10 2.197308 1_555
Li1 O16 2.496995 1_555
Li2 O1 1.998591 1_555
Li2 O18 2.029011 1_555
Li2 O20 2.235696 1_555
Li2 O14 2.530566 1_555
Li3 O2 1.972848 1_555
Li3 O16 2.048821 1_555
Li3 O17 2.217178 1_555
Li3 O18 2.511468 1_555
Mn0 O6 2.107797 1_555
Mn0 O3 2.173903 1_546
Mn0 O13 2.196487 1_645
Mn0 O10 2.337590 1_556
Mn0 O17 2.397367 1_646
Mn0 O20 2.399807 1_655
Mn1 O21 2.098283 1_555
Mn1 O22 2.104029 1_555
Mn1 O5 2.256856 1_555
Mn1 O23 2.257409 1_555
Mn1 O9 2.267173 1_555
Mn1 O7 2.292597 1_555
Mn2 O5 2.138667 1_555
Mn2 O7 2.220130 1_555
Mn2 O9 2.233514 1_555
Mn2 O14 2.260022 1_555
Mn2 O16 2.311926 1_555
Mn2 O18 2.322990 1_555
Mn3 O11 2.058869 1_555
Mn3 O8 2.075646 1_565
Mn3 O19 2.194358 1_655
Mn3 O6 2.255184 1_565
Mn3 O13 2.259222 1_655
Mn3 O3 2.281296 1_556
Mn4 O1 2.070831 1_555
Mn4 O2 2.077814 1_555
Mn4 O0 2.086788 1_555
Mn4 O14 2.288624 1_555
Mn4 O18 2.288962 1_555
Mn4 O16 2.302912 1_555
O0 P1 1.543425 1_554
O1 P2 1.534293 1_545
O2 P0 1.541871 1_455
O3 P0 1.554614 1_555
O4 P0 1.581287 1_555
O4 Sn0 2.036488 1_655
O5 P0 1.535400 1_555
O6 P1 1.543723 1_555
O7 P1 1.546355 1_555
O8 P3 1.510485 1_555
O9 P2 1.550121 1_555
O10 P3 1.634355 1_555
O10 Sn0 2.130520 1_655
O11 P4 1.508338 1_556
O12 P1 1.578058 1_555
O12 Sn0 2.026343 1_556
O13 P2 1.557434 1_555
O14 P3 1.580634 1_555
O15 P2 1.566928 1_555
O15 Sn0 2.029819 1_565
O16 P4 1.577549 1_555
O17 P4 1.623866 1_555
O17 Sn0 2.141738 1_565
O18 P5 1.575490 1_555
O19 P5 1.527843 1_555
O20 P5 1.624989 1_555
O20 Sn0 2.143358 1_556
O21 P5 1.510842 1_655
O22 P3 1.510085 1_565
O23 P4 1.530803 1_556
