# generated using pymatgen
data_NaSi2N3
_symmetry_space_group_name_H-M   'P 1'
_cell_length_a   4.87350679
_cell_length_b   5.46567508
_cell_length_c   5.46567488
_cell_angle_alpha   119.73761084
_cell_angle_beta   90.00000000
_cell_angle_gamma   90.00000000
_symmetry_Int_Tables_number   1
_chemical_formula_structural   NaSi2N3
_chemical_formula_sum   'Na2 Si4 N6'
_cell_volume   126.41599522
_cell_formula_units_Z   2
loop_
 _symmetry_equiv_pos_site_id
 _symmetry_equiv_pos_as_xyz
  1  'x, y, z'
loop_
 _atom_site_type_symbol
 _atom_site_label
 _atom_site_symmetry_multiplicity
 _atom_site_fract_x
 _atom_site_fract_y
 _atom_site_fract_z
 _atom_site_occupancy
  Na  Na0  1  0.48366118  0.66413958  0.66413958  1
  Na  Na1  1  0.98366118  0.33586042  0.33586042  1
  Si  Si0  1  0.01219840  0.01680361  0.67533514  1
  Si  Si1  1  0.51219840  0.98319639  0.32466486  1
  Si  Si2  1  0.51219840  0.32466486  0.98319639  1
  Si  Si3  1  0.01219840  0.67533514  0.01680361  1
  N  N0  1  0.96954158  0.77334974  0.77334974  1
  N  N1  1  0.46954158  0.22665026  0.22665026  1
  N  N2  1  0.35970022  0.65553072  0.09382044  1
  N  N3  1  0.35970022  0.09382044  0.65553072  1
  N  N4  1  0.85970022  0.90617956  0.34446928  1
  N  N5  1  0.85970022  0.34446928  0.90617956  1
loop_
_geom_bond_atom_site_label_1
_geom_bond_atom_site_label_2
_geom_bond_distance
_geom_bond_site_symmetry_2
N0 Si3 1.675707 1_656
N0 Si0 1.675707 1_665
N0 Na1 2.401638 1_555
N0 Na0 2.442596 1_555
N0 Na0 2.576235 1_655
N1 Si2 1.675707 1_554
N1 Si1 1.675707 1_545
N1 Na0 2.401638 1_555
N1 Na1 2.442596 1_455
N1 Na1 2.576235 1_555
N2 Si3 1.761317 1_555
N2 Si2 1.761681 1_554
N2 Si1 1.763512 1_555
N2 Na0 2.447905 1_554
N3 Si0 1.761317 1_555
N3 Si1 1.761681 1_545
N3 Si2 1.763512 1_555
N3 Na0 2.447905 1_545
N4 Si1 1.761317 1_555
N4 Si0 1.761681 1_665
N4 Si3 1.763512 1_655
N4 Na1 2.447905 1_565
N5 Si2 1.761317 1_555
N5 Si3 1.761681 1_656
N5 Si0 1.763512 1_655
N5 Na1 2.447905 1_556
