# generated using pymatgen
data_MnFe2(PO4)3
_symmetry_space_group_name_H-M   'P 1'
_cell_length_a   8.57055577
_cell_length_b   8.57055577
_cell_length_c   8.57055669
_cell_angle_alpha   60.70533223
_cell_angle_beta   60.70533223
_cell_angle_gamma   60.70532970
_symmetry_Int_Tables_number   1
_chemical_formula_structural   MnFe2(PO4)3
_chemical_formula_sum   'Mn2 Fe4 P6 O24'
_cell_volume   452.24215315
_cell_formula_units_Z   2
loop_
 _symmetry_equiv_pos_site_id
 _symmetry_equiv_pos_as_xyz
  1  'x, y, z'
loop_
 _atom_site_type_symbol
 _atom_site_label
 _atom_site_symmetry_multiplicity
 _atom_site_fract_x
 _atom_site_fract_y
 _atom_site_fract_z
 _atom_site_occupancy
  Mn  Mn0  1  0.00000000  0.00000000  0.00000000  1
  Mn  Mn1  1  0.50000000  0.50000000  0.50000000  1
  Fe  Fe0  1  0.85457200  0.85457200  0.85457200  1
  Fe  Fe1  1  0.64542800  0.64542800  0.64542800  1
  Fe  Fe2  1  0.35457200  0.35457200  0.35457200  1
  Fe  Fe3  1  0.14542800  0.14542800  0.14542800  1
  P  P0  1  0.95460000  0.25000000  0.54540000  1
  P  P1  1  0.54540000  0.95460000  0.25000000  1
  P  P2  1  0.25000000  0.54540000  0.95460000  1
  P  P3  1  0.75000000  0.45460000  0.04540000  1
  P  P4  1  0.45460000  0.04540000  0.75000000  1
  P  P5  1  0.04540000  0.75000000  0.45460000  1
  O  O0  1  0.89031400  0.68185200  0.49538500  1
  O  O1  1  0.68185200  0.49538500  0.89031400  1
  O  O2  1  0.94045400  0.08998700  0.74261700  1
  O  O3  1  0.49538500  0.89031400  0.68185200  1
  O  O4  1  0.99538500  0.18185200  0.39031400  1
  O  O5  1  0.75738300  0.41001300  0.55954600  1
  O  O6  1  0.74261700  0.94045400  0.08998700  1
  O  O7  1  0.55954600  0.75738300  0.41001300  1
  O  O8  1  0.81814800  0.60968600  0.00461500  1
  O  O9  1  0.41001300  0.55954600  0.75738300  1
  O  O10  1  0.91001300  0.25738300  0.05954600  1
  O  O11  1  0.60968600  0.00461500  0.81814800  1
  O  O12  1  0.39031400  0.99538500  0.18185200  1
  O  O13  1  0.08998700  0.74261700  0.94045400  1
  O  O14  1  0.58998700  0.44045400  0.24261700  1
  O  O15  1  0.18185200  0.39031400  0.99538500  1
  O  O16  1  0.44045400  0.24261700  0.58998700  1
  O  O17  1  0.25738300  0.05954600  0.91001300  1
  O  O18  1  0.24261700  0.58998700  0.44045400  1
  O  O19  1  0.00461500  0.81814800  0.60968600  1
  O  O20  1  0.50461500  0.10968600  0.31814800  1
  O  O21  1  0.05954600  0.91001300  0.25738300  1
  O  O22  1  0.31814800  0.50461500  0.10968600  1
  O  O23  1  0.10968600  0.31814800  0.50461500  1
loop_
_geom_bond_atom_site_label_1
_geom_bond_atom_site_label_2
_geom_bond_distance
_geom_bond_site_symmetry_2
Mn0 O17 2.184707 1_554
Mn0 O6 2.184707 1_445
Mn0 O10 2.184707 1_455
Mn0 O13 2.184707 1_544
Mn0 O21 2.184708 1_545
Mn0 O2 2.184708 1_454
Mn1 O7 2.184707 1_555
Mn1 O16 2.184707 1_555
Mn1 O5 2.184707 1_555
Mn1 O18 2.184707 1_555
Mn1 O9 2.184708 1_555
Mn1 O14 2.184708 1_555
Fe0 O11 1.939905 1_565
Fe0 O8 1.939905 1_556
Fe0 O19 1.939905 1_655
Fe0 O2 2.097844 1_565
Fe0 O13 2.097844 1_655
Fe0 O6 2.097845 1_556
Fe1 O3 1.939905 1_555
Fe1 O0 1.939905 1_555
Fe1 O1 1.939905 1_555
Fe1 O9 2.097844 1_555
Fe1 O5 2.097844 1_555
Fe1 O7 2.097845 1_555
Fe2 O20 1.939905 1_555
Fe2 O23 1.939905 1_555
Fe2 O22 1.939905 1_555
Fe2 O14 2.097844 1_555
Fe2 O18 2.097844 1_555
Fe2 O16 2.097845 1_555
Fe3 O12 1.939905 1_545
Fe3 O15 1.939905 1_554
Fe3 O4 1.939905 1_455
Fe3 O21 2.097844 1_545
Fe3 O10 2.097844 1_455
Fe3 O17 2.097845 1_554
O0 P5 1.528159 1_655
O1 P3 1.528159 1_556
O2 P0 1.564021 1_555
O3 P4 1.528159 1_565
O4 P0 1.528159 1_555
O5 P0 1.564021 1_555
O6 P1 1.564021 1_555
O7 P1 1.564021 1_555
O8 P3 1.528159 1_555
O9 P2 1.564021 1_555
O10 P3 1.564021 1_555
O11 P4 1.528159 1_555
O12 P1 1.528159 1_555
O13 P2 1.564021 1_555
O14 P3 1.564021 1_555
O15 P2 1.528159 1_555
O16 P4 1.564021 1_555
O17 P4 1.564021 1_555
O18 P5 1.564021 1_555
O19 P5 1.528159 1_555
O20 P1 1.528159 1_545
O21 P5 1.564021 1_555
O22 P2 1.528159 1_554
O23 P0 1.528159 1_455
