# generated using pymatgen
data_CaFe3Si2O9
_symmetry_space_group_name_H-M   'P 1'
_cell_length_a   5.93063900
_cell_length_b   8.85260000
_cell_length_c   13.17013400
_cell_angle_alpha   90.00000000
_cell_angle_beta   90.00000000
_cell_angle_gamma   90.00000000
_symmetry_Int_Tables_number   1
_chemical_formula_structural   CaFe3Si2O9
_chemical_formula_sum   'Ca4 Fe12 Si8 O36'
_cell_volume   691.45277548
_cell_formula_units_Z   4
loop_
 _symmetry_equiv_pos_site_id
 _symmetry_equiv_pos_as_xyz
  1  'x, y, z'
loop_
 _atom_site_type_symbol
 _atom_site_label
 _atom_site_symmetry_multiplicity
 _atom_site_fract_x
 _atom_site_fract_y
 _atom_site_fract_z
 _atom_site_occupancy
  Ca  Ca0  1  0.75000000  0.12826200  0.68270400  1
  Ca  Ca1  1  0.75000000  0.37173800  0.18270400  1
  Ca  Ca2  1  0.25000000  0.87173800  0.31729600  1
  Ca  Ca3  1  0.25000000  0.62826200  0.81729600  1
  Fe  Fe0  1  0.99610400  0.44368100  0.61199200  1
  Fe  Fe1  1  0.50389600  0.05631900  0.11199200  1
  Fe  Fe2  1  0.49610400  0.55631900  0.38800800  1
  Fe  Fe3  1  0.00389600  0.94368100  0.88800800  1
  Fe  Fe4  1  0.00389600  0.55631900  0.38800800  1
  Fe  Fe5  1  0.49610400  0.94368100  0.88800800  1
  Fe  Fe6  1  0.50389600  0.44368100  0.61199200  1
  Fe  Fe7  1  0.99610400  0.05631900  0.11199200  1
  Fe  Fe8  1  0.25000000  0.76163000  0.56668200  1
  Fe  Fe9  1  0.25000000  0.73837000  0.06668200  1
  Fe  Fe10  1  0.75000000  0.23837000  0.43331800  1
  Fe  Fe11  1  0.75000000  0.26163000  0.93331800  1
  Si  Si0  1  0.25000000  0.13349700  0.53378500  1
  Si  Si1  1  0.25000000  0.36650300  0.03378500  1
  Si  Si2  1  0.75000000  0.86650300  0.46621500  1
  Si  Si3  1  0.75000000  0.63349700  0.96621500  1
  Si  Si4  1  0.75000000  0.76570000  0.68476800  1
  Si  Si5  1  0.75000000  0.73430000  0.18476800  1
  Si  Si6  1  0.25000000  0.23430000  0.31523200  1
  Si  Si7  1  0.25000000  0.26570000  0.81523200  1
  O  O0  1  0.75000000  0.47505300  0.48467500  1
  O  O1  1  0.75000000  0.02494700  0.98467500  1
  O  O2  1  0.25000000  0.52494700  0.51532500  1
  O  O3  1  0.25000000  0.97505300  0.01532500  1
  O  O4  1  0.01783000  0.23085700  0.55800000  1
  O  O5  1  0.48217000  0.26914300  0.05800000  1
  O  O6  1  0.51783000  0.76914300  0.44200000  1
  O  O7  1  0.98217000  0.73085700  0.94200000  1
  O  O8  1  0.98217000  0.76914300  0.44200000  1
  O  O9  1  0.51783000  0.73085700  0.94200000  1
  O  O10  1  0.48217000  0.23085700  0.55800000  1
  O  O11  1  0.01783000  0.26914300  0.05800000  1
  O  O12  1  0.25000000  0.38550300  0.71632800  1
  O  O13  1  0.25000000  0.11449700  0.21632800  1
  O  O14  1  0.75000000  0.61449700  0.28367200  1
  O  O15  1  0.75000000  0.88550300  0.78367200  1
  O  O16  1  0.98194900  0.66374200  0.67421400  1
  O  O17  1  0.51805100  0.83625800  0.17421400  1
  O  O18  1  0.48194900  0.33625800  0.32578600  1
  O  O19  1  0.01805100  0.16374200  0.82578600  1
  O  O20  1  0.01805100  0.33625800  0.32578600  1
  O  O21  1  0.48194900  0.16374200  0.82578600  1
  O  O22  1  0.51805100  0.66374200  0.67421400  1
  O  O23  1  0.98194900  0.83625800  0.17421400  1
  O  O24  1  0.75000000  0.89347900  0.59200500  1
  O  O25  1  0.75000000  0.60652100  0.09200500  1
  O  O26  1  0.25000000  0.10652100  0.40799500  1
  O  O27  1  0.25000000  0.39347900  0.90799500  1
  O  O28  1  0.25000000  0.97668000  0.59213600  1
  O  O29  1  0.25000000  0.52332000  0.09213600  1
  O  O30  1  0.75000000  0.02332000  0.40786400  1
  O  O31  1  0.75000000  0.47668000  0.90786400  1
  O  O32  1  0.75000000  0.38395800  0.69195800  1
  O  O33  1  0.75000000  0.11604200  0.19195800  1
  O  O34  1  0.25000000  0.61604200  0.30804200  1
  O  O35  1  0.25000000  0.88395800  0.80804200  1
loop_
_geom_bond_atom_site_label_1
_geom_bond_atom_site_label_2
_geom_bond_distance
_geom_bond_site_symmetry_2
Ca0 O32 2.266853 1_555
Ca0 O24 2.397246 1_545
Ca0 O4 2.458716 1_655
Ca0 O10 2.458716 1_555
Ca0 O19 2.485325 1_655
Ca0 O21 2.485325 1_555
Ca0 O15 2.527187 1_545
Ca1 O33 2.266853 1_555
Ca1 O25 2.397246 1_555
Ca1 O5 2.458716 1_555
Ca1 O11 2.458716 1_655
Ca1 O20 2.485325 1_655
Ca1 O18 2.485325 1_555
Ca1 O14 2.527187 1_555
Ca2 O34 2.266853 1_555
Ca2 O26 2.397246 1_565
Ca2 O8 2.458716 1_455
Ca2 O6 2.458716 1_555
Ca2 O17 2.485325 1_555
Ca2 O23 2.485325 1_455
Ca2 O13 2.527187 1_565
Ca3 O35 2.266853 1_555
Ca3 O27 2.397246 1_555
Ca3 O7 2.458716 1_455
Ca3 O9 2.458716 1_555
Ca3 O22 2.485325 1_555
Ca3 O16 2.485325 1_455
Ca3 O12 2.527187 1_555
Fe0 O32 1.875894 1_555
Fe0 O4 2.017887 1_655
Fe0 O2 2.098980 1_655
Fe0 O12 2.102566 1_655
Fe0 O16 2.115118 1_555
Fe0 O0 2.240318 1_555
Fe1 O33 1.875894 1_555
Fe1 O5 2.017887 1_555
Fe1 O3 2.098980 1_545
Fe1 O13 2.102566 1_555
Fe1 O17 2.115118 1_545
Fe1 O1 2.240318 1_554
Fe2 O34 1.875894 1_555
Fe2 O6 2.017887 1_555
Fe2 O0 2.098980 1_555
Fe2 O14 2.102566 1_555
Fe2 O18 2.115118 1_555
Fe2 O2 2.240318 1_555
Fe3 O35 1.875894 1_555
Fe3 O7 2.017887 1_455
Fe3 O1 2.098980 1_465
Fe3 O15 2.102566 1_455
Fe3 O19 2.115118 1_565
Fe3 O3 2.240318 1_556
Fe4 O34 1.875894 1_555
Fe4 O8 2.017887 1_455
Fe4 O0 2.098980 1_455
Fe4 O14 2.102566 1_455
Fe4 O20 2.115118 1_555
Fe4 O2 2.240318 1_555
Fe5 O35 1.875894 1_555
Fe5 O9 2.017887 1_555
Fe5 O1 2.098980 1_565
Fe5 O15 2.102566 1_555
Fe5 O21 2.115118 1_565
Fe5 O3 2.240318 1_556
Fe6 O32 1.875894 1_555
Fe6 O10 2.017887 1_555
Fe6 O2 2.098980 1_555
Fe6 O12 2.102566 1_555
Fe6 O22 2.115118 1_555
Fe6 O0 2.240318 1_555
Fe7 O33 1.875894 1_555
Fe7 O11 2.017887 1_655
Fe7 O3 2.098980 1_645
Fe7 O13 2.102566 1_655
Fe7 O23 2.115118 1_545
Fe7 O1 2.240318 1_554
Fe8 O28 1.933042 1_555
Fe8 O2 2.201727 1_555
Fe8 O8 2.285579 1_455
Fe8 O6 2.285579 1_555
Fe8 O22 2.298646 1_555
Fe8 O16 2.298646 1_455
Fe9 O29 1.933042 1_555
Fe9 O3 2.201727 1_555
Fe9 O7 2.285579 1_454
Fe9 O9 2.285579 1_554
Fe9 O17 2.298646 1_555
Fe9 O23 2.298646 1_455
Fe10 O30 1.933042 1_555
Fe10 O0 2.201727 1_555
Fe10 O10 2.285579 1_555
Fe10 O4 2.285579 1_655
Fe10 O20 2.298646 1_655
Fe10 O18 2.298646 1_555
Fe11 O31 1.933042 1_555
Fe11 O1 2.201727 1_555
Fe11 O5 2.285579 1_556
Fe11 O11 2.285579 1_656
Fe11 O19 2.298646 1_655
Fe11 O21 2.298646 1_555
O4 Si0 1.655433 1_555
O5 Si1 1.655433 1_555
O6 Si2 1.655433 1_555
O7 Si3 1.655433 1_555
O8 Si2 1.655433 1_555
O9 Si3 1.655433 1_555
O10 Si0 1.655433 1_555
O11 Si1 1.655433 1_555
O12 Si7 1.679737 1_555
O13 Si6 1.679737 1_555
O14 Si5 1.679737 1_555
O15 Si4 1.679737 1_555
O16 Si4 1.651147 1_555
O17 Si5 1.651147 1_555
O18 Si6 1.651147 1_555
O19 Si7 1.651147 1_555
O20 Si6 1.651147 1_555
O21 Si7 1.651147 1_555
O22 Si4 1.651147 1_555
O23 Si5 1.651147 1_555
O24 Si4 1.664967 1_555
O24 Si2 1.673795 1_555
O25 Si5 1.664967 1_555
O25 Si3 1.673795 1_554
O26 Si6 1.664967 1_555
O26 Si0 1.673795 1_555
O27 Si7 1.664967 1_555
O27 Si1 1.673795 1_556
O28 Si0 1.586752 1_565
O29 Si1 1.586752 1_555
O30 Si2 1.586752 1_545
O31 Si3 1.586752 1_555
