# generated using pymatgen
data_Li2MnSiO4
_symmetry_space_group_name_H-M   'P 1'
_cell_length_a   5.09114300
_cell_length_b   6.50751200
_cell_length_c   11.02492114
_cell_angle_alpha   88.77271792
_cell_angle_beta   90.00000000
_cell_angle_gamma   90.00000000
_symmetry_Int_Tables_number   1
_chemical_formula_structural   Li2MnSiO4
_chemical_formula_sum   'Li8 Mn4 Si4 O16'
_cell_volume   365.17927788
_cell_formula_units_Z   4
loop_
 _symmetry_equiv_pos_site_id
 _symmetry_equiv_pos_as_xyz
  1  'x, y, z'
loop_
 _atom_site_type_symbol
 _atom_site_label
 _atom_site_symmetry_multiplicity
 _atom_site_fract_x
 _atom_site_fract_y
 _atom_site_fract_z
 _atom_site_occupancy
  Li  Li0  1  0.31343700  0.00053100  0.58693300  1
  Li  Li1  1  0.18656300  0.00053100  0.08693300  1
  Li  Li2  1  0.81285200  0.78011800  0.67166900  1
  Li  Li3  1  0.68714800  0.78011800  0.17166900  1
  Li  Li4  1  0.31285200  0.21988200  0.82833100  1
  Li  Li5  1  0.18714800  0.21988200  0.32833100  1
  Li  Li6  1  0.81343700  0.99946900  0.91306700  1
  Li  Li7  1  0.68656300  0.99946900  0.41306700  1
  Mn  Mn0  1  0.79610100  0.49147900  0.90212200  1
  Mn  Mn1  1  0.70389900  0.49147900  0.40212200  1
  Mn  Mn2  1  0.29610100  0.50852100  0.59787800  1
  Mn  Mn3  1  0.20389900  0.50852100  0.09787800  1
  Si  Si0  1  0.31466500  0.76267900  0.83819000  1
  Si  Si1  1  0.18533500  0.76267900  0.33819000  1
  Si  Si2  1  0.81466500  0.23732100  0.66181000  1
  Si  Si3  1  0.68533500  0.23732100  0.16181000  1
  O  O0  1  0.20570700  0.96126900  0.90964100  1
  O  O1  1  0.29429300  0.96126900  0.40964100  1
  O  O2  1  0.64002000  0.75817800  0.83545300  1
  O  O3  1  0.85998000  0.75817800  0.33545300  1
  O  O4  1  0.20332700  0.75956900  0.69653200  1
  O  O5  1  0.29667300  0.75956900  0.19653200  1
  O  O6  1  0.21739700  0.53936700  0.90650700  1
  O  O7  1  0.28260300  0.53936700  0.40650700  1
  O  O8  1  0.71739700  0.46063300  0.59349300  1
  O  O9  1  0.78260300  0.46063300  0.09349300  1
  O  O10  1  0.70332700  0.24043100  0.80346800  1
  O  O11  1  0.79667300  0.24043100  0.30346800  1
  O  O12  1  0.14002000  0.24182200  0.66454700  1
  O  O13  1  0.35998000  0.24182200  0.16454700  1
  O  O14  1  0.70570700  0.03873100  0.59035900  1
  O  O15  1  0.79429300  0.03873100  0.09035900  1
loop_
_geom_bond_atom_site_label_1
_geom_bond_atom_site_label_2
_geom_bond_distance
_geom_bond_site_symmetry_2
Li0 O1 1.979078 1_545
Li0 O12 2.008680 1_555
Li0 O14 2.012969 1_555
Li0 O4 2.037634 1_545
Li1 O0 1.979078 1_544
Li1 O13 2.008680 1_555
Li1 O15 2.012969 1_455
Li1 O5 2.037634 1_545
Li2 O14 1.966921 1_565
Li2 O4 2.010833 1_655
Li2 O2 2.011010 1_555
Li2 O8 2.319102 1_555
Li3 O15 1.966921 1_565
Li3 O5 2.010833 1_555
Li3 O3 2.011010 1_555
Li3 O9 2.319102 1_555
Li4 O0 1.966921 1_545
Li4 O10 2.010833 1_555
Li4 O12 2.011010 1_555
Li4 O6 2.319102 1_555
Li5 O1 1.966921 1_545
Li5 O11 2.010833 1_455
Li5 O13 2.011010 1_555
Li5 O7 2.319102 1_555
Li6 O15 1.979078 1_566
Li6 O2 2.008680 1_555
Li6 O0 2.012969 1_655
Li6 O10 2.037634 1_565
Li7 O14 1.979078 1_565
Li7 O3 2.008680 1_555
Li7 O1 2.012969 1_555
Li7 O11 2.037634 1_565
Mn0 O2 2.032036 1_555
Mn0 O10 2.037441 1_555
Mn0 O9 2.116209 1_556
Mn0 O6 2.168087 1_655
Mn1 O3 2.032036 1_555
Mn1 O11 2.037441 1_555
Mn1 O8 2.116209 1_555
Mn1 O7 2.168087 1_555
Mn2 O12 2.032036 1_555
Mn2 O4 2.037441 1_555
Mn2 O7 2.116209 1_555
Mn2 O8 2.168087 1_555
Mn3 O13 2.032036 1_555
Mn3 O5 2.037441 1_555
Mn3 O6 2.116209 1_554
Mn3 O9 2.168087 1_455
O0 Si0 1.625414 1_555
O1 Si1 1.625414 1_555
O2 Si0 1.656974 1_555
O3 Si1 1.656974 1_655
O4 Si0 1.661983 1_555
O5 Si1 1.661983 1_555
O6 Si0 1.696303 1_555
O7 Si1 1.696303 1_555
O8 Si2 1.696303 1_555
O9 Si3 1.696303 1_555
O10 Si2 1.661983 1_555
O11 Si3 1.661983 1_555
O12 Si2 1.656974 1_455
O13 Si3 1.656974 1_555
O14 Si2 1.625414 1_555
O15 Si3 1.625414 1_555
