# generated using pymatgen
data_Ca3SnS5
_symmetry_space_group_name_H-M   'P 1'
_cell_length_a   8.07177371
_cell_length_b   8.07177371
_cell_length_c   7.14378200
_cell_angle_alpha   90.00000000
_cell_angle_beta   90.00000000
_cell_angle_gamma   119.99999760
_symmetry_Int_Tables_number   1
_chemical_formula_structural   Ca3SnS5
_chemical_formula_sum   'Ca6 Sn2 S10'
_cell_volume   403.08514307
_cell_formula_units_Z   2
loop_
 _symmetry_equiv_pos_site_id
 _symmetry_equiv_pos_as_xyz
  1  'x, y, z'
loop_
 _atom_site_type_symbol
 _atom_site_label
 _atom_site_symmetry_multiplicity
 _atom_site_fract_x
 _atom_site_fract_y
 _atom_site_fract_z
 _atom_site_occupancy
  Ca  Ca0  1  0.57784600  0.57784600  0.67153500  1
  Ca  Ca1  1  0.00000000  0.42215400  0.67153500  1
  Ca  Ca2  1  0.42215400  0.00000000  0.67153500  1
  Ca  Ca3  1  0.42215400  0.42215400  0.17153500  1
  Ca  Ca4  1  0.00000000  0.57784600  0.17153500  1
  Ca  Ca5  1  0.57784600  0.00000000  0.17153500  1
  Sn  Sn0  1  0.00000000  0.00000000  0.40570000  1
  Sn  Sn1  1  0.00000000  0.00000000  0.90570000  1
  S  S0  1  0.66666700  0.33333300  0.41530900  1
  S  S1  1  0.33333300  0.66666700  0.41530900  1
  S  S2  1  0.33333300  0.66666700  0.91530900  1
  S  S3  1  0.66666700  0.33333300  0.91530900  1
  S  S4  1  0.76342000  0.00000000  0.65604000  1
  S  S5  1  0.23658000  0.23658000  0.65604000  1
  S  S6  1  0.00000000  0.76342000  0.65604000  1
  S  S7  1  0.23658000  0.00000000  0.15604000  1
  S  S8  1  0.76342000  0.76342000  0.15604000  1
  S  S9  1  0.00000000  0.23658000  0.15604000  1
loop_
_geom_bond_atom_site_label_1
_geom_bond_atom_site_label_2
_geom_bond_distance
_geom_bond_site_symmetry_2
Ca0 S5 2.756845 1_555
Ca0 S4 2.960250 1_565
Ca0 S6 2.960250 1_655
Ca0 S2 2.976075 1_555
Ca0 S3 2.976075 1_555
Ca0 S0 3.028987 1_555
Ca0 S1 3.028987 1_555
Ca1 S6 2.756845 1_555
Ca1 S5 2.960250 1_555
Ca1 S4 2.960250 1_455
Ca1 S3 2.976069 1_455
Ca1 S2 2.976071 1_555
Ca1 S0 3.028980 1_455
Ca1 S1 3.028982 1_555
Ca2 S4 2.756845 1_555
Ca2 S5 2.960250 1_555
Ca2 S6 2.960250 1_545
Ca2 S2 2.976069 1_545
Ca2 S3 2.976071 1_555
Ca2 S1 3.028980 1_545
Ca2 S0 3.028982 1_555
Ca3 S8 2.756845 1_555
Ca3 S7 2.960250 1_555
Ca3 S9 2.960250 1_555
Ca3 S1 2.976075 1_555
Ca3 S0 2.976075 1_555
Ca3 S3 3.028987 1_554
Ca3 S2 3.028987 1_554
Ca4 S9 2.756845 1_555
Ca4 S8 2.960250 1_455
Ca4 S7 2.960250 1_565
Ca4 S1 2.976069 1_555
Ca4 S0 2.976071 1_455
Ca4 S2 3.028980 1_554
Ca4 S3 3.028982 1_454
Ca5 S7 2.756845 1_555
Ca5 S8 2.960250 1_545
Ca5 S9 2.960250 1_655
Ca5 S0 2.976069 1_555
Ca5 S1 2.976071 1_545
Ca5 S3 3.028980 1_554
Ca5 S2 3.028982 1_544
S4 Sn1 2.612964 1_655
S4 Sn0 2.616282 1_655
S5 Sn1 2.612964 1_555
S5 Sn0 2.616282 1_555
S6 Sn1 2.612964 1_565
S6 Sn0 2.616282 1_565
S7 Sn0 2.612964 1_555
S7 Sn1 2.616282 1_554
S8 Sn0 2.612964 1_665
S8 Sn1 2.616282 1_664
S9 Sn0 2.612964 1_555
S9 Sn1 2.616282 1_554
