# generated using pymatgen
data_Ta2CrOs
_symmetry_space_group_name_H-M   'P 1'
_cell_length_a   4.43213154
_cell_length_b   4.43213154
_cell_length_c   4.43213154
_cell_angle_alpha   60.00000000
_cell_angle_beta   60.00000000
_cell_angle_gamma   60.00000000
_symmetry_Int_Tables_number   1
_chemical_formula_structural   Ta2CrOs
_chemical_formula_sum   'Ta2 Cr1 Os1'
_cell_volume   61.56344680
_cell_formula_units_Z   1
loop_
 _symmetry_equiv_pos_site_id
 _symmetry_equiv_pos_as_xyz
  1  'x, y, z'
loop_
 _atom_site_type_symbol
 _atom_site_label
 _atom_site_symmetry_multiplicity
 _atom_site_fract_x
 _atom_site_fract_y
 _atom_site_fract_z
 _atom_site_occupancy
  Ta  Ta0  1  0.00000000  0.00000000  0.00000000  1
  Ta  Ta1  1  0.50000100  0.50000100  0.50000100  1
  Cr  Cr0  1  0.25000000  0.25000000  0.25000000  1
  Os  Os0  1  0.75000100  0.75000100  0.75000100  1
loop_
_geom_bond_atom_site_label_1
_geom_bond_atom_site_label_2
_geom_bond_distance
_geom_bond_site_symmetry_2
Cr0 Ta1 2.714112 1_554
Cr0 Ta1 2.714112 1_545
Cr0 Ta1 2.714112 1_455
Cr0 Ta0 2.714115 1_655
Cr0 Ta0 2.714115 1_565
Cr0 Ta0 2.714115 1_556
Cr0 Ta0 2.714115 1_555
Cr0 Ta1 2.714126 1_555
Cr0 Os0 3.133984 1_445
Cr0 Os0 3.133984 1_454
Cr0 Os0 3.133984 1_544
Cr0 Os0 3.133997 1_545
Cr0 Os0 3.133997 1_455
Cr0 Os0 3.133997 1_554
Os0 Ta0 2.714104 1_666
Os0 Ta1 2.714115 1_555
Os0 Ta1 2.714115 1_556
Os0 Ta1 2.714115 1_565
Os0 Ta1 2.714115 1_655
Os0 Ta0 2.714119 1_566
Os0 Ta0 2.714119 1_665
Os0 Ta0 2.714119 1_656
