# generated using pymatgen
data_TaTiTc2
_symmetry_space_group_name_H-M   'P 1'
_cell_length_a   4.43586916
_cell_length_b   4.43586988
_cell_length_c   4.43587133
_cell_angle_alpha   60.00000005
_cell_angle_beta   59.99997300
_cell_angle_gamma   59.99996219
_symmetry_Int_Tables_number   1
_chemical_formula_structural   TaTiTc2
_chemical_formula_sum   'Ta1 Ti1 Tc2'
_cell_volume   61.71933754
_cell_formula_units_Z   1
loop_
 _symmetry_equiv_pos_site_id
 _symmetry_equiv_pos_as_xyz
  1  'x, y, z'
loop_
 _atom_site_type_symbol
 _atom_site_label
 _atom_site_symmetry_multiplicity
 _atom_site_fract_x
 _atom_site_fract_y
 _atom_site_fract_z
 _atom_site_occupancy
  Ta  Ta0  1  0.25000000  0.25000000  0.25000000  1
  Ti  Ti0  1  0.75000000  0.75000000  0.75000000  1
  Tc  Tc0  1  0.00000000  -0.00000000  0.00000000  1
  Tc  Tc1  1  0.50000000  0.50000000  0.50000000  1
loop_
_geom_bond_atom_site_label_1
_geom_bond_atom_site_label_2
_geom_bond_distance
_geom_bond_site_symmetry_2
Ta0 Tc1 2.716403 1_455
Ta0 Tc0 2.716403 1_655
Ta0 Tc1 2.716404 1_545
Ta0 Tc0 2.716404 1_565
Ta0 Tc1 2.716405 1_555
Ta0 Tc0 2.716405 1_555
Ta0 Tc0 2.716405 1_556
Ta0 Tc1 2.716405 1_554
Tc0 Ti0 2.716403 1_544
Tc0 Ti0 2.716404 1_454
Tc0 Ti0 2.716405 1_444
Tc0 Ti0 2.716405 1_445
Tc1 Ti0 2.716403 1_455
Tc1 Ti0 2.716404 1_545
Tc1 Ti0 2.716405 1_555
Tc1 Ti0 2.716405 1_554
