# generated using pymatgen
data_Tm2ZnIr
_symmetry_space_group_name_H-M   'P 1'
_cell_length_a   4.82221738
_cell_length_b   4.82221738
_cell_length_c   4.82221738
_cell_angle_alpha   60.00000000
_cell_angle_beta   60.00000000
_cell_angle_gamma   60.00000000
_symmetry_Int_Tables_number   1
_chemical_formula_structural   Tm2ZnIr
_chemical_formula_sum   'Tm2 Zn1 Ir1'
_cell_volume   79.29126639
_cell_formula_units_Z   1
loop_
 _symmetry_equiv_pos_site_id
 _symmetry_equiv_pos_as_xyz
  1  'x, y, z'
loop_
 _atom_site_type_symbol
 _atom_site_label
 _atom_site_symmetry_multiplicity
 _atom_site_fract_x
 _atom_site_fract_y
 _atom_site_fract_z
 _atom_site_occupancy
  Tm  Tm0  1  0.00000000  -0.00000000  -0.00000000  1
  Tm  Tm1  1  0.49999900  0.49999900  0.49999900  1
  Zn  Zn0  1  0.75000000  0.75000000  0.75000000  1
  Ir  Ir0  1  0.25000000  0.25000000  0.25000000  1
loop_
_geom_bond_atom_site_label_1
_geom_bond_atom_site_label_2
_geom_bond_distance
_geom_bond_site_symmetry_2
Tm0 Zn0 2.952993 1_445
Tm0 Zn0 2.952993 1_444
Tm0 Zn0 2.952993 1_544
Tm0 Zn0 2.952993 1_454
Tm1 Zn0 2.952989 1_455
Tm1 Zn0 2.952989 1_545
Tm1 Zn0 2.952989 1_554
Tm1 Zn0 2.953005 1_555
Ir0 Tm1 2.952981 1_555
Ir0 Tm0 2.952993 1_565
Ir0 Tm0 2.952993 1_555
Ir0 Tm0 2.952993 1_655
Ir0 Tm0 2.952993 1_556
Ir0 Tm1 2.952997 1_554
Ir0 Tm1 2.952997 1_545
Ir0 Tm1 2.952997 1_455
