# generated using pymatgen
data_Ni5Te(PO4)6
_symmetry_space_group_name_H-M   'P 1'
_cell_length_a   8.50249465
_cell_length_b   8.50249465
_cell_length_c   8.50249493
_cell_angle_alpha   61.16754782
_cell_angle_beta   61.16754782
_cell_angle_gamma   61.16754527
_symmetry_Int_Tables_number   1
_chemical_formula_structural   Ni5Te(PO4)6
_chemical_formula_sum   'Ni5 Te1 P6 O24'
_cell_volume   446.05177551
_cell_formula_units_Z   1
loop_
 _symmetry_equiv_pos_site_id
 _symmetry_equiv_pos_as_xyz
  1  'x, y, z'
loop_
 _atom_site_type_symbol
 _atom_site_label
 _atom_site_symmetry_multiplicity
 _atom_site_fract_x
 _atom_site_fract_y
 _atom_site_fract_z
 _atom_site_occupancy
  Ni  Ni0  1  0.99287400  0.99287400  0.99287400  1
  Ni  Ni1  1  0.64242700  0.64242700  0.64242700  1
  Ni  Ni2  1  0.50068500  0.50068500  0.50068500  1
  Ni  Ni3  1  0.85635400  0.85635400  0.85635400  1
  Ni  Ni4  1  0.35957300  0.35957300  0.35957300  1
  Te  Te0  1  0.14190000  0.14190000  0.14190000  1
  P  P0  1  0.95198300  0.25567200  0.54903800  1
  P  P1  1  0.54903800  0.95198300  0.25567200  1
  P  P2  1  0.25567200  0.54903800  0.95198300  1
  P  P3  1  0.74308000  0.46182600  0.04915700  1
  P  P4  1  0.46182600  0.04915700  0.74308000  1
  P  P5  1  0.04915700  0.74308000  0.46182600  1
  O  O0  1  0.49924600  0.10853300  0.32328100  1
  O  O1  1  0.32328100  0.49924600  0.10853300  1
  O  O2  1  0.10853300  0.32328100  0.49924600  1
  O  O3  1  0.94419600  0.09020200  0.73887900  1
  O  O4  1  0.98848900  0.18478700  0.38364500  1
  O  O5  1  0.75489900  0.40597900  0.55679800  1
  O  O6  1  0.73887900  0.94419600  0.09020200  1
  O  O7  1  0.55679800  0.75489900  0.40597900  1
  O  O8  1  0.81732800  0.60854500  0.01452200  1
  O  O9  1  0.40597900  0.55679800  0.75489900  1
  O  O10  1  0.91541900  0.25221800  0.06007300  1
  O  O11  1  0.60854500  0.01452200  0.81732800  1
  O  O12  1  0.38364500  0.98848900  0.18478700  1
  O  O13  1  0.09020200  0.73887900  0.94419600  1
  O  O14  1  0.59746400  0.43294000  0.25067600  1
  O  O15  1  0.18478700  0.38364500  0.98848900  1
  O  O16  1  0.43294000  0.25067600  0.59746400  1
  O  O17  1  0.25221800  0.06007300  0.91541900  1
  O  O18  1  0.25067600  0.59746400  0.43294000  1
  O  O19  1  0.01452200  0.81732800  0.60854500  1
  O  O20  1  0.06007300  0.91541900  0.25221800  1
  O  O21  1  0.89449400  0.68685100  0.48596800  1
  O  O22  1  0.68685100  0.48596800  0.89449400  1
  O  O23  1  0.48596800  0.89449400  0.68685100  1
loop_
_geom_bond_atom_site_label_1
_geom_bond_atom_site_label_2
_geom_bond_distance
_geom_bond_site_symmetry_2
Ni0 O13 2.080385 1_655
Ni0 O6 2.080385 1_556
Ni0 O3 2.080386 1_565
Ni0 O10 2.252580 1_566
Ni0 O17 2.252580 1_665
Ni0 O20 2.252580 1_656
Ni1 O23 2.012939 1_555
Ni1 O21 2.012939 1_555
Ni1 O22 2.012939 1_555
Ni1 O5 2.090980 1_555
Ni1 O9 2.090980 1_555
Ni1 O7 2.090980 1_555
Ni2 O5 2.119740 1_555
Ni2 O7 2.119740 1_555
Ni2 O9 2.119740 1_555
Ni2 O18 2.136402 1_555
Ni2 O16 2.136402 1_555
Ni2 O14 2.136402 1_555
Ni3 O11 1.966992 1_565
Ni3 O8 1.966992 1_556
Ni3 O19 1.966992 1_655
Ni3 O13 2.075113 1_655
Ni3 O3 2.075113 1_565
Ni3 O6 2.075113 1_556
Ni4 O0 1.974451 1_555
Ni4 O2 1.974451 1_555
Ni4 O1 1.974451 1_555
Ni4 O18 2.047237 1_555
Ni4 O14 2.047237 1_555
Ni4 O16 2.047237 1_555
O0 P1 1.497054 1_545
O1 P2 1.497054 1_554
O2 P0 1.497054 1_455
O3 P0 1.544548 1_555
O4 P0 1.628856 1_555
O4 Te0 1.933247 1_655
O5 P0 1.534528 1_555
O6 P1 1.544548 1_555
O7 P1 1.534528 1_555
O8 P3 1.505786 1_555
O9 P2 1.534528 1_555
O10 P3 1.668782 1_555
O10 Te0 1.998163 1_655
O11 P4 1.505786 1_555
O12 P1 1.628856 1_555
O12 Te0 1.933247 1_565
O13 P2 1.544548 1_555
O14 P3 1.539590 1_555
O15 P2 1.628856 1_555
O15 Te0 1.933247 1_556
O16 P4 1.539590 1_555
O17 P4 1.668782 1_555
O17 Te0 1.998163 1_556
O18 P5 1.539590 1_555
O19 P5 1.505786 1_555
O20 P5 1.668782 1_555
O20 Te0 1.998163 1_565
O21 P5 1.500453 1_655
O22 P3 1.500453 1_556
O23 P4 1.500453 1_565
