# generated using pymatgen
data_LiZn2Pt
_symmetry_space_group_name_H-M   'P 1'
_cell_length_a   4.27003980
_cell_length_b   4.27003980
_cell_length_c   4.27003980
_cell_angle_alpha   60.00000000
_cell_angle_beta   60.00000000
_cell_angle_gamma   60.00000000
_symmetry_Int_Tables_number   1
_chemical_formula_structural   LiZn2Pt
_chemical_formula_sum   'Li1 Zn2 Pt1'
_cell_volume   55.05297235
_cell_formula_units_Z   1
loop_
 _symmetry_equiv_pos_site_id
 _symmetry_equiv_pos_as_xyz
  1  'x, y, z'
loop_
 _atom_site_type_symbol
 _atom_site_label
 _atom_site_symmetry_multiplicity
 _atom_site_fract_x
 _atom_site_fract_y
 _atom_site_fract_z
 _atom_site_occupancy
  Li  Li0  1  0.25000100  0.25000100  0.25000100  1
  Zn  Zn0  1  0.00000000  -0.00000000  -0.00000000  1
  Zn  Zn1  1  0.50000000  0.50000000  0.50000000  1
  Pt  Pt0  1  0.75000000  0.75000000  0.75000000  1
loop_
_geom_bond_atom_site_label_1
_geom_bond_atom_site_label_2
_geom_bond_distance
_geom_bond_site_symmetry_2
Li0 Zn1 2.614844 1_555
Li0 Zn0 2.614851 1_655
Li0 Zn0 2.614851 1_565
Li0 Zn0 2.614851 1_556
Li0 Zn1 2.614858 1_455
Li0 Zn1 2.614858 1_545
Li0 Zn1 2.614858 1_554
Li0 Zn0 2.614865 1_555
Li0 Pt0 3.019368 1_545
Li0 Pt0 3.019368 1_554
Li0 Pt0 3.019368 1_455
Li0 Pt0 3.019380 1_445
Li0 Pt0 3.019380 1_544
Li0 Pt0 3.019380 1_454
Pt0 Zn0 2.614855 1_666
Pt0 Zn1 2.614855 1_565
Pt0 Zn0 2.614855 1_665
Pt0 Zn0 2.614855 1_656
Pt0 Zn1 2.614855 1_655
Pt0 Zn0 2.614855 1_566
Pt0 Zn1 2.614855 1_555
Pt0 Zn1 2.614855 1_556
