# generated using pymatgen
data_Ce4MgRu
_symmetry_space_group_name_H-M   'P 1'
_cell_length_a   9.75521263
_cell_length_b   9.75521263
_cell_length_c   9.75521263
_cell_angle_alpha   60.00000000
_cell_angle_beta   60.00000000
_cell_angle_gamma   60.00000000
_symmetry_Int_Tables_number   1
_chemical_formula_structural   Ce4MgRu
_chemical_formula_sum   'Ce16 Mg4 Ru4'
_cell_volume   656.44027923
_cell_formula_units_Z   4
loop_
 _symmetry_equiv_pos_site_id
 _symmetry_equiv_pos_as_xyz
  1  'x, y, z'
loop_
 _atom_site_type_symbol
 _atom_site_label
 _atom_site_symmetry_multiplicity
 _atom_site_fract_x
 _atom_site_fract_y
 _atom_site_fract_z
 _atom_site_occupancy
  Ce  Ce0  1  0.34522700  0.34522700  0.34522700  1
  Ce  Ce1  1  0.94040800  0.55959200  0.55959200  1
  Ce  Ce2  1  0.55959200  0.55959200  0.94040800  1
  Ce  Ce3  1  0.55959200  0.94040800  0.55959200  1
  Ce  Ce4  1  0.81124800  0.18875200  0.18875200  1
  Ce  Ce5  1  0.18875200  0.18875200  0.81124800  1
  Ce  Ce6  1  0.18875200  0.81124800  0.18875200  1
  Ce  Ce7  1  0.94040800  0.94040800  0.55959200  1
  Ce  Ce8  1  0.55959200  0.94040800  0.94040800  1
  Ce  Ce9  1  0.94040800  0.55959200  0.94040800  1
  Ce  Ce10  1  0.34522700  0.34522700  0.96432000  1
  Ce  Ce11  1  0.96432000  0.34522700  0.34522700  1
  Ce  Ce12  1  0.34522700  0.96432000  0.34522700  1
  Ce  Ce13  1  0.81124800  0.81124800  0.18875200  1
  Ce  Ce14  1  0.18875200  0.81124800  0.81124800  1
  Ce  Ce15  1  0.81124800  0.18875200  0.81124800  1
  Mg  Mg0  1  0.57915000  0.26254900  0.57915000  1
  Mg  Mg1  1  0.57915000  0.57915000  0.26254900  1
  Mg  Mg2  1  0.26254900  0.57915000  0.57915000  1
  Mg  Mg3  1  0.57915000  0.57915000  0.57915000  1
  Ru  Ru0  1  0.13685300  0.13685300  0.13685300  1
  Ru  Ru1  1  0.13685300  0.58944200  0.13685300  1
  Ru  Ru2  1  0.58944200  0.13685300  0.13685300  1
  Ru  Ru3  1  0.13685300  0.13685300  0.58944200  1
loop_
_geom_bond_atom_site_label_1
_geom_bond_atom_site_label_2
_geom_bond_distance
_geom_bond_site_symmetry_2
Ce0 Ru2 2.895902 1_555
Ce0 Ru3 2.895902 1_555
Ce0 Ru1 2.895902 1_555
Ce0 Mg0 3.548471 1_555
Ce0 Mg1 3.548471 1_555
Ce0 Mg2 3.548471 1_555
Ce1 Mg2 3.344249 1_655
Ce1 Mg3 3.344259 1_555
Ce1 Ru3 3.495445 1_655
Ce1 Ru1 3.495445 1_655
Ce2 Mg1 3.344249 1_556
Ce2 Mg3 3.344259 1_555
Ce2 Ru2 3.495445 1_556
Ce2 Ru1 3.495445 1_556
Ce3 Mg0 3.344249 1_565
Ce3 Mg3 3.344259 1_555
Ce3 Ru3 3.495445 1_565
Ce3 Ru2 3.495445 1_565
Ce4 Ru2 2.764384 1_555
Ce4 Ru0 2.764394 1_655
Ce4 Mg0 3.554936 1_555
Ce4 Mg1 3.554936 1_555
Ce5 Ru3 2.764384 1_555
Ce5 Ru0 2.764394 1_556
Ce5 Mg2 3.554936 1_555
Ce5 Mg0 3.554936 1_555
Ce6 Ru1 2.764384 1_555
Ce6 Ru0 2.764394 1_565
Ce6 Mg2 3.554936 1_555
Ce6 Mg1 3.554936 1_555
Ce7 Mg2 3.344254 1_655
Ce7 Mg0 3.344254 1_565
Ce7 Ru0 3.495447 1_665
Ce7 Ru3 3.495453 1_665
Ce8 Mg0 3.344254 1_565
Ce8 Mg1 3.344254 1_556
Ce8 Ru0 3.495447 1_566
Ce8 Ru2 3.495453 1_566
Ce9 Mg2 3.344254 1_655
Ce9 Mg1 3.344254 1_556
Ce9 Ru0 3.495447 1_656
Ce9 Ru1 3.495453 1_656
Ce10 Ru2 2.895902 1_556
Ce10 Ru1 2.895902 1_556
Ce10 Ru0 2.895902 1_556
Ce10 Mg3 3.548479 1_555
Ce10 Mg2 3.548488 1_555
Ce10 Mg0 3.548488 1_555
Ce11 Ru3 2.895902 1_655
Ce11 Ru0 2.895902 1_655
Ce11 Ru1 2.895902 1_655
Ce11 Mg3 3.548479 1_555
Ce11 Mg0 3.548488 1_555
Ce11 Mg1 3.548488 1_555
Ce12 Ru2 2.895902 1_565
Ce12 Ru3 2.895902 1_565
Ce12 Ru0 2.895902 1_565
Ce12 Mg3 3.548479 1_555
Ce12 Mg2 3.548488 1_555
Ce12 Mg1 3.548488 1_555
Ce13 Ru1 2.764391 1_655
Ce13 Ru2 2.764391 1_565
Ce13 Mg3 3.554940 1_555
Ce13 Mg1 3.554944 1_555
Ce14 Ru3 2.764391 1_565
Ce14 Ru1 2.764391 1_556
Ce14 Mg3 3.554940 1_555
Ce14 Mg2 3.554944 1_555
Ce15 Ru2 2.764391 1_556
Ce15 Ru3 2.764391 1_655
Ce15 Mg3 3.554940 1_555
Ce15 Mg0 3.554944 1_555
Mg0 Mg1 3.088510 1_555
Mg0 Mg2 3.088510 1_555
Mg0 Mg3 3.088510 1_555
Mg1 Mg2 3.088510 1_555
Mg1 Mg3 3.088510 1_555
Mg2 Mg3 3.088510 1_555
