# generated using pymatgen
data_Sc2TlCd
_symmetry_space_group_name_H-M   'P 1'
_cell_length_a   5.02057626
_cell_length_b   5.02057626
_cell_length_c   5.02057626
_cell_angle_alpha   60.00000000
_cell_angle_beta   60.00000000
_cell_angle_gamma   60.00000000
_symmetry_Int_Tables_number   1
_chemical_formula_structural   Sc2TlCd
_chemical_formula_sum   'Sc2 Tl1 Cd1'
_cell_volume   89.48406551
_cell_formula_units_Z   1
loop_
 _symmetry_equiv_pos_site_id
 _symmetry_equiv_pos_as_xyz
  1  'x, y, z'
loop_
 _atom_site_type_symbol
 _atom_site_label
 _atom_site_symmetry_multiplicity
 _atom_site_fract_x
 _atom_site_fract_y
 _atom_site_fract_z
 _atom_site_occupancy
  Sc  Sc0  1  0.50000000  0.50000000  0.50000000  1
  Sc  Sc1  1  -0.00000000  -0.00000000  -0.00000000  1
  Tl  Tl0  1  0.75000100  0.75000100  0.75000100  1
  Cd  Cd0  1  0.25000100  0.25000100  0.25000100  1
loop_
_geom_bond_atom_site_label_1
_geom_bond_atom_site_label_2
_geom_bond_distance
_geom_bond_site_symmetry_2
Sc0 Tl0 3.074458 1_455
Sc0 Tl0 3.074458 1_545
Sc0 Tl0 3.074458 1_554
Sc0 Tl0 3.074475 1_555
Sc1 Tl0 3.074450 1_444
Sc1 Tl0 3.074467 1_544
Sc1 Tl0 3.074467 1_445
Sc1 Tl0 3.074467 1_454
Cd0 Sc0 3.074450 1_555
Cd0 Sc1 3.074458 1_556
Cd0 Sc1 3.074458 1_655
Cd0 Sc1 3.074458 1_565
Cd0 Sc0 3.074467 1_554
Cd0 Sc0 3.074467 1_545
Cd0 Sc0 3.074467 1_455
Cd0 Sc1 3.074475 1_555
