# generated using pymatgen
data_Rb2Li2SiO4
_symmetry_space_group_name_H-M   'P 1'
_cell_length_a   5.52019100
_cell_length_b   5.70473744
_cell_length_c   8.85005618
_cell_angle_alpha   83.68469101
_cell_angle_beta   75.39356392
_cell_angle_gamma   85.70638505
_symmetry_Int_Tables_number   1
_chemical_formula_structural   Rb2Li2SiO4
_chemical_formula_sum   'Rb4 Li4 Si2 O8'
_cell_volume   267.73333836
_cell_formula_units_Z   2
loop_
 _symmetry_equiv_pos_site_id
 _symmetry_equiv_pos_as_xyz
  1  'x, y, z'
loop_
 _atom_site_type_symbol
 _atom_site_label
 _atom_site_symmetry_multiplicity
 _atom_site_fract_x
 _atom_site_fract_y
 _atom_site_fract_z
 _atom_site_occupancy
  Rb  Rb0  1  0.47674900  0.85054000  0.73129500  1
  Rb  Rb1  1  0.52325100  0.14946000  0.26870500  1
  Rb  Rb2  1  0.79213500  0.72843900  0.01794800  1
  Rb  Rb3  1  0.20786500  0.27156100  0.98205200  1
  Li  Li0  1  0.93209300  0.18848900  0.43817400  1
  Li  Li1  1  0.06790700  0.81151100  0.56182600  1
  Li  Li2  1  0.69703300  0.59338600  0.41842500  1
  Li  Li3  1  0.30296700  0.40661400  0.58157500  1
  Si  Si0  1  0.14563000  0.68753200  0.28151000  1
  Si  Si1  1  0.85437000  0.31246800  0.71849000  1
  O  O0  1  0.99860300  0.55778900  0.72000900  1
  O  O1  1  0.00139700  0.44221100  0.27999100  1
  O  O2  1  0.91843500  0.86708600  0.38085100  1
  O  O3  1  0.08156500  0.13291400  0.61914900  1
  O  O4  1  0.27077200  0.79735400  0.10244300  1
  O  O5  1  0.72922800  0.20264600  0.89755700  1
  O  O6  1  0.35660200  0.64115500  0.39037600  1
  O  O7  1  0.64339800  0.35884500  0.60962400  1
loop_
_geom_bond_atom_site_label_1
_geom_bond_atom_site_label_2
_geom_bond_distance
_geom_bond_site_symmetry_2
Li0 O1 1.888966 1_655
Li0 O3 1.965252 1_655
Li0 O2 1.967097 1_545
Li0 O7 2.158573 1_555
Li1 O0 1.888966 1_455
Li1 O2 1.965252 1_455
Li1 O3 1.967097 1_565
Li1 O6 2.158573 1_555
Li2 O6 1.952218 1_555
Li2 O2 2.002191 1_555
Li2 O1 2.011205 1_655
Li2 O7 2.012390 1_555
Li3 O7 1.952218 1_555
Li3 O3 2.002191 1_555
Li3 O0 2.011205 1_455
Li3 O6 2.012390 1_555
O0 Si1 1.664051 1_555
O0 Rb2 2.842922 1_556
O0 Rb3 3.100718 1_655
O0 Rb0 3.204517 1_555
O0 Rb0 3.255080 1_655
O1 Si0 1.664051 1_555
O1 Rb3 2.842922 1_554
O1 Rb2 3.100718 1_455
O1 Rb1 3.204517 1_555
O1 Rb1 3.255080 1_455
O2 Si0 1.686629 1_655
O2 Rb1 2.924540 1_565
O3 Si1 1.686629 1_455
O3 Rb0 2.924540 1_545
O4 Si0 1.635663 1_555
O4 Rb2 2.794024 1_555
O4 Rb3 2.825932 1_564
O4 Rb2 2.985214 1_455
O4 Rb0 3.181630 1_554
O4 Rb1 3.200953 1_565
O4 Rb3 3.361330 1_554
O5 Si1 1.635663 1_555
O5 Rb3 2.794024 1_555
O5 Rb2 2.825932 1_546
O5 Rb3 2.985214 1_655
O5 Rb1 3.181630 1_556
O5 Rb0 3.200953 1_545
O5 Rb2 3.361330 1_556
O6 Si0 1.678774 1_555
O6 Rb1 3.102771 1_565
O6 Rb1 3.106806 1_555
O7 Si1 1.678774 1_555
O7 Rb0 3.102771 1_545
O7 Rb0 3.106806 1_555
