# generated using pymatgen
data_NaMgP3(H4O5)2
_symmetry_space_group_name_H-M   'P 1'
_cell_length_a   9.14874800
_cell_length_b   14.84310200
_cell_length_c   14.96395900
_cell_angle_alpha   90.00000000
_cell_angle_beta   90.00000000
_cell_angle_gamma   90.00000000
_symmetry_Int_Tables_number   1
_chemical_formula_structural   NaMgP3(H4O5)2
_chemical_formula_sum   'Na8 Mg8 P24 H64 O80'
_cell_volume   2032.04277963
_cell_formula_units_Z   8
loop_
 _symmetry_equiv_pos_site_id
 _symmetry_equiv_pos_as_xyz
  1  'x, y, z'
loop_
 _atom_site_type_symbol
 _atom_site_label
 _atom_site_symmetry_multiplicity
 _atom_site_fract_x
 _atom_site_fract_y
 _atom_site_fract_z
 _atom_site_occupancy
  Na  Na0  1  0.56277400  0.06616000  0.34139700  1
  Na  Na1  1  0.93722600  0.06616000  0.84139700  1
  Na  Na2  1  0.06277400  0.43384000  0.34139700  1
  Na  Na3  1  0.43722600  0.43384000  0.84139700  1
  Na  Na4  1  0.56277400  0.56616000  0.15860300  1
  Na  Na5  1  0.93722600  0.56616000  0.65860300  1
  Na  Na6  1  0.06277400  0.93384000  0.15860300  1
  Na  Na7  1  0.43722600  0.93384000  0.65860300  1
  Mg  Mg0  1  0.94765900  0.04619900  0.34028100  1
  Mg  Mg1  1  0.55234100  0.04619900  0.84028100  1
  Mg  Mg2  1  0.44765900  0.45380100  0.34028100  1
  Mg  Mg3  1  0.05234100  0.45380100  0.84028100  1
  Mg  Mg4  1  0.55234100  0.54619900  0.65971900  1
  Mg  Mg5  1  0.94765900  0.54619900  0.15971900  1
  Mg  Mg6  1  0.05234100  0.95380100  0.65971900  1
  Mg  Mg7  1  0.44765900  0.95380100  0.15971900  1
  P  P0  1  0.72569700  0.00810100  0.02989500  1
  P  P1  1  0.77430300  0.00810100  0.52989500  1
  P  P2  1  0.23796700  0.11916800  0.22398300  1
  P  P3  1  0.26203300  0.11916800  0.72398300  1
  P  P4  1  0.96608800  0.23838700  0.46850400  1
  P  P5  1  0.53391200  0.23838700  0.96850400  1
  P  P6  1  0.03391200  0.26161300  0.96850400  1
  P  P7  1  0.46608800  0.26161300  0.46850400  1
  P  P8  1  0.73796700  0.38083200  0.22398300  1
  P  P9  1  0.76203300  0.38083200  0.72398300  1
  P  P10  1  0.22569700  0.49189900  0.02989500  1
  P  P11  1  0.27430300  0.49189900  0.52989500  1
  P  P12  1  0.77430300  0.50810100  0.97010500  1
  P  P13  1  0.72569700  0.50810100  0.47010500  1
  P  P14  1  0.23796700  0.61916800  0.27601700  1
  P  P15  1  0.26203300  0.61916800  0.77601700  1
  P  P16  1  0.53391200  0.73838700  0.53149600  1
  P  P17  1  0.96608800  0.73838700  0.03149600  1
  P  P18  1  0.03391200  0.76161300  0.53149600  1
  P  P19  1  0.46608800  0.76161300  0.03149600  1
  P  P20  1  0.73796700  0.88083200  0.27601700  1
  P  P21  1  0.76203300  0.88083200  0.77601700  1
  P  P22  1  0.27430300  0.99189900  0.97010500  1
  P  P23  1  0.22569700  0.99189900  0.47010500  1
  H  H0  1  0.25493900  0.08422300  0.45873200  1
  H  H1  1  0.24506100  0.08422300  0.95873200  1
  H  H2  1  0.58492600  0.10153200  0.53345400  1
  H  H3  1  0.91507400  0.10153200  0.03345400  1
  H  H4  1  0.80130300  0.10109200  0.19841600  1
  H  H5  1  0.69869700  0.10109200  0.69841600  1
  H  H6  1  0.51844900  0.14054700  0.07778800  1
  H  H7  1  0.98155100  0.14054700  0.57778800  1
  H  H8  1  0.22844300  0.16141800  0.14006400  1
  H  H9  1  0.27155700  0.16141800  0.64006400  1
  H  H10  1  0.78731800  0.18292400  0.26667200  1
  H  H11  1  0.71268200  0.18292400  0.76667200  1
  H  H12  1  0.15287800  0.19662900  0.33657800  1
  H  H13  1  0.34712200  0.19662900  0.83657800  1
  H  H14  1  0.81180000  0.23735200  0.46935700  1
  H  H15  1  0.68820000  0.23735200  0.96935700  1
  H  H16  1  0.31180000  0.26264800  0.46935700  1
  H  H17  1  0.18820000  0.26264800  0.96935700  1
  H  H18  1  0.65287800  0.30337100  0.33657800  1
  H  H19  1  0.84712200  0.30337100  0.83657800  1
  H  H20  1  0.28731800  0.31707600  0.26667200  1
  H  H21  1  0.21268200  0.31707600  0.76667200  1
  H  H22  1  0.72844300  0.33858200  0.14006400  1
  H  H23  1  0.77155700  0.33858200  0.64006400  1
  H  H24  1  0.01844900  0.35945300  0.07778800  1
  H  H25  1  0.48155100  0.35945300  0.57778800  1
  H  H26  1  0.30130300  0.39890800  0.19841600  1
  H  H27  1  0.19869700  0.39890800  0.69841600  1
  H  H28  1  0.41507400  0.39846800  0.03345400  1
  H  H29  1  0.08492600  0.39846800  0.53345400  1
  H  H30  1  0.75493900  0.41577700  0.45873200  1
  H  H31  1  0.74506100  0.41577700  0.95873200  1
  H  H32  1  0.24506100  0.58422300  0.54126800  1
  H  H33  1  0.25493900  0.58422300  0.04126800  1
  H  H34  1  0.58492600  0.60153200  0.96654600  1
  H  H35  1  0.91507400  0.60153200  0.46654600  1
  H  H36  1  0.69869700  0.60109200  0.80158400  1
  H  H37  1  0.80130300  0.60109200  0.30158400  1
  H  H38  1  0.98155100  0.64054700  0.92221200  1
  H  H39  1  0.51844900  0.64054700  0.42221200  1
  H  H40  1  0.22844300  0.66141800  0.35993600  1
  H  H41  1  0.27155700  0.66141800  0.85993600  1
  H  H42  1  0.71268200  0.68292400  0.73332800  1
  H  H43  1  0.78731800  0.68292400  0.23332800  1
  H  H44  1  0.15287800  0.69662900  0.16342200  1
  H  H45  1  0.34712200  0.69662900  0.66342200  1
  H  H46  1  0.68820000  0.73735200  0.53064300  1
  H  H47  1  0.81180000  0.73735200  0.03064300  1
  H  H48  1  0.18820000  0.76264800  0.53064300  1
  H  H49  1  0.31180000  0.76264800  0.03064300  1
  H  H50  1  0.65287800  0.80337100  0.16342200  1
  H  H51  1  0.84712200  0.80337100  0.66342200  1
  H  H52  1  0.21268200  0.81707600  0.73332800  1
  H  H53  1  0.28731800  0.81707600  0.23332800  1
  H  H54  1  0.72844300  0.83858200  0.35993600  1
  H  H55  1  0.77155700  0.83858200  0.85993600  1
  H  H56  1  0.48155100  0.85945300  0.92221200  1
  H  H57  1  0.01844900  0.85945300  0.42221200  1
  H  H58  1  0.19869700  0.89890800  0.80158400  1
  H  H59  1  0.30130300  0.89890800  0.30158400  1
  H  H60  1  0.08492600  0.89846800  0.96654600  1
  H  H61  1  0.41507400  0.89846800  0.46654600  1
  H  H62  1  0.74506100  0.91577700  0.54126800  1
  H  H63  1  0.75493900  0.91577700  0.04126800  1
  O  O0  1  0.77910200  0.03128400  0.43127900  1
  O  O1  1  0.72089800  0.03128400  0.93127900  1
  O  O2  1  0.59034200  0.03147600  0.08451900  1
  O  O3  1  0.90965800  0.03147600  0.58451900  1
  O  O4  1  0.86609800  0.05497200  0.07477000  1
  O  O5  1  0.63390200  0.05497200  0.57477000  1
  O  O6  1  0.10046000  0.06436600  0.24039300  1
  O  O7  1  0.39954000  0.06436600  0.74039300  1
  O  O8  1  0.38285800  0.06957200  0.22879200  1
  O  O9  1  0.11714200  0.06957200  0.72879200  1
  O  O10  1  0.78809700  0.11636700  0.26168700  1
  O  O11  1  0.71190300  0.11636700  0.76168700  1
  O  O12  1  0.52105900  0.16567000  0.45883400  1
  O  O13  1  0.97894100  0.16567000  0.95883400  1
  O  O14  1  0.01578500  0.17275700  0.39550000  1
  O  O15  1  0.48421500  0.17275700  0.89550000  1
  O  O16  1  0.24097200  0.20137600  0.29401200  1
  O  O17  1  0.25902800  0.20137600  0.79401200  1
  O  O18  1  0.01385200  0.20401800  0.56516200  1
  O  O19  1  0.48614800  0.20401800  0.06516200  1
  O  O20  1  0.51385200  0.29598200  0.56516200  1
  O  O21  1  0.98614800  0.29598200  0.06516200  1
  O  O22  1  0.74097200  0.29862400  0.29401200  1
  O  O23  1  0.75902800  0.29862400  0.79401200  1
  O  O24  1  0.51578500  0.32724300  0.39550000  1
  O  O25  1  0.98421500  0.32724300  0.89550000  1
  O  O26  1  0.02105900  0.33433000  0.45883400  1
  O  O27  1  0.47894100  0.33433000  0.95883400  1
  O  O28  1  0.28809700  0.38363300  0.26168700  1
  O  O29  1  0.21190300  0.38363300  0.76168700  1
  O  O30  1  0.61714200  0.43042800  0.72879200  1
  O  O31  1  0.88285800  0.43042800  0.22879200  1
  O  O32  1  0.60046000  0.43563400  0.24039300  1
  O  O33  1  0.89954000  0.43563400  0.74039300  1
  O  O34  1  0.36609800  0.44502800  0.07477000  1
  O  O35  1  0.13390200  0.44502800  0.57477000  1
  O  O36  1  0.09034200  0.46852400  0.08451900  1
  O  O37  1  0.40965800  0.46852400  0.58451900  1
  O  O38  1  0.27910200  0.46871600  0.43127900  1
  O  O39  1  0.22089800  0.46871600  0.93127900  1
  O  O40  1  0.77910200  0.53128400  0.06872100  1
  O  O41  1  0.72089800  0.53128400  0.56872100  1
  O  O42  1  0.59034200  0.53147600  0.41548100  1
  O  O43  1  0.90965800  0.53147600  0.91548100  1
  O  O44  1  0.63390200  0.55497200  0.92523000  1
  O  O45  1  0.86609800  0.55497200  0.42523000  1
  O  O46  1  0.10046000  0.56436600  0.25960700  1
  O  O47  1  0.39954000  0.56436600  0.75960700  1
  O  O48  1  0.11714200  0.56957200  0.77120800  1
  O  O49  1  0.38285800  0.56957200  0.27120800  1
  O  O50  1  0.71190300  0.61636700  0.73831300  1
  O  O51  1  0.78809700  0.61636700  0.23831300  1
  O  O52  1  0.52105900  0.66567000  0.04116600  1
  O  O53  1  0.97894100  0.66567000  0.54116600  1
  O  O54  1  0.01578500  0.67275700  0.10450000  1
  O  O55  1  0.48421500  0.67275700  0.60450000  1
  O  O56  1  0.24097200  0.70137600  0.20598800  1
  O  O57  1  0.25902800  0.70137600  0.70598800  1
  O  O58  1  0.01385200  0.70401800  0.93483800  1
  O  O59  1  0.48614800  0.70401800  0.43483800  1
  O  O60  1  0.51385200  0.79598200  0.93483800  1
  O  O61  1  0.98614800  0.79598200  0.43483800  1
  O  O62  1  0.74097200  0.79862400  0.20598800  1
  O  O63  1  0.75902800  0.79862400  0.70598800  1
  O  O64  1  0.51578500  0.82724300  0.10450000  1
  O  O65  1  0.98421500  0.82724300  0.60450000  1
  O  O66  1  0.02105900  0.83433000  0.04116600  1
  O  O67  1  0.47894100  0.83433000  0.54116600  1
  O  O68  1  0.21190300  0.88363300  0.73831300  1
  O  O69  1  0.28809700  0.88363300  0.23831300  1
  O  O70  1  0.61714200  0.93042800  0.77120800  1
  O  O71  1  0.88285800  0.93042800  0.27120800  1
  O  O72  1  0.60046000  0.93563400  0.25960700  1
  O  O73  1  0.89954000  0.93563400  0.75960700  1
  O  O74  1  0.13390200  0.94502800  0.92523000  1
  O  O75  1  0.36609800  0.94502800  0.42523000  1
  O  O76  1  0.40965800  0.96852400  0.91548100  1
  O  O77  1  0.09034200  0.96852400  0.41548100  1
  O  O78  1  0.22089800  0.96871600  0.56872100  1
  O  O79  1  0.27910200  0.96871600  0.06872100  1
loop_
_geom_bond_atom_site_label_1
_geom_bond_atom_site_label_2
_geom_bond_distance
_geom_bond_site_symmetry_2
Na0 O72 2.317406 1_545
Na0 O12 2.327116 1_555
Na0 O8 2.356095 1_555
Na0 O0 2.448252 1_555
Na0 O10 2.495506 1_555
Na0 O75 2.836201 1_545
Na1 O73 2.317406 1_545
Na1 O13 2.327116 1_555
Na1 O9 2.356095 1_655
Na1 O1 2.448252 1_555
Na1 O11 2.495506 1_555
Na1 O74 2.836201 1_645
Na2 O46 2.317406 1_555
Na2 O26 2.327116 1_555
Na2 O31 2.356095 1_455
Na2 O38 2.448252 1_555
Na2 O28 2.495506 1_555
Na2 O45 2.836201 1_455
Na3 O47 2.317406 1_555
Na3 O27 2.327116 1_555
Na3 O30 2.356095 1_555
Na3 O39 2.448252 1_555
Na3 O29 2.495506 1_555
Na3 O44 2.836201 1_555
Na4 O32 2.317406 1_555
Na4 O52 2.327116 1_555
Na4 O49 2.356095 1_555
Na4 O40 2.448252 1_555
Na4 O51 2.495506 1_555
Na4 O34 2.836201 1_555
Na5 O33 2.317406 1_555
Na5 O53 2.327116 1_555
Na5 O48 2.356095 1_655
Na5 O41 2.448252 1_555
Na5 O50 2.495506 1_555
Na5 O35 2.836201 1_655
Na6 O6 2.317406 1_565
Na6 O66 2.327116 1_555
Na6 O71 2.356095 1_455
Na6 O79 2.448252 1_555
Na6 O69 2.495506 1_555
Na6 O4 2.836201 1_465
Na7 O7 2.317406 1_565
Na7 O67 2.327116 1_555
Na7 O70 2.356095 1_555
Na7 O78 2.448252 1_555
Na7 O68 2.495506 1_555
Na7 O5 2.836201 1_565
Mg0 O6 2.064251 1_655
Mg0 O0 2.069116 1_555
Mg0 O77 2.073532 1_645
Mg0 O71 2.091103 1_545
Mg0 O10 2.144504 1_555
Mg0 O14 2.144770 1_655
Mg1 O7 2.064251 1_555
Mg1 O1 2.069116 1_555
Mg1 O76 2.073532 1_545
Mg1 O70 2.091103 1_545
Mg1 O11 2.144504 1_555
Mg1 O15 2.144770 1_555
Mg2 O32 2.064251 1_555
Mg2 O38 2.069116 1_555
Mg2 O42 2.073532 1_555
Mg2 O49 2.091103 1_555
Mg2 O28 2.144504 1_555
Mg2 O24 2.144770 1_555
Mg3 O33 2.064251 1_455
Mg3 O39 2.069116 1_555
Mg3 O43 2.073532 1_455
Mg3 O48 2.091103 1_555
Mg3 O29 2.144504 1_555
Mg3 O25 2.144770 1_455
Mg4 O47 2.064251 1_555
Mg4 O41 2.069116 1_555
Mg4 O37 2.073532 1_555
Mg4 O30 2.091103 1_555
Mg4 O50 2.144504 1_555
Mg4 O55 2.144770 1_555
Mg5 O46 2.064251 1_655
Mg5 O40 2.069116 1_555
Mg5 O36 2.073532 1_655
Mg5 O31 2.091103 1_555
Mg5 O51 2.144504 1_555
Mg5 O54 2.144770 1_655
Mg6 O73 2.064251 1_455
Mg6 O78 2.069116 1_555
Mg6 O3 2.073532 1_465
Mg6 O9 2.091103 1_565
Mg6 O68 2.144504 1_555
Mg6 O65 2.144770 1_455
Mg7 O72 2.064251 1_555
Mg7 O79 2.069116 1_555
Mg7 O2 2.073532 1_565
Mg7 O8 2.091103 1_565
Mg7 O69 2.144504 1_555
Mg7 O64 2.144770 1_555
H0 P23 1.406578 1_545
H1 P22 1.406578 1_545
H2 O5 1.029860 1_555
H2 O12 1.579413 1_555
H3 O4 1.029860 1_555
H3 O13 1.579413 1_554
H4 O10 0.981022 1_555
H5 O11 0.981022 1_555
H6 O19 1.005281 1_555
H7 O18 1.005281 1_655
H8 P2 1.406345 1_555
H9 P3 1.406345 1_555
H10 O10 0.990750 1_555
H11 O11 0.990750 1_555
H12 O16 1.029676 1_555
H12 O14 1.573547 1_555
H13 O17 1.029676 1_555
H13 O15 1.573547 1_555
H14 P4 1.411683 1_555
H15 P5 1.411683 1_555
H16 P7 1.411683 1_555
H17 P6 1.411683 1_555
H18 O22 1.029676 1_555
H18 O24 1.573547 1_555
H19 O23 1.029676 1_555
H19 O25 1.573547 1_555
H20 O28 0.990750 1_555
H21 O29 0.990750 1_555
H22 P8 1.406345 1_555
H23 P9 1.406345 1_555
H24 O21 1.005281 1_455
H25 O20 1.005281 1_555
H26 O28 0.981022 1_555
H27 O29 0.981022 1_555
H28 O34 1.029860 1_555
H28 O27 1.579413 1_554
H29 O35 1.029860 1_555
H29 O26 1.579413 1_555
H30 P13 1.406578 1_555
H31 P12 1.406578 1_555
H32 P11 1.406578 1_555
H33 P10 1.406578 1_555
H34 O44 1.029860 1_555
H34 O52 1.579413 1_556
H35 O45 1.029860 1_555
H35 O53 1.579413 1_555
H36 O50 0.981022 1_555
H37 O51 0.981022 1_555
H38 O58 1.005281 1_655
H39 O59 1.005281 1_555
H40 P14 1.406345 1_555
H41 P15 1.406345 1_555
H42 O50 0.990750 1_555
H43 O51 0.990750 1_555
H44 O56 1.029676 1_555
H44 O54 1.573547 1_555
H45 O57 1.029676 1_555
H45 O55 1.573547 1_555
H46 P16 1.411683 1_555
H47 P17 1.411683 1_555
H48 P18 1.411683 1_555
H49 P19 1.411683 1_555
H50 O62 1.029676 1_555
H50 O64 1.573547 1_555
H51 O63 1.029676 1_555
H51 O65 1.573547 1_555
H52 O68 0.990750 1_555
H53 O69 0.990750 1_555
H54 P20 1.406345 1_555
H55 P21 1.406345 1_555
H56 O60 1.005281 1_555
H57 O61 1.005281 1_455
H58 O68 0.981022 1_555
H59 O69 0.981022 1_555
H60 O74 1.029860 1_555
H60 O66 1.579413 1_556
H61 O75 1.029860 1_555
H61 O67 1.579413 1_555
H62 P1 1.406578 1_565
H63 P0 1.406578 1_565
O0 P1 1.515911 1_555
O1 P0 1.515911 1_556
O2 P0 1.523800 1_555
O3 P1 1.523800 1_555
O4 P0 1.607750 1_555
O5 P1 1.607750 1_555
O6 P2 1.518083 1_555
O7 P3 1.518083 1_555
O8 P2 1.517975 1_555
O9 P3 1.517975 1_555
O12 P7 1.517201 1_555
O13 P6 1.517201 1_655
O14 P4 1.532676 1_455
O15 P5 1.532676 1_555
O16 P2 1.608669 1_555
O17 P3 1.608669 1_555
O18 P4 1.594751 1_455
O19 P5 1.594751 1_554
O20 P7 1.594751 1_555
O21 P6 1.594751 1_654
O22 P8 1.608669 1_555
O23 P9 1.608669 1_555
O24 P7 1.532676 1_555
O25 P6 1.532676 1_655
O26 P4 1.517201 1_455
O27 P5 1.517201 1_555
O30 P9 1.517975 1_555
O31 P8 1.517975 1_555
O32 P8 1.518083 1_555
O33 P9 1.518083 1_555
O34 P10 1.607750 1_555
O35 P11 1.607750 1_555
O36 P10 1.523800 1_555
O37 P11 1.523800 1_555
O38 P11 1.515911 1_555
O39 P10 1.515911 1_556
O40 P12 1.515911 1_554
O41 P13 1.515911 1_555
O42 P13 1.523800 1_555
O43 P12 1.523800 1_555
O44 P12 1.607750 1_555
O45 P13 1.607750 1_555
O46 P14 1.518083 1_555
O47 P15 1.518083 1_555
O48 P15 1.517975 1_555
O49 P14 1.517975 1_555
O52 P19 1.517201 1_555
O53 P18 1.517201 1_655
O54 P17 1.532676 1_455
O55 P16 1.532676 1_555
O56 P14 1.608669 1_555
O57 P15 1.608669 1_555
O58 P17 1.594751 1_456
O59 P16 1.594751 1_555
O60 P19 1.594751 1_556
O61 P18 1.594751 1_655
O62 P20 1.608669 1_555
O63 P21 1.608669 1_555
O64 P19 1.532676 1_555
O65 P18 1.532676 1_655
O66 P17 1.517201 1_455
O67 P16 1.517201 1_555
O70 P21 1.517975 1_555
O71 P20 1.517975 1_555
O72 P20 1.518083 1_555
O73 P21 1.518083 1_555
O74 P22 1.607750 1_555
O75 P23 1.607750 1_555
O76 P22 1.523800 1_555
O77 P23 1.523800 1_555
O78 P23 1.515911 1_555
O79 P22 1.515911 1_554
