# generated using pymatgen
data_SbH5(Cl3O)2
_symmetry_space_group_name_H-M   'P 1'
_cell_length_a   7.11153900
_cell_length_b   7.11153889
_cell_length_c   12.78662610
_cell_angle_alpha   96.28669775
_cell_angle_beta   99.82651062
_cell_angle_gamma   119.75241313
_symmetry_Int_Tables_number   1
_chemical_formula_structural   SbH5(Cl3O)2
_chemical_formula_sum   'Sb2 H10 Cl12 O4'
_cell_volume   538.74564603
_cell_formula_units_Z   2
loop_
 _symmetry_equiv_pos_site_id
 _symmetry_equiv_pos_as_xyz
  1  'x, y, z'
loop_
 _atom_site_type_symbol
 _atom_site_label
 _atom_site_symmetry_multiplicity
 _atom_site_fract_x
 _atom_site_fract_y
 _atom_site_fract_z
 _atom_site_occupancy
  Sb  Sb0  1  0.99645600  0.24860600  0.24676300  1
  Sb  Sb1  1  0.00184200  0.74969300  0.75323700  1
  H  H0  1  0.69457900  0.43235200  0.08358100  1
  H  H1  1  0.56588100  0.51331900  0.15038700  1
  H  H2  1  0.46524700  0.46892900  0.99599900  1
  H  H3  1  0.36293200  0.41549400  0.84961300  1
  H  H4  1  0.64724300  0.88705900  0.57729600  1
  H  H5  1  0.34877100  0.61099800  0.91641900  1
  H  H6  1  0.62019000  0.06875200  0.64912800  1
  H  H7  1  0.52904600  0.02904600  0.50000000  1
  H  H8  1  0.41962400  0.97106200  0.35087200  1
  H  H9  1  0.30976300  0.06994700  0.42270400  1
  Cl  Cl0  1  0.19256900  0.07673900  0.67531500  1
  Cl  Cl1  1  0.68293900  0.58893400  0.59096100  1
  Cl  Cl2  1  0.07387300  0.99549700  0.15546300  1
  Cl  Cl3  1  0.84003400  0.91841000  0.84453700  1
  Cl  Cl4  1  0.99797300  0.09197800  0.40903900  1
  Cl  Cl5  1  0.40142300  0.51725400  0.32468500  1
  Cl  Cl6  1  0.59830700  0.98330500  0.17261400  1
  Cl  Cl7  1  0.00096100  0.41157100  0.08902000  1
  Cl  Cl8  1  0.16527500  0.57997200  0.65772200  1
  Cl  Cl9  1  0.92225000  0.50755300  0.34227800  1
  Cl  Cl10  1  0.32255100  0.91194100  0.91098000  1
  Cl  Cl11  1  0.81069000  0.42569300  0.82738600  1
  O  O0  1  0.55641500  0.43700700  0.07906800  1
  O  O1  1  0.35793900  0.47734700  0.92093200  1
  O  O2  1  0.63741700  0.02073500  0.57834100  1
  O  O3  1  0.44239400  0.05907700  0.42165900  1
loop_
_geom_bond_atom_site_label_1
_geom_bond_atom_site_label_2
_geom_bond_distance
_geom_bond_site_symmetry_2
H0 O0 0.991562 1_555
H1 O0 0.982378 1_555
H2 O1 1.146808 1_555
H2 O0 1.250571 1_556
H3 O1 0.982378 1_555
H4 O2 0.986027 1_565
H5 O1 0.991562 1_555
H6 O2 0.981095 1_555
H7 O2 1.181334 1_555
H7 O3 1.181338 1_555
H8 O3 0.981099 1_565
H9 O3 0.986023 1_555
Cl0 Sb1 2.465686 1_545
Cl1 Sb1 2.461042 1_655
Cl2 Sb0 2.376699 1_465
Cl3 Sb1 2.376693 1_655
Cl4 Sb0 2.461046 1_555
Cl5 Sb0 2.465680 1_455
Cl6 Sb0 2.421886 1_565
Cl7 Sb0 2.430965 1_455
Cl8 Sb1 2.419347 1_555
Cl9 Sb0 2.419341 1_555
Cl10 Sb1 2.430969 1_555
Cl11 Sb1 2.421886 1_655
