# generated using pymatgen
data_LiBePd2
_symmetry_space_group_name_H-M   'P 1'
_cell_length_a   4.04910937
_cell_length_b   4.04910937
_cell_length_c   4.04910937
_cell_angle_alpha   60.01498359
_cell_angle_beta   60.01498359
_cell_angle_gamma   60.01498359
_symmetry_Int_Tables_number   1
_chemical_formula_structural   LiBePd2
_chemical_formula_sum   'Li1 Be1 Pd2'
_cell_volume   46.95815489
_cell_formula_units_Z   1
loop_
 _symmetry_equiv_pos_site_id
 _symmetry_equiv_pos_as_xyz
  1  'x, y, z'
loop_
 _atom_site_type_symbol
 _atom_site_label
 _atom_site_symmetry_multiplicity
 _atom_site_fract_x
 _atom_site_fract_y
 _atom_site_fract_z
 _atom_site_occupancy
  Li  Li0  1  0.75000000  0.75000000  0.75000000  1
  Be  Be0  1  0.24999900  0.24999900  0.24999900  1
  Pd  Pd0  1  0.00001472  0.00001472  0.00001472  1
  Pd  Pd1  1  0.49998828  0.49998828  0.49998828  1
loop_
_geom_bond_atom_site_label_1
_geom_bond_atom_site_label_2
_geom_bond_distance
_geom_bond_site_symmetry_2
Li0 Pd1 2.479398 1_555
Li0 Pd0 2.479428 1_666
Li0 Pd0 2.479982 1_656
Li0 Pd0 2.479982 1_665
Li0 Pd0 2.479982 1_566
Li0 Pd1 2.479992 1_655
Li0 Pd1 2.479992 1_565
Li0 Pd1 2.479992 1_556
Be0 Pd0 2.479126 1_555
Be0 Pd1 2.479176 1_555
Be0 Pd1 2.480066 1_455
Be0 Pd1 2.480066 1_545
Be0 Pd1 2.480066 1_554
Be0 Pd0 2.480083 1_556
Be0 Pd0 2.480083 1_565
Be0 Pd0 2.480083 1_655
