# generated using pymatgen
data_Sr2Cr2O7
_symmetry_space_group_name_H-M   'P 1'
_cell_length_a   7.12553000
_cell_length_b   7.21263303
_cell_length_c   13.08053469
_cell_angle_alpha   82.31711482
_cell_angle_beta   87.57129250
_cell_angle_gamma   88.86223673
_symmetry_Int_Tables_number   1
_chemical_formula_structural   Sr2Cr2O7
_chemical_formula_sum   'Sr8 Cr8 O28'
_cell_volume   665.55724402
_cell_formula_units_Z   4
loop_
 _symmetry_equiv_pos_site_id
 _symmetry_equiv_pos_as_xyz
  1  'x, y, z'
loop_
 _atom_site_type_symbol
 _atom_site_label
 _atom_site_symmetry_multiplicity
 _atom_site_fract_x
 _atom_site_fract_y
 _atom_site_fract_z
 _atom_site_occupancy
  Sr  Sr0  1  0.07638500  0.84583400  0.15588100  1
  Sr  Sr1  1  0.23460700  0.22465600  0.35114000  1
  Sr  Sr2  1  0.33128300  0.76362100  0.85970000  1
  Sr  Sr3  1  0.37335400  0.37582800  0.63754800  1
  Sr  Sr4  1  0.62664600  0.62417200  0.36245200  1
  Sr  Sr5  1  0.66871700  0.23637900  0.14030000  1
  Sr  Sr6  1  0.76539300  0.77534400  0.64886000  1
  Sr  Sr7  1  0.92361500  0.15416600  0.84411900  1
  Cr  Cr0  1  0.15499900  0.31266500  0.08875000  1
  Cr  Cr1  1  0.16436700  0.69516900  0.40830000  1
  Cr  Cr2  1  0.23035800  0.89651700  0.60832200  1
  Cr  Cr3  1  0.43213000  0.28266700  0.89404200  1
  Cr  Cr4  1  0.56787000  0.71733300  0.10595800  1
  Cr  Cr5  1  0.76964200  0.10348300  0.39167800  1
  Cr  Cr6  1  0.83563300  0.30483100  0.59170000  1
  Cr  Cr7  1  0.84500100  0.68733500  0.91125000  1
  O  O0  1  0.01488700  0.37415200  0.65551900  1
  O  O1  1  0.06512000  0.47827300  0.15417600  1
  O  O2  1  0.00565500  0.83058800  0.95154100  1
  O  O3  1  0.08274000  0.78536100  0.52627800  1
  O  O4  1  0.07587900  0.91670300  0.71160800  1
  O  O5  1  0.30664900  0.17039000  0.16601800  1
  O  O6  1  0.30205200  0.85306100  0.33657400  1
  O  O7  1  0.30076400  0.10195800  0.54358300  1
  O  O8  1  0.31008500  0.50340600  0.44548200  1
  O  O9  1  0.29120700  0.14477400  0.83451300  1
  O  O10  1  0.29582100  0.41919300  0.97792200  1
  O  O11  1  0.37753900  0.81354500  0.04639700  1
  O  O12  1  0.40311400  0.74700500  0.65567700  1
  O  O13  1  0.50288200  0.53660200  0.19896300  1
  O  O14  1  0.49711800  0.46339800  0.80103700  1
  O  O15  1  0.59688600  0.25299500  0.34432300  1
  O  O16  1  0.62246100  0.18645500  0.95360300  1
  O  O17  1  0.70417900  0.58080700  0.02207800  1
  O  O18  1  0.70879300  0.85522600  0.16548700  1
  O  O19  1  0.68991500  0.49659400  0.55451800  1
  O  O20  1  0.69923600  0.89804200  0.45641700  1
  O  O21  1  0.69794800  0.14693900  0.66342600  1
  O  O22  1  0.69335100  0.82961000  0.83398200  1
  O  O23  1  0.92412100  0.08329700  0.28839200  1
  O  O24  1  0.91726000  0.21463900  0.47372200  1
  O  O25  1  0.99434500  0.16941200  0.04845900  1
  O  O26  1  0.93488000  0.52172700  0.84582400  1
  O  O27  1  0.98511300  0.62584800  0.34448100  1
loop_
_geom_bond_atom_site_label_1
_geom_bond_atom_site_label_2
_geom_bond_distance
_geom_bond_site_symmetry_2
Cr0 O1 1.663074 1_555
Cr0 O25 1.702783 1_455
Cr0 O5 1.735928 1_555
Cr0 O10 1.818884 1_554
Cr1 O27 1.675001 1_455
Cr1 O6 1.679387 1_555
Cr1 O8 1.741713 1_555
Cr1 O3 1.822173 1_555
Cr2 O7 1.680012 1_565
Cr2 O12 1.701527 1_555
Cr2 O4 1.725783 1_555
Cr2 O3 1.805574 1_555
Cr3 O16 1.683882 1_555
Cr3 O9 1.707870 1_555
Cr3 O14 1.716357 1_555
Cr3 O10 1.810373 1_555
Cr4 O11 1.683882 1_555
Cr4 O18 1.707870 1_555
Cr4 O13 1.716357 1_555
Cr4 O17 1.810373 1_555
Cr5 O20 1.680012 1_545
Cr5 O15 1.701527 1_555
Cr5 O23 1.725783 1_555
Cr5 O24 1.805574 1_555
Cr6 O0 1.675001 1_655
Cr6 O21 1.679387 1_555
Cr6 O19 1.741713 1_555
Cr6 O24 1.822173 1_555
Cr7 O26 1.663074 1_555
Cr7 O2 1.702783 1_655
Cr7 O22 1.735928 1_555
Cr7 O17 1.818884 1_556
O0 Sr3 2.555242 1_555
O0 Sr7 2.808014 1_455
O1 Sr0 2.656989 1_555
O2 Sr7 2.627088 1_465
O2 Sr2 2.633354 1_555
O2 Sr0 2.757775 1_556
O3 Sr6 2.712522 1_455
O4 Sr6 2.659896 1_455
O4 Sr7 2.770482 1_465
O4 Sr2 2.816138 1_555
O5 Sr1 2.533857 1_555
O5 Sr5 2.632132 1_555
O5 Sr0 2.905761 1_545
O6 Sr1 2.743765 1_565
O6 Sr4 2.820434 1_555
O6 Sr0 2.921160 1_555
O7 Sr3 2.534520 1_555
O7 Sr1 2.613493 1_555
O8 Sr1 2.572332 1_555
O8 Sr4 2.577547 1_555
O8 Sr3 2.612114 1_555
O9 Sr7 2.616941 1_455
O9 Sr2 2.735390 1_545
O9 Sr3 2.919015 1_555
O10 Sr2 2.755226 1_555
O11 Sr2 2.551507 1_554
O11 Sr0 2.553205 1_555
O12 Sr6 2.590383 1_555
O12 Sr2 2.713995 1_555
O12 Sr3 2.732208 1_555
O13 Sr4 2.508594 1_555
O13 Sr5 2.634370 1_555
O14 Sr3 2.508594 1_555
O14 Sr2 2.634370 1_555
O15 Sr1 2.590383 1_555
O15 Sr5 2.713995 1_555
O15 Sr4 2.732208 1_555
O16 Sr5 2.551507 1_556
O16 Sr7 2.553205 1_555
O17 Sr5 2.755226 1_555
O18 Sr0 2.616941 1_655
O18 Sr5 2.735390 1_565
O18 Sr4 2.919015 1_555
O19 Sr6 2.572332 1_555
O19 Sr3 2.577547 1_555
O19 Sr4 2.612114 1_555
O20 Sr4 2.534520 1_555
O20 Sr6 2.613493 1_555
O21 Sr6 2.743765 1_545
O21 Sr3 2.820434 1_555
O21 Sr7 2.921160 1_555
O22 Sr6 2.533857 1_555
O22 Sr2 2.632132 1_555
O22 Sr7 2.905761 1_565
O23 Sr1 2.659896 1_655
O23 Sr0 2.770482 1_645
O23 Sr5 2.816138 1_555
O24 Sr1 2.712522 1_655
O25 Sr0 2.627088 1_645
O25 Sr5 2.633354 1_555
O25 Sr7 2.757775 1_554
O26 Sr7 2.656989 1_555
O27 Sr4 2.555242 1_555
O27 Sr0 2.808014 1_655
