# generated using pymatgen
data_HfScRh2
_symmetry_space_group_name_H-M   'P 1'
_cell_length_a   4.57116427
_cell_length_b   4.57116934
_cell_length_c   4.57116427
_cell_angle_alpha   59.99993199
_cell_angle_beta   60.00006284
_cell_angle_gamma   60.00010997
_symmetry_Int_Tables_number   1
_chemical_formula_structural   HfScRh2
_chemical_formula_sum   'Hf1 Sc1 Rh2'
_cell_volume   67.54081764
_cell_formula_units_Z   1
loop_
 _symmetry_equiv_pos_site_id
 _symmetry_equiv_pos_as_xyz
  1  'x, y, z'
loop_
 _atom_site_type_symbol
 _atom_site_label
 _atom_site_symmetry_multiplicity
 _atom_site_fract_x
 _atom_site_fract_y
 _atom_site_fract_z
 _atom_site_occupancy
  Hf  Hf0  1  0.24999900  0.25000000  0.25000000  1
  Sc  Sc0  1  0.75000000  0.75000000  0.75000000  1
  Rh  Rh0  1  -0.00000000  0.00000000  0.00000000  1
  Rh  Rh1  1  0.49999900  0.50000000  0.49999900  1
loop_
_geom_bond_atom_site_label_1
_geom_bond_atom_site_label_2
_geom_bond_distance
_geom_bond_site_symmetry_2
Hf0 Rh1 2.799252 1_555
Hf0 Rh0 2.799252 1_555
Hf0 Rh0 2.799254 1_556
Hf0 Rh1 2.799258 1_554
Hf0 Rh0 2.799259 1_565
Hf0 Rh1 2.799259 1_545
Hf0 Rh1 2.799259 1_455
Hf0 Rh0 2.799263 1_655
Rh0 Sc0 2.799254 1_445
Rh0 Sc0 2.799255 1_444
Rh0 Sc0 2.799259 1_454
Rh0 Sc0 2.799259 1_544
Rh1 Sc0 2.799250 1_554
Rh1 Sc0 2.799255 1_455
Rh1 Sc0 2.799259 1_545
Rh1 Sc0 2.799263 1_555
