# generated using pymatgen
data_LuRh2Pb
_symmetry_space_group_name_H-M   'P 1'
_cell_length_a   4.67729924
_cell_length_b   4.67729924
_cell_length_c   4.67729924
_cell_angle_alpha   60.00000000
_cell_angle_beta   60.00000000
_cell_angle_gamma   60.00000000
_symmetry_Int_Tables_number   1
_chemical_formula_structural   LuRh2Pb
_chemical_formula_sum   'Lu1 Rh2 Pb1'
_cell_volume   72.35532010
_cell_formula_units_Z   1
loop_
 _symmetry_equiv_pos_site_id
 _symmetry_equiv_pos_as_xyz
  1  'x, y, z'
loop_
 _atom_site_type_symbol
 _atom_site_label
 _atom_site_symmetry_multiplicity
 _atom_site_fract_x
 _atom_site_fract_y
 _atom_site_fract_z
 _atom_site_occupancy
  Lu  Lu0  1  0.24999900  0.24999900  0.24999900  1
  Rh  Rh0  1  -0.00000000  -0.00000000  0.00000000  1
  Rh  Rh1  1  0.50000000  0.50000000  0.50000000  1
  Pb  Pb0  1  0.74999900  0.74999900  0.74999900  1
loop_
_geom_bond_atom_site_label_1
_geom_bond_atom_site_label_2
_geom_bond_distance
_geom_bond_site_symmetry_2
Lu0 Rh0 2.864238 1_555
Lu0 Rh1 2.864245 1_554
Lu0 Rh1 2.864245 1_455
Lu0 Rh1 2.864245 1_545
Lu0 Rh0 2.864253 1_556
Lu0 Rh0 2.864253 1_655
Lu0 Rh0 2.864253 1_565
Lu0 Rh1 2.864261 1_555
Lu0 Pb0 3.307350 1_554
Lu0 Pb0 3.307350 1_454
Lu0 Pb0 3.307350 1_544
Lu0 Pb0 3.307350 1_445
Lu0 Pb0 3.307350 1_455
Lu0 Pb0 3.307350 1_545
Pb0 Rh1 2.864238 1_555
Pb0 Rh0 2.864245 1_566
Pb0 Rh0 2.864245 1_665
Pb0 Rh0 2.864245 1_656
Pb0 Rh1 2.864253 1_556
Pb0 Rh1 2.864253 1_565
Pb0 Rh1 2.864253 1_655
Pb0 Rh0 2.864261 1_666
