# generated using pymatgen
data_Tl6TeO6
_symmetry_space_group_name_H-M   'P 1'
_cell_length_a   6.60301933
_cell_length_b   6.60301949
_cell_length_c   6.60302022
_cell_angle_alpha   94.35468036
_cell_angle_beta   94.35468248
_cell_angle_gamma   94.35469189
_symmetry_Int_Tables_number   1
_chemical_formula_structural   Tl6TeO6
_chemical_formula_sum   'Tl6 Te1 O6'
_cell_volume   285.26304769
_cell_formula_units_Z   1
loop_
 _symmetry_equiv_pos_site_id
 _symmetry_equiv_pos_as_xyz
  1  'x, y, z'
loop_
 _atom_site_type_symbol
 _atom_site_label
 _atom_site_symmetry_multiplicity
 _atom_site_fract_x
 _atom_site_fract_y
 _atom_site_fract_z
 _atom_site_occupancy
  Tl  Tl0  1  0.72631443  0.43902059  0.87278577  1
  Tl  Tl1  1  0.43902059  0.87278577  0.72631443  1
  Tl  Tl2  1  0.87278577  0.72631443  0.43902059  1
  Tl  Tl3  1  0.27368557  0.56097941  0.12721423  1
  Tl  Tl4  1  0.56097941  0.12721423  0.27368557  1
  Tl  Tl5  1  0.12721423  0.27368557  0.56097941  1
  Te  Te0  1  -0.00000000  0.00000000  0.00000000  1
  O  O0  1  0.01305182  0.97252617  0.70732756  1
  O  O1  1  0.97252617  0.70732756  0.01305182  1
  O  O2  1  0.70732756  0.01305182  0.97252617  1
  O  O3  1  0.98694818  0.02747383  0.29267244  1
  O  O4  1  0.02747383  0.29267244  0.98694818  1
  O  O5  1  0.29267244  0.98694818  0.02747383  1
loop_
_geom_bond_atom_site_label_1
_geom_bond_atom_site_label_2
_geom_bond_distance
_geom_bond_site_symmetry_2
O0 Te0 1.936338 1_566
O0 Tl5 2.373021 1_565
O0 Tl2 2.392551 1_455
O1 Te0 1.936338 1_665
O1 Tl3 2.373021 1_655
O1 Tl0 2.392551 1_554
O2 Te0 1.936338 1_656
O2 Tl4 2.373021 1_556
O2 Tl1 2.392551 1_545
O3 Te0 1.936338 1_655
O3 Tl2 2.373021 1_545
O3 Tl5 2.392551 1_655
O4 Te0 1.936338 1_556
O4 Tl0 2.373021 1_455
O4 Tl3 2.392551 1_556
O5 Te0 1.936338 1_565
O5 Tl1 2.373021 1_554
O5 Tl4 2.392551 1_565
