# generated using pymatgen
data_LiGa3
_symmetry_space_group_name_H-M   'P 1'
_cell_length_a   4.07154800
_cell_length_b   4.07154800
_cell_length_c   4.07154800
_cell_angle_alpha   90.00000000
_cell_angle_beta   90.00000000
_cell_angle_gamma   90.00000000
_symmetry_Int_Tables_number   1
_chemical_formula_structural   LiGa3
_chemical_formula_sum   'Li1 Ga3'
_cell_volume   67.49609966
_cell_formula_units_Z   1
loop_
 _symmetry_equiv_pos_site_id
 _symmetry_equiv_pos_as_xyz
  1  'x, y, z'
loop_
 _atom_site_type_symbol
 _atom_site_label
 _atom_site_symmetry_multiplicity
 _atom_site_fract_x
 _atom_site_fract_y
 _atom_site_fract_z
 _atom_site_occupancy
  Li  Li0  1  0.00000000  0.00000000  0.00000000  1
  Ga  Ga0  1  0.50000000  0.00000000  0.50000000  1
  Ga  Ga1  1  0.00000000  0.50000000  0.50000000  1
  Ga  Ga2  1  0.50000000  0.50000000  0.00000000  1
loop_
_geom_bond_atom_site_label_1
_geom_bond_atom_site_label_2
_geom_bond_distance
_geom_bond_site_symmetry_2
Ga0 Li0 2.879019 1_655
Ga0 Ga1 2.879019 1_645
Ga0 Ga1 2.879019 1_555
Ga0 Ga1 2.879019 1_655
Ga0 Ga2 2.879019 1_546
Ga0 Ga2 2.879019 1_555
Ga0 Ga2 2.879019 1_545
Ga0 Li0 2.879019 1_556
Ga0 Li0 2.879019 1_555
Ga0 Ga1 2.879019 1_545
Ga0 Ga2 2.879019 1_556
Ga0 Li0 2.879019 1_656
Ga1 Ga2 2.879019 1_456
Ga1 Ga2 2.879019 1_555
Ga1 Ga2 2.879019 1_455
Ga1 Li0 2.879019 1_556
Ga1 Li0 2.879019 1_555
Ga1 Ga2 2.879019 1_556
Ga1 Li0 2.879019 1_566
Ga1 Li0 2.879019 1_565
Ga2 Li0 2.879019 1_655
Ga2 Li0 2.879019 1_665
Ga2 Li0 2.879019 1_555
Ga2 Li0 2.879019 1_565
