# generated using pymatgen
data_ScSnRh2
_symmetry_space_group_name_H-M   'P 1'
_cell_length_a   4.53887943
_cell_length_b   4.53758645
_cell_length_c   4.53792037
_cell_angle_alpha   60.01629522
_cell_angle_beta   59.98877420
_cell_angle_gamma   59.99386651
_symmetry_Int_Tables_number   1
_chemical_formula_structural   ScSnRh2
_chemical_formula_sum   'Sc1 Sn1 Rh2'
_cell_volume   66.08636771
_cell_formula_units_Z   1
loop_
 _symmetry_equiv_pos_site_id
 _symmetry_equiv_pos_as_xyz
  1  'x, y, z'
loop_
 _atom_site_type_symbol
 _atom_site_label
 _atom_site_symmetry_multiplicity
 _atom_site_fract_x
 _atom_site_fract_y
 _atom_site_fract_z
 _atom_site_occupancy
  Sc  Sc0  1  0.24999994  0.24999917  0.24999911  1
  Sn  Sn0  1  0.74999921  0.74999994  0.74999915  1
  Rh  Rh0  1  0.99999481  0.00000550  0.99998676  1
  Rh  Rh1  1  0.50000504  0.49999438  0.50001297  1
loop_
_geom_bond_atom_site_label_1
_geom_bond_atom_site_label_2
_geom_bond_distance
_geom_bond_site_symmetry_2
Rh0 Sn0 2.778964 1_555
Rh0 Sc0 2.778987 1_556
Rh0 Sn0 2.778991 1_545
Rh0 Sc0 2.779001 1_655
Rh0 Sc0 2.779008 1_646
Rh0 Sn0 2.779022 1_645
Rh0 Sc0 2.779074 1_656
Rh0 Sn0 2.779093 1_546
Rh1 Sn0 2.778964 1_545
Rh1 Sn0 2.778980 1_555
Rh1 Sc0 2.778987 1_655
Rh1 Sc0 2.778995 1_556
Rh1 Sc0 2.779003 1_565
Rh1 Sn0 2.779028 1_455
Rh1 Sc0 2.779085 1_555
Rh1 Sn0 2.779098 1_554
