# generated using pymatgen
data_Mg(BeAs)2
_symmetry_space_group_name_H-M   'P 1'
_cell_length_a   3.78496997
_cell_length_b   3.78498590
_cell_length_c   6.41449385
_cell_angle_alpha   90.00106801
_cell_angle_beta   89.99850640
_cell_angle_gamma   119.99740324
_symmetry_Int_Tables_number   1
_chemical_formula_structural   Mg(BeAs)2
_chemical_formula_sum   'Mg1 Be2 As2'
_cell_volume   79.58497655
_cell_formula_units_Z   1
loop_
 _symmetry_equiv_pos_site_id
 _symmetry_equiv_pos_as_xyz
  1  'x, y, z'
loop_
 _atom_site_type_symbol
 _atom_site_label
 _atom_site_symmetry_multiplicity
 _atom_site_fract_x
 _atom_site_fract_y
 _atom_site_fract_z
 _atom_site_occupancy
  Mg  Mg0  1  0.00000004  0.00000001  0.00000001  1
  Be  Be0  1  0.66669571  0.33334690  0.37386033  1
  Be  Be1  1  0.33330409  0.66665327  0.62613967  1
  As  As0  1  0.33337638  0.66668781  0.26379910  1
  As  As1  1  0.66662277  0.33331301  0.73620090  1
loop_
_geom_bond_atom_site_label_1
_geom_bond_atom_site_label_2
_geom_bond_distance
_geom_bond_site_symmetry_2
As0 Be0 2.296439 1_555
As0 Be0 2.296500 1_565
As0 Be0 2.296550 1_455
As0 Be1 2.324231 1_555
As0 Mg0 2.763721 1_665
As0 Mg0 2.763885 1_565
As0 Mg0 2.763912 1_555
As1 Be1 2.296435 1_555
As1 Be1 2.296502 1_545
As1 Be1 2.296552 1_655
As1 Be0 2.324231 1_555
As1 Mg0 2.763719 1_556
As1 Mg0 2.763890 1_656
As1 Mg0 2.763910 1_666
