# generated using pymatgen
data_BaMgTe2O7
_symmetry_space_group_name_H-M   'P 1'
_cell_length_a   8.57271683
_cell_length_b   8.57271683
_cell_length_c   5.65639400
_cell_angle_alpha   90.00000000
_cell_angle_beta   90.00000000
_cell_angle_gamma   128.89069034
_symmetry_Int_Tables_number   1
_chemical_formula_structural   BaMgTe2O7
_chemical_formula_sum   'Ba2 Mg2 Te4 O14'
_cell_volume   323.55554409
_cell_formula_units_Z   2
loop_
 _symmetry_equiv_pos_site_id
 _symmetry_equiv_pos_as_xyz
  1  'x, y, z'
loop_
 _atom_site_type_symbol
 _atom_site_label
 _atom_site_symmetry_multiplicity
 _atom_site_fract_x
 _atom_site_fract_y
 _atom_site_fract_z
 _atom_site_occupancy
  Ba  Ba0  1  0.33603600  0.92030700  0.75000000  1
  Ba  Ba1  1  0.92030700  0.33603600  0.25000000  1
  Mg  Mg0  1  0.76054700  0.52564100  0.75000000  1
  Mg  Mg1  1  0.52564100  0.76054700  0.25000000  1
  Te  Te0  1  0.44749900  0.29980900  0.25000000  1
  Te  Te1  1  0.96768400  0.81133600  0.25000000  1
  Te  Te2  1  0.81133600  0.96768400  0.75000000  1
  Te  Te3  1  0.29980900  0.44749900  0.75000000  1
  O  O0  1  0.00548200  0.00548200  0.50000000  1
  O  O1  1  0.00548200  0.00548200  0.00000000  1
  O  O2  1  0.67734500  0.64834100  0.25000000  1
  O  O3  1  0.26793200  0.99392900  0.25000000  1
  O  O4  1  0.58298400  0.29544300  0.99319200  1
  O  O5  1  0.58298400  0.29544300  0.50680800  1
  O  O6  1  0.97517200  0.66209200  0.49340300  1
  O  O7  1  0.97517200  0.66209200  0.00659700  1
  O  O8  1  0.66209200  0.97517200  0.99340300  1
  O  O9  1  0.66209200  0.97517200  0.50659700  1
  O  O10  1  0.29544300  0.58298400  0.49319200  1
  O  O11  1  0.29544300  0.58298400  0.00680800  1
  O  O12  1  0.99392900  0.26793200  0.75000000  1
  O  O13  1  0.64834100  0.67734500  0.75000000  1
loop_
_geom_bond_atom_site_label_1
_geom_bond_atom_site_label_2
_geom_bond_distance
_geom_bond_site_symmetry_2
Ba0 O7 2.824553 1_456
Ba0 O6 2.824553 1_455
Ba0 O4 2.857864 1_565
Ba0 O5 2.857864 1_565
Ba0 O8 2.877324 1_555
Ba0 O9 2.877324 1_555
Ba0 O3 3.033248 1_555
Ba0 O3 3.033248 1_556
Ba0 O11 3.054492 1_556
Ba0 O10 3.054492 1_555
Ba1 O8 2.824553 1_544
Ba1 O9 2.824553 1_545
Ba1 O11 2.857864 1_655
Ba1 O10 2.857864 1_655
Ba1 O7 2.877324 1_555
Ba1 O6 2.877324 1_555
Ba1 O12 3.033248 1_554
Ba1 O12 3.033248 1_555
Ba1 O4 3.054492 1_554
Ba1 O5 3.054492 1_555
Mg0 O7 2.039045 1_556
Mg0 O6 2.039045 1_555
Mg0 O13 2.046322 1_555
Mg0 O4 2.081289 1_555
Mg0 O5 2.081289 1_555
Mg1 O8 2.039045 1_554
Mg1 O9 2.039045 1_555
Mg1 O2 2.046322 1_555
Mg1 O10 2.081289 1_555
Mg1 O11 2.081289 1_555
O0 Te2 2.048797 1_445
O0 Te1 2.048797 1_445
O1 Te2 2.048797 1_444
O1 Te1 2.048797 1_445
O2 Te1 1.944342 1_555
O2 Te0 2.327511 1_555
O3 Te1 2.004056 1_455
O3 Te0 2.043795 1_565
O4 Te0 1.874854 1_556
O5 Te0 1.874854 1_555
O6 Te1 1.907803 1_555
O7 Te1 1.907803 1_555
O8 Te2 1.907803 1_555
O9 Te2 1.907803 1_555
O10 Te3 1.874854 1_555
O11 Te3 1.874854 1_554
O12 Te2 2.004056 1_545
O12 Te3 2.043795 1_655
O13 Te2 1.944342 1_555
O13 Te3 2.327511 1_555
