# generated using pymatgen
data_SrGaSn
_symmetry_space_group_name_H-M   'P 1'
_cell_length_a   4.56551223
_cell_length_b   4.56551105
_cell_length_c   18.96033332
_cell_angle_alpha   90.00000000
_cell_angle_beta   90.00000000
_cell_angle_gamma   119.99999399
_symmetry_Int_Tables_number   1
_chemical_formula_structural   SrGaSn
_chemical_formula_sum   'Sr4 Ga4 Sn4'
_cell_volume   342.25951819
_cell_formula_units_Z   4
loop_
 _symmetry_equiv_pos_site_id
 _symmetry_equiv_pos_as_xyz
  1  'x, y, z'
loop_
 _atom_site_type_symbol
 _atom_site_label
 _atom_site_symmetry_multiplicity
 _atom_site_fract_x
 _atom_site_fract_y
 _atom_site_fract_z
 _atom_site_occupancy
  Sr  Sr0  1  -0.00000000  -0.00000000  0.00000000  1
  Sr  Sr1  1  -0.00000000  -0.00000000  0.25000000  1
  Sr  Sr2  1  -0.00000000  -0.00000000  0.50000000  1
  Sr  Sr3  1  -0.00000000  -0.00000000  0.75000000  1
  Ga  Ga0  1  0.66666700  0.33333300  0.83895501  1
  Ga  Ga1  1  0.33333300  0.66666700  0.33895501  1
  Ga  Ga2  1  0.66666700  0.33333300  0.66104499  1
  Ga  Ga3  1  0.33333300  0.66666700  0.16104499  1
  Sn  Sn0  1  0.33333300  0.66666700  0.61644718  1
  Sn  Sn1  1  0.66666700  0.33333300  0.11644718  1
  Sn  Sn2  1  0.66666700  0.33333300  0.38355282  1
  Sn  Sn3  1  0.33333300  0.66666700  0.88355282  1
loop_
_geom_bond_atom_site_label_1
_geom_bond_atom_site_label_2
_geom_bond_distance
_geom_bond_site_symmetry_2
Ga0 Sn3 2.768207 1_545
Ga0 Sn3 2.768208 1_655
Ga0 Sn3 2.768215 1_555
Ga0 Sr3 3.129317 1_655
Ga0 Sr3 3.129321 1_665
Ga0 Sr3 3.129321 1_555
Ga1 Sn2 2.768207 1_565
Ga1 Sn2 2.768208 1_455
Ga1 Sn2 2.768215 1_555
Ga1 Sr1 3.129317 1_565
Ga1 Sr1 3.129321 1_555
Ga1 Sr1 3.129321 1_665
Ga2 Sn0 2.768207 1_545
Ga2 Sn0 2.768208 1_655
Ga2 Sn0 2.768215 1_555
Ga2 Sr3 3.129317 1_655
Ga2 Sr3 3.129321 1_665
Ga2 Sr3 3.129321 1_555
Ga3 Sn1 2.768207 1_565
Ga3 Sn1 2.768208 1_455
Ga3 Sn1 2.768215 1_555
Ga3 Sr1 3.129317 1_565
Ga3 Sr1 3.129321 1_555
Ga3 Sr1 3.129321 1_665
Sn0 Sr2 3.438411 1_565
Sn0 Sr2 3.438414 1_555
Sn0 Sr2 3.438415 1_665
Sn1 Sr0 3.438411 1_655
Sn1 Sr0 3.438414 1_665
Sn1 Sr0 3.438415 1_555
Sn2 Sr2 3.438411 1_655
Sn2 Sr2 3.438414 1_665
Sn2 Sr2 3.438415 1_555
Sn3 Sr0 3.438411 1_566
Sn3 Sr0 3.438414 1_556
Sn3 Sr0 3.438415 1_666
