# generated using pymatgen
data_LiMnP2O7
_symmetry_space_group_name_H-M   'P 1'
_cell_length_a   9.75146700
_cell_length_b   9.75416654
_cell_length_c   11.17259618
_cell_angle_alpha   90.17062521
_cell_angle_beta   101.77541046
_cell_angle_gamma   90.22548505
_symmetry_Int_Tables_number   1
_chemical_formula_structural   LiMnP2O7
_chemical_formula_sum   'Li8 Mn8 P16 O56'
_cell_volume   1040.32821492
_cell_formula_units_Z   8
loop_
 _symmetry_equiv_pos_site_id
 _symmetry_equiv_pos_as_xyz
  1  'x, y, z'
loop_
 _atom_site_type_symbol
 _atom_site_label
 _atom_site_symmetry_multiplicity
 _atom_site_fract_x
 _atom_site_fract_y
 _atom_site_fract_z
 _atom_site_occupancy
  Li  Li0  1  0.59356900  0.60852100  0.02616500  1
  Li  Li1  1  0.66156200  0.91468500  0.54006700  1
  Li  Li2  1  0.61111100  0.22203600  0.44949800  1
  Li  Li3  1  0.41416200  0.39514500  0.97350600  1
  Li  Li4  1  0.35197300  0.09391200  0.95356500  1
  Li  Li5  1  0.08455900  0.90213600  0.02547100  1
  Li  Li6  1  0.16059700  0.58014900  0.53474000  1
  Li  Li7  1  0.10911400  0.28390500  0.45092600  1
  Mn  Mn0  1  0.79791400  0.92255300  0.32624800  1
  Mn  Mn1  1  0.74504200  0.20933600  0.16984200  1
  Mn  Mn2  1  0.77881900  0.72373100  0.83317200  1
  Mn  Mn3  1  0.69520900  0.42915200  0.66977600  1
  Mn  Mn4  1  0.29641800  0.57321200  0.32181400  1
  Mn  Mn5  1  0.22566400  0.27900200  0.16376600  1
  Mn  Mn6  1  0.27037800  0.78460700  0.83024500  1
  Mn  Mn7  1  0.19309200  0.07112500  0.66591500  1
  P  P0  1  0.97317800  0.44587200  0.24672100  1
  P  P1  1  0.88580600  0.71199400  0.11641400  1
  P  P2  1  0.93591800  0.92985600  0.75676500  1
  P  P3  1  0.86895100  0.15263400  0.57486000  1
  P  P4  1  0.61959500  0.64043700  0.42750100  1
  P  P5  1  0.56318600  0.42477300  0.23995600  1
  P  P6  1  0.47601400  0.05522600  0.24353400  1
  P  P7  1  0.62307800  0.21035600  0.88463200  1
  P  P8  1  0.38321600  0.79142700  0.11323200  1
  P  P9  1  0.53233900  0.93977700  0.75846000  1
  P  P10  1  0.43914200  0.56829200  0.75844300  1
  P  P11  1  0.36892100  0.34502000  0.57463200  1
  P  P12  1  0.12127400  0.85611400  0.42674700  1
  P  P13  1  0.06928900  0.07519300  0.24210900  1
  P  P14  1  0.11235100  0.28772000  0.88541600  1
  P  P15  1  0.03214100  0.56042600  0.75888400  1
  O  O0  1  0.97986400  0.41933000  0.37872500  1
  O  O1  1  0.96394300  0.85166100  0.43105900  1
  O  O2  1  0.92041200  0.08742700  0.26701200  1
  O  O3  1  0.88665900  0.34477000  0.15400400  1
  O  O4  1  0.90008400  0.59124000  0.21641400  1
  O  O5  1  0.81314600  0.82591400  0.17721700  1
  O  O6  1  0.77829600  0.65843700  0.00140100  1
  O  O7  1  0.97787100  0.25845100  0.92093600  1
  O  O8  1  0.87826600  0.07591100  0.70467600  1
  O  O9  1  0.93375300  0.91641700  0.88987900  1
  O  O10  1  0.88386400  0.55850300  0.79341100  1
  O  O11  1  0.79642200  0.28753300  0.58945600  1
  O  O12  1  0.82872800  0.82209900  0.68914300  1
  O  O13  1  0.77396900  0.06226200  0.47661900  1
  O  O14  1  0.70456000  0.55941000  0.53422800  1
  O  O15  1  0.66123000  0.30677700  0.29807200  1
  O  O16  1  0.67581500  0.78389600  0.41477000  1
  O  O17  1  0.63053200  0.04378100  0.21391600  1
  O  O18  1  0.63210700  0.56411300  0.30214000  1
  O  O19  1  0.56696100  0.43584900  0.10646200  1
  O  O20  1  0.52020400  0.76504600  0.07917700  1
  O  O21  1  0.72668200  0.15969200  0.99894300  1
  O  O22  1  0.68245500  0.32973500  0.82010400  1
  O  O23  1  0.60544600  0.08789500  0.78505600  1
  O  O24  1  0.58642100  0.58240600  0.72717900  1
  O  O25  1  0.62150200  0.83923600  0.84851000  1
  O  O26  1  0.47862800  0.09006800  0.37330600  1
  O  O27  1  0.51797200  0.33326400  0.55590700  1
  O  O28  1  0.46033900  0.64378700  0.42917200  1
  O  O29  1  0.52022400  0.91393400  0.62623500  1
  O  O30  1  0.38814600  0.14838100  0.14406800  1
  O  O31  1  0.41555900  0.40936000  0.26900100  1
  O  O32  1  0.40556700  0.90673900  0.22008100  1
  O  O33  1  0.31358000  0.67396900  0.16916600  1
  O  O34  1  0.27742100  0.85892000  0.00125000  1
  O  O35  1  0.47897600  0.23356100  0.91163200  1
  O  O36  1  0.43981500  0.56482700  0.89303200  1
  O  O37  1  0.37534600  0.42431700  0.70334700  1
  O  O38  1  0.38465500  0.94938700  0.79931400  1
  O  O39  1  0.30012200  0.20779400  0.59147400  1
  O  O40  1  0.33481500  0.68052500  0.69848400  1
  O  O41  1  0.27171700  0.43183700  0.47760900  1
  O  O42  1  0.20694400  0.93673200  0.53456400  1
  O  O43  1  0.16445400  0.19493700  0.30593200  1
  O  O44  1  0.17781500  0.71320700  0.41157900  1
  O  O45  1  0.12680000  0.45668900  0.21473900  1
  O  O46  1  0.08784100  0.07607600  0.11146700  1
  O  O47  1  0.13405300  0.93509600  0.30250400  1
  O  O48  1  0.02535400  0.74261300  0.08940900  1
  O  O49  1  0.23068600  0.33725600  0.99740400  1
  O  O50  1  0.18464700  0.16992400  0.82390300  1
  O  O51  1  0.10017700  0.40973700  0.78663500  1
  O  O52  1  0.12613800  0.65852400  0.85164200  1
  O  O53  1  0.08669400  0.91888000  0.72865800  1
  O  O54  1  0.01775500  0.16754600  0.55531300  1
  O  O55  1  0.02851200  0.58646200  0.62792300  1
loop_
_geom_bond_atom_site_label_1
_geom_bond_atom_site_label_2
_geom_bond_distance
_geom_bond_site_symmetry_2
Li0 O20 1.835703 1_555
Li0 O36 1.929523 1_554
Li0 O6 1.937996 1_555
Li0 O19 1.951793 1_555
Li1 O29 1.835209 1_555
Li1 O16 1.917471 1_555
Li1 O13 2.021621 1_565
Li1 O12 2.271422 1_555
Li2 O26 1.892660 1_555
Li2 O27 1.963715 1_555
Li2 O15 2.031497 1_555
Li2 O13 2.206486 1_555
Li2 O11 2.224948 1_555
Li3 O35 1.881801 1_555
Li3 O19 1.916461 1_556
Li3 O36 1.925551 1_555
Li3 O49 1.944003 1_555
Li4 O35 1.958599 1_555
Li4 O50 2.088506 1_555
Li4 O30 2.149932 1_556
Li4 O38 2.296121 1_545
Li4 O34 2.493703 1_546
Li5 O48 1.852748 1_555
Li5 O9 1.889593 1_454
Li5 O46 1.944237 1_565
Li5 O34 2.000298 1_555
Li6 O55 1.815002 1_555
Li6 O44 1.925962 1_555
Li6 O41 1.990865 1_555
Li6 O40 2.428863 1_555
Li7 O0 1.894381 1_455
Li7 O54 1.966230 1_555
Li7 O43 2.005168 1_555
Li7 O41 2.114632 1_555
Li7 O39 2.304413 1_555
Mn0 O1 1.926265 1_555
Mn0 O5 1.943130 1_555
Mn0 O16 2.168162 1_555
Mn0 O2 2.182921 1_565
Mn0 O17 2.196691 1_565
Mn0 O13 2.209772 1_565
Mn1 O21 1.940767 1_554
Mn1 O3 1.941735 1_555
Mn1 O15 2.024786 1_555
Mn1 O17 2.076554 1_555
Mn1 O2 2.187018 1_555
Mn2 O25 1.942124 1_555
Mn2 O6 1.987309 1_556
Mn2 O10 2.009610 1_555
Mn2 O12 2.017950 1_555
Mn2 O9 2.407567 1_555
Mn2 O24 2.426053 1_555
Mn3 O22 1.967423 1_555
Mn3 O14 1.995751 1_555
Mn3 O11 2.013072 1_555
Mn3 O24 2.013899 1_555
Mn3 O27 2.136157 1_555
Mn3 O10 2.412156 1_555
Mn4 O28 1.916140 1_555
Mn4 O33 2.006921 1_555
Mn4 O31 2.130989 1_555
Mn4 O45 2.151338 1_555
Mn4 O44 2.164676 1_555
Mn4 O41 2.274261 1_555
Mn5 O49 1.955311 1_554
Mn5 O43 1.985550 1_555
Mn5 O30 2.082966 1_555
Mn5 O45 2.118742 1_555
Mn5 O31 2.347789 1_555
Mn5 O46 2.391081 1_555
Mn6 O52 1.916613 1_555
Mn6 O40 1.991559 1_555
Mn6 O38 2.022627 1_555
Mn6 O34 2.029340 1_556
Mn6 O53 2.325829 1_555
Mn6 O36 2.716905 1_555
Mn7 O39 1.976895 1_555
Mn7 O42 1.990270 1_545
Mn7 O53 2.015963 1_545
Mn7 O50 2.025100 1_555
Mn7 O54 2.119471 1_555
Mn7 O38 2.452046 1_545
O0 P0 1.486457 1_555
O1 P12 1.545205 1_655
O2 P13 1.537958 1_655
O3 P0 1.545333 1_555
O4 P0 1.595485 1_555
O4 P1 1.612648 1_555
O5 P1 1.548040 1_555
O6 P1 1.570051 1_555
O7 P14 1.472701 1_655
O8 P2 1.600645 1_545
O8 P3 1.620229 1_555
O9 P2 1.497810 1_555
O10 P15 1.570772 1_655
O11 P3 1.520309 1_555
O12 P2 1.559628 1_555
O13 P3 1.553235 1_555
O14 P4 1.529873 1_555
O15 P5 1.555668 1_555
O16 P4 1.518507 1_555
O17 P6 1.611506 1_555
O18 P5 1.605697 1_555
O18 P4 1.610928 1_555
O19 P5 1.503616 1_555
O20 P8 1.484926 1_555
O21 P7 1.541776 1_555
O22 P7 1.543054 1_555
O23 P9 1.608338 1_545
O23 P7 1.614468 1_555
O24 P10 1.551476 1_555
O25 P9 1.544510 1_555
O26 P6 1.483322 1_555
O27 P11 1.514846 1_555
O28 P4 1.557367 1_555
O29 P9 1.478587 1_555
O30 P6 1.555086 1_555
O31 P5 1.545819 1_555
O32 P6 1.598369 1_565
O32 P8 1.619137 1_555
O33 P8 1.528277 1_555
O34 P8 1.595771 1_555
O35 P7 1.513917 1_555
O36 P10 1.502864 1_555
O37 P10 1.603068 1_555
O37 P11 1.620644 1_555
O38 P9 1.600070 1_555
O39 P11 1.524175 1_555
O40 P10 1.554726 1_555
O41 P11 1.543716 1_555
O42 P12 1.531592 1_555
O43 P13 1.565344 1_555
O44 P12 1.522681 1_555
O45 P0 1.612573 1_455
O46 P13 1.507018 1_555
O47 P13 1.599974 1_565
O47 P12 1.616210 1_555
O48 P1 1.482200 1_455
O49 P14 1.591620 1_555
O50 P14 1.577648 1_555
O51 P14 1.613719 1_555
O51 P15 1.619622 1_555
O52 P15 1.558606 1_555
O53 P2 1.568855 1_455
O54 P3 1.517330 1_455
O55 P15 1.479114 1_555
