# generated using pymatgen
data_NaPmTe2
_symmetry_space_group_name_H-M   'P 1'
_cell_length_a   5.48691856
_cell_length_b   5.48691856
_cell_length_c   5.48691856
_cell_angle_alpha   60.00000000
_cell_angle_beta   60.00000000
_cell_angle_gamma   60.00000000
_symmetry_Int_Tables_number   1
_chemical_formula_structural   NaPmTe2
_chemical_formula_sum   'Na1 Pm1 Te2'
_cell_volume   116.80745032
_cell_formula_units_Z   1
loop_
 _symmetry_equiv_pos_site_id
 _symmetry_equiv_pos_as_xyz
  1  'x, y, z'
loop_
 _atom_site_type_symbol
 _atom_site_label
 _atom_site_symmetry_multiplicity
 _atom_site_fract_x
 _atom_site_fract_y
 _atom_site_fract_z
 _atom_site_occupancy
  Na  Na0  1  0.50000000  0.50000000  0.50000000  1
  Pm  Pm0  1  0.00000000  -0.00000000  -0.00000000  1
  Te  Te0  1  0.75000000  0.75000000  0.75000000  1
  Te  Te1  1  0.25000000  0.25000000  0.25000000  1
loop_
_geom_bond_atom_site_label_1
_geom_bond_atom_site_label_2
_geom_bond_distance
_geom_bond_site_symmetry_2
Na0 Te1 3.360038 1_556
Na0 Te0 3.360038 1_554
Na0 Te1 3.360038 1_555
Na0 Te0 3.360038 1_455
Na0 Te1 3.360038 1_565
Na0 Te1 3.360038 1_655
Na0 Te0 3.360038 1_545
Na0 Te0 3.360038 1_555
Pm0 Te0 3.360038 1_454
Pm0 Te0 3.360038 1_445
Pm0 Te1 3.360038 1_455
Pm0 Te1 3.360038 1_545
Pm0 Te1 3.360038 1_555
Pm0 Te0 3.360038 1_544
Pm0 Te0 3.360038 1_444
Pm0 Te1 3.360038 1_554
