# generated using pymatgen
data_Rb2GeF6
_symmetry_space_group_name_H-M   'P 1'
_cell_length_a   5.96987096
_cell_length_b   5.96987134
_cell_length_c   5.96987042
_cell_angle_alpha   59.99999403
_cell_angle_beta   59.99999192
_cell_angle_gamma   60.00000626
_symmetry_Int_Tables_number   1
_chemical_formula_structural   Rb2GeF6
_chemical_formula_sum   'Rb2 Ge1 F6'
_cell_volume   150.44570610
_cell_formula_units_Z   1
loop_
 _symmetry_equiv_pos_site_id
 _symmetry_equiv_pos_as_xyz
  1  'x, y, z'
loop_
 _atom_site_type_symbol
 _atom_site_label
 _atom_site_symmetry_multiplicity
 _atom_site_fract_x
 _atom_site_fract_y
 _atom_site_fract_z
 _atom_site_occupancy
  Rb  Rb0  1  0.25000000  0.25000000  0.25000000  1
  Rb  Rb1  1  0.75000000  0.75000000  0.75000000  1
  Ge  Ge0  1  0.00000000  -0.00000000  0.00000000  1
  F  F0  1  0.21455416  0.78544584  0.78544584  1
  F  F1  1  0.21455416  0.78544584  0.21455416  1
  F  F2  1  0.78544584  0.21455416  0.78544584  1
  F  F3  1  0.78544584  0.21455416  0.21455416  1
  F  F4  1  0.78544584  0.78544584  0.21455416  1
  F  F5  1  0.21455416  0.21455416  0.78544584  1
loop_
_geom_bond_atom_site_label_1
_geom_bond_atom_site_label_2
_geom_bond_distance
_geom_bond_site_symmetry_2
F0 Ge0 1.811411 1_566
F0 Rb0 2.999899 1_565
F0 Rb0 2.999899 1_556
F0 Rb1 2.999899 1_555
F0 Rb1 2.999899 1_455
F1 Ge0 1.811411 1_565
F1 Rb1 2.999899 1_455
F1 Rb1 2.999899 1_554
F1 Rb0 2.999899 1_565
F1 Rb0 2.999899 1_555
F2 Ge0 1.811411 1_656
F2 Rb0 2.999899 1_655
F2 Rb0 2.999899 1_556
F2 Rb1 2.999899 1_545
F2 Rb1 2.999899 1_555
F3 Ge0 1.811411 1_655
F3 Rb1 2.999899 1_545
F3 Rb1 2.999899 1_554
F3 Rb0 2.999899 1_555
F3 Rb0 2.999899 1_655
F4 Ge0 1.811410 1_665
F4 Rb1 2.999899 1_555
F4 Rb1 2.999899 1_554
F4 Rb0 2.999900 1_565
F4 Rb0 2.999900 1_655
F5 Ge0 1.811410 1_556
F5 Rb0 2.999899 1_555
F5 Rb0 2.999899 1_556
F5 Rb1 2.999900 1_545
F5 Rb1 2.999900 1_455
