# generated using pymatgen
data_MgAlBO4
_symmetry_space_group_name_H-M   'P 1'
_cell_length_a   4.36745900
_cell_length_b   5.73528100
_cell_length_c   9.98856600
_cell_angle_alpha   90.00000000
_cell_angle_beta   90.00000000
_cell_angle_gamma   90.00000000
_symmetry_Int_Tables_number   1
_chemical_formula_structural   MgAlBO4
_chemical_formula_sum   'Mg4 Al4 B4 O16'
_cell_volume   250.19964046
_cell_formula_units_Z   4
loop_
 _symmetry_equiv_pos_site_id
 _symmetry_equiv_pos_as_xyz
  1  'x, y, z'
loop_
 _atom_site_type_symbol
 _atom_site_label
 _atom_site_symmetry_multiplicity
 _atom_site_fract_x
 _atom_site_fract_y
 _atom_site_fract_z
 _atom_site_occupancy
  Mg  Mg0  1  0.48531400  0.75000000  0.77593500  1
  Mg  Mg1  1  0.98531400  0.25000000  0.72406500  1
  Mg  Mg2  1  0.51468600  0.25000000  0.22406500  1
  Mg  Mg3  1  0.01468600  0.75000000  0.27593500  1
  Al  Al0  1  0.50000000  0.50000000  0.50000000  1
  Al  Al1  1  0.00000000  0.50000000  0.00000000  1
  Al  Al2  1  0.50000000  0.00000000  0.50000000  1
  Al  Al3  1  0.00000000  0.00000000  0.00000000  1
  B  B0  1  0.09190600  0.25000000  0.41307400  1
  B  B1  1  0.90809400  0.75000000  0.58692600  1
  B  B2  1  0.40809400  0.25000000  0.91307400  1
  B  B3  1  0.59190600  0.75000000  0.08692600  1
  O  O0  1  0.76451200  0.53921100  0.64858700  1
  O  O1  1  0.26451200  0.46078900  0.85141300  1
  O  O2  1  0.23548800  0.03921100  0.35141300  1
  O  O3  1  0.73548800  0.96078900  0.14858700  1
  O  O4  1  0.26451200  0.03921100  0.85141300  1
  O  O5  1  0.23548800  0.46078900  0.35141300  1
  O  O6  1  0.76451200  0.96078900  0.64858700  1
  O  O7  1  0.73548800  0.53921100  0.14858700  1
  O  O8  1  0.26067200  0.75000000  0.08072400  1
  O  O9  1  0.76067200  0.25000000  0.41927600  1
  O  O10  1  0.73932800  0.25000000  0.91927600  1
  O  O11  1  0.23932800  0.75000000  0.58072400  1
  O  O12  1  0.74396400  0.75000000  0.44444100  1
  O  O13  1  0.24396400  0.25000000  0.05555900  1
  O  O14  1  0.25603600  0.25000000  0.55555900  1
  O  O15  1  0.75603600  0.75000000  0.94444100  1
loop_
_geom_bond_atom_site_label_1
_geom_bond_atom_site_label_2
_geom_bond_distance
_geom_bond_site_symmetry_2
Mg0 O15 2.056922 1_555
Mg0 O1 2.061469 1_555
Mg0 O4 2.061469 1_565
Mg0 O0 2.136930 1_555
Mg0 O6 2.136930 1_555
Mg0 O11 2.226256 1_555
Mg1 O14 2.056922 1_655
Mg1 O6 2.061469 1_545
Mg1 O0 2.061469 1_555
Mg1 O1 2.136930 1_655
Mg1 O4 2.136930 1_655
Mg1 O10 2.226256 1_555
Mg2 O13 2.056922 1_555
Mg2 O3 2.061469 1_545
Mg2 O7 2.061469 1_555
Mg2 O5 2.136930 1_555
Mg2 O2 2.136930 1_555
Mg2 O9 2.226256 1_555
Mg3 O12 2.056922 1_455
Mg3 O5 2.061469 1_555
Mg3 O2 2.061469 1_565
Mg3 O3 2.136930 1_455
Mg3 O7 2.136930 1_455
Mg3 O8 2.226256 1_555
Al0 O12 1.870591 1_555
Al0 O14 1.870591 1_555
Al0 O5 1.894183 1_555
Al0 O0 1.894183 1_555
Al0 O11 2.000528 1_555
Al0 O9 2.000528 1_555
Al1 O15 1.870591 1_454
Al1 O13 1.870591 1_555
Al1 O7 1.894183 1_455
Al1 O1 1.894183 1_554
Al1 O10 2.000528 1_454
Al1 O8 2.000528 1_555
Al2 O12 1.870591 1_545
Al2 O14 1.870591 1_555
Al2 O2 1.894183 1_555
Al2 O6 1.894183 1_545
Al2 O11 2.000528 1_545
Al2 O9 2.000528 1_555
Al3 O15 1.870591 1_444
Al3 O13 1.870591 1_555
Al3 O3 1.894183 1_445
Al3 O4 1.894183 1_554
Al3 O8 2.000528 1_545
Al3 O10 2.000528 1_454
B0 O9 1.447977 1_455
B0 O2 1.494691 1_555
B0 O5 1.494691 1_555
B0 O14 1.593551 1_555
B1 O11 1.447977 1_655
B1 O0 1.494691 1_555
B1 O6 1.494691 1_555
B1 O12 1.593551 1_555
B2 O10 1.447977 1_555
B2 O1 1.494691 1_555
B2 O4 1.494691 1_555
B2 O13 1.593551 1_556
B3 O8 1.447977 1_555
B3 O3 1.494691 1_555
B3 O7 1.494691 1_555
B3 O15 1.593551 1_554
