# generated using pymatgen
data_AcSe3
_symmetry_space_group_name_H-M   'P 1'
_cell_length_a   6.24133844
_cell_length_b   6.24133600
_cell_length_c   6.17440021
_cell_angle_alpha   90.00000019
_cell_angle_beta   89.99999825
_cell_angle_gamma   120.00006272
_symmetry_Int_Tables_number   1
_chemical_formula_structural   AcSe3
_chemical_formula_sum   'Ac2 Se6'
_cell_volume   208.29576001
_cell_formula_units_Z   2
loop_
 _symmetry_equiv_pos_site_id
 _symmetry_equiv_pos_as_xyz
  1  'x, y, z'
loop_
 _atom_site_type_symbol
 _atom_site_label
 _atom_site_symmetry_multiplicity
 _atom_site_fract_x
 _atom_site_fract_y
 _atom_site_fract_z
 _atom_site_occupancy
  Ac  Ac0  1  0.33333390  0.66666845  0.75000038  1
  Ac  Ac1  1  0.66666700  0.33333211  0.25000040  1
  Se  Se0  1  0.17393695  0.34787127  0.25000120  1
  Se  Se1  1  0.65212302  0.82605818  0.25000121  1
  Se  Se2  1  0.17394130  0.82605730  0.25000120  1
  Se  Se3  1  0.82606211  0.65212396  0.75000121  1
  Se  Se4  1  0.34787464  0.17394060  0.75000119  1
  Se  Se5  1  0.82606008  0.17394412  0.75000120  1
loop_
_geom_bond_atom_site_label_1
_geom_bond_atom_site_label_2
_geom_bond_distance
_geom_bond_site_symmetry_2
Ac0 Se4 3.121647 1_555
Ac0 Se5 3.121651 1_455
Ac0 Se3 3.121656 1_455
Ac0 Se5 3.121662 1_565
Ac0 Se3 3.121662 1_555
Ac0 Se4 3.121669 1_565
Ac0 Se2 3.535495 1_555
Ac0 Se2 3.535504 1_556
Ac0 Se1 3.535514 1_555
Ac0 Se1 3.535523 1_556
Ac0 Se0 3.535535 1_555
Ac0 Se0 3.535544 1_556
Ac1 Se1 3.121646 1_555
Ac1 Se2 3.121655 1_655
Ac1 Se0 3.121656 1_555
Ac1 Se2 3.121658 1_545
Ac1 Se0 3.121661 1_655
Ac1 Se1 3.121670 1_545
Ac1 Se5 3.535494 1_554
Ac1 Se5 3.535503 1_555
Ac1 Se3 3.535521 1_554
Ac1 Se4 3.535523 1_554
Ac1 Se3 3.535530 1_555
Ac1 Se4 3.535532 1_555
Se0 Se2 2.984506 1_555
Se0 Se1 2.984520 1_555
Se1 Se2 2.984491 1_555
Se3 Se5 2.984475 1_555
Se3 Se4 2.984514 1_555
Se4 Se5 2.984506 1_555
