# generated using pymatgen
data_La2Nb2N2O5
_symmetry_space_group_name_H-M   'P 1'
_cell_length_a   8.02207200
_cell_length_b   13.77037519
_cell_length_c   5.73433683
_cell_angle_alpha   90.47133377
_cell_angle_beta   90.04116581
_cell_angle_gamma   98.40043274
_symmetry_Int_Tables_number   1
_chemical_formula_structural   La2Nb2N2O5
_chemical_formula_sum   'La8 Nb8 N8 O20'
_cell_volume   626.63607615
_cell_formula_units_Z   4
loop_
 _symmetry_equiv_pos_site_id
 _symmetry_equiv_pos_as_xyz
  1  'x, y, z'
loop_
 _atom_site_type_symbol
 _atom_site_label
 _atom_site_symmetry_multiplicity
 _atom_site_fract_x
 _atom_site_fract_y
 _atom_site_fract_z
 _atom_site_occupancy
  La  La0  1  0.56877300  0.34468000  0.13302400  1
  La  La1  1  0.91178200  0.76309100  0.21564200  1
  La  La2  1  0.12299100  0.25095300  0.27380200  1
  La  La3  1  0.38330100  0.77276900  0.34085400  1
  La  La4  1  0.60796800  0.28318200  0.66523400  1
  La  La5  1  0.88308100  0.75037200  0.73222300  1
  La  La6  1  0.09500600  0.26421100  0.78043100  1
  La  La7  1  0.43019800  0.83366300  0.86221000  1
  Nb  Nb0  1  0.32186300  0.29439400  0.07040800  1
  Nb  Nb1  1  0.11729800  0.74207600  0.02305100  1
  Nb  Nb2  1  0.67552500  0.79169900  0.41396800  1
  Nb  Nb3  1  0.88249100  0.26361500  0.47254700  1
  Nb  Nb4  1  0.11838000  0.76746000  0.53609800  1
  Nb  Nb5  1  0.32457500  0.28199500  0.59768600  1
  Nb  Nb6  1  0.88311500  0.25887400  0.96922100  1
  Nb  Nb7  1  0.67568000  0.79474400  0.92505500  1
  N  N0  1  0.40986100  0.54994000  0.08734400  1
  N  N1  1  0.18488800  0.45039300  0.02603900  1
  N  N2  1  0.98159800  0.53405400  0.96199000  1
  N  N3  1  0.57340900  0.56117000  0.87043900  1
  N  N4  1  0.10589300  0.81724700  0.77089400  1
  N  N5  1  0.30343700  0.19405100  0.82196900  1
  N  N6  1  0.82119400  0.94395300  0.97469600  1
  N  N7  1  0.59044500  0.05047100  0.91691900  1
  O  O0  1  0.69717200  0.68659500  0.18201500  1
  O  O1  1  0.88729900  0.31991900  0.22771500  1
  O  O2  1  0.42796400  0.05892300  0.13461500  1
  O  O3  1  0.01896400  0.04394300  0.04842600  1
  O  O4  1  0.22261900  0.95578400  0.12524400  1
  O  O5  1  0.61381300  0.07404200  0.37375400  1
  O  O6  1  0.82042300  0.94455900  0.43121100  1
  O  O7  1  0.08489500  0.67206700  0.27543700  1
  O  O8  1  0.30211800  0.34864400  0.32825000  1
  O  O9  1  0.56348900  0.58606000  0.41266300  1
  O  O10  1  0.97897700  0.52257400  0.53356500  1
  O  O11  1  0.77476400  0.45335300  0.50052500  1
  O  O12  1  0.22725100  0.96081200  0.49882100  1
  O  O13  1  0.01907000  0.02964100  0.45962200  1
  O  O14  1  0.43789500  0.08274500  0.58559400  1
  O  O15  1  0.69681000  0.84461400  0.66557100  1
  O  O16  1  0.91271700  0.17065600  0.72180300  1
  O  O17  1  0.17809600  0.44501600  0.56243800  1
  O  O18  1  0.38652000  0.57770500  0.61901500  1
  O  O19  1  0.77638800  0.44827100  0.87197700  1
loop_
_geom_bond_atom_site_label_1
_geom_bond_atom_site_label_2
_geom_bond_distance
_geom_bond_site_symmetry_2
La0 Nb0 2.031220 1_555
La0 O8 2.422530 1_555
La0 O19 2.528658 1_554
La0 O1 2.682528 1_555
La0 O11 2.937976 1_555
La1 O0 1.891312 1_555
La1 O7 2.032782 1_655
La1 O6 2.965666 1_555
La2 O8 1.843822 1_555
La2 O1 2.252708 1_455
La2 O3 3.120159 1_555
La2 O13 3.229603 1_555
La3 Nb2 2.357423 1_555
La3 Nb4 2.394733 1_555
La3 O7 2.610432 1_555
La3 O18 3.138593 1_555
La3 O12 3.162740 1_555
La4 Nb5 2.303566 1_555
La4 Nb3 2.513031 1_555
La4 O11 2.701055 1_555
La4 N5 2.725352 1_555
La4 O19 2.730366 1_555
La4 Nb6 2.870985 1_555
La4 O14 2.926805 1_555
La4 O5 3.324204 1_555
La5 N4 1.899264 1_655
La5 O15 2.153378 1_555
La6 O16 1.831082 1_455
La6 Nb6 2.008527 1_455
La6 N5 2.064242 1_555
La6 Nb5 2.103543 1_555
La6 Nb0 2.452125 1_556
La6 Nb3 2.452514 1_455
La6 O17 2.788062 1_555
La6 N1 2.911279 1_556
La7 Nb7 2.146079 1_555
La7 O15 2.404292 1_555
La7 N4 2.630185 1_555
La7 O4 2.942110 1_556
La7 N7 3.086580 1_565
La7 O12 3.308535 1_555
Nb0 O8 1.669137 1_555
Nb1 O7 1.744081 1_555
Nb2 O15 1.608633 1_555
Nb2 O0 1.983972 1_555
Nb2 O6 2.252376 1_555
Nb3 O1 1.607153 1_555
Nb3 O16 1.964852 1_555
Nb3 O11 2.872652 1_555
Nb4 O7 1.973803 1_555
Nb4 O12 2.688445 1_555
Nb5 O8 1.825693 1_555
Nb5 O17 2.690518 1_555
Nb6 O1 1.695915 1_556
Nb6 O16 1.897753 1_555
Nb6 O19 2.919189 1_555
Nb7 O15 1.642420 1_555
Nb7 O0 2.128273 1_556
N0 N3 1.799590 1_554
N1 Nb0 2.566131 1_555
N2 O19 1.947405 1_555
N3 O18 2.116656 1_555
N4 Nb4 1.515891 1_555
N4 Nb1 1.795204 1_556
N5 Nb5 1.765037 1_555
N5 Nb0 1.966806 1_556
N6 O3 1.985664 1_666
N6 Nb7 2.225856 1_555
N7 O2 1.820746 1_556
O2 O5 2.012028 1_555
O10 O11 1.780042 1_555
O10 O17 2.054396 1_655
O12 O13 2.050206 1_565
O13 O6 1.841093 1_445
O14 O5 1.879110 1_555
O18 O9 1.840048 1_555
