# generated using pymatgen
data_LiVFeP2(HO5)2
_symmetry_space_group_name_H-M   'P 1'
_cell_length_a   5.21653500
_cell_length_b   5.30089286
_cell_length_c   7.42110422
_cell_angle_alpha   110.15066821
_cell_angle_beta   105.19918219
_cell_angle_gamma   97.90829545
_symmetry_Int_Tables_number   1
_chemical_formula_structural   LiVFeP2(HO5)2
_chemical_formula_sum   'Li1 V1 Fe1 P2 H2 O10'
_cell_volume   179.93200123
_cell_formula_units_Z   1
loop_
 _symmetry_equiv_pos_site_id
 _symmetry_equiv_pos_as_xyz
  1  'x, y, z'
loop_
 _atom_site_type_symbol
 _atom_site_label
 _atom_site_symmetry_multiplicity
 _atom_site_fract_x
 _atom_site_fract_y
 _atom_site_fract_z
 _atom_site_occupancy
  Li  Li0  1  0.61932400  0.25450400  0.15485900  1
  V  V0  1  0.49449300  0.49301600  0.50424300  1
  Fe  Fe0  1  0.00857900  0.00989100  0.99576600  1
  P  P0  1  0.08826100  0.41448900  0.22943400  1
  P  P1  1  0.90240000  0.58157600  0.77409900  1
  H  H0  1  0.29710800  0.59095400  0.34863100  1
  H  H1  1  0.69446100  0.37835300  0.65719700  1
  O  O0  1  0.42902600  0.25703300  0.71458900  1
  O  O1  1  0.89346500  0.42972300  0.37856000  1
  O  O2  1  0.07085000  0.00799600  0.65024300  1
  O  O3  1  0.55296900  0.67484400  0.07474800  1
  O  O4  1  0.97264400  0.53429300  0.13020800  1
  O  O5  1  0.97899000  0.43977400  0.89136900  1
  O  O6  1  0.44285900  0.31377700  0.92622000  1
  O  O7  1  0.94855100  0.99792600  0.34342500  1
  O  O8  1  0.11590900  0.57792400  0.61992700  1
  O  O9  1  0.56088100  0.76460000  0.28394300  1
loop_
_geom_bond_atom_site_label_1
_geom_bond_atom_site_label_2
_geom_bond_distance
_geom_bond_site_symmetry_2
Li0 O1 1.729461 1_555
Li0 O6 1.858221 1_554
Fe0 P0 2.143361 1_556
Fe0 P1 2.184195 1_445
Fe0 O5 2.658432 1_455
Fe0 O2 2.664668 1_555
Fe0 O7 2.699898 1_446
H0 P0 1.220063 1_555
H0 V0 1.612452 1_555
H1 P1 1.277050 1_555
H1 O0 1.662874 1_555
H1 V0 1.665822 1_555
O0 O6 1.473564 1_555
O0 O2 1.970001 1_555
O0 V0 2.371811 1_555
O1 P0 1.677652 1_655
O1 O8 1.691706 1_655
O3 O9 1.445785 1_555
O3 O6 1.766397 1_554
O4 P0 1.226386 1_655
O5 P1 1.353902 1_555
O8 P1 1.791300 1_455
O8 V0 2.388977 1_555
