# generated using pymatgen
data_Rb2VAgS4
_symmetry_space_group_name_H-M   'P 1'
_cell_length_a   13.71112070
_cell_length_b   12.22083885
_cell_length_c   7.46734405
_cell_angle_alpha   84.61917943
_cell_angle_beta   62.54595500
_cell_angle_gamma   32.83486557
_symmetry_Int_Tables_number   1
_chemical_formula_structural   Rb2VAgS4
_chemical_formula_sum   'Rb4 V2 Ag2 S8'
_cell_volume   476.96062976
_cell_formula_units_Z   2
loop_
 _symmetry_equiv_pos_site_id
 _symmetry_equiv_pos_as_xyz
  1  'x, y, z'
loop_
 _atom_site_type_symbol
 _atom_site_label
 _atom_site_symmetry_multiplicity
 _atom_site_fract_x
 _atom_site_fract_y
 _atom_site_fract_z
 _atom_site_occupancy
  Rb  Rb0  1  0.17919800  0.17919800  0.82080200  1
  Rb  Rb1  1  0.42919800  0.42919800  0.07080200  1
  Rb  Rb2  1  0.82080200  0.82080200  0.17919800  1
  Rb  Rb3  1  0.07080200  0.07080200  0.42919800  1
  V  V0  1  0.00000000  0.00000000  0.00000000  1
  V  V1  1  0.25000000  0.25000000  0.25000000  1
  Ag  Ag0  1  0.50000000  0.50000000  0.50000000  1
  Ag  Ag1  1  0.75000000  0.75000000  0.75000000  1
  S  S0  1  0.75609800  0.35239700  0.05324500  1
  S  S1  1  0.35239700  0.75609800  0.83826000  1
  S  S2  1  0.05324500  0.83826000  0.75609800  1
  S  S3  1  0.83826000  0.05324500  0.35239700  1
  S  S4  1  0.19675500  0.41174000  0.49390200  1
  S  S5  1  0.41174000  0.19675500  0.89760300  1
  S  S6  1  0.89760300  0.49390200  0.41174000  1
  S  S7  1  0.49390200  0.89760300  0.19675500  1
loop_
_geom_bond_atom_site_label_1
_geom_bond_atom_site_label_2
_geom_bond_distance
_geom_bond_site_symmetry_2
Rb0 S6 3.419104 1_456
Rb0 S7 3.419104 1_545
Rb0 S1 3.452023 1_545
Rb0 S0 3.452023 1_456
Rb0 S5 3.660556 1_555
Rb0 S4 3.660556 1_555
Rb0 S7 3.862667 1_456
Rb0 S6 3.862667 1_545
Rb1 S3 3.419104 1_465
Rb1 S2 3.419104 1_644
Rb1 S5 3.452023 1_554
Rb1 S4 3.452023 1_555
Rb1 S0 3.660556 1_555
Rb1 S1 3.660556 1_554
Rb1 S2 3.862667 1_555
Rb1 S3 3.862667 1_554
Rb2 S5 3.419104 1_654
Rb2 S4 3.419104 1_565
Rb2 S3 3.452023 1_565
Rb2 S2 3.452023 1_654
Rb2 S6 3.660556 1_555
Rb2 S7 3.660556 1_555
Rb2 S4 3.862667 1_654
Rb2 S5 3.862667 1_565
Rb3 S1 3.419104 1_544
Rb3 S0 3.419104 1_456
Rb3 S6 3.452023 1_455
Rb3 S7 3.452023 1_545
Rb3 S3 3.660556 1_455
Rb3 S2 3.660556 1_545
Rb3 S1 3.862667 1_455
Rb3 S0 3.862667 1_545
Ag0 S3 2.529075 1_555
Ag0 S2 2.529075 1_555
Ag0 S0 2.529075 1_555
Ag0 S1 2.529075 1_555
Ag1 S6 2.529075 1_555
Ag1 S7 2.529075 1_556
Ag1 S5 2.529075 1_565
Ag1 S4 2.529075 1_655
S0 V0 2.186608 1_655
S1 V0 2.186608 1_566
S2 V0 2.186608 1_566
S3 V0 2.186608 1_655
S4 V1 2.186608 1_555
S5 V1 2.186608 1_556
S6 V1 2.186608 1_655
S7 V1 2.186608 1_565
