# generated using pymatgen
data_ReIr3
_symmetry_space_group_name_H-M   'P 1'
_cell_length_a   5.50256581
_cell_length_b   5.50256555
_cell_length_c   4.37807572
_cell_angle_alpha   89.99995981
_cell_angle_beta   90.00005354
_cell_angle_gamma   119.99999726
_symmetry_Int_Tables_number   1
_chemical_formula_structural   ReIr3
_chemical_formula_sum   'Re2 Ir6'
_cell_volume   114.80065926
_cell_formula_units_Z   2
loop_
 _symmetry_equiv_pos_site_id
 _symmetry_equiv_pos_as_xyz
  1  'x, y, z'
loop_
 _atom_site_type_symbol
 _atom_site_label
 _atom_site_symmetry_multiplicity
 _atom_site_fract_x
 _atom_site_fract_y
 _atom_site_fract_z
 _atom_site_occupancy
  Re  Re0  1  0.33333402  0.66666689  0.74999893  1
  Re  Re1  1  0.66666636  0.33333324  0.24999909  1
  Ir  Ir0  1  0.16696473  0.33392855  0.24999963  1
  Ir  Ir1  1  0.66607171  0.83303591  0.24999932  1
  Ir  Ir2  1  0.16696466  0.83303481  0.24999964  1
  Ir  Ir3  1  0.83303577  0.66607165  0.75000029  1
  Ir  Ir4  1  0.33392826  0.16696376  0.75000001  1
  Ir  Ir5  1  0.83303549  0.16696519  0.74999909  1
loop_
_geom_bond_atom_site_label_1
_geom_bond_atom_site_label_2
_geom_bond_distance
_geom_bond_site_symmetry_2
Ir0 Re0 2.702973 1_555
Ir0 Re0 2.702977 1_554
Ir0 Ir4 2.706305 1_554
Ir0 Ir4 2.706305 1_555
Ir0 Ir5 2.706307 1_455
Ir0 Ir5 2.706309 1_454
Ir0 Ir2 2.746365 1_555
Ir0 Ir1 2.746370 1_555
Ir0 Re1 2.751280 1_555
Ir0 Re1 2.751288 1_455
Ir0 Ir1 2.756196 1_445
Ir0 Ir2 2.756200 1_545
Ir1 Re0 2.702973 1_555
Ir1 Re0 2.702974 1_554
Ir1 Ir3 2.706303 1_554
Ir1 Ir3 2.706307 1_555
Ir1 Ir5 2.706307 1_565
Ir1 Ir5 2.706308 1_564
Ir1 Ir2 2.746366 1_555
Ir1 Re1 2.751284 1_555
Ir1 Re1 2.751284 1_565
Ir1 Ir2 2.756199 1_655
Ir2 Re0 2.702968 1_555
Ir2 Re0 2.702976 1_554
Ir2 Ir3 2.706304 1_454
Ir2 Ir4 2.706305 1_564
Ir2 Ir4 2.706309 1_565
Ir2 Ir3 2.706310 1_455
Ir2 Re1 2.751284 1_455
Ir2 Re1 2.751285 1_565
Ir3 Re1 2.702970 1_556
Ir3 Re1 2.702980 1_555
Ir3 Ir5 2.746365 1_555
Ir3 Ir4 2.746373 1_555
Ir3 Re0 2.751281 1_555
Ir3 Re0 2.751288 1_655
Ir3 Ir4 2.756193 1_665
Ir3 Ir5 2.756200 1_565
Ir4 Re1 2.702970 1_556
Ir4 Re1 2.702978 1_555
Ir4 Ir5 2.746366 1_555
Ir4 Re0 2.751283 1_545
Ir4 Re0 2.751286 1_555
Ir4 Ir5 2.756199 1_455
Ir5 Re1 2.702970 1_555
Ir5 Re1 2.702973 1_556
Ir5 Re0 2.751284 1_545
Ir5 Re0 2.751285 1_655
