# generated using pymatgen
data_LiMg2Pt
_symmetry_space_group_name_H-M   'P 1'
_cell_length_a   4.51097234
_cell_length_b   4.51074329
_cell_length_c   4.51064179
_cell_angle_alpha   59.87489715
_cell_angle_beta   59.90055128
_cell_angle_gamma   59.89702855
_symmetry_Int_Tables_number   1
_chemical_formula_structural   LiMg2Pt
_chemical_formula_sum   'Li1 Mg2 Pt1'
_cell_volume   64.73877927
_cell_formula_units_Z   1
loop_
 _symmetry_equiv_pos_site_id
 _symmetry_equiv_pos_as_xyz
  1  'x, y, z'
loop_
 _atom_site_type_symbol
 _atom_site_label
 _atom_site_symmetry_multiplicity
 _atom_site_fract_x
 _atom_site_fract_y
 _atom_site_fract_z
 _atom_site_occupancy
  Li  Li0  1  0.25015116  0.24991537  0.24993948  1
  Mg  Mg0  1  0.00011134  0.00001342  0.00000203  1
  Mg  Mg1  1  0.49977913  0.50005356  0.50004195  1
  Pt  Pt0  1  0.74995938  0.75001765  0.75001754  1
loop_
_geom_bond_atom_site_label_1
_geom_bond_atom_site_label_2
_geom_bond_distance
_geom_bond_site_symmetry_2
Li0 Mg1 2.757678 1_545
Li0 Mg1 2.757845 1_554
Li0 Mg0 2.758452 1_556
Li0 Mg0 2.758546 1_565
Li0 Mg0 2.758894 1_655
Li0 Mg1 2.760408 1_455
Li0 Mg1 2.764074 1_555
Li0 Mg0 2.764113 1_555
Mg0 Pt0 2.758200 1_454
Mg0 Pt0 2.758277 1_445
Mg0 Pt0 2.758480 1_544
Mg0 Pt0 2.765045 1_444
Mg1 Pt0 2.758310 1_554
Mg1 Pt0 2.758317 1_545
Mg1 Pt0 2.758376 1_455
Mg1 Pt0 2.765000 1_555
