# generated using pymatgen
data_Li2VPO4F
_symmetry_space_group_name_H-M   'P 1'
_cell_length_a   5.11042800
_cell_length_b   13.06212100
_cell_length_c   13.21788428
_cell_angle_alpha   60.85434334
_cell_angle_beta   90.00000000
_cell_angle_gamma   90.00000000
_symmetry_Int_Tables_number   1
_chemical_formula_structural   Li2VPO4F
_chemical_formula_sum   'Li16 V8 P8 O32 F8'
_cell_volume   770.61659099
_cell_formula_units_Z   8
loop_
 _symmetry_equiv_pos_site_id
 _symmetry_equiv_pos_as_xyz
  1  'x, y, z'
loop_
 _atom_site_type_symbol
 _atom_site_label
 _atom_site_symmetry_multiplicity
 _atom_site_fract_x
 _atom_site_fract_y
 _atom_site_fract_z
 _atom_site_occupancy
  Li  Li0  1  0.73455400  0.16542400  0.66302000  1
  Li  Li1  1  0.73297900  0.41288500  0.41800700  1
  Li  Li2  1  0.23297900  0.08711500  0.58199300  1
  Li  Li3  1  0.71733100  0.67136600  0.16334000  1
  Li  Li4  1  0.23455400  0.33457600  0.33698000  1
  Li  Li5  1  0.27352600  0.83268800  0.08330900  1
  Li  Li6  1  0.77352600  0.66731200  0.91669100  1
  Li  Li7  1  0.78266900  0.17136600  0.16334000  1
  Li  Li8  1  0.21733100  0.82863400  0.83666000  1
  Li  Li9  1  0.22647400  0.33268800  0.08330900  1
  Li  Li10  1  0.72647400  0.16731200  0.91669100  1
  Li  Li11  1  0.76544600  0.66542400  0.66302000  1
  Li  Li12  1  0.28266900  0.32863400  0.83666000  1
  Li  Li13  1  0.76702100  0.91288500  0.41800700  1
  Li  Li14  1  0.26702100  0.58711500  0.58199300  1
  Li  Li15  1  0.26544600  0.83457600  0.33698000  1
  V  V0  1  0.28034300  0.32280100  0.57146200  1
  V  V1  1  0.78034300  0.17719900  0.42853800  1
  V  V2  1  0.22472700  0.60598700  0.07141200  1
  V  V3  1  0.72472700  0.89401300  0.92858800  1
  V  V4  1  0.27527300  0.10598700  0.07141200  1
  V  V5  1  0.77527300  0.39401300  0.92858800  1
  V  V6  1  0.21965700  0.82280100  0.57146200  1
  V  V7  1  0.71965700  0.67719900  0.42853800  1
  P  P0  1  0.21567800  0.07934600  0.83397300  1
  P  P1  1  0.21156200  0.58509500  0.33304500  1
  P  P2  1  0.28843800  0.08509500  0.33304500  1
  P  P3  1  0.71567800  0.42065400  0.16602700  1
  P  P4  1  0.28432200  0.57934600  0.83397300  1
  P  P5  1  0.71156200  0.91490500  0.66695500  1
  P  P6  1  0.78843800  0.41490500  0.66695500  1
  P  P7  1  0.78432200  0.92065400  0.16602700  1
  O  O0  1  0.90916200  0.07403900  0.84379300  1
  O  O1  1  0.67364600  0.35122100  0.60436500  1
  O  O2  1  0.30027000  0.14340000  0.70492200  1
  O  O3  1  0.90486700  0.58794100  0.33847500  1
  O  O4  1  0.31116400  0.45646300  0.39218800  1
  O  O5  1  0.81116400  0.04353700  0.60781200  1
  O  O6  1  0.30878700  0.64760800  0.20587500  1
  O  O7  1  0.66937500  0.85356200  0.10615100  1
  O  O8  1  0.80027000  0.35660000  0.29507800  1
  O  O9  1  0.17364600  0.14877900  0.39563500  1
  O  O10  1  0.59513300  0.08794100  0.33847500  1
  O  O11  1  0.82627400  0.54687500  0.10865000  1
  O  O12  1  0.40916200  0.42596100  0.15620700  1
  O  O13  1  0.32627400  0.95312500  0.89135000  1
  O  O14  1  0.19121300  0.14760800  0.20587500  1
  O  O15  1  0.83062500  0.35356200  0.10615100  1
  O  O16  1  0.16937500  0.64643800  0.89384900  1
  O  O17  1  0.80878700  0.85239200  0.79412500  1
  O  O18  1  0.67372600  0.04687500  0.10865000  1
  O  O19  1  0.59083800  0.57403900  0.84379300  1
  O  O20  1  0.17372600  0.45312500  0.89135000  1
  O  O21  1  0.40486700  0.91205900  0.66152500  1
  O  O22  1  0.82635400  0.85122100  0.60436500  1
  O  O23  1  0.19973000  0.64340000  0.70492200  1
  O  O24  1  0.33062500  0.14643800  0.89384900  1
  O  O25  1  0.69121300  0.35239200  0.79412500  1
  O  O26  1  0.18883600  0.95646300  0.39218800  1
  O  O27  1  0.68883600  0.54353700  0.60781200  1
  O  O28  1  0.09513300  0.41205900  0.66152500  1
  O  O29  1  0.69973000  0.85660000  0.29507800  1
  O  O30  1  0.32635400  0.64877900  0.39563500  1
  O  O31  1  0.09083800  0.92596100  0.15620700  1
  F  F0  1  0.96993500  0.26347400  0.50937300  1
  F  F1  1  0.46993500  0.23652600  0.49062700  1
  F  F2  1  0.02940000  0.76931000  0.00936900  1
  F  F3  1  0.52940000  0.73069000  0.99063100  1
  F  F4  1  0.47060000  0.26931000  0.00936900  1
  F  F5  1  0.97060000  0.23069000  0.99063100  1
  F  F6  1  0.53006500  0.76347400  0.50937300  1
  F  F7  1  0.03006500  0.73652600  0.49062700  1
loop_
_geom_bond_atom_site_label_1
_geom_bond_atom_site_label_2
_geom_bond_distance
_geom_bond_site_symmetry_2
Li0 O5 2.086206 1_555
Li0 O1 2.180611 1_555
Li0 O0 2.269862 1_555
Li0 O2 2.271552 1_555
Li1 O8 2.112479 1_555
Li1 O3 2.182627 1_555
Li1 O1 2.208110 1_555
Li1 O4 2.213167 1_555
Li2 O2 2.112479 1_555
Li2 O21 2.182627 1_545
Li2 O9 2.208110 1_555
Li2 O5 2.213167 1_455
Li3 O7 2.131411 1_555
Li3 O6 2.145112 1_555
Li3 O11 2.149836 1_555
Li3 O3 2.237778 1_555
Li4 O4 2.086206 1_555
Li4 O9 2.180611 1_555
Li4 O12 2.269862 1_555
Li4 O8 2.271552 1_455
Li5 O7 2.082797 1_555
Li5 O31 2.104265 1_555
Li5 O6 2.164852 1_555
Li5 O13 2.257723 1_554
Li6 O16 2.082797 1_655
Li6 O19 2.104265 1_555
Li6 O17 2.164852 1_555
Li6 O11 2.257723 1_556
Li7 O15 2.131411 1_555
Li7 O14 2.145112 1_655
Li7 O18 2.149836 1_555
Li7 O10 2.237778 1_555
Li8 O16 2.131411 1_555
Li8 O17 2.145112 1_455
Li8 O13 2.149836 1_555
Li8 O21 2.237778 1_555
Li9 O15 2.082797 1_455
Li9 O12 2.104265 1_555
Li9 O14 2.164852 1_555
Li9 O20 2.257723 1_554
Li10 O24 2.082797 1_555
Li10 O0 2.104265 1_555
Li10 O25 2.164852 1_555
Li10 O18 2.257723 1_556
Li11 O27 2.086206 1_555
Li11 O22 2.180611 1_555
Li11 O19 2.269862 1_555
Li11 O23 2.271552 1_655
Li12 O24 2.131411 1_555
Li12 O25 2.145112 1_555
Li12 O20 2.149836 1_555
Li12 O28 2.237778 1_555
Li13 O29 2.112479 1_555
Li13 O10 2.182627 1_565
Li13 O22 2.208110 1_555
Li13 O26 2.213167 1_655
Li14 O23 2.112479 1_555
Li14 O28 2.182627 1_555
Li14 O30 2.208110 1_555
Li14 O27 2.213167 1_555
Li15 O26 2.086206 1_555
Li15 O30 2.180611 1_555
Li15 O31 2.269862 1_555
Li15 O29 2.271552 1_555
O0 P0 1.570537 1_655
O0 V3 2.259868 1_545
O1 P6 1.546252 1_555
O1 V0 2.126993 1_555
O2 P0 1.551268 1_555
O2 V0 2.141728 1_555
O3 P1 1.570253 1_655
O3 V7 2.241490 1_555
O4 P1 1.553668 1_555
O4 V0 2.158305 1_555
O5 P5 1.553668 1_545
O5 V1 2.158305 1_555
O6 P1 1.549890 1_555
O6 V2 2.140129 1_555
O7 P7 1.554043 1_555
O7 V3 2.158635 1_554
O8 P3 1.551268 1_555
O8 V1 2.141728 1_555
O9 P2 1.546252 1_555
O9 V1 2.126993 1_455
O10 P2 1.570253 1_555
O10 V1 2.241490 1_555
O11 P3 1.547552 1_555
O11 V2 2.148171 1_655
O12 P3 1.570537 1_555
O12 V2 2.259868 1_555
O13 P0 1.547552 1_565
O13 V3 2.148171 1_555
O14 P2 1.549890 1_555
O14 V4 2.140129 1_555
O15 P3 1.554043 1_555
O15 V5 2.158635 1_554
O16 P4 1.554043 1_555
O16 V2 2.158635 1_556
O17 P5 1.549890 1_555
O17 V3 2.140129 1_555
O18 P7 1.547552 1_545
O18 V4 2.148171 1_555
O19 P4 1.570537 1_555
O19 V5 2.259868 1_555
O20 P4 1.547552 1_555
O20 V5 2.148171 1_455
O21 P5 1.570253 1_555
O21 V6 2.241490 1_555
O22 P5 1.546252 1_555
O22 V6 2.126993 1_655
O23 P4 1.551268 1_555
O23 V6 2.141728 1_555
O24 P0 1.554043 1_555
O24 V4 2.158635 1_556
O25 P6 1.549890 1_555
O25 V5 2.140129 1_555
O26 P2 1.553668 1_565
O26 V6 2.158305 1_555
O27 P6 1.553668 1_555
O27 V7 2.158305 1_555
O28 P6 1.570253 1_455
O28 V0 2.241490 1_555
O29 P7 1.551268 1_555
O29 V7 2.141728 1_555
O30 P1 1.546252 1_555
O30 V7 2.126993 1_555
O31 P7 1.570537 1_455
O31 V4 2.259868 1_565
F0 V0 2.099985 1_655
F0 Li1 2.106634 1_555
F0 V1 2.126788 1_555
F0 Li0 2.162912 1_555
F0 Li4 2.412935 1_655
F0 Li2 2.425129 1_655
F1 V1 2.099985 1_555
F1 Li2 2.106634 1_555
F1 V0 2.126788 1_555
F1 Li4 2.162912 1_555
F1 Li0 2.412935 1_555
F1 Li1 2.425129 1_555
F2 Li5 1.996268 1_555
F2 V2 2.125081 1_555
F2 V3 2.126854 1_454
F2 Li8 2.238560 1_554
F2 Li3 2.405390 1_455
F3 Li6 1.996268 1_555
F3 V3 2.125081 1_555
F3 V2 2.126854 1_556
F3 Li3 2.238560 1_556
F3 Li8 2.405390 1_555
F4 Li9 1.996268 1_555
F4 V4 2.125081 1_555
F4 V5 2.126854 1_554
F4 Li12 2.238560 1_554
F4 Li7 2.405390 1_555
F5 Li10 1.996268 1_555
F5 V5 2.125081 1_555
F5 V4 2.126854 1_656
F5 Li7 2.238560 1_556
F5 Li12 2.405390 1_655
F6 V6 2.099985 1_555
F6 Li13 2.106634 1_555
F6 V7 2.126788 1_555
F6 Li11 2.162912 1_555
F6 Li15 2.412935 1_555
F6 Li14 2.425129 1_555
F7 V7 2.099985 1_455
F7 Li14 2.106634 1_555
F7 V6 2.126788 1_555
F7 Li15 2.162912 1_555
F7 Li11 2.412935 1_455
F7 Li13 2.425129 1_455
