# generated using pymatgen
data_Y2ZnRu
_symmetry_space_group_name_H-M   'P 1'
_cell_length_a   4.90502936
_cell_length_b   4.90502497
_cell_length_c   4.90501985
_cell_angle_alpha   60.00008398
_cell_angle_beta   59.99996547
_cell_angle_gamma   59.99997039
_symmetry_Int_Tables_number   1
_chemical_formula_structural   Y2ZnRu
_chemical_formula_sum   'Y2 Zn1 Ru1'
_cell_volume   83.44660469
_cell_formula_units_Z   1
loop_
 _symmetry_equiv_pos_site_id
 _symmetry_equiv_pos_as_xyz
  1  'x, y, z'
loop_
 _atom_site_type_symbol
 _atom_site_label
 _atom_site_symmetry_multiplicity
 _atom_site_fract_x
 _atom_site_fract_y
 _atom_site_fract_z
 _atom_site_occupancy
  Y  Y0  1  0.00000000  -0.00000000  0.00000000  1
  Y  Y1  1  0.49999900  0.49999900  0.49999900  1
  Zn  Zn0  1  0.75000000  0.75000000  0.75000000  1
  Ru  Ru0  1  0.25000000  0.25000000  0.25000000  1
loop_
_geom_bond_atom_site_label_1
_geom_bond_atom_site_label_2
_geom_bond_distance
_geom_bond_site_symmetry_2
Y0 Zn0 3.003700 1_445
Y0 Zn0 3.003702 1_444
Y0 Zn0 3.003703 1_544
Y0 Zn0 3.003704 1_454
Y1 Zn0 3.003696 1_554
Y1 Zn0 3.003699 1_455
Y1 Zn0 3.003700 1_545
Y1 Zn0 3.003714 1_555
Ru0 Y1 3.003690 1_555
Ru0 Y0 3.003700 1_556
Ru0 Y0 3.003702 1_555
Ru0 Y0 3.003703 1_655
Ru0 Y0 3.003704 1_565
Ru0 Y1 3.003704 1_554
Ru0 Y1 3.003707 1_455
Ru0 Y1 3.003708 1_545
