# generated using pymatgen
data_Ac2IrAu
_symmetry_space_group_name_H-M   'P 1'
_cell_length_a   5.36665557
_cell_length_b   5.36665777
_cell_length_c   5.36665630
_cell_angle_alpha   60.00000915
_cell_angle_beta   59.99995912
_cell_angle_gamma   60.00001360
_symmetry_Int_Tables_number   1
_chemical_formula_structural   Ac2IrAu
_chemical_formula_sum   'Ac2 Ir1 Au1'
_cell_volume   109.29400744
_cell_formula_units_Z   1
loop_
 _symmetry_equiv_pos_site_id
 _symmetry_equiv_pos_as_xyz
  1  'x, y, z'
loop_
 _atom_site_type_symbol
 _atom_site_label
 _atom_site_symmetry_multiplicity
 _atom_site_fract_x
 _atom_site_fract_y
 _atom_site_fract_z
 _atom_site_occupancy
  Ac  Ac0  1  -0.00000000  -0.00000000  -0.00000000  1
  Ac  Ac1  1  0.50000000  0.50000000  0.50000000  1
  Ir  Ir0  1  0.75000000  0.75000000  0.75000000  1
  Au  Au0  1  0.25000100  0.25000100  0.25000100  1
loop_
_geom_bond_atom_site_label_1
_geom_bond_atom_site_label_2
_geom_bond_distance
_geom_bond_site_symmetry_2
Ac0 Au0 3.286387 1_455
Ac0 Au0 3.286387 1_554
Ac0 Au0 3.286390 1_545
Ac0 Ir0 3.286391 1_544
Ac0 Ir0 3.286391 1_445
Ac0 Ir0 3.286393 1_444
Ac0 Ir0 3.286394 1_454
Ac0 Au0 3.286406 1_555
Ac1 Au0 3.286380 1_555
Ac1 Ir0 3.286391 1_455
Ac1 Ir0 3.286391 1_554
Ac1 Ir0 3.286393 1_555
Ac1 Ir0 3.286394 1_545
Ac1 Au0 3.286396 1_655
Ac1 Au0 3.286396 1_556
Ac1 Au0 3.286399 1_565
