# generated using pymatgen
data_LiNi2P3O10
_symmetry_space_group_name_H-M   'P 1'
_cell_length_a   7.88263820
_cell_length_b   7.88263820
_cell_length_c   8.61978523
_cell_angle_alpha   64.95719604
_cell_angle_beta   64.95719604
_cell_angle_gamma   71.48332926
_symmetry_Int_Tables_number   1
_chemical_formula_structural   LiNi2P3O10
_chemical_formula_sum   'Li2 Ni4 P6 O20'
_cell_volume   433.33631921
_cell_formula_units_Z   2
loop_
 _symmetry_equiv_pos_site_id
 _symmetry_equiv_pos_as_xyz
  1  'x, y, z'
loop_
 _atom_site_type_symbol
 _atom_site_label
 _atom_site_symmetry_multiplicity
 _atom_site_fract_x
 _atom_site_fract_y
 _atom_site_fract_z
 _atom_site_occupancy
  Li  Li0  1  0.36146500  0.63853500  0.25000000  1
  Li  Li1  1  0.63853500  0.36146500  0.75000000  1
  Ni  Ni0  1  0.67631000  0.75502400  0.45473800  1
  Ni  Ni1  1  0.75502400  0.67631000  0.95473800  1
  Ni  Ni2  1  0.24497600  0.32369000  0.04526200  1
  Ni  Ni3  1  0.32369000  0.24497600  0.54526200  1
  P  P0  1  0.84366800  0.44674600  0.31093900  1
  P  P1  1  0.44674600  0.84366800  0.81093900  1
  P  P2  1  0.91000300  0.08999700  0.25000000  1
  P  P3  1  0.08999700  0.91000300  0.75000000  1
  P  P4  1  0.55325400  0.15633200  0.18906100  1
  P  P5  1  0.15633200  0.55325400  0.68906100  1
  O  O0  1  0.88438100  0.89030400  0.37571400  1
  O  O1  1  0.89030400  0.88438100  0.87571400  1
  O  O2  1  0.52387800  0.95483800  0.31530400  1
  O  O3  1  0.78532300  0.47847500  0.49260500  1
  O  O4  1  0.69204600  0.56949400  0.22051900  1
  O  O5  1  0.95483800  0.52387800  0.81530400  1
  O  O6  1  0.82786800  0.22402200  0.37325400  1
  O  O7  1  0.47847500  0.78532300  0.99260500  1
  O  O8  1  0.56949400  0.69204600  0.72051900  1
  O  O9  1  0.77597800  0.17213200  0.12674600  1
  O  O10  1  0.22402200  0.82786800  0.87325400  1
  O  O11  1  0.43050600  0.30795400  0.27948100  1
  O  O12  1  0.52152500  0.21467700  0.00739500  1
  O  O13  1  0.17213200  0.77597800  0.62674600  1
  O  O14  1  0.04516200  0.47612200  0.18469600  1
  O  O15  1  0.30795400  0.43050600  0.77948100  1
  O  O16  1  0.21467700  0.52152500  0.50739500  1
  O  O17  1  0.47612200  0.04516200  0.68469600  1
  O  O18  1  0.10969600  0.11561900  0.12428600  1
  O  O19  1  0.11561900  0.10969600  0.62428600  1
loop_
_geom_bond_atom_site_label_1
_geom_bond_atom_site_label_2
_geom_bond_distance
_geom_bond_site_symmetry_2
Li0 O16 1.970830 1_555
Li0 O7 1.970830 1_554
Li0 O11 2.409755 1_555
Li0 O4 2.409755 1_555
Li1 O12 1.970830 1_556
Li1 O3 1.970830 1_555
Li1 O15 2.409755 1_555
Li1 O8 2.409755 1_555
Ni0 O2 1.946027 1_555
Ni0 O0 1.959932 1_555
Ni0 O8 1.968135 1_555
Ni0 O3 2.010556 1_555
Ni1 O5 1.946027 1_555
Ni1 O1 1.959932 1_555
Ni1 O4 1.968135 1_556
Ni1 O7 2.010556 1_555
Ni2 O14 1.946027 1_555
Ni2 O18 1.959932 1_555
Ni2 O15 1.968135 1_554
Ni2 O12 2.010556 1_555
Ni3 O17 1.946027 1_555
Ni3 O19 1.959932 1_555
Ni3 O11 1.968135 1_555
Ni3 O16 2.010556 1_555
O0 P2 1.505136 1_565
O1 P3 1.505136 1_655
O2 P4 1.522347 1_565
O3 P0 1.541099 1_555
O4 P0 1.545248 1_555
O5 P5 1.522347 1_655
O6 P2 1.611675 1_555
O6 P0 1.634085 1_555
O7 P1 1.541099 1_555
O8 P1 1.545248 1_555
O9 P2 1.611675 1_555
O9 P4 1.634085 1_555
O10 P3 1.611675 1_555
O10 P1 1.634085 1_555
O11 P4 1.545248 1_555
O12 P4 1.541099 1_555
O13 P3 1.611675 1_555
O13 P5 1.634085 1_555
O14 P0 1.522347 1_455
O15 P5 1.545248 1_555
O16 P5 1.541099 1_555
O17 P1 1.522347 1_545
O18 P2 1.505136 1_455
O19 P3 1.505136 1_545
