# generated using pymatgen
data_Li2VOF3
_symmetry_space_group_name_H-M   'P 1'
_cell_length_a   7.88040522
_cell_length_b   7.46950405
_cell_length_c   5.48480940
_cell_angle_alpha   42.70968271
_cell_angle_beta   69.98322290
_cell_angle_gamma   100.66428413
_symmetry_Int_Tables_number   1
_chemical_formula_structural   Li2VOF3
_chemical_formula_sum   'Li4 V2 O2 F6'
_cell_volume   149.89766586
_cell_formula_units_Z   2
loop_
 _symmetry_equiv_pos_site_id
 _symmetry_equiv_pos_as_xyz
  1  'x, y, z'
loop_
 _atom_site_type_symbol
 _atom_site_label
 _atom_site_symmetry_multiplicity
 _atom_site_fract_x
 _atom_site_fract_y
 _atom_site_fract_z
 _atom_site_occupancy
  Li  Li0  1  0.41402100  0.42329600  0.70982300  1
  Li  Li1  1  0.69140400  0.16273300  0.91322300  1
  Li  Li2  1  0.40969300  0.88202500  0.75725600  1
  Li  Li3  1  0.68902800  0.69598600  0.87430500  1
  V  V0  1  0.99090800  0.00553400  0.98233200  1
  V  V1  1  0.99074400  0.45469300  0.03417600  1
  O  O0  1  0.86774500  0.06480000  0.70698200  1
  O  O1  1  0.87149800  0.15311400  0.11640800  1
  F  F0  1  0.35705100  0.69887100  0.61930400  1
  F  F1  1  0.65243300  0.48197500  0.72622700  1
  F  F2  1  0.11083400  0.79276600  0.94478900  1
  F  F3  1  0.11347400  0.90981100  0.32544600  1
  F  F4  1  0.35704400  0.49408100  0.32149600  1
  F  F5  1  0.65294000  0.30318500  0.40245800  1
loop_
_geom_bond_atom_site_label_1
_geom_bond_atom_site_label_2
_geom_bond_distance
_geom_bond_site_symmetry_2
Li1 O0 2.064449 1_555
Li1 O1 2.064973 1_556
Li3 O1 2.058644 1_565
Li3 O0 2.092530 1_565
O0 V0 1.897048 1_555
O0 V1 1.936861 1_555
O1 V1 1.895827 1_555
O1 V0 1.934671 1_554
F0 Li0 1.917768 1_555
F0 Li1 1.965056 1_564
F0 Li2 2.035260 1_555
F0 V1 2.071863 1_456
F1 Li0 1.897085 1_555
F1 Li1 1.930004 1_555
F1 V0 2.072542 1_564
F1 Li3 2.279454 1_555
F2 Li2 1.949817 1_555
F2 V0 2.089243 1_465
F2 V1 2.119254 1_456
F3 Li0 1.962720 1_564
F3 V1 2.095646 1_456
F3 V0 2.123263 1_464
F4 Li2 1.908793 1_554
F4 Li3 1.960990 1_554
F4 Li0 2.026132 1_555
F4 V0 2.069962 1_455
F5 Li2 1.890922 1_545
F5 Li3 1.928086 1_554
F5 V1 2.071654 1_555
F5 Li1 2.328186 1_555
