# generated using pymatgen
data_Li5Mn6(BO3)6
_symmetry_space_group_name_H-M   'P 1'
_cell_length_a   8.28421500
_cell_length_b   8.80218483
_cell_length_c   12.64850327
_cell_angle_alpha   70.17369563
_cell_angle_beta   71.24275313
_cell_angle_gamma   62.20502147
_symmetry_Int_Tables_number   1
_chemical_formula_structural   Li5Mn6(BO3)6
_chemical_formula_sum   'Li10 Mn12 B12 O36'
_cell_volume   752.59935309
_cell_formula_units_Z   2
loop_
 _symmetry_equiv_pos_site_id
 _symmetry_equiv_pos_as_xyz
  1  'x, y, z'
loop_
 _atom_site_type_symbol
 _atom_site_label
 _atom_site_symmetry_multiplicity
 _atom_site_fract_x
 _atom_site_fract_y
 _atom_site_fract_z
 _atom_site_occupancy
  Li  Li0  1  0.29352200  0.40960800  0.30715300  1
  Li  Li1  1  0.30149500  0.16003200  0.55923800  1
  Li  Li2  1  0.97726000  0.10277500  0.20041100  1
  Li  Li3  1  0.29249200  0.92516000  0.79952100  1
  Li  Li4  1  0.71382400  0.61658700  0.36782600  1
  Li  Li5  1  0.72625700  0.11462900  0.86614400  1
  Li  Li6  1  0.70963300  0.86382100  0.12003000  1
  Li  Li7  1  0.98027000  0.35327300  0.94811600  1
  Li  Li8  1  0.99278400  0.59175100  0.70318900  1
  Li  Li9  1  0.98012800  0.85454900  0.44822200  1
  Mn  Mn0  1  0.99848100  0.23043700  0.41208100  1
  Mn  Mn1  1  0.01548700  0.47578400  0.16018800  1
  Mn  Mn2  1  0.35395700  0.99435300  0.00144200  1
  Mn  Mn3  1  0.62066400  0.27489200  0.09132700  1
  Mn  Mn4  1  0.61810100  0.02318000  0.34028100  1
  Mn  Mn5  1  0.00556600  0.97531500  0.65625800  1
  Mn  Mn6  1  0.02174200  0.72696600  0.91350100  1
  Mn  Mn7  1  0.35453600  0.75299700  0.24979200  1
  Mn  Mn8  1  0.36418400  0.50931400  0.50151000  1
  Mn  Mn9  1  0.38758600  0.25872000  0.75085100  1
  Mn  Mn10  1  0.61538800  0.53013500  0.84248000  1
  Mn  Mn11  1  0.64765100  0.74556600  0.58355100  1
  B  B0  1  0.32763900  0.12422300  0.20616300  1
  B  B1  1  0.00853800  0.25079500  0.75467000  1
  B  B2  1  0.01153100  0.50195500  0.49673900  1
  B  B3  1  0.33892900  0.37520600  0.94922500  1
  B  B4  1  0.66042600  0.11405100  0.54745500  1
  B  B5  1  0.32663800  0.87639400  0.45999800  1
  B  B6  1  0.33981500  0.62067100  0.71648100  1
  B  B7  1  0.66424600  0.37701200  0.29135500  1
  B  B8  1  0.67864500  0.62334900  0.03347200  1
  B  B9  1  0.98769800  0.01114800  0.99797700  1
  B  B10  1  0.67334400  0.86899900  0.79150500  1
  B  B11  1  0.98783600  0.75331200  0.25560400  1
  O  O0  1  0.24990900  0.04022100  0.17370000  1
  O  O1  1  0.22347300  0.50243100  0.00805700  1
  O  O2  1  0.21534000  0.02098100  0.50962300  1
  O  O3  1  0.21595900  0.26231300  0.26112700  1
  O  O4  1  0.17711000  0.65811700  0.24055100  1
  O  O5  1  0.20441500  0.18366100  0.72238200  1
  O  O6  1  0.20392700  0.40645800  0.47472200  1
  O  O7  1  0.52039700  0.06893300  0.18315900  1
  O  O8  1  0.26831000  0.28792600  0.91159900  1
  O  O9  1  0.58212600  0.02745400  0.52023800  1
  O  O10  1  0.24648900  0.79227800  0.43061900  1
  O  O11  1  0.57455000  0.29877700  0.26440900  1
  O  O12  1  0.26934400  0.52563000  0.68801400  1
  O  O13  1  0.61019900  0.53505400  0.99646100  1
  O  O14  1  0.54116000  0.25764100  0.59860200  1
  O  O15  1  0.22156300  0.77016800  0.75696100  1
  O  O16  1  0.55812100  0.76312800  0.08473500  1
  O  O17  1  0.56148300  0.02473700  0.83120100  1
  O  O18  1  0.55794600  0.52155400  0.34115000  1
  O  O19  1  0.91133000  0.15250000  0.05085000  1
  O  O20  1  0.17642200  0.93770600  0.95647100  1
  O  O21  1  0.85037900  0.06452900  0.52291900  1
  O  O22  1  0.53286900  0.32735500  0.92237100  1
  O  O23  1  0.52037800  0.81292100  0.43974900  1
  O  O24  1  0.53261700  0.55831300  0.70393000  1
  O  O25  1  0.85637200  0.31287300  0.26937200  1
  O  O26  1  0.86867900  0.56427500  0.01911100  1
  O  O27  1  0.87391900  0.70011000  0.22830300  1
  O  O28  1  0.91543100  0.16416500  0.74420200  1
  O  O29  1  0.89439900  0.46160100  0.46535400  1
  O  O30  1  0.58402800  0.78215800  0.77261400  1
  O  O31  1  0.90649300  0.90403500  0.30067000  1
  O  O32  1  0.91108500  0.40218800  0.79964000  1
  O  O33  1  0.93661100  0.64321300  0.55072200  1
  O  O34  1  0.86340600  0.80605100  0.77273600  1
  O  O35  1  0.87108900  0.94655600  0.98490300  1
loop_
_geom_bond_atom_site_label_1
_geom_bond_atom_site_label_2
_geom_bond_distance
_geom_bond_site_symmetry_2
Li0 O4 1.931225 1_555
Li0 O3 1.990539 1_555
Li0 O6 2.002884 1_555
Li0 O11 2.023410 1_555
Li1 O6 1.961812 1_555
Li1 O5 2.004006 1_555
Li1 O2 2.006261 1_555
Li1 O9 2.032897 1_555
Li2 O19 1.987052 1_555
Li2 O31 1.996385 1_545
Li2 O25 1.997233 1_555
Li2 O0 1.998632 1_655
Li3 O20 1.923482 1_555
Li3 O15 1.986329 1_555
Li3 O5 2.016239 1_565
Li3 O30 2.111863 1_555
Li4 O29 1.939732 1_555
Li4 O23 1.981999 1_555
Li4 O27 1.984402 1_555
Li4 O18 1.990019 1_555
Li5 O28 1.910919 1_555
Li5 O35 1.969977 1_545
Li5 O22 1.987812 1_555
Li5 O17 2.077791 1_555
Li6 O35 1.958177 1_554
Li6 O27 1.958381 1_555
Li6 O7 1.971807 1_565
Li6 O16 2.055860 1_555
Li7 O32 1.988553 1_555
Li7 O19 2.010996 1_556
Li7 O26 2.026488 1_556
Li7 O8 2.104622 1_655
Li8 O32 1.967709 1_555
Li8 O33 1.982109 1_555
Li8 O34 2.028409 1_555
Li8 O12 2.043041 1_655
Li9 O10 1.964153 1_655
Li9 O33 1.989999 1_555
Li9 O31 1.994462 1_555
Li9 O21 2.035387 1_565
Mn0 O29 2.063461 1_555
Mn0 O21 2.186178 1_555
Mn0 O25 2.202765 1_555
Mn0 O3 2.205890 1_655
Mn0 O2 2.223105 1_655
Mn1 O27 2.088313 1_455
Mn1 O1 2.159844 1_555
Mn1 O3 2.178258 1_555
Mn1 O26 2.199849 1_455
Mn1 O25 2.224801 1_455
Mn2 O20 2.037050 1_554
Mn2 O16 2.143356 1_555
Mn2 O0 2.171987 1_565
Mn2 O8 2.299770 1_564
Mn2 O17 2.306773 1_564
Mn3 O19 2.093535 1_555
Mn3 O7 2.163602 1_555
Mn3 O11 2.163866 1_555
Mn3 O13 2.170067 1_554
Mn3 O22 2.307837 1_554
Mn4 O31 2.075713 1_545
Mn4 O11 2.182464 1_555
Mn4 O23 2.196884 1_545
Mn4 O9 2.209666 1_555
Mn4 O7 2.225869 1_555
Mn5 O28 2.029938 1_465
Mn5 O21 2.160635 1_465
Mn5 O2 2.166659 1_565
Mn5 O34 2.192906 1_455
Mn5 O15 2.230945 1_555
Mn6 O35 2.078155 1_455
Mn6 O1 2.175090 1_556
Mn6 O26 2.179333 1_456
Mn6 O15 2.184867 1_555
Mn6 O34 2.277018 1_455
Mn7 O4 2.047702 1_555
Mn7 O18 2.186061 1_555
Mn7 O0 2.216214 1_565
Mn7 O16 2.227218 1_555
Mn7 O10 2.254588 1_555
Mn8 O6 2.077343 1_555
Mn8 O18 2.149749 1_555
Mn8 O10 2.177319 1_555
Mn8 O14 2.201946 1_555
Mn8 O12 2.266142 1_555
Mn9 O14 1.937163 1_555
Mn9 O8 2.000511 1_555
Mn9 O17 2.025991 1_555
Mn9 O12 2.049053 1_555
Mn9 O5 2.077626 1_555
Mn10 O13 1.949001 1_555
Mn10 O24 1.980433 1_555
Mn10 O30 2.012433 1_555
Mn10 O22 2.035813 1_555
Mn10 O32 2.133075 1_555
Mn11 O33 2.077879 1_555
Mn11 O23 2.165723 1_555
Mn11 O9 2.183586 1_565
Mn11 O24 2.184608 1_555
Mn11 O30 2.377757 1_555
B0 O3 1.388341 1_555
B0 O7 1.394240 1_555
B0 O0 1.396422 1_555
B1 O28 1.369895 1_455
B1 O32 1.402357 1_455
B1 O5 1.411499 1_555
B2 O29 1.374830 1_455
B2 O6 1.395829 1_555
B2 O33 1.407505 1_455
B3 O1 1.353240 1_556
B3 O22 1.410335 1_555
B3 O8 1.416049 1_555
B4 O21 1.378604 1_555
B4 O9 1.379494 1_555
B4 O14 1.403969 1_555
B5 O10 1.389582 1_555
B5 O2 1.392531 1_565
B5 O23 1.396472 1_555
B6 O15 1.373189 1_555
B6 O24 1.398568 1_555
B6 O12 1.401894 1_555
B7 O25 1.383159 1_555
B7 O18 1.390271 1_555
B7 O11 1.393496 1_555
B8 O26 1.377848 1_555
B8 O16 1.382113 1_555
B8 O13 1.404701 1_554
B9 O20 1.377534 1_645
B9 O19 1.397773 1_556
B9 O35 1.400897 1_545
B10 O34 1.370282 1_555
B10 O30 1.397830 1_555
B10 O17 1.404620 1_565
B11 O4 1.373991 1_655
B11 O27 1.400202 1_555
B11 O31 1.404033 1_555
