# generated using pymatgen
data_KV12O30
_symmetry_space_group_name_H-M   'P 1'
_cell_length_a   10.87619597
_cell_length_b   10.87619597
_cell_length_c   15.29099000
_cell_angle_alpha   90.00000000
_cell_angle_beta   90.00000000
_cell_angle_gamma   119.99999983
_symmetry_Int_Tables_number   1
_chemical_formula_structural   KV12O30
_chemical_formula_sum   'K2 V24 O60'
_cell_volume   1566.46351954
_cell_formula_units_Z   2
loop_
 _symmetry_equiv_pos_site_id
 _symmetry_equiv_pos_as_xyz
  1  'x, y, z'
loop_
 _atom_site_type_symbol
 _atom_site_label
 _atom_site_symmetry_multiplicity
 _atom_site_fract_x
 _atom_site_fract_y
 _atom_site_fract_z
 _atom_site_occupancy
  K  K0  1  0.00000000  0.00000000  0.25000000  1
  K  K1  1  0.00000000  0.00000000  0.75000000  1
  V  V0  1  0.11965000  0.75453900  0.61574200  1
  V  V1  1  0.11965000  0.75453900  0.38425800  1
  V  V2  1  0.11965000  0.36511100  0.11574200  1
  V  V3  1  0.11965000  0.36511100  0.88425800  1
  V  V4  1  0.88035000  0.63488900  0.11574200  1
  V  V5  1  0.88035000  0.63488900  0.88425800  1
  V  V6  1  0.88035000  0.24546100  0.38425800  1
  V  V7  1  0.88035000  0.24546100  0.61574200  1
  V  V8  1  0.24546100  0.88035000  0.11574200  1
  V  V9  1  0.24546100  0.88035000  0.88425800  1
  V  V10  1  0.24546100  0.36511100  0.61574200  1
  V  V11  1  0.24546100  0.36511100  0.38425800  1
  V  V12  1  0.63488900  0.88035000  0.38425800  1
  V  V13  1  0.63488900  0.88035000  0.61574200  1
  V  V14  1  0.36511100  0.24546100  0.11574200  1
  V  V15  1  0.36511100  0.24546100  0.88425800  1
  V  V16  1  0.63488900  0.75453900  0.11574200  1
  V  V17  1  0.63488900  0.75453900  0.88425800  1
  V  V18  1  0.36511100  0.11965000  0.61574200  1
  V  V19  1  0.36511100  0.11965000  0.38425800  1
  V  V20  1  0.75453900  0.63488900  0.38425800  1
  V  V21  1  0.75453900  0.63488900  0.61574200  1
  V  V22  1  0.75453900  0.11965000  0.11574200  1
  V  V23  1  0.75453900  0.11965000  0.88425800  1
  O  O0  1  0.05901000  0.77205500  0.14382700  1
  O  O1  1  0.05901000  0.77205500  0.85617300  1
  O  O2  1  0.22794500  0.94099000  0.64382700  1
  O  O3  1  0.22794500  0.94099000  0.35617300  1
  O  O4  1  0.13506300  0.73079600  0.50000000  1
  O  O5  1  0.26920400  0.86493700  0.00000000  1
  O  O6  1  0.16214400  0.65425900  0.33022200  1
  O  O7  1  0.16214400  0.65425900  0.66977800  1
  O  O8  1  0.16214400  0.50788500  0.16977800  1
  O  O9  1  0.16214400  0.50788500  0.83022200  1
  O  O10  1  0.05901000  0.28695500  0.64382700  1
  O  O11  1  0.05901000  0.28695500  0.35617300  1
  O  O12  1  0.34574100  0.83785600  0.16977800  1
  O  O13  1  0.34574100  0.83785600  0.83022200  1
  O  O14  1  0.13506300  0.40426700  0.00000000  1
  O  O15  1  0.26920400  0.40426700  0.50000000  1
  O  O16  1  0.49211500  0.83785600  0.66977800  1
  O  O17  1  0.49211500  0.83785600  0.33022200  1
  O  O18  1  0.22794500  0.28695500  0.14382700  1
  O  O19  1  0.22794500  0.28695500  0.85617300  1
  O  O20  1  0.34574100  0.50788500  0.66977800  1
  O  O21  1  0.34574100  0.50788500  0.33022200  1
  O  O22  1  0.49211500  0.65425900  0.16977800  1
  O  O23  1  0.49211500  0.65425900  0.83022200  1
  O  O24  1  0.28695500  0.22794500  0.64382700  1
  O  O25  1  0.28695500  0.22794500  0.35617300  1
  O  O26  1  0.59573300  0.86493700  0.50000000  1
  O  O27  1  0.59573300  0.73079600  0.00000000  1
  O  O28  1  0.28695500  0.05901000  0.14382700  1
  O  O29  1  0.28695500  0.05901000  0.85617300  1
  O  O30  1  0.71304500  0.94099000  0.14382700  1
  O  O31  1  0.71304500  0.94099000  0.85617300  1
  O  O32  1  0.40426700  0.26920400  0.00000000  1
  O  O33  1  0.40426700  0.13506300  0.50000000  1
  O  O34  1  0.71304500  0.77205500  0.35617300  1
  O  O35  1  0.71304500  0.77205500  0.64382700  1
  O  O36  1  0.50788500  0.34574100  0.16977800  1
  O  O37  1  0.50788500  0.34574100  0.83022200  1
  O  O38  1  0.65425900  0.49211500  0.33022200  1
  O  O39  1  0.65425900  0.49211500  0.66977800  1
  O  O40  1  0.77205500  0.71304500  0.14382700  1
  O  O41  1  0.77205500  0.71304500  0.85617300  1
  O  O42  1  0.50788500  0.16214400  0.33022200  1
  O  O43  1  0.50788500  0.16214400  0.66977800  1
  O  O44  1  0.73079600  0.59573300  0.50000000  1
  O  O45  1  0.86493700  0.59573300  0.00000000  1
  O  O46  1  0.65425900  0.16214400  0.16977800  1
  O  O47  1  0.65425900  0.16214400  0.83022200  1
  O  O48  1  0.94099000  0.71304500  0.35617300  1
  O  O49  1  0.94099000  0.71304500  0.64382700  1
  O  O50  1  0.83785600  0.49211500  0.83022200  1
  O  O51  1  0.83785600  0.49211500  0.16977800  1
  O  O52  1  0.83785600  0.34574100  0.33022200  1
  O  O53  1  0.83785600  0.34574100  0.66977800  1
  O  O54  1  0.73079600  0.13506300  0.00000000  1
  O  O55  1  0.86493700  0.26920400  0.50000000  1
  O  O56  1  0.77205500  0.05901000  0.35617300  1
  O  O57  1  0.77205500  0.05901000  0.64382700  1
  O  O58  1  0.94099000  0.22794500  0.14382700  1
  O  O59  1  0.94099000  0.22794500  0.85617300  1
loop_
_geom_bond_atom_site_label_1
_geom_bond_atom_site_label_2
_geom_bond_distance
_geom_bond_site_symmetry_2
K0 O3 3.284065 1_545
K0 O58 3.284065 1_455
K0 O56 3.284065 1_455
K0 O0 3.284065 1_545
K0 O11 3.284065 1_555
K0 O28 3.284065 1_555
K0 O48 3.284065 1_445
K0 O30 3.284065 1_445
K0 O25 3.284065 1_555
K0 O18 3.284065 1_555
K0 O34 3.284065 1_445
K0 O40 3.284065 1_445
K1 O59 3.284065 1_455
K1 O2 3.284065 1_545
K1 O1 3.284065 1_545
K1 O57 3.284065 1_455
K1 O29 3.284065 1_555
K1 O10 3.284065 1_555
K1 O31 3.284065 1_445
K1 O49 3.284065 1_445
K1 O19 3.284065 1_555
K1 O24 3.284065 1_555
K1 O41 3.284065 1_445
K1 O35 3.284065 1_445
O0 V4 1.812997 1_455
O0 V8 1.815352 1_555
O1 V5 1.812997 1_455
O1 V9 1.815352 1_555
O2 V18 1.812997 1_565
O2 V0 1.815352 1_555
O3 V19 1.812997 1_565
O3 V1 1.815352 1_555
O4 V1 1.808397 1_555
O4 V0 1.808397 1_555
O5 V8 1.808397 1_555
O5 V9 1.808397 1_554
O6 V1 1.609330 1_555
O7 V0 1.609330 1_555
O8 V2 1.609330 1_555
O9 V3 1.609330 1_555
O10 V7 1.812997 1_455
O10 V10 1.815352 1_555
O11 V6 1.812997 1_455
O11 V11 1.815352 1_555
O12 V8 1.609330 1_555
O13 V9 1.609330 1_555
O14 V2 1.808397 1_555
O14 V3 1.808397 1_554
O15 V10 1.808397 1_555
O15 V11 1.808397 1_555
O16 V13 1.609330 1_555
O17 V12 1.609330 1_555
O18 V14 1.812997 1_555
O18 V2 1.815352 1_555
O19 V15 1.812997 1_555
O19 V3 1.815352 1_555
O20 V10 1.609330 1_555
O21 V11 1.609330 1_555
O22 V16 1.609330 1_555
O23 V17 1.609330 1_555
O24 V10 1.812997 1_555
O24 V18 1.815352 1_555
O25 V11 1.812997 1_555
O25 V19 1.815352 1_555
O26 V12 1.808397 1_555
O26 V13 1.808397 1_555
O27 V16 1.808397 1_555
O27 V17 1.808397 1_554
O28 V8 1.812997 1_545
O28 V14 1.815352 1_555
O29 V9 1.812997 1_545
O29 V15 1.815352 1_555
O30 V22 1.812997 1_565
O30 V16 1.815352 1_555
O31 V23 1.812997 1_565
O31 V17 1.815352 1_555
O32 V14 1.808397 1_555
O32 V15 1.808397 1_554
O33 V18 1.808397 1_555
O33 V19 1.808397 1_555
O34 V20 1.812997 1_555
O34 V12 1.815352 1_555
O35 V21 1.812997 1_555
O35 V13 1.815352 1_555
O36 V14 1.609330 1_555
O37 V15 1.609330 1_555
O38 V20 1.609330 1_555
O39 V21 1.609330 1_555
O40 V16 1.812997 1_555
O40 V4 1.815352 1_555
O41 V17 1.812997 1_555
O41 V5 1.815352 1_555
O42 V19 1.609330 1_555
O43 V18 1.609330 1_555
O44 V20 1.808397 1_555
O44 V21 1.808397 1_555
O45 V4 1.808397 1_555
O45 V5 1.808397 1_554
O46 V22 1.609330 1_555
O47 V23 1.609330 1_555
O48 V1 1.812997 1_655
O48 V20 1.815352 1_555
O49 V0 1.812997 1_655
O49 V21 1.815352 1_555
O50 V5 1.609330 1_555
O51 V4 1.609330 1_555
O52 V6 1.609330 1_555
O53 V7 1.609330 1_555
O54 V22 1.808397 1_555
O54 V23 1.808397 1_554
O55 V6 1.808397 1_555
O55 V7 1.808397 1_555
O56 V12 1.812997 1_545
O56 V6 1.815352 1_555
O57 V13 1.812997 1_545
O57 V7 1.815352 1_555
O58 V2 1.812997 1_655
O58 V22 1.815352 1_555
O59 V3 1.812997 1_655
O59 V23 1.815352 1_555
