# generated using pymatgen
data_Na8NbO6
_symmetry_space_group_name_H-M   'P 1'
_cell_length_a   6.52711800
_cell_length_b   6.52711800
_cell_length_c   13.25362000
_cell_angle_alpha   90.00000000
_cell_angle_beta   90.00000000
_cell_angle_gamma   119.99999999
_symmetry_Int_Tables_number   1
_chemical_formula_structural   Na8NbO6
_chemical_formula_sum   'Na16 Nb2 O12'
_cell_volume   488.99911646
_cell_formula_units_Z   2
loop_
 _symmetry_equiv_pos_site_id
 _symmetry_equiv_pos_as_xyz
  1  'x, y, z'
loop_
 _atom_site_type_symbol
 _atom_site_label
 _atom_site_symmetry_multiplicity
 _atom_site_fract_x
 _atom_site_fract_y
 _atom_site_fract_z
 _atom_site_occupancy
  Na  Na0  1  0.00000000  0.69734500  0.76923500  1
  Na  Na1  1  0.00000000  0.60159300  0.12849900  1
  Na  Na2  1  0.00000000  0.39840700  0.62849900  1
  Na  Na3  1  0.00000000  0.30265500  0.26923500  1
  Na  Na4  1  0.33333300  0.66666700  0.40934700  1
  Na  Na5  1  0.33333300  0.66666700  0.90934700  1
  Na  Na6  1  0.30265500  0.30265500  0.76923500  1
  Na  Na7  1  0.39840700  0.39840700  0.12849900  1
  Na  Na8  1  0.60159300  0.60159300  0.62849900  1
  Na  Na9  1  0.30265500  0.00000000  0.26923500  1
  Na  Na10  1  0.69734500  0.69734500  0.26923500  1
  Na  Na11  1  0.39840700  0.00000000  0.62849900  1
  Na  Na12  1  0.66666700  0.33333300  0.90934700  1
  Na  Na13  1  0.66666700  0.33333300  0.40934700  1
  Na  Na14  1  0.60159300  0.00000000  0.12849900  1
  Na  Na15  1  0.69734500  0.00000000  0.76923500  1
  Nb  Nb0  1  0.00000000  0.00000000  0.99066400  1
  Nb  Nb1  1  0.00000000  0.00000000  0.49066400  1
  O  O0  1  0.00000000  0.71981500  0.95319400  1
  O  O1  1  0.00000000  0.28018500  0.45319400  1
  O  O2  1  0.33333300  0.66666700  0.22269000  1
  O  O3  1  0.00000000  0.00000000  0.13411600  1
  O  O4  1  0.00000000  0.00000000  0.63411600  1
  O  O5  1  0.33333300  0.66666700  0.72269000  1
  O  O6  1  0.28018500  0.28018500  0.95319400  1
  O  O7  1  0.28018500  0.00000000  0.45319400  1
  O  O8  1  0.71981500  0.71981500  0.45319400  1
  O  O9  1  0.66666700  0.33333300  0.72269000  1
  O  O10  1  0.66666700  0.33333300  0.22269000  1
  O  O11  1  0.71981500  0.00000000  0.95319400  1
loop_
_geom_bond_atom_site_label_1
_geom_bond_atom_site_label_2
_geom_bond_distance
_geom_bond_site_symmetry_2
Na0 O5 2.364317 1_555
Na0 O9 2.364321 1_455
Na0 O0 2.442530 1_555
Na0 O4 2.666361 1_565
Na1 O2 2.355506 1_555
Na1 O10 2.355508 1_455
Na1 O0 2.448214 1_554
Na1 O3 2.601515 1_565
Na2 O9 2.355506 1_455
Na2 O5 2.355508 1_555
Na2 O1 2.448214 1_555
Na2 O4 2.601515 1_555
Na3 O10 2.364317 1_455
Na3 O2 2.364321 1_555
Na3 O1 2.442530 1_555
Na3 O3 2.666361 1_555
Na4 O7 2.438545 1_565
Na4 O1 2.438549 1_555
Na4 O8 2.438551 1_555
Na4 O2 2.473881 1_555
Na5 O0 2.438545 1_555
Na5 O11 2.438549 1_565
Na5 O6 2.438551 1_555
Na5 O5 2.473881 1_555
Na6 O5 2.364324 1_555
Na6 O9 2.364324 1_555
Na6 O6 2.442530 1_555
Na6 O4 2.666361 1_555
Na7 O2 2.355511 1_555
Na7 O10 2.355511 1_555
Na7 O6 2.448214 1_554
Na7 O3 2.601515 1_555
Na8 O5 2.355511 1_555
Na8 O9 2.355511 1_555
Na8 O8 2.448214 1_555
Na8 O4 2.601515 1_665
Na9 O2 2.364317 1_545
Na9 O10 2.364321 1_555
Na9 O7 2.442530 1_555
Na9 O3 2.666361 1_555
Na10 O10 2.364324 1_555
Na10 O2 2.364324 1_555
Na10 O8 2.442530 1_555
Na10 O3 2.666361 1_665
Na11 O5 2.355506 1_545
Na11 O9 2.355508 1_555
Na11 O7 2.448214 1_555
Na11 O4 2.601515 1_555
Na12 O11 2.438545 1_555
Na12 O0 2.438549 1_655
Na12 O6 2.438551 1_555
Na12 O9 2.473881 1_555
Na13 O1 2.438545 1_655
Na13 O7 2.438549 1_555
Na13 O8 2.438551 1_555
Na13 O10 2.473881 1_555
Na14 O10 2.355506 1_555
Na14 O2 2.355508 1_545
Na14 O11 2.448214 1_554
Na14 O3 2.601515 1_655
Na15 O9 2.364317 1_555
Na15 O5 2.364321 1_545
Na15 O11 2.442530 1_555
Na15 O4 2.666361 1_655
Nb0 O0 1.895029 1_545
Nb0 O11 1.895029 1_455
Nb0 O6 1.895029 1_555
Nb0 O3 1.901258 1_556
Nb1 O1 1.895029 1_555
Nb1 O7 1.895029 1_555
Nb1 O8 1.895029 1_445
Nb1 O4 1.901258 1_555
