# generated using pymatgen
data_CsTi8O16
_symmetry_space_group_name_H-M   'P 1'
_cell_length_a   10.80385003
_cell_length_b   10.80385003
_cell_length_c   14.67753021
_cell_angle_alpha   47.19466197
_cell_angle_beta   47.19466197
_cell_angle_gamma   32.05364363
_symmetry_Int_Tables_number   1
_chemical_formula_structural   CsTi8O16
_chemical_formula_sum   'Cs2 Ti16 O32'
_cell_volume   643.02440406
_cell_formula_units_Z   2
loop_
 _symmetry_equiv_pos_site_id
 _symmetry_equiv_pos_as_xyz
  1  'x, y, z'
loop_
 _atom_site_type_symbol
 _atom_site_label
 _atom_site_symmetry_multiplicity
 _atom_site_fract_x
 _atom_site_fract_y
 _atom_site_fract_z
 _atom_site_occupancy
  Cs  Cs0  1  0.65663200  0.34336800  0.75000000  1
  Cs  Cs1  1  0.34336800  0.65663200  0.25000000  1
  Ti  Ti0  1  0.88353900  0.63430500  0.90101000  1
  Ti  Ti1  1  0.37984500  0.12906200  0.90291100  1
  Ti  Ti2  1  0.62015500  0.87093800  0.09708900  1
  Ti  Ti3  1  0.11646100  0.36569500  0.09899000  1
  Ti  Ti4  1  0.46717400  0.71760600  0.91105100  1
  Ti  Ti5  1  0.71760600  0.46717400  0.41105100  1
  Ti  Ti6  1  0.96412700  0.21617000  0.91986200  1
  Ti  Ti7  1  0.21617000  0.96412700  0.41986200  1
  Ti  Ti8  1  0.03587300  0.78383000  0.08013800  1
  Ti  Ti9  1  0.78383000  0.03587300  0.58013800  1
  Ti  Ti10  1  0.53282600  0.28239400  0.08894900  1
  Ti  Ti11  1  0.28239400  0.53282600  0.58894900  1
  Ti  Ti12  1  0.63430500  0.88353900  0.40101000  1
  Ti  Ti13  1  0.12906200  0.37984500  0.40291100  1
  Ti  Ti14  1  0.87093800  0.62015500  0.59708900  1
  Ti  Ti15  1  0.36569500  0.11646100  0.59899000  1
  O  O0  1  0.69135900  0.94075000  0.90826800  1
  O  O1  1  0.19190800  0.44014000  0.90758700  1
  O  O2  1  0.43888900  0.19095700  0.08287400  1
  O  O3  1  0.93842200  0.68881900  0.08468200  1
  O  O4  1  0.06157800  0.31118100  0.91531800  1
  O  O5  1  0.56111100  0.80904300  0.91712600  1
  O  O6  1  0.80809200  0.55986000  0.09241300  1
  O  O7  1  0.30864100  0.05925000  0.09173200  1
  O  O8  1  0.27281100  0.02427900  0.78793300  1
  O  O9  1  0.02427900  0.27281100  0.28793300  1
  O  O10  1  0.77477800  0.51998800  0.78767100  1
  O  O11  1  0.51998800  0.77477800  0.28767100  1
  O  O12  1  0.89999700  0.15237400  0.53914400  1
  O  O13  1  0.15237400  0.89999700  0.03914400  1
  O  O14  1  0.40206300  0.64944500  0.54116900  1
  O  O15  1  0.64944500  0.40206300  0.04116900  1
  O  O16  1  0.35055500  0.59793700  0.95883100  1
  O  O17  1  0.59793700  0.35055500  0.45883100  1
  O  O18  1  0.10000300  0.84762600  0.46085600  1
  O  O19  1  0.84762600  0.10000300  0.96085600  1
  O  O20  1  0.48001200  0.22522200  0.71232900  1
  O  O21  1  0.22522200  0.48001200  0.21232900  1
  O  O22  1  0.72718900  0.97572100  0.21206700  1
  O  O23  1  0.97572100  0.72718900  0.71206700  1
  O  O24  1  0.94075000  0.69135900  0.40826800  1
  O  O25  1  0.44014000  0.19190800  0.40758700  1
  O  O26  1  0.19095700  0.43888900  0.58287400  1
  O  O27  1  0.68881900  0.93842200  0.58468200  1
  O  O28  1  0.31118100  0.06157800  0.41531800  1
  O  O29  1  0.80904300  0.56111100  0.41712600  1
  O  O30  1  0.55986000  0.80809200  0.59241300  1
  O  O31  1  0.05925000  0.30864100  0.59173200  1
loop_
_geom_bond_atom_site_label_1
_geom_bond_atom_site_label_2
_geom_bond_distance
_geom_bond_site_symmetry_2
Cs0 O31 3.023862 1_655
Cs0 O0 3.023862 1_545
Cs0 O19 3.028637 1_555
Cs0 O12 3.028637 1_555
Cs0 O14 3.187407 1_555
Cs0 O16 3.187407 1_555
Cs0 O1 3.202729 1_555
Cs0 O30 3.202729 1_555
Cs1 O7 3.023862 1_565
Cs1 O24 3.023862 1_455
Cs1 O13 3.028637 1_555
Cs1 O18 3.028637 1_555
Cs1 O15 3.187407 1_555
Cs1 O17 3.187407 1_555
Cs1 O6 3.202729 1_555
Cs1 O25 3.202729 1_555
O0 Ti0 1.951915 1_555
O0 Ti1 2.001952 1_565
O0 Ti2 2.021582 1_556
O1 Ti0 1.955608 1_455
O1 Ti1 1.994836 1_555
O1 Ti3 2.032760 1_556
O2 Ti2 1.982452 1_545
O2 Ti10 1.988964 1_555
O2 Ti3 2.023386 1_555
O3 Ti8 1.951943 1_655
O3 Ti2 1.973714 1_555
O3 Ti3 2.025113 1_655
O4 Ti6 1.951943 1_455
O4 Ti1 1.973714 1_555
O4 Ti0 2.025113 1_455
O5 Ti1 1.982452 1_565
O5 Ti4 1.988964 1_555
O5 Ti0 2.023386 1_555
O6 Ti3 1.955608 1_655
O6 Ti2 1.994836 1_555
O6 Ti0 2.032760 1_554
O7 Ti3 1.951915 1_555
O7 Ti2 2.001952 1_545
O7 Ti1 2.021582 1_554
O8 Ti15 1.961675 1_555
O8 Ti4 1.969570 1_545
O8 Ti6 2.032054 1_455
O9 Ti3 1.961675 1_555
O9 Ti5 1.969570 1_455
O9 Ti7 2.032054 1_545
O10 Ti14 1.979278 1_555
O10 Ti4 1.982509 1_555
O10 Ti6 2.019979 1_555
O11 Ti2 1.979278 1_555
O11 Ti5 1.982509 1_555
O11 Ti7 2.019979 1_555
O12 Ti7 1.950665 1_645
O12 Ti5 1.992338 1_555
O12 Ti9 2.035595 1_555
O13 Ti6 1.950665 1_464
O13 Ti4 1.992338 1_554
O13 Ti8 2.035595 1_555
O14 Ti7 1.954781 1_555
O14 Ti5 2.007563 1_555
O14 Ti11 2.019659 1_555
O15 Ti6 1.954781 1_554
O15 Ti4 2.007563 1_554
O15 Ti10 2.019659 1_555
O16 Ti8 1.954781 1_556
O16 Ti10 2.007563 1_556
O16 Ti4 2.019659 1_555
O17 Ti9 1.954781 1_555
O17 Ti11 2.007563 1_555
O17 Ti5 2.019659 1_555
O18 Ti9 1.950665 1_465
O18 Ti11 1.992338 1_555
O18 Ti7 2.035595 1_555
O19 Ti8 1.950665 1_646
O19 Ti10 1.992338 1_556
O19 Ti6 2.035595 1_555
O20 Ti1 1.979278 1_555
O20 Ti11 1.982509 1_555
O20 Ti9 2.019979 1_555
O21 Ti13 1.979278 1_555
O21 Ti10 1.982509 1_555
O21 Ti8 2.019979 1_555
O22 Ti12 1.961675 1_555
O22 Ti10 1.969570 1_565
O22 Ti8 2.032054 1_655
O23 Ti0 1.961675 1_555
O23 Ti11 1.969570 1_655
O23 Ti9 2.032054 1_565
O24 Ti12 1.951915 1_555
O24 Ti13 2.001952 1_655
O24 Ti14 2.021582 1_555
O25 Ti12 1.955608 1_545
O25 Ti13 1.994836 1_555
O25 Ti15 2.032760 1_555
O26 Ti14 1.982452 1_455
O26 Ti11 1.988964 1_555
O26 Ti15 2.023386 1_555
O27 Ti9 1.951943 1_565
O27 Ti14 1.973714 1_555
O27 Ti15 2.025113 1_565
O28 Ti7 1.951943 1_545
O28 Ti13 1.973714 1_555
O28 Ti12 2.025113 1_545
O29 Ti13 1.982452 1_655
O29 Ti5 1.988964 1_555
O29 Ti12 2.023386 1_555
O30 Ti15 1.955608 1_565
O30 Ti14 1.994836 1_555
O30 Ti12 2.032760 1_555
O31 Ti15 1.951915 1_555
O31 Ti14 2.001952 1_455
O31 Ti13 2.021582 1_555
