# generated using pymatgen
data_BeSiRh2
_symmetry_space_group_name_H-M   'P 1'
_cell_length_a   4.02930708
_cell_length_b   4.02930708
_cell_length_c   4.02930708
_cell_angle_alpha   60.00000000
_cell_angle_beta   60.00000000
_cell_angle_gamma   60.00000000
_symmetry_Int_Tables_number   1
_chemical_formula_structural   BeSiRh2
_chemical_formula_sum   'Be1 Si1 Rh2'
_cell_volume   46.25685514
_cell_formula_units_Z   1
loop_
 _symmetry_equiv_pos_site_id
 _symmetry_equiv_pos_as_xyz
  1  'x, y, z'
loop_
 _atom_site_type_symbol
 _atom_site_label
 _atom_site_symmetry_multiplicity
 _atom_site_fract_x
 _atom_site_fract_y
 _atom_site_fract_z
 _atom_site_occupancy
  Be  Be0  1  0.25000000  0.25000000  0.25000000  1
  Si  Si0  1  0.74999900  0.74999900  0.74999900  1
  Rh  Rh0  1  0.00000000  0.00000000  0.00000000  1
  Rh  Rh1  1  0.50000000  0.50000000  0.50000000  1
loop_
_geom_bond_atom_site_label_1
_geom_bond_atom_site_label_2
_geom_bond_distance
_geom_bond_site_symmetry_2
Be0 Rh0 2.467437 1_555
Be0 Rh0 2.467437 1_556
Be0 Rh1 2.467437 1_554
Be0 Rh1 2.467437 1_555
Be0 Rh0 2.467437 1_565
Be0 Rh0 2.467437 1_655
Be0 Rh1 2.467437 1_545
Be0 Rh1 2.467437 1_455
Rh0 Si0 2.467433 1_454
Rh0 Si0 2.467433 1_544
Rh0 Si0 2.467433 1_445
Rh0 Si0 2.467446 1_444
Rh1 Si0 2.467427 1_555
Rh1 Si0 2.467440 1_554
Rh1 Si0 2.467440 1_455
Rh1 Si0 2.467440 1_545
