# generated using pymatgen
data_Li2PmSi
_symmetry_space_group_name_H-M   'P 1'
_cell_length_a   4.60584531
_cell_length_b   4.60584531
_cell_length_c   4.60584531
_cell_angle_alpha   60.00000000
_cell_angle_beta   60.00000000
_cell_angle_gamma   60.00000000
_symmetry_Int_Tables_number   1
_chemical_formula_structural   Li2PmSi
_chemical_formula_sum   'Li2 Pm1 Si1'
_cell_volume   69.08965833
_cell_formula_units_Z   1
loop_
 _symmetry_equiv_pos_site_id
 _symmetry_equiv_pos_as_xyz
  1  'x, y, z'
loop_
 _atom_site_type_symbol
 _atom_site_label
 _atom_site_symmetry_multiplicity
 _atom_site_fract_x
 _atom_site_fract_y
 _atom_site_fract_z
 _atom_site_occupancy
  Li  Li0  1  -0.00000000  -0.00000000  -0.00000000  1
  Li  Li1  1  0.50000000  0.50000000  0.50000000  1
  Pm  Pm0  1  0.25000100  0.25000100  0.25000100  1
  Si  Si0  1  0.75000000  0.75000000  0.75000000  1
loop_
_geom_bond_atom_site_label_1
_geom_bond_atom_site_label_2
_geom_bond_distance
_geom_bond_site_symmetry_2
Li0 Pm0 2.820489 1_554
Li0 Pm0 2.820489 1_545
Li0 Pm0 2.820489 1_455
Li0 Si0 2.820493 1_454
Li0 Si0 2.820493 1_544
Li0 Si0 2.820493 1_444
Li0 Si0 2.820493 1_445
Li0 Pm0 2.820504 1_555
Li1 Pm0 2.820481 1_555
Li1 Si0 2.820493 1_545
Li1 Si0 2.820493 1_554
Li1 Si0 2.820493 1_455
Li1 Si0 2.820493 1_555
Li1 Pm0 2.820496 1_565
Li1 Pm0 2.820496 1_655
Li1 Pm0 2.820496 1_556
Pm0 Si0 3.256818 1_554
Pm0 Si0 3.256818 1_455
Pm0 Si0 3.256818 1_545
Pm0 Si0 3.256831 1_544
Pm0 Si0 3.256831 1_445
Pm0 Si0 3.256831 1_454
