# generated using pymatgen
data_V10As2O35
_symmetry_space_group_name_H-M   'P 1'
_cell_length_a   14.89499955
_cell_length_b   14.89499955
_cell_length_c   14.89499955
_cell_angle_alpha   109.47122063
_cell_angle_beta   109.47122063
_cell_angle_gamma   109.47122063
_symmetry_Int_Tables_number   1
_chemical_formula_structural   V10As2O35
_chemical_formula_sum   'V30 As6 O105'
_cell_volume   2543.89740662
_cell_formula_units_Z   3
loop_
 _symmetry_equiv_pos_site_id
 _symmetry_equiv_pos_as_xyz
  1  'x, y, z'
loop_
 _atom_site_type_symbol
 _atom_site_label
 _atom_site_symmetry_multiplicity
 _atom_site_fract_x
 _atom_site_fract_y
 _atom_site_fract_z
 _atom_site_occupancy
  V  V0  1  0.29547100  0.00000000  0.51485100  1
  V  V1  1  0.00000000  0.29547100  0.51485100  1
  V  V2  1  0.70452900  0.70452900  0.21937900  1
  V  V3  1  0.70452900  0.21937900  0.70452900  1
  V  V4  1  0.00000000  0.51485100  0.29547100  1
  V  V5  1  0.29547100  0.51485100  0.00000000  1
  V  V6  1  0.51485100  0.00000000  0.29547100  1
  V  V7  1  0.21937900  0.70452900  0.70452900  1
  V  V8  1  0.51485100  0.29547100  0.00000000  1
  V  V9  1  0.48514900  0.78062100  0.48514900  1
  V  V10  1  0.78062100  0.48514900  0.48514900  1
  V  V11  1  0.48514900  0.48514900  0.78062100  1
  V  V12  1  0.52509600  0.21722000  0.52509600  1
  V  V13  1  0.78278000  0.30787600  0.30787600  1
  V  V14  1  0.69212400  0.47490400  0.00000000  1
  V  V15  1  0.47490400  0.69212400  0.00000000  1
  V  V16  1  0.21722000  0.52509600  0.52509600  1
  V  V17  1  0.30787600  0.78278000  0.30787600  1
  V  V18  1  0.47490400  0.00000000  0.69212400  1
  V  V19  1  0.30787600  0.30787600  0.78278000  1
  V  V20  1  0.52509600  0.52509600  0.21722000  1
  V  V21  1  0.69212400  0.00000000  0.47490400  1
  V  V22  1  0.00000000  0.69212400  0.47490400  1
  V  V23  1  0.00000000  0.47490400  0.69212400  1
  V  V24  1  0.33924700  0.00000000  0.33924700  1
  V  V25  1  0.00000000  0.33924700  0.33924700  1
  V  V26  1  0.66075300  0.66075300  0.00000000  1
  V  V27  1  0.66075300  0.00000000  0.66075300  1
  V  V28  1  0.33924700  0.33924700  0.00000000  1
  V  V29  1  0.00000000  0.66075300  0.66075300  1
  As  As0  1  0.50000000  0.25000000  0.75000000  1
  As  As1  1  0.75000000  0.25000000  0.50000000  1
  As  As2  1  0.75000000  0.50000000  0.25000000  1
  As  As3  1  0.50000000  0.75000000  0.25000000  1
  As  As4  1  0.25000000  0.50000000  0.75000000  1
  As  As5  1  0.25000000  0.75000000  0.50000000  1
  O  O0  1  0.18263500  0.00000000  0.49261300  1
  O  O1  1  0.00000000  0.18263500  0.49261300  1
  O  O2  1  0.81736500  0.81736500  0.30997800  1
  O  O3  1  0.81736500  0.30997800  0.81736500  1
  O  O4  1  0.00000000  0.49261300  0.18263500  1
  O  O5  1  0.18263500  0.49261300  0.00000000  1
  O  O6  1  0.49261300  0.00000000  0.18263500  1
  O  O7  1  0.30997800  0.81736500  0.81736500  1
  O  O8  1  0.49261300  0.18263500  0.00000000  1
  O  O9  1  0.50738700  0.69002200  0.50738700  1
  O  O10  1  0.69002200  0.50738700  0.50738700  1
  O  O11  1  0.50738700  0.50738700  0.69002200  1
  O  O12  1  0.24562100  0.00000000  0.24562100  1
  O  O13  1  0.00000000  0.24562100  0.24562100  1
  O  O14  1  0.75437900  0.75437900  0.00000000  1
  O  O15  1  0.75437900  0.00000000  0.75437900  1
  O  O16  1  0.24562100  0.24562100  0.00000000  1
  O  O17  1  0.00000000  0.75437900  0.75437900  1
  O  O18  1  0.52303600  0.32356400  0.52303600  1
  O  O19  1  0.67643600  0.19947200  0.19947200  1
  O  O20  1  0.80052800  0.47696400  0.00000000  1
  O  O21  1  0.47696400  0.80052800  0.00000000  1
  O  O22  1  0.32356400  0.52303600  0.52303600  1
  O  O23  1  0.19947200  0.67643600  0.19947200  1
  O  O24  1  0.47696400  0.00000000  0.80052800  1
  O  O25  1  0.19947200  0.19947200  0.67643600  1
  O  O26  1  0.52303600  0.52303600  0.32356400  1
  O  O27  1  0.80052800  0.00000000  0.47696400  1
  O  O28  1  0.00000000  0.80052800  0.47696400  1
  O  O29  1  0.00000000  0.47696400  0.80052800  1
  O  O30  1  0.41486300  0.10816800  0.68322800  1
  O  O31  1  0.89183200  0.30669400  0.57506000  1
  O  O32  1  0.69330600  0.58513700  0.26836600  1
  O  O33  1  0.58513700  0.69330600  0.26836600  1
  O  O34  1  0.10816800  0.41486300  0.68322800  1
  O  O35  1  0.30669400  0.89183200  0.57506000  1
  O  O36  1  0.58513700  0.26836600  0.69330600  1
  O  O37  1  0.10816800  0.68322800  0.41486300  1
  O  O38  1  0.30669400  0.57506000  0.89183200  1
  O  O39  1  0.41486300  0.68322800  0.10816800  1
  O  O40  1  0.89183200  0.57506000  0.30669400  1
  O  O41  1  0.69330600  0.26836600  0.58513700  1
  O  O42  1  0.57506000  0.89183200  0.30669400  1
  O  O43  1  0.26836600  0.69330600  0.58513700  1
  O  O44  1  0.68322800  0.41486300  0.10816800  1
  O  O45  1  0.57506000  0.30669400  0.89183200  1
  O  O46  1  0.26836600  0.58513700  0.69330600  1
  O  O47  1  0.68322800  0.10816800  0.41486300  1
  O  O48  1  0.42494000  0.73163400  0.31677200  1
  O  O49  1  0.73163400  0.31677200  0.42494000  1
  O  O50  1  0.31677200  0.42494000  0.73163400  1
  O  O51  1  0.42494000  0.31677200  0.73163400  1
  O  O52  1  0.73163400  0.42494000  0.31677200  1
  O  O53  1  0.31677200  0.73163400  0.42494000  1
  O  O54  1  0.48123000  0.10606600  0.37738100  1
  O  O55  1  0.89393400  0.37516400  0.27131500  1
  O  O56  1  0.62483600  0.51877000  0.89615000  1
  O  O57  1  0.51877000  0.62483600  0.89615000  1
  O  O58  1  0.10606600  0.48123000  0.37738100  1
  O  O59  1  0.37516400  0.89393400  0.27131500  1
  O  O60  1  0.51877000  0.89615000  0.62483600  1
  O  O61  1  0.10606600  0.37738100  0.48123000  1
  O  O62  1  0.37516400  0.27131500  0.89393400  1
  O  O63  1  0.48123000  0.37738100  0.10606600  1
  O  O64  1  0.89393400  0.27131500  0.37516400  1
  O  O65  1  0.62483600  0.89615000  0.51877000  1
  O  O66  1  0.27131500  0.89393400  0.37516400  1
  O  O67  1  0.89615000  0.62483600  0.51877000  1
  O  O68  1  0.37738100  0.48123000  0.10606600  1
  O  O69  1  0.27131500  0.37516400  0.89393400  1
  O  O70  1  0.89615000  0.51877000  0.62483600  1
  O  O71  1  0.37738100  0.10606600  0.48123000  1
  O  O72  1  0.72868500  0.10385000  0.62261900  1
  O  O73  1  0.10385000  0.62261900  0.72868500  1
  O  O74  1  0.62261900  0.72868500  0.10385000  1
  O  O75  1  0.72868500  0.62261900  0.10385000  1
  O  O76  1  0.10385000  0.72868500  0.62261900  1
  O  O77  1  0.62261900  0.10385000  0.72868500  1
  O  O78  1  0.50000000  0.00000000  0.50000000  1
  O  O79  1  0.00000000  0.50000000  0.50000000  1
  O  O80  1  0.50000000  0.50000000  0.00000000  1
  O  O81  1  0.47123500  0.27752400  0.27752400  1
  O  O82  1  0.72247600  0.19371100  0.00000000  1
  O  O83  1  0.80628900  0.52876500  0.80628900  1
  O  O84  1  0.52876500  0.80628900  0.80628900  1
  O  O85  1  0.27752400  0.47123500  0.27752400  1
  O  O86  1  0.19371100  0.72247600  0.00000000  1
  O  O87  1  0.27752400  0.27752400  0.47123500  1
  O  O88  1  0.19371100  0.00000000  0.72247600  1
  O  O89  1  0.72247600  0.00000000  0.19371100  1
  O  O90  1  0.80628900  0.80628900  0.52876500  1
  O  O91  1  0.00000000  0.72247600  0.19371100  1
  O  O92  1  0.00000000  0.19371100  0.72247600  1
  O  O93  1  0.46494800  0.34525200  0.34525200  1
  O  O94  1  0.65474800  0.11969600  0.00000000  1
  O  O95  1  0.88030400  0.53505200  0.88030400  1
  O  O96  1  0.53505200  0.88030400  0.88030400  1
  O  O97  1  0.34525200  0.46494800  0.34525200  1
  O  O98  1  0.11969600  0.65474800  0.00000000  1
  O  O99  1  0.34525200  0.34525200  0.46494800  1
  O  O100  1  0.11969600  0.00000000  0.65474800  1
  O  O101  1  0.65474800  0.00000000  0.11969600  1
  O  O102  1  0.88030400  0.88030400  0.53505200  1
  O  O103  1  0.00000000  0.65474800  0.11969600  1
  O  O104  1  0.00000000  0.11969600  0.65474800  1
loop_
_geom_bond_atom_site_label_1
_geom_bond_atom_site_label_2
_geom_bond_distance
_geom_bond_site_symmetry_2
As0 O36 1.741468 1_555
As0 O30 1.741478 1_555
As0 O45 1.741480 1_555
As0 O51 1.741480 1_555
As1 O41 1.741468 1_555
As1 O47 1.741478 1_555
As1 O31 1.741480 1_555
As1 O49 1.741480 1_555
As2 O32 1.741468 1_555
As2 O44 1.741478 1_555
As2 O40 1.741480 1_555
As2 O52 1.741480 1_555
As3 O33 1.741468 1_555
As3 O39 1.741478 1_555
As3 O42 1.741480 1_555
As3 O48 1.741480 1_555
As4 O46 1.741468 1_555
As4 O34 1.741478 1_555
As4 O38 1.741480 1_555
As4 O50 1.741480 1_555
As5 O43 1.741468 1_555
As5 O37 1.741478 1_555
As5 O35 1.741480 1_555
As5 O53 1.741480 1_555
O0 V0 1.601033 1_555
O1 V1 1.601033 1_555
O2 V2 1.601035 1_555
O3 V3 1.601035 1_555
O4 V4 1.601033 1_555
O5 V5 1.601033 1_555
O6 V6 1.601033 1_555
O7 V7 1.601035 1_555
O8 V8 1.601033 1_555
O9 V9 1.601048 1_555
O10 V10 1.601048 1_555
O11 V11 1.601048 1_555
O12 V24 1.610298 1_555
O13 V25 1.610298 1_555
O14 V26 1.610298 1_555
O15 V27 1.610298 1_555
O16 V28 1.610298 1_555
O17 V29 1.610298 1_555
O18 V12 1.604710 1_555
O19 V13 1.604710 1_555
O20 V14 1.604710 1_555
O21 V15 1.604710 1_555
O22 V16 1.604710 1_555
O23 V17 1.604710 1_555
O24 V18 1.604710 1_555
O25 V19 1.604710 1_555
O26 V20 1.604710 1_555
O27 V21 1.604710 1_555
O28 V22 1.604710 1_555
O29 V23 1.604710 1_555
O30 V18 2.106444 1_555
O30 V0 2.114464 1_555
O31 V23 2.106453 1_655
O31 V1 2.114461 1_655
O32 V20 2.106455 1_555
O32 V2 2.114485 1_555
O33 V20 2.106455 1_555
O33 V2 2.114485 1_555
O34 V23 2.106444 1_555
O34 V1 2.114464 1_555
O35 V18 2.106453 1_565
O35 V0 2.114461 1_565
O36 V12 2.106455 1_555
O36 V3 2.114485 1_555
O37 V22 2.106444 1_555
O37 V4 2.114464 1_555
O38 V15 2.106453 1_556
O38 V5 2.114461 1_556
O39 V15 2.106444 1_555
O39 V5 2.114464 1_555
O40 V22 2.106453 1_655
O40 V4 2.114461 1_655
O41 V12 2.106455 1_555
O41 V3 2.114485 1_555
O42 V21 2.106453 1_565
O42 V6 2.114461 1_565
O43 V16 2.106455 1_555
O43 V7 2.114485 1_555
O44 V14 2.106444 1_555
O44 V8 2.114464 1_555
O45 V14 2.106453 1_556
O45 V8 2.114461 1_556
O46 V16 2.106455 1_555
O46 V7 2.114485 1_555
O47 V21 2.106444 1_555
O47 V6 2.114464 1_555
O48 V17 2.106453 1_555
O48 V9 2.114458 1_555
O49 V13 2.106453 1_555
O49 V10 2.114458 1_555
O50 V19 2.106453 1_555
O50 V11 2.114458 1_555
O51 V19 2.106453 1_555
O51 V11 2.114458 1_555
O52 V13 2.106453 1_555
O52 V10 2.114458 1_555
O53 V17 2.106453 1_555
O53 V9 2.114458 1_555
O54 V24 1.914317 1_555
O54 V6 1.971042 1_555
O54 V12 1.975075 1_555
O55 V25 1.914317 1_655
O55 V4 1.971042 1_655
O55 V13 1.975075 1_555
O56 V26 1.914322 1_556
O56 V11 1.971029 1_555
O56 V14 1.975085 1_556
O57 V26 1.914322 1_556
O57 V11 1.971029 1_555
O57 V15 1.975085 1_556
O58 V25 1.914317 1_555
O58 V4 1.971042 1_555
O58 V16 1.975075 1_555
O59 V24 1.914317 1_565
O59 V6 1.971042 1_565
O59 V17 1.975075 1_555
O60 V27 1.914322 1_565
O60 V9 1.971029 1_555
O60 V18 1.975085 1_565
O61 V25 1.914317 1_555
O61 V1 1.971042 1_555
O61 V16 1.975075 1_555
O62 V28 1.914317 1_556
O62 V8 1.971042 1_556
O62 V19 1.975075 1_555
O63 V28 1.914317 1_555
O63 V8 1.971042 1_555
O63 V20 1.975075 1_555
O64 V25 1.914317 1_655
O64 V1 1.971042 1_655
O64 V13 1.975075 1_555
O65 V27 1.914322 1_565
O65 V9 1.971029 1_555
O65 V21 1.975085 1_565
O66 V24 1.914317 1_565
O66 V0 1.971042 1_565
O66 V17 1.975075 1_555
O67 V29 1.914322 1_655
O67 V10 1.971029 1_555
O67 V22 1.975085 1_655
O68 V28 1.914317 1_555
O68 V5 1.971042 1_555
O68 V20 1.975075 1_555
O69 V28 1.914317 1_556
O69 V5 1.971042 1_556
O69 V19 1.975075 1_555
O70 V29 1.914322 1_655
O70 V10 1.971029 1_555
O70 V23 1.975085 1_655
O71 V24 1.914317 1_555
O71 V0 1.971042 1_555
O71 V12 1.975075 1_555
O72 V27 1.914328 1_555
O72 V3 1.971021 1_555
O72 V21 1.975079 1_555
O73 V29 1.914328 1_555
O73 V7 1.971021 1_555
O73 V23 1.975079 1_555
O74 V26 1.914328 1_555
O74 V2 1.971021 1_555
O74 V15 1.975079 1_555
O75 V26 1.914328 1_555
O75 V2 1.971021 1_555
O75 V14 1.975079 1_555
O76 V29 1.914328 1_555
O76 V7 1.971021 1_555
O76 V22 1.975079 1_555
O77 V27 1.914328 1_555
O77 V3 1.971021 1_555
O77 V18 1.975079 1_555
O78 V24 2.764833 1_555
O78 V27 2.764833 1_555
O79 V25 2.764833 1_555
O79 V29 2.764833 1_555
O80 V28 2.764833 1_555
O80 V26 2.764833 1_555
O81 O93 1.221333 1_555
O82 O94 1.221333 1_555
O83 O95 1.221333 1_555
O84 O96 1.221333 1_555
O85 O97 1.221333 1_555
O86 O98 1.221333 1_555
O87 O99 1.221333 1_555
O100 O88 1.221333 1_555
O101 O89 1.221333 1_555
O102 O90 1.221333 1_555
O103 O91 1.221333 1_555
O104 O92 1.221333 1_555
