# generated using pymatgen
data_Li5Mn2Co3O10
_symmetry_space_group_name_H-M   'P 1'
_cell_length_a   5.08861400
_cell_length_b   5.08838606
_cell_length_c   7.68389646
_cell_angle_alpha   71.50036381
_cell_angle_beta   70.93973798
_cell_angle_gamma   80.29480242
_symmetry_Int_Tables_number   1
_chemical_formula_structural   Li5Mn2Co3O10
_chemical_formula_sum   'Li5 Mn2 Co3 O10'
_cell_volume   177.86378081
_cell_formula_units_Z   1
loop_
 _symmetry_equiv_pos_site_id
 _symmetry_equiv_pos_as_xyz
  1  'x, y, z'
loop_
 _atom_site_type_symbol
 _atom_site_label
 _atom_site_symmetry_multiplicity
 _atom_site_fract_x
 _atom_site_fract_y
 _atom_site_fract_z
 _atom_site_occupancy
  Li  Li0  1  0.21602300  0.50441700  0.59429900  1
  Li  Li1  1  0.40237900  0.48659000  0.21409900  1
  Li  Li2  1  0.50182100  0.00050800  0.49931900  1
  Li  Li3  1  0.78217500  0.50200300  0.41108300  1
  Li  Li4  1  0.59799200  0.50248900  0.79195200  1
  Mn  Mn0  1  0.10120800  0.99464300  0.30459800  1
  Mn  Mn1  1  0.89672200  0.00651200  0.69788000  1
  Co  Co0  1  0.00485700  0.49964600  0.99947400  1
  Co  Co1  1  0.69620800  0.00083400  0.10284100  1
  Co  Co2  1  0.30424900  0.00053200  0.89057000  1
  O  O0  1  0.02850800  0.77677100  0.15401100  1
  O  O1  1  0.13035300  0.22412800  0.45752700  1
  O  O2  1  0.34818600  0.22614700  0.07058700  1
  O  O3  1  0.22631300  0.75772800  0.75143200  1
  O  O4  1  0.44172000  0.77531600  0.33019300  1
  O  O5  1  0.57037800  0.23565800  0.65578400  1
  O  O6  1  0.77406200  0.22827900  0.23848400  1
  O  O7  1  0.67142600  0.77420900  0.94353600  1
  O  O8  1  0.87142100  0.77710600  0.54289200  1
  O  O9  1  0.92720400  0.22953100  0.85934800  1
loop_
_geom_bond_atom_site_label_1
_geom_bond_atom_site_label_2
_geom_bond_distance
_geom_bond_site_symmetry_2
Li0 O3 2.042931 1_555
Li0 O8 2.107243 1_455
Li0 O4 2.138635 1_555
Li0 O5 2.158662 1_555
Li0 O1 2.188301 1_555
Li0 O9 2.279170 1_455
Li1 O4 2.010401 1_555
Li1 O2 2.073048 1_555
Li1 O1 2.131983 1_555
Li1 O6 2.139378 1_555
Li1 O0 2.281839 1_555
Li1 O7 2.285637 1_554
Li2 O5 2.079999 1_555
Li2 O8 2.095341 1_545
Li2 O1 2.100078 1_555
Li2 O4 2.101921 1_545
Li2 O6 2.129120 1_555
Li2 O3 2.129742 1_545
Li3 O5 2.021260 1_555
Li3 O1 2.124563 1_655
Li3 O8 2.146158 1_555
Li3 O0 2.156153 1_655
Li3 O4 2.159676 1_555
Li3 O6 2.219887 1_555
Li4 O5 2.004945 1_555
Li4 O9 2.080711 1_555
Li4 O3 2.158852 1_555
Li4 O8 2.184113 1_555
Li4 O7 2.210959 1_555
Li4 O2 2.256460 1_556
Mn0 O8 1.922762 1_455
Mn0 O4 1.928172 1_555
Mn0 O1 1.951758 1_565
Mn0 O2 1.969613 1_565
Mn0 O0 1.984100 1_555
Mn0 O6 1.986081 1_465
Mn1 O5 1.918469 1_555
Mn1 O1 1.939695 1_655
Mn1 O8 1.957154 1_545
Mn1 O7 1.975393 1_545
Mn1 O9 1.982351 1_555
Mn1 O3 1.997264 1_645
Co0 O3 2.033435 1_555
Co0 O6 2.046350 1_456
Co0 O7 2.076394 1_455
Co0 O9 2.145854 1_455
Co0 O2 2.146800 1_556
Co0 O0 2.150837 1_556
Co1 O6 1.942274 1_555
Co1 O4 1.948579 1_545
Co1 O0 1.952825 1_645
Co1 O9 1.969659 1_554
Co1 O7 1.972224 1_544
Co1 O2 1.983405 1_555
Co2 O5 2.025065 1_555
Co2 O3 2.026589 1_545
Co2 O7 2.111070 1_545
Co2 O9 2.113280 1_455
Co2 O2 2.139511 1_556
Co2 O0 2.140964 1_546
