# generated using pymatgen
data_LiTm2Os
_symmetry_space_group_name_H-M   'P 1'
_cell_length_a   4.80711243
_cell_length_b   4.80711243
_cell_length_c   4.80711243
_cell_angle_alpha   60.00000000
_cell_angle_beta   60.00000000
_cell_angle_gamma   60.00000000
_symmetry_Int_Tables_number   1
_chemical_formula_structural   LiTm2Os
_chemical_formula_sum   'Li1 Tm2 Os1'
_cell_volume   78.54849027
_cell_formula_units_Z   1
loop_
 _symmetry_equiv_pos_site_id
 _symmetry_equiv_pos_as_xyz
  1  'x, y, z'
loop_
 _atom_site_type_symbol
 _atom_site_label
 _atom_site_symmetry_multiplicity
 _atom_site_fract_x
 _atom_site_fract_y
 _atom_site_fract_z
 _atom_site_occupancy
  Li  Li0  1  0.25000000  0.25000000  0.25000000  1
  Tm  Tm0  1  -0.00000000  0.00000000  -0.00000000  1
  Tm  Tm1  1  0.50000100  0.50000100  0.50000100  1
  Os  Os0  1  0.75000100  0.75000100  0.75000100  1
loop_
_geom_bond_atom_site_label_1
_geom_bond_atom_site_label_2
_geom_bond_distance
_geom_bond_site_symmetry_2
Li0 Tm1 2.943739 1_545
Li0 Tm1 2.943739 1_455
Li0 Tm1 2.943739 1_554
Li0 Tm0 2.943743 1_565
Li0 Tm0 2.943743 1_655
Li0 Tm0 2.943743 1_556
Li0 Tm0 2.943743 1_555
Li0 Tm1 2.943755 1_555
Os0 Tm0 2.943731 1_666
Os0 Tm1 2.943743 1_655
Os0 Tm1 2.943743 1_555
Os0 Tm1 2.943743 1_565
Os0 Tm1 2.943743 1_556
Os0 Tm0 2.943747 1_566
Os0 Tm0 2.943747 1_656
Os0 Tm0 2.943747 1_665
