# generated using pymatgen
data_KTl
_symmetry_space_group_name_H-M   'P 1'
_cell_length_a   10.94747996
_cell_length_b   10.94747996
_cell_length_c   8.03629956
_cell_angle_alpha   90.00000000
_cell_angle_beta   90.00000000
_cell_angle_gamma   91.13983952
_symmetry_Int_Tables_number   1
_chemical_formula_structural   KTl
_chemical_formula_sum   'K12 Tl12'
_cell_volume   962.93836336
_cell_formula_units_Z   12
loop_
 _symmetry_equiv_pos_site_id
 _symmetry_equiv_pos_as_xyz
  1  'x, y, z'
loop_
 _atom_site_type_symbol
 _atom_site_label
 _atom_site_symmetry_multiplicity
 _atom_site_fract_x
 _atom_site_fract_y
 _atom_site_fract_z
 _atom_site_occupancy
  K  K0  1  0.97208283  0.47208283  0.75000000  1
  K  K1  1  0.52791717  0.02791717  0.25000000  1
  K  K2  1  0.02791717  0.52791717  0.25000000  1
  K  K3  1  0.47208283  0.97208283  0.75000000  1
  K  K4  1  0.17951200  0.82048800  0.00000000  1
  K  K5  1  0.32048800  0.67951200  0.50000000  1
  K  K6  1  0.82048800  0.17951200  0.00000000  1
  K  K7  1  0.67951200  0.32048800  0.50000000  1
  K  K8  1  0.20043878  0.20043878  0.07414347  1
  K  K9  1  0.29956122  0.29956122  0.57414347  1
  K  K10  1  0.70043878  0.70043878  0.42585653  1
  K  K11  1  0.79956122  0.79956122  0.92585653  1
  Tl  Tl0  1  0.53784712  0.53784712  0.78049005  1
  Tl  Tl1  1  0.96215288  0.96215288  0.28049005  1
  Tl  Tl2  1  0.46215288  0.46215288  0.21950995  1
  Tl  Tl3  1  0.03784712  0.03784712  0.71950995  1
  Tl  Tl4  1  0.49330480  0.72007961  0.06433556  1
  Tl  Tl5  1  0.00669520  0.77992039  0.56433556  1
  Tl  Tl6  1  0.27992039  0.50669520  0.93566444  1
  Tl  Tl7  1  0.22007961  0.99330480  0.43566444  1
  Tl  Tl8  1  0.50669520  0.27992039  0.93566444  1
  Tl  Tl9  1  0.99330480  0.22007961  0.43566444  1
  Tl  Tl10  1  0.72007961  0.49330480  0.06433556  1
  Tl  Tl11  1  0.77992039  0.00669520  0.56433556  1
loop_
_geom_bond_atom_site_label_1
_geom_bond_atom_site_label_2
_geom_bond_distance
_geom_bond_site_symmetry_2
K0 Tl6 3.698136 1_655
K0 Tl5 3.698136 1_655
K0 Tl9 3.751214 1_555
K0 Tl10 3.751214 1_556
K0 K6 4.103385 1_556
K0 K7 4.103385 1_555
K0 K2 4.108273 1_655
K0 K2 4.108273 1_656
K0 K9 4.322777 1_655
K0 K11 4.322777 1_555
K1 Tl4 3.698136 1_545
K1 Tl7 3.698136 1_545
K1 Tl11 3.751214 1_555
K1 Tl8 3.751214 1_554
K1 K6 4.103385 1_555
K1 K7 4.103385 1_555
K1 K3 4.108273 1_545
K1 K3 4.108273 1_544
K1 K10 4.322777 1_545
K1 K8 4.322777 1_555
K2 Tl10 3.698136 1_455
K2 Tl9 3.698136 1_455
K2 Tl5 3.751214 1_555
K2 Tl6 3.751214 1_554
K2 K5 4.103385 1_555
K2 K4 4.103385 1_555
K2 K8 4.322777 1_555
K3 Tl8 3.698136 1_565
K3 Tl11 3.698136 1_565
K3 Tl7 3.751214 1_555
K3 Tl4 3.751214 1_556
K3 K5 4.103385 1_555
K3 K4 4.103385 1_556
K3 K9 4.322777 1_565
K4 Tl3 3.646257 1_564
K4 Tl1 3.646257 1_455
K4 Tl4 3.664246 1_555
K4 Tl6 3.664246 1_554
K4 Tl7 4.000130 1_555
K4 Tl5 4.000130 1_554
K4 K8 4.203697 1_565
K4 K5 4.583016 1_555
K4 K5 4.583016 1_554
K5 Tl2 3.646257 1_555
K5 Tl0 3.646257 1_555
K5 Tl7 3.664246 1_555
K5 Tl5 3.664246 1_555
K5 Tl4 4.000130 1_555
K5 Tl6 4.000130 1_555
K5 K9 4.203697 1_555
K6 Tl3 3.646257 1_654
K6 Tl1 3.646257 1_545
K6 Tl8 3.664246 1_554
K6 Tl10 3.664246 1_555
K6 Tl9 4.000130 1_555
K6 Tl11 4.000130 1_554
K6 K8 4.203697 1_655
K6 K7 4.583016 1_554
K6 K7 4.583016 1_555
K7 Tl2 3.646257 1_555
K7 Tl0 3.646257 1_555
K7 Tl11 3.664246 1_555
K7 Tl9 3.664246 1_555
K7 Tl10 4.000130 1_555
K7 Tl8 4.000130 1_555
K7 K9 4.203697 1_555
K8 Tl6 3.622201 1_554
K8 Tl8 3.622201 1_554
K8 Tl7 3.694365 1_545
K8 Tl9 3.694365 1_455
K8 Tl3 3.785854 1_554
K9 Tl7 3.622201 1_545
K9 Tl9 3.622201 1_455
K9 Tl8 3.694365 1_555
K9 Tl6 3.694365 1_555
K9 Tl2 3.785854 1_555
K10 Tl11 3.622201 1_565
K10 Tl5 3.622201 1_655
K10 Tl4 3.694365 1_555
K10 Tl10 3.694365 1_555
K10 Tl0 3.785854 1_555
K10 K5 4.203697 1_555
K10 K7 4.203697 1_555
K10 K2 4.322777 1_655
K11 Tl10 3.622201 1_556
K11 Tl4 3.622201 1_556
K11 Tl5 3.694365 1_655
K11 Tl11 3.694365 1_565
K11 Tl1 3.785854 1_556
K11 K6 4.203697 1_566
K11 K4 4.203697 1_656
K11 K3 4.322777 1_555
Tl0 Tl10 3.075666 1_556
Tl0 Tl4 3.075666 1_556
Tl0 Tl6 3.099364 1_555
Tl0 Tl8 3.099364 1_555
Tl1 Tl11 3.075666 1_565
Tl1 Tl5 3.075666 1_655
Tl1 Tl7 3.099364 1_655
Tl1 Tl9 3.099364 1_565
Tl2 Tl6 3.075666 1_554
Tl2 Tl8 3.075666 1_554
Tl2 Tl4 3.099364 1_555
Tl3 Tl7 3.075666 1_545
Tl3 Tl9 3.075666 1_455
Tl3 Tl5 3.099364 1_545
Tl4 Tl6 3.430178 1_554
Tl5 Tl7 3.430178 1_555
Tl6 Tl8 3.545694 1_555
Tl7 Tl9 3.545694 1_465
Tl10 Tl2 3.099364 1_555
Tl10 Tl8 3.430178 1_554
Tl10 Tl4 3.545694 1_555
Tl11 Tl3 3.099364 1_655
Tl11 Tl9 3.430178 1_555
Tl11 Tl5 3.545694 1_645
