# generated using pymatgen
data_Pm2AgRu
_symmetry_space_group_name_H-M   'P 1'
_cell_length_a   5.05923180
_cell_length_b   5.05922517
_cell_length_c   5.05922796
_cell_angle_alpha   59.99996939
_cell_angle_beta   59.99995464
_cell_angle_gamma   59.99991118
_symmetry_Int_Tables_number   1
_chemical_formula_structural   Pm2AgRu
_chemical_formula_sum   'Pm2 Ag1 Ru1'
_cell_volume   91.56664372
_cell_formula_units_Z   1
loop_
 _symmetry_equiv_pos_site_id
 _symmetry_equiv_pos_as_xyz
  1  'x, y, z'
loop_
 _atom_site_type_symbol
 _atom_site_label
 _atom_site_symmetry_multiplicity
 _atom_site_fract_x
 _atom_site_fract_y
 _atom_site_fract_z
 _atom_site_occupancy
  Pm  Pm0  1  0.00000007  0.00000016  0.00000082  1
  Pm  Pm1  1  0.50000012  0.50000003  0.49999938  1
  Ag  Ag0  1  0.25000091  0.25000091  0.25000091  1
  Ru  Ru0  1  0.75000090  0.75000090  0.75000090  1
loop_
_geom_bond_atom_site_label_1
_geom_bond_atom_site_label_2
_geom_bond_distance
_geom_bond_site_symmetry_2
Pm0 Ru0 3.098126 1_444
Pm0 Ru0 3.098131 1_454
Pm0 Ru0 3.098131 1_445
Pm0 Ru0 3.098135 1_544
Pm1 Ru0 3.098124 1_545
Pm1 Ru0 3.098124 1_554
Pm1 Ru0 3.098128 1_455
Pm1 Ru0 3.098146 1_555
Ag0 Pm1 3.098120 1_555
Ag0 Pm0 3.098124 1_565
Ag0 Pm0 3.098128 1_655
Ag0 Pm0 3.098130 1_556
Ag0 Pm1 3.098131 1_545
Ag0 Pm1 3.098134 1_455
Ag0 Pm1 3.098137 1_554
Ag0 Pm0 3.098140 1_555
