# generated using pymatgen
data_Li5Ni3(SbO5)2
_symmetry_space_group_name_H-M   'P 1'
_cell_length_a   5.23986000
_cell_length_b   5.36264358
_cell_length_c   7.92272192
_cell_angle_alpha   106.90686584
_cell_angle_beta   102.75707066
_cell_angle_gamma   101.80098846
_symmetry_Int_Tables_number   1
_chemical_formula_structural   Li5Ni3(SbO5)2
_chemical_formula_sum   'Li5 Ni3 Sb2 O10'
_cell_volume   198.94375467
_cell_formula_units_Z   1
loop_
 _symmetry_equiv_pos_site_id
 _symmetry_equiv_pos_as_xyz
  1  'x, y, z'
loop_
 _atom_site_type_symbol
 _atom_site_label
 _atom_site_symmetry_multiplicity
 _atom_site_fract_x
 _atom_site_fract_y
 _atom_site_fract_z
 _atom_site_occupancy
  Li  Li0  1  0.45830100  0.11514700  0.38450000  1
  Li  Li1  1  0.80300000  0.68404900  0.80818800  1
  Li  Li2  1  0.50000000  0.50000000  0.50000000  1
  Li  Li3  1  0.19700000  0.31595100  0.19181200  1
  Li  Li4  1  0.54169900  0.88485300  0.61550000  1
  Ni  Ni0  1  0.00000000  0.50000000  0.00000000  1
  Ni  Ni1  1  0.90951400  0.09914700  0.89779100  1
  Ni  Ni2  1  0.09048600  0.90085300  0.10220900  1
  Sb  Sb0  1  0.70238600  0.30077400  0.70234600  1
  Sb  Sb1  1  0.29761400  0.69922600  0.29765400  1
  O  O0  1  0.38205000  0.38839400  0.83536000  1
  O  O1  1  0.47055400  0.82779400  0.93863600  1
  O  O2  1  0.02741100  0.22561500  0.55290000  1
  O  O3  1  0.73631000  0.98919300  0.24573900  1
  O  O4  1  0.12856200  0.57972000  0.65623300  1
  O  O5  1  0.87143800  0.42028000  0.34376700  1
  O  O6  1  0.26369000  0.01080700  0.75426100  1
  O  O7  1  0.97258900  0.77438500  0.44710000  1
  O  O8  1  0.52944600  0.17220600  0.06136400  1
  O  O9  1  0.61795000  0.61160600  0.16464000  1
loop_
_geom_bond_atom_site_label_1
_geom_bond_atom_site_label_2
_geom_bond_distance
_geom_bond_site_symmetry_2
Li0 Li2 1.942498 1_555
Li0 Sb1 2.059268 1_545
Li0 O3 2.112987 1_545
Li0 Sb0 2.359429 1_555
Li0 Ni2 2.394294 1_545
Li1 Sb0 1.888048 1_555
Li1 Ni1 2.041655 1_565
Li1 Ni0 2.223832 1_656
Li1 Ni2 2.281651 1_656
Li1 O1 2.361728 1_555
Li1 O4 2.361799 1_655
Li1 O0 2.530441 1_555
Li2 Li4 1.942498 1_555
Li2 Sb1 2.354754 1_555
Li2 Sb0 2.354754 1_555
Li2 O4 2.568930 1_555
Li2 O5 2.568930 1_555
Li3 Sb1 1.888048 1_555
Li3 Ni2 2.041655 1_545
Li3 Ni0 2.223832 1_555
Li3 Ni1 2.281651 1_454
Li3 O8 2.361728 1_555
Li3 O5 2.361799 1_455
Li3 O9 2.530441 1_555
Li4 Sb0 2.059268 1_565
Li4 O6 2.112987 1_565
Li4 Sb1 2.359429 1_555
Li4 Ni1 2.394294 1_565
Ni0 Ni1 1.975487 1_454
Ni0 Ni2 1.975487 1_555
Ni0 Sb1 2.315935 1_555
Ni0 Sb0 2.315935 1_454
Ni0 O9 2.693777 1_455
Ni0 O0 2.693777 1_554
Ni1 Ni2 2.321381 1_646
Ni1 Sb0 2.335885 1_555
Ni1 O6 2.437197 1_655
Ni1 O1 2.597352 1_545
Ni1 O8 2.638690 1_556
Ni2 Sb1 2.335885 1_555
Ni2 O3 2.437197 1_455
Ni2 O8 2.597352 1_565
Ni2 O1 2.638690 1_554
O0 O6 1.857737 1_555
O0 Sb0 2.228127 1_555
O1 O8 1.744062 1_566
O2 O4 1.746310 1_555
O2 Sb0 2.314866 1_455
O3 O9 1.857737 1_555
O5 O7 1.746310 1_555
O7 Sb1 2.314866 1_655
O9 Sb1 2.228127 1_555
