# generated using pymatgen
data_Li2Cu3F9
_symmetry_space_group_name_H-M   'P 1'
_cell_length_a   8.08586400
_cell_length_b   7.62189310
_cell_length_c   5.90740892
_cell_angle_alpha   100.94818839
_cell_angle_beta   94.77515925
_cell_angle_gamma   106.37411598
_symmetry_Int_Tables_number   1
_chemical_formula_structural   Li2Cu3F9
_chemical_formula_sum   'Li4 Cu6 F18'
_cell_volume   339.31238039
_cell_formula_units_Z   2
loop_
 _symmetry_equiv_pos_site_id
 _symmetry_equiv_pos_as_xyz
  1  'x, y, z'
loop_
 _atom_site_type_symbol
 _atom_site_label
 _atom_site_symmetry_multiplicity
 _atom_site_fract_x
 _atom_site_fract_y
 _atom_site_fract_z
 _atom_site_occupancy
  Li  Li0  1  0.55311600  0.87333600  0.15672500  1
  Li  Li1  1  0.23779800  0.12609900  0.07712500  1
  Li  Li2  1  0.76220200  0.87390100  0.92287500  1
  Li  Li3  1  0.44688400  0.12666400  0.84327500  1
  Cu  Cu0  1  0.81943100  0.43597500  0.03824700  1
  Cu  Cu1  1  0.98856200  0.74893900  0.49719300  1
  Cu  Cu2  1  0.47617600  0.74246800  0.48833100  1
  Cu  Cu3  1  0.52382400  0.25753200  0.51166900  1
  Cu  Cu4  1  0.01143800  0.25106100  0.50280700  1
  Cu  Cu5  1  0.18056900  0.56402500  0.96175300  1
  F  F0  1  0.67457200  0.64841600  0.06355200  1
  F  F1  1  0.67688800  0.13053900  0.03970300  1
  F  F2  1  0.01763000  0.28077700  0.01001700  1
  F  F3  1  0.94417700  0.97440700  0.33189400  1
  F  F4  1  0.94725200  0.46884600  0.33389400  1
  F  F5  1  0.38692900  0.65416300  0.25293500  1
  F  F6  1  0.43628900  0.14070700  0.27885200  1
  F  F7  1  0.70080700  0.66477900  0.49015300  1
  F  F8  1  0.74164100  0.17411900  0.51054600  1
  F  F9  1  0.25835900  0.82588100  0.48945400  1
  F  F10  1  0.29919300  0.33522100  0.50984700  1
  F  F11  1  0.56371100  0.85929300  0.72114800  1
  F  F12  1  0.61307100  0.34583700  0.74706500  1
  F  F13  1  0.05274800  0.53115400  0.66610600  1
  F  F14  1  0.05582300  0.02559300  0.66810600  1
  F  F15  1  0.98237000  0.71922300  0.98998300  1
  F  F16  1  0.32311200  0.86946100  0.96029700  1
  F  F17  1  0.32542800  0.35158400  0.93644800  1
loop_
_geom_bond_atom_site_label_1
_geom_bond_atom_site_label_2
_geom_bond_distance
_geom_bond_site_symmetry_2
Cu0 F4 1.889057 1_555
Cu0 F12 2.154526 1_554
Cu0 F0 2.241131 1_555
Cu0 F2 2.243622 1_655
Cu0 F15 2.273885 1_554
Cu0 F1 2.290093 1_555
Cu1 F14 2.053000 1_665
Cu1 F4 2.088480 1_555
Cu1 F9 2.100143 1_655
Cu1 F7 2.226928 1_555
Cu1 F3 2.227633 1_555
Cu1 F13 2.247016 1_655
Cu2 F5 1.452945 1_555
Cu2 F11 1.484192 1_555
Cu2 F9 2.034175 1_555
Cu2 F7 2.062857 1_555
Cu3 F12 1.452945 1_555
Cu3 F6 1.484192 1_555
Cu3 F8 2.034175 1_555
Cu3 F10 2.062857 1_555
Cu4 F3 2.053000 1_445
Cu4 F13 2.088480 1_555
Cu4 F8 2.100143 1_455
Cu4 F10 2.226928 1_555
Cu4 F14 2.227633 1_555
Cu4 F4 2.247016 1_455
Cu5 F13 1.889057 1_555
Cu5 F5 2.154526 1_556
Cu5 F17 2.241131 1_555
Cu5 F15 2.243622 1_455
Cu5 F2 2.273885 1_556
Cu5 F16 2.290093 1_555
F0 Li2 2.024920 1_554
F0 Li0 2.210685 1_555
F1 Li3 2.098298 1_554
F1 Li0 2.201440 1_545
F1 Li2 2.259572 1_544
F2 Li1 2.441251 1_555
F5 Li0 2.035066 1_555
F6 Li1 1.881184 1_555
F11 Li2 1.881184 1_555
F12 Li3 2.035066 1_555
F15 Li2 2.441251 1_555
F16 Li0 2.098298 1_556
F16 Li3 2.201440 1_565
F16 Li1 2.259572 1_566
F17 Li1 2.024920 1_556
F17 Li3 2.210685 1_555
