# generated using pymatgen
data_Mn3(OF2)2
_symmetry_space_group_name_H-M   'P 1'
_cell_length_a   4.89597900
_cell_length_b   4.89598000
_cell_length_c   9.35924200
_cell_angle_alpha   89.99997605
_cell_angle_beta   90.00001782
_cell_angle_gamma   89.99871271
_symmetry_Int_Tables_number   1
_chemical_formula_structural   Mn3(OF2)2
_chemical_formula_sum   'Mn6 O4 F8'
_cell_volume   224.34678912
_cell_formula_units_Z   2
loop_
 _symmetry_equiv_pos_site_id
 _symmetry_equiv_pos_as_xyz
  1  'x, y, z'
loop_
 _atom_site_type_symbol
 _atom_site_label
 _atom_site_symmetry_multiplicity
 _atom_site_fract_x
 _atom_site_fract_y
 _atom_site_fract_z
 _atom_site_occupancy
  Mn  Mn0  1  0.50000100  0.49999400  0.16525100  1
  Mn  Mn1  1  0.00000400  0.00000000  0.31696100  1
  Mn  Mn2  1  0.49999600  0.50000900  0.51620400  1
  Mn  Mn3  1  0.00000000  0.00000000  0.66531600  1
  Mn  Mn4  1  0.00000100  0.00000000  0.01610600  1
  Mn  Mn5  1  0.50000600  0.49999800  0.81707100  1
  O  O0  1  0.18303300  0.81696600  0.16634200  1
  O  O1  1  0.31698000  0.31697800  0.66630500  1
  O  O2  1  0.68302000  0.68301900  0.66630400  1
  O  O3  1  0.81696400  0.18303500  0.16634200  1
  F  F0  1  0.18676900  0.81323300  0.48119900  1
  F  F1  1  0.18573600  0.81426500  0.85326400  1
  F  F2  1  0.31324300  0.31324400  0.98119600  1
  F  F3  1  0.31426200  0.31426400  0.35324300  1
  F  F4  1  0.68675500  0.68675700  0.98119600  1
  F  F5  1  0.68573500  0.68573400  0.35324300  1
  F  F6  1  0.81323100  0.18676900  0.48120000  1
  F  F7  1  0.81426400  0.18573600  0.85326200  1
loop_
_geom_bond_atom_site_label_1
_geom_bond_atom_site_label_2
_geom_bond_distance
_geom_bond_site_symmetry_2
Mn0 O3 2.194625 1_555
Mn0 O0 2.194687 1_555
Mn1 O0 1.895579 1_545
Mn1 O3 1.895606 1_455
Mn2 O2 1.891921 1_555
Mn2 O1 1.891958 1_555
Mn3 O1 2.194794 1_555
Mn3 O2 2.194805 1_445
Mn4 O0 1.892921 1_545
Mn4 O3 1.892935 1_455
Mn5 O2 1.896563 1_555
Mn5 O1 1.896581 1_555
F0 Mn1 2.008739 1_565
F0 Mn3 2.154453 1_565
F0 Mn2 2.193343 1_555
F1 Mn4 1.994149 1_566
F1 Mn3 2.179009 1_565
F1 Mn5 2.202167 1_555
F2 Mn5 2.007916 1_555
F2 Mn0 2.153948 1_556
F2 Mn4 2.193378 1_556
F3 Mn2 1.995039 1_555
F3 Mn0 2.179355 1_555
F3 Mn1 2.202292 1_555
F4 Mn5 2.007896 1_555
F4 Mn0 2.153966 1_556
F4 Mn4 2.193389 1_666
F5 Mn2 1.995005 1_555
F5 Mn0 2.179365 1_555
F5 Mn1 2.202337 1_665
F6 Mn1 2.008770 1_655
F6 Mn3 2.154449 1_655
F6 Mn2 2.193424 1_555
F7 Mn4 1.994169 1_656
F7 Mn3 2.178997 1_655
F7 Mn5 2.202106 1_555
