# generated using pymatgen
data_KLaSiS4
_symmetry_space_group_name_H-M   'P 1'
_cell_length_a   6.69271930
_cell_length_b   6.61863342
_cell_length_c   8.69618627
_cell_angle_alpha   72.70443087
_cell_angle_beta   90.00000000
_cell_angle_gamma   90.00000000
_symmetry_Int_Tables_number   1
_chemical_formula_structural   KLaSiS4
_chemical_formula_sum   'K2 La2 Si2 S8'
_cell_volume   367.79414483
_cell_formula_units_Z   2
loop_
 _symmetry_equiv_pos_site_id
 _symmetry_equiv_pos_as_xyz
  1  'x, y, z'
loop_
 _atom_site_type_symbol
 _atom_site_label
 _atom_site_symmetry_multiplicity
 _atom_site_fract_x
 _atom_site_fract_y
 _atom_site_fract_z
 _atom_site_occupancy
  K  K0  1  0.97393478  0.22681791  0.56640554  1
  K  K1  1  0.47393478  0.77318209  0.43359446  1
  La  La0  1  0.48956447  0.73208259  0.94782372  1
  La  La1  1  0.98956447  0.26791741  0.05217628  1
  Si  Si0  1  0.46238603  0.28506859  0.81461528  1
  Si  Si1  1  0.96238603  0.71493141  0.18538472  1
  S  S0  1  0.46144903  0.09238124  0.66183489  1
  S  S1  1  0.22667970  0.50992302  0.76784335  1
  S  S2  1  0.72263661  0.47714212  0.78168298  1
  S  S3  1  0.93034838  0.89632456  0.93879203  1
  S  S4  1  0.43034838  0.10367544  0.06120797  1
  S  S5  1  0.22263661  0.52285788  0.21831702  1
  S  S6  1  0.72667970  0.49007698  0.23215665  1
  S  S7  1  0.96144903  0.90761876  0.33816511  1
loop_
_geom_bond_atom_site_label_1
_geom_bond_atom_site_label_2
_geom_bond_distance
_geom_bond_site_symmetry_2
K0 S7 3.301993 1_545
K0 S2 3.304948 1_555
K0 S3 3.338385 1_545
K0 S6 3.348402 1_555
K0 S1 3.375299 1_655
K0 S0 3.418653 1_655
K0 S5 3.499433 1_655
K0 S0 3.578508 1_555
K1 S0 3.301993 1_565
K1 S5 3.304948 1_555
K1 S4 3.338385 1_565
K1 S1 3.348402 1_555
K1 S6 3.375299 1_555
K1 S7 3.418653 1_555
K1 S2 3.499433 1_555
K1 S7 3.578508 1_455
La0 S0 2.894983 1_565
La0 S4 2.935991 1_566
La0 S5 2.950491 1_556
La0 S2 2.969412 1_555
La0 S6 2.973698 1_556
La0 S1 3.012585 1_555
La0 S3 3.136853 1_555
La1 S7 2.894983 1_545
La1 S3 2.935991 1_544
La1 S2 2.950491 1_554
La1 S5 2.969412 1_655
La1 S1 2.973698 1_654
La1 S6 3.012585 1_555
La1 S4 3.136853 1_655
S0 Si0 2.097425 1_555
S1 Si0 2.123416 1_555
S2 Si0 2.124962 1_555
S3 Si1 2.134257 1_556
S4 Si0 2.134257 1_554
S5 Si1 2.124962 1_455
S6 Si1 2.123416 1_555
S7 Si1 2.097425 1_555
