# generated using pymatgen
data_CoRe3
_symmetry_space_group_name_H-M   'P 1'
_cell_length_a   5.38915222
_cell_length_b   5.38914803
_cell_length_c   4.33991529
_cell_angle_alpha   89.99998895
_cell_angle_beta   89.99999918
_cell_angle_gamma   119.99987016
_symmetry_Int_Tables_number   1
_chemical_formula_structural   CoRe3
_chemical_formula_sum   'Co2 Re6'
_cell_volume   109.15735817
_cell_formula_units_Z   2
loop_
 _symmetry_equiv_pos_site_id
 _symmetry_equiv_pos_as_xyz
  1  'x, y, z'
loop_
 _atom_site_type_symbol
 _atom_site_label
 _atom_site_symmetry_multiplicity
 _atom_site_fract_x
 _atom_site_fract_y
 _atom_site_fract_z
 _atom_site_occupancy
  Co  Co0  1  0.33335002  0.66667629  0.74999881  1
  Co  Co1  1  0.66664838  0.33332286  0.24999876  1
  Re  Re0  1  0.16682687  0.33364393  0.24999849  1
  Re  Re1  1  0.66635033  0.83317540  0.24999873  1
  Re  Re2  1  0.16682470  0.83318204  0.24999915  1
  Re  Re3  1  0.83316483  0.66633231  0.74999861  1
  Re  Re4  1  0.33366888  0.16683293  0.74999829  1
  Re  Re5  1  0.83316399  0.16683323  0.74999815  1
loop_
_geom_bond_atom_site_label_1
_geom_bond_atom_site_label_2
_geom_bond_distance
_geom_bond_site_symmetry_2
Co0 Re1 2.669108 1_556
Co0 Re1 2.669108 1_555
Co0 Re2 2.669188 1_555
Co0 Re2 2.669190 1_556
Co0 Re0 2.669193 1_556
Co0 Re0 2.669195 1_555
Co0 Re5 2.694502 1_565
Co0 Re3 2.694505 1_555
Co0 Re4 2.694559 1_565
Co0 Re4 2.694589 1_555
Co0 Re3 2.694648 1_455
Co0 Re5 2.694659 1_455
Co1 Re4 2.669049 1_555
Co1 Re4 2.669053 1_554
Co1 Re5 2.669117 1_555
Co1 Re5 2.669121 1_554
Co1 Re3 2.669132 1_555
Co1 Re3 2.669132 1_554
Co1 Re0 2.694480 1_555
Co1 Re2 2.694485 1_545
Co1 Re1 2.694566 1_545
Co1 Re1 2.694583 1_555
Co1 Re0 2.694673 1_655
Co1 Re2 2.694676 1_655
Re0 Re4 2.670880 1_555
Re0 Re4 2.670881 1_554
Re0 Re5 2.670908 1_455
Re0 Re5 2.670911 1_454
Re0 Re1 2.692034 1_555
Re0 Re2 2.692091 1_555
Re0 Re2 2.697057 1_545
Re0 Re1 2.697127 1_445
Re1 Re3 2.670892 1_555
Re1 Re5 2.670893 1_565
Re1 Re3 2.670893 1_554
Re1 Re5 2.670897 1_564
Re1 Re2 2.692038 1_555
Re1 Re2 2.697115 1_655
Re2 Re4 2.670873 1_565
Re2 Re4 2.670879 1_564
Re2 Re3 2.670899 1_455
Re2 Re3 2.670903 1_454
Re3 Re5 2.691872 1_555
Re3 Re4 2.691873 1_555
Re3 Re5 2.697276 1_565
Re3 Re4 2.697288 1_665
Re4 Re5 2.691854 1_555
Re4 Re5 2.697298 1_455
