# generated using pymatgen
data_TiMn2Ga
_symmetry_space_group_name_H-M   'P 1'
_cell_length_a   4.33134440
_cell_length_b   4.33134440
_cell_length_c   4.33134440
_cell_angle_alpha   60.00000000
_cell_angle_beta   60.00000000
_cell_angle_gamma   60.00000000
_symmetry_Int_Tables_number   1
_chemical_formula_structural   TiMn2Ga
_chemical_formula_sum   'Ti1 Mn2 Ga1'
_cell_volume   57.45835067
_cell_formula_units_Z   1
loop_
 _symmetry_equiv_pos_site_id
 _symmetry_equiv_pos_as_xyz
  1  'x, y, z'
loop_
 _atom_site_type_symbol
 _atom_site_label
 _atom_site_symmetry_multiplicity
 _atom_site_fract_x
 _atom_site_fract_y
 _atom_site_fract_z
 _atom_site_occupancy
  Ti  Ti0  1  0.50000000  0.50000000  0.50000000  1
  Mn  Mn0  1  0.25000000  0.25000000  0.25000000  1
  Mn  Mn1  1  0.75000000  0.75000000  0.75000000  1
  Ga  Ga0  1  0.00000000  0.00000000  0.00000000  1
loop_
_geom_bond_atom_site_label_1
_geom_bond_atom_site_label_2
_geom_bond_distance
_geom_bond_site_symmetry_2
Mn0 Ti0 2.652396 1_455
Mn0 Ti0 2.652396 1_555
Mn0 Ti0 2.652396 1_545
Mn0 Ti0 2.652396 1_554
Mn1 Ti0 2.652396 1_556
Mn1 Ti0 2.652396 1_555
Mn1 Ti0 2.652396 1_565
Mn1 Ti0 2.652396 1_655
Ga0 Mn1 2.652396 1_444
Ga0 Mn0 2.652396 1_545
Ga0 Mn0 2.652396 1_555
Ga0 Mn1 2.652396 1_454
Ga0 Mn1 2.652396 1_544
Ga0 Mn0 2.652396 1_554
Ga0 Mn1 2.652396 1_445
Ga0 Mn0 2.652396 1_455
Ga0 Ti0 3.062723 1_544
Ga0 Ti0 3.062723 1_455
Ga0 Ti0 3.062723 1_454
Ga0 Ti0 3.062723 1_545
Ga0 Ti0 3.062723 1_554
Ga0 Ti0 3.062723 1_445
