# generated using pymatgen
data_DyB4Mo
_symmetry_space_group_name_H-M   'P 1'
_cell_length_a   3.62077193
_cell_length_b   6.02009449
_cell_length_c   11.62813047
_cell_angle_alpha   90.00000000
_cell_angle_beta   90.00000000
_cell_angle_gamma   90.00000000
_symmetry_Int_Tables_number   1
_chemical_formula_structural   DyB4Mo
_chemical_formula_sum   'Dy4 B16 Mo4'
_cell_volume   253.46288489
_cell_formula_units_Z   4
loop_
 _symmetry_equiv_pos_site_id
 _symmetry_equiv_pos_as_xyz
  1  'x, y, z'
loop_
 _atom_site_type_symbol
 _atom_site_label
 _atom_site_symmetry_multiplicity
 _atom_site_fract_x
 _atom_site_fract_y
 _atom_site_fract_z
 _atom_site_occupancy
  Dy  Dy0  1  0.00000000  0.12748412  0.14957457  1
  Dy  Dy1  1  -0.00000000  0.87251588  0.85042543  1
  Dy  Dy2  1  0.00000000  0.62748412  0.35042543  1
  Dy  Dy3  1  0.00000000  0.37251588  0.64957457  1
  B  B0  1  0.50000000  0.47648081  0.19334973  1
  B  B1  1  0.50000000  0.52351919  0.80665027  1
  B  B2  1  0.50000000  0.97648081  0.30665027  1
  B  B3  1  0.50000000  0.02351919  0.69334973  1
  B  B4  1  0.50000000  0.28653294  0.31404584  1
  B  B5  1  0.50000000  0.71346706  0.68595416  1
  B  B6  1  0.50000000  0.78653294  0.18595416  1
  B  B7  1  0.50000000  0.21346706  0.81404584  1
  B  B8  1  0.50000000  0.36635254  0.46810849  1
  B  B9  1  0.50000000  0.63364746  0.53189151  1
  B  B10  1  0.50000000  0.86635254  0.03189151  1
  B  B11  1  0.50000000  0.13364746  0.96810849  1
  B  B12  1  0.50000000  0.38616782  0.04743427  1
  B  B13  1  0.50000000  0.61383218  0.95256573  1
  B  B14  1  0.50000000  0.88616782  0.45256573  1
  B  B15  1  0.50000000  0.11383218  0.54743427  1
  Mo  Mo0  1  -0.00000000  0.12899371  0.41690462  1
  Mo  Mo1  1  -0.00000000  0.87100629  0.58309538  1
  Mo  Mo2  1  0.00000000  0.62899371  0.08309538  1
  Mo  Mo3  1  -0.00000000  0.37100629  0.91690462  1
loop_
_geom_bond_atom_site_label_1
_geom_bond_atom_site_label_2
_geom_bond_distance
_geom_bond_site_symmetry_2
Dy0 Mo3 3.077183 1_554
Dy0 Mo2 3.098924 1_545
Dy0 Mo0 3.108562 1_555
Dy0 Mo2 3.116529 1_555
Dy1 Mo2 3.077183 1_556
Dy1 Mo3 3.098924 1_565
Dy1 Mo1 3.108562 1_555
Dy1 Mo3 3.116529 1_555
Dy2 Mo1 3.077183 1_555
Dy2 Mo0 3.098924 1_555
Dy2 Mo2 3.108562 1_555
Dy2 Mo0 3.116529 1_565
Dy3 Mo0 3.077183 1_555
Dy3 Mo1 3.098924 1_555
Dy3 Mo3 3.108562 1_555
Dy3 Mo1 3.116529 1_545
B0 B12 1.781705 1_555
B0 B4 1.810340 1_555
B0 B6 1.868523 1_555
B0 Mo2 2.400862 1_555
B0 Mo2 2.400862 1_655
B0 Dy2 2.727630 1_655
B0 Dy2 2.727630 1_555
B0 Dy0 2.819712 1_555
B0 Dy0 2.819712 1_655
B1 B13 1.781705 1_555
B1 B5 1.810340 1_555
B1 B7 1.868523 1_555
B1 Mo3 2.400862 1_655
B1 Mo3 2.400862 1_555
B1 Dy3 2.727630 1_655
B1 Dy3 2.727630 1_555
B1 Dy1 2.819712 1_655
B1 Dy1 2.819712 1_555
B2 B6 1.810340 1_555
B2 B4 1.868523 1_565
B2 Mo0 2.400862 1_665
B2 Mo0 2.400862 1_565
B2 Dy0 2.727630 1_565
B2 Dy0 2.727630 1_665
B2 Dy2 2.819712 1_655
B2 Dy2 2.819712 1_555
B3 B7 1.810340 1_555
B3 B5 1.868523 1_545
B3 Mo1 2.400862 1_645
B3 Mo1 2.400862 1_545
B3 Dy1 2.727630 1_545
B3 Dy1 2.727630 1_645
B3 Dy3 2.819712 1_555
B3 Dy3 2.819712 1_655
B4 B8 1.854786 1_555
B4 Mo0 2.368018 1_555
B4 Mo0 2.368018 1_655
B4 Dy2 2.769376 1_555
B4 Dy2 2.769376 1_655
B4 Dy0 2.802127 1_655
B4 Dy0 2.802127 1_555
B5 B9 1.854786 1_555
B5 Mo1 2.368018 1_555
B5 Mo1 2.368018 1_655
B5 Dy3 2.769376 1_555
B5 Dy3 2.769376 1_655
B5 Dy1 2.802127 1_555
B5 Dy1 2.802127 1_655
B6 Mo2 2.368018 1_555
B6 Mo2 2.368018 1_655
B6 Dy0 2.769376 1_565
B6 Dy0 2.769376 1_665
B6 Dy2 2.802127 1_655
B6 Dy2 2.802127 1_555
B7 Mo3 2.368018 1_655
B7 Mo3 2.368018 1_555
B7 Dy1 2.769376 1_645
B7 Dy1 2.769376 1_545
B7 Dy3 2.802127 1_655
B7 Dy3 2.802127 1_555
B8 B9 1.771841 1_555
B8 Mo0 2.381979 1_555
B8 Mo0 2.381979 1_655
B8 Dy2 2.760690 1_555
B8 Dy2 2.760690 1_655
B8 Dy3 2.780547 1_655
B8 Dy3 2.780547 1_555
B9 Mo1 2.381979 1_555
B9 Mo1 2.381979 1_655
B9 Dy3 2.760690 1_655
B9 Dy3 2.760690 1_555
B9 Dy2 2.780547 1_555
B9 Dy2 2.780547 1_655
B10 B11 1.771841 1_564
B10 B13 1.778156 1_554
B10 B6 1.854786 1_555
B10 Mo2 2.381979 1_655
B10 Mo2 2.381979 1_555
B10 Dy0 2.760690 1_565
B10 Dy0 2.760690 1_665
B10 Dy1 2.780547 1_554
B10 Dy1 2.780547 1_654
B11 B12 1.778156 1_556
B11 B7 1.854786 1_555
B11 Mo3 2.381979 1_555
B11 Mo3 2.381979 1_655
B11 Dy1 2.760690 1_545
B11 Dy1 2.760690 1_645
B11 Dy0 2.780547 1_656
B11 Dy0 2.780547 1_556
B12 B13 1.759365 1_554
B12 Mo2 2.363559 1_655
B12 Mo2 2.363559 1_555
B12 Mo3 2.364232 1_554
B12 Mo3 2.364232 1_654
B12 Dy0 2.667080 1_555
B12 Dy0 2.667080 1_655
B13 Mo3 2.363559 1_655
B13 Mo3 2.363559 1_555
B13 Mo2 2.364232 1_556
B13 Mo2 2.364232 1_656
B13 Dy1 2.667080 1_555
B13 Dy1 2.667080 1_655
B14 B15 1.759365 1_565
B14 B9 1.778156 1_555
B14 B2 1.781705 1_555
B14 Mo0 2.363559 1_665
B14 Mo0 2.363559 1_565
B14 Mo1 2.364232 1_655
B14 Mo1 2.364232 1_555
B14 Dy2 2.667080 1_555
B14 Dy2 2.667080 1_655
B15 B8 1.778156 1_555
B15 B3 1.781705 1_555
B15 Mo1 2.363559 1_545
B15 Mo1 2.363559 1_645
B15 Mo0 2.364232 1_555
B15 Mo0 2.364232 1_655
B15 Dy3 2.667080 1_655
B15 Dy3 2.667080 1_555
Mo0 Mo1 2.479245 1_545
Mo2 Mo3 2.479245 1_554
