# generated using pymatgen
data_Li11V8(PO4)12
_symmetry_space_group_name_H-M   'P 1'
_cell_length_a   12.25535500
_cell_length_b   8.72008046
_cell_length_c   8.78387852
_cell_angle_alpha   90.30482638
_cell_angle_beta   90.18092414
_cell_angle_gamma   90.15872513
_symmetry_Int_Tables_number   1
_chemical_formula_structural   Li11V8(PO4)12
_chemical_formula_sum   'Li11 V8 P12 O48'
_cell_volume   938.69112224
_cell_formula_units_Z   1
loop_
 _symmetry_equiv_pos_site_id
 _symmetry_equiv_pos_as_xyz
  1  'x, y, z'
loop_
 _atom_site_type_symbol
 _atom_site_label
 _atom_site_symmetry_multiplicity
 _atom_site_fract_x
 _atom_site_fract_y
 _atom_site_fract_z
 _atom_site_occupancy
  Li  Li0  1  0.77763200  0.18189500  0.21802800  1
  Li  Li1  1  0.27598800  0.18053200  0.77423200  1
  Li  Li2  1  0.41820200  0.28960100  0.05580700  1
  Li  Li3  1  0.26679300  0.31749400  0.31390400  1
  Li  Li4  1  0.77294500  0.31728700  0.71532700  1
  Li  Li5  1  0.22827700  0.68158900  0.27324000  1
  Li  Li6  1  0.73217300  0.68493000  0.68514600  1
  Li  Li7  1  0.58628500  0.71295900  0.94798700  1
  Li  Li8  1  0.08239800  0.78547100  0.55394800  1
  Li  Li9  1  0.72934500  0.81909300  0.22721400  1
  Li  Li10  1  0.23309700  0.81560300  0.81364700  1
  V  V0  1  0.46179200  0.11259600  0.26008100  1
  V  V1  1  0.95805200  0.11418000  0.74642800  1
  V  V2  1  0.46188000  0.38751900  0.74673700  1
  V  V3  1  0.96127600  0.38511500  0.24443100  1
  V  V4  1  0.54015900  0.61192700  0.25509500  1
  V  V5  1  0.03910200  0.60961300  0.75988400  1
  V  V6  1  0.04096000  0.88820100  0.24533700  1
  V  V7  1  0.53911700  0.88889600  0.74256500  1
  P  P0  1  0.24667800  0.99863100  0.54438400  1
  P  P1  1  0.75041500  0.00023300  0.45953900  1
  P  P2  1  0.10565600  0.14781300  0.10059100  1
  P  P3  1  0.60380000  0.14558000  0.89778300  1
  P  P4  1  0.60531000  0.35352100  0.39263900  1
  P  P5  1  0.09945400  0.35135800  0.60923300  1
  P  P6  1  0.25323400  0.49789700  0.04642000  1
  P  P7  1  0.75121600  0.50178000  0.95606700  1
  P  P8  1  0.39279700  0.64697600  0.60679400  1
  P  P9  1  0.90247500  0.64530700  0.39070900  1
  P  P10  1  0.40308500  0.85429400  0.10949800  1
  P  P11  1  0.89437300  0.85520300  0.89297000  1
  O  O0  1  0.07132700  0.03157400  0.15341300  1
  O  O1  1  0.56112000  0.03184500  0.84497400  1
  O  O2  1  0.86035100  0.06812500  0.56578500  1
  O  O3  1  0.35333800  0.06744000  0.44665100  1
  O  O4  1  0.66742200  0.08376000  0.35961200  1
  O  O5  1  0.15484600  0.08039300  0.64609300  1
  O  O6  1  0.60190000  0.15851200  0.07554400  1
  O  O7  1  0.09972500  0.15397300  0.92073100  1
  O  O8  1  0.26859800  0.18379700  0.15152000  1
  O  O9  1  0.76499000  0.17886600  0.83797400  1
  O  O10  1  0.98510200  0.22536800  0.16778000  1
  O  O11  1  0.48030600  0.22838600  0.84060700  1
  O  O12  1  0.98092500  0.26815100  0.67838300  1
  O  O13  1  0.48095100  0.27825900  0.31361000  1
  O  O14  1  0.76291500  0.32098600  0.33112300  1
  O  O15  1  0.26296200  0.31978000  0.66104000  1
  O  O16  1  0.09077100  0.34084700  0.43310800  1
  O  O17  1  0.60075500  0.33726400  0.56807600  1
  O  O18  1  0.17317900  0.41822600  0.15690100  1
  O  O19  1  0.66324700  0.41967200  0.85103800  1
  O  O20  1  0.86299500  0.43663800  0.05304300  1
  O  O21  1  0.36195600  0.42584700  0.95096800  1
  O  O22  1  0.05510200  0.46455200  0.66393300  1
  O  O23  1  0.56420000  0.47103900  0.35113700  1
  O  O24  1  0.42713500  0.53054200  0.65364400  1
  O  O25  1  0.94441800  0.53200600  0.34170800  1
  O  O26  1  0.64156600  0.57466300  0.04942600  1
  O  O27  1  0.14332100  0.56735300  0.95058500  1
  O  O28  1  0.34343500  0.58106200  0.14804100  1
  O  O29  1  0.83172100  0.58372100  0.84574600  1
  O  O30  1  0.39520600  0.66300100  0.43173000  1
  O  O31  1  0.91387700  0.66226500  0.56866000  1
  O  O32  1  0.74011500  0.67924100  0.34099000  1
  O  O33  1  0.23131000  0.68353100  0.66428300  1
  O  O34  1  0.02342200  0.72992500  0.32954300  1
  O  O35  1  0.51517300  0.72214000  0.68647900  1
  O  O36  1  0.52534600  0.77164600  0.16909600  1
  O  O37  1  0.01698600  0.78237200  0.81460100  1
  O  O38  1  0.24107900  0.82137100  0.15868900  1
  O  O39  1  0.73402000  0.81711800  0.83593300  1
  O  O40  1  0.89715300  0.84170000  0.06883600  1
  O  O41  1  0.41347000  0.83969500  0.93139200  1
  O  O42  1  0.84071100  0.92293000  0.35406700  1
  O  O43  1  0.32933000  0.92101800  0.65670200  1
  O  O44  1  0.13931300  0.92385000  0.45037000  1
  O  O45  1  0.64113800  0.92969700  0.55314400  1
  O  O46  1  0.44537000  0.96845500  0.16147700  1
  O  O47  1  0.92503000  0.97450400  0.84644500  1
loop_
_geom_bond_atom_site_label_1
_geom_bond_atom_site_label_2
_geom_bond_distance
_geom_bond_site_symmetry_2
Li0 O14 1.574805 1_555
Li0 O4 2.029483 1_555
Li0 O6 2.494806 1_555
Li1 O15 1.581574 1_555
Li1 O5 2.050695 1_555
Li1 O7 2.528604 1_555
Li2 O21 1.657376 1_554
Li2 O11 2.106662 1_554
Li2 O8 2.219957 1_555
Li2 O6 2.533561 1_555
Li3 O8 1.837620 1_555
Li3 O18 1.999548 1_555
Li3 O16 2.409528 1_555
Li4 O9 1.625089 1_555
Li4 O19 2.007724 1_555
Li4 O17 2.478643 1_555
Li5 O38 1.592416 1_555
Li5 O28 1.993996 1_555
Li5 O30 2.477058 1_555
Li6 O39 1.751261 1_555
Li6 O29 2.065352 1_555
Li6 O31 2.461610 1_555
Li7 O26 1.649057 1_556
Li7 O36 2.143005 1_556
Li7 O39 2.254657 1_555
Li7 O41 2.396012 1_555
Li8 O44 1.667748 1_555
Li8 O34 2.149728 1_555
Li8 O33 2.250994 1_555
Li8 O31 2.329642 1_455
Li9 O32 1.586338 1_555
Li9 O42 1.974088 1_555
Li9 O40 2.494464 1_555
Li10 O33 1.741199 1_555
Li10 O43 2.038170 1_555
Li10 O41 2.445601 1_555
O0 P2 1.193133 1_555
O0 V6 1.537400 1_545
O1 P3 1.209581 1_555
O1 V7 1.555765 1_545
O2 P1 1.737366 1_555
O2 V1 2.022691 1_555
O3 P0 1.677463 1_545
O3 V0 2.150601 1_555
O4 P1 1.529944 1_555
O5 P0 1.605338 1_545
O6 P3 1.565151 1_554
O6 V0 2.399335 1_555
O7 P2 1.582515 1_556
O7 V1 2.335238 1_455
O8 P2 2.067761 1_555
O9 P3 2.065820 1_555
O10 V3 1.572440 1_555
O10 P2 1.730687 1_655
O11 V2 1.633762 1_555
O11 P3 1.751944 1_555
O12 V1 1.498671 1_555
O12 P5 1.734909 1_655
O13 V0 1.534035 1_555
O13 P4 1.793963 1_555
O14 P4 2.027603 1_555
O15 P5 2.072909 1_555
O16 P5 1.552585 1_555
O16 V3 2.325487 1_455
O17 P4 1.549442 1_555
O17 V2 2.359072 1_555
O18 P6 1.548034 1_555
O19 P7 1.583810 1_555
O20 P7 1.710840 1_554
O20 V3 2.115902 1_555
O21 P6 1.696811 1_556
O21 V2 2.199851 1_555
O22 P5 1.224814 1_555
O22 V5 1.529691 1_555
O23 P4 1.201062 1_555
O23 V4 1.522930 1_555
O24 P8 1.176022 1_555
O24 V2 1.554674 1_555
O25 P9 1.193860 1_555
O25 V3 1.550627 1_555
O26 P7 1.699515 1_554
O26 V4 2.219000 1_555
O27 P6 1.700798 1_556
O27 V5 2.137463 1_555
O28 P6 1.589702 1_555
O29 P7 1.559654 1_555
O30 P8 1.545185 1_555
O30 V4 2.403299 1_555
O31 P9 1.575031 1_555
O31 V5 2.320176 1_655
O32 P9 2.058315 1_555
O33 P8 2.069170 1_555
O34 V6 1.583794 1_555
O34 P9 1.741658 1_455
O35 V7 1.559614 1_555
O35 P8 1.775343 1_555
O36 V4 1.598471 1_555
O36 P10 1.744580 1_555
O37 V5 1.602905 1_555
O37 P11 1.772678 1_455
O38 P10 2.052968 1_555
O39 P11 2.052228 1_555
O40 P11 1.550165 1_554
O40 V6 2.376178 1_655
O41 P10 1.574539 1_556
O41 V7 2.307880 1_555
O42 P1 1.594132 1_565
O43 P0 1.569083 1_555
O44 P0 1.679631 1_555
O44 V6 2.184333 1_555
O45 P1 1.689871 1_565
O45 V7 2.115471 1_555
O46 P10 1.207820 1_555
O46 V0 1.535071 1_565
O47 P11 1.180573 1_555
O47 V1 1.558845 1_565
