# generated using pymatgen
data_CaSnS3
_symmetry_space_group_name_H-M   'P 1'
_cell_length_a   6.55117300
_cell_length_b   6.91507400
_cell_length_c   10.30842000
_cell_angle_alpha   90.00000000
_cell_angle_beta   90.00000000
_cell_angle_gamma   90.00000000
_symmetry_Int_Tables_number   1
_chemical_formula_structural   CaSnS3
_chemical_formula_sum   'Ca4 Sn4 S12'
_cell_volume   466.99045619
_cell_formula_units_Z   4
loop_
 _symmetry_equiv_pos_site_id
 _symmetry_equiv_pos_as_xyz
  1  'x, y, z'
loop_
 _atom_site_type_symbol
 _atom_site_label
 _atom_site_symmetry_multiplicity
 _atom_site_fract_x
 _atom_site_fract_y
 _atom_site_fract_z
 _atom_site_occupancy
  Ca  Ca0  1  0.76215200  0.25000000  0.91130100  1
  Ca  Ca1  1  0.26215200  0.25000000  0.58869900  1
  Ca  Ca2  1  0.23784800  0.75000000  0.08869900  1
  Ca  Ca3  1  0.73784800  0.75000000  0.41130100  1
  Sn  Sn0  1  0.12517500  0.25000000  0.24668200  1
  Sn  Sn1  1  0.62517500  0.25000000  0.25331800  1
  Sn  Sn2  1  0.87482500  0.75000000  0.75331800  1
  Sn  Sn3  1  0.37482500  0.75000000  0.74668200  1
  S  S0  1  0.89580500  0.25000000  0.44418800  1
  S  S1  1  0.39580500  0.25000000  0.05581200  1
  S  S2  1  0.10419500  0.75000000  0.55581200  1
  S  S3  1  0.60419500  0.75000000  0.94418800  1
  S  S4  1  0.88664800  0.50229000  0.15517500  1
  S  S5  1  0.38664800  0.99771000  0.34482500  1
  S  S6  1  0.11335200  0.00229000  0.84482500  1
  S  S7  1  0.61335200  0.49771000  0.65517500  1
  S  S8  1  0.11335200  0.49771000  0.84482500  1
  S  S9  1  0.61335200  0.00229000  0.65517500  1
  S  S10  1  0.88664800  0.99771000  0.15517500  1
  S  S11  1  0.38664800  0.50229000  0.34482500  1
loop_
_geom_bond_atom_site_label_1
_geom_bond_atom_site_label_2
_geom_bond_distance
_geom_bond_site_symmetry_2
Ca0 S1 2.824741 1_556
Ca0 S6 2.949114 1_655
Ca0 S8 2.949114 1_655
Ca0 S10 3.166830 1_546
Ca0 S4 3.166830 1_556
Ca0 S7 3.294745 1_555
Ca0 S9 3.294745 1_555
Ca1 S0 2.824741 1_455
Ca1 S9 2.949114 1_555
Ca1 S7 2.949114 1_555
Ca1 S5 3.166830 1_545
Ca1 S11 3.166830 1_555
Ca1 S6 3.294745 1_555
Ca1 S8 3.294745 1_555
Ca2 S3 2.824741 1_554
Ca2 S4 2.949114 1_455
Ca2 S10 2.949114 1_455
Ca2 S6 3.166830 1_564
Ca2 S8 3.166830 1_554
Ca2 S11 3.294745 1_555
Ca2 S5 3.294745 1_555
Ca3 S2 2.824741 1_655
Ca3 S11 2.949114 1_555
Ca3 S5 2.949114 1_555
Ca3 S9 3.166830 1_565
Ca3 S7 3.166830 1_555
Ca3 S4 3.294745 1_555
Ca3 S10 3.294745 1_555
S0 Sn0 2.530440 1_655
S0 Sn1 2.648519 1_555
S1 Sn1 2.530440 1_555
S1 Sn0 2.648519 1_555
S2 Sn2 2.530440 1_455
S2 Sn3 2.648519 1_555
S3 Sn3 2.530440 1_555
S3 Sn2 2.648519 1_555
S4 Sn0 2.524928 1_655
S4 Sn1 2.646015 1_555
S5 Sn1 2.524928 1_565
S5 Sn0 2.646015 1_565
S6 Sn2 2.524928 1_445
S6 Sn3 2.646015 1_545
S7 Sn3 2.524928 1_555
S7 Sn2 2.646015 1_555
S8 Sn2 2.524928 1_455
S8 Sn3 2.646015 1_555
S9 Sn3 2.524928 1_545
S9 Sn2 2.646015 1_545
S10 Sn0 2.524928 1_665
S10 Sn1 2.646015 1_565
S11 Sn1 2.524928 1_555
S11 Sn0 2.646015 1_555
