# generated using pymatgen
data_Lu2Ge2O7
_symmetry_space_group_name_H-M   'P 1'
_cell_length_a   6.68844815
_cell_length_b   6.68844815
_cell_length_c   12.15777031
_cell_angle_alpha   90.00000000
_cell_angle_beta   90.00000000
_cell_angle_gamma   90.00000000
_symmetry_Int_Tables_number   1
_chemical_formula_structural   Lu2Ge2O7
_chemical_formula_sum   'Lu8 Ge8 O28'
_cell_volume   543.88197211
_cell_formula_units_Z   4
loop_
 _symmetry_equiv_pos_site_id
 _symmetry_equiv_pos_as_xyz
  1  'x, y, z'
loop_
 _atom_site_type_symbol
 _atom_site_label
 _atom_site_symmetry_multiplicity
 _atom_site_fract_x
 _atom_site_fract_y
 _atom_site_fract_z
 _atom_site_occupancy
  Lu  Lu0  1  0.64286279  0.87244604  0.38580211  1
  Lu  Lu1  1  0.35713721  0.12755396  0.88580211  1
  Lu  Lu2  1  0.87244604  0.64286279  0.61419789  1
  Lu  Lu3  1  0.37244604  0.85713721  0.13580211  1
  Lu  Lu4  1  0.62755396  0.14286279  0.63580211  1
  Lu  Lu5  1  0.85713721  0.37244604  0.86419789  1
  Lu  Lu6  1  0.14286279  0.62755396  0.36419789  1
  Lu  Lu7  1  0.12755396  0.35713721  0.11419789  1
  Ge  Ge0  1  0.64864529  0.39863334  0.38322061  1
  Ge  Ge1  1  0.35135471  0.60136666  0.88322061  1
  Ge  Ge2  1  0.39863334  0.64864529  0.61677939  1
  Ge  Ge3  1  0.89863334  0.85135471  0.13322061  1
  Ge  Ge4  1  0.10136666  0.14864529  0.63322061  1
  Ge  Ge5  1  0.85135471  0.89863334  0.86677939  1
  Ge  Ge6  1  0.14864529  0.10136666  0.36677939  1
  Ge  Ge7  1  0.60136666  0.35135471  0.11677939  1
  O  O0  1  0.30432507  0.69567493  0.75000000  1
  O  O1  1  0.80432507  0.80432507  0.00000000  1
  O  O2  1  0.19567493  0.19567493  0.50000000  1
  O  O3  1  0.69567493  0.30432507  0.25000000  1
  O  O4  1  0.46157331  0.57947145  0.38003090  1
  O  O5  1  0.53842669  0.42052855  0.88003090  1
  O  O6  1  0.57947145  0.46157331  0.61996910  1
  O  O7  1  0.07947145  0.03842669  0.13003090  1
  O  O8  1  0.92052855  0.96157331  0.63003090  1
  O  O9  1  0.03842669  0.07947145  0.86996910  1
  O  O10  1  0.96157331  0.92052855  0.36996910  1
  O  O11  1  0.42052855  0.53842669  0.11996910  1
  O  O12  1  0.33777258  0.93381862  0.32032430  1
  O  O13  1  0.66222742  0.06618138  0.82032430  1
  O  O14  1  0.93381862  0.33777258  0.67967570  1
  O  O15  1  0.43381862  0.16222742  0.07032430  1
  O  O16  1  0.82447341  0.35694353  0.04309964  1
  O  O17  1  0.14305647  0.32447341  0.29309964  1
  O  O18  1  0.85694353  0.67552659  0.79309964  1
  O  O19  1  0.32447341  0.14305647  0.70690036  1
  O  O20  1  0.67552659  0.85694353  0.20690036  1
  O  O21  1  0.17552659  0.64305647  0.54309964  1
  O  O22  1  0.35694353  0.82447341  0.95690036  1
  O  O23  1  0.64305647  0.17552659  0.45690036  1
  O  O24  1  0.06618138  0.66222742  0.17967570  1
  O  O25  1  0.83777258  0.56618138  0.42967570  1
  O  O26  1  0.16222742  0.43381862  0.92967570  1
  O  O27  1  0.56618138  0.83777258  0.57032430  1
loop_
_geom_bond_atom_site_label_1
_geom_bond_atom_site_label_2
_geom_bond_distance
_geom_bond_site_symmetry_2
Lu0 O10 2.164378 1_555
Lu0 O20 2.188449 1_555
Lu0 O23 2.203741 1_565
Lu0 O12 2.228494 1_555
Lu0 O4 2.305430 1_555
Lu0 O27 2.312915 1_555
Lu0 O25 2.485980 1_555
Lu1 O9 2.164378 1_555
Lu1 O19 2.188449 1_555
Lu1 O22 2.203741 1_545
Lu1 O13 2.228494 1_555
Lu1 O5 2.305430 1_555
Lu1 O15 2.312915 1_556
Lu1 O26 2.485980 1_555
Lu2 O8 2.164378 1_555
Lu2 O18 2.188449 1_555
Lu2 O21 2.203741 1_655
Lu2 O14 2.228494 1_555
Lu2 O6 2.305430 1_555
Lu2 O25 2.312915 1_555
Lu2 O27 2.485980 1_555
Lu3 O11 2.164378 1_555
Lu3 O22 2.188449 1_554
Lu3 O20 2.203741 1_555
Lu3 O15 2.228494 1_565
Lu3 O7 2.305430 1_565
Lu3 O12 2.312915 1_555
Lu3 O24 2.485980 1_555
Lu4 O6 2.164378 1_555
Lu4 O23 2.188449 1_555
Lu4 O19 2.203741 1_555
Lu4 O27 2.228494 1_545
Lu4 O8 2.305430 1_545
Lu4 O13 2.312915 1_555
Lu4 O14 2.485980 1_555
Lu5 O5 2.164378 1_555
Lu5 O16 2.188449 1_556
Lu5 O18 2.203741 1_555
Lu5 O26 2.228494 1_655
Lu5 O9 2.305430 1_655
Lu5 O14 2.312915 1_555
Lu5 O13 2.485980 1_555
Lu6 O4 2.164378 1_555
Lu6 O21 2.188449 1_555
Lu6 O17 2.203741 1_555
Lu6 O25 2.228494 1_455
Lu6 O10 2.305430 1_455
Lu6 O24 2.312915 1_555
Lu6 O12 2.485980 1_555
Lu7 O7 2.164378 1_555
Lu7 O17 2.188449 1_555
Lu7 O16 2.203741 1_455
Lu7 O24 2.228494 1_555
Lu7 O11 2.305430 1_555
Lu7 O26 2.312915 1_554
Lu7 O15 2.485980 1_555
Ge0 O4 1.740693 1_555
Ge0 O23 1.740861 1_555
Ge0 O3 1.766392 1_555
Ge0 O25 1.781841 1_555
Ge1 O5 1.740693 1_555
Ge1 O22 1.740861 1_555
Ge1 O0 1.766392 1_555
Ge1 O26 1.781841 1_555
Ge2 O6 1.740693 1_555
Ge2 O21 1.740861 1_555
Ge2 O0 1.766392 1_555
Ge2 O27 1.781841 1_555
Ge3 O7 1.740693 1_665
Ge3 O20 1.740861 1_555
Ge3 O1 1.766392 1_555
Ge3 O24 1.781841 1_655
Ge4 O8 1.740693 1_445
Ge4 O19 1.740861 1_555
Ge4 O2 1.766392 1_555
Ge4 O14 1.781841 1_455
Ge5 O9 1.740693 1_665
Ge5 O18 1.740861 1_555
Ge5 O1 1.766392 1_556
Ge5 O13 1.781841 1_565
Ge6 O10 1.740693 1_445
Ge6 O17 1.740861 1_555
Ge6 O2 1.766392 1_555
Ge6 O12 1.781841 1_545
Ge7 O11 1.740693 1_555
Ge7 O16 1.740861 1_555
Ge7 O3 1.766392 1_555
Ge7 O15 1.781841 1_555
