# generated using pymatgen
data_LiMnPO4F
_symmetry_space_group_name_H-M   'P 1'
_cell_length_a   5.19686600
_cell_length_b   5.33545846
_cell_length_c   7.39386801
_cell_angle_alpha   108.89478776
_cell_angle_beta   104.33298873
_cell_angle_gamma   98.26105813
_symmetry_Int_Tables_number   1
_chemical_formula_structural   LiMnPO4F
_chemical_formula_sum   'Li2 Mn2 P2 O8 F2'
_cell_volume   182.24024189
_cell_formula_units_Z   2
loop_
 _symmetry_equiv_pos_site_id
 _symmetry_equiv_pos_as_xyz
  1  'x, y, z'
loop_
 _atom_site_type_symbol
 _atom_site_label
 _atom_site_symmetry_multiplicity
 _atom_site_fract_x
 _atom_site_fract_y
 _atom_site_fract_z
 _atom_site_occupancy
  Li  Li0  1  0.91967200  0.19146000  0.18900500  1
  Li  Li1  1  0.08032800  0.80854000  0.81099500  1
  Mn  Mn0  1  0.00000000  0.00000000  0.00000000  1
  Mn  Mn1  1  0.50000000  0.50000000  0.50000000  1
  P  P0  1  0.44452700  0.59336900  0.76269500  1
  P  P1  1  0.55547300  0.40663100  0.23730500  1
  O  O0  1  0.71934400  0.67133700  0.08302800  1
  O  O1  1  0.64693900  0.00016200  0.34082000  1
  O  O2  1  0.35306100  0.99983800  0.65918000  1
  O  O3  1  0.63624300  0.40599200  0.38587700  1
  O  O4  1  0.28065600  0.32866300  0.91697200  1
  O  O5  1  0.36375700  0.59400800  0.61412300  1
  O  O6  1  0.24328800  0.54508700  0.11757100  1
  O  O7  1  0.75671200  0.45491300  0.88242900  1
  F  F0  1  0.12281000  0.81205400  0.26309800  1
  F  F1  1  0.87719000  0.18794600  0.73690200  1
loop_
_geom_bond_atom_site_label_1
_geom_bond_atom_site_label_2
_geom_bond_distance
_geom_bond_site_symmetry_2
Li0 Mn0 1.630195 1_655
Li0 O1 2.329095 1_555
Li0 O0 2.599330 1_545
Li1 Mn0 1.630195 1_566
Li1 O2 2.329095 1_555
Li1 O4 2.599330 1_565
Mn0 O4 2.446373 1_554
Mn0 O0 2.446373 1_445
Mn1 O5 1.260419 1_555
Mn1 O3 1.260419 1_555
O0 O7 1.633643 1_554
O0 P1 2.280324 1_555
O0 P0 2.310606 1_554
O3 P1 1.075867 1_555
O4 O6 1.633643 1_556
O4 P0 2.280324 1_555
O4 P1 2.310606 1_556
O5 P0 1.075867 1_555
O6 P1 2.004606 1_555
O7 P0 2.004606 1_555
F0 O6 1.782102 1_555
F0 O0 2.061739 1_455
F0 Mn0 2.455555 1_565
F1 O7 1.782102 1_555
F1 O4 2.061739 1_655
F1 Mn0 2.455555 1_656
