# generated using pymatgen
data_RbAcTe2
_symmetry_space_group_name_H-M   'P 1'
_cell_length_a   5.87175656
_cell_length_b   5.87175656
_cell_length_c   5.87175656
_cell_angle_alpha   60.00000000
_cell_angle_beta   60.00000000
_cell_angle_gamma   60.00000000
_symmetry_Int_Tables_number   1
_chemical_formula_structural   RbAcTe2
_chemical_formula_sum   'Rb1 Ac1 Te2'
_cell_volume   143.14926643
_cell_formula_units_Z   1
loop_
 _symmetry_equiv_pos_site_id
 _symmetry_equiv_pos_as_xyz
  1  'x, y, z'
loop_
 _atom_site_type_symbol
 _atom_site_label
 _atom_site_symmetry_multiplicity
 _atom_site_fract_x
 _atom_site_fract_y
 _atom_site_fract_z
 _atom_site_occupancy
  Rb  Rb0  1  0.74999900  0.74999900  0.74999900  1
  Ac  Ac0  1  0.24999900  0.24999900  0.24999900  1
  Te  Te0  1  0.00000000  0.00000000  0.00000000  1
  Te  Te1  1  0.50000000  0.50000000  0.50000000  1
loop_
_geom_bond_atom_site_label_1
_geom_bond_atom_site_label_2
_geom_bond_distance
_geom_bond_site_symmetry_2
Rb0 Te1 3.595687 1_555
Rb0 Te0 3.595697 1_656
Rb0 Te0 3.595697 1_566
Rb0 Te0 3.595697 1_665
Rb0 Te1 3.595707 1_565
Rb0 Te1 3.595707 1_655
Rb0 Te1 3.595707 1_556
Rb0 Te0 3.595716 1_666
Ac0 Te0 3.595687 1_555
Ac0 Te1 3.595697 1_455
Ac0 Te1 3.595697 1_545
Ac0 Te1 3.595697 1_554
Ac0 Te0 3.595707 1_556
Ac0 Te0 3.595707 1_655
Ac0 Te0 3.595707 1_565
Ac0 Te1 3.595716 1_555
