# generated using pymatgen
data_NaErSe2
_symmetry_space_group_name_H-M   'P 1'
_cell_length_a   7.31078453
_cell_length_b   7.31078483
_cell_length_c   7.31078507
_cell_angle_alpha   32.41874865
_cell_angle_beta   32.41874180
_cell_angle_gamma   32.41874582
_symmetry_Int_Tables_number   1
_chemical_formula_structural   NaErSe2
_chemical_formula_sum   'Na1 Er1 Se2'
_cell_volume   99.84605682
_cell_formula_units_Z   1
loop_
 _symmetry_equiv_pos_site_id
 _symmetry_equiv_pos_as_xyz
  1  'x, y, z'
loop_
 _atom_site_type_symbol
 _atom_site_label
 _atom_site_symmetry_multiplicity
 _atom_site_fract_x
 _atom_site_fract_y
 _atom_site_fract_z
 _atom_site_occupancy
  Na  Na0  1  0.50000000  0.50000000  0.50000000  1
  Er  Er0  1  0.00000000  -0.00000000  0.00000000  1
  Se  Se0  1  0.25701421  0.25701421  0.25701421  1
  Se  Se1  1  0.74298579  0.74298579  0.74298579  1
loop_
_geom_bond_atom_site_label_1
_geom_bond_atom_site_label_2
_geom_bond_distance
_geom_bond_site_symmetry_2
Na0 Se0 3.011915 1_655
Na0 Se1 3.011915 1_455
Na0 Se0 3.011916 1_565
Na0 Se1 3.011916 1_545
Na0 Se0 3.011916 1_556
Na0 Se1 3.011916 1_554
Er0 Se0 2.839684 1_455
Er0 Se1 2.839684 1_544
Er0 Se0 2.839685 1_554
Er0 Se1 2.839685 1_445
Er0 Se0 2.839685 1_545
Er0 Se1 2.839685 1_454
