# generated using pymatgen
data_K2Mn3P4(HO3)4
_symmetry_space_group_name_H-M   'P 1'
_cell_length_a   5.50735001
_cell_length_b   24.17528299
_cell_length_c   5.50734740
_cell_angle_alpha   90.00216842
_cell_angle_beta   120.00001555
_cell_angle_gamma   83.46465162
_symmetry_Int_Tables_number   1
_chemical_formula_structural   K2Mn3P4(HO3)4
_chemical_formula_sum   'K4 Mn6 P8 H8 O24'
_cell_volume   629.51368688
_cell_formula_units_Z   2
loop_
 _symmetry_equiv_pos_site_id
 _symmetry_equiv_pos_as_xyz
  1  'x, y, z'
loop_
 _atom_site_type_symbol
 _atom_site_label
 _atom_site_symmetry_multiplicity
 _atom_site_fract_x
 _atom_site_fract_y
 _atom_site_fract_z
 _atom_site_occupancy
  K  K0  1  0.18661900  0.21939700  0.59333700  1
  K  K1  1  0.18662200  0.71940100  0.09333500  1
  K  K2  1  0.81334000  0.28062800  0.90665500  1
  K  K3  1  0.81338400  0.78058200  0.40666900  1
  Mn  Mn0  1  0.91549000  0.62667700  0.45777800  1
  Mn  Mn1  1  0.08450500  0.37334900  0.54224000  1
  Mn  Mn2  1  0.08456300  0.87329300  0.04224400  1
  Mn  Mn3  1  0.00013700  0.99979400  0.00007100  1
  Mn  Mn4  1  0.00021500  0.49990100  0.50019400  1
  Mn  Mn5  1  0.91523800  0.12706800  0.95761400  1
  P  P0  1  0.30389500  0.04413800  0.65194600  1
  P  P1  1  0.30394500  0.54409700  0.15199100  1
  P  P2  1  0.69607700  0.45590000  0.84803900  1
  P  P3  1  0.69610100  0.95584200  0.34803100  1
  P  P4  1  0.55852700  0.16206200  0.27928400  1
  P  P5  1  0.55858100  0.66199800  0.77932000  1
  P  P6  1  0.44143600  0.33797600  0.22069200  1
  P  P7  1  0.44143000  0.83799000  0.72067900  1
  H  H0  1  0.65688000  0.01468600  0.32842800  1
  H  H1  1  0.65686200  0.51471200  0.82842400  1
  H  H2  1  0.34313100  0.48527300  0.17157800  1
  H  H3  1  0.34309200  0.98532700  0.67155500  1
  H  H4  1  0.59767300  0.10331200  0.29886400  1
  H  H5  1  0.59769900  0.60327400  0.79887800  1
  H  H6  1  0.40230300  0.39669700  0.20112700  1
  H  H7  1  0.40229500  0.89671500  0.70112000  1
  O  O0  1  0.13594000  0.06141700  0.80262000  1
  O  O1  1  0.13602000  0.56140700  0.30257900  1
  O  O2  1  0.13592700  0.06141300  0.33331500  1
  O  O3  1  0.13601400  0.56140400  0.83346600  1
  O  O4  1  0.60526500  0.06141900  0.80262900  1
  O  O5  1  0.60516800  0.56140700  0.30258900  1
  O  O6  1  0.39487000  0.43856800  0.69743500  1
  O  O7  1  0.39495800  0.93848800  0.19746900  1
  O  O8  1  0.86399100  0.43857300  0.16653100  1
  O  O9  1  0.86401500  0.93848800  0.66649700  1
  O  O10  1  0.86398200  0.43857000  0.69744000  1
  O  O11  1  0.86400900  0.93848600  0.19747100  1
  O  O12  1  0.70027700  0.18115800  0.58185400  1
  O  O13  1  0.70043200  0.68102800  0.08200300  1
  O  O14  1  0.70026000  0.18115100  0.11844400  1
  O  O15  1  0.70039800  0.68102300  0.61845500  1
  O  O16  1  0.23689300  0.18116400  0.11849000  1
  O  O17  1  0.23691000  0.68103900  0.61849700  1
  O  O18  1  0.76313900  0.31895000  0.38152900  1
  O  O19  1  0.76309700  0.81894300  0.88150100  1
  O  O20  1  0.29959600  0.31895900  0.38156600  1
  O  O21  1  0.29962600  0.81895200  0.88153200  1
  O  O22  1  0.29956500  0.31895600  0.91797500  1
  O  O23  1  0.29960100  0.81895000  0.41801700  1
loop_
_geom_bond_atom_site_label_1
_geom_bond_atom_site_label_2
_geom_bond_distance
_geom_bond_site_symmetry_2
K0 O12 2.902921 1_455
K0 O14 2.903091 1_455
K0 O16 2.904412 1_555
K0 O16 2.904645 1_556
K0 O14 2.905933 1_556
K0 O12 2.906000 1_555
K0 O18 2.931613 1_455
K0 O22 2.933401 1_555
K0 O20 2.933860 1_555
K1 O13 2.903867 1_455
K1 O15 2.904034 1_454
K1 O17 2.905365 1_554
K1 O17 2.905619 1_555
K1 O15 2.906960 1_555
K1 O13 2.907044 1_555
K1 O19 2.931543 1_454
K1 O23 2.933319 1_555
K1 O21 2.933799 1_554
K2 O22 2.903617 1_655
K2 O20 2.903717 1_656
K2 O18 2.905011 1_556
K2 O18 2.905343 1_555
K2 O20 2.906559 1_555
K2 O22 2.906601 1_555
K2 O16 2.930244 1_656
K2 O12 2.932037 1_555
K2 O14 2.932461 1_556
K3 O23 2.903918 1_655
K3 O21 2.903961 1_655
K3 O19 2.905323 1_555
K3 O19 2.905645 1_554
K3 O23 2.906923 1_555
K3 O21 2.906924 1_554
K3 O17 2.931564 1_655
K3 O13 2.933377 1_555
K3 O15 2.933865 1_555
Mn0 O15 2.146237 1_555
Mn0 O17 2.146339 1_655
Mn0 O13 2.146394 1_555
Mn0 O5 2.300922 1_555
Mn0 O3 2.301556 1_655
Mn0 O1 2.301578 1_655
Mn1 O18 2.146766 1_455
Mn1 O22 2.146800 1_555
Mn1 O20 2.146807 1_555
Mn1 O6 2.300123 1_555
Mn1 O10 2.300817 1_455
Mn1 O8 2.300888 1_455
Mn2 O21 2.146194 1_554
Mn2 O23 2.146280 1_555
Mn2 O19 2.146309 1_454
Mn2 O7 2.299781 1_555
Mn2 O9 2.300583 1_454
Mn2 O11 2.300597 1_455
Mn3 O11 2.238032 1_455
Mn3 O9 2.238090 1_454
Mn3 O7 2.238123 1_555
Mn3 O2 2.242211 1_565
Mn3 O0 2.242389 1_564
Mn3 O4 2.242569 1_464
Mn4 O6 2.237886 1_555
Mn4 O10 2.238245 1_455
Mn4 O8 2.238783 1_455
Mn4 O3 2.240343 1_555
Mn4 O1 2.240999 1_555
Mn4 O5 2.241606 1_455
Mn5 O16 2.142695 1_656
Mn5 O12 2.142877 1_555
Mn5 O14 2.142899 1_556
Mn5 O4 2.306770 1_555
Mn5 O0 2.307236 1_655
Mn5 O2 2.307389 1_656
H0 P3 1.410236 1_545
H1 P2 1.409469 1_555
H2 P1 1.409756 1_555
H3 P0 1.409445 1_565
H4 P4 1.407983 1_555
H5 P5 1.407360 1_555
H6 P6 1.407288 1_555
H7 P7 1.407384 1_555
O0 P0 1.548636 1_555
O1 P1 1.548254 1_555
O2 P0 1.548651 1_555
O3 P1 1.548320 1_556
O4 P0 1.548685 1_555
O5 P1 1.548284 1_555
O6 P2 1.548419 1_555
O7 P3 1.548334 1_555
O8 P2 1.548266 1_554
O9 P3 1.548279 1_555
O10 P2 1.548311 1_555
O11 P3 1.548273 1_555
O12 P4 1.542861 1_555
O13 P5 1.542807 1_554
O14 P4 1.542844 1_555
O15 P5 1.542789 1_555
O16 P4 1.542837 1_555
O17 P5 1.542757 1_555
O18 P6 1.542842 1_555
O19 P7 1.542763 1_555
O20 P6 1.542866 1_555
O21 P7 1.542787 1_555
O22 P6 1.542876 1_556
O23 P7 1.542798 1_555
