# generated using pymatgen
data_Na3AlAs2
_symmetry_space_group_name_H-M   'P 1'
_cell_length_a   6.15777552
_cell_length_b   6.92836949
_cell_length_c   8.20520843
_cell_angle_alpha   114.97315493
_cell_angle_beta   112.03888158
_cell_angle_gamma   89.99999748
_symmetry_Int_Tables_number   1
_chemical_formula_structural   Na3AlAs2
_chemical_formula_sum   'Na6 Al2 As4'
_cell_volume   288.86994956
_cell_formula_units_Z   2
loop_
 _symmetry_equiv_pos_site_id
 _symmetry_equiv_pos_as_xyz
  1  'x, y, z'
loop_
 _atom_site_type_symbol
 _atom_site_label
 _atom_site_symmetry_multiplicity
 _atom_site_fract_x
 _atom_site_fract_y
 _atom_site_fract_z
 _atom_site_occupancy
  Na  Na0  1  0.31059140  0.62463867  0.62118280  1
  Na  Na1  1  0.68940860  0.37536133  0.37881720  1
  Na  Na2  1  0.18940860  0.00345587  0.37881720  1
  Na  Na3  1  0.81059140  0.99654413  0.62118280  1
  Na  Na4  1  0.25000000  0.50000000  -0.00000000  1
  Na  Na5  1  0.75000000  0.50000000  -0.00000000  1
  Al  Al0  1  0.75000000  0.00000000  -0.00000000  1
  Al  Al1  1  0.25000000  0.00000000  -0.00000000  1
  As  As0  1  0.89649313  0.69453375  0.79298727  1
  As  As1  1  0.10350687  0.30546625  0.20701273  1
  As  As2  1  0.60350687  0.90154749  0.20701273  1
  As  As3  1  0.39649313  0.09845251  0.79298727  1
loop_
_geom_bond_atom_site_label_1
_geom_bond_atom_site_label_2
_geom_bond_distance
_geom_bond_site_symmetry_2
Al0 As2 2.508473 1_545
Al0 As0 2.508476 1_544
Al0 As3 2.508476 1_554
Al0 As1 2.508480 1_655
Al0 Na1 3.257091 1_555
Al0 Na0 3.257092 1_544
Al0 Na3 3.257092 1_544
Al0 Na2 3.257092 1_655
Al1 As3 2.508473 1_554
Al1 As1 2.508476 1_555
Al1 As2 2.508476 1_545
Al1 As0 2.508480 1_444
Al1 Na0 3.257091 1_544
Al1 Na1 3.257092 1_555
Al1 Na2 3.257092 1_555
Al1 Na3 3.257092 1_444
As0 Na1 2.909852 1_555
As0 Na3 2.928551 1_555
As0 Na5 2.932318 1_556
As0 Na4 2.932322 1_656
As0 Na0 3.293180 1_555
As0 Na0 3.293186 1_655
As1 Na0 2.909852 1_555
As1 Na2 2.928551 1_555
As1 Na4 2.932318 1_555
As1 Na5 2.932322 1_455
As1 Na1 3.293180 1_555
As1 Na1 3.293186 1_455
As2 Na3 2.909854 1_555
As2 Na1 2.928544 1_565
As2 Na5 2.932323 1_555
As2 Na4 2.932326 1_555
As2 Na2 3.293180 1_665
As2 Na2 3.293186 1_565
As3 Na2 2.909854 1_555
As3 Na0 2.928544 1_545
As3 Na4 2.932323 1_556
As3 Na5 2.932326 1_556
As3 Na3 3.293180 1_445
As3 Na3 3.293186 1_545
