# generated using pymatgen
data_LiVP3HO10
_symmetry_space_group_name_H-M   'P 1'
_cell_length_a   4.98739700
_cell_length_b   8.69685800
_cell_length_c   11.82642409
_cell_angle_alpha   53.83747255
_cell_angle_beta   90.00000000
_cell_angle_gamma   90.00000000
_symmetry_Int_Tables_number   1
_chemical_formula_structural   LiVP3HO10
_chemical_formula_sum   'Li2 V2 P6 H2 O20'
_cell_volume   414.14238891
_cell_formula_units_Z   2
loop_
 _symmetry_equiv_pos_site_id
 _symmetry_equiv_pos_as_xyz
  1  'x, y, z'
loop_
 _atom_site_type_symbol
 _atom_site_label
 _atom_site_symmetry_multiplicity
 _atom_site_fract_x
 _atom_site_fract_y
 _atom_site_fract_z
 _atom_site_occupancy
  Li  Li0  1  0.60403400  0.50000000  0.75000000  1
  Li  Li1  1  0.39596600  0.50000000  0.25000000  1
  V  V0  1  0.50000000  0.00000000  0.00000000  1
  V  V1  1  0.50000000  0.00000000  0.50000000  1
  P  P0  1  0.00797700  0.73457800  0.53052500  1
  P  P1  1  0.76201200  0.00000000  0.25000000  1
  P  P2  1  0.00797700  0.26542200  0.96947500  1
  P  P3  1  0.99202300  0.73457800  0.03052500  1
  P  P4  1  0.23798800  0.00000000  0.75000000  1
  P  P5  1  0.99202300  0.26542200  0.46947500  1
  H  H0  1  0.00000000  0.50000000  0.50000000  1
  H  H1  1  0.00000000  0.50000000  0.00000000  1
  O  O0  1  0.81825800  0.18899400  0.91265000  1
  O  O1  1  0.30522800  0.24295100  0.94947200  1
  O  O2  1  0.93581800  0.52872700  0.58649200  1
  O  O3  1  0.93581800  0.47127300  0.91350800  1
  O  O4  1  0.59600800  0.91450600  0.19259800  1
  O  O5  1  0.96785500  0.84931200  0.36286200  1
  O  O6  1  0.30522800  0.75704900  0.55052800  1
  O  O7  1  0.81825800  0.81100600  0.58735000  1
  O  O8  1  0.96785500  0.15068800  0.13713800  1
  O  O9  1  0.59600800  0.08549400  0.30740200  1
  O  O10  1  0.40399200  0.91450600  0.69259800  1
  O  O11  1  0.03214500  0.84931200  0.86286200  1
  O  O12  1  0.18174200  0.18899400  0.41265000  1
  O  O13  1  0.69477200  0.24295100  0.44947200  1
  O  O14  1  0.03214500  0.15068800  0.63713800  1
  O  O15  1  0.40399200  0.08549400  0.80740200  1
  O  O16  1  0.06418200  0.52872700  0.08649200  1
  O  O17  1  0.06418200  0.47127300  0.41350800  1
  O  O18  1  0.69477200  0.75704900  0.05052800  1
  O  O19  1  0.18174200  0.81100600  0.08735000  1
loop_
_geom_bond_atom_site_label_1
_geom_bond_atom_site_label_2
_geom_bond_distance
_geom_bond_site_symmetry_2
Li0 O2 2.443294 1_555
Li0 O3 2.443294 1_555
Li0 O7 2.453020 1_555
Li0 O0 2.453020 1_555
Li0 O6 2.561199 1_555
Li0 O1 2.561199 1_555
Li1 O17 2.443294 1_555
Li1 O16 2.443294 1_555
Li1 O12 2.453020 1_555
Li1 O19 2.453020 1_555
Li1 O13 2.561199 1_555
Li1 O18 2.561199 1_555
H0 O2 1.229952 1_455
H0 O17 1.229952 1_555
H1 O16 1.229952 1_555
H1 O3 1.229952 1_454
O0 P2 1.521810 1_655
O0 V0 2.069871 1_556
O1 P2 1.531844 1_555
O1 V0 2.067616 1_556
O2 P0 1.540846 1_655
O3 P2 1.540846 1_655
O4 P1 1.514872 1_565
O4 V0 1.992878 1_565
O5 P1 1.577536 1_565
O5 P0 1.622473 1_655
O6 P0 1.531844 1_555
O6 V1 2.067616 1_565
O7 P0 1.521810 1_655
O7 V1 2.069871 1_565
O8 P1 1.577536 1_555
O8 P2 1.622473 1_654
O9 P1 1.514872 1_555
O9 V1 1.992878 1_555
O10 P4 1.514872 1_565
O10 V1 1.992878 1_565
O11 P4 1.577536 1_565
O11 P3 1.622473 1_456
O12 P5 1.521810 1_455
O12 V1 2.069871 1_555
O13 P5 1.531844 1_555
O13 V1 2.067616 1_555
O14 P4 1.577536 1_555
O14 P5 1.622473 1_455
O15 P4 1.514872 1_555
O15 V0 1.992878 1_556
O16 P3 1.540846 1_455
O17 P5 1.540846 1_455
O18 P3 1.531844 1_555
O18 V0 2.067616 1_565
O19 P3 1.521810 1_455
O19 V0 2.069871 1_565
