# generated using pymatgen
data_K5As2Au
_symmetry_space_group_name_H-M   'P 1'
_cell_length_a   5.72640031
_cell_length_b   5.72639998
_cell_length_c   19.28521801
_cell_angle_alpha   90.00000000
_cell_angle_beta   90.00000000
_cell_angle_gamma   119.99999608
_symmetry_Int_Tables_number   1
_chemical_formula_structural   K5As2Au
_chemical_formula_sum   'K10 As4 Au2'
_cell_volume   547.66953792
_cell_formula_units_Z   2
loop_
 _symmetry_equiv_pos_site_id
 _symmetry_equiv_pos_as_xyz
  1  'x, y, z'
loop_
 _atom_site_type_symbol
 _atom_site_label
 _atom_site_symmetry_multiplicity
 _atom_site_fract_x
 _atom_site_fract_y
 _atom_site_fract_z
 _atom_site_occupancy
  K  K0  1  0.33333300  0.66666700  0.54943153  1
  K  K1  1  0.66666700  0.33333300  0.04943153  1
  K  K2  1  0.66666700  0.33333300  0.45056847  1
  K  K3  1  0.33333300  0.66666700  0.95056847  1
  K  K4  1  0.00000000  -0.00000000  0.14729740  1
  K  K5  1  -0.00000000  0.00000000  0.64729740  1
  K  K6  1  -0.00000000  -0.00000000  0.85270260  1
  K  K7  1  0.00000000  -0.00000000  0.35270260  1
  K  K8  1  0.33333300  0.66666700  0.75000000  1
  K  K9  1  0.66666700  0.33333300  0.25000000  1
  As  As0  1  0.33333300  0.66666700  0.12088805  1
  As  As1  1  0.66666700  0.33333300  0.62088805  1
  As  As2  1  0.33333300  0.66666700  0.37911195  1
  As  As3  1  0.66666700  0.33333300  0.87911195  1
  Au  Au0  1  0.66666700  0.33333300  0.75000000  1
  Au  Au1  1  0.33333300  0.66666700  0.25000000  1
loop_
_geom_bond_atom_site_label_1
_geom_bond_atom_site_label_2
_geom_bond_distance
_geom_bond_site_symmetry_2
As0 Au1 2.489952 1_555
As0 K3 3.284650 1_554
As0 K4 3.345135 1_565
As0 K4 3.345140 1_555
As0 K4 3.345140 1_665
As0 K1 3.581838 1_565
As0 K1 3.581838 1_455
As0 K1 3.581847 1_555
As1 Au0 2.489952 1_555
As1 K2 3.284650 1_555
As1 K5 3.345135 1_655
As1 K5 3.345140 1_665
As1 K5 3.345140 1_555
As1 K0 3.581838 1_545
As1 K0 3.581838 1_655
As1 K0 3.581847 1_555
As2 Au1 2.489952 1_555
As2 K0 3.284650 1_555
As2 K7 3.345135 1_565
As2 K7 3.345140 1_555
As2 K7 3.345140 1_665
As2 K2 3.581838 1_565
As2 K2 3.581838 1_455
As2 K2 3.581847 1_555
As3 Au0 2.489952 1_555
As3 K1 3.284650 1_556
As3 K6 3.345135 1_655
As3 K6 3.345140 1_665
As3 K6 3.345140 1_555
As3 K3 3.581838 1_545
As3 K3 3.581838 1_655
As3 K3 3.581847 1_555
Au0 K8 3.306135 1_545
Au0 K8 3.306136 1_655
Au0 K8 3.306145 1_555
Au1 K9 3.306135 1_565
Au1 K9 3.306136 1_455
Au1 K9 3.306145 1_555
