# generated using pymatgen
data_PaZnRu2
_symmetry_space_group_name_H-M   'P 1'
_cell_length_a   4.55942168
_cell_length_b   4.55942168
_cell_length_c   4.55942168
_cell_angle_alpha   60.00000000
_cell_angle_beta   60.00000000
_cell_angle_gamma   60.00000000
_symmetry_Int_Tables_number   1
_chemical_formula_structural   PaZnRu2
_chemical_formula_sum   'Pa1 Zn1 Ru2'
_cell_volume   67.02152149
_cell_formula_units_Z   1
loop_
 _symmetry_equiv_pos_site_id
 _symmetry_equiv_pos_as_xyz
  1  'x, y, z'
loop_
 _atom_site_type_symbol
 _atom_site_label
 _atom_site_symmetry_multiplicity
 _atom_site_fract_x
 _atom_site_fract_y
 _atom_site_fract_z
 _atom_site_occupancy
  Pa  Pa0  1  0.25000000  0.25000000  0.25000000  1
  Zn  Zn0  1  0.74999900  0.74999900  0.74999900  1
  Ru  Ru0  1  -0.00000000  -0.00000000  -0.00000000  1
  Ru  Ru1  1  0.50000000  0.50000000  0.50000000  1
loop_
_geom_bond_atom_site_label_1
_geom_bond_atom_site_label_2
_geom_bond_distance
_geom_bond_site_symmetry_2
Pa0 Ru0 2.792064 1_565
Pa0 Ru1 2.792064 1_455
Pa0 Ru0 2.792064 1_655
Pa0 Ru1 2.792064 1_545
Pa0 Ru0 2.792064 1_556
Pa0 Ru1 2.792064 1_555
Pa0 Ru1 2.792064 1_554
Pa0 Ru0 2.792064 1_555
Ru0 Zn0 2.792060 1_544
Ru0 Zn0 2.792060 1_445
Ru0 Zn0 2.792060 1_454
Ru0 Zn0 2.792075 1_444
Ru1 Zn0 2.792053 1_555
Ru1 Zn0 2.792068 1_554
Ru1 Zn0 2.792068 1_455
Ru1 Zn0 2.792068 1_545
