# generated using pymatgen
data_Li3Cr3GaO8
_symmetry_space_group_name_H-M   'P 1'
_cell_length_a   5.18233800
_cell_length_b   5.91950379
_cell_length_c   10.63268304
_cell_angle_alpha   105.77395059
_cell_angle_beta   94.69765241
_cell_angle_gamma   107.14899174
_symmetry_Int_Tables_number   1
_chemical_formula_structural   Li3Cr3GaO8
_chemical_formula_sum   'Li6 Cr6 Ga2 O16'
_cell_volume   295.24451600
_cell_formula_units_Z   2
loop_
 _symmetry_equiv_pos_site_id
 _symmetry_equiv_pos_as_xyz
  1  'x, y, z'
loop_
 _atom_site_type_symbol
 _atom_site_label
 _atom_site_symmetry_multiplicity
 _atom_site_fract_x
 _atom_site_fract_y
 _atom_site_fract_z
 _atom_site_occupancy
  Li  Li0  1  0.99296600  0.48524800  0.00123700  1
  Li  Li1  1  0.50970600  0.12796000  0.74683600  1
  Li  Li2  1  0.99408100  0.24538800  0.50181600  1
  Li  Li3  1  0.50441500  0.37891200  0.24909800  1
  Li  Li4  1  0.99361700  0.00736300  0.00319600  1
  Li  Li5  1  0.99596100  0.74955200  0.50122100  1
  Cr  Cr0  1  0.74204600  0.80919900  0.87438000  1
  Cr  Cr1  1  0.74901900  0.31636500  0.87277300  1
  Cr  Cr2  1  0.75165100  0.56356900  0.37432000  1
  Cr  Cr3  1  0.25969000  0.69076800  0.12546600  1
  Cr  Cr4  1  0.26209200  0.44186400  0.62585600  1
  Cr  Cr5  1  0.74011000  0.06035900  0.37271800  1
  Ga  Ga0  1  0.24672500  0.93522300  0.62575000  1
  Ga  Ga1  1  0.24889200  0.17711600  0.12905800  1
  O  O0  1  0.40005500  0.90541300  0.93813700  1
  O  O1  1  0.39769900  0.41260900  0.94302700  1
  O  O2  1  0.90592900  0.04281300  0.69035300  1
  O  O3  1  0.91315200  0.78280100  0.18729200  1
  O  O4  1  0.91672500  0.53728000  0.68540700  1
  O  O5  1  0.39290100  0.15825400  0.43861100  1
  O  O6  1  0.90192400  0.28679500  0.19253500  1
  O  O7  1  0.40668200  0.66526900  0.44098400  1
  O  O8  1  0.60759900  0.33877000  0.56085900  1
  O  O9  1  0.08279400  0.72111200  0.81352800  1
  O  O10  1  0.07723000  0.19038800  0.81615200  1
  O  O11  1  0.07889100  0.44065600  0.31614900  1
  O  O12  1  0.61760300  0.86229300  0.54858500  1
  O  O13  1  0.61111300  0.59513200  0.05691300  1
  O  O14  1  0.08644500  0.97043600  0.31347500  1
  O  O15  1  0.61249800  0.10136900  0.05415000  1
loop_
_geom_bond_atom_site_label_1
_geom_bond_atom_site_label_2
_geom_bond_distance
_geom_bond_site_symmetry_2
Li0 O13 2.330484 1_555
Li0 O1 2.359472 1_654
Li0 O10 2.415111 1_654
Li0 O3 2.419966 1_555
Li1 O2 2.340675 1_555
Li1 O12 2.477601 1_545
Li1 O10 2.512728 1_555
Li1 O8 2.618671 1_555
Li2 O8 2.319781 1_555
Li2 O5 2.378473 1_655
Li2 O4 2.378995 1_555
Li3 O6 2.364278 1_555
Li3 O15 2.488140 1_555
Li3 O13 2.703568 1_555
Li4 O15 2.272367 1_555
Li4 O10 2.520430 1_654
Li4 O3 2.644607 1_545
Li5 O12 2.300946 1_555
Li5 O7 2.421864 1_655
Li5 O4 2.597723 1_555
Cr0 Li4 1.698181 1_566
Cr0 O9 2.086994 1_655
Cr0 O0 2.123009 1_555
Cr0 O15 2.488591 1_566
Cr0 O4 2.616567 1_555
Cr0 O13 2.622721 1_556
Cr1 Li1 1.635649 1_555
Cr1 Li0 1.640981 1_556
Cr1 O10 2.117366 1_655
Cr1 O1 2.190991 1_555
Cr1 O13 2.497052 1_556
Cr1 O15 2.620373 1_556
Cr1 O4 2.732052 1_555
Cr2 Li3 1.646997 1_555
Cr2 Li5 1.651122 1_555
Cr2 O11 2.107768 1_655
Cr2 O7 2.161276 1_555
Cr2 O8 2.711759 1_555
Cr2 O3 2.715583 1_555
Cr3 Li0 1.723663 1_455
Cr3 O3 2.128318 1_455
Cr3 O13 2.183945 1_555
Cr4 Li2 1.713065 1_455
Cr4 O4 2.123839 1_455
Cr4 O8 2.161900 1_555
Cr5 Li2 1.688988 1_555
Cr5 O14 2.113722 1_645
Cr5 O5 2.159862 1_555
Cr5 O12 2.494364 1_545
Cr5 O8 2.507871 1_555
Cr5 O3 2.605392 1_545
Ga0 Li5 1.653672 1_455
Ga0 Li1 1.677399 1_565
Ga0 O2 2.149606 1_465
Ga0 O12 2.260249 1_555
Ga1 Li4 1.657025 1_455
Ga1 Li3 1.664607 1_555
Ga1 O6 2.181563 1_455
Ga1 O15 2.221718 1_555
O0 O15 1.525033 1_566
O1 O13 1.490473 1_556
O1 O10 1.920503 1_555
O4 O9 1.493431 1_655
O4 O8 1.843165 1_555
O5 O8 1.541484 1_555
O10 O2 1.432909 1_455
O11 O6 1.434315 1_455
O12 O7 1.477115 1_555
O12 O2 1.860226 1_565
O13 O3 1.840598 1_555
O14 O3 1.498153 1_455
O14 O5 1.826747 1_565
O15 O6 1.846371 1_555
