# generated using pymatgen
data_Gd3Ni19B10
_symmetry_space_group_name_H-M   'P 1'
_cell_length_a   7.87032094
_cell_length_b   7.87032094
_cell_length_c   5.75661295
_cell_angle_alpha   88.82989445
_cell_angle_beta   88.82989445
_cell_angle_gamma   67.17898785
_symmetry_Int_Tables_number   1
_chemical_formula_structural   Gd3Ni19B10
_chemical_formula_sum   'Gd3 Ni19 B10'
_cell_volume   328.56466425
_cell_formula_units_Z   1
loop_
 _symmetry_equiv_pos_site_id
 _symmetry_equiv_pos_as_xyz
  1  'x, y, z'
loop_
 _atom_site_type_symbol
 _atom_site_label
 _atom_site_symmetry_multiplicity
 _atom_site_fract_x
 _atom_site_fract_y
 _atom_site_fract_z
 _atom_site_occupancy
  Gd  Gd0  1  0.37442000  0.37442000  0.88796900  1
  Gd  Gd1  1  0.62558000  0.62558000  0.11203100  1
  Gd  Gd2  1  0.00000000  0.00000000  0.50000000  1
  Ni  Ni0  1  0.00000000  0.00000000  0.00000000  1
  Ni  Ni1  1  0.37865300  0.87826900  0.42620900  1
  Ni  Ni2  1  0.12173100  0.62134700  0.57379100  1
  Ni  Ni3  1  0.62134700  0.12173100  0.57379100  1
  Ni  Ni4  1  0.87826900  0.37865300  0.42620900  1
  Ni  Ni5  1  0.71219500  0.22912100  0.19894400  1
  Ni  Ni6  1  0.77087900  0.28780500  0.80105600  1
  Ni  Ni7  1  0.28780500  0.77087900  0.80105600  1
  Ni  Ni8  1  0.22912100  0.71219500  0.19894400  1
  Ni  Ni9  1  0.81728800  0.81728800  0.77128600  1
  Ni  Ni10  1  0.18271200  0.18271200  0.22871400  1
  Ni  Ni11  1  0.04485500  0.51836800  0.19868200  1
  Ni  Ni12  1  0.48163200  0.95514500  0.80131800  1
  Ni  Ni13  1  0.95514500  0.48163200  0.80131800  1
  Ni  Ni14  1  0.51836800  0.04485500  0.19868200  1
  Ni  Ni15  1  0.37806900  0.37806900  0.37631900  1
  Ni  Ni16  1  0.62193100  0.62193100  0.62368100  1
  Ni  Ni17  1  0.83715500  0.83715500  0.20156200  1
  Ni  Ni18  1  0.16284500  0.16284500  0.79843800  1
  B  B0  1  0.65200400  0.85712100  0.47523900  1
  B  B1  1  0.14287900  0.34799600  0.52476100  1
  B  B2  1  0.61681700  0.38318300  0.50000000  1
  B  B3  1  0.38318300  0.61681700  0.50000000  1
  B  B4  1  0.85712100  0.65200400  0.47523900  1
  B  B5  1  0.34799600  0.14287900  0.52476100  1
  B  B6  1  0.70010600  0.06357400  0.93149500  1
  B  B7  1  0.93642600  0.29989400  0.06850500  1
  B  B8  1  0.29989400  0.93642600  0.06850500  1
  B  B9  1  0.06357400  0.70010600  0.93149500  1
loop_
_geom_bond_atom_site_label_1
_geom_bond_atom_site_label_2
_geom_bond_distance
_geom_bond_site_symmetry_2
Gd0 Ni15 2.812822 1_556
Gd0 Ni2 2.829882 1_555
Gd0 Ni3 2.829882 1_555
Gd0 Ni18 2.834101 1_555
Gd0 Ni15 2.944587 1_555
Gd0 Ni7 2.958251 1_555
Gd0 Ni6 2.958251 1_555
Gd0 Ni14 2.970577 1_556
Gd0 Ni11 2.970577 1_556
Gd0 Ni5 3.054843 1_556
Gd0 Ni8 3.054843 1_556
Gd0 Ni12 3.120874 1_545
Gd0 Ni13 3.120874 1_455
Gd0 Ni10 3.150356 1_556
Gd1 Ni16 2.812822 1_554
Gd1 Ni4 2.829882 1_555
Gd1 Ni1 2.829882 1_555
Gd1 Ni17 2.834101 1_555
Gd1 Ni16 2.944587 1_555
Gd1 Ni5 2.958251 1_555
Gd1 Ni8 2.958251 1_555
Gd1 Ni12 2.970577 1_554
Gd1 Ni13 2.970577 1_554
Gd1 Ni6 3.054843 1_554
Gd1 Ni7 3.054843 1_554
Gd1 Ni11 3.120874 1_655
Gd1 Ni14 3.120874 1_565
Gd1 Ni9 3.150356 1_554
Gd2 Ni18 2.773220 1_555
Gd2 Ni17 2.773220 1_445
Gd2 Ni2 2.780218 1_545
Gd2 Ni4 2.780218 1_455
Gd2 Ni3 2.780218 1_455
Gd2 Ni1 2.780218 1_545
Gd2 Ni9 2.827575 1_445
Gd2 Ni10 2.827575 1_555
Gd2 Ni6 2.872324 1_455
Gd2 Ni5 2.872324 1_455
Gd2 Ni8 2.872324 1_545
Gd2 Ni7 2.872324 1_545
Gd2 Ni0 2.878306 1_556
Gd2 Ni0 2.878306 1_555
Ni0 Ni18 2.405048 1_554
Ni0 Ni17 2.405048 1_445
Ni1 Ni14 2.373387 1_565
Ni1 Ni12 2.488170 1_555
Ni10 Ni11 2.439554 1_555
Ni10 Ni14 2.439554 1_555
Ni10 Ni18 2.496936 1_554
Ni11 Ni4 2.373387 1_455
Ni11 Ni17 2.405504 1_455
Ni11 Ni13 2.462913 1_454
Ni11 Ni8 2.479224 1_555
Ni11 Ni2 2.488170 1_555
Ni11 Ni15 2.638105 1_555
Ni12 Ni3 2.373387 1_565
Ni12 Ni18 2.405504 1_565
Ni12 Ni9 2.439554 1_555
Ni12 Ni14 2.462913 1_566
Ni12 Ni7 2.479224 1_555
Ni12 Ni16 2.638105 1_555
Ni13 Ni2 2.373387 1_655
Ni13 Ni18 2.405504 1_655
Ni13 Ni9 2.439554 1_555
Ni13 Ni6 2.479224 1_555
Ni13 Ni4 2.488170 1_555
Ni13 Ni16 2.638105 1_555
Ni14 Ni17 2.405504 1_545
Ni14 Ni5 2.479224 1_555
Ni14 Ni3 2.488170 1_555
Ni14 Ni15 2.638105 1_555
Ni17 Ni9 2.496936 1_554
B0 B4 1.786227 1_555
B0 Ni17 2.090190 1_555
B0 Ni3 2.090464 1_565
B0 Ni9 2.108847 1_555
B0 Ni16 2.116480 1_555
B0 Ni1 2.116798 1_555
B0 Ni14 2.142595 1_565
B0 Ni12 2.251799 1_555
B0 Gd1 2.864092 1_555
B1 B5 1.786227 1_555
B1 Ni18 2.090190 1_555
B1 Ni4 2.090464 1_455
B1 Ni10 2.108847 1_555
B1 Ni15 2.116480 1_555
B1 Ni2 2.116798 1_555
B1 Ni13 2.142595 1_455
B1 Ni11 2.251799 1_555
B1 Gd0 2.864092 1_555
B2 B3 2.034563 1_555
B2 Ni15 2.038074 1_555
B2 Ni16 2.038074 1_555
B2 Ni3 2.079399 1_555
B2 Ni4 2.079399 1_555
B2 Ni5 2.088982 1_555
B2 Ni6 2.088982 1_555
B2 Gd0 2.924724 1_555
B2 Gd1 2.924724 1_555
B3 Ni15 2.038074 1_555
B3 Ni16 2.038074 1_555
B3 Ni2 2.079399 1_555
B3 Ni1 2.079399 1_555
B3 Ni7 2.088982 1_555
B3 Ni8 2.088982 1_555
B3 Gd0 2.924724 1_555
B3 Gd1 2.924724 1_555
B4 Ni17 2.090190 1_555
B4 Ni2 2.090464 1_655
B4 Ni9 2.108847 1_555
B4 Ni16 2.116480 1_555
B4 Ni4 2.116798 1_555
B4 Ni11 2.142595 1_655
B4 Ni13 2.251799 1_555
B4 Gd1 2.864092 1_555
B5 Ni18 2.090190 1_555
B5 Ni1 2.090464 1_545
B5 Ni10 2.108847 1_555
B5 Ni15 2.116480 1_555
B5 Ni3 2.116798 1_555
B5 Ni12 2.142595 1_545
B5 Ni14 2.251799 1_555
B5 Gd0 2.864092 1_555
B6 Ni9 2.027289 1_545
B6 Ni5 2.064234 1_556
B6 Ni14 2.120766 1_556
B6 Ni3 2.151147 1_555
B6 Ni6 2.163286 1_555
B6 Ni0 2.256233 1_656
B6 Ni17 2.284792 1_546
B6 Ni12 2.337375 1_545
B6 Gd0 2.784784 1_555
B7 Ni10 2.027289 1_655
B7 Ni6 2.064234 1_554
B7 Ni13 2.120766 1_554
B7 Ni4 2.151147 1_555
B7 Ni5 2.163286 1_555
B7 Ni0 2.256233 1_655
B7 Ni18 2.284792 1_654
B7 Ni11 2.337375 1_655
B7 Gd1 2.784784 1_555
B8 Ni10 2.027289 1_565
B8 Ni7 2.064234 1_554
B8 Ni12 2.120766 1_554
B8 Ni1 2.151147 1_555
B8 Ni8 2.163286 1_555
B8 Ni0 2.256233 1_565
B8 Ni18 2.284792 1_564
B8 Ni14 2.337375 1_565
B8 Gd1 2.784784 1_555
B9 Ni9 2.027289 1_455
B9 Ni8 2.064234 1_556
B9 Ni11 2.120766 1_556
B9 Ni2 2.151147 1_555
B9 Ni7 2.163286 1_555
B9 Ni0 2.256233 1_566
B9 Ni17 2.284792 1_456
B9 Ni13 2.337375 1_455
B9 Gd0 2.784784 1_555
