# generated using pymatgen
data_Yb4MgPd
_symmetry_space_group_name_H-M   'P 1'
_cell_length_a   10.12595437
_cell_length_b   10.12595437
_cell_length_c   10.12595437
_cell_angle_alpha   60.00000000
_cell_angle_beta   60.00000000
_cell_angle_gamma   60.00000000
_symmetry_Int_Tables_number   1
_chemical_formula_structural   Yb4MgPd
_chemical_formula_sum   'Yb16 Mg4 Pd4'
_cell_volume   734.16368750
_cell_formula_units_Z   4
loop_
 _symmetry_equiv_pos_site_id
 _symmetry_equiv_pos_as_xyz
  1  'x, y, z'
loop_
 _atom_site_type_symbol
 _atom_site_label
 _atom_site_symmetry_multiplicity
 _atom_site_fract_x
 _atom_site_fract_y
 _atom_site_fract_z
 _atom_site_occupancy
  Yb  Yb0  1  0.69433500  0.69433500  0.30566500  1
  Yb  Yb1  1  0.30566500  0.69433500  0.30566500  1
  Yb  Yb2  1  0.69433500  0.30566500  0.30566500  1
  Yb  Yb3  1  0.30566500  0.30566500  0.69433500  1
  Yb  Yb4  1  0.69433500  0.30566500  0.69433500  1
  Yb  Yb5  1  0.30566500  0.69433500  0.69433500  1
  Yb  Yb6  1  0.05835000  0.05835000  0.44165000  1
  Yb  Yb7  1  0.44165000  0.05835000  0.44165000  1
  Yb  Yb8  1  0.05835000  0.44165000  0.44165000  1
  Yb  Yb9  1  0.44165000  0.44165000  0.05835000  1
  Yb  Yb10  1  0.05835000  0.44165000  0.05835000  1
  Yb  Yb11  1  0.44165000  0.05835000  0.05835000  1
  Yb  Yb12  1  0.90645300  0.90645300  0.28064200  1
  Yb  Yb13  1  0.90645300  0.28064200  0.90645300  1
  Yb  Yb14  1  0.28064200  0.90645300  0.90645300  1
  Yb  Yb15  1  0.90645300  0.90645300  0.90645300  1
  Mg  Mg0  1  0.67179000  0.67179000  0.98463000  1
  Mg  Mg1  1  0.67179000  0.98463000  0.67179000  1
  Mg  Mg2  1  0.98463000  0.67179000  0.67179000  1
  Mg  Mg3  1  0.67179000  0.67179000  0.67179000  1
  Pd  Pd0  1  0.11020600  0.11020600  0.66938200  1
  Pd  Pd1  1  0.11020600  0.66938200  0.11020600  1
  Pd  Pd2  1  0.66938200  0.11020600  0.11020600  1
  Pd  Pd3  1  0.11020600  0.11020600  0.11020600  1
loop_
_geom_bond_atom_site_label_1
_geom_bond_atom_site_label_2
_geom_bond_distance
_geom_bond_site_symmetry_2
Mg0 Mg3 3.167804 1_555
Mg0 Mg2 3.167804 1_555
Mg0 Mg1 3.167804 1_555
Mg0 Yb1 3.494023 1_556
Mg0 Yb2 3.494023 1_556
Mg0 Yb0 3.494023 1_556
Mg0 Yb10 3.656522 1_656
Mg0 Yb11 3.656522 1_566
Mg0 Yb9 3.656522 1_556
Mg0 Yb14 3.715283 1_555
Mg0 Yb13 3.715283 1_555
Mg0 Yb15 3.715291 1_555
Mg1 Mg3 3.167804 1_555
Mg1 Mg2 3.167804 1_555
Mg1 Yb3 3.494023 1_565
Mg1 Yb2 3.494023 1_565
Mg1 Yb4 3.494023 1_565
Mg1 Yb11 3.656522 1_566
Mg1 Yb6 3.656522 1_665
Mg1 Yb7 3.656522 1_565
Mg1 Yb14 3.715283 1_555
Mg1 Yb12 3.715283 1_555
Mg1 Yb15 3.715291 1_555
Mg2 Mg3 3.167804 1_555
Mg2 Yb1 3.494023 1_655
Mg2 Yb3 3.494023 1_655
Mg2 Yb5 3.494023 1_655
Mg2 Yb10 3.656522 1_656
Mg2 Yb6 3.656522 1_665
Mg2 Yb8 3.656522 1_655
Mg2 Yb13 3.715283 1_555
Mg2 Yb12 3.715283 1_555
Mg2 Yb15 3.715291 1_555
Mg3 Yb4 3.494023 1_555
Mg3 Yb5 3.494023 1_555
Mg3 Yb0 3.494023 1_555
Mg3 Yb7 3.656522 1_565
Mg3 Yb8 3.656522 1_655
Mg3 Yb9 3.656522 1_556
Mg3 Yb14 3.715287 1_555
Mg3 Yb13 3.715287 1_555
Mg3 Yb12 3.715287 1_555
Pd0 Yb7 2.926866 1_555
Pd0 Yb8 2.926866 1_555
Pd0 Yb6 2.926866 1_555
Pd0 Yb15 2.937237 1_445
Pd0 Yb14 2.937243 1_545
Pd0 Yb13 2.937243 1_455
Pd0 Yb5 3.579921 1_545
Pd0 Yb4 3.579921 1_455
Pd0 Yb3 3.579921 1_555
Pd1 Yb9 2.926866 1_555
Pd1 Yb8 2.926866 1_555
Pd1 Yb10 2.926866 1_555
Pd1 Yb15 2.937237 1_454
Pd1 Yb14 2.937243 1_554
Pd1 Yb12 2.937243 1_455
Pd1 Yb5 3.579921 1_554
Pd1 Yb0 3.579921 1_455
Pd1 Yb1 3.579921 1_555
Pd2 Yb9 2.926866 1_555
Pd2 Yb7 2.926866 1_555
Pd2 Yb11 2.926866 1_555
Pd2 Yb15 2.937237 1_544
Pd2 Yb12 2.937243 1_545
Pd2 Yb13 2.937243 1_554
Pd2 Yb4 3.579921 1_554
Pd2 Yb0 3.579921 1_545
Pd2 Yb2 3.579921 1_555
Pd3 Yb10 2.926866 1_555
Pd3 Yb11 2.926866 1_555
Pd3 Yb6 2.926866 1_555
Pd3 Yb14 2.937235 1_544
Pd3 Yb13 2.937235 1_454
Pd3 Yb12 2.937235 1_445
Pd3 Yb2 3.579921 1_455
Pd3 Yb3 3.579921 1_554
Pd3 Yb1 3.579921 1_545
