# generated using pymatgen
data_Ba(PPd)2
_symmetry_space_group_name_H-M   'P 1'
_cell_length_a   4.28057233
_cell_length_b   4.28057233
_cell_length_c   5.75186133
_cell_angle_alpha   90.00000000
_cell_angle_beta   90.00000000
_cell_angle_gamma   90.00000000
_symmetry_Int_Tables_number   1
_chemical_formula_structural   Ba(PPd)2
_chemical_formula_sum   'Ba1 P2 Pd2'
_cell_volume   105.39307767
_cell_formula_units_Z   1
loop_
 _symmetry_equiv_pos_site_id
 _symmetry_equiv_pos_as_xyz
  1  'x, y, z'
loop_
 _atom_site_type_symbol
 _atom_site_label
 _atom_site_symmetry_multiplicity
 _atom_site_fract_x
 _atom_site_fract_y
 _atom_site_fract_z
 _atom_site_occupancy
  Ba  Ba0  1  0.00000000  0.00000000  0.00000000  1
  P  P0  1  0.50000000  0.50000000  0.70531936  1
  P  P1  1  0.50000000  0.50000000  0.29468064  1
  Pd  Pd0  1  0.50000000  0.00000000  0.50000000  1
  Pd  Pd1  1  0.00000000  0.50000000  0.50000000  1
loop_
_geom_bond_atom_site_label_1
_geom_bond_atom_site_label_2
_geom_bond_distance
_geom_bond_site_symmetry_2
Ba0 P1 3.469084 1_445
Ba0 P1 3.469084 1_555
Ba0 P1 3.469084 1_455
Ba0 P1 3.469084 1_545
Ba0 P0 3.469084 1_444
Ba0 P0 3.469084 1_454
Ba0 P0 3.469084 1_544
Ba0 P0 3.469084 1_554
Ba0 Pd1 3.584941 1_555
Ba0 Pd1 3.584941 1_554
Ba0 Pd0 3.584941 1_554
Ba0 Pd1 3.584941 1_545
Ba0 Pd0 3.584941 1_455
Ba0 Pd0 3.584941 1_454
Ba0 Pd1 3.584941 1_544
Ba0 Pd0 3.584941 1_555
P0 P1 2.361937 1_555
P0 Pd0 2.444486 1_555
P0 Pd0 2.444486 1_565
P0 Pd1 2.444486 1_655
P0 Pd1 2.444486 1_555
P1 Pd0 2.444486 1_555
P1 Pd0 2.444486 1_565
P1 Pd1 2.444486 1_655
P1 Pd1 2.444486 1_555
Pd0 Pd1 3.026822 1_655
Pd0 Pd1 3.026822 1_545
Pd0 Pd1 3.026822 1_645
Pd0 Pd1 3.026822 1_555
