# generated using pymatgen
data_W3O10
_symmetry_space_group_name_H-M   'P 1'
_cell_length_a   7.53977370
_cell_length_b   7.46758671
_cell_length_c   5.40143461
_cell_angle_alpha   69.62092980
_cell_angle_beta   68.19205979
_cell_angle_gamma   42.18701041
_symmetry_Int_Tables_number   1
_chemical_formula_structural   W3O10
_chemical_formula_sum   'W3 O10'
_cell_volume   188.31477645
_cell_formula_units_Z   1
loop_
 _symmetry_equiv_pos_site_id
 _symmetry_equiv_pos_as_xyz
  1  'x, y, z'
loop_
 _atom_site_type_symbol
 _atom_site_label
 _atom_site_symmetry_multiplicity
 _atom_site_fract_x
 _atom_site_fract_y
 _atom_site_fract_z
 _atom_site_occupancy
  W  W0  1  0.51718000  0.98282000  0.51718000  1
  W  W1  1  0.01718000  0.48282000  0.01718000  1
  W  W2  1  0.95186800  0.04813200  0.95186800  1
  O  O0  1  0.72155100  0.70693300  0.29306700  1
  O  O1  1  0.29306700  0.27844900  0.72155100  1
  O  O2  1  0.71164700  0.07542500  0.28248900  1
  O  O3  1  0.28248900  0.93043800  0.71164700  1
  O  O4  1  0.06956200  0.71751100  0.92457500  1
  O  O5  1  0.92457500  0.28835300  0.06956200  1
  O  O6  1  0.75617300  0.74382700  0.75617300  1
  O  O7  1  0.25617300  0.24382700  0.25617300  1
  O  O8  1  0.24093600  0.75906400  0.24093600  1
  O  O9  1  0.72760000  0.27240000  0.72760000  1
loop_
_geom_bond_atom_site_label_1
_geom_bond_atom_site_label_2
_geom_bond_distance
_geom_bond_site_symmetry_2
O0 W1 1.931525 1_655
O0 W0 1.931525 1_555
O1 W0 1.931525 1_545
O1 W1 1.931525 1_556
O2 W0 1.935486 1_545
O2 W2 1.953058 1_554
O3 W0 1.935491 1_555
O3 W2 1.953056 1_465
O4 W1 1.935492 1_556
O4 W2 1.953054 1_465
O5 W1 1.935484 1_655
O5 W2 1.953062 1_554
O6 W0 1.859201 1_555
O6 W1 2.030454 1_656
O7 W1 1.859201 1_555
O7 W0 2.030454 1_545
O8 W2 2.248750 1_464
O9 W2 1.744650 1_555
