# generated using pymatgen
data_LiLa8Cu3O16
_symmetry_space_group_name_H-M   'P 1'
_cell_length_a   7.09102500
_cell_length_b   7.57231323
_cell_length_c   8.45853599
_cell_angle_alpha   116.44042439
_cell_angle_beta   96.89403815
_cell_angle_gamma   105.59337669
_symmetry_Int_Tables_number   1
_chemical_formula_structural   LiLa8Cu3O16
_chemical_formula_sum   'Li1 La8 Cu3 O16'
_cell_volume   376.27170868
_cell_formula_units_Z   1
loop_
 _symmetry_equiv_pos_site_id
 _symmetry_equiv_pos_as_xyz
  1  'x, y, z'
loop_
 _atom_site_type_symbol
 _atom_site_label
 _atom_site_symmetry_multiplicity
 _atom_site_fract_x
 _atom_site_fract_y
 _atom_site_fract_z
 _atom_site_occupancy
  Li  Li0  1  0.00065400  0.74956200  0.50060600  1
  La  La0  1  0.27461900  0.84065800  0.32027200  1
  La  La1  1  0.72220200  0.16918900  0.67587500  1
  La  La2  1  0.27639600  0.32842200  0.32628000  1
  La  La3  1  0.27809100  0.59253000  0.81529600  1
  La  La4  1  0.27714900  0.09869900  0.81787900  1
  La  La5  1  0.72341000  0.65750900  0.68139300  1
  La  La6  1  0.72244300  0.90744400  0.18609100  1
  La  La7  1  0.72315200  0.40206500  0.18317500  1
  Cu  Cu0  1  0.00028700  0.24994800  0.50026500  1
  Cu  Cu1  1  0.00101900  0.49822600  0.00127900  1
  Cu  Cu2  1  0.99709600  0.00224500  0.99751100  1
  O  O0  1  0.99567500  0.63011300  0.24645800  1
  O  O1  1  0.62846200  0.29366500  0.41111900  1
  O  O2  1  0.00399800  0.12660800  0.24955100  1
  O  O3  1  0.00686900  0.49538700  0.50063500  1
  O  O4  1  0.63478700  0.80097400  0.40140100  1
  O  O5  1  0.63372300  0.54620800  0.90305900  1
  O  O6  1  0.62924600  0.05392300  0.89799600  1
  O  O7  1  0.36227900  0.70478700  0.59250800  1
  O  O8  1  0.99697700  0.37534100  0.74998600  1
  O  O9  1  0.99332900  0.00650400  0.49860200  1
  O  O10  1  0.99644600  0.74769800  0.00047100  1
  O  O11  1  0.99709800  0.24764700  0.00069200  1
  O  O12  1  0.36881600  0.21210200  0.58242300  1
  O  O13  1  0.37072300  0.45012600  0.08938000  1
  O  O14  1  0.36790800  0.95793700  0.08523600  1
  O  O15  1  0.00456700  0.87205500  0.75296500  1
loop_
_geom_bond_atom_site_label_1
_geom_bond_atom_site_label_2
_geom_bond_distance
_geom_bond_site_symmetry_2
Li0 O15 1.904292 1_555
Li0 O0 1.916690 1_455
Li0 O3 1.937112 1_555
Li0 O9 1.967743 1_465
La0 O0 1.991431 1_455
La0 O12 2.520819 1_565
La0 O14 2.598234 1_555
La0 O4 2.694332 1_555
La0 O7 2.976151 1_555
La0 O13 3.046892 1_555
La1 O8 1.956105 1_555
La1 O6 2.484885 1_555
La1 O4 2.551313 1_545
La1 O12 2.683431 1_555
La1 O1 2.864378 1_555
La1 O5 2.933204 1_555
La2 O2 1.927810 1_555
La2 O7 2.566430 1_555
La2 O1 2.628336 1_555
La2 O13 2.635703 1_555
La2 O12 2.751068 1_555
La2 O14 2.941275 1_545
La3 O8 2.036566 1_455
La3 O7 2.460474 1_555
La3 O14 2.520408 1_556
La3 O5 2.700294 1_555
La3 O12 2.973175 1_555
La3 O13 3.034880 1_556
La4 O15 2.026219 1_545
La4 O13 2.457303 1_556
La4 O12 2.580731 1_555
La4 O6 2.657329 1_555
La4 O14 2.971610 1_546
La4 O7 3.012676 1_545
La5 O15 2.018345 1_655
La5 O5 2.456756 1_555
La5 O1 2.508899 1_555
La5 O7 2.742523 1_555
La5 O4 3.079773 1_555
La6 O2 2.048533 1_665
La6 O4 2.379719 1_555
La6 O5 2.547753 1_554
La6 O14 2.736166 1_555
La6 O1 3.002549 1_565
La7 O0 2.034061 1_555
La7 O6 2.493888 1_554
La7 O1 2.503190 1_555
La7 O13 2.697667 1_555
La7 O4 3.042058 1_555
La7 O5 3.085757 1_554
Cu0 O9 1.824479 1_455
Cu0 O3 1.845132 1_555
Cu0 O8 1.897796 1_455
Cu0 O2 1.906050 1_555
Cu1 O0 1.869355 1_455
Cu1 O11 1.887956 1_455
Cu1 O8 1.895891 1_454
Cu1 O10 1.901079 1_455
Cu2 O11 1.846434 1_556
Cu2 O15 1.868631 1_645
Cu2 O2 1.896440 1_656
Cu2 O10 1.937568 1_546
