# generated using pymatgen
data_FeNi3Sn2(PO4)6
_symmetry_space_group_name_H-M   'P 1'
_cell_length_a   8.50176767
_cell_length_b   8.50176767
_cell_length_c   8.50176705
_cell_angle_alpha   61.54910657
_cell_angle_beta   61.54910657
_cell_angle_gamma   61.54911108
_symmetry_Int_Tables_number   1
_chemical_formula_structural   FeNi3Sn2(PO4)6
_chemical_formula_sum   'Fe1 Ni3 Sn2 P6 O24'
_cell_volume   449.62757465
_cell_formula_units_Z   1
loop_
 _symmetry_equiv_pos_site_id
 _symmetry_equiv_pos_as_xyz
  1  'x, y, z'
loop_
 _atom_site_type_symbol
 _atom_site_label
 _atom_site_symmetry_multiplicity
 _atom_site_fract_x
 _atom_site_fract_y
 _atom_site_fract_z
 _atom_site_occupancy
  Fe  Fe0  1  0.85050800  0.85050800  0.85050800  1
  Ni  Ni0  1  0.14762400  0.14762400  0.14762400  1
  Ni  Ni1  1  0.35335900  0.35335900  0.35335900  1
  Ni  Ni2  1  0.64656400  0.64656400  0.64656400  1
  Sn  Sn0  1  0.00125100  0.00125100  0.00125100  1
  Sn  Sn1  1  0.50032100  0.50032100  0.50032100  1
  P  P0  1  0.45283800  0.74904100  0.04588400  1
  P  P1  1  0.74904100  0.04588400  0.45283800  1
  P  P2  1  0.95383400  0.54621400  0.25067500  1
  P  P3  1  0.25067500  0.95383400  0.54621400  1
  P  P4  1  0.54621400  0.25067500  0.95383400  1
  P  P5  1  0.04588400  0.45283800  0.74904100  1
  O  O0  1  0.51274000  0.32142300  0.10271800  1
  O  O1  1  0.10271800  0.51274000  0.32142300  1
  O  O2  1  0.24956400  0.90455900  0.06664300  1
  O  O3  1  0.32142300  0.10271800  0.51274000  1
  O  O4  1  0.60491600  0.82423200  0.00360200  1
  O  O5  1  0.43803300  0.59635900  0.24990300  1
  O  O6  1  0.90455900  0.06664300  0.24956400  1
  O  O7  1  0.59635900  0.24990300  0.43803300  1
  O  O8  1  0.98919000  0.39792600  0.17809400  1
  O  O9  1  0.24990300  0.43803300  0.59635900  1
  O  O10  1  0.93373100  0.75224300  0.09291500  1
  O  O11  1  0.17809400  0.98919000  0.39792600  1
  O  O12  1  0.82423200  0.00360200  0.60491600  1
  O  O13  1  0.06664300  0.24956400  0.90455900  1
  O  O14  1  0.74841000  0.56815000  0.40305500  1
  O  O15  1  0.00360200  0.60491600  0.82423200  1
  O  O16  1  0.40305500  0.74841000  0.56815000  1
  O  O17  1  0.09291500  0.93373100  0.75224300  1
  O  O18  1  0.56815000  0.40305500  0.74841000  1
  O  O19  1  0.39792600  0.17809400  0.98919000  1
  O  O20  1  0.67639300  0.89768800  0.48939800  1
  O  O21  1  0.75224300  0.09291500  0.93373100  1
  O  O22  1  0.89768800  0.48939800  0.67639300  1
  O  O23  1  0.48939800  0.67639300  0.89768800  1
loop_
_geom_bond_atom_site_label_1
_geom_bond_atom_site_label_2
_geom_bond_distance
_geom_bond_site_symmetry_2
Fe0 O12 1.918746 1_565
Fe0 O4 1.918746 1_556
Fe0 O15 1.918746 1_655
Fe0 O10 2.152090 1_556
Fe0 O17 2.152090 1_655
Fe0 O21 2.152090 1_565
Ni0 O11 1.967621 1_545
Ni0 O19 1.967622 1_554
Ni0 O8 1.967622 1_455
Ni0 O13 2.139181 1_554
Ni0 O6 2.139181 1_455
Ni0 O2 2.139181 1_545
Ni1 O0 1.974859 1_555
Ni1 O3 1.974859 1_555
Ni1 O1 1.974859 1_555
Ni1 O9 2.154599 1_555
Ni1 O5 2.154599 1_555
Ni1 O7 2.154599 1_555
Ni2 O23 1.970484 1_555
Ni2 O20 1.970484 1_555
Ni2 O22 1.970484 1_555
Ni2 O14 2.130063 1_555
Ni2 O18 2.130063 1_555
Ni2 O16 2.130063 1_555
O0 P4 1.504678 1_554
O1 P2 1.504678 1_455
O2 P0 1.587614 1_555
O2 Sn0 2.114444 1_565
O3 P3 1.504678 1_545
O4 P0 1.528157 1_555
O5 P0 1.584855 1_555
O5 Sn1 2.117943 1_555
O6 P1 1.587613 1_555
O6 Sn0 2.114444 1_655
O7 P1 1.584855 1_555
O7 Sn1 2.117943 1_555
O8 P2 1.504641 1_555
O9 P5 1.584855 1_555
O9 Sn1 2.117943 1_555
O10 P2 1.609652 1_555
O10 Sn0 2.139690 1_665
O11 P3 1.504641 1_555
O12 P1 1.528157 1_555
O13 P5 1.587613 1_555
O13 Sn0 2.114444 1_556
O14 P2 1.589759 1_555
O14 Sn1 2.123147 1_555
O15 P5 1.528157 1_555
O16 P3 1.589759 1_555
O16 Sn1 2.123147 1_555
O17 P3 1.609652 1_555
O17 Sn0 2.139690 1_566
O18 P4 1.589759 1_555
O18 Sn1 2.123147 1_555
O19 P4 1.504641 1_555
O20 P1 1.500302 1_565
O21 P4 1.609652 1_555
O21 Sn0 2.139691 1_656
O22 P5 1.500302 1_655
O23 P0 1.500302 1_556
