# generated using pymatgen
data_Ba9La5I33
_symmetry_space_group_name_H-M   'P 1'
_cell_length_a   13.16773000
_cell_length_b   13.21090490
_cell_length_c   25.17294704
_cell_angle_alpha   99.66576536
_cell_angle_beta   99.79060689
_cell_angle_gamma   108.82608203
_symmetry_Int_Tables_number   1
_chemical_formula_structural   Ba9La5I33
_chemical_formula_sum   'Ba18 La10 I66'
_cell_volume   3966.18283075
_cell_formula_units_Z   2
loop_
 _symmetry_equiv_pos_site_id
 _symmetry_equiv_pos_as_xyz
  1  'x, y, z'
loop_
 _atom_site_type_symbol
 _atom_site_label
 _atom_site_symmetry_multiplicity
 _atom_site_fract_x
 _atom_site_fract_y
 _atom_site_fract_z
 _atom_site_occupancy
  Ba  Ba0  1  0.92226600  0.25366300  0.92861900  1
  Ba  Ba1  1  0.32059300  0.09435700  0.96547600  1
  Ba  Ba2  1  0.47374900  0.02117200  0.19416800  1
  Ba  Ba3  1  0.86570000  0.26236000  0.33806700  1
  Ba  Ba4  1  0.24918900  0.12798700  0.37692000  1
  Ba  Ba5  1  0.67800500  0.39912300  0.54218800  1
  Ba  Ba6  1  0.07765300  0.24398000  0.56629200  1
  Ba  Ba7  1  0.75947600  0.35937000  0.12165500  1
  Ba  Ba8  1  0.13863100  0.23300500  0.15990900  1
  Ba  Ba9  1  0.86136900  0.76699500  0.84009100  1
  Ba  Ba10  1  0.24052400  0.64063000  0.87834500  1
  Ba  Ba11  1  0.92234700  0.75602000  0.43370800  1
  Ba  Ba12  1  0.32199500  0.60087700  0.45781200  1
  Ba  Ba13  1  0.75081100  0.87201300  0.62308000  1
  Ba  Ba14  1  0.13430000  0.73764000  0.66193300  1
  Ba  Ba15  1  0.52625100  0.97882800  0.80583200  1
  Ba  Ba16  1  0.67940700  0.90564300  0.03452400  1
  Ba  Ba17  1  0.07773400  0.74633700  0.07138100  1
  La  La0  1  0.38097800  0.04547700  0.58583900  1
  La  La1  1  0.18035300  0.14154600  0.76518900  1
  La  La2  1  0.85574500  0.35215000  0.73357700  1
  La  La3  1  0.62505600  0.45625100  0.92594600  1
  La  La4  1  0.46317400  0.53573000  0.68668200  1
  La  La5  1  0.53682600  0.46427000  0.31331800  1
  La  La6  1  0.37494400  0.54374900  0.07405400  1
  La  La7  1  0.14425500  0.64785000  0.26642300  1
  La  La8  1  0.81964700  0.85845400  0.23481100  1
  La  La9  1  0.61902200  0.95452300  0.41416100  1
  I  I0  1  0.77152700  0.13955600  0.78407200  1
  I  I1  1  0.94964300  0.15359300  0.67549100  1
  I  I2  1  0.62087400  0.20917000  0.91956700  1
  I  I3  1  0.74142700  0.04577500  0.19402700  1
  I  I4  1  0.16139800  0.01605300  0.63709000  1
  I  I5  1  0.06107500  0.07640700  0.87398200  1
  I  I6  1  0.65433300  0.18524300  0.62778000  1
  I  I7  1  0.44492600  0.18490400  0.73928000  1
  I  I8  1  0.81052200  0.22357400  0.47570800  1
  I  I9  1  0.58209800  0.11475400  0.33854800  1
  I  I10  1  0.47875400  0.11885400  0.47416500  1
  I  I11  1  0.15790300  0.03768800  0.48731600  1
  I  I12  1  0.35600800  0.29837800  0.87926600  1
  I  I13  1  0.88624600  0.18395500  0.06063700  1
  I  I14  1  0.82029900  0.45559800  0.85591200  1
  I  I15  1  0.55256000  0.10580800  0.07253700  1
  I  I16  1  0.94655600  0.42981800  0.62722300  1
  I  I17  1  0.24227700  0.03769100  0.09370100  1
  I  I18  1  0.39705800  0.30253300  0.58944000  1
  I  I19  1  0.98025500  0.37918800  0.22575100  1
  I  I20  1  0.35218700  0.21034100  0.26321000  1
  I  I21  1  0.65698200  0.31632400  0.24076400  1
  I  I22  1  0.03432800  0.11889400  0.27486100  1
  I  I23  1  0.25182800  0.35896400  0.71133300  1
  I  I24  1  0.70536700  0.50225400  0.69358600  1
  I  I25  1  0.07535100  0.35450600  0.82242100  1
  I  I26  1  0.75147500  0.46507700  0.40551300  1
  I  I27  1  0.56775300  0.56064800  0.82146500  1
  I  I28  1  0.45077500  0.39396900  0.42432800  1
  I  I29  1  0.79789300  0.71357600  0.96993800  1
  I  I30  1  0.47154000  0.61038100  0.96462600  1
  I  I31  1  0.12482500  0.31831700  0.43700500  1
  I  I32  1  0.14703100  0.52961400  0.98359700  1
  I  I33  1  0.85296900  0.47038600  0.01640300  1
  I  I34  1  0.87517500  0.68168300  0.56299500  1
  I  I35  1  0.52846000  0.38961900  0.03537400  1
  I  I36  1  0.20210700  0.28642400  0.03006200  1
  I  I37  1  0.54922500  0.60603100  0.57567200  1
  I  I38  1  0.43224700  0.43935200  0.17853500  1
  I  I39  1  0.24852500  0.53492300  0.59448700  1
  I  I40  1  0.92464900  0.64549400  0.17757900  1
  I  I41  1  0.29463300  0.49774600  0.30641400  1
  I  I42  1  0.74817200  0.64103600  0.28866700  1
  I  I43  1  0.96567200  0.88110600  0.72513900  1
  I  I44  1  0.34301800  0.68367600  0.75923600  1
  I  I45  1  0.64781300  0.78965900  0.73679000  1
  I  I46  1  0.01974500  0.62081200  0.77424900  1
  I  I47  1  0.60294200  0.69746700  0.41056000  1
  I  I48  1  0.75772300  0.96230900  0.90629900  1
  I  I49  1  0.05344400  0.57018200  0.37277700  1
  I  I50  1  0.44744000  0.89419200  0.92746300  1
  I  I51  1  0.17970100  0.54440200  0.14408800  1
  I  I52  1  0.11375400  0.81604500  0.93936300  1
  I  I53  1  0.64399200  0.70162200  0.12073400  1
  I  I54  1  0.84209700  0.96231200  0.51268400  1
  I  I55  1  0.52124600  0.88114600  0.52583500  1
  I  I56  1  0.41790200  0.88524600  0.66145200  1
  I  I57  1  0.18947800  0.77642600  0.52429200  1
  I  I58  1  0.55507400  0.81509600  0.26072000  1
  I  I59  1  0.34566700  0.81475700  0.37222000  1
  I  I60  1  0.93892500  0.92359300  0.12601800  1
  I  I61  1  0.83860200  0.98394700  0.36291000  1
  I  I62  1  0.25857300  0.95422500  0.80597300  1
  I  I63  1  0.37912600  0.79083000  0.08043300  1
  I  I64  1  0.05035700  0.84640700  0.32450900  1
  I  I65  1  0.22847300  0.86044400  0.21592800  1
loop_
_geom_bond_atom_site_label_1
_geom_bond_atom_site_label_2
_geom_bond_distance
_geom_bond_site_symmetry_2
Ba0 I0 3.636323 1_555
Ba0 I5 3.640325 1_655
Ba0 I48 3.647293 1_545
Ba0 I13 3.660478 1_556
Ba0 I32 3.730173 1_655
Ba0 I33 3.763040 1_556
Ba0 I25 3.778928 1_655
Ba0 I2 3.780149 1_555
Ba0 I14 3.922374 1_555
Ba0 I36 3.960546 1_656
Ba1 I50 3.639042 1_545
Ba1 I15 3.658031 1_556
Ba1 I52 3.672215 1_545
Ba1 I17 3.672576 1_556
Ba1 I36 3.680782 1_556
Ba1 I5 3.695319 1_555
Ba1 I12 3.699848 1_555
Ba1 I35 3.869089 1_556
Ba1 I62 3.953311 1_545
Ba1 I2 4.188375 1_555
Ba2 I3 3.434313 1_555
Ba2 I65 3.435996 1_545
Ba2 I9 3.516046 1_555
Ba2 I63 3.524718 1_545
Ba2 I15 3.630865 1_555
Ba2 I17 3.704969 1_555
Ba2 I21 3.719017 1_555
Ba2 I20 3.727961 1_555
Ba2 I58 3.764060 1_545
Ba3 I9 3.615504 1_555
Ba3 I31 3.640798 1_655
Ba3 I21 3.690890 1_555
Ba3 I22 3.736194 1_655
Ba3 I8 3.742668 1_555
Ba3 I61 3.748067 1_545
Ba3 I19 3.750260 1_555
Ba3 I26 3.776010 1_555
Ba3 I49 3.872491 1_655
Ba3 I3 3.935521 1_555
Ba4 I22 3.438658 1_555
Ba4 I11 3.451753 1_555
Ba4 I28 3.508866 1_555
Ba4 I20 3.553908 1_555
Ba4 I10 3.600354 1_555
Ba4 I64 3.650306 1_545
Ba4 I31 3.676213 1_555
Ba5 I16 3.668782 1_555
Ba5 I8 3.677715 1_555
Ba5 I34 3.684486 1_555
Ba5 I10 3.687618 1_555
Ba5 I37 3.709671 1_555
Ba5 I24 3.739436 1_555
Ba5 I6 3.798357 1_555
Ba5 I28 3.813304 1_555
Ba5 I26 3.889326 1_555
Ba5 I18 3.960872 1_555
Ba6 I1 3.633508 1_455
Ba6 I11 3.640058 1_555
Ba6 I39 3.646782 1_555
Ba6 I31 3.648199 1_555
Ba6 I16 3.705563 1_455
Ba6 I23 3.733549 1_555
Ba6 I8 3.754847 1_455
Ba6 I54 3.837911 1_445
Ba6 I18 3.942388 1_555
Ba6 I4 4.090935 1_555
Ba7 I15 3.427301 1_555
Ba7 I33 3.454754 1_555
Ba7 I19 3.474794 1_555
Ba7 I21 3.547993 1_555
Ba7 I13 3.562220 1_555
Ba7 I40 3.586945 1_555
Ba7 I35 3.599938 1_555
Ba8 I17 3.591718 1_555
Ba8 I13 3.598780 1_455
Ba8 I20 3.616243 1_555
Ba8 I36 3.633685 1_555
Ba8 I19 3.677738 1_455
Ba8 I22 3.743329 1_555
Ba8 I38 3.840723 1_555
Ba8 I60 3.934487 1_445
Ba8 I51 4.069680 1_555
Ba9 I48 3.591718 1_555
Ba9 I52 3.598780 1_655
Ba9 I45 3.616243 1_555
Ba9 I29 3.633685 1_555
Ba9 I46 3.677738 1_655
Ba9 I43 3.743329 1_555
Ba9 I27 3.840723 1_555
Ba9 I5 3.934487 1_665
Ba9 I14 4.069680 1_555
Ba10 I50 3.427301 1_555
Ba10 I32 3.454754 1_555
Ba10 I46 3.474794 1_555
Ba10 I44 3.547993 1_555
Ba10 I52 3.562220 1_555
Ba10 I25 3.586945 1_555
Ba10 I30 3.599938 1_555
Ba11 I64 3.633508 1_655
Ba11 I54 3.640058 1_555
Ba11 I26 3.646782 1_555
Ba11 I34 3.648199 1_555
Ba11 I49 3.705563 1_655
Ba11 I42 3.733549 1_555
Ba11 I57 3.754847 1_655
Ba11 I11 3.837911 1_665
Ba11 I47 3.942388 1_555
Ba11 I61 4.090935 1_555
Ba12 I49 3.668782 1_555
Ba12 I57 3.677715 1_555
Ba12 I31 3.684486 1_555
Ba12 I55 3.687618 1_555
Ba12 I28 3.709671 1_555
Ba12 I41 3.739436 1_555
Ba12 I59 3.798357 1_555
Ba12 I37 3.813304 1_555
Ba12 I39 3.889326 1_555
Ba12 I47 3.960872 1_555
Ba13 I43 3.438658 1_555
Ba13 I54 3.451753 1_555
Ba13 I37 3.508866 1_555
Ba13 I45 3.553908 1_555
Ba13 I55 3.600354 1_555
Ba13 I1 3.650306 1_565
Ba13 I34 3.676213 1_555
Ba14 I56 3.615504 1_555
Ba14 I34 3.640798 1_455
Ba14 I44 3.690890 1_555
Ba14 I43 3.736194 1_455
Ba14 I57 3.742668 1_555
Ba14 I4 3.748067 1_565
Ba14 I46 3.750260 1_555
Ba14 I39 3.776010 1_555
Ba14 I16 3.872491 1_455
Ba14 I62 3.935521 1_555
Ba15 I62 3.434313 1_555
Ba15 I0 3.435996 1_565
Ba15 I56 3.516046 1_555
Ba15 I2 3.524718 1_565
Ba15 I50 3.630865 1_555
Ba15 I48 3.704969 1_555
Ba15 I44 3.719017 1_555
Ba15 I45 3.727961 1_555
Ba15 I7 3.764060 1_565
Ba16 I15 3.639042 1_565
Ba16 I50 3.658031 1_554
Ba16 I13 3.672215 1_565
Ba16 I48 3.672576 1_554
Ba16 I29 3.680782 1_554
Ba16 I60 3.695319 1_555
Ba16 I53 3.699848 1_555
Ba16 I30 3.869089 1_554
Ba16 I3 3.953311 1_565
Ba16 I63 4.188375 1_555
Ba17 I65 3.636323 1_555
Ba17 I60 3.640325 1_455
Ba17 I17 3.647293 1_565
Ba17 I52 3.660478 1_554
Ba17 I33 3.730173 1_455
Ba17 I32 3.763040 1_554
Ba17 I40 3.778928 1_455
Ba17 I63 3.780149 1_555
Ba17 I51 3.922374 1_555
Ba17 I29 3.960546 1_454
I0 La2 3.225149 1_555
I1 La2 3.459420 1_555
I1 La1 3.528816 1_655
I2 La3 3.223128 1_555
I3 La8 3.221407 1_545
I4 La1 3.297438 1_555
I4 La0 3.299585 1_555
I5 La1 3.476995 1_555
I6 La2 3.292451 1_555
I6 La0 3.353159 1_555
I7 La1 3.535649 1_555
I7 La0 3.811162 1_555
I8 La9 3.525661 1_545
I9 La9 3.169012 1_545
I10 La0 3.440999 1_555
I10 La9 3.583521 1_545
I11 La0 3.468635 1_555
I12 La1 3.246421 1_555
I12 La3 3.357715 1_555
I14 La2 3.325107 1_555
I14 La3 3.356834 1_555
I16 La2 3.296921 1_555
I18 La0 3.318359 1_555
I18 La4 3.354525 1_555
I19 La7 3.374921 1_655
I20 La5 3.320837 1_555
I21 La5 3.382154 1_555
I22 La8 3.526230 1_445
I23 La4 3.234629 1_555
I23 La1 3.312198 1_555
I24 La4 3.338251 1_555
I24 La2 3.375400 1_555
I25 La2 3.329236 1_455
I25 La1 3.705318 1_555
I26 La5 3.334128 1_555
I27 La3 3.256325 1_555
I27 La4 3.355551 1_555
I28 La5 3.350315 1_555
I29 La3 3.293617 1_555
I30 La6 3.356178 1_556
I30 La3 3.441015 1_555
I32 La6 3.376079 1_556
I33 La3 3.376079 1_554
I35 La3 3.356178 1_554
I35 La6 3.441015 1_555
I36 La6 3.293617 1_555
I37 La4 3.350315 1_555
I38 La6 3.256325 1_555
I38 La5 3.355551 1_555
I39 La4 3.334128 1_555
I40 La7 3.329236 1_655
I40 La8 3.705318 1_555
I41 La5 3.338251 1_555
I41 La7 3.375400 1_555
I42 La5 3.234629 1_555
I42 La8 3.312198 1_555
I43 La1 3.526230 1_665
I44 La4 3.382154 1_555
I45 La4 3.320837 1_555
I46 La2 3.374921 1_455
I47 La9 3.318359 1_555
I47 La5 3.354525 1_555
I49 La7 3.296921 1_555
I51 La7 3.325107 1_555
I51 La6 3.356834 1_555
I53 La8 3.246421 1_555
I53 La6 3.357715 1_555
I54 La9 3.468635 1_555
I55 La9 3.440999 1_555
I55 La0 3.583521 1_565
I56 La0 3.169012 1_565
I57 La0 3.525661 1_565
I58 La8 3.535649 1_555
I58 La9 3.811162 1_555
I59 La7 3.292451 1_555
I59 La9 3.353159 1_555
I60 La8 3.476995 1_555
I61 La8 3.297438 1_555
I61 La9 3.299585 1_555
I62 La1 3.221407 1_565
I63 La6 3.223128 1_555
I64 La7 3.459420 1_555
I64 La8 3.528816 1_455
I65 La7 3.225149 1_555
