# generated using pymatgen
data_UTe3
_symmetry_space_group_name_H-M   'P 1'
_cell_length_a   4.33466441
_cell_length_b   6.16829697
_cell_length_c   10.55362723
_cell_angle_alpha   98.08280961
_cell_angle_beta   90.00000000
_cell_angle_gamma   90.00000000
_symmetry_Int_Tables_number   1
_chemical_formula_structural   UTe3
_chemical_formula_sum   'U2 Te6'
_cell_volume   279.37439614
_cell_formula_units_Z   2
loop_
 _symmetry_equiv_pos_site_id
 _symmetry_equiv_pos_as_xyz
  1  'x, y, z'
loop_
 _atom_site_type_symbol
 _atom_site_label
 _atom_site_symmetry_multiplicity
 _atom_site_fract_x
 _atom_site_fract_y
 _atom_site_fract_z
 _atom_site_occupancy
  U  U0  1  0.25000000  0.28605162  0.65395598  1
  U  U1  1  0.75000000  0.71394838  0.34604402  1
  Te  Te0  1  0.25000000  0.88833154  0.16722133  1
  Te  Te1  1  0.75000000  0.11166846  0.83277867  1
  Te  Te2  1  0.75000000  0.23316903  0.43349537  1
  Te  Te3  1  0.25000000  0.76683097  0.56650463  1
  Te  Te4  1  0.75000000  0.55540137  0.82451731  1
  Te  Te5  1  0.25000000  0.44459863  0.17548269  1
loop_
_geom_bond_atom_site_label_1
_geom_bond_atom_site_label_2
_geom_bond_distance
_geom_bond_site_symmetry_2
Te0 Te5 2.750690 1_555
Te0 U1 3.160194 1_555
Te0 U1 3.160194 1_455
Te0 Te5 3.420051 1_565
Te1 Te4 2.750690 1_555
Te1 U0 3.160194 1_655
Te1 U0 3.160194 1_555
Te1 Te4 3.420051 1_545
Te2 U0 3.162855 1_655
Te2 U0 3.162855 1_555
Te2 U1 3.205919 1_545
Te2 U1 3.227413 1_555
Te3 U1 3.162855 1_455
Te3 U1 3.162855 1_555
Te3 U0 3.205919 1_565
Te3 U0 3.227413 1_555
Te4 U0 3.139559 1_655
Te4 U0 3.139559 1_555
Te5 U1 3.139559 1_455
Te5 U1 3.139559 1_555
