# generated using pymatgen
data_Li2Mn3Cr3O12
_symmetry_space_group_name_H-M   'P 1'
_cell_length_a   8.80314500
_cell_length_b   5.11705400
_cell_length_c   5.25815481
_cell_angle_alpha   70.90137648
_cell_angle_beta   90.00000000
_cell_angle_gamma   90.00000000
_symmetry_Int_Tables_number   1
_chemical_formula_structural   Li2Mn3Cr3O12
_chemical_formula_sum   'Li2 Mn3 Cr3 O12'
_cell_volume   223.82220294
_cell_formula_units_Z   1
loop_
 _symmetry_equiv_pos_site_id
 _symmetry_equiv_pos_as_xyz
  1  'x, y, z'
loop_
 _atom_site_type_symbol
 _atom_site_label
 _atom_site_symmetry_multiplicity
 _atom_site_fract_x
 _atom_site_fract_y
 _atom_site_fract_z
 _atom_site_occupancy
  Li  Li0  1  0.50000000  0.00000000  0.00000000  1
  Li  Li1  1  0.00000000  0.50000000  0.00000000  1
  Mn  Mn0  1  0.33177700  0.00000000  0.50000000  1
  Mn  Mn1  1  0.66822300  0.00000000  0.50000000  1
  Mn  Mn2  1  0.00000000  0.00000000  0.50000000  1
  Cr  Cr0  1  0.50000000  0.50000000  0.50000000  1
  Cr  Cr1  1  0.82889100  0.50000000  0.50000000  1
  Cr  Cr2  1  0.17110900  0.50000000  0.50000000  1
  O  O0  1  0.50000000  0.78094700  0.70257000  1
  O  O1  1  0.83685700  0.76890700  0.70252400  1
  O  O2  1  0.16314300  0.76890700  0.70252400  1
  O  O3  1  0.33515600  0.25307100  0.70293500  1
  O  O4  1  0.66484400  0.25307100  0.70293500  1
  O  O5  1  0.00000000  0.27124700  0.69260100  1
  O  O6  1  0.33515600  0.74692900  0.29706500  1
  O  O7  1  0.66484400  0.74692900  0.29706500  1
  O  O8  1  0.00000000  0.72875300  0.30739900  1
  O  O9  1  0.50000000  0.21905300  0.29743000  1
  O  O10  1  0.83685700  0.23109300  0.29747600  1
  O  O11  1  0.16314300  0.23109300  0.29747600  1
loop_
_geom_bond_atom_site_label_1
_geom_bond_atom_site_label_2
_geom_bond_distance
_geom_bond_site_symmetry_2
Li0 O9 2.202153 1_555
Li0 O0 2.202153 1_544
Li0 O6 2.213367 1_545
Li0 O7 2.213367 1_545
Li0 O4 2.213367 1_554
Li0 O3 2.213367 1_554
Li1 O11 2.234766 1_555
Li1 O2 2.234766 1_554
Li1 O10 2.234766 1_455
Li1 O1 2.234766 1_454
Li1 O8 2.284922 1_555
Li1 O5 2.284922 1_554
Mn0 O3 1.928919 1_555
Mn0 O6 1.928919 1_545
Mn0 O9 1.950053 1_555
Mn0 O0 1.950053 1_545
Mn0 O2 1.977898 1_545
Mn0 O11 1.977898 1_555
Mn1 O4 1.928919 1_555
Mn1 O7 1.928919 1_545
Mn1 O9 1.950053 1_555
Mn1 O0 1.950053 1_545
Mn1 O1 1.977898 1_545
Mn1 O10 1.977898 1_555
Mn2 O2 1.941880 1_545
Mn2 O11 1.941880 1_555
Mn2 O1 1.941880 1_445
Mn2 O10 1.941880 1_455
Mn2 O5 1.967730 1_555
Mn2 O8 1.967730 1_545
Cr0 O3 1.989648 1_555
Cr0 O4 1.989648 1_555
Cr0 O6 1.989648 1_555
Cr0 O7 1.989648 1_555
Cr0 O0 2.050204 1_555
Cr0 O9 2.050204 1_555
Cr1 O8 1.972048 1_655
Cr1 O5 1.972048 1_655
Cr1 O4 1.984536 1_555
Cr1 O7 1.984536 1_555
Cr1 O1 1.997807 1_555
Cr1 O10 1.997807 1_555
Cr2 O8 1.972048 1_555
Cr2 O5 1.972048 1_555
Cr2 O3 1.984536 1_555
Cr2 O6 1.984536 1_555
Cr2 O2 1.997807 1_555
Cr2 O11 1.997807 1_555
