# generated using pymatgen
data_Eu2SiO5
_symmetry_space_group_name_H-M   'P 1'
_cell_length_a   3.74619100
_cell_length_b   10.65419500
_cell_length_c   10.98028700
_cell_angle_alpha   90.00000000
_cell_angle_beta   90.00000000
_cell_angle_gamma   90.00000000
_symmetry_Int_Tables_number   1
_chemical_formula_structural   Eu2SiO5
_chemical_formula_sum   'Eu8 Si4 O20'
_cell_volume   438.25234558
_cell_formula_units_Z   4
loop_
 _symmetry_equiv_pos_site_id
 _symmetry_equiv_pos_as_xyz
  1  'x, y, z'
loop_
 _atom_site_type_symbol
 _atom_site_label
 _atom_site_symmetry_multiplicity
 _atom_site_fract_x
 _atom_site_fract_y
 _atom_site_fract_z
 _atom_site_occupancy
  Eu  Eu0  1  0.25000000  0.09454100  0.28919400  1
  Eu  Eu1  1  0.25000000  0.13500200  0.94199700  1
  Eu  Eu2  1  0.75000000  0.36499800  0.44199700  1
  Eu  Eu3  1  0.75000000  0.40545900  0.78919400  1
  Eu  Eu4  1  0.25000000  0.59454100  0.21080600  1
  Eu  Eu5  1  0.25000000  0.63500200  0.55800300  1
  Eu  Eu6  1  0.75000000  0.86499800  0.05800300  1
  Eu  Eu7  1  0.75000000  0.90545900  0.71080600  1
  Si  Si0  1  0.25000000  0.18242200  0.62637900  1
  Si  Si1  1  0.75000000  0.31757800  0.12637900  1
  Si  Si2  1  0.25000000  0.68242200  0.87362100  1
  Si  Si3  1  0.75000000  0.81757800  0.37362100  1
  O  O0  1  0.75000000  0.00887600  0.89710000  1
  O  O1  1  0.25000000  0.03156500  0.65647600  1
  O  O2  1  0.25000000  0.22435300  0.47834300  1
  O  O3  1  0.75000000  0.21559500  0.62269800  1
  O  O4  1  0.75000000  0.23103100  0.25601500  1
  O  O5  1  0.25000000  0.26896900  0.75601500  1
  O  O6  1  0.25000000  0.28440500  0.12269800  1
  O  O7  1  0.75000000  0.27564700  0.97834300  1
  O  O8  1  0.75000000  0.46843500  0.15647600  1
  O  O9  1  0.25000000  0.49112400  0.39710000  1
  O  O10  1  0.75000000  0.50887600  0.60290000  1
  O  O11  1  0.25000000  0.53156500  0.84352400  1
  O  O12  1  0.25000000  0.72435300  0.02165700  1
  O  O13  1  0.75000000  0.71559500  0.87730200  1
  O  O14  1  0.75000000  0.73103100  0.24398500  1
  O  O15  1  0.25000000  0.76896900  0.74398500  1
  O  O16  1  0.25000000  0.78440500  0.37730200  1
  O  O17  1  0.75000000  0.77564700  0.52165700  1
  O  O18  1  0.75000000  0.96843500  0.34352400  1
  O  O19  1  0.25000000  0.99112400  0.10290000  1
loop_
_geom_bond_atom_site_label_1
_geom_bond_atom_site_label_2
_geom_bond_distance
_geom_bond_site_symmetry_2
Eu0 O19 2.323433 1_545
Eu0 O18 2.381075 1_445
Eu0 O18 2.381075 1_545
Eu0 O4 2.399142 1_455
Eu0 O4 2.399142 1_555
Eu0 O2 2.495268 1_555
Eu0 O6 2.726561 1_555
Eu1 O19 2.339068 1_546
Eu1 O0 2.357380 1_555
Eu1 O0 2.357380 1_455
Eu1 O7 2.431695 1_455
Eu1 O7 2.431695 1_555
Eu1 O5 2.491492 1_555
Eu1 O6 2.543732 1_556
Eu2 O10 2.339068 1_555
Eu2 O9 2.357380 1_655
Eu2 O9 2.357380 1_555
Eu2 O2 2.431695 1_555
Eu2 O2 2.431695 1_655
Eu2 O4 2.491492 1_555
Eu2 O3 2.543732 1_555
Eu3 O10 2.323433 1_555
Eu3 O11 2.381075 1_655
Eu3 O11 2.381075 1_555
Eu3 O5 2.399142 1_555
Eu3 O5 2.399142 1_655
Eu3 O7 2.495268 1_555
Eu3 O3 2.726561 1_555
Eu4 O9 2.323433 1_555
Eu4 O8 2.381075 1_455
Eu4 O8 2.381075 1_555
Eu4 O14 2.399142 1_555
Eu4 O14 2.399142 1_455
Eu4 O12 2.495268 1_555
Eu4 O16 2.726561 1_555
Eu5 O9 2.339068 1_555
Eu5 O10 2.357380 1_455
Eu5 O10 2.357380 1_555
Eu5 O17 2.431695 1_555
Eu5 O17 2.431695 1_455
Eu5 O15 2.491492 1_555
Eu5 O16 2.543732 1_555
Eu6 O0 2.339068 1_564
Eu6 O19 2.357380 1_555
Eu6 O19 2.357380 1_655
Eu6 O12 2.431695 1_555
Eu6 O12 2.431695 1_655
Eu6 O14 2.491492 1_555
Eu6 O13 2.543732 1_554
Eu7 O0 2.323433 1_565
Eu7 O1 2.381075 1_665
Eu7 O1 2.381075 1_565
Eu7 O15 2.399142 1_555
Eu7 O15 2.399142 1_655
Eu7 O17 2.495268 1_555
Eu7 O13 2.726561 1_555
O1 Si0 1.640883 1_555
O2 Si0 1.685751 1_555
O3 Si0 1.906577 1_655
O3 Si0 1.906577 1_555
O4 Si1 1.696004 1_555
O5 Si0 1.696004 1_555
O6 Si1 1.906577 1_455
O6 Si1 1.906577 1_555
O7 Si1 1.685751 1_556
O8 Si1 1.640883 1_555
O11 Si2 1.640883 1_555
O12 Si2 1.685751 1_554
O13 Si2 1.906577 1_655
O13 Si2 1.906577 1_555
O14 Si3 1.696004 1_555
O15 Si2 1.696004 1_555
O16 Si3 1.906577 1_555
O16 Si3 1.906577 1_455
O17 Si3 1.685751 1_555
O18 Si3 1.640883 1_555
