# generated using pymatgen
data_GaPt3
_symmetry_space_group_name_H-M   'P 1'
_cell_length_a   5.55719704
_cell_length_b   5.49874530
_cell_length_c   7.93397371
_cell_angle_alpha   89.99104568
_cell_angle_beta   44.45443464
_cell_angle_gamma   60.30543753
_symmetry_Int_Tables_number   1
_chemical_formula_structural   GaPt3
_chemical_formula_sum   'Ga2 Pt6'
_cell_volume   120.05020582
_cell_formula_units_Z   2
loop_
 _symmetry_equiv_pos_site_id
 _symmetry_equiv_pos_as_xyz
  1  'x, y, z'
loop_
 _atom_site_type_symbol
 _atom_site_label
 _atom_site_symmetry_multiplicity
 _atom_site_fract_x
 _atom_site_fract_y
 _atom_site_fract_z
 _atom_site_occupancy
  Ga  Ga0  1  0.00019556  0.49999918  0.75656200  1
  Ga  Ga1  1  0.99972223  0.50007470  0.25743035  1
  Pt  Pt0  1  0.41443399  0.49947635  0.29957508  1
  Pt  Pt1  1  0.41368209  0.08668198  0.80001527  1
  Pt  Pt2  1  0.58636151  0.91331816  0.21371172  1
  Pt  Pt3  1  0.58573275  0.50046959  0.71412067  1
  Pt  Pt4  1  -0.00010904  0.00017880  0.25686455  1
  Pt  Pt5  1  -0.00001109  0.99980324  0.75684035  1
loop_
_geom_bond_atom_site_label_1
_geom_bond_atom_site_label_2
_geom_bond_distance
_geom_bond_site_symmetry_2
Ga0 Pt3 2.553365 1_455
Ga0 Pt1 2.553588 1_555
Ga0 Pt0 2.554027 1_555
Ga0 Pt2 2.554508 1_456
Ga0 Pt5 2.747727 1_555
Ga0 Pt4 2.750911 1_655
Ga0 Pt5 2.751019 1_545
Ga0 Pt4 2.752588 1_466
Ga0 Pt1 3.021283 1_465
Ga0 Pt2 3.021917 1_545
Ga0 Pt0 3.024143 1_456
Ga0 Pt3 3.024179 1_555
Ga1 Pt0 2.552604 1_655
Ga1 Pt3 2.552669 1_555
Ga1 Pt2 2.554656 1_555
Ga1 Pt1 2.555938 1_654
Ga1 Pt4 2.748339 1_655
Ga1 Pt4 2.750412 1_665
Ga1 Pt5 2.751018 1_555
Ga1 Pt5 2.752485 1_744
Ga1 Pt2 3.020446 1_645
Ga1 Pt1 3.020647 1_565
Ga1 Pt0 3.024721 1_555
Ga1 Pt3 3.025395 1_654
Pt0 Pt4 2.795417 1_655
Pt0 Pt5 2.796749 1_644
Pt0 Pt5 2.798569 1_555
Pt0 Pt4 2.798634 1_565
Pt1 Pt5 2.797522 1_645
Pt1 Pt4 2.798763 1_655
Pt1 Pt4 2.799299 1_556
Pt1 Pt5 2.800585 1_545
Pt2 Pt4 2.798589 1_565
Pt2 Pt5 2.798662 1_555
Pt2 Pt5 2.799383 1_654
Pt2 Pt4 2.799500 1_665
Pt3 Pt4 2.796208 1_566
Pt3 Pt5 2.796388 1_555
Pt3 Pt5 2.797898 1_645
Pt3 Pt4 2.799343 1_655
