# generated using pymatgen
data_Ba2GeAs2
_symmetry_space_group_name_H-M   'P 1'
_cell_length_a   9.80135078
_cell_length_b   7.73900868
_cell_length_c   8.83783470
_cell_angle_alpha   73.89393040
_cell_angle_beta   90.00000000
_cell_angle_gamma   90.00000000
_symmetry_Int_Tables_number   1
_chemical_formula_structural   Ba2GeAs2
_chemical_formula_sum   'Ba8 Ge4 As8'
_cell_volume   644.06163539
_cell_formula_units_Z   4
loop_
 _symmetry_equiv_pos_site_id
 _symmetry_equiv_pos_as_xyz
  1  'x, y, z'
loop_
 _atom_site_type_symbol
 _atom_site_label
 _atom_site_symmetry_multiplicity
 _atom_site_fract_x
 _atom_site_fract_y
 _atom_site_fract_z
 _atom_site_occupancy
  Ba  Ba0  1  0.66350641  0.39735063  0.48080574  1
  Ba  Ba1  1  0.16350641  0.10264937  0.51919426  1
  Ba  Ba2  1  0.33649359  0.60264937  0.51919426  1
  Ba  Ba3  1  0.83649359  0.89735063  0.48080574  1
  Ba  Ba4  1  0.86018406  0.75738417  0.99659690  1
  Ba  Ba5  1  0.36018406  0.74261583  0.00340310  1
  Ba  Ba6  1  0.13981594  0.24261583  0.00340310  1
  Ba  Ba7  1  0.63981594  0.25738417  0.99659690  1
  Ge  Ge0  1  0.46832727  0.02400462  0.36135138  1
  Ge  Ge1  1  0.03167273  0.52400462  0.36135138  1
  Ge  Ge2  1  0.53167273  0.97599538  0.63864862  1
  Ge  Ge3  1  0.96832727  0.47599538  0.63864862  1
  As  As0  1  0.59929986  0.67015814  0.75534905  1
  As  As1  1  0.40095996  0.16224562  0.76297272  1
  As  As2  1  0.59904004  0.83775438  0.23702728  1
  As  As3  1  0.09904004  0.66224562  0.76297272  1
  As  As4  1  0.09929986  0.82984186  0.24465095  1
  As  As5  1  0.40070014  0.32984186  0.24465095  1
  As  As6  1  0.90070014  0.17015814  0.75534905  1
  As  As7  1  0.90095996  0.33775438  0.23702728  1
loop_
_geom_bond_atom_site_label_1
_geom_bond_atom_site_label_2
_geom_bond_distance
_geom_bond_site_symmetry_2
Ba0 Ge3 3.422512 1_555
Ba0 Ge2 3.424187 1_545
Ba1 Ge0 3.422512 1_555
Ba1 Ge1 3.424187 1_555
Ba2 Ge1 3.422512 1_555
Ba2 Ge0 3.424187 1_565
Ba3 Ge2 3.422512 1_555
Ba3 Ge3 3.424187 1_555
Ge0 Ge2 2.454443 1_545
Ge1 Ge3 2.454443 1_455
As0 Ge2 2.398077 1_555
As0 Ba7 3.336051 1_555
As0 Ba5 3.360840 1_556
As0 Ba2 3.445135 1_555
As0 Ba3 3.466478 1_555
As0 Ba4 3.512614 1_555
As0 Ba0 3.685506 1_555
As1 Ge2 2.409349 1_545
As1 Ba1 3.289747 1_555
As1 Ba7 3.336089 1_555
As1 Ba5 3.375286 1_546
As1 Ba6 3.490940 1_556
As1 Ba2 3.547288 1_555
As1 Ba0 3.692390 1_555
As2 Ge0 2.409349 1_565
As2 Ba3 3.289747 1_555
As2 Ba5 3.336089 1_555
As2 Ba7 3.375286 1_564
As2 Ba4 3.490940 1_554
As2 Ba0 3.547288 1_555
As2 Ba2 3.692390 1_555
As3 Ge3 2.409349 1_455
As3 Ba2 3.289747 1_555
As3 Ba4 3.336089 1_455
As3 Ba6 3.375286 1_556
As3 Ba5 3.490940 1_556
As3 Ba1 3.547288 1_565
As3 Ba3 3.692390 1_455
As4 Ge1 2.398077 1_555
As4 Ba6 3.336051 1_565
As4 Ba4 3.360840 1_454
As4 Ba3 3.445135 1_455
As4 Ba2 3.466478 1_555
As4 Ba5 3.512614 1_555
As4 Ba1 3.685506 1_565
As5 Ge0 2.398077 1_555
As5 Ba5 3.336051 1_555
As5 Ba7 3.360840 1_554
As5 Ba0 3.445135 1_555
As5 Ba1 3.466478 1_555
As5 Ba6 3.512614 1_555
As5 Ba2 3.685506 1_555
As6 Ge3 2.398077 1_555
As6 Ba4 3.336051 1_545
As6 Ba6 3.360840 1_656
As6 Ba1 3.445135 1_655
As6 Ba0 3.466478 1_555
As6 Ba7 3.512614 1_555
As6 Ba3 3.685506 1_545
As7 Ge1 2.409349 1_655
As7 Ba0 3.289747 1_555
As7 Ba6 3.336089 1_655
As7 Ba4 3.375286 1_554
As7 Ba7 3.490940 1_554
As7 Ba3 3.547288 1_545
As7 Ba1 3.692390 1_655
