# generated using pymatgen
data_SmAgAs2
_symmetry_space_group_name_H-M   'P 1'
_cell_length_a   4.00142670
_cell_length_b   4.03531390
_cell_length_c   21.20234908
_cell_angle_alpha   90.00000000
_cell_angle_beta   90.00000000
_cell_angle_gamma   90.00000000
_symmetry_Int_Tables_number   1
_chemical_formula_structural   SmAgAs2
_chemical_formula_sum   'Sm4 Ag4 As8'
_cell_volume   342.35460161
_cell_formula_units_Z   4
loop_
 _symmetry_equiv_pos_site_id
 _symmetry_equiv_pos_as_xyz
  1  'x, y, z'
loop_
 _atom_site_type_symbol
 _atom_site_label
 _atom_site_symmetry_multiplicity
 _atom_site_fract_x
 _atom_site_fract_y
 _atom_site_fract_z
 _atom_site_occupancy
  Sm  Sm0  1  0.75000000  0.23005723  0.11435298  1
  Sm  Sm1  1  0.25000000  0.73005723  0.38564702  1
  Sm  Sm2  1  0.75000000  0.26994277  0.61435298  1
  Sm  Sm3  1  0.25000000  0.76994277  0.88564702  1
  Ag  Ag0  1  0.25000000  0.22827670  0.25000877  1
  Ag  Ag1  1  0.75000000  0.72827670  0.24999123  1
  Ag  Ag2  1  0.25000000  0.27172330  0.75000877  1
  Ag  Ag3  1  0.75000000  0.77172330  0.74999123  1
  As  As0  1  0.25000000  0.72878083  0.15993993  1
  As  As1  1  0.75000000  0.22878083  0.34006007  1
  As  As2  1  0.25000000  0.77121917  0.65993993  1
  As  As3  1  0.75000000  0.27121917  0.84006007  1
  As  As4  1  0.75000000  0.70244842  0.00167142  1
  As  As5  1  0.25000000  0.20244842  0.49832858  1
  As  As6  1  0.75000000  0.79755158  0.50167142  1
  As  As7  1  0.25000000  0.29755158  0.99832858  1
loop_
_geom_bond_atom_site_label_1
_geom_bond_atom_site_label_2
_geom_bond_distance
_geom_bond_site_symmetry_2
Ag0 As1 2.765553 1_455
Ag0 As1 2.765553 1_555
Ag0 As0 2.776613 1_545
Ag0 As0 2.779568 1_555
Ag0 Ag1 2.841442 1_445
Ag0 Ag1 2.841442 1_555
Ag0 Ag1 2.841442 1_545
Ag0 Ag1 2.841442 1_455
Ag0 Sm0 3.503649 1_455
Ag0 Sm0 3.503649 1_555
Ag0 Sm1 3.508918 1_545
Ag0 Sm1 3.517172 1_555
Ag1 As0 2.765553 1_555
Ag1 As0 2.765553 1_655
Ag1 As1 2.776613 1_555
Ag1 As1 2.779568 1_565
Ag1 Sm1 3.503649 1_555
Ag1 Sm1 3.503649 1_655
Ag1 Sm0 3.508918 1_555
Ag1 Sm0 3.517172 1_565
Ag2 As3 2.765553 1_455
Ag2 As3 2.765553 1_555
Ag2 As2 2.776613 1_555
Ag2 As2 2.779568 1_545
Ag2 Ag3 2.841442 1_445
Ag2 Ag3 2.841442 1_455
Ag2 Ag3 2.841442 1_545
Ag2 Ag3 2.841442 1_555
Ag2 Sm2 3.503649 1_455
Ag2 Sm2 3.503649 1_555
Ag2 Sm3 3.508918 1_555
Ag2 Sm3 3.517172 1_545
Ag3 As2 2.765553 1_555
Ag3 As2 2.765553 1_655
Ag3 As3 2.776613 1_565
Ag3 As3 2.779568 1_555
Ag3 Sm3 3.503649 1_555
Ag3 Sm3 3.503649 1_655
Ag3 Sm2 3.508918 1_565
Ag3 Sm2 3.517172 1_555
As0 Sm0 2.997875 1_455
As0 Sm0 2.997875 1_555
As0 Sm0 3.004800 1_565
As0 Sm0 3.004800 1_465
As1 Sm1 2.997875 1_545
As1 Sm1 2.997875 1_645
As1 Sm1 3.004800 1_655
As1 Sm1 3.004800 1_555
As2 Sm2 2.997875 1_465
As2 Sm2 2.997875 1_565
As2 Sm2 3.004800 1_455
As2 Sm2 3.004800 1_555
As3 Sm3 2.997875 1_555
As3 Sm3 2.997875 1_655
As3 Sm3 3.004800 1_645
As3 Sm3 3.004800 1_545
As4 As7 2.584078 1_554
As4 As7 2.584078 1_654
As4 Sm0 3.056410 1_555
As4 Sm3 3.182544 1_654
As4 Sm3 3.182544 1_554
As4 Sm0 3.200124 1_565
As5 As6 2.584078 1_445
As5 As6 2.584078 1_545
As5 Sm1 3.056410 1_545
As5 Sm2 3.182544 1_455
As5 Sm2 3.182544 1_555
As5 Sm1 3.200124 1_555
As6 Sm2 3.056410 1_565
As6 Sm1 3.182544 1_655
As6 Sm1 3.182544 1_555
As6 Sm2 3.200124 1_555
As7 Sm3 3.056410 1_555
As7 Sm0 3.182544 1_556
As7 Sm0 3.182544 1_456
As7 Sm3 3.200124 1_545
