# generated using pymatgen
data_PuSb3
_symmetry_space_group_name_H-M   'P 1'
_cell_length_a   6.45809188
_cell_length_b   6.46438313
_cell_length_c   5.99312553
_cell_angle_alpha   89.98862999
_cell_angle_beta   90.00155581
_cell_angle_gamma   120.02169292
_symmetry_Int_Tables_number   1
_chemical_formula_structural   PuSb3
_chemical_formula_sum   'Pu2 Sb6'
_cell_volume   216.63086231
_cell_formula_units_Z   2
loop_
 _symmetry_equiv_pos_site_id
 _symmetry_equiv_pos_as_xyz
  1  'x, y, z'
loop_
 _atom_site_type_symbol
 _atom_site_label
 _atom_site_symmetry_multiplicity
 _atom_site_fract_x
 _atom_site_fract_y
 _atom_site_fract_z
 _atom_site_occupancy
  Pu  Pu0  1  0.33382512  0.66674113  0.74999997  1
  Pu  Pu1  1  0.66860364  0.33424180  0.24998413  1
  Sb  Sb0  1  0.17565736  0.35124232  0.25003020  1
  Sb  Sb1  1  0.64737644  0.82370869  0.24998149  1
  Sb  Sb2  1  0.17558504  0.82446616  0.25003441  1
  Sb  Sb3  1  0.82408657  0.64825606  0.74996690  1
  Sb  Sb4  1  0.35099641  0.17555801  0.75003096  1
  Sb  Sb5  1  0.82386942  0.17578584  0.74997194  1
loop_
_geom_bond_atom_site_label_1
_geom_bond_atom_site_label_2
_geom_bond_distance
_geom_bond_site_symmetry_2
Pu0 Sb3 3.227599 1_555
Pu0 Sb5 3.228489 1_565
Pu0 Sb4 3.232106 1_555
Pu0 Sb3 3.233807 1_455
Pu0 Sb5 3.234132 1_455
Pu0 Sb4 3.235129 1_565
Pu0 Sb1 3.471762 1_555
Pu0 Sb1 3.471823 1_556
Pu0 Sb0 3.478008 1_556
Pu0 Sb0 3.478345 1_555
Pu0 Sb2 3.478983 1_555
Pu0 Sb2 3.479735 1_556
Pu1 Sb0 3.221020 1_655
Pu1 Sb2 3.221796 1_655
Pu1 Sb1 3.233872 1_545
Pu1 Sb1 3.234868 1_555
Pu1 Sb0 3.239875 1_555
Pu1 Sb2 3.240047 1_545
Pu1 Sb5 3.472755 1_555
Pu1 Sb5 3.473279 1_554
Pu1 Sb3 3.473749 1_554
Pu1 Sb3 3.474219 1_555
Pu1 Sb4 3.483186 1_554
Pu1 Sb4 3.483414 1_555
Sb0 Sb1 3.049312 1_555
Sb0 Sb2 3.059334 1_555
Sb0 Sb2 3.405049 1_545
Sb0 Sb1 3.409815 1_445
Sb1 Sb2 3.049325 1_555
Sb1 Sb2 3.408772 1_655
Sb3 Sb5 3.053527 1_555
Sb3 Sb4 3.054479 1_555
Sb3 Sb4 3.404644 1_665
Sb3 Sb5 3.410856 1_565
Sb4 Sb5 3.053121 1_555
Sb4 Sb5 3.404972 1_455
