# generated using pymatgen
data_Li4VF6
_symmetry_space_group_name_H-M   'P 1'
_cell_length_a   3.25838900
_cell_length_b   7.59751900
_cell_length_c   14.15209200
_cell_angle_alpha   90.00000000
_cell_angle_beta   90.00000000
_cell_angle_gamma   90.00000000
_symmetry_Int_Tables_number   1
_chemical_formula_structural   Li4VF6
_chemical_formula_sum   'Li8 V2 F12'
_cell_volume   350.34455243
_cell_formula_units_Z   2
loop_
 _symmetry_equiv_pos_site_id
 _symmetry_equiv_pos_as_xyz
  1  'x, y, z'
loop_
 _atom_site_type_symbol
 _atom_site_label
 _atom_site_symmetry_multiplicity
 _atom_site_fract_x
 _atom_site_fract_y
 _atom_site_fract_z
 _atom_site_occupancy
  Li  Li0  1  0.50000000  0.00135300  0.24358300  1
  Li  Li1  1  0.00000000  0.24836800  0.61712700  1
  Li  Li2  1  0.00000000  0.25163200  0.11712700  1
  Li  Li3  1  0.50000000  0.49864700  0.74358300  1
  Li  Li4  1  0.50000000  0.50135300  0.25641700  1
  Li  Li5  1  0.00000000  0.74836800  0.88287300  1
  Li  Li6  1  0.00000000  0.75163200  0.38287300  1
  Li  Li7  1  0.50000000  0.99864700  0.75641700  1
  V  V0  1  0.50000000  0.00000000  0.50000000  1
  V  V1  1  0.50000000  0.50000000  0.00000000  1
  F  F0  1  0.00000000  0.06267300  0.19770700  1
  F  F1  1  0.50000000  0.11371200  0.63975600  1
  F  F2  1  0.00000000  0.17731300  0.48613900  1
  F  F3  1  0.00000000  0.32268700  0.98613900  1
  F  F4  1  0.50000000  0.38628800  0.13975600  1
  F  F5  1  0.00000000  0.43732700  0.69770700  1
  F  F6  1  0.00000000  0.56267300  0.30229300  1
  F  F7  1  0.50000000  0.61371200  0.86024400  1
  F  F8  1  0.00000000  0.67731300  0.01386100  1
  F  F9  1  0.00000000  0.82268700  0.51386100  1
  F  F10  1  0.50000000  0.88628800  0.36024400  1
  F  F11  1  0.00000000  0.93732700  0.80229300  1
loop_
_geom_bond_atom_site_label_1
_geom_bond_atom_site_label_2
_geom_bond_distance
_geom_bond_site_symmetry_2
F0 Li0 1.814617 1_455
F0 Li0 1.814617 1_555
F0 Li2 1.833428 1_555
F1 Li7 1.868163 1_545
F1 Li1 1.950248 1_655
F1 Li1 1.950248 1_555
F1 V0 2.158292 1_555
F2 Li1 1.930760 1_555
F2 V0 2.123096 1_555
F2 V0 2.123096 1_455
F3 Li2 1.930760 1_556
F3 V1 2.123096 1_556
F3 V1 2.123096 1_456
F4 Li4 1.868163 1_555
F4 Li2 1.950248 1_655
F4 Li2 1.950248 1_555
F4 V1 2.158292 1_555
F5 Li3 1.814617 1_555
F5 Li3 1.814617 1_455
F5 Li1 1.833428 1_555
F6 Li4 1.814617 1_555
F6 Li4 1.814617 1_455
F6 Li6 1.833428 1_555
F7 Li3 1.868163 1_555
F7 Li5 1.950248 1_555
F7 Li5 1.950248 1_655
F7 V1 2.158292 1_556
F8 Li5 1.930760 1_554
F8 V1 2.123096 1_555
F8 V1 2.123096 1_455
F9 Li6 1.930760 1_555
F9 V0 2.123096 1_565
F9 V0 2.123096 1_465
F10 Li0 1.868163 1_565
F10 Li6 1.950248 1_655
F10 Li6 1.950248 1_555
F10 V0 2.158292 1_565
F11 Li7 1.814617 1_555
F11 Li7 1.814617 1_455
F11 Li5 1.833428 1_555
