# generated using pymatgen
data_Gd2ReC2
_symmetry_space_group_name_H-M   'P 1'
_cell_length_a   5.19287108
_cell_length_b   6.59972954
_cell_length_c   9.99020350
_cell_angle_alpha   90.00000000
_cell_angle_beta   90.00000000
_cell_angle_gamma   90.00000000
_symmetry_Int_Tables_number   1
_chemical_formula_structural   Gd2ReC2
_chemical_formula_sum   'Gd8 Re4 C8'
_cell_volume   342.37970545
_cell_formula_units_Z   4
loop_
 _symmetry_equiv_pos_site_id
 _symmetry_equiv_pos_as_xyz
  1  'x, y, z'
loop_
 _atom_site_type_symbol
 _atom_site_label
 _atom_site_symmetry_multiplicity
 _atom_site_fract_x
 _atom_site_fract_y
 _atom_site_fract_z
 _atom_site_occupancy
  Gd  Gd0  1  0.25000000  0.46887264  0.28482699  1
  Gd  Gd1  1  0.75000000  0.03112736  0.78482699  1
  Gd  Gd2  1  0.25000000  0.96887264  0.21517301  1
  Gd  Gd3  1  0.75000000  0.53112736  0.71517301  1
  Gd  Gd4  1  0.25000000  0.81680645  0.55418782  1
  Gd  Gd5  1  0.75000000  0.68319355  0.05418782  1
  Gd  Gd6  1  0.25000000  0.31680645  0.94581218  1
  Gd  Gd7  1  0.75000000  0.18319355  0.44581218  1
  Re  Re0  1  0.25000000  0.27591126  0.63777281  1
  Re  Re1  1  0.75000000  0.22408874  0.13777281  1
  Re  Re2  1  0.25000000  0.77591126  0.86222719  1
  Re  Re3  1  0.75000000  0.72408874  0.36222719  1
  C  C0  1  0.25000000  0.04200395  0.75890963  1
  C  C1  1  0.75000000  0.45799605  0.25890963  1
  C  C2  1  0.25000000  0.54200395  0.74109037  1
  C  C3  1  0.75000000  0.95799605  0.24109037  1
  C  C4  1  0.25000000  0.68241917  0.04370711  1
  C  C5  1  0.75000000  0.81758083  0.54370711  1
  C  C6  1  0.25000000  0.18241917  0.45629289  1
  C  C7  1  0.75000000  0.31758083  0.95629289  1
loop_
_geom_bond_atom_site_label_1
_geom_bond_atom_site_label_2
_geom_bond_distance
_geom_bond_site_symmetry_2
C0 Re0 1.961537 1_555
C0 Re2 2.037005 1_545
C0 Gd4 2.528203 1_545
C0 Gd6 2.603006 1_555
C0 Gd1 2.610301 1_555
C0 Gd1 2.610301 1_455
C1 Re1 1.961537 1_555
C1 Re3 2.037005 1_555
C1 Gd5 2.528203 1_555
C1 Gd7 2.603006 1_555
C1 Gd0 2.610301 1_655
C1 Gd0 2.610301 1_555
C2 Re2 1.961537 1_555
C2 Re0 2.037005 1_555
C2 Gd6 2.528203 1_555
C2 Gd4 2.603006 1_555
C2 Gd3 2.610301 1_455
C2 Gd3 2.610301 1_555
C3 Re3 1.961537 1_555
C3 Re1 2.037005 1_565
C3 Gd7 2.528203 1_565
C3 Gd5 2.603006 1_555
C3 Gd2 2.610301 1_555
C3 Gd2 2.610301 1_655
C4 Re2 1.915140 1_554
C4 Gd2 2.551146 1_555
C4 Gd5 2.598551 1_455
C4 Gd5 2.598551 1_555
C4 Gd6 2.603607 1_554
C4 Gd0 2.790835 1_555
C5 Re3 1.915140 1_555
C5 Gd3 2.551146 1_555
C5 Gd4 2.598551 1_555
C5 Gd4 2.598551 1_655
C5 Gd7 2.603607 1_565
C5 Gd1 2.790835 1_565
C6 Re0 1.915140 1_555
C6 Gd0 2.551146 1_555
C6 Gd7 2.598551 1_455
C6 Gd7 2.598551 1_555
C6 Gd4 2.603607 1_545
C6 Gd2 2.790835 1_545
C7 Re1 1.915140 1_556
C7 Gd1 2.551146 1_555
C7 Gd6 2.598551 1_655
C7 Gd6 2.598551 1_555
C7 Gd5 2.603607 1_556
C7 Gd3 2.790835 1_555
