# generated using pymatgen
data_LiV2(PO4)3
_symmetry_space_group_name_H-M   'P 1'
_cell_length_a   8.33888200
_cell_length_b   8.34909714
_cell_length_c   8.87455794
_cell_angle_alpha   117.63968178
_cell_angle_beta   90.25585297
_cell_angle_gamma   119.90199837
_symmetry_Int_Tables_number   1
_chemical_formula_structural   LiV2(PO4)3
_chemical_formula_sum   'Li2 V4 P6 O24'
_cell_volume   451.58426539
_cell_formula_units_Z   2
loop_
 _symmetry_equiv_pos_site_id
 _symmetry_equiv_pos_as_xyz
  1  'x, y, z'
loop_
 _atom_site_type_symbol
 _atom_site_label
 _atom_site_symmetry_multiplicity
 _atom_site_fract_x
 _atom_site_fract_y
 _atom_site_fract_z
 _atom_site_occupancy
  Li  Li0  1  0.53640600  0.21695800  0.86175300  1
  Li  Li1  1  0.46359400  0.78304200  0.13824700  1
  V  V0  1  0.76994600  0.41779200  0.94270500  1
  V  V1  1  0.28820200  0.42362700  0.42937600  1
  V  V2  1  0.71179800  0.57637300  0.57062400  1
  V  V3  1  0.23005400  0.58220800  0.05729500  1
  P  P0  1  0.74903600  0.71530000  0.75177000  1
  P  P1  1  0.47641700  0.00764100  0.74546100  1
  P  P2  1  0.03312300  0.28280400  0.75110100  1
  P  P3  1  0.96687700  0.71719600  0.24889900  1
  P  P4  1  0.52358300  0.99235900  0.25453900  1
  P  P5  1  0.25096400  0.28470000  0.24823000  1
  O  O0  1  0.43250000  0.60087100  0.89415300  1
  O  O1  1  0.85885600  0.68440700  0.80295900  1
  O  O2  1  0.22061700  0.74313600  0.80078200  1
  O  O3  1  0.37214800  0.89137600  0.89760100  1
  O  O4  1  0.69668500  0.92873400  0.91690100  1
  O  O5  1  0.05906400  0.04999000  0.57104300  1
  O  O6  1  0.45166300  0.18169600  0.72065900  1
  O  O7  1  0.84807400  0.21802400  0.57200400  1
  O  O8  1  0.92225200  0.38542400  0.79446900  1
  O  O9  1  0.27904400  0.38758100  0.72880100  1
  O  O10  1  0.21543100  0.41667600  0.58029300  1
  O  O11  1  0.64188800  0.52427800  0.73729800  1
  O  O12  1  0.35811200  0.47572200  0.26270200  1
  O  O13  1  0.78456900  0.58332400  0.41970700  1
  O  O14  1  0.72095600  0.61241900  0.27119900  1
  O  O15  1  0.07774800  0.61457600  0.20553100  1
  O  O16  1  0.15192600  0.78197600  0.42799600  1
  O  O17  1  0.54833700  0.81830400  0.27934100  1
  O  O18  1  0.94093600  0.95001000  0.42895700  1
  O  O19  1  0.30331500  0.07126600  0.08309900  1
  O  O20  1  0.62785200  0.10862400  0.10239900  1
  O  O21  1  0.77938300  0.25686400  0.19921800  1
  O  O22  1  0.14114400  0.31559300  0.19704000  1
  O  O23  1  0.56750000  0.39912900  0.10584700  1
loop_
_geom_bond_atom_site_label_1
_geom_bond_atom_site_label_2
_geom_bond_distance
_geom_bond_site_symmetry_2
Li0 O6 1.263549 1_555
Li0 P1 1.349007 1_555
Li0 V0 1.653592 1_555
Li0 O23 1.902090 1_556
Li1 O17 1.263549 1_555
Li1 P4 1.349007 1_555
Li1 V3 1.653592 1_555
Li1 O0 1.902090 1_554
P0 V2 1.390154 1_555
P5 V1 1.390154 1_555
O0 O9 1.499562 1_555
O0 V3 2.222441 1_556
O1 P0 1.205009 1_555
O2 O3 1.145042 1_555
O3 P1 1.976423 1_565
O4 P0 1.967743 1_555
O5 P2 1.979638 1_555
O6 P1 1.672812 1_555
O7 O8 1.673547 1_555
O7 P2 1.883690 1_655
O8 P2 1.491305 1_655
O8 V0 1.855797 1_555
O9 P2 1.839959 1_555
O10 V1 1.486491 1_555
O10 O9 1.580078 1_555
O11 P0 1.321575 1_555
O11 V2 1.751785 1_555
O12 P5 1.321575 1_555
O12 V1 1.751785 1_555
O13 V2 1.486491 1_555
O13 O14 1.580078 1_555
O14 O23 1.499562 1_555
O14 P3 1.839959 1_555
O15 P3 1.491305 1_455
O15 O16 1.673547 1_555
O15 V3 1.855797 1_555
O16 P3 1.883690 1_455
O17 P4 1.672812 1_555
O18 O5 1.203997 1_665
O18 P3 1.979638 1_555
O19 P5 1.967743 1_555
O20 O21 1.145042 1_555
O20 P4 1.976423 1_545
O22 P5 1.205013 1_555
O23 V0 2.222441 1_554
