# generated using pymatgen
data_Lu2(NiB2)3
_symmetry_space_group_name_H-M   'P 1'
_cell_length_a   3.40575250
_cell_length_b   5.71359417
_cell_length_c   5.71359683
_cell_angle_alpha   96.69743627
_cell_angle_beta   90.00000000
_cell_angle_gamma   90.00000000
_symmetry_Int_Tables_number   1
_chemical_formula_structural   Lu2(NiB2)3
_chemical_formula_sum   'Lu2 Ni3 B6'
_cell_volume   110.42266515
_cell_formula_units_Z   1
loop_
 _symmetry_equiv_pos_site_id
 _symmetry_equiv_pos_as_xyz
  1  'x, y, z'
loop_
 _atom_site_type_symbol
 _atom_site_label
 _atom_site_symmetry_multiplicity
 _atom_site_fract_x
 _atom_site_fract_y
 _atom_site_fract_z
 _atom_site_occupancy
  Lu  Lu0  1  0.00000000  0.72408440  0.27591709  1
  Lu  Lu1  1  0.00000000  0.27591560  0.72408291  1
  Ni  Ni0  1  0.00000000  0.77315751  0.77315587  1
  Ni  Ni1  1  0.00000000  0.22684249  0.22684413  1
  Ni  Ni2  1  0.50000000  0.00000000  -0.00000000  1
  B  B0  1  0.50000000  0.61240297  0.61240263  1
  B  B1  1  0.50000000  0.38759703  0.38759737  1
  B  B2  1  0.50000000  0.91724838  0.61653886  1
  B  B3  1  0.50000000  0.08275162  0.38346114  1
  B  B4  1  0.50000000  0.61653915  0.91724800  1
  B  B5  1  0.50000000  0.38346085  0.08275200  1
loop_
_geom_bond_atom_site_label_1
_geom_bond_atom_site_label_2
_geom_bond_distance
_geom_bond_site_symmetry_2
Lu0 Ni0 2.822094 1_555
Lu0 Ni1 2.822111 1_555
Lu0 Ni2 2.906893 1_565
Lu0 Ni2 2.906893 1_465
Lu0 Ni1 2.918571 1_565
Lu0 Ni0 2.918590 1_554
Lu1 Ni1 2.822094 1_555
Lu1 Ni0 2.822111 1_555
Lu1 Ni2 2.906893 1_556
Lu1 Ni2 2.906893 1_456
Lu1 Ni0 2.918571 1_545
Lu1 Ni1 2.918590 1_556
Ni0 Ni2 2.422326 1_566
Ni0 Ni2 2.422326 1_466
Ni1 Ni2 2.422326 1_455
Ni1 Ni2 2.422326 1_555
B0 B1 1.707276 1_555
B0 B2 1.739165 1_555
B0 B4 1.739166 1_555
B0 Ni0 2.095289 1_655
B0 Ni0 2.095289 1_555
B0 Lu0 2.699867 1_555
B0 Lu0 2.699867 1_655
B0 Lu1 2.699872 1_555
B0 Lu1 2.699872 1_655
B1 B3 1.739165 1_555
B1 B5 1.739166 1_555
B1 Ni1 2.095289 1_655
B1 Ni1 2.095289 1_555
B1 Lu1 2.699867 1_655
B1 Lu1 2.699867 1_555
B1 Lu0 2.699872 1_555
B1 Lu0 2.699872 1_655
B2 B3 1.720867 1_565
B2 Ni0 2.133111 1_655
B2 Ni0 2.133111 1_555
B2 Ni2 2.186813 1_566
B2 Lu1 2.680146 1_565
B2 Lu1 2.680146 1_665
B2 Lu0 2.721111 1_655
B2 Lu0 2.721111 1_555
B3 Ni1 2.133111 1_555
B3 Ni1 2.133111 1_655
B3 Ni2 2.186813 1_555
B3 Lu0 2.680146 1_545
B3 Lu0 2.680146 1_645
B3 Lu1 2.721111 1_555
B3 Lu1 2.721111 1_655
B4 B5 1.720873 1_556
B4 Ni0 2.133117 1_555
B4 Ni0 2.133117 1_655
B4 Ni2 2.186811 1_566
B4 Lu0 2.680156 1_656
B4 Lu0 2.680156 1_556
B4 Lu1 2.721120 1_555
B4 Lu1 2.721120 1_655
B5 Ni1 2.133117 1_555
B5 Ni1 2.133117 1_655
B5 Ni2 2.186811 1_555
B5 Lu1 2.680156 1_654
B5 Lu1 2.680156 1_554
B5 Lu0 2.721120 1_555
B5 Lu0 2.721120 1_655
