# generated using pymatgen
data_Mg2AgRh
_symmetry_space_group_name_H-M   'P 1'
_cell_length_a   4.49604828
_cell_length_b   4.49605115
_cell_length_c   4.49604041
_cell_angle_alpha   59.99984731
_cell_angle_beta   59.99994204
_cell_angle_gamma   59.99989454
_symmetry_Int_Tables_number   1
_chemical_formula_structural   Mg2AgRh
_chemical_formula_sum   'Mg2 Ag1 Rh1'
_cell_volume   64.26527644
_cell_formula_units_Z   1
loop_
 _symmetry_equiv_pos_site_id
 _symmetry_equiv_pos_as_xyz
  1  'x, y, z'
loop_
 _atom_site_type_symbol
 _atom_site_label
 _atom_site_symmetry_multiplicity
 _atom_site_fract_x
 _atom_site_fract_y
 _atom_site_fract_z
 _atom_site_occupancy
  Mg  Mg0  1  0.99999900  0.00000100  0.00000000  1
  Mg  Mg1  1  0.50000100  0.50000000  0.50000000  1
  Ag  Ag0  1  0.25000000  0.25000000  0.25000000  1
  Rh  Rh0  1  0.75000000  0.74999900  0.75000000  1
loop_
_geom_bond_atom_site_label_1
_geom_bond_atom_site_label_2
_geom_bond_distance
_geom_bond_site_symmetry_2
Mg0 Rh0 2.753245 1_554
Mg0 Rh0 2.753248 1_545
Mg0 Rh0 2.753257 1_644
Mg0 Rh0 2.753261 1_544
Mg1 Rh0 2.753248 1_554
Mg1 Rh0 2.753250 1_555
Mg1 Rh0 2.753256 1_545
Mg1 Rh0 2.753257 1_455
Ag0 Mg1 2.753248 1_554
Ag0 Mg0 2.753248 1_456
Ag0 Mg1 2.753250 1_455
Ag0 Mg0 2.753250 1_555
Ag0 Mg1 2.753253 1_545
Ag0 Mg0 2.753256 1_465
Ag0 Mg0 2.753257 1_455
Ag0 Mg1 2.753261 1_555
