# generated using pymatgen
data_Ru3W
_symmetry_space_group_name_H-M   'P 1'
_cell_length_a   5.47147721
_cell_length_b   5.47147867
_cell_length_c   4.35412186
_cell_angle_alpha   90.00000000
_cell_angle_beta   90.00000000
_cell_angle_gamma   120.00000355
_symmetry_Int_Tables_number   1
_chemical_formula_structural   Ru3W
_chemical_formula_sum   'Ru6 W2'
_cell_volume   112.88610822
_cell_formula_units_Z   2
loop_
 _symmetry_equiv_pos_site_id
 _symmetry_equiv_pos_as_xyz
  1  'x, y, z'
loop_
 _atom_site_type_symbol
 _atom_site_label
 _atom_site_symmetry_multiplicity
 _atom_site_fract_x
 _atom_site_fract_y
 _atom_site_fract_z
 _atom_site_occupancy
  Ru  Ru0  1  0.16631741  0.33263682  0.24999900  1
  Ru  Ru1  1  0.66736218  0.83368159  0.24999900  1
  Ru  Ru2  1  0.16631941  0.83368159  0.24999900  1
  Ru  Ru3  1  0.83367959  0.66736018  0.75000000  1
  Ru  Ru4  1  0.33263782  0.16631841  0.75000000  1
  Ru  Ru5  1  0.83368059  0.16631841  0.75000000  1
  W  W0  1  0.33333400  0.66666800  0.75000000  1
  W  W1  1  0.66666700  0.33333300  0.24999900  1
loop_
_geom_bond_atom_site_label_1
_geom_bond_atom_site_label_2
_geom_bond_distance
_geom_bond_site_symmetry_2
Ru0 Ru5 2.687734 1_454
Ru0 Ru4 2.687740 1_554
Ru0 Ru5 2.687741 1_455
Ru0 Ru4 2.687747 1_555
Ru0 W0 2.691614 1_554
Ru0 W0 2.691622 1_555
Ru0 Ru1 2.730022 1_445
Ru0 Ru2 2.730028 1_545
Ru0 W1 2.735732 1_455
Ru0 W1 2.735749 1_555
Ru0 Ru2 2.741450 1_555
Ru0 Ru1 2.741455 1_555
Ru1 Ru5 2.687735 1_564
Ru1 Ru3 2.687740 1_554
Ru1 Ru5 2.687742 1_565
Ru1 Ru3 2.687747 1_555
Ru1 W0 2.691606 1_554
Ru1 W0 2.691613 1_555
Ru1 Ru2 2.730033 1_655
Ru1 W1 2.735736 1_565
Ru1 W1 2.735747 1_555
Ru1 Ru2 2.741444 1_555
Ru2 Ru4 2.687735 1_564
Ru2 Ru4 2.687742 1_565
Ru2 Ru3 2.687743 1_454
Ru2 Ru3 2.687750 1_455
Ru2 W0 2.691606 1_554
Ru2 W0 2.691613 1_555
Ru2 W1 2.735738 1_565
Ru2 W1 2.735744 1_455
Ru3 W1 2.691603 1_556
Ru3 W1 2.691610 1_555
Ru3 Ru5 2.730037 1_565
Ru3 Ru4 2.730039 1_665
Ru3 W0 2.735738 1_555
Ru3 W0 2.735743 1_655
Ru3 Ru4 2.741439 1_555
Ru3 Ru5 2.741442 1_555
Ru4 W1 2.691609 1_556
Ru4 W1 2.691616 1_555
Ru4 Ru5 2.730033 1_455
Ru4 W0 2.735733 1_545
Ru4 W0 2.735750 1_555
Ru4 Ru5 2.741444 1_555
Ru5 W1 2.691606 1_556
Ru5 W1 2.691613 1_555
Ru5 W0 2.735733 1_545
Ru5 W0 2.735749 1_655
