# generated using pymatgen
data_PmInRh2
_symmetry_space_group_name_H-M   'P 1'
_cell_length_a   4.73809850
_cell_length_b   4.73809850
_cell_length_c   4.73809850
_cell_angle_alpha   60.00000000
_cell_angle_beta   60.00000000
_cell_angle_gamma   60.00000000
_symmetry_Int_Tables_number   1
_chemical_formula_structural   PmInRh2
_chemical_formula_sum   'Pm1 In1 Rh2'
_cell_volume   75.21375263
_cell_formula_units_Z   1
loop_
 _symmetry_equiv_pos_site_id
 _symmetry_equiv_pos_as_xyz
  1  'x, y, z'
loop_
 _atom_site_type_symbol
 _atom_site_label
 _atom_site_symmetry_multiplicity
 _atom_site_fract_x
 _atom_site_fract_y
 _atom_site_fract_z
 _atom_site_occupancy
  Pm  Pm0  1  0.75000000  0.75000000  0.75000000  1
  In  In0  1  0.24999900  0.24999900  0.24999900  1
  Rh  Rh0  1  -0.00000000  -0.00000000  -0.00000000  1
  Rh  Rh1  1  0.50000000  0.50000000  0.50000000  1
loop_
_geom_bond_atom_site_label_1
_geom_bond_atom_site_label_2
_geom_bond_distance
_geom_bond_site_symmetry_2
Pm0 Rh1 2.901481 1_655
Pm0 Rh0 2.901481 1_566
Pm0 Rh0 2.901481 1_656
Pm0 Rh1 2.901481 1_555
Pm0 Rh1 2.901481 1_556
Pm0 Rh0 2.901481 1_665
Pm0 Rh0 2.901481 1_666
Pm0 Rh1 2.901481 1_565
In0 Rh0 2.901469 1_555
In0 Rh1 2.901477 1_455
In0 Rh1 2.901477 1_545
In0 Rh1 2.901477 1_554
In0 Rh0 2.901485 1_556
In0 Rh0 2.901485 1_565
In0 Rh0 2.901485 1_655
In0 Rh1 2.901493 1_555
