# generated using pymatgen
data_Y2S2O
_symmetry_space_group_name_H-M   'P 1'
_cell_length_a   6.88957021
_cell_length_b   6.86494051
_cell_length_c   8.27537215
_cell_angle_alpha   80.48365051
_cell_angle_beta   90.00000000
_cell_angle_gamma   90.00000000
_symmetry_Int_Tables_number   1
_chemical_formula_structural   Y2S2O
_chemical_formula_sum   'Y8 S8 O4'
_cell_volume   386.00984268
_cell_formula_units_Z   4
loop_
 _symmetry_equiv_pos_site_id
 _symmetry_equiv_pos_as_xyz
  1  'x, y, z'
loop_
 _atom_site_type_symbol
 _atom_site_label
 _atom_site_symmetry_multiplicity
 _atom_site_fract_x
 _atom_site_fract_y
 _atom_site_fract_z
 _atom_site_occupancy
  Y  Y0  1  0.05415845  0.25006458  0.86155450  1
  Y  Y1  1  0.55415845  0.24993542  0.13844550  1
  Y  Y2  1  0.94584155  0.74993542  0.13844550  1
  Y  Y3  1  0.44584155  0.75006458  0.86155450  1
  Y  Y4  1  0.14444389  0.32150348  0.42442148  1
  Y  Y5  1  0.64444389  0.17849652  0.57557852  1
  Y  Y6  1  0.85555611  0.67849652  0.57557852  1
  Y  Y7  1  0.35555611  0.82150348  0.42442148  1
  S  S0  1  0.72300163  0.03041604  0.92388027  1
  S  S1  1  0.63343596  0.57601723  0.31932267  1
  S  S2  1  0.36656404  0.42398277  0.68067733  1
  S  S3  1  0.86656404  0.07601723  0.31932267  1
  S  S4  1  0.22300163  0.46958396  0.07611973  1
  S  S5  1  0.27699837  0.96958396  0.07611973  1
  S  S6  1  0.77699837  0.53041604  0.92388027  1
  S  S7  1  0.13343596  0.92398277  0.68067733  1
  O  O0  1  0.08710465  0.64955091  0.38341300  1
  O  O1  1  0.41289535  0.14955091  0.38341300  1
  O  O2  1  0.91289535  0.35044909  0.61658700  1
  O  O3  1  0.58710465  0.85044909  0.61658700  1
loop_
_geom_bond_atom_site_label_1
_geom_bond_atom_site_label_2
_geom_bond_distance
_geom_bond_site_symmetry_2
S0 Y0 2.736406 1_655
S0 Y1 2.767985 1_556
S0 Y3 2.818609 1_545
S0 Y2 2.843736 1_546
S0 Y5 2.943686 1_555
S1 Y2 2.776260 1_555
S1 Y7 2.783227 1_555
S1 Y6 2.797693 1_555
S1 Y1 2.942409 1_555
S1 Y5 3.168030 1_555
S2 Y0 2.776260 1_555
S2 Y5 2.783227 1_555
S2 Y4 2.797693 1_555
S2 Y3 2.942409 1_555
S2 Y7 3.168030 1_555
S3 Y1 2.776260 1_555
S3 Y4 2.783227 1_655
S3 Y5 2.797693 1_555
S3 Y2 2.942409 1_545
S3 Y6 3.168030 1_545
S4 Y1 2.736406 1_555
S4 Y0 2.767985 1_554
S4 Y2 2.818609 1_455
S4 Y3 2.843736 1_554
S4 Y4 2.943686 1_555
S5 Y2 2.736406 1_455
S5 Y3 2.767985 1_554
S5 Y1 2.818609 1_565
S5 Y0 2.843736 1_564
S5 Y7 2.943686 1_555
S6 Y3 2.736406 1_555
S6 Y2 2.767985 1_556
S6 Y0 2.818609 1_655
S6 Y1 2.843736 1_556
S6 Y6 2.943686 1_555
S7 Y3 2.776260 1_555
S7 Y6 2.783227 1_455
S7 Y7 2.797693 1_555
S7 Y0 2.942409 1_565
S7 Y4 3.168030 1_565
O0 Y7 2.249840 1_555
O0 Y2 2.251600 1_455
O0 Y4 2.256134 1_555
O0 Y6 2.284234 1_455
O1 Y4 2.249840 1_555
O1 Y1 2.251600 1_555
O1 Y7 2.256134 1_545
O1 Y5 2.284234 1_555
O2 Y5 2.249840 1_555
O2 Y0 2.251600 1_655
O2 Y6 2.256134 1_555
O2 Y4 2.284234 1_655
O3 Y6 2.249840 1_555
O3 Y3 2.251600 1_555
O3 Y5 2.256134 1_565
O3 Y7 2.284234 1_555
