# generated using pymatgen
data_Li3Fe8(BO3)8
_symmetry_space_group_name_H-M   'P 1'
_cell_length_a   5.25828000
_cell_length_b   5.27390833
_cell_length_c   20.16484421
_cell_angle_alpha   90.51824891
_cell_angle_beta   89.89561654
_cell_angle_gamma   119.50900365
_symmetry_Int_Tables_number   1
_chemical_formula_structural   Li3Fe8(BO3)8
_chemical_formula_sum   'Li3 Fe8 B8 O24'
_cell_volume   486.64196656
_cell_formula_units_Z   1
loop_
 _symmetry_equiv_pos_site_id
 _symmetry_equiv_pos_as_xyz
  1  'x, y, z'
loop_
 _atom_site_type_symbol
 _atom_site_label
 _atom_site_symmetry_multiplicity
 _atom_site_fract_x
 _atom_site_fract_y
 _atom_site_fract_z
 _atom_site_occupancy
  Li  Li0  1  0.35966400  0.33235400  0.66788500  1
  Li  Li1  1  0.33220900  0.35699800  0.92047100  1
  Li  Li2  1  0.33374900  0.35912700  0.41809000  1
  Fe  Fe0  1  0.32320100  0.98343900  0.81054200  1
  Fe  Fe1  1  0.32222900  0.98206700  0.31022300  1
  Fe  Fe2  1  0.99101800  0.68480600  0.93747100  1
  Fe  Fe3  1  0.99348500  0.68476300  0.43668400  1
  Fe  Fe4  1  0.98445800  0.32473500  0.56021000  1
  Fe  Fe5  1  0.99945500  0.32786600  0.05953700  1
  Fe  Fe6  1  0.68544000  0.99230900  0.68655000  1
  Fe  Fe7  1  0.67289400  0.00071100  0.18396200  1
  B  B0  1  0.66030700  0.00409400  0.93594000  1
  B  B1  1  0.66461600  0.00476400  0.43558500  1
  B  B2  1  0.98955800  0.32704200  0.81326400  1
  B  B3  1  0.99047500  0.32830400  0.31175900  1
  B  B4  1  0.00466500  0.66301900  0.68575700  1
  B  B5  1  0.99972000  0.65924300  0.18544200  1
  B  B6  1  0.32743400  0.98958200  0.56267300  1
  B  B7  1  0.33524000  0.99745900  0.06170200  1
  O  O0  1  0.72525500  0.11106800  0.78826800  1
  O  O1  1  0.72738100  0.11744700  0.28383000  1
  O  O2  1  0.91262400  0.25791500  0.95881700  1
  O  O3  1  0.42162900  0.03257700  0.91359400  1
  O  O4  1  0.91805500  0.25636800  0.45862500  1
  O  O5  1  0.42742400  0.03598800  0.41281600  1
  O  O6  1  0.02070100  0.59537600  0.83163400  1
  O  O7  1  0.28047900  0.22146500  0.57016100  1
  O  O8  1  0.01854800  0.59291400  0.33237700  1
  O  O9  1  0.30073400  0.23564700  0.05928700  1
  O  O10  1  0.22091400  0.27923300  0.82163200  1
  O  O11  1  0.21488600  0.27344400  0.32227300  1
  O  O12  1  0.74069800  0.64900000  0.68417200  1
  O  O13  1  0.76716900  0.70236200  0.18350500  1
  O  O14  1  0.64895900  0.74246500  0.93508600  1
  O  O15  1  0.03616800  0.42510700  0.66357700  1
  O  O16  1  0.64992400  0.74146000  0.43404500  1
  O  O17  1  0.98958000  0.40211500  0.16309000  1
  O  O18  1  0.59601700  0.02141500  0.58136500  1
  O  O19  1  0.59848000  0.01910200  0.08451300  1
  O  O20  1  0.11128600  0.72504600  0.53809800  1
  O  O21  1  0.11637600  0.72749100  0.03983500  1
  O  O22  1  0.25636700  0.91793000  0.70840800  1
  O  O23  1  0.26842300  0.87858500  0.21135000  1
loop_
_geom_bond_atom_site_label_1
_geom_bond_atom_site_label_2
_geom_bond_distance
_geom_bond_site_symmetry_2
Li0 O12 1.899299 1_555
Li0 O15 1.990319 1_555
Li0 O7 2.034911 1_555
Li0 O22 2.144980 1_545
Li1 O14 1.910257 1_555
Li1 O3 1.988897 1_555
Li1 O10 2.058166 1_555
Li1 O2 2.145703 1_455
Li2 O16 1.902928 1_555
Li2 O5 1.995427 1_555
Li2 O11 2.009568 1_555
Li2 O4 2.138744 1_455
Fe0 O10 1.895436 1_565
Fe0 O6 1.925079 1_555
Fe0 O0 1.929882 1_565
Fe0 O22 2.086775 1_555
Fe0 O3 2.124917 1_565
Fe1 O11 1.893747 1_565
Fe1 O8 1.935743 1_555
Fe1 O1 1.958556 1_565
Fe1 O23 2.045294 1_555
Fe1 O5 2.122551 1_565
Fe2 O14 1.967049 1_555
Fe2 O2 2.127572 1_555
Fe2 O21 2.143894 1_656
Fe2 O3 2.154898 1_665
Fe2 O6 2.203329 1_655
Fe3 O16 1.971956 1_555
Fe3 O20 2.116119 1_655
Fe3 O4 2.142950 1_555
Fe3 O5 2.172021 1_665
Fe3 O8 2.172436 1_655
Fe4 O7 1.896849 1_655
Fe4 O18 1.924391 1_555
Fe4 O20 1.931239 1_655
Fe4 O4 2.076842 1_555
Fe4 O15 2.130516 1_655
Fe5 O9 1.872227 1_655
Fe5 O21 1.927570 1_655
Fe5 O19 1.994872 1_555
Fe5 O2 2.072059 1_554
Fe5 O17 2.126303 1_555
Fe6 O12 1.970168 1_555
Fe6 O0 2.119525 1_565
Fe6 O22 2.136859 1_555
Fe6 O15 2.166767 1_665
Fe6 O18 2.196383 1_565
Fe7 O13 1.868085 1_545
Fe7 O23 1.973806 1_545
Fe7 O17 1.993102 1_555
Fe7 O19 2.056162 1_555
Fe7 O1 2.079064 1_555
B0 O14 1.351366 1_545
B0 O3 1.410578 1_555
B0 O2 1.416497 1_555
B1 O16 1.352332 1_545
B1 O5 1.413953 1_555
B1 O4 1.414795 1_555
B2 O10 1.369560 1_655
B2 O0 1.384070 1_555
B2 O6 1.388948 1_655
B3 O11 1.363616 1_655
B3 O8 1.388862 1_655
B3 O1 1.394147 1_555
B4 O12 1.353547 1_455
B4 O15 1.412851 1_555
B4 O22 1.416311 1_555
B5 O13 1.350110 1_555
B5 O17 1.400972 1_555
B5 O23 1.410339 1_655
B6 O7 1.368683 1_565
B6 O20 1.382475 1_555
B6 O18 1.389973 1_565
B7 O9 1.356081 1_565
B7 O21 1.386493 1_555
B7 O19 1.409367 1_565
