# generated using pymatgen
data_Mn2OF3
_symmetry_space_group_name_H-M   'P 1'
_cell_length_a   4.88049359
_cell_length_b   4.88049359
_cell_length_c   15.85286400
_cell_angle_alpha   90.00000000
_cell_angle_beta   90.00000000
_cell_angle_gamma   92.49063977
_symmetry_Int_Tables_number   1
_chemical_formula_structural   Mn2OF3
_chemical_formula_sum   'Mn10 O5 F15'
_cell_volume   377.24611020
_cell_formula_units_Z   5
loop_
 _symmetry_equiv_pos_site_id
 _symmetry_equiv_pos_as_xyz
  1  'x, y, z'
loop_
 _atom_site_type_symbol
 _atom_site_label
 _atom_site_symmetry_multiplicity
 _atom_site_fract_x
 _atom_site_fract_y
 _atom_site_fract_z
 _atom_site_occupancy
  Mn  Mn0  1  0.96200700  0.96200700  0.19948500  1
  Mn  Mn1  1  0.03605400  0.03605400  0.00000000  1
  Mn  Mn2  1  0.96200700  0.96200700  0.80051500  1
  Mn  Mn3  1  0.02688100  0.02688100  0.39983300  1
  Mn  Mn4  1  0.02688100  0.02688100  0.60016700  1
  Mn  Mn5  1  0.49313500  0.49313500  0.30029600  1
  Mn  Mn6  1  0.50017300  0.50017300  0.90001500  1
  Mn  Mn7  1  0.50017300  0.50017300  0.09998500  1
  Mn  Mn8  1  0.49313500  0.49313500  0.69970400  1
  Mn  Mn9  1  0.49774500  0.49774500  0.50000000  1
  O  O0  1  0.33460700  0.33460700  0.00000000  1
  O  O1  1  0.32341000  0.32341000  0.40007700  1
  O  O2  1  0.32341000  0.32341000  0.59992300  1
  O  O3  1  0.66356800  0.66356800  0.79961800  1
  O  O4  1  0.66356800  0.66356800  0.20038200  1
  F  F0  1  0.79157200  0.19616300  0.69959300  1
  F  F1  1  0.79607500  0.20342200  0.90017600  1
  F  F2  1  0.79607500  0.20342200  0.09982400  1
  F  F3  1  0.79157200  0.19616300  0.30040700  1
  F  F4  1  0.81871300  0.20864600  0.50000000  1
  F  F5  1  0.27802700  0.27802700  0.80074600  1
  F  F6  1  0.27802700  0.27802700  0.19925400  1
  F  F7  1  0.71939100  0.71939100  0.00000000  1
  F  F8  1  0.70798800  0.70798800  0.40446400  1
  F  F9  1  0.70798800  0.70798800  0.59553600  1
  F  F10  1  0.20342200  0.79607500  0.90017600  1
  F  F11  1  0.20342200  0.79607500  0.09982400  1
  F  F12  1  0.19616300  0.79157200  0.30040700  1
  F  F13  1  0.19616300  0.79157200  0.69959300  1
  F  F14  1  0.20864600  0.81871300  0.50000000  1
loop_
_geom_bond_atom_site_label_1
_geom_bond_atom_site_label_2
_geom_bond_distance
_geom_bond_site_symmetry_2
Mn0 O4 2.014641 1_555
Mn1 O0 2.015360 1_555
Mn2 O3 2.014641 1_555
Mn3 O1 2.001701 1_555
Mn4 O2 2.001701 1_555
Mn5 O1 1.953152 1_555
Mn5 O4 1.957665 1_555
Mn6 O3 1.936415 1_555
Mn6 O0 1.939459 1_556
Mn7 O4 1.936415 1_555
Mn7 O0 1.939459 1_555
Mn8 O2 1.953152 1_555
Mn8 O3 1.957665 1_555
Mn9 O1 1.973374 1_555
Mn9 O2 1.973374 1_555
F0 Mn8 2.098952 1_555
F0 Mn4 2.137353 1_655
F0 Mn2 2.154111 1_545
F1 Mn6 2.089234 1_555
F1 Mn2 2.150137 1_545
F1 Mn1 2.150910 1_656
F2 Mn7 2.089234 1_555
F2 Mn0 2.150137 1_545
F2 Mn1 2.150910 1_655
F3 Mn5 2.098952 1_555
F3 Mn3 2.137353 1_655
F3 Mn0 2.154111 1_545
F4 Mn4 2.102141 1_655
F4 Mn3 2.102141 1_655
F4 Mn9 2.153307 1_555
F5 Mn2 2.133273 1_445
F5 Mn8 2.162010 1_555
F5 Mn6 2.173768 1_555
F6 Mn0 2.133273 1_445
F6 Mn5 2.162010 1_555
F6 Mn7 2.173768 1_555
F7 Mn1 2.137610 1_665
F7 Mn7 2.168463 1_555
F7 Mn6 2.168463 1_554
F8 Mn9 2.075568 1_555
F8 Mn3 2.153915 1_665
F8 Mn5 2.197841 1_555
F9 Mn9 2.075568 1_555
F9 Mn4 2.153915 1_665
F9 Mn8 2.197841 1_555
F10 Mn6 2.089234 1_555
F10 Mn2 2.150137 1_455
F10 Mn1 2.150910 1_566
F11 Mn7 2.089234 1_555
F11 Mn0 2.150137 1_455
F11 Mn1 2.150910 1_565
F12 Mn5 2.098952 1_555
F12 Mn3 2.137353 1_565
F12 Mn0 2.154111 1_455
F13 Mn8 2.098952 1_555
F13 Mn4 2.137353 1_565
F13 Mn2 2.154111 1_455
F14 Mn3 2.102141 1_565
F14 Mn4 2.102141 1_565
F14 Mn9 2.153307 1_555
