# generated using pymatgen
data_Ca2SnS4
_symmetry_space_group_name_H-M   'P 1'
_cell_length_a   3.78391200
_cell_length_b   12.57913000
_cell_length_c   14.01762300
_cell_angle_alpha   90.00000000
_cell_angle_beta   90.00000000
_cell_angle_gamma   90.00000000
_symmetry_Int_Tables_number   1
_chemical_formula_structural   Ca2SnS4
_chemical_formula_sum   'Ca8 Sn4 S16'
_cell_volume   667.21531860
_cell_formula_units_Z   4
loop_
 _symmetry_equiv_pos_site_id
 _symmetry_equiv_pos_as_xyz
  1  'x, y, z'
loop_
 _atom_site_type_symbol
 _atom_site_label
 _atom_site_symmetry_multiplicity
 _atom_site_fract_x
 _atom_site_fract_y
 _atom_site_fract_z
 _atom_site_occupancy
  Ca  Ca0  1  0.25000000  0.10191900  0.91368700  1
  Ca  Ca1  1  0.25000000  0.60191900  0.58631300  1
  Ca  Ca2  1  0.75000000  0.89808100  0.08631300  1
  Ca  Ca3  1  0.75000000  0.39808100  0.41368700  1
  Ca  Ca4  1  0.25000000  0.06648200  0.37297700  1
  Ca  Ca5  1  0.25000000  0.56648200  0.12702300  1
  Ca  Ca6  1  0.75000000  0.93351800  0.62702300  1
  Ca  Ca7  1  0.75000000  0.43351800  0.87297700  1
  Sn  Sn0  1  0.25000000  0.77707400  0.33447600  1
  Sn  Sn1  1  0.25000000  0.27707400  0.16552400  1
  Sn  Sn2  1  0.75000000  0.22292600  0.66552400  1
  Sn  Sn3  1  0.75000000  0.72292600  0.83447600  1
  S  S0  1  0.25000000  0.29269200  0.79563500  1
  S  S1  1  0.25000000  0.79269200  0.70436500  1
  S  S2  1  0.75000000  0.70730800  0.20436500  1
  S  S3  1  0.75000000  0.20730800  0.29563500  1
  S  S4  1  0.25000000  0.36927700  0.56322100  1
  S  S5  1  0.25000000  0.86927700  0.93677900  1
  S  S6  1  0.75000000  0.63072300  0.43677900  1
  S  S7  1  0.75000000  0.13072300  0.06322100  1
  S  S8  1  0.25000000  0.93602600  0.22187600  1
  S  S9  1  0.25000000  0.43602600  0.27812400  1
  S  S10  1  0.75000000  0.06397400  0.77812400  1
  S  S11  1  0.75000000  0.56397400  0.72187600  1
  S  S12  1  0.25000000  0.10392300  0.57006800  1
  S  S13  1  0.25000000  0.60392300  0.92993200  1
  S  S14  1  0.75000000  0.89607700  0.42993200  1
  S  S15  1  0.75000000  0.39607700  0.07006800  1
loop_
_geom_bond_atom_site_label_1
_geom_bond_atom_site_label_2
_geom_bond_distance
_geom_bond_site_symmetry_2
Ca0 S10 2.723666 1_555
Ca0 S10 2.723666 1_455
Ca0 S7 2.846834 1_556
Ca0 S7 2.846834 1_456
Ca0 S0 2.915001 1_555
Ca0 S5 2.944282 1_545
Ca1 S11 2.723666 1_455
Ca1 S11 2.723666 1_555
Ca1 S6 2.846834 1_455
Ca1 S6 2.846834 1_555
Ca1 S1 2.915001 1_555
Ca1 S4 2.944282 1_555
Ca2 S8 2.723666 1_655
Ca2 S8 2.723666 1_555
Ca2 S5 2.846834 1_554
Ca2 S5 2.846834 1_654
Ca2 S2 2.915001 1_555
Ca2 S7 2.944282 1_565
Ca3 S9 2.723666 1_655
Ca3 S9 2.723666 1_555
Ca3 S4 2.846834 1_655
Ca3 S4 2.846834 1_555
Ca3 S3 2.915001 1_555
Ca3 S6 2.944282 1_555
Ca4 S8 2.679404 1_545
Ca4 S12 2.802604 1_555
Ca4 S3 2.809445 1_455
Ca4 S3 2.809445 1_555
Ca4 S14 2.968449 1_545
Ca4 S14 2.968449 1_445
Ca5 S9 2.679404 1_555
Ca5 S13 2.802604 1_554
Ca5 S2 2.809445 1_455
Ca5 S2 2.809445 1_555
Ca5 S15 2.968449 1_555
Ca5 S15 2.968449 1_455
Ca6 S10 2.679404 1_565
Ca6 S14 2.802604 1_555
Ca6 S1 2.809445 1_555
Ca6 S1 2.809445 1_655
Ca6 S12 2.968449 1_565
Ca6 S12 2.968449 1_665
Ca7 S11 2.679404 1_555
Ca7 S15 2.802604 1_556
Ca7 S0 2.809445 1_655
Ca7 S0 2.809445 1_555
Ca7 S13 2.968449 1_555
Ca7 S13 2.968449 1_655
S0 Sn2 2.770576 1_455
S0 Sn2 2.770576 1_555
S1 Sn3 2.770576 1_555
S1 Sn3 2.770576 1_455
S2 Sn0 2.770576 1_555
S2 Sn0 2.770576 1_655
S3 Sn1 2.770576 1_655
S3 Sn1 2.770576 1_555
S4 Sn2 3.004188 1_555
S4 Sn2 3.004188 1_455
S5 Sn3 3.004188 1_455
S5 Sn3 3.004188 1_555
S6 Sn0 3.004188 1_555
S6 Sn0 3.004188 1_655
S7 Sn1 3.004188 1_655
S7 Sn1 3.004188 1_555
S8 Sn0 2.547393 1_555
S9 Sn1 2.547393 1_555
S10 Sn2 2.547393 1_555
S11 Sn3 2.547393 1_555
S12 Sn2 2.758766 1_455
S12 Sn2 2.758766 1_555
S13 Sn3 2.758766 1_555
S13 Sn3 2.758766 1_455
S14 Sn0 2.758766 1_555
S14 Sn0 2.758766 1_655
S15 Sn1 2.758766 1_655
S15 Sn1 2.758766 1_555
