# generated using pymatgen
data_Sc2TcNi
_symmetry_space_group_name_H-M   'P 1'
_cell_length_a   4.50641525
_cell_length_b   4.50641525
_cell_length_c   4.50641525
_cell_angle_alpha   60.00000000
_cell_angle_beta   60.00000000
_cell_angle_gamma   60.00000000
_symmetry_Int_Tables_number   1
_chemical_formula_structural   Sc2TcNi
_chemical_formula_sum   'Sc2 Tc1 Ni1'
_cell_volume   64.71107657
_cell_formula_units_Z   1
loop_
 _symmetry_equiv_pos_site_id
 _symmetry_equiv_pos_as_xyz
  1  'x, y, z'
loop_
 _atom_site_type_symbol
 _atom_site_label
 _atom_site_symmetry_multiplicity
 _atom_site_fract_x
 _atom_site_fract_y
 _atom_site_fract_z
 _atom_site_occupancy
  Sc  Sc0  1  0.00000000  -0.00000000  -0.00000000  1
  Sc  Sc1  1  0.50000000  0.50000000  0.50000000  1
  Tc  Tc0  1  0.75000000  0.75000000  0.75000000  1
  Ni  Ni0  1  0.25000000  0.25000000  0.25000000  1
loop_
_geom_bond_atom_site_label_1
_geom_bond_atom_site_label_2
_geom_bond_distance
_geom_bond_site_symmetry_2
Sc0 Tc0 2.759604 1_444
Sc0 Tc0 2.759604 1_544
Sc0 Tc0 2.759604 1_445
Sc0 Tc0 2.759604 1_454
Sc1 Tc0 2.759604 1_555
Sc1 Tc0 2.759604 1_545
Sc1 Tc0 2.759604 1_455
Sc1 Tc0 2.759604 1_554
Ni0 Sc1 2.759604 1_455
Ni0 Sc1 2.759604 1_554
Ni0 Sc1 2.759604 1_555
Ni0 Sc0 2.759604 1_565
Ni0 Sc0 2.759604 1_655
Ni0 Sc1 2.759604 1_545
Ni0 Sc0 2.759604 1_555
Ni0 Sc0 2.759604 1_556
