# generated using pymatgen
data_K8Li9Cr4O16
_symmetry_space_group_name_H-M   'P 1'
_cell_length_a   5.60777700
_cell_length_b   9.12651003
_cell_length_c   10.48474964
_cell_angle_alpha   88.30814889
_cell_angle_beta   80.97756493
_cell_angle_gamma   89.65648104
_symmetry_Int_Tables_number   1
_chemical_formula_structural   K8Li9Cr4O16
_chemical_formula_sum   'K8 Li9 Cr4 O16'
_cell_volume   529.73261765
_cell_formula_units_Z   1
loop_
 _symmetry_equiv_pos_site_id
 _symmetry_equiv_pos_as_xyz
  1  'x, y, z'
loop_
 _atom_site_type_symbol
 _atom_site_label
 _atom_site_symmetry_multiplicity
 _atom_site_fract_x
 _atom_site_fract_y
 _atom_site_fract_z
 _atom_site_occupancy
  K  K0  1  0.82684500  0.99707600  0.87152000  1
  K  K1  1  0.89095800  0.28484700  0.37407300  1
  K  K2  1  0.62503200  0.49296400  0.64959300  1
  K  K3  1  0.35307200  0.26507000  0.86970600  1
  K  K4  1  0.64906500  0.72813600  0.12488100  1
  K  K5  1  0.35893700  0.50683900  0.35240000  1
  K  K6  1  0.10476900  0.72936000  0.62047700  1
  K  K7  1  0.16804800  0.99158300  0.13733700  1
  Li  Li0  1  0.92796700  0.24866900  0.70129400  1
  Li  Li1  1  0.72579800  0.51683100  0.92438100  1
  Li  Li2  1  0.83118400  0.01495400  0.55806800  1
  Li  Li3  1  0.58075400  0.74903000  0.80904400  1
  Li  Li4  1  0.58205200  0.02809900  0.30277000  1
  Li  Li5  1  0.38592900  0.97018100  0.70635500  1
  Li  Li6  1  0.41165900  0.25325700  0.19234500  1
  Li  Li7  1  0.28944700  0.48877900  0.06969600  1
  Li  Li8  1  0.08241100  0.75225500  0.30412700  1
  Cr  Cr0  1  0.82822600  0.28241700  0.06038500  1
  Cr  Cr1  1  0.65586800  0.78977000  0.44643300  1
  Cr  Cr2  1  0.33682200  0.20234100  0.54899000  1
  Cr  Cr3  1  0.17022800  0.71322700  0.94173800  1
  O  O0  1  0.87934800  0.71003000  0.86974200  1
  O  O1  1  0.85187900  0.30251400  0.88588200  1
  O  O2  1  0.85285200  0.93899600  0.37533000  1
  O  O3  1  0.82644200  0.62371900  0.41639100  1
  O  O4  1  0.61100800  0.82195100  0.61977300  1
  O  O5  1  0.60968800  0.18149800  0.62500700  1
  O  O6  1  0.67215500  0.11262400  0.12024500  1
  O  O7  1  0.40883300  0.56449900  0.88896200  1
  O  O8  1  0.61205500  0.42273500  0.11928700  1
  O  O9  1  0.31868700  0.89892200  0.87819900  1
  O  O10  1  0.39796500  0.80171100  0.36439500  1
  O  O11  1  0.40073600  0.20207600  0.37486600  1
  O  O12  1  0.18436000  0.37219400  0.59115800  1
  O  O13  1  0.12008200  0.07025300  0.63426800  1
  O  O14  1  0.15942000  0.68463500  0.12588700  1
  O  O15  1  0.11437800  0.29286500  0.11939600  1
loop_
_geom_bond_atom_site_label_1
_geom_bond_atom_site_label_2
_geom_bond_distance
_geom_bond_site_symmetry_2
K0 O0 2.634753 1_555
K0 O1 2.801626 1_565
K0 O13 2.823121 1_665
K0 O6 2.847313 1_566
K0 O9 2.905504 1_655
K0 O9 2.981965 1_555
K1 O15 2.765042 1_655
K1 O11 2.854012 1_555
K1 O11 2.953674 1_655
K1 O5 2.978141 1_555
K1 O12 3.133781 1_655
K1 O3 3.148004 1_555
K1 O2 3.164416 1_545
K2 O7 2.706985 1_555
K2 O3 2.766910 1_555
K2 O5 2.864851 1_555
K2 O12 2.871310 1_555
K2 O4 3.011380 1_555
K3 O15 2.765088 1_556
K3 O7 2.769304 1_555
K3 O1 2.808433 1_455
K3 O1 2.851937 1_555
K3 O5 2.859956 1_555
K4 O14 2.775067 1_555
K4 O10 2.778341 1_555
K4 O0 2.791238 1_554
K4 O8 2.799225 1_555
K4 O14 2.888620 1_655
K5 O10 2.709557 1_555
K5 O8 2.754511 1_555
K5 O12 2.792704 1_555
K5 O11 2.795989 1_555
K5 O3 3.014731 1_555
K6 O0 2.720044 1_455
K6 O10 2.978601 1_555
K7 O15 2.768366 1_565
K7 O14 2.808505 1_555
K7 O2 2.852577 1_455
K7 O9 2.866719 1_554
K7 O6 3.015523 1_465
K7 O6 3.018406 1_565
Li0 O1 1.990931 1_555
Li0 O12 2.023228 1_655
Li0 O13 2.028547 1_655
Li0 O5 2.165883 1_555
Li1 O7 1.916972 1_555
Li1 O0 1.995612 1_555
Li1 O1 2.104557 1_555
Li1 O8 2.194199 1_556
Li2 O13 1.989278 1_655
Li2 O5 2.027959 1_555
Li2 O2 2.042216 1_545
Li2 O4 2.180361 1_545
Li3 O0 1.910282 1_555
Li3 O7 2.037311 1_555
Li3 O4 2.056099 1_555
Li3 O9 2.063285 1_555
Li4 O2 1.963972 1_545
Li4 O11 1.984139 1_555
Li4 O6 2.031495 1_555
Li4 O10 2.342991 1_545
Li5 O9 1.879381 1_555
Li5 O13 1.980965 1_565
Li5 O4 1.984946 1_555
Li5 O5 2.370153 1_565
Li6 O11 1.948058 1_555
Li6 O15 1.967539 1_555
Li6 O8 1.980639 1_555
Li6 O6 2.010275 1_555
Li7 O14 1.996418 1_555
Li7 O7 2.011700 1_554
Li7 O8 2.042056 1_555
Li7 O15 2.058623 1_555
Li8 O14 1.967626 1_555
Li8 O10 2.027677 1_555
Li8 O3 2.056881 1_455
Li8 O2 2.206021 1_455
Cr0 O15 1.812071 1_655
Cr0 O8 1.812227 1_555
Cr0 O1 1.817445 1_554
Cr0 O6 1.829690 1_555
Cr1 O10 1.796149 1_555
Cr1 O3 1.796421 1_555
Cr1 O2 1.824995 1_555
Cr1 O4 1.827517 1_555
Cr2 O12 1.798744 1_555
Cr2 O11 1.804570 1_555
Cr2 O13 1.828395 1_555
Cr2 O5 1.839271 1_555
Cr3 O0 1.902501 1_455
Cr3 O7 1.931152 1_555
Cr3 O14 1.932181 1_556
Cr3 O9 1.945604 1_555
