# generated using pymatgen
data_NbAlOs2
_symmetry_space_group_name_H-M   'P 1'
_cell_length_a   4.39295265
_cell_length_b   4.39295265
_cell_length_c   4.39295265
_cell_angle_alpha   60.00000000
_cell_angle_beta   60.00000000
_cell_angle_gamma   60.00000000
_symmetry_Int_Tables_number   1
_chemical_formula_structural   NbAlOs2
_chemical_formula_sum   'Nb1 Al1 Os2'
_cell_volume   59.94522153
_cell_formula_units_Z   1
loop_
 _symmetry_equiv_pos_site_id
 _symmetry_equiv_pos_as_xyz
  1  'x, y, z'
loop_
 _atom_site_type_symbol
 _atom_site_label
 _atom_site_symmetry_multiplicity
 _atom_site_fract_x
 _atom_site_fract_y
 _atom_site_fract_z
 _atom_site_occupancy
  Nb  Nb0  1  0.75000000  0.75000000  0.75000000  1
  Al  Al0  1  0.24999900  0.24999900  0.24999900  1
  Os  Os0  1  0.00000000  0.00000000  0.00000000  1
  Os  Os1  1  0.50000000  0.50000000  0.50000000  1
loop_
_geom_bond_atom_site_label_1
_geom_bond_atom_site_label_2
_geom_bond_distance
_geom_bond_site_symmetry_2
Nb0 Os1 2.690123 1_555
Nb0 Os1 2.690123 1_556
Nb0 Os1 2.690123 1_565
Nb0 Os0 2.690123 1_566
Nb0 Os0 2.690123 1_665
Nb0 Os0 2.690123 1_666
Nb0 Os0 2.690123 1_656
Nb0 Os1 2.690123 1_655
Al0 Os0 2.690112 1_555
Al0 Os1 2.690120 1_455
Al0 Os1 2.690120 1_554
Al0 Os1 2.690120 1_545
Al0 Os0 2.690127 1_565
Al0 Os0 2.690127 1_556
Al0 Os0 2.690127 1_655
Al0 Os1 2.690134 1_555
