# generated using pymatgen
data_Li5Fe4(P2O7)4
_symmetry_space_group_name_H-M   'P 1'
_cell_length_a   9.75738500
_cell_length_b   9.77429376
_cell_length_c   11.13685114
_cell_angle_alpha   90.36782860
_cell_angle_beta   101.64342209
_cell_angle_gamma   90.15714559
_symmetry_Int_Tables_number   1
_chemical_formula_structural   Li5Fe4(P2O7)4
_chemical_formula_sum   'Li10 Fe8 P16 O56'
_cell_volume   1040.25237055
_cell_formula_units_Z   2
loop_
 _symmetry_equiv_pos_site_id
 _symmetry_equiv_pos_as_xyz
  1  'x, y, z'
loop_
 _atom_site_type_symbol
 _atom_site_label
 _atom_site_symmetry_multiplicity
 _atom_site_fract_x
 _atom_site_fract_y
 _atom_site_fract_z
 _atom_site_occupancy
  Li  Li0  1  0.09309300  0.10462300  0.02838600  1
  Li  Li1  1  0.41957700  0.60112200  0.97799100  1
  Li  Li2  1  0.32509500  0.91670700  0.45712900  1
  Li  Li3  1  0.38711500  0.21769100  0.54808400  1
  Li  Li4  1  0.61740200  0.79084300  0.45821900  1
  Li  Li5  1  0.84903300  0.58935800  0.95690800  1
  Li  Li6  1  0.64742700  0.09706500  0.04207100  1
  Li  Li7  1  0.90685200  0.89113700  0.97072000  1
  Li  Li8  1  0.85224900  0.57091300  0.47544800  1
  Li  Li9  1  0.88235300  0.28056200  0.54774100  1
  Fe  Fe0  1  0.20554800  0.91460600  0.67766700  1
  Fe  Fe1  1  0.25487000  0.21368600  0.82695600  1
  Fe  Fe2  1  0.25147300  0.70596000  0.17751700  1
  Fe  Fe3  1  0.29323000  0.42626900  0.33019300  1
  Fe  Fe4  1  0.70191100  0.57782600  0.67655700  1
  Fe  Fe5  1  0.74475200  0.29583600  0.82620000  1
  Fe  Fe6  1  0.74053000  0.77964300  0.17375100  1
  Fe  Fe7  1  0.79397200  0.07024600  0.32815000  1
  P  P0  1  0.02206000  0.44732500  0.75293600  1
  P  P1  1  0.11859100  0.70729200  0.88678200  1
  P  P2  1  0.06057300  0.92457900  0.23742000  1
  P  P3  1  0.12313600  0.14805700  0.42257600  1
  P  P4  1  0.37668100  0.64521600  0.57109500  1
  P  P5  1  0.43271500  0.42482800  0.76212500  1
  P  P6  1  0.52370700  0.04880100  0.75152600  1
  P  P7  1  0.38442000  0.21299000  0.11620200  1
  P  P8  1  0.61352900  0.79238500  0.88738100  1
  P  P9  1  0.47184200  0.94919600  0.24406200  1
  P  P10  1  0.56544500  0.57779100  0.24316900  1
  P  P11  1  0.62249400  0.35026000  0.41906400  1
  P  P12  1  0.88036000  0.85847400  0.57181200  1
  P  P13  1  0.93938700  0.07603000  0.76196000  1
  P  P14  1  0.88665500  0.28763900  0.11640800  1
  P  P15  1  0.97489600  0.55338600  0.24143900  1
  O  O0  1  0.00807200  0.42349000  0.61797600  1
  O  O1  1  0.03479600  0.85407700  0.56694500  1
  O  O2  1  0.09065800  0.08623800  0.73372700  1
  O  O3  1  0.10728900  0.58876800  0.78383200  1
  O  O4  1  0.10874700  0.34191700  0.83812800  1
  O  O5  1  0.17766500  0.82834500  0.82634800  1
  O  O6  1  0.22360200  0.65721500  0.00289800  1
  O  O7  1  0.02843800  0.25816800  0.09289600  1
  O  O8  1  0.12096700  0.06891100  0.29545000  1
  O  O9  1  0.06254800  0.93062900  0.10276000  1
  O  O10  1  0.13177700  0.53898900  0.22178400  1
  O  O11  1  0.19018500  0.28636200  0.40763000  1
  O  O12  1  0.16820800  0.81625700  0.29764700  1
  O  O13  1  0.21976700  0.06491300  0.52254400  1
  O  O14  1  0.29029000  0.56271400  0.46734800  1
  O  O15  1  0.34051800  0.30526900  0.69753400  1
  O  O16  1  0.31513100  0.78781600  0.59218200  1
  O  O17  1  0.37001400  0.03863100  0.77881200  1
  O  O18  1  0.37567800  0.56505700  0.69813300  1
  O  O19  1  0.41797600  0.42881700  0.89337600  1
  O  O20  1  0.47106900  0.76305400  0.91042100  1
  O  O21  1  0.27551300  0.16292400  0.99922600  1
  O  O22  1  0.32474700  0.33026000  0.18118800  1
  O  O23  1  0.38937400  0.09003900  0.21683300  1
  O  O24  1  0.41012100  0.58701900  0.26409200  1
  O  O25  1  0.38956600  0.84349500  0.15449900  1
  O  O26  1  0.47089800  0.33936800  0.43680500  1
  O  O27  1  0.52302800  0.08710300  0.62174200  1
  O  O28  1  0.47494100  0.91653100  0.37690200  1
  O  O29  1  0.52939200  0.66359500  0.56009200  1
  O  O30  1  0.61382700  0.14474500  0.85042300  1
  O  O31  1  0.58604500  0.40843600  0.74022000  1
  O  O32  1  0.59512800  0.90219700  0.77456900  1
  O  O33  1  0.69044400  0.67337500  0.83948900  1
  O  O34  1  0.71555100  0.86367900  0.99740100  1
  O  O35  1  0.52535800  0.22837200  0.08706000  1
  O  O36  1  0.57717000  0.59015100  0.11130100  1
  O  O37  1  0.61689600  0.42895500  0.29175600  1
  O  O38  1  0.62308400  0.96847600  0.21782100  1
  O  O39  1  0.69135900  0.21274800  0.40307700  1
  O  O40  1  0.66306700  0.68264300  0.32166900  1
  O  O41  1  0.71842100  0.43339600  0.52046500  1
  O  O42  1  0.78726800  0.93491200  0.46610200  1
  O  O43  1  0.84475000  0.19681600  0.70661700  1
  O  O44  1  0.81578300  0.71813700  0.58533700  1
  O  O45  1  0.87641500  0.46312800  0.79399200  1
  O  O46  1  0.93669700  0.06393600  0.89583700  1
  O  O47  1  0.87109300  0.93890100  0.69773300  1
  O  O48  1  0.97562200  0.72878600  0.91352400  1
  O  O49  1  0.78766100  0.34546100  0.99784700  1
  O  O50  1  0.81247100  0.16799000  0.16948900  1
  O  O51  1  0.89378100  0.64005500  0.13623800  1
  O  O52  1  0.90162700  0.40290800  0.22216200  1
  O  O53  1  0.91266200  0.91295400  0.26776100  1
  O  O54  1  0.96995500  0.15730500  0.43674600  1
  O  O55  1  0.96778000  0.59550400  0.36821400  1
loop_
_geom_bond_atom_site_label_1
_geom_bond_atom_site_label_2
_geom_bond_distance
_geom_bond_site_symmetry_2
Li0 O7 1.827791 1_555
Li0 O46 1.935419 1_454
Li0 O9 1.944767 1_545
Li0 O21 1.956660 1_554
Li1 O20 1.867463 1_555
Li1 O36 1.913547 1_556
Li1 O19 1.923067 1_555
Li1 O6 2.062028 1_556
Li2 O28 1.861007 1_555
Li2 O16 1.985318 1_555
Li2 O13 1.995559 1_565
Li2 O12 2.309521 1_555
Li3 O27 1.909042 1_555
Li3 O15 1.999752 1_555
Li3 O26 2.010262 1_555
Li3 O13 2.184224 1_555
Li3 O11 2.323119 1_555
Li4 O28 1.943487 1_555
Li4 O40 1.971063 1_555
Li4 O29 1.994266 1_555
Li4 O42 2.159784 1_555
Li4 O44 2.273857 1_555
Li5 O48 1.963790 1_555
Li5 O33 1.995715 1_555
Li5 O51 2.014698 1_556
Li5 O45 2.248187 1_555
Li5 O49 2.523069 1_555
Li6 O35 1.886241 1_555
Li6 O50 2.036288 1_555
Li6 O30 2.147397 1_554
Li6 O38 2.384274 1_545
Li6 O34 2.453641 1_544
Li7 O48 1.881367 1_555
Li7 O9 1.925382 1_656
Li7 O46 1.935559 1_565
Li7 O34 1.966383 1_555
Li8 O55 1.816691 1_555
Li8 O44 1.962408 1_555
Li8 O41 2.006603 1_555
Li8 O0 2.444351 1_655
Li8 O40 2.508414 1_555
Li9 O0 1.912468 1_655
Li9 O54 2.030540 1_555
Li9 O43 2.052888 1_555
Li9 O41 2.169149 1_555
Li9 O39 2.296870 1_555
Fe0 O5 1.930080 1_555
Fe0 O1 1.949969 1_555
Fe0 O16 1.997118 1_555
Fe0 O17 2.134438 1_565
Fe0 O2 2.177187 1_565
Fe0 O13 2.300085 1_565
Fe1 O4 1.923190 1_555
Fe1 O21 1.955595 1_555
Fe1 O15 2.018878 1_555
Fe1 O2 2.120865 1_555
Fe1 O17 2.172398 1_555
Fe1 O19 2.643495 1_555
Fe2 O25 1.955082 1_555
Fe2 O6 1.963864 1_555
Fe2 O12 2.009288 1_555
Fe2 O24 2.024667 1_555
Fe2 O10 2.121995 1_555
Fe3 O22 1.979025 1_555
Fe3 O11 1.995571 1_555
Fe3 O14 2.025926 1_555
Fe3 O26 2.080071 1_555
Fe3 O10 2.100516 1_555
Fe3 O24 2.157646 1_555
Fe4 O33 2.058661 1_555
Fe4 O29 2.087861 1_555
Fe4 O44 2.147692 1_555
Fe4 O31 2.202366 1_555
Fe4 O45 2.235389 1_555
Fe4 O41 2.263530 1_555
Fe5 O49 1.930993 1_555
Fe5 O31 1.987609 1_555
Fe5 O30 2.004888 1_555
Fe5 O43 2.043412 1_555
Fe5 O45 2.152869 1_555
Fe6 O34 2.102360 1_554
Fe6 O51 2.127932 1_555
Fe6 O40 2.168555 1_555
Fe6 O53 2.208083 1_555
Fe6 O38 2.277666 1_555
Fe6 O36 2.444319 1_555
Fe7 O39 1.992182 1_555
Fe7 O42 2.044657 1_545
Fe7 O50 2.053541 1_555
Fe7 O54 2.067815 1_555
Fe7 O38 2.104224 1_545
Fe7 O53 2.113776 1_545
O0 P0 1.498174 1_555
O1 P12 1.519474 1_455
O2 P13 1.573006 1_455
O3 P0 1.610397 1_555
O3 P1 1.612457 1_555
O4 P0 1.539646 1_555
O5 P1 1.532413 1_555
O6 P1 1.561338 1_554
O7 P14 1.487569 1_455
O8 P3 1.605333 1_555
O8 P2 1.607835 1_545
O9 P2 1.505235 1_555
O10 P15 1.595914 1_455
O11 P3 1.524848 1_555
O12 P2 1.550730 1_555
O13 P3 1.543064 1_555
O14 P4 1.512286 1_555
O15 P5 1.553901 1_555
O16 P4 1.554306 1_555
O17 P6 1.592063 1_555
O18 P5 1.597783 1_555
O18 P4 1.623395 1_555
O19 P5 1.497661 1_555
O20 P8 1.490960 1_555
O21 P7 1.579878 1_556
O22 P7 1.529630 1_555
O23 P9 1.596101 1_545
O23 P7 1.642651 1_555
O24 P10 1.581887 1_555
O25 P9 1.538116 1_555
O26 P11 1.534835 1_555
O27 P6 1.494133 1_555
O28 P9 1.509833 1_555
O29 P4 1.529732 1_555
O30 P6 1.567496 1_555
O31 P5 1.572142 1_555
O32 P6 1.594635 1_565
O32 P8 1.640143 1_555
O33 P8 1.535979 1_555
O34 P8 1.571865 1_555
O35 P7 1.482808 1_555
O36 P10 1.501490 1_555
O37 P10 1.601761 1_555
O37 P11 1.608662 1_555
O38 P9 1.572242 1_555
O39 P11 1.529685 1_555
O40 P10 1.539143 1_555
O41 P11 1.539184 1_555
O42 P12 1.533828 1_555
O43 P13 1.553053 1_555
O44 P12 1.528884 1_555
O45 P0 1.585895 1_655
O46 P13 1.501896 1_555
O47 P13 1.594550 1_565
O47 P12 1.621789 1_555
O48 P1 1.499124 1_655
O49 P14 1.579127 1_556
O50 P14 1.555010 1_555
O51 P15 1.535853 1_555
O52 P14 1.609496 1_555
O52 P15 1.627488 1_555
O53 P2 1.551265 1_655
O54 P3 1.537142 1_655
O55 P15 1.483222 1_555
