# generated using pymatgen
data_Li4Nb(P2O7)2
_symmetry_space_group_name_H-M   'P 1'
_cell_length_a   10.16695900
_cell_length_b   10.16695900
_cell_length_c   9.20133900
_cell_angle_alpha   90.00000000
_cell_angle_beta   90.00000000
_cell_angle_gamma   90.00000000
_symmetry_Int_Tables_number   1
_chemical_formula_structural   Li4Nb(P2O7)2
_chemical_formula_sum   'Li16 Nb4 P16 O56'
_cell_volume   951.11531732
_cell_formula_units_Z   4
loop_
 _symmetry_equiv_pos_site_id
 _symmetry_equiv_pos_as_xyz
  1  'x, y, z'
loop_
 _atom_site_type_symbol
 _atom_site_label
 _atom_site_symmetry_multiplicity
 _atom_site_fract_x
 _atom_site_fract_y
 _atom_site_fract_z
 _atom_site_occupancy
  Li  Li0  1  0.93576200  0.85732900  0.40127300  1
  Li  Li1  1  0.06423800  0.85732900  0.90127300  1
  Li  Li2  1  0.85732900  0.93576200  0.09872700  1
  Li  Li3  1  0.14267100  0.93576200  0.59872700  1
  Li  Li4  1  0.14267100  0.06423800  0.09872700  1
  Li  Li5  1  0.85732900  0.06423800  0.59872700  1
  Li  Li6  1  0.06423800  0.14267100  0.40127300  1
  Li  Li7  1  0.93576200  0.14267100  0.90127300  1
  Li  Li8  1  0.43576200  0.35732900  0.59872700  1
  Li  Li9  1  0.56423800  0.35732900  0.09872700  1
  Li  Li10  1  0.64267100  0.43576200  0.40127300  1
  Li  Li11  1  0.35732900  0.43576200  0.90127300  1
  Li  Li12  1  0.35732900  0.56423800  0.40127300  1
  Li  Li13  1  0.64267100  0.56423800  0.90127300  1
  Li  Li14  1  0.43576200  0.64267100  0.09872700  1
  Li  Li15  1  0.56423800  0.64267100  0.59872700  1
  Nb  Nb0  1  0.50000000  0.00000000  0.06775000  1
  Nb  Nb1  1  0.50000000  0.00000000  0.56775000  1
  Nb  Nb2  1  0.00000000  0.50000000  0.43225000  1
  Nb  Nb3  1  0.00000000  0.50000000  0.93225000  1
  P  P0  1  0.40489500  0.76823500  0.82264700  1
  P  P1  1  0.59510500  0.76823500  0.32264700  1
  P  P2  1  0.73176500  0.90489500  0.82264700  1
  P  P3  1  0.26823500  0.90489500  0.32264700  1
  P  P4  1  0.26823500  0.09510500  0.82264700  1
  P  P5  1  0.73176500  0.09510500  0.32264700  1
  P  P6  1  0.40489500  0.23176500  0.32264700  1
  P  P7  1  0.59510500  0.23176500  0.82264700  1
  P  P8  1  0.90489500  0.26823500  0.17735300  1
  P  P9  1  0.09510500  0.26823500  0.67735300  1
  P  P10  1  0.76823500  0.40489500  0.67735300  1
  P  P11  1  0.23176500  0.40489500  0.17735300  1
  P  P12  1  0.23176500  0.59510500  0.67735300  1
  P  P13  1  0.76823500  0.59510500  0.17735300  1
  P  P14  1  0.90489500  0.73176500  0.67735300  1
  P  P15  1  0.09510500  0.73176500  0.17735300  1
  O  O0  1  0.75999000  0.75999000  0.75000000  1
  O  O1  1  0.24001000  0.75999000  0.25000000  1
  O  O2  1  0.48954800  0.81367600  0.69241700  1
  O  O3  1  0.51045200  0.81367600  0.19241700  1
  O  O4  1  0.04263500  0.86073700  0.11514400  1
  O  O5  1  0.95736500  0.86073700  0.61514400  1
  O  O6  1  0.36753900  0.87352400  0.44332700  1
  O  O7  1  0.63246100  0.87352400  0.94332700  1
  O  O8  1  0.62647600  0.86753900  0.44332700  1
  O  O9  1  0.37352400  0.86753900  0.94332700  1
  O  O10  1  0.86073700  0.95736500  0.88485600  1
  O  O11  1  0.13926300  0.95736500  0.38485600  1
  O  O12  1  0.31367600  0.98954800  0.19241700  1
  O  O13  1  0.68632400  0.98954800  0.69241700  1
  O  O14  1  0.31367600  0.01045200  0.69241700  1
  O  O15  1  0.68632400  0.01045200  0.19241700  1
  O  O16  1  0.13926300  0.04263500  0.88485600  1
  O  O17  1  0.86073700  0.04263500  0.38485600  1
  O  O18  1  0.37352400  0.13246100  0.44332700  1
  O  O19  1  0.62647600  0.13246100  0.94332700  1
  O  O20  1  0.63246100  0.12647600  0.44332700  1
  O  O21  1  0.36753900  0.12647600  0.94332700  1
  O  O22  1  0.04263500  0.13926300  0.61514400  1
  O  O23  1  0.95736500  0.13926300  0.11514400  1
  O  O24  1  0.48954800  0.18632400  0.19241700  1
  O  O25  1  0.51045200  0.18632400  0.69241700  1
  O  O26  1  0.75999000  0.24001000  0.25000000  1
  O  O27  1  0.24001000  0.24001000  0.75000000  1
  O  O28  1  0.25999000  0.25999000  0.25000000  1
  O  O29  1  0.74001000  0.25999000  0.75000000  1
  O  O30  1  0.98954800  0.31367600  0.30758300  1
  O  O31  1  0.01045200  0.31367600  0.80758300  1
  O  O32  1  0.45736500  0.36073700  0.38485600  1
  O  O33  1  0.54263500  0.36073700  0.88485600  1
  O  O34  1  0.86753900  0.37352400  0.55667300  1
  O  O35  1  0.13246100  0.37352400  0.05667300  1
  O  O36  1  0.87352400  0.36753900  0.05667300  1
  O  O37  1  0.12647600  0.36753900  0.55667300  1
  O  O38  1  0.36073700  0.45736500  0.11514400  1
  O  O39  1  0.63926300  0.45736500  0.61514400  1
  O  O40  1  0.18632400  0.48954800  0.30758300  1
  O  O41  1  0.81367600  0.48954800  0.80758300  1
  O  O42  1  0.18632400  0.51045200  0.80758300  1
  O  O43  1  0.81367600  0.51045200  0.30758300  1
  O  O44  1  0.36073700  0.54263500  0.61514400  1
  O  O45  1  0.63926300  0.54263500  0.11514400  1
  O  O46  1  0.87352400  0.63246100  0.55667300  1
  O  O47  1  0.12647600  0.63246100  0.05667300  1
  O  O48  1  0.86753900  0.62647600  0.05667300  1
  O  O49  1  0.13246100  0.62647600  0.55667300  1
  O  O50  1  0.45736500  0.63926300  0.88485600  1
  O  O51  1  0.54263500  0.63926300  0.38485600  1
  O  O52  1  0.98954800  0.68632400  0.80758300  1
  O  O53  1  0.01045200  0.68632400  0.30758300  1
  O  O54  1  0.74001000  0.74001000  0.25000000  1
  O  O55  1  0.25999000  0.74001000  0.75000000  1
loop_
_geom_bond_atom_site_label_1
_geom_bond_atom_site_label_2
_geom_bond_distance
_geom_bond_site_symmetry_2
Li0 O5 1.980422 1_555
Li0 O17 2.038160 1_565
Li0 O53 2.083878 1_655
Li0 O11 2.310398 1_655
Li1 O4 1.980422 1_556
Li1 O16 2.038160 1_565
Li1 O52 2.083878 1_455
Li1 O10 2.310398 1_455
Li2 O10 1.980422 1_554
Li2 O4 2.038160 1_655
Li2 O15 2.083878 1_565
Li2 O23 2.310398 1_565
Li3 O11 1.980422 1_555
Li3 O5 2.038160 1_455
Li3 O14 2.083878 1_565
Li3 O22 2.310398 1_565
Li4 O16 1.980422 1_554
Li4 O23 2.038160 1_455
Li4 O12 2.083878 1_545
Li4 O4 2.310398 1_545
Li5 O17 1.980422 1_555
Li5 O22 2.038160 1_655
Li5 O13 2.083878 1_545
Li5 O5 2.310398 1_545
Li6 O22 1.980422 1_555
Li6 O11 2.038160 1_545
Li6 O30 2.083878 1_455
Li6 O17 2.310398 1_455
Li7 O23 1.980422 1_556
Li7 O10 2.038160 1_545
Li7 O31 2.083878 1_655
Li7 O16 2.310398 1_655
Li8 O32 1.980422 1_555
Li8 O44 2.038160 1_555
Li8 O25 2.083878 1_555
Li8 O39 2.310398 1_555
Li9 O33 1.980422 1_554
Li9 O45 2.038160 1_555
Li9 O24 2.083878 1_555
Li9 O38 2.310398 1_555
Li10 O39 1.980422 1_555
Li10 O32 2.038160 1_555
Li10 O43 2.083878 1_555
Li10 O51 2.310398 1_555
Li11 O38 1.980422 1_556
Li11 O33 2.038160 1_555
Li11 O42 2.083878 1_555
Li11 O50 2.310398 1_555
Li12 O44 1.980422 1_555
Li12 O51 2.038160 1_555
Li12 O40 2.083878 1_555
Li12 O32 2.310398 1_555
Li13 O45 1.980422 1_556
Li13 O50 2.038160 1_555
Li13 O41 2.083878 1_555
Li13 O33 2.310398 1_555
Li14 O50 1.980422 1_554
Li14 O38 2.038160 1_555
Li14 O3 2.083878 1_555
Li14 O45 2.310398 1_555
Li15 O51 1.980422 1_555
Li15 O39 2.038160 1_555
Li15 O2 2.083878 1_555
Li15 O44 2.310398 1_555
Nb0 O19 2.185829 1_554
Nb0 O9 2.185829 1_544
Nb0 O21 2.185829 1_554
Nb0 O7 2.185829 1_544
Nb0 O24 2.217137 1_555
Nb0 O12 2.217137 1_545
Nb0 O15 2.217137 1_555
Nb0 O3 2.217137 1_545
Nb1 O18 2.185829 1_555
Nb1 O20 2.185829 1_555
Nb1 O6 2.185829 1_545
Nb1 O8 2.185829 1_545
Nb1 O14 2.217137 1_555
Nb1 O25 2.217137 1_555
Nb1 O13 2.217137 1_545
Nb1 O2 2.217137 1_545
Nb2 O37 2.185829 1_555
Nb2 O34 2.185829 1_455
Nb2 O49 2.185829 1_555
Nb2 O46 2.185829 1_455
Nb2 O30 2.217137 1_455
Nb2 O40 2.217137 1_555
Nb2 O53 2.217137 1_555
Nb2 O43 2.217137 1_455
Nb3 O35 2.185829 1_556
Nb3 O36 2.185829 1_456
Nb3 O47 2.185829 1_556
Nb3 O48 2.185829 1_456
Nb3 O31 2.217137 1_555
Nb3 O42 2.217137 1_555
Nb3 O52 2.217137 1_455
Nb3 O41 2.217137 1_455
O0 P14 1.643051 1_555
O0 P2 1.643051 1_555
O1 P3 1.643051 1_555
O1 P15 1.643051 1_555
O2 P0 1.545989 1_555
O3 P1 1.545989 1_555
O4 P15 1.526962 1_555
O5 P14 1.526962 1_555
O6 P3 1.534303 1_555
O7 P2 1.534303 1_555
O8 P1 1.534303 1_555
O9 P0 1.534303 1_555
O10 P2 1.526962 1_555
O11 P3 1.526962 1_555
O12 P3 1.545989 1_555
O13 P2 1.545989 1_555
O14 P4 1.545989 1_555
O15 P5 1.545989 1_555
O16 P4 1.526962 1_555
O17 P5 1.526962 1_555
O18 P6 1.534303 1_555
O19 P7 1.534303 1_555
O20 P5 1.534303 1_555
O21 P4 1.534303 1_555
O22 P9 1.526962 1_555
O23 P8 1.526962 1_555
O24 P6 1.545989 1_555
O25 P7 1.545989 1_555
O26 P8 1.643051 1_555
O26 P5 1.643051 1_555
O27 P4 1.643051 1_555
O27 P9 1.643051 1_555
O28 P11 1.643051 1_555
O28 P6 1.643051 1_555
O29 P7 1.643051 1_555
O29 P10 1.643051 1_555
O30 P8 1.545989 1_555
O31 P9 1.545989 1_555
O32 P6 1.526962 1_555
O33 P7 1.526962 1_555
O34 P10 1.534303 1_555
O35 P11 1.534303 1_555
O36 P8 1.534303 1_555
O37 P9 1.534303 1_555
O38 P11 1.526962 1_555
O39 P10 1.526962 1_555
O40 P11 1.545989 1_555
O41 P10 1.545989 1_555
O42 P12 1.545989 1_555
O43 P13 1.545989 1_555
O44 P12 1.526962 1_555
O45 P13 1.526962 1_555
O46 P14 1.534303 1_555
O47 P15 1.534303 1_555
O48 P13 1.534303 1_555
O49 P12 1.534303 1_555
O50 P0 1.526962 1_555
O51 P1 1.526962 1_555
O52 P14 1.545989 1_555
O53 P15 1.545989 1_555
O54 P1 1.643051 1_555
O54 P13 1.643051 1_555
O55 P12 1.643051 1_555
O55 P0 1.643051 1_555
