# generated using pymatgen
data_PmAlCu2
_symmetry_space_group_name_H-M   'P 1'
_cell_length_a   4.61851028
_cell_length_b   4.61851028
_cell_length_c   4.61851028
_cell_angle_alpha   60.00000000
_cell_angle_beta   60.00000000
_cell_angle_gamma   60.00000000
_symmetry_Int_Tables_number   1
_chemical_formula_structural   PmAlCu2
_chemical_formula_sum   'Pm1 Al1 Cu2'
_cell_volume   69.66116718
_cell_formula_units_Z   1
loop_
 _symmetry_equiv_pos_site_id
 _symmetry_equiv_pos_as_xyz
  1  'x, y, z'
loop_
 _atom_site_type_symbol
 _atom_site_label
 _atom_site_symmetry_multiplicity
 _atom_site_fract_x
 _atom_site_fract_y
 _atom_site_fract_z
 _atom_site_occupancy
  Pm  Pm0  1  0.75000000  0.75000000  0.75000000  1
  Al  Al0  1  0.25000000  0.25000000  0.25000000  1
  Cu  Cu0  1  0.50000000  0.50000000  0.50000000  1
  Cu  Cu1  1  0.00000000  -0.00000000  0.00000000  1
loop_
_geom_bond_atom_site_label_1
_geom_bond_atom_site_label_2
_geom_bond_distance
_geom_bond_site_symmetry_2
Al0 Cu1 2.828248 1_556
Al0 Cu1 2.828248 1_565
Al0 Cu0 2.828248 1_545
Al0 Cu1 2.828248 1_655
Al0 Cu0 2.828248 1_555
Al0 Cu1 2.828248 1_555
Al0 Cu0 2.828248 1_455
Al0 Cu0 2.828248 1_554
Cu0 Pm0 2.828248 1_545
Cu0 Pm0 2.828248 1_555
Cu0 Pm0 2.828248 1_455
Cu0 Pm0 2.828248 1_554
Cu1 Pm0 2.828248 1_444
Cu1 Pm0 2.828248 1_544
Cu1 Pm0 2.828248 1_445
Cu1 Pm0 2.828248 1_454
