# generated using pymatgen
data_VCl4
_symmetry_space_group_name_H-M   'P 1'
_cell_length_a   6.38220500
_cell_length_b   9.48743000
_cell_length_c   11.69914727
_cell_angle_alpha   62.87898237
_cell_angle_beta   90.00000000
_cell_angle_gamma   90.00000000
_symmetry_Int_Tables_number   1
_chemical_formula_structural   VCl4
_chemical_formula_sum   'V4 Cl16'
_cell_volume   630.50105659
_cell_formula_units_Z   4
loop_
 _symmetry_equiv_pos_site_id
 _symmetry_equiv_pos_as_xyz
  1  'x, y, z'
loop_
 _atom_site_type_symbol
 _atom_site_label
 _atom_site_symmetry_multiplicity
 _atom_site_fract_x
 _atom_site_fract_y
 _atom_site_fract_z
 _atom_site_occupancy
  V  V0  1  0.16132900  0.19607100  0.61552600  1
  V  V1  1  0.16132900  0.80392900  0.88447400  1
  V  V2  1  0.83867100  0.80392900  0.38447400  1
  V  V3  1  0.83867100  0.19607100  0.11552600  1
  Cl  Cl0  1  0.25875000  0.94895300  0.64650000  1
  Cl  Cl1  1  0.25875000  0.05104700  0.85350000  1
  Cl  Cl2  1  0.74125000  0.94895300  0.14650000  1
  Cl  Cl3  1  0.74125000  0.05104700  0.35350000  1
  Cl  Cl4  1  0.82784200  0.19663500  0.62603000  1
  Cl  Cl5  1  0.82784200  0.80336500  0.87397000  1
  Cl  Cl6  1  0.17215800  0.80336500  0.37397000  1
  Cl  Cl7  1  0.17215800  0.19663500  0.12603000  1
  Cl  Cl8  1  0.22282700  0.29665500  0.40994900  1
  Cl  Cl9  1  0.22282700  0.70334500  0.09005100  1
  Cl  Cl10  1  0.77717300  0.70334500  0.59005100  1
  Cl  Cl11  1  0.77717300  0.29665500  0.90994900  1
  Cl  Cl12  1  0.28786800  0.39676700  0.63670200  1
  Cl  Cl13  1  0.28786800  0.60323300  0.86329800  1
  Cl  Cl14  1  0.71213200  0.60323300  0.36329800  1
  Cl  Cl15  1  0.71213200  0.39676700  0.13670200  1
loop_
_geom_bond_atom_site_label_1
_geom_bond_atom_site_label_2
_geom_bond_distance
_geom_bond_site_symmetry_2
Cl0 V0 2.289115 1_565
Cl0 V1 2.557012 1_555
Cl1 V1 2.289115 1_545
Cl1 V0 2.557012 1_555
Cl2 V3 2.289115 1_565
Cl2 V2 2.557012 1_555
Cl3 V2 2.289115 1_545
Cl3 V3 2.557012 1_555
Cl4 V0 2.132074 1_655
Cl5 V1 2.132074 1_655
Cl6 V2 2.132074 1_455
Cl7 V3 2.132074 1_455
Cl8 V0 2.180948 1_555
Cl9 V1 2.180948 1_554
Cl10 V2 2.180948 1_555
Cl11 V3 2.180948 1_556
Cl12 V0 2.183858 1_555
Cl13 V1 2.183858 1_555
Cl14 V2 2.183858 1_555
Cl15 V3 2.183858 1_555
