# generated using pymatgen
data_ScRh2Pb
_symmetry_space_group_name_H-M   'P 1'
_cell_length_a   4.60508517
_cell_length_b   4.60508517
_cell_length_c   4.60508517
_cell_angle_alpha   60.00000000
_cell_angle_beta   60.00000000
_cell_angle_gamma   60.00000000
_symmetry_Int_Tables_number   1
_chemical_formula_structural   ScRh2Pb
_chemical_formula_sum   'Sc1 Rh2 Pb1'
_cell_volume   69.05545671
_cell_formula_units_Z   1
loop_
 _symmetry_equiv_pos_site_id
 _symmetry_equiv_pos_as_xyz
  1  'x, y, z'
loop_
 _atom_site_type_symbol
 _atom_site_label
 _atom_site_symmetry_multiplicity
 _atom_site_fract_x
 _atom_site_fract_y
 _atom_site_fract_z
 _atom_site_occupancy
  Sc  Sc0  1  0.75000000  0.75000000  0.75000000  1
  Rh  Rh0  1  -0.00000000  0.00000000  0.00000000  1
  Rh  Rh1  1  0.50000000  0.50000000  0.50000000  1
  Pb  Pb0  1  0.25000100  0.25000100  0.25000100  1
loop_
_geom_bond_atom_site_label_1
_geom_bond_atom_site_label_2
_geom_bond_distance
_geom_bond_site_symmetry_2
Rh0 Sc0 2.820027 1_444
Rh0 Sc0 2.820027 1_544
Rh0 Sc0 2.820027 1_445
Rh0 Sc0 2.820027 1_454
Rh1 Sc0 2.820027 1_545
Rh1 Sc0 2.820027 1_455
Rh1 Sc0 2.820027 1_554
Rh1 Sc0 2.820027 1_555
Pb0 Rh1 2.820016 1_555
Pb0 Rh0 2.820023 1_655
Pb0 Rh0 2.820023 1_565
Pb0 Rh0 2.820023 1_556
Pb0 Rh1 2.820031 1_455
Pb0 Rh1 2.820031 1_545
Pb0 Rh1 2.820031 1_554
Pb0 Rh0 2.820039 1_555
