# generated using pymatgen
data_NdCrSe3
_symmetry_space_group_name_H-M   'P 1'
_cell_length_a   3.95625873
_cell_length_b   8.16611691
_cell_length_c   13.72165637
_cell_angle_alpha   90.00000000
_cell_angle_beta   90.00000000
_cell_angle_gamma   90.00000000
_symmetry_Int_Tables_number   1
_chemical_formula_structural   NdCrSe3
_chemical_formula_sum   'Nd4 Cr4 Se12'
_cell_volume   443.30927524
_cell_formula_units_Z   4
loop_
 _symmetry_equiv_pos_site_id
 _symmetry_equiv_pos_as_xyz
  1  'x, y, z'
loop_
 _atom_site_type_symbol
 _atom_site_label
 _atom_site_symmetry_multiplicity
 _atom_site_fract_x
 _atom_site_fract_y
 _atom_site_fract_z
 _atom_site_occupancy
  Nd  Nd0  1  0.25000000  0.09448591  0.17180460  1
  Nd  Nd1  1  0.75000000  0.40551409  0.67180460  1
  Nd  Nd2  1  0.25000000  0.59448591  0.32819540  1
  Nd  Nd3  1  0.75000000  0.90551409  0.82819540  1
  Cr  Cr0  1  0.75000000  0.66085803  0.05116146  1
  Cr  Cr1  1  0.25000000  0.33914197  0.94883854  1
  Cr  Cr2  1  0.75000000  0.16085803  0.44883854  1
  Cr  Cr3  1  0.25000000  0.83914197  0.55116146  1
  Se  Se0  1  0.25000000  0.48628831  0.10883919  1
  Se  Se1  1  0.25000000  0.84229769  0.99414236  1
  Se  Se2  1  0.75000000  0.51371169  0.89116081  1
  Se  Se3  1  0.25000000  0.34229769  0.50585764  1
  Se  Se4  1  0.75000000  0.15770231  0.00585764  1
  Se  Se5  1  0.75000000  0.80958298  0.21156630  1
  Se  Se6  1  0.25000000  0.69041702  0.71156630  1
  Se  Se7  1  0.75000000  0.30958298  0.28843370  1
  Se  Se8  1  0.25000000  0.19041702  0.78843370  1
  Se  Se9  1  0.75000000  0.65770231  0.49414236  1
  Se  Se10  1  0.25000000  0.98628831  0.39116081  1
  Se  Se11  1  0.75000000  0.01371169  0.60883919  1
loop_
_geom_bond_atom_site_label_1
_geom_bond_atom_site_label_2
_geom_bond_distance
_geom_bond_site_symmetry_2
Nd0 Se4 3.060151 1_555
Nd0 Se4 3.060151 1_455
Nd0 Se7 3.091831 1_455
Nd0 Se7 3.091831 1_555
Nd0 Se5 3.102178 1_445
Nd0 Se5 3.102178 1_545
Nd0 Se10 3.136933 1_545
Nd0 Se1 3.191252 1_544
Nd0 Se0 3.314107 1_555
Nd1 Se3 3.060151 1_555
Nd1 Se3 3.060151 1_655
Nd1 Se8 3.091831 1_655
Nd1 Se8 3.091831 1_555
Nd1 Se6 3.102178 1_555
Nd1 Se6 3.102178 1_655
Nd1 Se2 3.136933 1_555
Nd1 Se9 3.191252 1_555
Nd1 Se11 3.314107 1_555
Nd2 Se9 3.060151 1_455
Nd2 Se9 3.060151 1_555
Nd2 Se5 3.091831 1_555
Nd2 Se5 3.091831 1_455
Nd2 Se7 3.102178 1_455
Nd2 Se7 3.102178 1_555
Nd2 Se0 3.136933 1_555
Nd2 Se3 3.191252 1_555
Nd2 Se10 3.314107 1_555
Nd3 Se1 3.060151 1_655
Nd3 Se1 3.060151 1_555
Nd3 Se6 3.091831 1_555
Nd3 Se6 3.091831 1_655
Nd3 Se8 3.102178 1_665
Nd3 Se8 3.102178 1_565
Nd3 Se11 3.136933 1_565
Nd3 Se4 3.191252 1_566
Nd3 Se2 3.314107 1_555
Cr0 Se2 2.502795 1_554
Cr0 Se5 2.513864 1_555
Cr0 Se0 2.563508 1_655
Cr0 Se0 2.563508 1_555
Cr0 Se1 2.592383 1_554
Cr0 Se1 2.592383 1_654
Cr1 Se0 2.502795 1_556
Cr1 Se8 2.513864 1_555
Cr1 Se2 2.563508 1_455
Cr1 Se2 2.563508 1_555
Cr1 Se4 2.592383 1_556
Cr1 Se4 2.592383 1_456
Cr2 Se11 2.502795 1_555
Cr2 Se7 2.513864 1_555
Cr2 Se10 2.563508 1_545
Cr2 Se10 2.563508 1_645
Cr2 Se3 2.592383 1_555
Cr2 Se3 2.592383 1_655
Cr3 Se10 2.502795 1_555
Cr3 Se6 2.513864 1_555
Cr3 Se11 2.563508 1_565
Cr3 Se11 2.563508 1_465
Cr3 Se9 2.592383 1_455
Cr3 Se9 2.592383 1_555
