# generated using pymatgen
data_Pm3Sn
_symmetry_space_group_name_H-M   'P 1'
_cell_length_a   4.90953212
_cell_length_b   4.90440147
_cell_length_c   4.90770265
_cell_angle_alpha   90.00022085
_cell_angle_beta   90.00014708
_cell_angle_gamma   89.99156981
_symmetry_Int_Tables_number   1
_chemical_formula_structural   Pm3Sn
_chemical_formula_sum   'Pm3 Sn1'
_cell_volume   118.16921680
_cell_formula_units_Z   1
loop_
 _symmetry_equiv_pos_site_id
 _symmetry_equiv_pos_as_xyz
  1  'x, y, z'
loop_
 _atom_site_type_symbol
 _atom_site_label
 _atom_site_symmetry_multiplicity
 _atom_site_fract_x
 _atom_site_fract_y
 _atom_site_fract_z
 _atom_site_occupancy
  Pm  Pm0  1  0.00000100  0.50000100  0.50000000  1
  Pm  Pm1  1  0.50000100  0.00000000  0.50000000  1
  Pm  Pm2  1  0.50000100  0.50000000  0.00000000  1
  Sn  Sn0  1  0.99999900  0.00000100  0.00000100  1
loop_
_geom_bond_atom_site_label_1
_geom_bond_atom_site_label_2
_geom_bond_distance
_geom_bond_site_symmetry_2
Pm0 Sn0 3.469093 1_455
Pm0 Sn0 3.469100 1_466
Pm0 Sn0 3.469106 1_465
Pm0 Sn0 3.469113 1_456
Pm0 Pm1 3.469491 1_465
Pm0 Pm1 3.469498 1_555
Pm0 Pm1 3.470002 1_565
Pm0 Pm1 3.470009 1_455
Pm0 Pm2 3.470912 1_556
Pm0 Pm2 3.470912 1_455
Pm0 Pm2 3.470921 1_555
Pm0 Pm2 3.470921 1_456
Pm1 Pm2 3.469096 1_545
Pm1 Pm2 3.469096 1_556
Pm1 Pm2 3.469110 1_555
Pm1 Pm2 3.469110 1_546
Pm1 Sn0 3.470909 1_556
Pm1 Sn0 3.470911 1_555
Pm1 Sn0 3.470916 1_455
Pm1 Sn0 3.470932 1_456
Pm2 Sn0 3.469484 1_555
Pm2 Sn0 3.469505 1_465
Pm2 Sn0 3.470002 1_565
Pm2 Sn0 3.470009 1_455
