# generated using pymatgen
data_LiHo2Os
_symmetry_space_group_name_H-M   'P 1'
_cell_length_a   4.84889991
_cell_length_b   4.84889991
_cell_length_c   4.84889991
_cell_angle_alpha   60.00000000
_cell_angle_beta   60.00000000
_cell_angle_gamma   60.00000000
_symmetry_Int_Tables_number   1
_chemical_formula_structural   LiHo2Os
_chemical_formula_sum   'Li1 Ho2 Os1'
_cell_volume   80.61477790
_cell_formula_units_Z   1
loop_
 _symmetry_equiv_pos_site_id
 _symmetry_equiv_pos_as_xyz
  1  'x, y, z'
loop_
 _atom_site_type_symbol
 _atom_site_label
 _atom_site_symmetry_multiplicity
 _atom_site_fract_x
 _atom_site_fract_y
 _atom_site_fract_z
 _atom_site_occupancy
  Li  Li0  1  0.24999900  0.24999900  0.24999900  1
  Ho  Ho0  1  -0.00000000  -0.00000000  -0.00000000  1
  Ho  Ho1  1  0.50000000  0.50000000  0.50000000  1
  Os  Os0  1  0.75000000  0.75000000  0.75000000  1
loop_
_geom_bond_atom_site_label_1
_geom_bond_atom_site_label_2
_geom_bond_distance
_geom_bond_site_symmetry_2
Ho0 Li0 2.969321 1_555
Ho0 Os0 2.969333 1_454
Ho0 Os0 2.969333 1_544
Ho0 Os0 2.969333 1_445
Ho0 Os0 2.969333 1_444
Ho0 Li0 2.969337 1_545
Ho0 Li0 2.969337 1_455
Ho0 Li0 2.969337 1_554
Ho1 Li0 2.969329 1_556
Ho1 Li0 2.969329 1_565
Ho1 Li0 2.969329 1_655
Ho1 Os0 2.969333 1_455
Ho1 Os0 2.969333 1_545
Ho1 Os0 2.969333 1_555
Ho1 Os0 2.969333 1_554
Ho1 Li0 2.969345 1_555
