# generated using pymatgen
data_YAl3
_symmetry_space_group_name_H-M   'P 1'
_cell_length_a   6.26584768
_cell_length_b   6.26584869
_cell_length_c   4.59464322
_cell_angle_alpha   90.00000000
_cell_angle_beta   90.00000000
_cell_angle_gamma   120.00008154
_symmetry_Int_Tables_number   1
_chemical_formula_structural   YAl3
_chemical_formula_sum   'Y2 Al6'
_cell_volume   156.22186006
_cell_formula_units_Z   2
loop_
 _symmetry_equiv_pos_site_id
 _symmetry_equiv_pos_as_xyz
  1  'x, y, z'
loop_
 _atom_site_type_symbol
 _atom_site_label
 _atom_site_symmetry_multiplicity
 _atom_site_fract_x
 _atom_site_fract_y
 _atom_site_fract_z
 _atom_site_occupancy
  Y  Y0  1  0.33333300  0.66666700  0.75000000  1
  Y  Y1  1  0.66666800  0.33333300  0.25000000  1
  Al  Al0  1  0.14520738  0.29041476  0.25000000  1
  Al  Al1  1  0.70958624  0.85479262  0.25000000  1
  Al  Al2  1  0.14520738  0.85479262  0.25000000  1
  Al  Al3  1  0.85479462  0.70958524  0.75000000  1
  Al  Al4  1  0.29041576  0.14520838  0.75000000  1
  Al  Al5  1  0.85479362  0.14520838  0.75000000  1
loop_
_geom_bond_atom_site_label_1
_geom_bond_atom_site_label_2
_geom_bond_distance
_geom_bond_site_symmetry_2
Al0 Al1 2.729536 1_445
Al0 Al2 2.729542 1_545
Al0 Al5 2.785881 1_455
Al0 Al5 2.785881 1_454
Al0 Al4 2.785885 1_554
Al0 Al4 2.785885 1_555
Al0 Y0 3.073463 1_555
Al0 Y0 3.073463 1_554
Al0 Y1 3.141559 1_455
Al0 Y1 3.141577 1_555
Al1 Al2 2.729536 1_655
Al1 Al5 2.785887 1_564
Al1 Al5 2.785887 1_565
Al1 Al3 2.785888 1_555
Al1 Al3 2.785888 1_554
Al1 Y0 3.073466 1_555
Al1 Y0 3.073466 1_554
Al1 Y1 3.141566 1_565
Al1 Y1 3.141571 1_555
Al2 Al3 2.785878 1_455
Al2 Al3 2.785878 1_454
Al2 Al4 2.785887 1_564
Al2 Al4 2.785887 1_565
Al2 Y0 3.073461 1_555
Al2 Y0 3.073461 1_554
Al2 Y1 3.141562 1_455
Al2 Y1 3.141568 1_565
Al3 Al4 2.729539 1_665
Al3 Al5 2.729552 1_565
Al3 Y1 3.073463 1_556
Al3 Y1 3.073463 1_555
Al3 Y0 3.141553 1_655
Al3 Y0 3.141583 1_555
Al4 Al5 2.729542 1_455
Al4 Y1 3.073463 1_555
Al4 Y1 3.073463 1_556
Al4 Y0 3.141568 1_555
Al4 Y0 3.141568 1_545
Al5 Y1 3.073457 1_555
Al5 Y1 3.073457 1_556
Al5 Y0 3.141559 1_655
Al5 Y0 3.141571 1_545
