# generated using pymatgen
data_Li5Mn6(BO3)6
_symmetry_space_group_name_H-M   'P 1'
_cell_length_a   6.35332900
_cell_length_b   8.23458293
_cell_length_c   8.79728216
_cell_angle_alpha   116.95134189
_cell_angle_beta   111.05254766
_cell_angle_gamma   89.78507552
_symmetry_Int_Tables_number   1
_chemical_formula_structural   Li5Mn6(BO3)6
_chemical_formula_sum   'Li5 Mn6 B6 O18'
_cell_volume   375.81254932
_cell_formula_units_Z   1
loop_
 _symmetry_equiv_pos_site_id
 _symmetry_equiv_pos_as_xyz
  1  'x, y, z'
loop_
 _atom_site_type_symbol
 _atom_site_label
 _atom_site_symmetry_multiplicity
 _atom_site_fract_x
 _atom_site_fract_y
 _atom_site_fract_z
 _atom_site_occupancy
  Li  Li0  1  0.10933000  0.70541400  0.72444000  1
  Li  Li1  1  0.39472200  0.01462200  0.29967700  1
  Li  Li2  1  0.90502100  0.01541700  0.30082300  1
  Li  Li3  1  0.23575800  0.28573300  0.98091400  1
  Li  Li4  1  0.74635200  0.28447100  0.98146300  1
  Mn  Mn0  1  0.32813000  0.97765100  0.64291300  1
  Mn  Mn1  1  0.81431400  0.97819900  0.63122700  1
  Mn  Mn2  1  0.50090100  0.64233400  0.99829600  1
  Mn  Mn3  1  0.99472500  0.63635200  0.99770200  1
  Mn  Mn4  1  0.18920800  0.39271100  0.37680400  1
  Mn  Mn5  1  0.67637800  0.37073700  0.36029500  1
  B  B0  1  0.40881600  0.66632200  0.32852800  1
  B  B1  1  0.92376800  0.66535900  0.33266700  1
  B  B2  1  0.00962600  0.01293700  0.00951000  1
  B  B3  1  0.50071700  0.00970800  0.00983300  1
  B  B4  1  0.08826800  0.32438300  0.66170200  1
  B  B5  1  0.56971000  0.32126300  0.65946900  1
  O  O0  1  0.35184900  0.73752000  0.20663800  1
  O  O1  1  0.85554000  0.73998500  0.21447200  1
  O  O2  1  0.51250500  0.77504500  0.51701400  1
  O  O3  1  0.01672600  0.77317100  0.52413500  1
  O  O4  1  0.42822200  0.82211000  0.89366000  1
  O  O5  1  0.97129200  0.82330000  0.90440600  1
  O  O6  1  0.35643900  0.46956700  0.25361500  1
  O  O7  1  0.89881700  0.46951900  0.25628600  1
  O  O8  1  0.03781500  0.41237400  0.54975100  1
  O  O9  1  0.49858900  0.39390900  0.53630200  1
  O  O10  1  0.67231500  0.43807600  0.84963800  1
  O  O11  1  0.17680600  0.43861600  0.85190100  1
  O  O12  1  0.60384900  0.08389800  0.20353400  1
  O  O13  1  0.09951600  0.10116200  0.20502400  1
  O  O14  1  0.04517900  0.13417800  0.58064700  1
  O  O15  1  0.53955200  0.13116200  0.58436300  1
  O  O16  1  0.96268400  0.12181800  0.92111600  1
  O  O17  1  0.46837400  0.13097400  0.93485800  1
loop_
_geom_bond_atom_site_label_1
_geom_bond_atom_site_label_2
_geom_bond_distance
_geom_bond_site_symmetry_2
Li0 O4 1.948157 1_555
Li0 O5 1.953472 1_455
Li0 O3 1.976490 1_555
Li0 O8 2.129808 1_555
Li1 O12 2.014084 1_555
Li1 O0 2.025425 1_545
Li1 O13 2.030932 1_555
Li1 O15 2.052389 1_555
Li2 O12 1.991134 1_555
Li2 O13 2.007455 1_655
Li2 O14 2.014611 1_655
Li2 O1 2.022873 1_545
Li3 O16 1.956224 1_455
Li3 O17 1.979993 1_555
Li3 O11 1.999894 1_555
Li3 O6 2.007490 1_556
Li4 O16 1.957217 1_555
Li4 O17 1.977771 1_555
Li4 O7 2.023496 1_556
Li4 O10 2.024689 1_555
Mn0 O17 2.099812 1_565
Mn0 O2 2.150535 1_555
Mn0 O15 2.183474 1_565
Mn0 O3 2.187735 1_555
Mn0 O14 2.260136 1_565
Mn1 O16 2.082844 1_565
Mn1 O2 2.145023 1_555
Mn1 O15 2.177385 1_565
Mn1 O3 2.191828 1_655
Mn1 O14 2.236119 1_665
Mn2 O4 2.043730 1_555
Mn2 O10 2.177375 1_555
Mn2 O0 2.193084 1_556
Mn2 O11 2.207913 1_555
Mn2 O1 2.211068 1_556
Mn3 O5 2.030143 1_555
Mn3 O10 2.176847 1_555
Mn3 O11 2.189393 1_655
Mn3 O0 2.202372 1_656
Mn3 O1 2.208512 1_556
Mn4 O9 1.959235 1_555
Mn4 O8 2.023150 1_555
Mn4 O7 2.030204 1_455
Mn4 O6 2.039082 1_555
Mn4 O13 2.115434 1_555
Mn5 O12 2.071745 1_555
Mn5 O9 2.167235 1_555
Mn5 O8 2.215121 1_655
Mn5 O6 2.232539 1_555
Mn5 O7 2.260181 1_555
B0 O2 1.363442 1_555
B0 O0 1.383476 1_555
B0 O6 1.431324 1_555
B1 O1 1.378435 1_555
B1 O3 1.381256 1_655
B1 O7 1.421421 1_555
B2 O5 1.372961 1_444
B2 O16 1.400320 1_454
B2 O13 1.406066 1_555
B3 O4 1.370783 1_544
B3 O12 1.401240 1_555
B3 O17 1.404470 1_554
B4 O14 1.373739 1_555
B4 O11 1.379131 1_555
B4 O8 1.419864 1_555
B5 O15 1.377494 1_555
B5 O10 1.382570 1_555
B5 O9 1.403513 1_555
