# generated using pymatgen
data_MnP2H2O7
_symmetry_space_group_name_H-M   'P 1'
_cell_length_a   7.21451035
_cell_length_b   7.93225200
_cell_length_c   9.55495429
_cell_angle_alpha   89.99835728
_cell_angle_beta   100.58853628
_cell_angle_gamma   90.00079754
_symmetry_Int_Tables_number   1
_chemical_formula_structural   MnP2H2O7
_chemical_formula_sum   'Mn4 P8 H8 O28'
_cell_volume   537.49345971
_cell_formula_units_Z   4
loop_
 _symmetry_equiv_pos_site_id
 _symmetry_equiv_pos_as_xyz
  1  'x, y, z'
loop_
 _atom_site_type_symbol
 _atom_site_label
 _atom_site_symmetry_multiplicity
 _atom_site_fract_x
 _atom_site_fract_y
 _atom_site_fract_z
 _atom_site_occupancy
  Mn  Mn0  1  0.50033300  0.50036900  0.00025400  1
  Mn  Mn1  1  0.00049800  0.99964400  0.50007800  1
  Mn  Mn2  1  0.99998500  0.99991400  0.99997600  1
  Mn  Mn3  1  0.49991800  0.50004000  0.49986500  1
  P  P0  1  0.66791800  0.12225100  0.18666900  1
  P  P1  1  0.16791000  0.62221500  0.18663500  1
  P  P2  1  0.33212200  0.12222200  0.31331100  1
  P  P3  1  0.83207400  0.62214100  0.31329700  1
  P  P4  1  0.66797700  0.87778300  0.68672100  1
  P  P5  1  0.16788500  0.37776600  0.68664100  1
  P  P6  1  0.33208800  0.87783300  0.81331100  1
  P  P7  1  0.83206400  0.37777900  0.81333400  1
  H  H0  1  0.70373800  0.79639700  0.14408200  1
  H  H1  1  0.20371100  0.29630800  0.14408900  1
  H  H2  1  0.29626100  0.79630900  0.35591200  1
  H  H3  1  0.79628500  0.29626300  0.35590000  1
  H  H4  1  0.70375000  0.20368700  0.64410500  1
  H  H5  1  0.20377200  0.70361400  0.64409100  1
  H  H6  1  0.29622900  0.20372600  0.85588800  1
  H  H7  1  0.79620500  0.70363600  0.85596600  1
  O  O0  1  0.49998800  0.03009300  0.24998700  1
  O  O1  1  0.00001400  0.53008700  0.24999400  1
  O  O2  1  0.49998100  0.96990300  0.74997600  1
  O  O3  1  0.99997000  0.46990300  0.74998900  1
  O  O4  1  0.59464600  0.27473400  0.10224200  1
  O  O5  1  0.09467900  0.77475400  0.10228900  1
  O  O6  1  0.40528400  0.27475200  0.39768900  1
  O  O7  1  0.90526300  0.77461700  0.39774400  1
  O  O8  1  0.59471200  0.72532100  0.60225700  1
  O  O9  1  0.09463900  0.22529600  0.60220200  1
  O  O10  1  0.40523800  0.72527500  0.89766600  1
  O  O11  1  0.90530000  0.22528700  0.89774100  1
  O  O12  1  0.75478300  0.98181000  0.11195400  1
  O  O13  1  0.25478700  0.48182900  0.11190600  1
  O  O14  1  0.24524400  0.98180200  0.38805400  1
  O  O15  1  0.74511400  0.48170200  0.38790200  1
  O  O16  1  0.75487500  0.01820700  0.61202500  1
  O  O17  1  0.25474900  0.51821400  0.61191200  1
  O  O18  1  0.24516000  0.01823800  0.88799400  1
  O  O19  1  0.74520500  0.51822000  0.88805200  1
  O  O20  1  0.18309700  0.17420900  0.17460200  1
  O  O21  1  0.68311300  0.67423900  0.17456400  1
  O  O22  1  0.81681900  0.17411900  0.32546800  1
  O  O23  1  0.31685100  0.67419300  0.32541500  1
  O  O24  1  0.18311600  0.82577100  0.67456600  1
  O  O25  1  0.68312100  0.32581000  0.67458200  1
  O  O26  1  0.81672600  0.82587500  0.82567300  1
  O  O27  1  0.31679400  0.32584800  0.82542800  1
loop_
_geom_bond_atom_site_label_1
_geom_bond_atom_site_label_2
_geom_bond_distance
_geom_bond_site_symmetry_2
Mn0 O10 2.089737 1_554
Mn0 O4 2.090985 1_555
Mn0 O19 2.233034 1_554
Mn0 O13 2.234385 1_555
Mn0 O21 2.368106 1_555
Mn0 O27 2.376418 1_554
Mn1 O7 2.089843 1_455
Mn1 O9 2.091364 1_565
Mn1 O14 2.231174 1_555
Mn1 O16 2.236651 1_465
Mn1 O24 2.368609 1_555
Mn1 O22 2.375366 1_465
Mn2 O5 2.089687 1_656
Mn2 O11 2.090812 1_565
Mn2 O18 2.233884 1_665
Mn2 O12 2.233919 1_556
Mn2 O26 2.370326 1_555
Mn2 O20 2.372908 1_666
Mn3 O6 2.089949 1_555
Mn3 O8 2.091021 1_555
Mn3 O15 2.233919 1_555
Mn3 O17 2.234164 1_555
Mn3 O23 2.371069 1_555
Mn3 O25 2.373377 1_555
H0 O21 1.030444 1_555
H0 O12 1.560271 1_555
H1 O20 1.030080 1_555
H1 O13 1.561266 1_555
H2 O23 1.030145 1_555
H2 O14 1.560873 1_555
H3 O22 1.030083 1_555
H3 O15 1.560451 1_555
H4 O25 1.030194 1_555
H4 O16 1.560846 1_555
H5 O24 1.030480 1_555
H5 O17 1.560184 1_555
H6 O27 1.030026 1_555
H6 O18 1.560829 1_555
H7 O26 1.030345 1_555
H7 O19 1.560109 1_555
O0 P2 1.623635 1_555
O0 P0 1.624055 1_555
O1 P3 1.623700 1_455
O1 P1 1.623948 1_555
O2 P6 1.623606 1_555
O2 P4 1.624031 1_555
O3 P7 1.623924 1_555
O3 P5 1.624069 1_655
O4 P0 1.495464 1_555
O5 P1 1.495381 1_555
O6 P2 1.495368 1_555
O7 P3 1.495383 1_555
O8 P4 1.495510 1_555
O9 P5 1.495413 1_555
O10 P6 1.495396 1_555
O11 P7 1.495365 1_555
O12 P0 1.519178 1_565
O13 P1 1.518974 1_555
O14 P2 1.519206 1_565
O15 P3 1.518892 1_555
O16 P4 1.519056 1_545
O17 P5 1.519245 1_555
O18 P6 1.519028 1_545
O19 P7 1.519172 1_555
O20 P2 1.599643 1_555
O21 P3 1.599792 1_555
O22 P0 1.599553 1_555
O23 P1 1.599800 1_555
O24 P6 1.599852 1_555
O25 P7 1.599600 1_555
O26 P4 1.600086 1_555
O27 P5 1.599593 1_555
