# generated using pymatgen
data_Li2MnVP2(HO5)2
_symmetry_space_group_name_H-M   'P 1'
_cell_length_a   5.39757800
_cell_length_b   7.46963114
_cell_length_c   10.28388678
_cell_angle_alpha   104.80296882
_cell_angle_beta   100.09124233
_cell_angle_gamma   106.06801883
_symmetry_Int_Tables_number   1
_chemical_formula_structural   Li2MnVP2(HO5)2
_chemical_formula_sum   'Li4 Mn2 V2 P4 H4 O20'
_cell_volume   371.46174562
_cell_formula_units_Z   2
loop_
 _symmetry_equiv_pos_site_id
 _symmetry_equiv_pos_as_xyz
  1  'x, y, z'
loop_
 _atom_site_type_symbol
 _atom_site_label
 _atom_site_symmetry_multiplicity
 _atom_site_fract_x
 _atom_site_fract_y
 _atom_site_fract_z
 _atom_site_occupancy
  Li  Li0  1  0.47593400  0.05179000  0.87390200  1
  Li  Li1  1  0.97470100  0.54073600  0.37248700  1
  Li  Li2  1  0.02529900  0.45926400  0.62751300  1
  Li  Li3  1  0.52406600  0.94821000  0.12609800  1
  Mn  Mn0  1  0.00000000  0.50000000  0.00000000  1
  Mn  Mn1  1  0.50000000  0.50000000  0.50000000  1
  V  V0  1  0.50000000  0.00000000  0.50000000  1
  V  V1  1  0.00000000  0.00000000  0.00000000  1
  P  P0  1  0.47351400  0.60533200  0.84105000  1
  P  P1  1  0.02488200  0.88641100  0.65749700  1
  P  P2  1  0.97511800  0.11358900  0.34250300  1
  P  P3  1  0.52648600  0.39466800  0.15895000  1
  H  H0  1  0.61280200  0.32751100  0.67833700  1
  H  H1  1  0.11758700  0.84538300  0.17908600  1
  H  H2  1  0.88241300  0.15461700  0.82091400  1
  H  H3  1  0.38719800  0.67248900  0.32166300  1
  O  O0  1  0.86757700  0.18741400  0.91701200  1
  O  O1  1  0.36784800  0.71299500  0.41776500  1
  O  O2  1  0.64771600  0.47710100  0.86037000  1
  O  O3  1  0.30914700  0.99800800  0.64669800  1
  O  O4  1  0.17141700  0.00044300  0.37176200  1
  O  O5  1  0.81536300  0.48883600  0.14565500  1
  O  O6  1  0.42289000  0.61356100  0.69143700  1
  O  O7  1  0.60740100  0.82044600  0.94726900  1
  O  O8  1  0.92558600  0.10927600  0.18925700  1
  O  O9  1  0.08231600  0.32576100  0.44303200  1
  O  O10  1  0.91768400  0.67423900  0.55696800  1
  O  O11  1  0.07441400  0.89072400  0.81074300  1
  O  O12  1  0.39259900  0.17955400  0.05273100  1
  O  O13  1  0.57711000  0.38643900  0.30856300  1
  O  O14  1  0.18463700  0.51116400  0.85434500  1
  O  O15  1  0.82858300  0.99955700  0.62823800  1
  O  O16  1  0.69085300  0.00199200  0.35330200  1
  O  O17  1  0.35228400  0.52289900  0.13963000  1
  O  O18  1  0.63215200  0.28700500  0.58223500  1
  O  O19  1  0.13242300  0.81258600  0.08298800  1
loop_
_geom_bond_atom_site_label_1
_geom_bond_atom_site_label_2
_geom_bond_distance
_geom_bond_site_symmetry_2
Li0 O0 1.986991 1_555
Li0 O12 2.031234 1_556
Li0 O11 2.056768 1_545
Li0 O3 2.239260 1_545
Li0 O7 2.283940 1_545
Li1 O10 2.023907 1_555
Li1 O13 2.028607 1_555
Li1 O1 2.052225 1_655
Li1 O9 2.099093 1_655
Li1 O5 2.231994 1_555
Li2 O9 2.023907 1_555
Li2 O6 2.028607 1_555
Li2 O18 2.052225 1_455
Li2 O10 2.099093 1_455
Li2 O14 2.231994 1_555
Li3 O19 1.986991 1_555
Li3 O7 2.031234 1_554
Li3 O8 2.056768 1_565
Li3 O16 2.239260 1_565
Li3 O12 2.283940 1_565
Mn0 O5 1.945457 1_455
Mn0 O14 1.945457 1_554
Mn0 O2 2.108183 1_454
Mn0 O17 2.108183 1_555
Mn0 O19 2.129592 1_555
Mn0 O0 2.129592 1_454
Mn1 O6 2.097104 1_555
Mn1 O13 2.097104 1_555
Mn1 O10 2.154783 1_555
Mn1 O9 2.154783 1_555
Mn1 O1 2.204453 1_555
Mn1 O18 2.204453 1_555
H0 O18 0.989980 1_555
H1 O19 0.978758 1_555
H2 O0 0.978758 1_555
H3 O1 0.989980 1_555
O0 V1 2.037065 1_656
O1 V0 1.958480 1_565
O2 P0 1.539923 1_555
O3 P1 1.568574 1_555
O3 V0 1.971031 1_565
O4 P2 1.562491 1_455
O4 V0 2.017556 1_555
O5 P3 1.568888 1_555
O6 P0 1.534939 1_555
O7 P0 1.575127 1_555
O7 V1 2.058103 1_666
O8 P2 1.542017 1_555
O8 V1 2.063808 1_655
O9 P2 1.536506 1_455
O10 P1 1.536506 1_655
O11 P1 1.542017 1_555
O11 V1 2.063808 1_566
O12 P3 1.575127 1_555
O12 V1 2.058103 1_555
O13 P3 1.534939 1_555
O14 P0 1.568888 1_555
O15 P1 1.562491 1_655
O15 V0 2.017556 1_565
O16 P2 1.568574 1_555
O16 V0 1.971031 1_555
O17 P3 1.539923 1_555
O18 V0 1.958480 1_555
O19 V1 2.037065 1_565
