# generated using pymatgen
data_Y2IrRh
_symmetry_space_group_name_H-M   'P 1'
_cell_length_a   4.83332256
_cell_length_b   4.83332256
_cell_length_c   4.83332256
_cell_angle_alpha   60.00000000
_cell_angle_beta   60.00000000
_cell_angle_gamma   60.00000000
_symmetry_Int_Tables_number   1
_chemical_formula_structural   Y2IrRh
_chemical_formula_sum   'Y2 Ir1 Rh1'
_cell_volume   79.84033333
_cell_formula_units_Z   1
loop_
 _symmetry_equiv_pos_site_id
 _symmetry_equiv_pos_as_xyz
  1  'x, y, z'
loop_
 _atom_site_type_symbol
 _atom_site_label
 _atom_site_symmetry_multiplicity
 _atom_site_fract_x
 _atom_site_fract_y
 _atom_site_fract_z
 _atom_site_occupancy
  Y  Y0  1  0.50000000  0.50000000  0.50000000  1
  Y  Y1  1  -0.00000000  0.00000000  0.00000000  1
  Ir  Ir0  1  0.24999900  0.24999900  0.24999900  1
  Rh  Rh0  1  0.75000100  0.75000100  0.75000100  1
loop_
_geom_bond_atom_site_label_1
_geom_bond_atom_site_label_2
_geom_bond_distance
_geom_bond_site_symmetry_2
Ir0 Y1 2.959782 1_555
Ir0 Y0 2.959790 1_545
Ir0 Y0 2.959790 1_554
Ir0 Y0 2.959790 1_455
Ir0 Y1 2.959797 1_565
Ir0 Y1 2.959797 1_655
Ir0 Y1 2.959797 1_556
Ir0 Y0 2.959805 1_555
Rh0 Y1 2.959782 1_666
Rh0 Y0 2.959790 1_565
Rh0 Y0 2.959790 1_655
Rh0 Y0 2.959790 1_556
Rh0 Y1 2.959797 1_566
Rh0 Y1 2.959797 1_665
Rh0 Y1 2.959797 1_656
Rh0 Y0 2.959805 1_555
