# generated using pymatgen
data_Pm2PdRh
_symmetry_space_group_name_H-M   'P 1'
_cell_length_a   5.00175569
_cell_length_b   5.00175628
_cell_length_c   5.00175632
_cell_angle_alpha   59.99996394
_cell_angle_beta   59.99997648
_cell_angle_gamma   59.99997409
_symmetry_Int_Tables_number   1
_chemical_formula_structural   Pm2PdRh
_chemical_formula_sum   'Pm2 Pd1 Rh1'
_cell_volume   88.48145425
_cell_formula_units_Z   1
loop_
 _symmetry_equiv_pos_site_id
 _symmetry_equiv_pos_as_xyz
  1  'x, y, z'
loop_
 _atom_site_type_symbol
 _atom_site_label
 _atom_site_symmetry_multiplicity
 _atom_site_fract_x
 _atom_site_fract_y
 _atom_site_fract_z
 _atom_site_occupancy
  Pm  Pm0  1  -0.00000004  -0.00000006  -0.00000003  1
  Pm  Pm1  1  0.49999914  0.49999912  0.49999916  1
  Pd  Pd0  1  0.25000093  0.25000093  0.25000096  1
  Rh  Rh0  1  0.74999996  0.75000000  0.74999990  1
loop_
_geom_bond_atom_site_label_1
_geom_bond_atom_site_label_2
_geom_bond_distance
_geom_bond_site_symmetry_2
Pm0 Rh0 3.062936 1_445
Pm0 Rh0 3.062936 1_544
Pm0 Rh0 3.062937 1_454
Pm0 Rh0 3.062938 1_444
Pm1 Rh0 3.062933 1_545
Pm1 Rh0 3.062933 1_455
Pm1 Rh0 3.062933 1_554
Pm1 Rh0 3.062948 1_555
Pd0 Pm1 3.062916 1_555
Pd0 Pm0 3.062932 1_565
Pd0 Pm0 3.062932 1_556
Pd0 Pm0 3.062932 1_655
Pd0 Pm1 3.062944 1_455
Pd0 Pm1 3.062944 1_545
Pd0 Pm1 3.062944 1_554
Pd0 Pm0 3.062950 1_555
