# generated using pymatgen
data_Mn6OF11
_symmetry_space_group_name_H-M   'P 1'
_cell_length_a   16.22087700
_cell_length_b   4.96430500
_cell_length_c   7.65471671
_cell_angle_alpha   50.28193869
_cell_angle_beta   90.00000000
_cell_angle_gamma   90.00000000
_symmetry_Int_Tables_number   1
_chemical_formula_structural   Mn6OF11
_chemical_formula_sum   'Mn12 O2 F22'
_cell_volume   474.13295897
_cell_formula_units_Z   2
loop_
 _symmetry_equiv_pos_site_id
 _symmetry_equiv_pos_as_xyz
  1  'x, y, z'
loop_
 _atom_site_type_symbol
 _atom_site_label
 _atom_site_symmetry_multiplicity
 _atom_site_fract_x
 _atom_site_fract_y
 _atom_site_fract_z
 _atom_site_occupancy
  Mn  Mn0  1  0.66844500  0.84647100  0.14367000  1
  Mn  Mn1  1  0.49595300  0.15959100  0.82929300  1
  Mn  Mn2  1  0.32909900  0.83172200  0.18708800  1
  Mn  Mn3  1  0.00106000  0.82524100  0.16923500  1
  Mn  Mn4  1  0.82812000  0.15346900  0.83283600  1
  Mn  Mn5  1  0.16793000  0.17551500  0.83024500  1
  Mn  Mn6  1  0.83207000  0.17551500  0.33024500  1
  Mn  Mn7  1  0.17188000  0.15346900  0.33283600  1
  Mn  Mn8  1  0.50404700  0.15959100  0.32929300  1
  Mn  Mn9  1  0.33155500  0.84647100  0.64367000  1
  Mn  Mn10  1  0.67090100  0.83172200  0.68708800  1
  Mn  Mn11  1  0.99894000  0.82524100  0.66923500  1
  O  O0  1  0.71813300  0.88055000  0.91046800  1
  O  O1  1  0.28186700  0.88055000  0.41046800  1
  F  F0  1  0.55721600  0.66612000  0.10974800  1
  F  F1  1  0.89166400  0.65986700  0.10566800  1
  F  F2  1  0.22313900  0.67260900  0.11463200  1
  F  F3  1  0.38450200  0.87502400  0.87427000  1
  F  F4  1  0.05803300  0.88141400  0.88971000  1
  F  F5  1  0.39391400  0.34010400  0.39169000  1
  F  F6  1  0.55672200  0.10910200  0.60811900  1
  F  F7  1  0.72008200  0.34852100  0.39212400  1
  F  F8  1  0.89064100  0.13102400  0.60268400  1
  F  F9  1  0.06119800  0.33009700  0.39135800  1
  F  F10  1  0.22848800  0.11355600  0.61716400  1
  F  F11  1  0.44278400  0.66612000  0.60974800  1
  F  F12  1  0.61549800  0.87502400  0.37427000  1
  F  F13  1  0.77686100  0.67260900  0.61463200  1
  F  F14  1  0.10833600  0.65986700  0.60566800  1
  F  F15  1  0.94196700  0.88141400  0.38971000  1
  F  F16  1  0.44327800  0.10910200  0.10811900  1
  F  F17  1  0.77151200  0.11355600  0.11716400  1
  F  F18  1  0.60608600  0.34010400  0.89169000  1
  F  F19  1  0.27991800  0.34852100  0.89212400  1
  F  F20  1  0.10935900  0.13102400  0.10268400  1
  F  F21  1  0.93880200  0.33009700  0.89135800  1
loop_
_geom_bond_atom_site_label_1
_geom_bond_atom_site_label_2
_geom_bond_distance
_geom_bond_site_symmetry_2
Mn0 O0 1.865163 1_554
Mn2 O1 2.024658 1_555
Mn4 O0 2.083929 1_545
Mn7 O1 2.083929 1_545
Mn9 O1 1.865163 1_555
Mn10 O0 2.024658 1_555
F0 Mn0 2.102709 1_555
F0 Mn8 2.119050 1_555
F0 Mn1 2.208225 1_564
F1 Mn6 2.094872 1_555
F1 Mn3 2.137787 1_655
F1 Mn4 2.210921 1_564
F2 Mn2 2.108454 1_555
F2 Mn7 2.149794 1_555
F2 Mn5 2.197271 1_564
F3 Mn9 2.047762 1_555
F3 Mn1 2.181941 1_565
F3 Mn2 2.435115 1_556
F4 Mn11 2.108619 1_455
F4 Mn5 2.160377 1_565
F4 Mn3 2.178878 1_556
F5 Mn2 2.151627 1_555
F5 Mn9 2.169776 1_545
F5 Mn8 2.183940 1_555
F6 Mn1 2.107873 1_555
F6 Mn10 2.151267 1_545
F6 Mn8 2.159763 1_555
F7 Mn0 2.102587 1_555
F7 Mn6 2.186718 1_555
F7 Mn10 2.216590 1_545
F8 Mn4 2.096554 1_555
F8 Mn11 2.159061 1_545
F8 Mn6 2.170675 1_555
F9 Mn3 2.131481 1_555
F9 Mn7 2.166756 1_555
F9 Mn11 2.238862 1_445
F10 Mn9 2.061646 1_545
F10 Mn5 2.088326 1_555
F10 Mn7 2.251268 1_555
F11 Mn9 2.102709 1_555
F11 Mn1 2.119050 1_555
F11 Mn8 2.208225 1_565
F12 Mn0 2.047762 1_555
F12 Mn8 2.181941 1_565
F12 Mn10 2.435115 1_555
F13 Mn10 2.108454 1_555
F13 Mn4 2.149794 1_555
F13 Mn6 2.197271 1_565
F14 Mn5 2.094872 1_555
F14 Mn11 2.137787 1_455
F14 Mn7 2.210921 1_565
F15 Mn3 2.108619 1_655
F15 Mn6 2.160377 1_565
F15 Mn11 2.178878 1_555
F16 Mn8 2.107873 1_555
F16 Mn2 2.151267 1_545
F16 Mn1 2.159763 1_554
F17 Mn0 2.061646 1_545
F17 Mn6 2.088326 1_555
F17 Mn4 2.251268 1_554
F18 Mn10 2.151627 1_555
F18 Mn0 2.169776 1_546
F18 Mn1 2.183940 1_555
F19 Mn9 2.102587 1_555
F19 Mn5 2.186718 1_555
F19 Mn2 2.216590 1_546
F20 Mn7 2.096554 1_555
F20 Mn3 2.159061 1_545
F20 Mn5 2.170675 1_554
F21 Mn11 2.131481 1_555
F21 Mn4 2.166756 1_555
F21 Mn3 2.238862 1_646
