# generated using pymatgen
data_LiNdHg2
_symmetry_space_group_name_H-M   'P 1'
_cell_length_a   5.11201166
_cell_length_b   5.11201094
_cell_length_c   5.11201167
_cell_angle_alpha   59.99982617
_cell_angle_beta   59.99989664
_cell_angle_gamma   59.99990126
_symmetry_Int_Tables_number   1
_chemical_formula_structural   LiNdHg2
_chemical_formula_sum   'Li1 Nd1 Hg2'
_cell_volume   94.46245203
_cell_formula_units_Z   1
loop_
 _symmetry_equiv_pos_site_id
 _symmetry_equiv_pos_as_xyz
  1  'x, y, z'
loop_
 _atom_site_type_symbol
 _atom_site_label
 _atom_site_symmetry_multiplicity
 _atom_site_fract_x
 _atom_site_fract_y
 _atom_site_fract_z
 _atom_site_occupancy
  Li  Li0  1  0.25000000  0.25000000  0.25000000  1
  Nd  Nd0  1  0.75000000  0.75000000  0.75000000  1
  Hg  Hg0  1  0.00000000  0.00000000  0.00000000  1
  Hg  Hg1  1  0.50000000  0.50000000  0.50000000  1
loop_
_geom_bond_atom_site_label_1
_geom_bond_atom_site_label_2
_geom_bond_distance
_geom_bond_site_symmetry_2
Hg0 Nd0 3.130449 1_454
Hg0 Li0 3.130449 1_545
Hg0 Li0 3.130449 1_554
Hg0 Nd0 3.130449 1_445
Hg0 Li0 3.130452 1_455
Hg0 Nd0 3.130452 1_544
Hg0 Nd0 3.130458 1_444
Hg0 Li0 3.130458 1_555
Hg1 Nd0 3.130449 1_545
Hg1 Li0 3.130449 1_565
Hg1 Li0 3.130449 1_556
Hg1 Nd0 3.130449 1_554
Hg1 Li0 3.130452 1_655
Hg1 Nd0 3.130452 1_455
Hg1 Nd0 3.130458 1_555
Hg1 Li0 3.130458 1_555
