# generated using pymatgen
data_TmAl2
_symmetry_space_group_name_H-M   'P 1'
_cell_length_a   5.48105842
_cell_length_b   5.48105730
_cell_length_c   5.48105812
_cell_angle_alpha   60.00000118
_cell_angle_beta   60.00000795
_cell_angle_gamma   60.00000201
_symmetry_Int_Tables_number   1
_chemical_formula_structural   TmAl2
_chemical_formula_sum   'Tm2 Al4'
_cell_volume   116.43357138
_cell_formula_units_Z   2
loop_
 _symmetry_equiv_pos_site_id
 _symmetry_equiv_pos_as_xyz
  1  'x, y, z'
loop_
 _atom_site_type_symbol
 _atom_site_label
 _atom_site_symmetry_multiplicity
 _atom_site_fract_x
 _atom_site_fract_y
 _atom_site_fract_z
 _atom_site_occupancy
  Tm  Tm0  1  0.87500000  0.87500000  0.87500000  1
  Tm  Tm1  1  0.12500000  0.12500000  0.12500000  1
  Al  Al0  1  0.50000000  0.50000000  0.50000000  1
  Al  Al1  1  0.50000000  0.50000000  0.00000000  1
  Al  Al2  1  -0.00000000  0.50000000  0.50000000  1
  Al  Al3  1  0.50000000  -0.00000000  0.50000000  1
loop_
_geom_bond_atom_site_label_1
_geom_bond_atom_site_label_2
_geom_bond_distance
_geom_bond_site_symmetry_2
Tm0 Tm1 3.356448 1_656
Tm0 Tm1 3.356449 1_666
Tm0 Tm1 3.356449 1_665
Tm0 Tm1 3.356449 1_566
Al0 Al3 2.740529 1_555
Al0 Al3 2.740529 1_565
Al0 Al1 2.740529 1_555
Al0 Al1 2.740529 1_556
Al0 Al2 2.740529 1_555
Al0 Al2 2.740529 1_655
Al0 Tm0 3.213555 1_545
Al0 Tm1 3.213555 1_565
Al0 Tm1 3.213555 1_556
Al0 Tm0 3.213555 1_554
Al0 Tm0 3.213555 1_455
Al0 Tm1 3.213555 1_655
Al1 Al3 2.740529 1_555
Al1 Al3 2.740529 1_564
Al1 Al2 2.740529 1_555
Al1 Al2 2.740529 1_654
Al1 Tm0 3.213555 1_544
Al1 Tm1 3.213555 1_565
Al1 Tm0 3.213555 1_554
Al1 Tm1 3.213555 1_555
Al1 Tm0 3.213555 1_454
Al1 Tm1 3.213555 1_655
Al2 Al3 2.740529 1_555
Al2 Al3 2.740529 1_465
Al2 Tm1 3.213555 1_565
Al2 Tm0 3.213555 1_445
Al2 Tm1 3.213555 1_555
Al2 Tm0 3.213555 1_455
Al2 Tm0 3.213555 1_454
Al2 Tm1 3.213555 1_556
Al3 Tm0 3.213555 1_545
Al3 Tm1 3.213555 1_555
Al3 Tm1 3.213555 1_556
Al3 Tm0 3.213555 1_544
Al3 Tm0 3.213556 1_445
Al3 Tm1 3.213556 1_655
