# generated using pymatgen
data_RbNaO
_symmetry_space_group_name_H-M   'P 1'
_cell_length_a   4.05017426
_cell_length_b   4.05017426
_cell_length_c   6.49398464
_cell_angle_alpha   90.00000000
_cell_angle_beta   90.00000000
_cell_angle_gamma   90.00000000
_symmetry_Int_Tables_number   1
_chemical_formula_structural   RbNaO
_chemical_formula_sum   'Rb2 Na2 O2'
_cell_volume   106.52674955
_cell_formula_units_Z   2
loop_
 _symmetry_equiv_pos_site_id
 _symmetry_equiv_pos_as_xyz
  1  'x, y, z'
loop_
 _atom_site_type_symbol
 _atom_site_label
 _atom_site_symmetry_multiplicity
 _atom_site_fract_x
 _atom_site_fract_y
 _atom_site_fract_z
 _atom_site_occupancy
  Rb  Rb0  1  0.25000000  0.25000000  0.64306242  1
  Rb  Rb1  1  0.75000000  0.75000000  0.35693758  1
  Na  Na0  1  0.75000000  0.25000000  -0.00000000  1
  Na  Na1  1  0.25000000  0.75000000  -0.00000000  1
  O  O0  1  0.75000000  0.75000000  0.80649318  1
  O  O1  1  0.25000000  0.25000000  0.19350682  1
loop_
_geom_bond_atom_site_label_1
_geom_bond_atom_site_label_2
_geom_bond_distance
_geom_bond_site_symmetry_2
Na0 O0 2.383296 1_544
Na0 O1 2.383296 1_555
Na0 O1 2.383296 1_655
Na0 O0 2.383296 1_554
Na1 O0 2.383296 1_454
Na1 O1 2.383296 1_555
Na1 O1 2.383296 1_565
Na1 O0 2.383296 1_554
O0 Rb1 2.919407 1_555
O0 Rb0 3.054235 1_655
O0 Rb0 3.054235 1_665
O0 Rb0 3.054235 1_555
O0 Rb0 3.054235 1_565
O1 Rb0 2.919407 1_555
O1 Rb1 3.054235 1_555
O1 Rb1 3.054235 1_455
O1 Rb1 3.054235 1_545
O1 Rb1 3.054235 1_445
