# generated using pymatgen
data_Sm2S2O
_symmetry_space_group_name_H-M   'P 1'
_cell_length_a   7.07399819
_cell_length_b   6.99962942
_cell_length_c   8.44523782
_cell_angle_alpha   81.00713985
_cell_angle_beta   90.00000000
_cell_angle_gamma   90.00000000
_symmetry_Int_Tables_number   1
_chemical_formula_structural   Sm2S2O
_chemical_formula_sum   'Sm8 S8 O4'
_cell_volume   413.02883365
_cell_formula_units_Z   4
loop_
 _symmetry_equiv_pos_site_id
 _symmetry_equiv_pos_as_xyz
  1  'x, y, z'
loop_
 _atom_site_type_symbol
 _atom_site_label
 _atom_site_symmetry_multiplicity
 _atom_site_fract_x
 _atom_site_fract_y
 _atom_site_fract_z
 _atom_site_occupancy
  Sm  Sm0  1  0.05477885  0.25114213  0.86217980  1
  Sm  Sm1  1  0.55477885  0.24885787  0.13782020  1
  Sm  Sm2  1  0.94522115  0.74885787  0.13782020  1
  Sm  Sm3  1  0.44522115  0.75114213  0.86217980  1
  Sm  Sm4  1  0.13844670  0.31690335  0.42102100  1
  Sm  Sm5  1  0.63844670  0.18309665  0.57897900  1
  Sm  Sm6  1  0.86155330  0.68309665  0.57897900  1
  Sm  Sm7  1  0.36155330  0.81690335  0.42102100  1
  S  S0  1  0.72357978  0.02914265  0.92219043  1
  S  S1  1  0.64053889  0.56775937  0.32209441  1
  S  S2  1  0.35946111  0.43224063  0.67790559  1
  S  S3  1  0.85946111  0.06775937  0.32209441  1
  S  S4  1  0.22357978  0.47085735  0.07780957  1
  S  S5  1  0.27642022  0.97085735  0.07780957  1
  S  S6  1  0.77642022  0.52914265  0.92219043  1
  S  S7  1  0.14053889  0.93224063  0.67790559  1
  O  O0  1  0.08744423  0.64921830  0.38289784  1
  O  O1  1  0.41255577  0.14921830  0.38289784  1
  O  O2  1  0.91255577  0.35078170  0.61710216  1
  O  O3  1  0.58744423  0.85078170  0.61710216  1
loop_
_geom_bond_atom_site_label_1
_geom_bond_atom_site_label_2
_geom_bond_distance
_geom_bond_site_symmetry_2
S0 Sm0 2.813270 1_655
S0 Sm1 2.825390 1_556
S0 Sm3 2.868636 1_545
S0 Sm2 2.916606 1_546
S0 Sm5 2.991453 1_555
S1 Sm2 2.838563 1_555
S1 Sm7 2.844220 1_555
S1 Sm6 2.889674 1_555
S1 Sm1 2.976341 1_555
S1 Sm5 3.182793 1_555
S2 Sm0 2.838563 1_555
S2 Sm5 2.844220 1_555
S2 Sm4 2.889674 1_555
S2 Sm3 2.976341 1_555
S2 Sm7 3.182793 1_555
S3 Sm1 2.838563 1_555
S3 Sm4 2.844220 1_655
S3 Sm5 2.889674 1_555
S3 Sm2 2.976341 1_545
S3 Sm6 3.182793 1_545
S4 Sm1 2.813270 1_555
S4 Sm0 2.825390 1_554
S4 Sm2 2.868636 1_455
S4 Sm3 2.916606 1_554
S4 Sm4 2.991453 1_555
S5 Sm2 2.813270 1_455
S5 Sm3 2.825390 1_554
S5 Sm1 2.868636 1_565
S5 Sm0 2.916606 1_564
S5 Sm7 2.991453 1_555
S6 Sm3 2.813270 1_555
S6 Sm2 2.825390 1_556
S6 Sm0 2.868636 1_655
S6 Sm1 2.916606 1_556
S6 Sm6 2.991453 1_555
S7 Sm3 2.838563 1_555
S7 Sm6 2.844220 1_455
S7 Sm7 2.889674 1_555
S7 Sm0 2.976341 1_565
S7 Sm4 3.182793 1_565
O0 Sm2 2.308933 1_455
O0 Sm7 2.315027 1_555
O0 Sm4 2.326018 1_555
O0 Sm6 2.339791 1_455
O1 Sm1 2.308933 1_555
O1 Sm4 2.315027 1_555
O1 Sm7 2.326018 1_545
O1 Sm5 2.339791 1_555
O2 Sm0 2.308933 1_655
O2 Sm5 2.315027 1_555
O2 Sm6 2.326018 1_555
O2 Sm4 2.339791 1_655
O3 Sm3 2.308933 1_555
O3 Sm6 2.315027 1_555
O3 Sm5 2.326018 1_565
O3 Sm7 2.339791 1_555
