# generated using pymatgen
data_Li5Fe8(BO3)8
_symmetry_space_group_name_H-M   'P 1'
_cell_length_a   5.29378600
_cell_length_b   9.06757958
_cell_length_c   10.12543866
_cell_angle_alpha   90.39228833
_cell_angle_beta   91.63201867
_cell_angle_gamma   90.34098710
_symmetry_Int_Tables_number   1
_chemical_formula_structural   Li5Fe8(BO3)8
_chemical_formula_sum   'Li5 Fe8 B8 O24'
_cell_volume   485.82181173
_cell_formula_units_Z   1
loop_
 _symmetry_equiv_pos_site_id
 _symmetry_equiv_pos_as_xyz
  1  'x, y, z'
loop_
 _atom_site_type_symbol
 _atom_site_label
 _atom_site_symmetry_multiplicity
 _atom_site_fract_x
 _atom_site_fract_y
 _atom_site_fract_z
 _atom_site_occupancy
  Li  Li0  1  0.66615600  0.00482900  0.15352900  1
  Li  Li1  1  0.34047800  0.00159300  0.90411200  1
  Li  Li2  1  0.83660100  0.49723800  0.88377800  1
  Li  Li3  1  0.16006000  0.51197000  0.15295100  1
  Li  Li4  1  0.35428400  0.99216700  0.41760000  1
  Fe  Fe0  1  0.83543500  0.15637100  0.87754700  1
  Fe  Fe1  1  0.15611700  0.17084500  0.63393500  1
  Fe  Fe2  1  0.66445100  0.34284300  0.13053900  1
  Fe  Fe3  1  0.34386400  0.33719200  0.37646100  1
  Fe  Fe4  1  0.66228300  0.67020200  0.63408600  1
  Fe  Fe5  1  0.84859300  0.82842400  0.38217500  1
  Fe  Fe6  1  0.33451300  0.65927700  0.87932400  1
  Fe  Fe7  1  0.16024700  0.83976100  0.12784200  1
  B  B0  1  0.83025100  0.16689600  0.37567300  1
  B  B1  1  0.66079700  0.33305800  0.63112700  1
  B  B2  1  0.16474000  0.16852300  0.12947500  1
  B  B3  1  0.33681700  0.33059600  0.87980900  1
  B  B4  1  0.66565700  0.66882300  0.12424200  1
  B  B5  1  0.34652800  0.67051800  0.37841900  1
  B  B6  1  0.83571000  0.83375900  0.88020100  1
  B  B7  1  0.16965500  0.83536700  0.63003600  1
  O  O0  1  0.70805800  0.03435800  0.36265600  1
  O  O1  1  0.90903500  0.16605900  0.09600500  1
  O  O2  1  0.31181900  0.04488500  0.11499200  1
  O  O3  1  0.80381900  0.20867200  0.66141600  1
  O  O4  1  0.70111700  0.29663700  0.34480700  1
  O  O5  1  0.22343000  0.19563500  0.83250400  1
  O  O6  1  0.08993500  0.17624300  0.41598700  1
  O  O7  1  0.59072400  0.32748000  0.91782400  1
  O  O8  1  0.75200300  0.46987400  0.65774500  1
  O  O9  1  0.41380400  0.31140800  0.57635700  1
  O  O10  1  0.27851200  0.30136800  0.17570300  1
  O  O11  1  0.80896300  0.54266200  0.10998600  1
  O  O12  1  0.19384600  0.45408800  0.88896500  1
  O  O13  1  0.72525200  0.69874800  0.83960000  1
  O  O14  1  0.58269900  0.67875000  0.43980800  1
  O  O15  1  0.23690800  0.53455000  0.34969000  1
  O  O16  1  0.40749900  0.66590400  0.09274000  1
  O  O17  1  0.91884300  0.81460700  0.59444600  1
  O  O18  1  0.78304000  0.79950100  0.16691900  1
  O  O19  1  0.31493900  0.71832700  0.67291500  1
  O  O20  1  0.22479800  0.80082700  0.34265900  1
  O  O21  1  0.68867100  0.95721600  0.89021700  1
  O  O22  1  0.09317100  0.83873000  0.91308800  1
  O  O23  1  0.27476400  0.97514800  0.61567600  1
loop_
_geom_bond_atom_site_label_1
_geom_bond_atom_site_label_2
_geom_bond_distance
_geom_bond_site_symmetry_2
Li0 O2 1.941934 1_555
Li0 O18 1.969781 1_545
Li0 O1 2.040023 1_555
Li0 O0 2.137636 1_555
Li1 O21 1.897931 1_545
Li1 O22 1.971979 1_545
Li1 O5 2.002578 1_555
Li1 O2 2.178096 1_556
Li2 O12 1.932831 1_655
Li2 O13 1.973636 1_555
Li2 O7 2.047305 1_555
Li2 O8 2.330819 1_555
Li2 O11 2.333266 1_556
Li3 O11 1.919110 1_455
Li3 O16 2.017711 1_555
Li3 O10 2.026102 1_555
Li3 O15 2.030522 1_555
Li4 O20 1.998511 1_555
Li4 O0 2.004244 1_565
Li4 O23 2.067616 1_555
Li4 O6 2.184366 1_565
Fe0 O21 1.968082 1_545
Fe0 O7 2.072956 1_555
Fe0 O5 2.144856 1_655
Fe0 O1 2.236120 1_556
Fe0 O3 2.244192 1_555
Fe1 O23 1.895498 1_545
Fe1 O3 1.925910 1_455
Fe1 O9 1.964706 1_555
Fe1 O5 2.042562 1_555
Fe1 O6 2.225497 1_555
Fe2 O11 1.977165 1_555
Fe2 O1 2.100274 1_555
Fe2 O10 2.138027 1_555
Fe2 O7 2.181305 1_554
Fe2 O4 2.215767 1_555
Fe3 O15 1.899091 1_555
Fe3 O4 1.963635 1_555
Fe3 O6 2.027896 1_555
Fe3 O9 2.062350 1_555
Fe3 O10 2.075306 1_555
Fe4 O8 1.895351 1_555
Fe4 O17 1.933224 1_555
Fe4 O19 1.942791 1_555
Fe4 O14 2.002112 1_555
Fe4 O13 2.111973 1_555
Fe5 O0 2.023030 1_565
Fe5 O14 2.049067 1_555
Fe5 O20 2.058866 1_655
Fe5 O17 2.175399 1_555
Fe5 O18 2.210815 1_555
Fe6 O12 2.003971 1_555
Fe6 O22 2.106887 1_555
Fe6 O13 2.146876 1_555
Fe6 O19 2.160811 1_555
Fe6 O16 2.184698 1_556
Fe7 O2 2.027751 1_565
Fe7 O18 2.077391 1_455
Fe7 O16 2.090015 1_555
Fe7 O22 2.193224 1_554
Fe7 O20 2.223095 1_555
B0 O0 1.365228 1_555
B0 O4 1.396938 1_555
B0 O6 1.424716 1_655
B1 O8 1.351186 1_555
B1 O3 1.393230 1_555
B1 O9 1.417698 1_555
B2 O2 1.378126 1_555
B2 O1 1.386044 1_455
B2 O10 1.414372 1_555
B3 O12 1.359406 1_555
B3 O7 1.388083 1_555
B3 O5 1.433244 1_555
B4 O11 1.385403 1_555
B4 O16 1.394544 1_555
B4 O18 1.394943 1_555
B5 O14 1.381677 1_555
B5 O15 1.385054 1_555
B5 O20 1.394329 1_555
B6 O21 1.372107 1_555
B6 O22 1.394182 1_655
B6 O13 1.407318 1_555
B7 O17 1.377333 1_455
B7 O19 1.379608 1_555
B7 O23 1.391395 1_555
