# generated using pymatgen
data_PaNi2Sb
_symmetry_space_group_name_H-M   'P 1'
_cell_length_a   4.59474862
_cell_length_b   4.59474862
_cell_length_c   4.59474862
_cell_angle_alpha   60.00000000
_cell_angle_beta   60.00000000
_cell_angle_gamma   60.00000000
_symmetry_Int_Tables_number   1
_chemical_formula_structural   PaNi2Sb
_chemical_formula_sum   'Pa1 Ni2 Sb1'
_cell_volume   68.59149542
_cell_formula_units_Z   1
loop_
 _symmetry_equiv_pos_site_id
 _symmetry_equiv_pos_as_xyz
  1  'x, y, z'
loop_
 _atom_site_type_symbol
 _atom_site_label
 _atom_site_symmetry_multiplicity
 _atom_site_fract_x
 _atom_site_fract_y
 _atom_site_fract_z
 _atom_site_occupancy
  Pa  Pa0  1  0.24999900  0.24999900  0.24999900  1
  Ni  Ni0  1  0.00000000  0.00000000  0.00000000  1
  Ni  Ni1  1  0.50000000  0.50000000  0.50000000  1
  Sb  Sb0  1  0.74999900  0.74999900  0.74999900  1
loop_
_geom_bond_atom_site_label_1
_geom_bond_atom_site_label_2
_geom_bond_distance
_geom_bond_site_symmetry_2
Pa0 Sb0 3.248978 1_554
Pa0 Sb0 3.248978 1_545
Pa0 Sb0 3.248978 1_445
Pa0 Sb0 3.248978 1_544
Pa0 Sb0 3.248978 1_454
Pa0 Sb0 3.248978 1_455
Ni0 Pa0 2.813686 1_555
Ni0 Sb0 2.813694 1_445
Ni0 Sb0 2.813694 1_454
Ni0 Sb0 2.813694 1_544
Ni0 Pa0 2.813701 1_455
Ni0 Pa0 2.813701 1_554
Ni0 Pa0 2.813701 1_545
Ni0 Sb0 2.813709 1_444
Ni1 Sb0 2.813686 1_555
Ni1 Pa0 2.813694 1_565
Ni1 Pa0 2.813694 1_655
Ni1 Pa0 2.813694 1_556
Ni1 Sb0 2.813701 1_455
Ni1 Sb0 2.813701 1_554
Ni1 Sb0 2.813701 1_545
Ni1 Pa0 2.813709 1_555
