# generated using pymatgen
data_Li3BN2
_symmetry_space_group_name_H-M   'P 1'
_cell_length_a   4.61560926
_cell_length_b   4.61560926
_cell_length_c   5.16815895
_cell_angle_alpha   90.00000000
_cell_angle_beta   90.00000000
_cell_angle_gamma   90.00000000
_symmetry_Int_Tables_number   1
_chemical_formula_structural   Li3BN2
_chemical_formula_sum   'Li6 B2 N4'
_cell_volume   110.10167706
_cell_formula_units_Z   2
loop_
 _symmetry_equiv_pos_site_id
 _symmetry_equiv_pos_as_xyz
  1  'x, y, z'
loop_
 _atom_site_type_symbol
 _atom_site_label
 _atom_site_symmetry_multiplicity
 _atom_site_fract_x
 _atom_site_fract_y
 _atom_site_fract_z
 _atom_site_occupancy
  Li  Li0  1  0.50000000  0.00000000  0.25000000  1
  Li  Li1  1  0.50000000  0.00000000  0.75000000  1
  Li  Li2  1  0.50000000  0.50000000  0.00000000  1
  Li  Li3  1  -0.00000000  -0.00000000  0.50000000  1
  Li  Li4  1  -0.00000000  0.50000000  0.25000000  1
  Li  Li5  1  -0.00000000  0.50000000  0.75000000  1
  B  B0  1  0.50000000  0.50000000  0.50000000  1
  B  B1  1  -0.00000000  -0.00000000  0.00000000  1
  N  N0  1  0.79505350  0.79505350  -0.00000000  1
  N  N1  1  0.70494650  0.29505350  0.50000000  1
  N  N2  1  0.29505350  0.70494650  0.50000000  1
  N  N3  1  0.20494650  0.20494650  0.00000000  1
loop_
_geom_bond_atom_site_label_1
_geom_bond_atom_site_label_2
_geom_bond_distance
_geom_bond_site_symmetry_2
Li0 N0 2.102102 1_545
Li0 N2 2.102102 1_545
Li0 N3 2.102102 1_555
Li0 N1 2.102102 1_555
Li1 N3 2.102102 1_556
Li1 N2 2.102102 1_545
Li1 N0 2.102102 1_546
Li1 N1 2.102102 1_555
Li2 N0 1.925949 1_555
Li2 N3 1.925949 1_555
Li3 N1 1.925949 1_455
Li3 N2 1.925949 1_545
Li4 N2 2.102102 1_555
Li4 N0 2.102102 1_455
Li4 N3 2.102102 1_555
Li4 N1 2.102102 1_455
Li5 N2 2.102102 1_555
Li5 N3 2.102102 1_556
Li5 N1 2.102102 1_455
Li5 N0 2.102102 1_456
B0 N2 1.337780 1_555
B0 N1 1.337780 1_555
B1 N3 1.337780 1_555
B1 N0 1.337780 1_445
