# generated using pymatgen
data_TmNbRu2
_symmetry_space_group_name_H-M   'P 1'
_cell_length_a   4.58228339
_cell_length_b   4.58226915
_cell_length_c   4.58240493
_cell_angle_alpha   60.02591456
_cell_angle_beta   60.02748677
_cell_angle_gamma   60.02878233
_symmetry_Int_Tables_number   1
_chemical_formula_structural   TmNbRu2
_chemical_formula_sum   'Tm1 Nb1 Ru2'
_cell_volume   68.07859996
_cell_formula_units_Z   1
loop_
 _symmetry_equiv_pos_site_id
 _symmetry_equiv_pos_as_xyz
  1  'x, y, z'
loop_
 _atom_site_type_symbol
 _atom_site_label
 _atom_site_symmetry_multiplicity
 _atom_site_fract_x
 _atom_site_fract_y
 _atom_site_fract_z
 _atom_site_occupancy
  Tm  Tm0  1  0.74999915  0.74999919  0.74999990  1
  Nb  Nb0  1  0.24999825  0.24999414  0.24999498  1
  Ru  Ru0  1  0.00001761  0.00001680  0.00001553  1
  Ru  Ru1  1  0.49998300  0.49998788  0.49998759  1
loop_
_geom_bond_atom_site_label_1
_geom_bond_atom_site_label_2
_geom_bond_distance
_geom_bond_site_symmetry_2
Nb0 Ru0 2.805271 1_555
Nb0 Ru1 2.805397 1_555
Nb0 Ru1 2.807044 1_545
Nb0 Ru1 2.807095 1_554
Nb0 Ru0 2.807106 1_565
Nb0 Ru1 2.807131 1_455
Nb0 Ru0 2.807144 1_556
Nb0 Ru0 2.807146 1_655
Ru0 Tm0 2.805698 1_444
Ru0 Tm0 2.806955 1_454
Ru0 Tm0 2.807005 1_544
Ru0 Tm0 2.807009 1_445
Ru1 Tm0 2.805654 1_555
Ru1 Tm0 2.806979 1_545
Ru1 Tm0 2.807014 1_455
Ru1 Tm0 2.807021 1_554
