# generated using pymatgen
data_HfMnRh2
_symmetry_space_group_name_H-M   'P 1'
_cell_length_a   4.45420845
_cell_length_b   4.45226201
_cell_length_c   4.45265633
_cell_angle_alpha   60.01223860
_cell_angle_beta   59.97582248
_cell_angle_gamma   59.98349395
_symmetry_Int_Tables_number   1
_chemical_formula_structural   HfMnRh2
_chemical_formula_sum   'Hf1 Mn1 Rh2'
_cell_volume   62.42548942
_cell_formula_units_Z   1
loop_
 _symmetry_equiv_pos_site_id
 _symmetry_equiv_pos_as_xyz
  1  'x, y, z'
loop_
 _atom_site_type_symbol
 _atom_site_label
 _atom_site_symmetry_multiplicity
 _atom_site_fract_x
 _atom_site_fract_y
 _atom_site_fract_z
 _atom_site_occupancy
  Hf  Hf0  1  0.25000008  0.25000083  0.24999998  1
  Mn  Mn0  1  0.75000088  0.75000088  0.74999913  1
  Rh  Rh0  1  0.00001481  0.00000283  0.00000399  1
  Rh  Rh1  1  0.49998523  0.49999647  0.49999790  1
loop_
_geom_bond_atom_site_label_1
_geom_bond_atom_site_label_2
_geom_bond_distance
_geom_bond_site_symmetry_2
Hf0 Rh0 2.726528 1_565
Hf0 Rh1 2.726537 1_545
Hf0 Rh1 2.726559 1_554
Hf0 Rh0 2.726566 1_556
Hf0 Rh0 2.726766 1_655
Hf0 Rh1 2.726766 1_455
Hf0 Rh1 2.727038 1_555
Hf0 Rh0 2.727040 1_555
Mn0 Rh1 2.726505 1_565
Mn0 Rh0 2.726514 1_656
Mn0 Rh0 2.726534 1_665
Mn0 Rh1 2.726547 1_556
Mn0 Rh1 2.726655 1_655
Mn0 Rh0 2.726661 1_566
Mn0 Rh0 2.727191 1_666
Mn0 Rh1 2.727193 1_555
