# generated using pymatgen
data_CsCaCO3F
_symmetry_space_group_name_H-M   'P 1'
_cell_length_a   9.39188252
_cell_length_b   9.39188252
_cell_length_c   4.60276200
_cell_angle_alpha   90.00000000
_cell_angle_beta   90.00000000
_cell_angle_gamma   120.00000365
_symmetry_Int_Tables_number   1
_chemical_formula_structural   CsCaCO3F
_chemical_formula_sum   'Cs3 Ca3 C3 O9 F3'
_cell_volume   351.60451032
_cell_formula_units_Z   3
loop_
 _symmetry_equiv_pos_site_id
 _symmetry_equiv_pos_as_xyz
  1  'x, y, z'
loop_
 _atom_site_type_symbol
 _atom_site_label
 _atom_site_symmetry_multiplicity
 _atom_site_fract_x
 _atom_site_fract_y
 _atom_site_fract_z
 _atom_site_occupancy
  Cs  Cs0  1  0.27644300  0.00000000  0.50000000  1
  Cs  Cs1  1  0.00000000  0.27644300  0.50000000  1
  Cs  Cs2  1  0.72355700  0.72355700  0.50000000  1
  Ca  Ca0  1  0.00000000  0.61053300  0.00000000  1
  Ca  Ca1  1  0.38946700  0.38946700  0.00000000  1
  Ca  Ca2  1  0.61053300  0.00000000  0.00000000  1
  C  C0  1  0.00000000  0.00000000  0.00000000  1
  C  C1  1  0.66666700  0.33333300  0.00000000  1
  C  C2  1  0.33333300  0.66666700  0.00000000  1
  O  O0  1  0.69120000  0.48261300  0.00000000  1
  O  O1  1  0.51738700  0.20858700  0.00000000  1
  O  O2  1  0.79141300  0.30880000  0.00000000  1
  O  O3  1  0.20858700  0.51738700  0.00000000  1
  O  O4  1  0.30880000  0.79141300  0.00000000  1
  O  O5  1  0.48261300  0.69120000  0.00000000  1
  O  O6  1  0.00000000  0.86183700  0.00000000  1
  O  O7  1  0.13816300  0.13816300  0.00000000  1
  O  O8  1  0.86183700  0.00000000  0.00000000  1
  F  F0  1  0.00000000  0.61136100  0.50000000  1
  F  F1  1  0.38863900  0.38863900  0.50000000  1
  F  F2  1  0.61136100  0.00000000  0.50000000  1
loop_
_geom_bond_atom_site_label_1
_geom_bond_atom_site_label_2
_geom_bond_distance
_geom_bond_site_symmetry_2
Cs0 O1 3.133978 1_556
Cs0 O1 3.133978 1_555
Cs0 O4 3.133978 1_546
Cs0 O4 3.133978 1_545
Cs0 F2 3.145511 1_555
Cs0 O6 3.217454 1_546
Cs0 O6 3.217454 1_545
Cs0 O7 3.217455 1_555
Cs0 O7 3.217455 1_556
Cs0 F0 3.253775 1_545
Cs0 F1 3.253775 1_555
Cs1 O3 3.133978 1_555
Cs1 O3 3.133978 1_556
Cs1 O2 3.133978 1_455
Cs1 O2 3.133978 1_456
Cs1 F0 3.145511 1_555
Cs1 O8 3.217454 1_456
Cs1 O8 3.217454 1_455
Cs1 O7 3.217455 1_555
Cs1 O7 3.217455 1_556
Cs1 F2 3.253775 1_455
Cs1 F1 3.253775 1_555
Cs2 O5 3.133978 1_556
Cs2 O5 3.133978 1_555
Cs2 O0 3.133978 1_555
Cs2 O0 3.133978 1_556
Cs2 F1 3.145510 1_555
Cs2 O6 3.217454 1_655
Cs2 O6 3.217454 1_656
Cs2 O8 3.217454 1_566
Cs2 O8 3.217454 1_565
Cs2 F0 3.253775 1_655
Cs2 F2 3.253775 1_565
Ca0 F0 2.301394 1_554
Ca0 F0 2.301394 1_555
Ca0 O6 2.360218 1_555
Ca0 O2 2.513338 1_455
Ca0 O3 2.513338 1_555
Ca0 O4 2.523941 1_555
Ca0 O0 2.523941 1_455
Ca1 F1 2.301394 1_555
Ca1 F1 2.301394 1_554
Ca1 O7 2.360218 1_555
Ca1 O5 2.513338 1_555
Ca1 O0 2.513338 1_555
Ca1 O1 2.523941 1_555
Ca1 O3 2.523941 1_555
Ca2 F2 2.301394 1_555
Ca2 F2 2.301394 1_554
Ca2 O8 2.360218 1_555
Ca2 O4 2.513338 1_545
Ca2 O1 2.513338 1_555
Ca2 O2 2.523941 1_555
Ca2 O5 2.523941 1_545
C0 O7 1.297611 1_555
C0 O6 1.297611 1_545
C0 O8 1.297611 1_455
C1 O2 1.302185 1_555
C1 O1 1.302190 1_555
C1 O0 1.302194 1_555
C2 O4 1.302185 1_555
C2 O3 1.302190 1_555
C2 O5 1.302194 1_555
