# generated using pymatgen
data_Lu2ZnIr
_symmetry_space_group_name_H-M   'P 1'
_cell_length_a   4.77786530
_cell_length_b   4.77786536
_cell_length_c   4.77786513
_cell_angle_alpha   60.00027210
_cell_angle_beta   60.00027147
_cell_angle_gamma   60.00026833
_symmetry_Int_Tables_number   1
_chemical_formula_structural   Lu2ZnIr
_chemical_formula_sum   'Lu2 Zn1 Ir1'
_cell_volume   77.12396732
_cell_formula_units_Z   1
loop_
 _symmetry_equiv_pos_site_id
 _symmetry_equiv_pos_as_xyz
  1  'x, y, z'
loop_
 _atom_site_type_symbol
 _atom_site_label
 _atom_site_symmetry_multiplicity
 _atom_site_fract_x
 _atom_site_fract_y
 _atom_site_fract_z
 _atom_site_occupancy
  Lu  Lu0  1  -0.00000012  -0.00000012  -0.00000013  1
  Lu  Lu1  1  0.50000091  0.50000092  0.50000093  1
  Zn  Zn0  1  0.74999914  0.74999911  0.74999916  1
  Ir  Ir0  1  0.25000007  0.25000009  0.25000004  1
loop_
_geom_bond_atom_site_label_1
_geom_bond_atom_site_label_2
_geom_bond_distance
_geom_bond_site_symmetry_2
Lu0 Zn0 2.925836 1_444
Lu0 Zn0 2.925840 1_454
Lu0 Zn0 2.925840 1_544
Lu0 Zn0 2.925840 1_445
Lu1 Zn0 2.925806 1_555
Lu1 Zn0 2.925850 1_455
Lu1 Zn0 2.925850 1_554
Lu1 Zn0 2.925850 1_545
Ir0 Lu0 2.925829 1_555
Ir0 Lu1 2.925837 1_555
Ir0 Lu1 2.925839 1_554
Ir0 Lu1 2.925840 1_455
Ir0 Lu1 2.925840 1_545
Ir0 Lu0 2.925842 1_565
Ir0 Lu0 2.925842 1_655
Ir0 Lu0 2.925842 1_556
