# generated using pymatgen
data_Na2FeO3
_symmetry_space_group_name_H-M   'P 1'
_cell_length_a   5.58001012
_cell_length_b   9.30193377
_cell_length_c   5.57999782
_cell_angle_alpha   79.04502730
_cell_angle_beta   68.53432986
_cell_angle_gamma   100.95446191
_symmetry_Int_Tables_number   1
_chemical_formula_structural   Na2FeO3
_chemical_formula_sum   'Na8 Fe4 O12'
_cell_volume   253.72400537
_cell_formula_units_Z   4
loop_
 _symmetry_equiv_pos_site_id
 _symmetry_equiv_pos_as_xyz
  1  'x, y, z'
loop_
 _atom_site_type_symbol
 _atom_site_label
 _atom_site_symmetry_multiplicity
 _atom_site_fract_x
 _atom_site_fract_y
 _atom_site_fract_z
 _atom_site_occupancy
  Na  Na0  1  0.99294029  0.98358060  0.50745603  1
  Na  Na1  1  0.25706161  0.51642180  0.74253341  1
  Na  Na2  1  0.74253305  0.48357446  0.25706275  1
  Na  Na3  1  0.50745775  0.01642566  0.99293897  1
  Na  Na4  1  0.42253839  0.84466918  0.57894304  1
  Na  Na5  1  0.82746823  0.65533129  0.67106155  1
  Na  Na6  1  0.67105807  0.34467004  0.82746193  1
  Na  Na7  1  0.57894229  0.15532981  0.42253966  1
  Fe  Fe0  1  0.33644012  0.67098402  0.16565991  1
  Fe  Fe1  1  0.08431033  0.17098215  0.91351641  1
  Fe  Fe2  1  0.91351771  0.82902173  0.08431395  1
  Fe  Fe3  1  0.16567090  0.32901757  0.33645022  1
  O  O0  1  0.05728340  0.49996775  0.44273152  1
  O  O1  1  0.44273320  0.50003206  0.05728751  1
  O  O2  1  0.19270932  0.00002115  0.80726391  1
  O  O3  1  0.80726022  -0.00003034  0.19271318  1
  O  O4  1  0.18437688  0.80847401  0.30574603  1
  O  O5  1  0.62575229  0.80889424  0.88608931  1
  O  O6  1  0.06565226  0.69152139  0.94427169  1
  O  O7  1  0.62426755  0.69110657  0.36393304  1
  O  O8  1  0.36394371  0.30889750  0.62424679  1
  O  O9  1  0.94425888  0.30847855  0.06565355  1
  O  O10  1  0.88607230  0.19110074  0.62576121  1
  O  O11  1  0.30574926  0.19152609  0.18436643  1
loop_
_geom_bond_atom_site_label_1
_geom_bond_atom_site_label_2
_geom_bond_distance
_geom_bond_site_symmetry_2
Na0 O11 2.264226 1_665
Na0 O10 2.269648 1_565
Na0 O2 2.337083 1_665
Na0 O3 2.339072 1_565
Na0 O4 2.353536 1_655
Na0 O5 2.358770 1_555
Na1 O9 2.264264 1_456
Na1 O8 2.269673 1_555
Na1 O0 2.337104 1_555
Na1 O1 2.339094 1_556
Na1 O6 2.353487 1_555
Na1 O7 2.358724 1_555
Na2 O6 2.264261 1_654
Na2 O7 2.269679 1_555
Na2 O1 2.337085 1_555
Na2 O0 2.339067 1_655
Na2 O9 2.353426 1_555
Na2 O8 2.358622 1_555
Na3 O4 2.264238 1_546
Na3 O5 2.269694 1_545
Na3 O3 2.337092 1_556
Na3 O2 2.339084 1_555
Na3 O11 2.353461 1_556
Na3 O10 2.358664 1_555
Na4 O6 2.235552 1_555
Na4 O7 2.240748 1_555
Na4 O2 2.358883 1_565
Na4 O3 2.364750 1_565
Na4 O5 2.383890 1_555
Na4 O4 2.389793 1_555
Na5 O4 2.235559 1_655
Na5 O5 2.240766 1_555
Na5 O0 2.358959 1_655
Na5 O1 2.364770 1_556
Na5 O7 2.383748 1_555
Na5 O6 2.389945 1_655
Na6 O11 2.235535 1_556
Na6 O10 2.240743 1_555
Na6 O1 2.358961 1_556
Na6 O0 2.364753 1_655
Na6 O8 2.383743 1_555
Na6 O9 2.389932 1_556
Na7 O9 2.235524 1_555
Na7 O8 2.240705 1_555
Na7 O3 2.358931 1_555
Na7 O2 2.364784 1_555
Na7 O10 2.383845 1_555
Na7 O11 2.389823 1_555
Fe0 O4 1.809310 1_555
Fe0 O5 1.815089 1_554
Fe0 O1 1.925511 1_555
Fe0 O0 1.925661 1_555
Fe0 O7 2.259097 1_555
Fe0 O6 2.287323 1_554
Fe1 O9 1.809470 1_456
Fe1 O8 1.815142 1_555
Fe1 O2 1.925564 1_555
Fe1 O3 1.925680 1_456
Fe1 O10 2.258590 1_455
Fe1 O11 2.287851 1_556
Fe2 O6 1.809476 1_654
Fe2 O7 1.815062 1_555
Fe2 O3 1.925460 1_565
Fe2 O2 1.925607 1_664
Fe2 O5 2.258589 1_554
Fe2 O4 2.287869 1_655
Fe3 O11 1.809357 1_555
Fe3 O10 1.815171 1_455
Fe3 O0 1.925502 1_555
Fe3 O1 1.925646 1_555
Fe3 O8 2.258941 1_555
Fe3 O9 2.287471 1_455
