# generated using pymatgen
data_Li2Mn3(BO3)3
_symmetry_space_group_name_H-M   'P 1'
_cell_length_a   5.29067300
_cell_length_b   6.19039957
_cell_length_c   11.78718440
_cell_angle_alpha   84.53090902
_cell_angle_beta   78.93543990
_cell_angle_gamma   87.36212381
_symmetry_Int_Tables_number   1
_chemical_formula_structural   Li2Mn3(BO3)3
_chemical_formula_sum   'Li4 Mn6 B6 O18'
_cell_volume   376.99385716
_cell_formula_units_Z   2
loop_
 _symmetry_equiv_pos_site_id
 _symmetry_equiv_pos_as_xyz
  1  'x, y, z'
loop_
 _atom_site_type_symbol
 _atom_site_label
 _atom_site_symmetry_multiplicity
 _atom_site_fract_x
 _atom_site_fract_y
 _atom_site_fract_z
 _atom_site_occupancy
  Li  Li0  1  0.83946700  0.14056000  0.45796600  1
  Li  Li1  1  0.18658500  0.45967700  0.80237800  1
  Li  Li2  1  0.15555500  0.85538500  0.54008300  1
  Li  Li3  1  0.52245300  0.78833100  0.13207400  1
  Mn  Mn0  1  0.02372900  0.02813300  0.78854000  1
  Mn  Mn1  1  0.64928600  0.62468400  0.87877100  1
  Mn  Mn2  1  0.30270400  0.30313000  0.55054100  1
  Mn  Mn3  1  0.69154300  0.68988700  0.44659600  1
  Mn  Mn4  1  0.34967700  0.36403300  0.12011500  1
  Mn  Mn5  1  0.98085500  0.96382800  0.21082000  1
  B  B0  1  0.74498100  0.40807700  0.66385400  1
  B  B1  1  0.07657600  0.74096800  0.99814700  1
  B  B2  1  0.40787800  0.07200700  0.32975500  1
  B  B3  1  0.58928000  0.90868600  0.66913300  1
  B  B4  1  0.92033900  0.26466500  0.00447100  1
  B  B5  1  0.25553900  0.61337100  0.33512400  1
  O  O0  1  0.68374500  0.36699400  0.99037100  1
  O  O1  1  0.10100100  0.20890600  0.91404400  1
  O  O2  1  0.99081300  0.35667800  0.68623000  1
  O  O3  1  0.55104500  0.48115500  0.74821200  1
  O  O4  1  0.69213300  0.38067500  0.55358600  1
  O  O5  1  0.01215900  0.70835900  0.89068600  1
  O  O6  1  0.66096600  0.02824500  0.34313100  1
  O  O7  1  0.65480900  0.90030100  0.78022500  1
  O  O8  1  0.21657000  0.12361600  0.42067700  1
  O  O9  1  0.78181700  0.87482400  0.57479800  1
  O  O10  1  0.34675100  0.04530300  0.22048600  1
  O  O11  1  0.34001000  0.96822000  0.65415800  1
  O  O12  1  0.97206400  0.24076300  0.11867100  1
  O  O13  1  0.30305300  0.61667900  0.44825300  1
  O  O14  1  0.43335100  0.53961500  0.24840900  1
  O  O15  1  0.01431500  0.70131600  0.31596700  1
  O  O16  1  0.88770700  0.81500000  0.08371600  1
  O  O17  1  0.32671400  0.68844000  0.01349500  1
loop_
_geom_bond_atom_site_label_1
_geom_bond_atom_site_label_2
_geom_bond_distance
_geom_bond_site_symmetry_2
Li0 O8 1.958996 1_655
Li0 O6 1.984426 1_555
Li0 O4 1.990686 1_555
Li0 O9 2.036835 1_545
Li1 O3 1.917889 1_555
Li1 O1 1.947768 1_555
Li1 O5 2.027549 1_555
Li1 O2 2.031042 1_455
Li2 O9 1.941304 1_455
Li2 O13 1.959255 1_555
Li2 O11 1.998426 1_555
Li2 O8 2.066819 1_565
Li3 O16 1.917061 1_555
Li3 O14 1.972146 1_555
Li3 O17 2.046386 1_555
Li3 O10 2.070924 1_565
Mn0 O1 2.048822 1_555
Mn0 O11 2.117576 1_545
Mn0 O7 2.162372 1_445
Mn0 O5 2.213703 1_545
Mn0 O2 2.280693 1_455
Mn1 O7 1.968490 1_555
Mn1 O0 1.993391 1_555
Mn1 O3 2.009486 1_555
Mn1 O5 2.045170 1_655
Mn1 O17 2.146477 1_556
Mn2 O8 2.103407 1_555
Mn2 O2 2.104406 1_455
Mn2 O4 2.144629 1_555
Mn2 O13 2.185069 1_555
Mn2 O11 2.324031 1_545
Mn3 O15 2.067152 1_655
Mn3 O9 2.116465 1_555
Mn3 O13 2.121076 1_555
Mn3 O4 2.189791 1_555
Mn3 O6 2.336309 1_565
Mn4 O14 2.068516 1_555
Mn4 O0 2.103131 1_554
Mn4 O12 2.174802 1_455
Mn4 O10 2.200853 1_555
Mn4 O17 2.276433 1_555
Mn5 O12 1.943710 1_565
Mn5 O15 1.970288 1_655
Mn5 O16 1.981051 1_555
Mn5 O10 2.049465 1_665
Mn5 O6 2.121065 1_565
B0 O3 1.377522 1_555
B0 O2 1.392834 1_555
B0 O4 1.407899 1_555
B1 O16 1.372931 1_456
B1 O17 1.389575 1_556
B1 O5 1.407871 1_555
B2 O8 1.376311 1_555
B2 O6 1.389491 1_555
B2 O10 1.412861 1_555
B3 O9 1.381313 1_555
B3 O11 1.392279 1_555
B3 O7 1.413230 1_555
B4 O1 1.348169 1_654
B4 O0 1.408029 1_554
B4 O12 1.417201 1_555
B5 O14 1.348537 1_555
B5 O13 1.405739 1_555
B5 O15 1.413996 1_555
