# generated using pymatgen
data_Ti3Mn2Co(PO4)6
_symmetry_space_group_name_H-M   'P 1'
_cell_length_a   8.65672590
_cell_length_b   8.65672590
_cell_length_c   8.65672641
_cell_angle_alpha   60.04098489
_cell_angle_beta   60.04098489
_cell_angle_gamma   60.04098435
_symmetry_Int_Tables_number   1
_chemical_formula_structural   Ti3Mn2Co(PO4)6
_chemical_formula_sum   'Ti3 Mn2 Co1 P6 O24'
_cell_volume   459.14440162
_cell_formula_units_Z   1
loop_
 _symmetry_equiv_pos_site_id
 _symmetry_equiv_pos_as_xyz
  1  'x, y, z'
loop_
 _atom_site_type_symbol
 _atom_site_label
 _atom_site_symmetry_multiplicity
 _atom_site_fract_x
 _atom_site_fract_y
 _atom_site_fract_z
 _atom_site_occupancy
  Ti  Ti0  1  0.14391400  0.14391400  0.14391400  1
  Ti  Ti1  1  0.35422500  0.35422500  0.35422500  1
  Ti  Ti2  1  0.64680200  0.64680200  0.64680200  1
  Mn  Mn0  1  0.99611000  0.99611000  0.99611000  1
  Mn  Mn1  1  0.49947100  0.49947100  0.49947100  1
  Co  Co0  1  0.85569900  0.85569900  0.85569900  1
  P  P0  1  0.54234300  0.25035900  0.95716400  1
  P  P1  1  0.95716400  0.54234300  0.25035900  1
  P  P2  1  0.25035900  0.95716400  0.54234300  1
  P  P3  1  0.75154000  0.04390400  0.45858500  1
  P  P4  1  0.04390400  0.45858500  0.75154000  1
  P  P5  1  0.45858500  0.75154000  0.04390400  1
  O  O0  1  0.31350700  0.11919900  0.49377400  1
  O  O1  1  0.49377400  0.31350700  0.11919900  1
  O  O2  1  0.91392000  0.05846800  0.26278600  1
  O  O3  1  0.11919900  0.49377400  0.31350700  1
  O  O4  1  0.80591400  0.01262400  0.61422300  1
  O  O5  1  0.58396200  0.23581700  0.43569700  1
  O  O6  1  0.05846800  0.26278600  0.91392000  1
  O  O7  1  0.23581700  0.43569700  0.58396200  1
  O  O8  1  0.37748600  0.19389300  0.99990500  1
  O  O9  1  0.43569700  0.58396200  0.23581700  1
  O  O10  1  0.73311500  0.09052500  0.94616900  1
  O  O11  1  0.99990500  0.37748600  0.19389300  1
  O  O12  1  0.01262400  0.61422300  0.80591400  1
  O  O13  1  0.26278600  0.91392000  0.05846800  1
  O  O14  1  0.55423800  0.41740700  0.76525400  1
  O  O15  1  0.61422300  0.80591400  0.01262400  1
  O  O16  1  0.76525400  0.55423800  0.41740700  1
  O  O17  1  0.94616900  0.73311500  0.09052500  1
  O  O18  1  0.41740700  0.76525400  0.55423800  1
  O  O19  1  0.19389300  0.99990500  0.37748600  1
  O  O20  1  0.87845700  0.50016100  0.69338500  1
  O  O21  1  0.09052500  0.94616900  0.73311500  1
  O  O22  1  0.50016100  0.69338500  0.87845700  1
  O  O23  1  0.69338500  0.87845700  0.50016100  1
loop_
_geom_bond_atom_site_label_1
_geom_bond_atom_site_label_2
_geom_bond_distance
_geom_bond_site_symmetry_2
Mn0 O17 2.193133 1_556
Mn0 O10 2.193133 1_565
Mn0 O21 2.193133 1_655
Mn0 O6 2.312477 1_665
Mn0 O13 2.312477 1_656
Mn0 O2 2.312477 1_566
Mn1 O16 2.267990 1_555
Mn1 O18 2.267990 1_555
Mn1 O14 2.267990 1_555
Mn1 O7 2.288428 1_555
Mn1 O5 2.288428 1_555
Mn1 O9 2.288428 1_555
Co0 O12 1.969708 1_655
Co0 O15 1.969708 1_556
Co0 O4 1.969708 1_565
Co0 O21 2.115974 1_655
Co0 O10 2.115974 1_565
Co0 O17 2.115974 1_556
O0 P2 1.546095 1_545
O0 Ti1 1.886589 1_555
O1 P0 1.546095 1_554
O1 Ti1 1.886589 1_555
O2 P3 1.564835 1_555
O2 Ti0 2.057790 1_655
O3 P1 1.546095 1_455
O3 Ti1 1.886589 1_555
O4 P3 1.500620 1_555
O5 P3 1.566844 1_555
O5 Ti1 2.036212 1_555
O6 P4 1.564835 1_555
O6 Ti0 2.057790 1_556
O7 P4 1.566844 1_555
O7 Ti1 2.036212 1_555
O8 P0 1.549589 1_555
O8 Ti0 1.909751 1_556
O9 P5 1.566844 1_555
O9 Ti1 2.036212 1_555
O10 P0 1.530747 1_555
O11 P1 1.549589 1_555
O11 Ti0 1.909751 1_655
O12 P4 1.500620 1_555
O13 P5 1.564835 1_555
O13 Ti0 2.057790 1_565
O14 P0 1.562105 1_555
O14 Ti2 2.090900 1_555
O15 P5 1.500620 1_555
O16 P1 1.562105 1_555
O16 Ti2 2.090900 1_555
O17 P1 1.530747 1_555
O18 P2 1.562105 1_555
O18 Ti2 2.090900 1_555
O19 P2 1.549590 1_555
O19 Ti0 1.909751 1_565
O20 P4 1.567990 1_655
O20 Ti2 1.884004 1_555
O21 P2 1.530747 1_555
O22 P5 1.567990 1_556
O22 Ti2 1.884004 1_555
O23 P3 1.567990 1_565
O23 Ti2 1.884004 1_555
