# generated using pymatgen
data_LiNiPO4
_symmetry_space_group_name_H-M   'P 1'
_cell_length_a   9.64312146
_cell_length_b   9.64312146
_cell_length_c   22.66705400
_cell_angle_alpha   90.00000000
_cell_angle_beta   90.00000000
_cell_angle_gamma   119.99999629
_symmetry_Int_Tables_number   1
_chemical_formula_structural   LiNiPO4
_chemical_formula_sum   'Li24 Ni24 P24 O96'
_cell_volume   1825.41241973
_cell_formula_units_Z   24
loop_
 _symmetry_equiv_pos_site_id
 _symmetry_equiv_pos_as_xyz
  1  'x, y, z'
loop_
 _atom_site_type_symbol
 _atom_site_label
 _atom_site_symmetry_multiplicity
 _atom_site_fract_x
 _atom_site_fract_y
 _atom_site_fract_z
 _atom_site_occupancy
  Li  Li0  1  0.10126000  0.81739900  0.27787900  1
  Li  Li1  1  0.09174900  0.75897300  0.91947100  1
  Li  Li2  1  0.13015100  0.75940600  0.59608100  1
  Li  Li3  1  0.30763400  0.66516500  0.75411500  1
  Li  Li4  1  0.33483500  0.64246900  0.08744900  1
  Li  Li5  1  0.35753100  0.69236600  0.42078200  1
  Li  Li6  1  0.18260100  0.28386100  0.61121200  1
  Li  Li7  1  0.24059400  0.37074500  0.92941400  1
  Li  Li8  1  0.24102700  0.33277600  0.25280500  1
  Li  Li9  1  0.62925500  0.86984900  0.26274800  1
  Li  Li10  1  0.66722400  0.90825100  0.58613800  1
  Li  Li11  1  0.28386100  0.10126000  0.44454500  1
  Li  Li12  1  0.71613900  0.89874000  0.94454500  1
  Li  Li13  1  0.33277600  0.09174900  0.08613800  1
  Li  Li14  1  0.37074500  0.13015100  0.76274800  1
  Li  Li15  1  0.75897300  0.66722400  0.75280500  1
  Li  Li16  1  0.75940600  0.62925500  0.42941400  1
  Li  Li17  1  0.81739900  0.71613900  0.11121200  1
  Li  Li18  1  0.64246900  0.30763400  0.92078200  1
  Li  Li19  1  0.66516500  0.35753100  0.58744900  1
  Li  Li20  1  0.69236600  0.33483500  0.25411500  1
  Li  Li21  1  0.86984900  0.24059400  0.09608100  1
  Li  Li22  1  0.90825100  0.24102700  0.41947100  1
  Li  Li23  1  0.89874000  0.18260100  0.77787900  1
  Ni  Ni0  1  0.99274500  0.02318600  0.71360500  1
  Ni  Ni1  1  0.02136500  0.56593200  0.04548900  1
  Ni  Ni2  1  0.05102900  0.46277600  0.19243300  1
  Ni  Ni3  1  0.05751800  0.49788400  0.85153900  1
  Ni  Ni4  1  0.41174700  0.94897100  0.85910000  1
  Ni  Ni5  1  0.44036600  0.94248200  0.51820500  1
  Ni  Ni6  1  0.97681400  0.96956000  0.04693900  1
  Ni  Ni7  1  0.96956000  0.99274500  0.88027200  1
  Ni  Ni8  1  0.54456700  0.97863500  0.71215600  1
  Ni  Ni9  1  0.43406800  0.45543300  0.37882200  1
  Ni  Ni10  1  0.50211600  0.55963400  0.18487200  1
  Ni  Ni11  1  0.53722400  0.58825300  0.52576700  1
  Ni  Ni12  1  0.46277600  0.41174700  0.02576700  1
  Ni  Ni13  1  0.49788400  0.44036600  0.68487200  1
  Ni  Ni14  1  0.56593200  0.54456700  0.87882200  1
  Ni  Ni15  1  0.45543300  0.02136500  0.21215600  1
  Ni  Ni16  1  0.03044000  0.00725500  0.38027200  1
  Ni  Ni17  1  0.02318600  0.03044000  0.54693900  1
  Ni  Ni18  1  0.55963400  0.05751800  0.01820500  1
  Ni  Ni19  1  0.58825300  0.05102900  0.35910000  1
  Ni  Ni20  1  0.94248200  0.50211600  0.35153900  1
  Ni  Ni21  1  0.94897100  0.53722400  0.69243300  1
  Ni  Ni22  1  0.97863500  0.43406800  0.54548900  1
  Ni  Ni23  1  0.00725500  0.97681400  0.21360500  1
  P  P0  1  0.08970700  0.79170700  0.78813500  1
  P  P1  1  0.08238100  0.75407600  0.46884400  1
  P  P2  1  0.13986100  0.79348300  0.13758700  1
  P  P3  1  0.28838200  0.65112200  0.29222400  1
  P  P4  1  0.36274100  0.71161800  0.95889100  1
  P  P5  1  0.34887800  0.63725900  0.62555700  1
  P  P6  1  0.20651700  0.34637800  0.47092100  1
  P  P7  1  0.20829300  0.29800000  0.12146800  1
  P  P8  1  0.24592400  0.32830400  0.80217800  1
  P  P9  1  0.65362200  0.86013900  0.80425400  1
  P  P10  1  0.67169600  0.91761900  0.13551100  1
  P  P11  1  0.70200000  0.91029300  0.45480200  1
  P  P12  1  0.29800000  0.08970700  0.95480200  1
  P  P13  1  0.32830400  0.08238100  0.63551100  1
  P  P14  1  0.34637800  0.13986100  0.30425400  1
  P  P15  1  0.75407600  0.67169600  0.30217800  1
  P  P16  1  0.79170700  0.70200000  0.62146800  1
  P  P17  1  0.79348300  0.65362200  0.97092100  1
  P  P18  1  0.65112200  0.36274100  0.12555700  1
  P  P19  1  0.63725900  0.28838200  0.45889100  1
  P  P20  1  0.71161800  0.34887800  0.79222400  1
  P  P21  1  0.86013900  0.20651700  0.63758700  1
  P  P22  1  0.91761900  0.24592400  0.96884400  1
  P  P23  1  0.91029300  0.20829300  0.28813500  1
  O  O0  1  0.05040800  0.79453300  0.08038100  1
  O  O1  1  0.07858100  0.91722000  0.47403200  1
  O  O2  1  0.01182300  0.67915400  0.84157100  1
  O  O3  1  0.12746400  0.97264000  0.93051900  1
  O  O4  1  0.03689400  0.79044300  0.19064900  1
  O  O5  1  0.01411600  0.65577600  0.52545100  1
  O  O6  1  0.24372500  0.94282300  0.80799900  1
  O  O7  1  0.12617700  0.64643100  0.30120900  1
  O  O8  1  0.12216000  0.69413000  0.74132100  1
  O  O9  1  0.31321400  0.97498500  0.58189000  1
  O  O10  1  0.31494700  0.93134500  0.13976500  1
  O  O11  1  0.14517400  0.63317800  0.13291400  1
  O  O12  1  0.25985200  0.79700200  0.46086300  1
  O  O13  1  0.17243900  0.58755200  0.61181200  1
  O  O14  1  0.06865500  0.38360300  0.47309900  1
  O  O15  1  0.27469300  0.73207900  0.90367200  1
  O  O16  1  0.02501500  0.33822900  0.91522300  1
  O  O17  1  0.05717700  0.30090200  0.14133200  1
  O  O18  1  0.02736000  0.15482400  0.26385200  1
  O  O19  1  0.08278000  0.16136100  0.80736600  1
  O  O20  1  0.25486900  0.66908100  0.01349300  1
  O  O21  1  0.26792100  0.54261300  0.23700500  1
  O  O22  1  0.33091900  0.58578800  0.34682600  1
  O  O23  1  0.20299800  0.46285100  0.79419700  1
  O  O24  1  0.41421200  0.74513100  0.68015900  1
  O  O25  1  0.41511300  0.82756100  0.27847800  1
  O  O26  1  0.48800300  0.85482600  0.79958100  1
  O  O27  1  0.30587000  0.42803100  0.07465400  1
  O  O28  1  0.35356900  0.47974600  0.63454300  1
  O  O29  1  0.36682200  0.51199700  0.46624700  1
  O  O30  1  0.20955700  0.24645100  0.52398200  1
  O  O31  1  0.41244800  0.58488700  0.94514500  1
  O  O32  1  0.45738700  0.72530700  0.57033900  1
  O  O33  1  0.52025400  0.87382300  0.96787600  1
  O  O34  1  0.57196900  0.87784000  0.40798700  1
  O  O35  1  0.15482400  0.12746400  0.09718500  1
  O  O36  1  0.20546700  0.25587500  0.41371500  1
  O  O37  1  0.32084600  0.33266900  0.17490500  1
  O  O38  1  0.16136100  0.07858100  0.64069900  1
  O  O39  1  0.34422400  0.35834000  0.85878400  1
  O  O40  1  0.53714900  0.74014800  0.12753000  1
  O  O41  1  0.30090200  0.24372500  0.97466500  1
  O  O42  1  0.64166000  0.98588400  0.19211800  1
  O  O43  1  0.33822900  0.31321400  0.74855600  1
  O  O44  1  0.38360300  0.31494700  0.30643200  1
  O  O45  1  0.66733100  0.98817700  0.50823800  1
  O  O46  1  0.75354900  0.96310600  0.85731600  1
  O  O47  1  0.25587500  0.05040800  0.24704800  1
  O  O48  1  0.74412500  0.94959200  0.74704800  1
  O  O49  1  0.24645100  0.03689400  0.35731600  1
  O  O50  1  0.33266900  0.01182300  0.00823800  1
  O  O51  1  0.61639700  0.68505300  0.80643200  1
  O  O52  1  0.66177100  0.68678600  0.24855600  1
  O  O53  1  0.35834000  0.01411600  0.69211800  1
  O  O54  1  0.69909800  0.75627500  0.47466500  1
  O  O55  1  0.46285100  0.25985200  0.62753000  1
  O  O56  1  0.65577600  0.64166000  0.35878400  1
  O  O57  1  0.83863900  0.92141900  0.14069900  1
  O  O58  1  0.67915400  0.66733100  0.67490500  1
  O  O59  1  0.79453300  0.74412500  0.91371500  1
  O  O60  1  0.84517600  0.87253600  0.59718500  1
  O  O61  1  0.42803100  0.12216000  0.90798700  1
  O  O62  1  0.47974600  0.12617700  0.46787600  1
  O  O63  1  0.54261300  0.27469300  0.07033900  1
  O  O64  1  0.58755200  0.41511300  0.44514500  1
  O  O65  1  0.79044300  0.75354900  0.02398200  1
  O  O66  1  0.63317800  0.48800300  0.96624700  1
  O  O67  1  0.64643100  0.52025400  0.13454300  1
  O  O68  1  0.69413000  0.57196900  0.57465400  1
  O  O69  1  0.51199700  0.14517400  0.29958100  1
  O  O70  1  0.58488700  0.17243900  0.77847800  1
  O  O71  1  0.58578800  0.25486900  0.18015900  1
  O  O72  1  0.79700200  0.53714900  0.29419700  1
  O  O73  1  0.66908100  0.41421200  0.84682600  1
  O  O74  1  0.73207900  0.45738700  0.73700500  1
  O  O75  1  0.74513100  0.33091900  0.51349300  1
  O  O76  1  0.91722000  0.83863900  0.30736600  1
  O  O77  1  0.97264000  0.84517600  0.76385200  1
  O  O78  1  0.94282300  0.69909800  0.64133200  1
  O  O79  1  0.97498500  0.66177100  0.41522300  1
  O  O80  1  0.72530700  0.26792100  0.40367200  1
  O  O81  1  0.93134500  0.61639700  0.97309900  1
  O  O82  1  0.82756100  0.41244800  0.11181200  1
  O  O83  1  0.74014800  0.20299800  0.96086300  1
  O  O84  1  0.85482600  0.36682200  0.63291400  1
  O  O85  1  0.68505300  0.06865500  0.63976500  1
  O  O86  1  0.68678600  0.02501500  0.08189000  1
  O  O87  1  0.87784000  0.30587000  0.24132100  1
  O  O88  1  0.87382300  0.35356900  0.80120900  1
  O  O89  1  0.75627500  0.05717700  0.30799900  1
  O  O90  1  0.98588400  0.34422400  0.02545100  1
  O  O91  1  0.96310600  0.20955700  0.69064900  1
  O  O92  1  0.87253600  0.02736000  0.43051900  1
  O  O93  1  0.98817700  0.32084600  0.34157100  1
  O  O94  1  0.92141900  0.08278000  0.97403200  1
  O  O95  1  0.94959200  0.20546700  0.58038100  1
loop_
_geom_bond_atom_site_label_1
_geom_bond_atom_site_label_2
_geom_bond_distance
_geom_bond_site_symmetry_2
Li0 O7 1.857854 1_555
Li0 O76 2.000454 1_455
Li0 O4 2.049631 1_555
Li0 O47 2.099996 1_565
Li1 O81 1.906270 1_455
Li1 O2 1.926437 1_555
Li1 O3 1.927960 1_555
Li1 O15 1.940426 1_555
Li2 O78 1.898136 1_455
Li2 O5 1.922395 1_555
Li2 O13 1.927581 1_555
Li2 O9 1.967635 1_555
Li3 O24 1.915351 1_555
Li3 O23 1.918644 1_555
Li3 O8 1.964838 1_555
Li3 O26 2.061846 1_555
Li4 O20 1.915351 1_555
Li4 O40 1.918633 1_555
Li4 O27 1.964832 1_555
Li4 O11 2.061839 1_555
Li5 O22 1.915351 1_555
Li5 O12 1.918640 1_555
Li5 O34 1.964835 1_555
Li5 O29 2.061830 1_555
Li6 O28 1.857860 1_555
Li6 O38 2.000454 1_555
Li6 O30 2.049631 1_555
Li6 O95 2.099996 1_455
Li7 O41 1.898136 1_555
Li7 O39 1.922395 1_555
Li7 O31 1.927581 1_555
Li7 O16 1.967635 1_555
Li8 O44 1.906260 1_555
Li8 O37 1.926437 1_555
Li8 O18 1.927957 1_555
Li8 O21 1.940421 1_555
Li9 O89 1.898136 1_565
Li9 O42 1.922395 1_555
Li9 O25 1.927577 1_555
Li9 O52 1.967639 1_555
Li10 O85 1.906253 1_565
Li10 O45 1.926437 1_555
Li10 O60 1.927957 1_555
Li10 O32 1.940421 1_555
Li11 O62 1.857860 1_555
Li11 O1 2.000454 1_545
Li11 O49 2.049609 1_555
Li11 O36 2.099988 1_555
Li12 O33 1.857860 1_555
Li12 O94 2.000454 1_565
Li12 O46 2.049609 1_555
Li12 O59 2.099988 1_555
Li13 O10 1.906253 1_545
Li13 O50 1.926437 1_555
Li13 O35 1.927957 1_555
Li13 O63 1.940421 1_555
Li14 O6 1.898136 1_545
Li14 O53 1.922395 1_555
Li14 O70 1.927577 1_555
Li14 O43 1.967639 1_555
Li15 O51 1.906260 1_555
Li15 O58 1.926437 1_555
Li15 O77 1.927957 1_555
Li15 O74 1.940421 1_555
Li16 O54 1.898136 1_555
Li16 O56 1.922395 1_555
Li16 O64 1.927581 1_555
Li16 O79 1.967635 1_555
Li17 O67 1.857860 1_555
Li17 O57 2.000454 1_555
Li17 O65 2.049631 1_555
Li17 O0 2.099996 1_655
Li18 O73 1.915351 1_555
Li18 O83 1.918640 1_555
Li18 O61 1.964835 1_555
Li18 O66 2.061830 1_555
Li19 O75 1.915351 1_555
Li19 O55 1.918633 1_555
Li19 O68 1.964832 1_555
Li19 O84 2.061839 1_555
Li20 O71 1.915351 1_555
Li20 O72 1.918644 1_555
Li20 O87 1.964838 1_555
Li20 O69 2.061846 1_555
Li21 O17 1.898136 1_655
Li21 O90 1.922395 1_555
Li21 O82 1.927581 1_555
Li21 O86 1.967635 1_555
Li22 O14 1.906270 1_655
Li22 O93 1.926437 1_555
Li22 O92 1.927960 1_555
Li22 O80 1.940426 1_555
Li23 O88 1.857854 1_555
Li23 O19 2.000454 1_655
Li23 O91 2.049631 1_555
Li23 O48 2.099996 1_545
Ni0 O77 1.987113 1_545
Ni0 O91 2.023865 1_555
Ni0 O38 2.188966 1_655
Ni0 O48 2.263787 1_545
Ni0 O19 2.426765 1_655
Ni1 O81 2.026144 1_454
Ni1 O90 2.040277 1_455
Ni1 O20 2.084668 1_555
Ni1 O0 2.223977 1_555
Ni1 O11 2.235781 1_555
Ni1 O82 2.275364 1_455
Ni2 O87 1.944116 1_455
Ni2 O11 1.962820 1_555
Ni2 O17 1.968341 1_555
Ni2 O21 2.092290 1_555
Ni3 O88 1.977590 1_455
Ni3 O16 2.017362 1_555
Ni3 O2 2.017671 1_555
Ni3 O23 2.060473 1_555
Ni3 O15 2.480512 1_555
Ni4 O61 1.944099 1_565
Ni4 O26 1.962814 1_555
Ni4 O6 1.968341 1_555
Ni4 O15 2.092289 1_555
Ni5 O62 1.977577 1_565
Ni5 O9 2.017378 1_555
Ni5 O45 2.017669 1_555
Ni5 O12 2.060478 1_555
Ni5 O32 2.480527 1_555
Ni6 O35 1.987097 1_665
Ni6 O65 2.023877 1_555
Ni6 O94 2.188977 1_564
Ni6 O0 2.263789 1_655
Ni6 O57 2.426744 1_555
Ni7 O3 1.987105 1_655
Ni7 O46 2.023875 1_555
Ni7 O19 2.188965 1_665
Ni7 O59 2.263790 1_555
Ni7 O94 2.426748 1_565
Ni8 O85 2.026166 1_565
Ni8 O53 2.040277 1_565
Ni8 O24 2.084676 1_555
Ni8 O48 2.223977 1_555
Ni8 O26 2.235780 1_555
Ni8 O70 2.275349 1_565
Ni9 O44 2.026149 1_555
Ni9 O56 2.040277 1_555
Ni9 O22 2.084668 1_555
Ni9 O36 2.223985 1_555
Ni9 O29 2.235784 1_555
Ni9 O64 2.275364 1_555
Ni10 O67 1.977577 1_555
Ni10 O52 2.017362 1_555
Ni10 O37 2.017669 1_555
Ni10 O40 2.060480 1_555
Ni10 O21 2.480508 1_555
Ni11 O68 1.944107 1_555
Ni11 O29 1.962836 1_555
Ni11 O54 1.968355 1_555
Ni11 O32 2.092282 1_555
Ni12 O27 1.944107 1_555
Ni12 O66 1.962836 1_554
Ni12 O41 1.968355 1_554
Ni12 O63 2.092282 1_555
Ni13 O28 1.977577 1_555
Ni13 O43 2.017362 1_555
Ni13 O58 2.017669 1_555
Ni13 O55 2.060480 1_555
Ni13 O74 2.480508 1_555
Ni14 O51 2.026149 1_555
Ni14 O39 2.040277 1_555
Ni14 O73 2.084668 1_555
Ni14 O59 2.223985 1_555
Ni14 O66 2.235784 1_555
Ni14 O31 2.275364 1_555
Ni15 O10 2.026166 1_545
Ni15 O42 2.040277 1_545
Ni15 O71 2.084676 1_555
Ni15 O47 2.223977 1_555
Ni15 O69 2.235780 1_555
Ni15 O25 2.275349 1_545
Ni16 O92 1.987105 1_455
Ni16 O49 2.023875 1_555
Ni16 O76 2.188965 1_445
Ni16 O36 2.263790 1_555
Ni16 O1 2.426748 1_545
Ni17 O60 1.987097 1_445
Ni17 O30 2.023877 1_555
Ni17 O1 2.188977 1_545
Ni17 O95 2.263789 1_455
Ni17 O38 2.426744 1_555
Ni18 O33 1.977577 1_544
Ni18 O86 2.017378 1_555
Ni18 O50 2.017669 1_555
Ni18 O83 2.060478 1_554
Ni18 O63 2.480527 1_555
Ni19 O34 1.944099 1_545
Ni19 O69 1.962814 1_555
Ni19 O89 1.968341 1_555
Ni19 O80 2.092289 1_555
Ni20 O7 1.977590 1_655
Ni20 O79 2.017362 1_555
Ni20 O93 2.017671 1_555
Ni20 O72 2.060473 1_555
Ni20 O80 2.480512 1_555
Ni21 O8 1.944116 1_655
Ni21 O84 1.962820 1_555
Ni21 O78 1.968341 1_555
Ni21 O74 2.092290 1_555
Ni22 O14 2.026144 1_655
Ni22 O5 2.040277 1_655
Ni22 O75 2.084668 1_555
Ni22 O95 2.223977 1_555
Ni22 O84 2.235781 1_555
Ni22 O13 2.275364 1_655
Ni23 O18 1.987113 1_565
Ni23 O4 2.023865 1_555
Ni23 O57 2.188966 1_455
Ni23 O47 2.263787 1_565
Ni23 O76 2.426765 1_455
O0 P2 1.560236 1_555
O1 P1 1.596193 1_555
O2 P0 1.547262 1_555
O3 P12 1.557331 1_565
O4 P2 1.550573 1_555
O5 P1 1.534363 1_555
O6 P0 1.538771 1_555
O7 P3 1.555433 1_555
O8 P0 1.550417 1_555
O9 P13 1.555725 1_565
O10 P2 1.541378 1_555
O11 P2 1.575648 1_555
O12 P1 1.557071 1_555
O13 P5 1.551168 1_555
O14 P6 1.541385 1_555
O15 P4 1.579236 1_555
O16 P22 1.555723 1_455
O17 P7 1.538770 1_555
O18 P23 1.557331 1_455
O19 P8 1.596189 1_555
O20 P4 1.534747 1_554
O21 P3 1.579236 1_555
O22 P3 1.534742 1_555
O23 P8 1.557089 1_555
O24 P5 1.534746 1_555
O25 P3 1.551170 1_555
O26 P9 1.575658 1_555
O27 P7 1.550422 1_555
O28 P5 1.555427 1_555
O29 P6 1.575655 1_555
O30 P6 1.550556 1_555
O31 P4 1.551163 1_555
O32 P5 1.579219 1_555
O33 P4 1.555429 1_555
O34 P11 1.550440 1_555
O35 P7 1.557331 1_555
O36 P6 1.560236 1_555
O37 P7 1.547279 1_555
O38 P13 1.596184 1_555
O39 P8 1.534343 1_555
O40 P10 1.557076 1_555
O41 P12 1.538764 1_555
O42 P10 1.534367 1_555
O43 P8 1.555737 1_555
O44 P14 1.541375 1_555
O45 P11 1.547262 1_555
O46 P9 1.550574 1_555
O47 P14 1.560236 1_555
O48 P9 1.560236 1_555
O49 P14 1.550574 1_555
O50 P12 1.547262 1_554
O51 P9 1.541375 1_555
O52 P15 1.555737 1_555
O53 P13 1.534367 1_555
O54 P11 1.538764 1_555
O55 P13 1.557076 1_555
O56 P15 1.534343 1_555
O57 P10 1.596184 1_555
O58 P16 1.547279 1_555
O59 P17 1.560236 1_555
O60 P16 1.557331 1_555
O61 P12 1.550440 1_555
O62 P19 1.555429 1_555
O63 P18 1.579219 1_555
O64 P19 1.551163 1_555
O65 P17 1.550556 1_554
O66 P17 1.575655 1_555
O67 P18 1.555427 1_555
O68 P16 1.550422 1_555
O69 P14 1.575658 1_555
O70 P20 1.551170 1_555
O71 P18 1.534746 1_555
O72 P15 1.557089 1_555
O73 P20 1.534742 1_555
O74 P20 1.579236 1_555
O75 P19 1.534747 1_555
O76 P15 1.596189 1_555
O77 P0 1.557331 1_655
O78 P16 1.538770 1_555
O79 P1 1.555723 1_655
O80 P19 1.579236 1_555
O81 P17 1.541385 1_555
O82 P18 1.551168 1_555
O83 P22 1.557071 1_555
O84 P21 1.575648 1_555
O85 P21 1.541378 1_555
O86 P10 1.555725 1_545
O87 P23 1.550417 1_555
O88 P20 1.555433 1_555
O89 P23 1.538771 1_555
O90 P22 1.534363 1_554
O91 P21 1.550573 1_555
O92 P11 1.557331 1_545
O93 P23 1.547262 1_555
O94 P22 1.596193 1_555
O95 P21 1.560236 1_555
