# generated using pymatgen
data_Na(FeO2)2
_symmetry_space_group_name_H-M   'P 1'
_cell_length_a   4.87663805
_cell_length_b   5.63360102
_cell_length_c   11.44362409
_cell_angle_alpha   90.00701890
_cell_angle_beta   89.98528238
_cell_angle_gamma   90.00346771
_symmetry_Int_Tables_number   1
_chemical_formula_structural   Na(FeO2)2
_chemical_formula_sum   'Na4 Fe8 O16'
_cell_volume   314.39104996
_cell_formula_units_Z   4
loop_
 _symmetry_equiv_pos_site_id
 _symmetry_equiv_pos_as_xyz
  1  'x, y, z'
loop_
 _atom_site_type_symbol
 _atom_site_label
 _atom_site_symmetry_multiplicity
 _atom_site_fract_x
 _atom_site_fract_y
 _atom_site_fract_z
 _atom_site_occupancy
  Na  Na0  1  0.03092300  0.75002600  0.25011300  1
  Na  Na1  1  0.35906200  0.75016100  0.74997100  1
  Na  Na2  1  0.64087700  0.24985100  0.24991900  1
  Na  Na3  1  0.96966200  0.24997400  0.74992700  1
  Fe  Fe0  1  0.00361100  0.24990900  0.00355100  1
  Fe  Fe1  1  0.99640200  0.75014100  0.99618000  1
  Fe  Fe2  1  0.00378900  0.25000300  0.49633400  1
  Fe  Fe3  1  0.99612000  0.74999800  0.50374600  1
  Fe  Fe4  1  0.49977300  0.49945700  0.99988500  1
  Fe  Fe5  1  0.49981100  0.00046900  0.99987700  1
  Fe  Fe6  1  0.49984500  0.99991100  0.50007800  1
  Fe  Fe7  1  0.49984300  0.50007900  0.50008300  1
  O  O0  1  0.16591000  0.00087000  0.59047100  1
  O  O1  1  0.16610800  0.00060500  0.90944000  1
  O  O2  1  0.16591700  0.49920300  0.59046900  1
  O  O3  1  0.16615900  0.49953200  0.90943500  1
  O  O4  1  0.33793800  0.24994800  0.09060400  1
  O  O5  1  0.33775700  0.24996100  0.40947100  1
  O  O6  1  0.32824800  0.74998300  0.08649100  1
  O  O7  1  0.32851000  0.74996100  0.41372400  1
  O  O8  1  0.67153300  0.25003400  0.58653500  1
  O  O9  1  0.67164100  0.24996000  0.91352100  1
  O  O10  1  0.66227500  0.75003800  0.58983200  1
  O  O11  1  0.66248000  0.74999100  0.91004800  1
  O  O12  1  0.83408600  0.99851800  0.40950100  1
  O  O13  1  0.83407800  0.50139900  0.40950000  1
  O  O14  1  0.83385100  0.99834500  0.09064600  1
  O  O15  1  0.83379000  0.50167100  0.09065000  1
loop_
_geom_bond_atom_site_label_1
_geom_bond_atom_site_label_2
_geom_bond_distance
_geom_bond_site_symmetry_2
Na0 O6 2.367898 1_555
Na0 O7 2.369170 1_555
Na0 O12 2.491320 1_455
Na0 O13 2.491940 1_455
Na0 O15 2.492367 1_455
Na0 O14 2.492488 1_455
Na1 O10 2.354434 1_555
Na1 O11 2.355101 1_555
Na1 O1 2.490980 1_565
Na1 O3 2.491623 1_555
Na1 O0 2.493058 1_565
Na1 O2 2.493539 1_555
Na2 O4 2.346852 1_555
Na2 O5 2.348925 1_555
Na2 O14 2.492770 1_545
Na2 O15 2.493819 1_555
Na2 O12 2.495843 1_545
Na2 O13 2.496189 1_555
Na3 O8 2.368811 1_555
Na3 O9 2.369724 1_555
Na3 O0 2.492724 1_655
Na3 O2 2.493337 1_655
Na3 O1 2.495024 1_655
Na3 O3 2.495361 1_655
Fe0 O4 1.910871 1_555
Fe0 O9 1.919151 1_454
Fe0 O14 1.920154 1_445
Fe0 O15 1.921023 1_455
Fe0 O1 1.938998 1_554
Fe0 O3 1.940555 1_554
Fe1 O11 1.903706 1_555
Fe1 O1 1.913360 1_665
Fe1 O3 1.913995 1_655
Fe1 O6 1.920371 1_656
Fe1 O14 1.936886 1_556
Fe1 O15 1.938237 1_556
Fe2 O5 1.907808 1_555
Fe2 O13 1.918098 1_455
Fe2 O12 1.918192 1_445
Fe2 O8 1.920932 1_455
Fe2 O0 1.938134 1_555
Fe2 O2 1.938148 1_555
Fe3 O10 1.902679 1_555
Fe3 O2 1.915121 1_655
Fe3 O0 1.915185 1_665
Fe3 O7 1.920384 1_655
Fe3 O12 1.936149 1_555
Fe3 O13 1.936233 1_555
Fe4 O9 1.911607 1_555
Fe4 O6 1.916572 1_556
Fe4 O4 1.917349 1_556
Fe4 O11 1.917907 1_555
Fe4 O3 1.928497 1_555
Fe4 O15 1.932130 1_556
Fe5 O9 1.911557 1_555
Fe5 O6 1.916638 1_546
Fe5 O4 1.917235 1_556
Fe5 O11 1.917435 1_545
Fe5 O1 1.928783 1_555
Fe5 O14 1.932249 1_546
Fe6 O7 1.912435 1_555
Fe6 O10 1.914388 1_555
Fe6 O8 1.914514 1_565
Fe6 O5 1.919689 1_565
Fe6 O0 1.929026 1_565
Fe6 O12 1.931423 1_555
Fe7 O7 1.912431 1_555
Fe7 O8 1.914419 1_555
Fe7 O10 1.914462 1_555
Fe7 O5 1.919740 1_555
Fe7 O2 1.928945 1_555
Fe7 O13 1.931434 1_555
