# generated using pymatgen
data_YbO2
_symmetry_space_group_name_H-M   'P 1'
_cell_length_a   4.08676100
_cell_length_b   4.08676100
_cell_length_c   4.47201900
_cell_angle_alpha   90.00000000
_cell_angle_beta   90.00000000
_cell_angle_gamma   90.00000000
_symmetry_Int_Tables_number   1
_chemical_formula_structural   YbO2
_chemical_formula_sum   'Yb2 O4'
_cell_volume   74.68994172
_cell_formula_units_Z   2
loop_
 _symmetry_equiv_pos_site_id
 _symmetry_equiv_pos_as_xyz
  1  'x, y, z'
loop_
 _atom_site_type_symbol
 _atom_site_label
 _atom_site_symmetry_multiplicity
 _atom_site_fract_x
 _atom_site_fract_y
 _atom_site_fract_z
 _atom_site_occupancy
  Yb  Yb0  1  0.00000000  0.00000000  0.00000000  1
  Yb  Yb1  1  0.50000000  0.50000000  0.50000000  1
  O  O0  1  0.37336500  0.37336500  0.00000000  1
  O  O1  1  0.62663500  0.62663500  0.00000000  1
  O  O2  1  0.87336500  0.12663500  0.50000000  1
  O  O3  1  0.12663500  0.87336500  0.50000000  1
loop_
_geom_bond_atom_site_label_1
_geom_bond_atom_site_label_2
_geom_bond_distance
_geom_bond_site_symmetry_2
O0 O1 1.463787 1_555
O0 Yb0 2.157883 1_555
O0 Yb1 2.352745 1_555
O0 Yb1 2.352745 1_554
O1 Yb0 2.157883 1_665
O1 Yb1 2.352745 1_555
O1 Yb1 2.352745 1_554
O2 O3 1.463787 1_645
O2 Yb1 2.157883 1_555
O2 Yb0 2.352745 1_656
O2 Yb0 2.352745 1_655
O3 Yb1 2.157883 1_555
O3 Yb0 2.352745 1_566
O3 Yb0 2.352745 1_565
