# generated using pymatgen
data_SmMgHg2
_symmetry_space_group_name_H-M   'P 1'
_cell_length_a   5.10279847
_cell_length_b   5.10279847
_cell_length_c   5.10279847
_cell_angle_alpha   60.00000000
_cell_angle_beta   60.00000000
_cell_angle_gamma   60.00000000
_symmetry_Int_Tables_number   1
_chemical_formula_structural   SmMgHg2
_chemical_formula_sum   'Sm1 Mg1 Hg2'
_cell_volume   93.95291338
_cell_formula_units_Z   1
loop_
 _symmetry_equiv_pos_site_id
 _symmetry_equiv_pos_as_xyz
  1  'x, y, z'
loop_
 _atom_site_type_symbol
 _atom_site_label
 _atom_site_symmetry_multiplicity
 _atom_site_fract_x
 _atom_site_fract_y
 _atom_site_fract_z
 _atom_site_occupancy
  Sm  Sm0  1  0.74999900  0.74999900  0.74999900  1
  Mg  Mg0  1  0.24999900  0.24999900  0.24999900  1
  Hg  Hg0  1  0.00000000  -0.00000000  0.00000000  1
  Hg  Hg1  1  0.50000000  0.50000000  0.50000000  1
loop_
_geom_bond_atom_site_label_1
_geom_bond_atom_site_label_2
_geom_bond_distance
_geom_bond_site_symmetry_2
Hg0 Mg0 3.124801 1_555
Hg0 Sm0 3.124809 1_445
Hg0 Sm0 3.124809 1_454
Hg0 Sm0 3.124809 1_544
Hg0 Mg0 3.124817 1_545
Hg0 Mg0 3.124817 1_455
Hg0 Mg0 3.124817 1_554
Hg0 Sm0 3.124826 1_444
Hg1 Sm0 3.124801 1_555
Hg1 Mg0 3.124809 1_556
Hg1 Mg0 3.124809 1_655
Hg1 Mg0 3.124809 1_565
Hg1 Sm0 3.124817 1_554
Hg1 Sm0 3.124817 1_455
Hg1 Sm0 3.124817 1_545
Hg1 Mg0 3.124826 1_555
