# generated using pymatgen
data_LiAlCu2
_symmetry_space_group_name_H-M   'P 1'
_cell_length_a   4.11954754
_cell_length_b   4.11954754
_cell_length_c   4.11954754
_cell_angle_alpha   60.00000000
_cell_angle_beta   60.00000000
_cell_angle_gamma   60.00000000
_symmetry_Int_Tables_number   1
_chemical_formula_structural   LiAlCu2
_chemical_formula_sum   'Li1 Al1 Cu2'
_cell_volume   49.43488849
_cell_formula_units_Z   1
loop_
 _symmetry_equiv_pos_site_id
 _symmetry_equiv_pos_as_xyz
  1  'x, y, z'
loop_
 _atom_site_type_symbol
 _atom_site_label
 _atom_site_symmetry_multiplicity
 _atom_site_fract_x
 _atom_site_fract_y
 _atom_site_fract_z
 _atom_site_occupancy
  Li  Li0  1  0.75000100  0.75000100  0.75000100  1
  Al  Al0  1  0.25000100  0.25000100  0.25000100  1
  Cu  Cu0  1  0.50000000  0.50000000  0.50000000  1
  Cu  Cu1  1  0.00000000  0.00000000  0.00000000  1
loop_
_geom_bond_atom_site_label_1
_geom_bond_atom_site_label_2
_geom_bond_distance
_geom_bond_site_symmetry_2
Al0 Cu0 2.522687 1_555
Al0 Cu1 2.522694 1_655
Al0 Cu1 2.522694 1_556
Al0 Cu1 2.522694 1_565
Al0 Cu0 2.522701 1_455
Al0 Cu0 2.522701 1_554
Al0 Cu0 2.522701 1_545
Al0 Cu1 2.522707 1_555
Al0 Li0 2.912960 1_554
Al0 Li0 2.912960 1_545
Al0 Li0 2.912960 1_455
Al0 Li0 2.912960 1_445
Al0 Li0 2.912960 1_544
Al0 Li0 2.912960 1_454
Cu0 Li0 2.522694 1_554
Cu0 Li0 2.522694 1_545
Cu0 Li0 2.522694 1_455
Cu0 Li0 2.522707 1_555
Cu1 Li0 2.522687 1_444
Cu1 Li0 2.522701 1_445
Cu1 Li0 2.522701 1_544
Cu1 Li0 2.522701 1_454
