# generated using pymatgen
data_Li3V3P8O29
_symmetry_space_group_name_H-M   'P 1'
_cell_length_a   9.68821900
_cell_length_b   9.72886121
_cell_length_c   14.37382204
_cell_angle_alpha   91.43793565
_cell_angle_beta   89.49362064
_cell_angle_gamma   119.46788135
_symmetry_Int_Tables_number   1
_chemical_formula_structural   Li3V3P8O29
_chemical_formula_sum   'Li6 V6 P16 O58'
_cell_volume   1179.15890771
_cell_formula_units_Z   2
loop_
 _symmetry_equiv_pos_site_id
 _symmetry_equiv_pos_as_xyz
  1  'x, y, z'
loop_
 _atom_site_type_symbol
 _atom_site_label
 _atom_site_symmetry_multiplicity
 _atom_site_fract_x
 _atom_site_fract_y
 _atom_site_fract_z
 _atom_site_occupancy
  Li  Li0  1  0.77304400  0.67902600  0.93984300  1
  Li  Li1  1  0.09177600  0.32524200  0.55955100  1
  Li  Li2  1  0.90541400  0.67435200  0.43914800  1
  Li  Li3  1  0.68252700  0.91470900  0.05765500  1
  Li  Li4  1  0.07909900  0.06642500  0.00940300  1
  Li  Li5  1  0.99114800  0.99494900  0.50022800  1
  V  V0  1  0.99613900  0.43437000  0.75585700  1
  V  V1  1  0.00357700  0.56376900  0.24162000  1
  V  V2  1  0.43390600  0.43229000  0.25130200  1
  V  V3  1  0.55798900  0.56171200  0.74614400  1
  V  V4  1  0.43568100  0.99926200  0.74623100  1
  V  V5  1  0.55911400  0.00139800  0.25789400  1
  P  P0  1  0.30242200  0.08081900  0.16104900  1
  P  P1  1  0.30137500  0.21523500  0.66019400  1
  P  P2  1  0.78614700  0.08055600  0.66285600  1
  P  P3  1  0.66281100  0.33458800  0.86637500  1
  P  P4  1  0.67239600  0.34299600  0.36524300  1
  P  P5  1  0.91178900  0.21011200  0.16306700  1
  P  P6  1  0.08743200  0.31524300  0.34309200  1
  P  P7  1  0.76977700  0.68151300  0.15572300  1
  P  P8  1  0.22522000  0.31078000  0.84298500  1
  P  P9  1  0.90882100  0.68132300  0.65513400  1
  P  P10  1  0.08705800  0.78748500  0.83358300  1
  P  P11  1  0.32605900  0.66033600  0.63344100  1
  P  P12  1  0.34129800  0.66781900  0.13437700  1
  P  P13  1  0.21070200  0.91525300  0.34241800  1
  P  P14  1  0.69611600  0.78225200  0.33691900  1
  P  P15  1  0.68581100  0.91200200  0.84307500  1
  O  O0  1  0.18307100  0.98870700  0.42646200  1
  O  O1  1  0.34498900  0.08224500  0.66326300  1
  O  O2  1  0.21285400  0.22595400  0.92868800  1
  O  O3  1  0.34497000  0.25744300  0.17156100  1
  O  O4  1  0.45810900  0.07449700  0.17623800  1
  O  O5  1  0.52177700  0.18695000  0.81774200  1
  O  O6  1  0.62127700  0.07215400  0.67084200  1
  O  O7  1  0.75835600  0.98210400  0.93518800  1
  O  O8  1  0.73464100  0.07867700  0.16613200  1
  O  O9  1  0.52137500  0.33605500  0.32188900  1
  O  O10  1  0.45895400  0.37668300  0.67177600  1
  O  O11  1  0.66930300  0.18995200  0.32182300  1
  O  O12  1  0.66870600  0.33705800  0.96935500  1
  O  O13  1  0.68067100  0.35297000  0.46828000  1
  O  O14  1  0.81468600  0.33484700  0.82175000  1
  O  O15  1  0.61729600  0.52466600  0.17329600  1
  O  O16  1  0.66777300  0.48490300  0.82609000  1
  O  O17  1  0.91885500  0.25837400  0.66792300  1
  O  O18  1  0.98589800  0.19419200  0.26023000  1
  O  O19  1  0.02206200  0.24372700  0.43454700  1
  O  O20  1  0.99402100  0.18477500  0.08277600  1
  O  O21  1  0.92056600  0.37576100  0.17065900  1
  O  O22  1  0.81798300  0.48804300  0.32021800  1
  O  O23  1  0.08973900  0.35224800  0.83116300  1
  O  O24  1  0.91198900  0.52700900  0.67311300  1
  O  O25  1  0.73594400  0.64867400  0.67167200  1
  O  O26  1  0.20306800  0.19728000  0.75424100  1
  O  O27  1  0.19942500  0.20292500  0.58010800  1
  O  O28  1  0.80707900  0.80395600  0.41413400  1
  O  O29  1  0.26001300  0.34685800  0.33034800  1
  O  O30  1  0.08670900  0.47099600  0.32299500  1
  O  O31  1  0.91431500  0.65399100  0.16395600  1
  O  O32  1  0.17979900  0.51116000  0.67330000  1
  O  O33  1  0.08326100  0.62479700  0.82521300  1
  O  O34  1  0.99502700  0.80053900  0.91341300  1
  O  O35  1  0.96876200  0.75412100  0.56341900  1
  O  O36  1  0.01177800  0.80388200  0.73687100  1
  O  O37  1  0.08031600  0.73749300  0.33238300  1
  O  O38  1  0.33880500  0.52311200  0.18148900  1
  O  O39  1  0.38366100  0.46549900  0.82770700  1
  O  O40  1  0.18798100  0.66698500  0.17596500  1
  O  O41  1  0.34767000  0.66888500  0.03140800  1
  O  O42  1  0.33105900  0.65421800  0.53045900  1
  O  O43  1  0.32834700  0.81047400  0.67724100  1
  O  O44  1  0.54289500  0.62082300  0.32960700  1
  O  O45  1  0.47497900  0.66230500  0.68158600  1
  O  O46  1  0.26077200  0.92215000  0.83052600  1
  O  O47  1  0.19402500  0.99671500  0.25041600  1
  O  O48  1  0.21080100  0.00556500  0.07548300  1
  O  O49  1  0.37712000  0.92395100  0.33163500  1
  O  O50  1  0.48717300  0.81642700  0.17933700  1
  O  O51  1  0.52872300  0.91199100  0.82271400  1
  O  O52  1  0.65655900  0.73931300  0.83472500  1
  O  O53  1  0.76795500  0.75805000  0.06659700  1
  O  O54  1  0.78986800  0.80247800  0.23922700  1
  O  O55  1  0.65336000  0.91694500  0.33478600  1
  O  O56  1  0.81578900  0.00190200  0.58182500  1
  O  O57  1  0.80412600  0.00699500  0.75980600  1
loop_
_geom_bond_atom_site_label_1
_geom_bond_atom_site_label_2
_geom_bond_distance
_geom_bond_site_symmetry_2
Li0 O34 1.916697 1_555
Li0 O53 1.969359 1_556
Li0 O52 2.150909 1_555
Li0 O16 2.293428 1_555
Li1 O19 1.932998 1_555
Li1 O27 1.958388 1_555
Li1 O17 2.142142 1_455
Li1 O32 2.242934 1_555
Li2 O35 1.910711 1_555
Li2 O28 1.958939 1_555
Li2 O37 2.140312 1_655
Li2 O22 2.298857 1_555
Li3 O7 1.905122 1_554
Li3 O53 2.068147 1_555
Li3 O8 2.080265 1_565
Li3 O50 2.408397 1_555
Li4 O2 1.875925 1_554
Li4 O48 1.916707 1_555
Li4 O20 1.993707 1_455
Li5 O56 2.083354 1_565
Li5 O0 2.158304 1_655
Li5 O28 2.197199 1_555
Li5 O27 2.321934 1_665
Li5 O35 2.442330 1_555
Li5 O19 2.497091 1_665
O0 P13 1.476775 1_555
O1 P1 1.547770 1_555
O1 V4 1.900203 1_545
O2 P8 1.471079 1_555
O3 P0 1.560976 1_555
O3 V2 1.851300 1_555
O4 P0 1.557009 1_555
O4 V5 1.894155 1_555
O5 P3 1.566616 1_555
O5 V4 1.873226 1_545
O6 P2 1.562045 1_555
O6 V4 1.913076 1_545
O7 P15 1.487162 1_555
O8 P5 1.557194 1_555
O8 V5 1.987210 1_555
O9 P4 1.565382 1_555
O9 V2 1.862148 1_555
O10 P1 1.567684 1_555
O10 V3 1.877746 1_555
O11 P4 1.586556 1_555
O11 V5 1.831698 1_555
O12 P3 1.480958 1_555
O13 P4 1.482073 1_555
O14 P3 1.598814 1_555
O14 V0 1.807454 1_555
O15 P7 1.539320 1_555
O15 V2 1.914672 1_555
O16 P3 1.564942 1_555
O16 V3 1.963887 1_555
O17 P2 1.567834 1_555
O17 V0 1.933057 1_555
O18 P6 1.607387 1_655
O18 P5 1.621105 1_555
O19 P6 1.486910 1_555
O20 P5 1.479888 1_555
O21 P5 1.572522 1_555
O21 V1 1.872522 1_655
O22 P4 1.571952 1_555
O22 V1 1.937712 1_655
O23 P8 1.562964 1_555
O23 V0 1.845503 1_455
O24 P9 1.544854 1_555
O24 V0 1.919727 1_555
O25 P9 1.560744 1_555
O25 V3 1.847099 1_555
O26 P1 1.609480 1_555
O26 P8 1.610432 1_555
O27 P1 1.487227 1_555
O28 P14 1.489327 1_555
O29 P6 1.554088 1_555
O29 V2 1.859005 1_555
O30 P6 1.553086 1_555
O30 V1 1.901654 1_555
O31 P7 1.555635 1_555
O31 V1 1.891450 1_655
O32 P11 1.564123 1_555
O32 V0 1.957457 1_455
O33 P10 1.566596 1_555
O33 V0 1.876752 1_455
O34 P10 1.487881 1_655
O35 P9 1.485064 1_555
O36 P9 1.605379 1_455
O36 P10 1.622752 1_555
O37 P13 1.564824 1_555
O37 V1 1.944609 1_555
O38 P12 1.566926 1_555
O38 V2 1.870410 1_555
O39 P8 1.551635 1_555
O39 V3 1.888856 1_555
O40 P12 1.592613 1_555
O40 V1 1.828497 1_555
O41 P12 1.480883 1_555
O42 P11 1.481270 1_555
O43 P11 1.566095 1_555
O43 V4 1.867040 1_555
O44 P14 1.543332 1_555
O44 V2 1.938554 1_555
O45 P11 1.597074 1_555
O45 V3 1.816245 1_555
O46 P10 1.543704 1_555
O46 V4 1.913366 1_555
O47 P13 1.607909 1_555
O47 P0 1.614282 1_565
O48 P0 1.473542 1_555
O49 P13 1.578823 1_555
O49 V5 1.870833 1_565
O50 P12 1.569772 1_555
O50 V5 1.917577 1_565
O51 P15 1.552273 1_555
O51 V4 1.886627 1_555
O52 P15 1.561850 1_555
O52 V3 1.950962 1_555
O53 P7 1.502379 1_555
O54 P7 1.603553 1_555
O54 P14 1.628185 1_555
O55 P14 1.557561 1_555
O55 V5 1.879321 1_565
O56 P2 1.479923 1_555
O57 P15 1.609215 1_545
O57 P2 1.631400 1_555
