# generated using pymatgen
data_Ba3CaI8
_symmetry_space_group_name_H-M   'P 1'
_cell_length_a   10.08176108
_cell_length_b   10.08176108
_cell_length_c   10.08176108
_cell_angle_alpha   131.77862155
_cell_angle_beta   131.77862155
_cell_angle_gamma   70.57889560
_symmetry_Int_Tables_number   1
_chemical_formula_structural   Ba3CaI8
_chemical_formula_sum   'Ba3 Ca1 I8'
_cell_volume   558.30937656
_cell_formula_units_Z   1
loop_
 _symmetry_equiv_pos_site_id
 _symmetry_equiv_pos_as_xyz
  1  'x, y, z'
loop_
 _atom_site_type_symbol
 _atom_site_label
 _atom_site_symmetry_multiplicity
 _atom_site_fract_x
 _atom_site_fract_y
 _atom_site_fract_z
 _atom_site_occupancy
  Ba  Ba0  1  0.75000000  0.25000000  0.50000000  1
  Ba  Ba1  1  0.50000000  0.50000000  0.00000000  1
  Ba  Ba2  1  0.25000000  0.75000000  0.50000000  1
  Ca  Ca0  1  0.00000000  0.00000000  0.00000000  1
  I  I0  1  0.63734800  0.12056000  0.00000000  1
  I  I1  1  0.12056000  0.12056000  0.48321200  1
  I  I2  1  0.36265200  0.36265200  0.48321200  1
  I  I3  1  0.87944000  0.36265200  0.00000000  1
  I  I4  1  0.12056000  0.63734800  0.00000000  1
  I  I5  1  0.63734800  0.63734800  0.51678800  1
  I  I6  1  0.87944000  0.87944000  0.51678800  1
  I  I7  1  0.36265200  0.87944000  0.00000000  1
loop_
_geom_bond_atom_site_label_1
_geom_bond_atom_site_label_2
_geom_bond_distance
_geom_bond_site_symmetry_2
Ba0 I6 3.604810 1_545
Ba0 I7 3.604810 1_545
Ba0 I3 3.604810 1_556
Ba0 I0 3.604810 1_555
Ba0 I1 3.604810 1_655
Ba0 I4 3.604810 1_656
Ba0 I5 3.604810 1_555
Ba0 I2 3.604810 1_555
Ba1 I2 3.609518 1_554
Ba1 I0 3.609518 1_555
Ba1 I4 3.609518 1_555
Ba1 I5 3.609518 1_555
Ba1 I1 3.609518 1_554
Ba1 I7 3.609518 1_555
Ba1 I6 3.609518 1_555
Ba1 I3 3.609518 1_555
Ba2 I6 3.604810 1_455
Ba2 I7 3.604810 1_556
Ba2 I3 3.604810 1_455
Ba2 I0 3.604810 1_566
Ba2 I1 3.604810 1_565
Ba2 I4 3.604810 1_555
Ba2 I5 3.604810 1_555
Ba2 I2 3.604810 1_555
Ca0 I5 3.448136 1_444
Ca0 I7 3.448136 1_545
Ca0 I4 3.448136 1_545
Ca0 I2 3.448136 1_555
Ca0 I0 3.448136 1_455
Ca0 I1 3.448136 1_555
Ca0 I3 3.448136 1_455
Ca0 I6 3.448136 1_444
