# generated using pymatgen
data_Ta2NbOs
_symmetry_space_group_name_H-M   'P 1'
_cell_length_a   4.56044262
_cell_length_b   4.56044262
_cell_length_c   4.56044262
_cell_angle_alpha   60.00000000
_cell_angle_beta   60.00000000
_cell_angle_gamma   60.00000000
_symmetry_Int_Tables_number   1
_chemical_formula_structural   Ta2NbOs
_chemical_formula_sum   'Ta2 Nb1 Os1'
_cell_volume   67.06655348
_cell_formula_units_Z   1
loop_
 _symmetry_equiv_pos_site_id
 _symmetry_equiv_pos_as_xyz
  1  'x, y, z'
loop_
 _atom_site_type_symbol
 _atom_site_label
 _atom_site_symmetry_multiplicity
 _atom_site_fract_x
 _atom_site_fract_y
 _atom_site_fract_z
 _atom_site_occupancy
  Ta  Ta0  1  -0.00000000  -0.00000000  -0.00000000  1
  Ta  Ta1  1  0.49999900  0.49999900  0.49999900  1
  Nb  Nb0  1  0.25000000  0.25000000  0.25000000  1
  Os  Os0  1  0.75000100  0.75000100  0.75000100  1
loop_
_geom_bond_atom_site_label_1
_geom_bond_atom_site_label_2
_geom_bond_distance
_geom_bond_site_symmetry_2
Nb0 Ta1 2.792678 1_555
Nb0 Ta0 2.792689 1_565
Nb0 Ta0 2.792689 1_556
Nb0 Ta0 2.792689 1_555
Nb0 Ta0 2.792689 1_655
Nb0 Ta1 2.792693 1_455
Nb0 Ta1 2.792693 1_554
Nb0 Ta1 2.792693 1_545
Nb0 Os0 3.224713 1_445
Nb0 Os0 3.224713 1_544
Nb0 Os0 3.224713 1_454
Nb0 Os0 3.224726 1_545
Nb0 Os0 3.224726 1_455
Nb0 Os0 3.224726 1_554
Os0 Ta0 2.792678 1_666
Os0 Ta1 2.792682 1_556
Os0 Ta1 2.792682 1_655
Os0 Ta1 2.792682 1_565
Os0 Ta0 2.792693 1_665
Os0 Ta0 2.792693 1_656
Os0 Ta0 2.792693 1_566
Os0 Ta1 2.792712 1_555
