# generated using pymatgen
data_Hf2ReOs
_symmetry_space_group_name_H-M   'P 1'
_cell_length_a   4.59535149
_cell_length_b   4.59535149
_cell_length_c   4.59535149
_cell_angle_alpha   60.00000000
_cell_angle_beta   60.00000000
_cell_angle_gamma   60.00000000
_symmetry_Int_Tables_number   1
_chemical_formula_structural   Hf2ReOs
_chemical_formula_sum   'Hf2 Re1 Os1'
_cell_volume   68.61849810
_cell_formula_units_Z   1
loop_
 _symmetry_equiv_pos_site_id
 _symmetry_equiv_pos_as_xyz
  1  'x, y, z'
loop_
 _atom_site_type_symbol
 _atom_site_label
 _atom_site_symmetry_multiplicity
 _atom_site_fract_x
 _atom_site_fract_y
 _atom_site_fract_z
 _atom_site_occupancy
  Hf  Hf0  1  0.00000000  0.00000000  0.00000000  1
  Hf  Hf1  1  0.50000000  0.50000000  0.50000000  1
  Re  Re0  1  0.75000100  0.75000100  0.75000100  1
  Os  Os0  1  0.25000000  0.25000000  0.25000000  1
loop_
_geom_bond_atom_site_label_1
_geom_bond_atom_site_label_2
_geom_bond_distance
_geom_bond_site_symmetry_2
Hf0 Re0 2.814055 1_444
Hf0 Os0 2.814067 1_555
Hf0 Os0 2.814067 1_545
Hf0 Os0 2.814067 1_455
Hf0 Os0 2.814067 1_554
Hf0 Re0 2.814070 1_544
Hf0 Re0 2.814070 1_445
Hf0 Re0 2.814070 1_454
Hf1 Re0 2.814063 1_455
Hf1 Re0 2.814063 1_554
Hf1 Re0 2.814063 1_545
Hf1 Os0 2.814067 1_555
Hf1 Os0 2.814067 1_556
Hf1 Os0 2.814067 1_565
Hf1 Os0 2.814067 1_655
Hf1 Re0 2.814078 1_555
