# generated using pymatgen
data_ErSi2Rh3
_symmetry_space_group_name_H-M   'P 1'
_cell_length_a   5.50796693
_cell_length_b   6.55636378
_cell_length_c   6.55636592
_cell_angle_alpha   65.82070031
_cell_angle_beta   65.16243399
_cell_angle_gamma   65.16243742
_symmetry_Int_Tables_number   1
_chemical_formula_structural   ErSi2Rh3
_chemical_formula_sum   'Er2 Si4 Rh6'
_cell_volume   187.01304837
_cell_formula_units_Z   2
loop_
 _symmetry_equiv_pos_site_id
 _symmetry_equiv_pos_as_xyz
  1  'x, y, z'
loop_
 _atom_site_type_symbol
 _atom_site_label
 _atom_site_symmetry_multiplicity
 _atom_site_fract_x
 _atom_site_fract_y
 _atom_site_fract_z
 _atom_site_occupancy
  Er  Er0  1  0.95065864  0.75000000  0.75000000  1
  Er  Er1  1  0.04934136  0.25000000  0.25000000  1
  Si  Si0  1  0.61455610  0.57822530  0.57822530  1
  Si  Si1  1  0.27100770  0.92177470  0.92177470  1
  Si  Si2  1  0.38544290  0.42177470  0.42177470  1
  Si  Si3  1  0.72899230  0.07822530  0.07822530  1
  Rh  Rh0  1  0.50000000  0.78625703  0.21374297  1
  Rh  Rh1  1  0.50000000  0.21374297  0.78625703  1
  Rh  Rh2  1  0.50000000  -0.00000000  0.50000000  1
  Rh  Rh3  1  0.50000000  0.50000000  0.00000000  1
  Rh  Rh4  1  0.00000000  0.28625703  0.71374297  1
  Rh  Rh5  1  -0.00000000  0.71374297  0.28625703  1
loop_
_geom_bond_atom_site_label_1
_geom_bond_atom_site_label_2
_geom_bond_distance
_geom_bond_site_symmetry_2
Er0 Rh4 3.036188 1_655
Er0 Rh1 3.036189 1_565
Er0 Rh5 3.036189 1_655
Er0 Rh0 3.036189 1_556
Er0 Rh3 3.055123 1_556
Er0 Rh2 3.055123 1_565
Er0 Si0 3.166691 1_655
Er0 Si1 3.166695 1_655
Er0 Si3 3.183028 1_566
Er0 Si2 3.183028 1_655
Er0 Si1 3.241274 1_555
Er0 Si0 3.241278 1_555
Er0 Rh2 3.511066 1_665
Er0 Rh3 3.511066 1_656
Er0 Rh4 3.543400 1_665
Er0 Rh1 3.543401 1_655
Er0 Rh5 3.543401 1_656
Er0 Rh0 3.543402 1_655
Er0 Er1 3.603473 1_665
Er0 Er1 3.603474 1_656
Er1 Rh5 3.036188 1_555
Er1 Rh0 3.036189 1_545
Er1 Rh4 3.036189 1_555
Er1 Rh1 3.036189 1_554
Er1 Rh3 3.055123 1_555
Er1 Rh2 3.055123 1_555
Er1 Si3 3.166695 1_455
Er1 Si2 3.166696 1_455
Er1 Si1 3.183028 1_544
Er1 Si0 3.183029 1_455
Er1 Si2 3.241273 1_555
Er1 Si3 3.241274 1_555
Er1 Rh2 3.511066 1_455
Er1 Rh3 3.511066 1_455
Er1 Rh5 3.543400 1_545
Er1 Rh0 3.543401 1_455
Er1 Rh4 3.543401 1_554
Er1 Rh1 3.543402 1_455
Rh0 Si3 2.395457 1_565
Rh0 Si1 2.395458 1_554
Rh0 Si0 2.417168 1_555
Rh0 Si2 2.417170 1_555
Rh1 Si1 2.395457 1_545
Rh1 Si3 2.395458 1_556
Rh1 Si0 2.417167 1_555
Rh1 Si2 2.417170 1_555
Rh2 Si2 2.439737 1_555
Rh2 Si0 2.439738 1_545
Rh2 Si3 2.439738 1_555
Rh2 Si1 2.439738 1_545
Rh3 Si3 2.439737 1_555
Rh3 Si1 2.439737 1_554
Rh3 Si2 2.439738 1_555
Rh3 Si0 2.439738 1_554
Rh4 Si2 2.395457 1_555
Rh4 Si0 2.395461 1_455
Rh4 Si1 2.417170 1_545
Rh4 Si3 2.417170 1_456
Rh5 Si2 2.395457 1_555
Rh5 Si0 2.395461 1_455
Rh5 Si3 2.417170 1_465
Rh5 Si1 2.417170 1_554
