# generated using pymatgen
data_CaBi3
_symmetry_space_group_name_H-M   'P 1'
_cell_length_a   4.97205906
_cell_length_b   4.97205906
_cell_length_c   4.97205906
_cell_angle_alpha   90.03545479
_cell_angle_beta   90.03545479
_cell_angle_gamma   90.03545479
_symmetry_Int_Tables_number   1
_chemical_formula_structural   CaBi3
_chemical_formula_sum   'Ca1 Bi3'
_cell_volume   122.91604721
_cell_formula_units_Z   1
loop_
 _symmetry_equiv_pos_site_id
 _symmetry_equiv_pos_as_xyz
  1  'x, y, z'
loop_
 _atom_site_type_symbol
 _atom_site_label
 _atom_site_symmetry_multiplicity
 _atom_site_fract_x
 _atom_site_fract_y
 _atom_site_fract_z
 _atom_site_occupancy
  Ca  Ca0  1  0.99999756  0.99999756  0.99999756  1
  Bi  Bi0  1  0.00000888  0.49999578  0.49999578  1
  Bi  Bi1  1  0.49999578  0.00000888  0.49999578  1
  Bi  Bi2  1  0.49999578  0.49999578  0.00000888  1
loop_
_geom_bond_atom_site_label_1
_geom_bond_atom_site_label_2
_geom_bond_distance
_geom_bond_site_symmetry_2
Bi0 Ca0 3.514676 1_444
Bi0 Bi1 3.514689 1_455
Bi0 Bi2 3.514689 1_455
Bi0 Bi2 3.514689 1_556
Bi0 Bi1 3.514689 1_565
Bi0 Ca0 3.514701 1_455
Bi0 Bi2 3.516772 1_555
Bi0 Bi1 3.516772 1_555
Bi0 Ca0 3.516864 1_445
Bi0 Ca0 3.516864 1_454
Bi0 Bi2 3.516956 1_456
Bi0 Bi1 3.516956 1_465
Bi1 Ca0 3.514676 1_444
Bi1 Bi2 3.514689 1_545
Bi1 Bi2 3.514689 1_556
Bi1 Ca0 3.514701 1_545
Bi1 Bi2 3.516772 1_555
Bi1 Ca0 3.516864 1_445
Bi1 Ca0 3.516864 1_544
Bi1 Bi2 3.516956 1_546
Bi2 Ca0 3.514676 1_444
Bi2 Ca0 3.514701 1_554
Bi2 Ca0 3.516864 1_454
Bi2 Ca0 3.516864 1_544
