# generated using pymatgen
data_B12H21C4S2I
_symmetry_space_group_name_H-M   'P 1'
_cell_length_a   14.10153000
_cell_length_b   9.83246200
_cell_length_c   13.71484383
_cell_angle_alpha   66.25672265
_cell_angle_beta   90.00000000
_cell_angle_gamma   90.00000000
_symmetry_Int_Tables_number   1
_chemical_formula_structural   B12H21C4S2I
_chemical_formula_sum   'B48 H84 C16 S8 I4'
_cell_volume   1740.64699957
_cell_formula_units_Z   4
loop_
 _symmetry_equiv_pos_site_id
 _symmetry_equiv_pos_as_xyz
  1  'x, y, z'
loop_
 _atom_site_type_symbol
 _atom_site_label
 _atom_site_symmetry_multiplicity
 _atom_site_fract_x
 _atom_site_fract_y
 _atom_site_fract_z
 _atom_site_occupancy
  B  B0  1  0.81134900  0.31401500  0.73226900  1
  B  B1  1  0.11820300  0.64732200  0.38479200  1
  B  B2  1  0.06977200  0.74900200  0.25673300  1
  B  B3  1  0.23738500  0.70895200  0.37911500  1
  B  B4  1  0.15697800  0.86653800  0.17134900  1
  B  B5  1  0.26261900  0.84171600  0.24827400  1
  B  B6  1  0.04357000  0.80439800  0.36107000  1
  B  B7  1  0.14900900  0.78023800  0.43803700  1
  B  B8  1  0.06717100  0.94046000  0.22876600  1
  B  B9  1  0.23872000  0.90043200  0.35294700  1
  B  B10  1  0.31134900  0.68598500  0.76773100  1
  B  B11  1  0.18813400  0.99861200  0.22399100  1
  B  B12  1  0.61891100  0.04256000  0.15988600  1
  B  B13  1  0.38179700  0.64732200  0.88479200  1
  B  B14  1  0.11891100  0.95744000  0.34011400  1
  B  B15  1  0.68813400  0.00138800  0.27600900  1
  B  B16  1  0.43022800  0.74900200  0.75673300  1
  B  B17  1  0.73872000  0.09956800  0.14705300  1
  B  B18  1  0.26261500  0.70895200  0.87911500  1
  B  B19  1  0.56717100  0.05954000  0.27123400  1
  B  B20  1  0.34302200  0.86653800  0.67134900  1
  B  B21  1  0.64900900  0.21976200  0.06196300  1
  B  B22  1  0.23738100  0.84171600  0.74827400  1
  B  B23  1  0.54357000  0.19560200  0.13893000  1
  B  B24  1  0.45643000  0.80439800  0.86107000  1
  B  B25  1  0.76261900  0.15828400  0.25172600  1
  B  B26  1  0.35099100  0.78023800  0.93803700  1
  B  B27  1  0.65697800  0.13346200  0.32865100  1
  B  B28  1  0.43282900  0.94046000  0.72876600  1
  B  B29  1  0.73738500  0.29104800  0.12088500  1
  B  B30  1  0.26128000  0.90043200  0.85294700  1
  B  B31  1  0.56977200  0.25099800  0.24326700  1
  B  B32  1  0.31186600  0.99861200  0.72399100  1
  B  B33  1  0.88108900  0.04256000  0.65988600  1
  B  B34  1  0.61820300  0.35267800  0.11520800  1
  B  B35  1  0.38108900  0.95744000  0.84011400  1
  B  B36  1  0.81186600  0.00138800  0.77600900  1
  B  B37  1  0.68865100  0.31401500  0.23226900  1
  B  B38  1  0.76128000  0.09956800  0.64705300  1
  B  B39  1  0.93282900  0.05954000  0.77123400  1
  B  B40  1  0.85099100  0.21976200  0.56196300  1
  B  B41  1  0.95643000  0.19560200  0.63893000  1
  B  B42  1  0.73738100  0.15828400  0.75172600  1
  B  B43  1  0.84302200  0.13346200  0.82865100  1
  B  B44  1  0.76261500  0.29104800  0.62088500  1
  B  B45  1  0.93022800  0.25099800  0.74326700  1
  B  B46  1  0.88179700  0.35267800  0.61520800  1
  B  B47  1  0.18865100  0.68598500  0.26773100  1
  H  H0  1  0.84280800  0.10450700  0.92212100  1
  H  H1  1  0.07149500  0.10084300  0.91966600  1
  H  H2  1  0.26760000  0.16910400  0.90197300  1
  H  H3  1  0.36895000  0.29180100  0.72108400  1
  H  H4  1  0.99379000  0.18865900  0.98181000  1
  H  H5  1  0.11464000  0.24659600  0.95769200  1
  H  H6  1  0.35031800  0.24689100  0.96665800  1
  H  H7  1  0.90699100  0.47640300  0.55986800  1
  H  H8  1  0.64676900  0.24666000  0.96879700  1
  H  H9  1  0.11590800  0.44408400  0.64320900  1
  H  H10  1  0.45073100  0.36496500  0.78903500  1
  H  H11  1  0.18489400  0.39758000  0.76139400  1
  H  H12  1  0.78873700  0.41154500  0.75860500  1
  H  H13  1  0.50520100  0.73820500  0.28277800  1
  H  H14  1  0.85588300  0.74795800  0.27850200  1
  H  H15  1  0.34050900  0.85271100  0.21082800  1
  H  H16  1  0.28873700  0.58845500  0.74139500  1
  H  H17  1  0.96691900  0.79408600  0.40056200  1
  H  H18  1  0.68489400  0.60242000  0.73860600  1
  H  H19  1  0.95073100  0.63503500  0.71096500  1
  H  H20  1  0.61590800  0.55591600  0.85679100  1
  H  H21  1  0.14676900  0.75334000  0.53120300  1
  H  H22  1  0.40699100  0.52359700  0.94013200  1
  H  H23  1  0.85031800  0.75310900  0.53334200  1
  H  H24  1  0.61464000  0.75340400  0.54230800  1
  H  H25  1  0.71139600  0.87684200  0.33201200  1
  H  H26  1  0.31939900  0.05357500  0.02792000  1
  H  H27  1  0.49379000  0.81134100  0.51819000  1
  H  H28  1  0.79801000  0.04580800  0.11120000  1
  H  H29  1  0.00599000  0.02175200  0.17664800  1
  H  H30  1  0.86895000  0.70819900  0.77891600  1
  H  H31  1  0.50599000  0.97824800  0.32335200  1
  H  H32  1  0.76760000  0.83089600  0.59802700  1
  H  H33  1  0.29801000  0.95419200  0.38880000  1
  H  H34  1  0.99479900  0.73820500  0.78277800  1
  H  H35  1  0.64411700  0.74795800  0.77850200  1
  H  H36  1  0.81939900  0.94642500  0.47208000  1
  H  H37  1  0.21139600  0.12315800  0.16798800  1
  H  H38  1  0.57149500  0.89915700  0.58033400  1
  H  H39  1  0.34280800  0.89549300  0.57787900  1
  H  H40  1  0.15949100  0.85271100  0.71082800  1
  H  H41  1  0.46691900  0.20591400  0.09943800  1
  H  H42  1  0.53308100  0.79408600  0.90056200  1
  H  H43  1  0.84050900  0.14728900  0.28917200  1
  H  H44  1  0.65719200  0.10450700  0.42212100  1
  H  H45  1  0.42850500  0.10084300  0.41966600  1
  H  H46  1  0.78860400  0.87684200  0.83201200  1
  H  H47  1  0.18060100  0.05357500  0.52792000  1
  H  H48  1  0.35588300  0.25204200  0.22149800  1
  H  H49  1  0.00520100  0.26179500  0.21722200  1
  H  H50  1  0.70199000  0.04580800  0.61120000  1
  H  H51  1  0.23240000  0.16910400  0.40197300  1
  H  H52  1  0.49401000  0.02175200  0.67664800  1
  H  H53  1  0.13105000  0.29180100  0.22108400  1
  H  H54  1  0.99401000  0.97824800  0.82335200  1
  H  H55  1  0.20199000  0.95419200  0.88880000  1
  H  H56  1  0.50621000  0.18865900  0.48181000  1
  H  H57  1  0.68060100  0.94642500  0.97208000  1
  H  H58  1  0.28860400  0.12315800  0.66798800  1
  H  H59  1  0.38536000  0.24659600  0.45769200  1
  H  H60  1  0.14968200  0.24689100  0.46665800  1
  H  H61  1  0.59300900  0.47640300  0.05986800  1
  H  H62  1  0.85323100  0.24666000  0.46879700  1
  H  H63  1  0.38409200  0.44408400  0.14320900  1
  H  H64  1  0.04926900  0.36496500  0.28903500  1
  H  H65  1  0.31510600  0.39758000  0.26139400  1
  H  H66  1  0.03308100  0.20591400  0.59943800  1
  H  H67  1  0.71126300  0.41154500  0.25860500  1
  H  H68  1  0.65949100  0.14728900  0.78917200  1
  H  H69  1  0.14411700  0.25204200  0.72149800  1
  H  H70  1  0.49479900  0.26179500  0.71722200  1
  H  H71  1  0.21126300  0.58845500  0.24139500  1
  H  H72  1  0.81510600  0.60242000  0.23860600  1
  H  H73  1  0.54926900  0.63503500  0.21096500  1
  H  H74  1  0.88409200  0.55591600  0.35679100  1
  H  H75  1  0.35323100  0.75334000  0.03120300  1
  H  H76  1  0.09300900  0.52359700  0.44013200  1
  H  H77  1  0.64968200  0.75310900  0.03334200  1
  H  H78  1  0.88536000  0.75340400  0.04230800  1
  H  H79  1  0.00621000  0.81134100  0.01819000  1
  H  H80  1  0.63105000  0.70819900  0.27891600  1
  H  H81  1  0.73240000  0.83089600  0.09802700  1
  H  H82  1  0.92850500  0.89915700  0.08033400  1
  H  H83  1  0.15719200  0.89549300  0.07787900  1
  C  C0  1  0.33101700  0.14880100  0.95208300  1
  C  C1  1  0.43584900  0.27321300  0.76545400  1
  C  C2  1  0.05413600  0.20410200  0.92801400  1
  C  C3  1  0.12786100  0.35947700  0.72393000  1
  C  C4  1  0.62786100  0.64052300  0.77607000  1
  C  C5  1  0.55413600  0.79589800  0.57198600  1
  C  C6  1  0.93584900  0.72678700  0.73454600  1
  C  C7  1  0.83101700  0.85119900  0.54791700  1
  C  C8  1  0.16898300  0.14880100  0.45208300  1
  C  C9  1  0.06415100  0.27321300  0.26545400  1
  C  C10  1  0.44586400  0.20410200  0.42801400  1
  C  C11  1  0.37213900  0.35947700  0.22393000  1
  C  C12  1  0.87213900  0.64052300  0.27607000  1
  C  C13  1  0.94586400  0.79589800  0.07198600  1
  C  C14  1  0.56415100  0.72678700  0.23454600  1
  C  C15  1  0.66898300  0.85119900  0.04791700  1
  S  S0  1  0.02100100  0.34464700  0.80005400  1
  S  S1  1  0.57112700  0.89473700  0.11504800  1
  S  S2  1  0.52100100  0.65535300  0.69994600  1
  S  S3  1  0.92887300  0.89473700  0.61504800  1
  S  S4  1  0.07112700  0.10526300  0.38495200  1
  S  S5  1  0.47899900  0.34464700  0.30005400  1
  S  S6  1  0.42887300  0.10526300  0.88495200  1
  S  S7  1  0.97899900  0.65535300  0.19994600  1
  I  I0  1  0.34965200  0.55760900  0.47732600  1
  I  I1  1  0.15034800  0.55760900  0.97732600  1
  I  I2  1  0.84965200  0.44239100  0.02267400  1
  I  I3  1  0.65034800  0.44239100  0.52267400  1
loop_
_geom_bond_atom_site_label_1
_geom_bond_atom_site_label_2
_geom_bond_distance
_geom_bond_site_symmetry_2
B0 H12 1.196104 1_555
B0 B44 1.770501 1_555
B0 B45 1.772469 1_555
B1 H76 1.199445 1_555
B1 B2 1.771042 1_555
B1 B3 1.777598 1_555
B2 B6 1.763096 1_555
B2 B8 1.763754 1_555
B2 B4 1.768992 1_555
B2 B47 1.772469 1_555
B2 S7 1.915839 1_455
B3 B9 1.769088 1_555
B3 B47 1.770501 1_555
B3 B7 1.775823 1_555
B3 B5 1.778884 1_555
B3 I0 2.218308 1_555
B4 H83 1.196036 1_555
B5 H15 1.198808 1_555
B6 H17 1.194886 1_455
B7 H21 1.196444 1_555
B8 H29 1.197520 1_565
B9 H33 1.195631 1_555
B10 H16 1.196104 1_555
B10 B18 1.770501 1_555
B10 B16 1.772469 1_555
B11 H37 1.199893 1_565
B11 B14 1.770303 1_555
B12 B19 1.760006 1_555
B12 B17 1.766381 1_555
B12 B23 1.768456 1_555
B12 B15 1.770303 1_555
B12 B21 1.770648 1_555
B12 S1 1.914294 1_545
B13 H22 1.199445 1_555
B13 B16 1.771042 1_555
B13 B18 1.777598 1_555
B14 B8 1.760006 1_555
B14 B9 1.766381 1_555
B14 B6 1.768456 1_555
B14 B7 1.770648 1_555
B14 S4 1.914294 1_565
B15 H25 1.199893 1_545
B16 B24 1.763096 1_555
B16 B28 1.763754 1_555
B16 B20 1.768992 1_555
B16 S2 1.915839 1_555
B17 H28 1.195631 1_555
B17 B29 1.769088 1_555
B18 B30 1.769088 1_555
B18 B26 1.775823 1_555
B18 B22 1.778884 1_555
B18 I1 2.218308 1_555
B19 H31 1.197520 1_545
B19 B31 1.763754 1_555
B20 H39 1.196036 1_555
B21 H8 1.196444 1_554
B21 B29 1.775823 1_555
B22 H40 1.198808 1_555
B23 H41 1.194886 1_555
B23 B31 1.763096 1_555
B24 H42 1.194886 1_555
B24 B35 1.768456 1_555
B25 H43 1.198808 1_555
B25 B29 1.778884 1_555
B26 H75 1.196444 1_556
B26 B35 1.770648 1_555
B27 H44 1.196036 1_555
B27 B31 1.768992 1_555
B28 H52 1.197520 1_565
B28 B35 1.760006 1_555
B29 B37 1.770501 1_555
B29 B34 1.777598 1_555
B29 I2 2.218308 1_555
B30 H55 1.195631 1_555
B30 B35 1.766381 1_555
B31 B34 1.771042 1_555
B31 B37 1.772469 1_555
B31 S5 1.915839 1_555
B32 H58 1.199893 1_565
B32 B35 1.770303 1_555
B33 B39 1.760006 1_555
B33 B38 1.766381 1_555
B33 B41 1.768456 1_555
B33 B36 1.770303 1_555
B33 B40 1.770648 1_555
B33 S3 1.914294 1_545
B34 H61 1.199445 1_555
B35 S6 1.914294 1_565
B36 H46 1.199893 1_545
B37 H67 1.196104 1_555
B38 H50 1.195631 1_555
B38 B44 1.769088 1_555
B39 H54 1.197520 1_545
B39 B45 1.763754 1_555
B40 H62 1.196444 1_555
B40 B44 1.775823 1_555
B41 H66 1.194886 1_655
B41 B45 1.763096 1_555
B42 H68 1.198808 1_555
B42 B44 1.778884 1_555
B43 H0 1.196036 1_555
B43 B45 1.768992 1_555
B44 B46 1.777598 1_555
B44 I3 2.218308 1_555
B45 B46 1.771042 1_555
B45 S0 1.915839 1_655
B46 H7 1.199445 1_555
B47 H71 1.196104 1_555
C0 H6 1.095208 1_555
C0 H26 1.095941 1_556
C0 H2 1.096091 1_555
C0 S6 1.803468 1_555
C1 H10 1.094284 1_555
C1 H70 1.095909 1_555
C1 H3 1.097320 1_555
C1 S6 1.800900 1_555
C2 H1 1.094281 1_555
C2 H4 1.096060 1_455
C2 H5 1.097791 1_555
C2 S0 1.804134 1_555
C3 H69 1.094491 1_555
C3 H9 1.097469 1_555
C3 H11 1.098272 1_555
C3 S0 1.805376 1_555
C4 H35 1.094491 1_555
C4 H20 1.097469 1_555
C4 H18 1.098272 1_555
C4 S2 1.805376 1_555
C5 H38 1.094281 1_555
C5 H27 1.096060 1_555
C5 H24 1.097791 1_555
C5 S2 1.804134 1_555
C6 H19 1.094284 1_555
C6 H34 1.095909 1_555
C6 H30 1.097320 1_555
C6 S3 1.800900 1_555
C7 H23 1.095208 1_555
C7 H36 1.095941 1_555
C7 H32 1.096091 1_555
C7 S3 1.803468 1_555
C8 H60 1.095208 1_555
C8 H47 1.095941 1_555
C8 H51 1.096091 1_555
C8 S4 1.803468 1_555
C9 H64 1.094284 1_555
C9 H49 1.095909 1_555
C9 H53 1.097320 1_555
C9 S4 1.800900 1_555
C10 H45 1.094281 1_555
C10 H56 1.096060 1_555
C10 H59 1.097791 1_555
C10 S5 1.804134 1_555
C11 H48 1.094491 1_555
C11 H63 1.097469 1_555
C11 H65 1.098272 1_555
C11 S5 1.805376 1_555
C12 H14 1.094491 1_555
C12 H74 1.097469 1_555
C12 H72 1.098272 1_555
C12 S7 1.805376 1_555
C13 H82 1.094281 1_555
C13 H79 1.096060 1_655
C13 H78 1.097791 1_555
C13 S7 1.804134 1_555
C14 H73 1.094284 1_555
C14 H13 1.095909 1_555
C14 H80 1.097320 1_555
C14 S1 1.800900 1_555
C15 H77 1.095208 1_555
C15 H57 1.095941 1_554
C15 H81 1.096091 1_555
C15 S1 1.803468 1_555
