# generated using pymatgen
data_Ca10V6O25
_symmetry_space_group_name_H-M   'P 1'
_cell_length_a   10.02518038
_cell_length_b   10.02518038
_cell_length_c   6.80407200
_cell_angle_alpha   90.00000000
_cell_angle_beta   90.00000000
_cell_angle_gamma   120.00000253
_symmetry_Int_Tables_number   1
_chemical_formula_structural   Ca10V6O25
_chemical_formula_sum   'Ca10 V6 O25'
_cell_volume   592.22114893
_cell_formula_units_Z   1
loop_
 _symmetry_equiv_pos_site_id
 _symmetry_equiv_pos_as_xyz
  1  'x, y, z'
loop_
 _atom_site_type_symbol
 _atom_site_label
 _atom_site_symmetry_multiplicity
 _atom_site_fract_x
 _atom_site_fract_y
 _atom_site_fract_z
 _atom_site_occupancy
  Ca  Ca0  1  0.77294200  0.75464700  0.27215500  1
  Ca  Ca1  1  0.22705800  0.24535300  0.72784500  1
  Ca  Ca2  1  0.24535300  0.01829500  0.27215500  1
  Ca  Ca3  1  0.75464700  0.98170500  0.72784500  1
  Ca  Ca4  1  0.98170500  0.22705800  0.27215500  1
  Ca  Ca5  1  0.01829500  0.77294200  0.72784500  1
  Ca  Ca6  1  0.33333300  0.66666700  0.01345300  1
  Ca  Ca7  1  0.66666700  0.33333300  0.98654700  1
  Ca  Ca8  1  0.33333300  0.66666700  0.50817300  1
  Ca  Ca9  1  0.66666700  0.33333300  0.49182700  1
  V  V0  1  0.02655100  0.40202900  0.75885200  1
  V  V1  1  0.97344900  0.59797100  0.24114800  1
  V  V2  1  0.59797100  0.62452200  0.75885200  1
  V  V3  1  0.40202900  0.37547800  0.24114800  1
  V  V4  1  0.37547800  0.97344900  0.75885200  1
  V  V5  1  0.62452200  0.02655100  0.24114800  1
  O  O0  1  0.75965600  0.07384000  0.05473800  1
  O  O1  1  0.24034400  0.92616000  0.94526200  1
  O  O2  1  0.92616000  0.68581600  0.05473800  1
  O  O3  1  0.07384000  0.31418400  0.94526200  1
  O  O4  1  0.31418400  0.24034400  0.05473800  1
  O  O5  1  0.68581600  0.75965600  0.94526200  1
  O  O6  1  0.52806600  0.13320600  0.22459500  1
  O  O7  1  0.47193400  0.86679400  0.77540500  1
  O  O8  1  0.86679400  0.39486000  0.22459500  1
  O  O9  1  0.13320600  0.60514000  0.77540500  1
  O  O10  1  0.60514000  0.47193400  0.22459500  1
  O  O11  1  0.39486000  0.52806600  0.77540500  1
  O  O12  1  0.90206800  0.64237100  0.44738100  1
  O  O13  1  0.09793200  0.35762900  0.55261900  1
  O  O14  1  0.35762900  0.25969700  0.44738100  1
  O  O15  1  0.64237100  0.74030300  0.55261900  1
  O  O16  1  0.74030300  0.09793200  0.44738100  1
  O  O17  1  0.25969700  0.90206800  0.55261900  1
  O  O18  1  0.16824300  0.66863500  0.25629600  1
  O  O19  1  0.83175700  0.33136500  0.74370400  1
  O  O20  1  0.33136500  0.49960800  0.25629600  1
  O  O21  1  0.66863500  0.50039200  0.74370400  1
  O  O22  1  0.50039200  0.83175700  0.25629600  1
  O  O23  1  0.49960800  0.16824300  0.74370400  1
  O  O24  1  0.00000000  0.00000000  0.50000000  1
loop_
_geom_bond_atom_site_label_1
_geom_bond_atom_site_label_2
_geom_bond_distance
_geom_bond_site_symmetry_2
Ca0 O15 2.277612 1_555
Ca0 O5 2.399247 1_554
Ca0 O12 2.412727 1_555
Ca0 O2 2.466555 1_555
Ca0 O10 2.489926 1_555
Ca0 O24 2.834787 1_665
Ca1 O14 2.277612 1_555
Ca1 O4 2.399247 1_556
Ca1 O13 2.412727 1_555
Ca1 O3 2.466555 1_555
Ca1 O11 2.489926 1_555
Ca1 O24 2.834787 1_555
Ca2 O17 2.277612 1_545
Ca2 O1 2.399247 1_544
Ca2 O14 2.412727 1_555
Ca2 O4 2.466555 1_555
Ca2 O6 2.489926 1_555
Ca2 O24 2.834787 1_555
Ca3 O16 2.277612 1_565
Ca3 O0 2.399247 1_566
Ca3 O15 2.412727 1_555
Ca3 O5 2.466555 1_555
Ca3 O7 2.489926 1_555
Ca3 O24 2.834787 1_665
Ca4 O13 2.277612 1_655
Ca4 O3 2.399247 1_654
Ca4 O16 2.412727 1_555
Ca4 O0 2.466555 1_555
Ca4 O8 2.489926 1_555
Ca4 O24 2.834787 1_655
Ca5 O12 2.277612 1_455
Ca5 O2 2.399247 1_456
Ca5 O17 2.412727 1_555
Ca5 O1 2.466555 1_555
Ca5 O9 2.489926 1_555
Ca5 O24 2.834787 1_565
Ca6 O18 2.345724 1_555
Ca6 O22 2.345728 1_555
Ca6 O20 2.345731 1_555
Ca6 O9 2.406580 1_554
Ca6 O7 2.406581 1_554
Ca6 O11 2.406587 1_554
Ca7 O19 2.345724 1_555
Ca7 O23 2.345728 1_555
Ca7 O21 2.345731 1_555
Ca7 O8 2.406580 1_556
Ca7 O6 2.406581 1_556
Ca7 O10 2.406587 1_556
Ca8 O18 2.389420 1_555
Ca8 O22 2.389424 1_555
Ca8 O20 2.389427 1_555
Ca8 O9 2.544465 1_555
Ca8 O7 2.544467 1_555
Ca8 O11 2.544472 1_555
Ca8 O17 2.819195 1_555
Ca8 O13 2.819201 1_555
Ca8 O15 2.819204 1_555
Ca9 O19 2.389420 1_555
Ca9 O23 2.389424 1_555
Ca9 O21 2.389427 1_555
Ca9 O8 2.544465 1_555
Ca9 O6 2.544467 1_555
Ca9 O10 2.544472 1_555
Ca9 O16 2.819195 1_555
Ca9 O12 2.819201 1_555
Ca9 O14 2.819204 1_555
O0 V5 1.739692 1_555
O1 V4 1.739692 1_555
O2 V1 1.739692 1_555
O3 V0 1.739692 1_555
O4 V3 1.739692 1_555
O5 V2 1.739692 1_555
O6 V5 1.767755 1_555
O7 V4 1.767755 1_555
O8 V1 1.767754 1_555
O9 V0 1.767754 1_555
O10 V3 1.767754 1_555
O11 V2 1.767754 1_555
O12 V1 1.731413 1_555
O13 V0 1.731413 1_555
O14 V3 1.731413 1_555
O15 V2 1.731413 1_555
O16 V5 1.731413 1_555
O17 V4 1.731413 1_555
O18 V1 1.715416 1_455
O19 V0 1.715416 1_655
O20 V3 1.715416 1_555
O21 V2 1.715416 1_555
O22 V5 1.715416 1_565
O23 V4 1.715416 1_545
