# generated using pymatgen
data_Bi24Br10O31
_symmetry_space_group_name_H-M   'P 1'
_cell_length_a   10.57780400
_cell_length_b   15.50291879
_cell_length_c   8.06187459
_cell_angle_alpha   97.59866403
_cell_angle_beta   90.27949117
_cell_angle_gamma   90.28126305
_symmetry_Int_Tables_number   1
_chemical_formula_structural   Bi24Br10O31
_chemical_formula_sum   'Bi24 Br10 O31'
_cell_volume   1310.39580541
_cell_formula_units_Z   1
loop_
 _symmetry_equiv_pos_site_id
 _symmetry_equiv_pos_as_xyz
  1  'x, y, z'
loop_
 _atom_site_type_symbol
 _atom_site_label
 _atom_site_symmetry_multiplicity
 _atom_site_fract_x
 _atom_site_fract_y
 _atom_site_fract_z
 _atom_site_occupancy
  Bi  Bi0  1  0.69592300  0.67849100  0.08269100  1
  Bi  Bi1  1  0.69141900  0.14693100  0.05856700  1
  Bi  Bi2  1  0.09500700  0.46355600  0.06754000  1
  Bi  Bi3  1  0.08793400  0.98369100  0.07427200  1
  Bi  Bi4  1  0.93134300  0.72482600  0.25026500  1
  Bi  Bi5  1  0.93012800  0.22443700  0.20718400  1
  Bi  Bi6  1  0.35220200  0.61023300  0.25147700  1
  Bi  Bi7  1  0.35277300  0.11167200  0.25427500  1
  Bi  Bi8  1  0.17178900  0.80136700  0.38684400  1
  Bi  Bi9  1  0.17273800  0.29972500  0.39008300  1
  Bi  Bi10  1  0.59164000  0.15053000  0.43530700  1
  Bi  Bi11  1  0.59391900  0.65219200  0.44896800  1
  Bi  Bi12  1  0.40768200  0.85695000  0.54936700  1
  Bi  Bi13  1  0.40879800  0.35688100  0.54996800  1
  Bi  Bi14  1  0.82452100  0.71001600  0.61161000  1
  Bi  Bi15  1  0.83039000  0.21336500  0.60214800  1
  Bi  Bi16  1  0.65248700  0.94573100  0.74776000  1
  Bi  Bi17  1  0.65412300  0.41445700  0.75097800  1
  Bi  Bi18  1  0.06461000  0.76493000  0.79109100  1
  Bi  Bi19  1  0.06660300  0.27688400  0.75227800  1
  Bi  Bi20  1  0.89834900  0.99915800  0.89825400  1
  Bi  Bi21  1  0.88524400  0.51716400  0.94302500  1
  Bi  Bi22  1  0.31208500  0.81265600  0.91085900  1
  Bi  Bi23  1  0.30598700  0.31971300  0.91072100  1
  Br  Br0  1  0.53050100  0.88123000  0.20613500  1
  Br  Br1  1  0.53101800  0.38036100  0.19917800  1
  Br  Br2  1  0.75617900  0.43886600  0.35715300  1
  Br  Br3  1  0.75789700  0.93986800  0.34323600  1
  Br  Br4  1  0.00263300  0.00302500  0.49964500  1
  Br  Br5  1  0.99833600  0.50611200  0.50915200  1
  Br  Br6  1  0.24531300  0.06890600  0.65199200  1
  Br  Br7  1  0.24584100  0.57024900  0.65734700  1
  Br  Br8  1  0.46720700  0.59864500  0.83673500  1
  Br  Br9  1  0.45469800  0.09999300  0.84472900  1
  O  O0  1  0.00747400  0.76671000  0.97718400  1
  O  O1  1  0.00120200  0.23340000  0.02898500  1
  O  O2  1  0.83373200  0.68901800  0.08926500  1
  O  O3  1  0.82619900  0.23125700  0.05284500  1
  O  O4  1  0.95224600  0.96437900  0.15420500  1
  O  O5  1  0.96022200  0.50338600  0.14094100  1
  O  O6  1  0.31947400  0.80654100  0.10646600  1
  O  O7  1  0.31061900  0.31822000  0.10664300  1
  O  O8  1  0.08143300  0.77834800  0.23040700  1
  O  O9  1  0.08572600  0.27785900  0.23519300  1
  O  O10  1  0.21392200  0.56003300  0.30565700  1
  O  O11  1  0.21345200  0.05786300  0.30279400  1
  O  O12  1  0.32918400  0.83609300  0.37277700  1
  O  O13  1  0.32880800  0.33318200  0.37431100  1
  O  O14  1  0.44329700  0.61517200  0.46447100  1
  O  O15  1  0.44138400  0.11424900  0.45857700  1
  O  O16  1  0.55345100  0.38906700  0.52807400  1
  O  O17  1  0.55333300  0.89489800  0.53399400  1
  O  O18  1  0.67687700  0.68032900  0.62958400  1
  O  O19  1  0.67534000  0.16386100  0.61190900  1
  O  O20  1  0.79181700  0.96151900  0.70610300  1
  O  O21  1  0.79090400  0.44560900  0.68882400  1
  O  O22  1  0.91753300  0.22258800  0.76566800  1
  O  O23  1  0.90274500  0.73990600  0.78287700  1
  O  O24  1  0.71751900  0.53887600  0.91951100  1
  O  O25  1  0.68064700  0.18779800  0.86129600  1
  O  O26  1  0.03976300  0.03151200  0.84205300  1
  O  O27  1  0.03733800  0.49408900  0.86144000  1
  O  O28  1  0.17923000  0.83238200  0.92540000  1
  O  O29  1  0.16974100  0.30629800  0.91571200  1
  O  O30  1  0.70643800  0.90583200  0.97449800  1
loop_
_geom_bond_atom_site_label_1
_geom_bond_atom_site_label_2
_geom_bond_distance
_geom_bond_site_symmetry_2
Bi0 O2 1.465948 1_555
Bi0 O24 2.392147 1_554
Bi0 Br8 3.254499 1_554
Bi1 O25 1.791392 1_554
Bi1 O3 1.934426 1_555
Bi1 Br9 3.062622 1_554
Bi2 O5 1.638412 1_455
Bi2 O27 1.886234 1_554
Bi2 O10 2.589019 1_555
Bi2 O29 2.702952 1_554
Bi3 O4 1.618876 1_455
Bi3 O26 2.162303 1_564
Bi3 O11 2.424881 1_565
Bi3 O28 2.676657 1_554
Bi4 O2 1.688102 1_555
Bi4 O8 1.805362 1_655
Bi5 O1 1.646420 1_655
Bi5 O3 1.670480 1_555
Bi5 O9 1.838306 1_655
Bi6 O10 1.738074 1_555
Bi6 O14 1.957360 1_555
Bi7 O11 1.760840 1_555
Bi7 O15 1.886826 1_555
Bi7 Br9 3.460491 1_554
Bi8 O8 1.580276 1_555
Bi8 O12 1.756060 1_555
Bi9 O9 1.547604 1_555
Bi9 O13 1.738298 1_555
Bi10 O19 1.661840 1_555
Bi10 O15 1.702856 1_555
Bi11 O14 1.701583 1_555
Bi11 O18 1.701864 1_555
Bi12 O12 1.638557 1_555
Bi12 O17 1.657518 1_555
Bi13 O16 1.624747 1_555
Bi13 O13 1.644375 1_555
Bi14 O23 1.619161 1_555
Bi14 O18 1.638494 1_555
Bi15 O22 1.595300 1_555
Bi15 O19 1.813821 1_555
Bi16 O20 1.538772 1_555
Bi16 O17 2.075118 1_555
Bi16 O30 2.083732 1_555
Bi16 Br9 3.205978 1_565
Bi17 O21 1.625387 1_555
Bi17 O16 2.075660 1_555
Bi17 O24 2.302508 1_555
Bi18 O0 1.617054 1_555
Bi18 O23 1.752716 1_455
Bi18 O28 1.846941 1_555
Bi19 O29 1.719414 1_555
Bi19 O22 1.794228 1_455
Bi20 O26 1.659453 1_665
Bi20 O20 1.935845 1_555
Bi20 O4 2.271413 1_556
Bi20 O30 2.609702 1_555
Bi21 O27 1.761428 1_655
Bi21 O5 1.816575 1_556
Bi21 O24 1.821083 1_555
Bi22 O28 1.441706 1_555
Bi22 O6 1.593833 1_556
Bi23 O29 1.456612 1_555
Bi23 O7 1.583249 1_556
Br6 Br9 2.703704 1_555
Br7 Br8 2.748945 1_555
