# generated using pymatgen
data_CeAg3
_symmetry_space_group_name_H-M   'P 1'
_cell_length_a   6.59352273
_cell_length_b   6.60081972
_cell_length_c   4.81073629
_cell_angle_alpha   90.00000000
_cell_angle_beta   90.00000000
_cell_angle_gamma   120.01600446
_symmetry_Int_Tables_number   1
_chemical_formula_structural   CeAg3
_chemical_formula_sum   'Ce2 Ag6'
_cell_volume   181.29569833
_cell_formula_units_Z   2
loop_
 _symmetry_equiv_pos_site_id
 _symmetry_equiv_pos_as_xyz
  1  'x, y, z'
loop_
 _atom_site_type_symbol
 _atom_site_label
 _atom_site_symmetry_multiplicity
 _atom_site_fract_x
 _atom_site_fract_y
 _atom_site_fract_z
 _atom_site_occupancy
  Ce  Ce0  1  0.33347989  0.66675170  0.75000100  1
  Ce  Ce1  1  0.66656051  0.33348019  0.25000100  1
  Ag  Ag0  1  0.14580962  0.29146605  0.25000100  1
  Ag  Ag1  1  0.70801732  0.85421214  0.25000100  1
  Ag  Ag2  1  0.14627602  0.85437263  0.25000100  1
  Ag  Ag3  1  0.85378303  0.70810362  0.75000100  1
  Ag  Ag4  1  0.29197226  0.14603593  0.75000100  1
  Ag  Ag5  1  0.85410035  0.14557274  0.75000100  1
loop_
_geom_bond_atom_site_label_1
_geom_bond_atom_site_label_2
_geom_bond_distance
_geom_bond_site_symmetry_2
Ag0 Ag1 2.885716 1_445
Ag0 Ag2 2.886714 1_545
Ag0 Ag5 2.925659 1_455
Ag0 Ag5 2.925659 1_454
Ag0 Ag4 2.926033 1_554
Ag0 Ag4 2.926033 1_555
Ag0 Ce0 3.222837 1_554
Ag0 Ce0 3.222837 1_555
Ag0 Ce1 3.303591 1_555
Ag0 Ce1 3.307400 1_455
Ag1 Ag2 2.889139 1_655
Ag1 Ag5 2.925573 1_565
Ag1 Ag5 2.925573 1_564
Ag1 Ag3 2.926951 1_554
Ag1 Ag3 2.926951 1_555
Ag1 Ce0 3.218420 1_554
Ag1 Ce0 3.218420 1_555
Ag1 Ce1 3.308778 1_565
Ag1 Ce1 3.308994 1_555
Ag2 Ag4 2.926559 1_564
Ag2 Ag4 2.926559 1_565
Ag2 Ag3 2.928208 1_454
Ag2 Ag3 2.928208 1_455
Ag2 Ce0 3.220643 1_554
Ag2 Ce0 3.220643 1_555
Ag2 Ce1 3.303872 1_565
Ag2 Ce1 3.308471 1_455
Ag3 Ag5 2.886609 1_565
Ag3 Ag4 2.889263 1_665
Ag3 Ce1 3.220320 1_556
Ag3 Ce1 3.220320 1_555
Ag3 Ce0 3.302554 1_555
Ag3 Ce0 3.307891 1_655
Ag4 Ag5 2.885590 1_455
Ag4 Ce1 3.218612 1_556
Ag4 Ce1 3.218612 1_555
Ag4 Ce0 3.308741 1_555
Ag4 Ce0 3.309072 1_545
Ag5 Ce1 3.223009 1_556
Ag5 Ce1 3.223009 1_555
Ag5 Ce0 3.304285 1_545
Ag5 Ce0 3.308567 1_655
