# generated using pymatgen
data_VPO4F
_symmetry_space_group_name_H-M   'P 1'
_cell_length_a   5.21507700
_cell_length_b   5.20901234
_cell_length_c   7.35416071
_cell_angle_alpha   108.74579488
_cell_angle_beta   107.54614632
_cell_angle_gamma   96.01710939
_symmetry_Int_Tables_number   1
_chemical_formula_structural   VPO4F
_chemical_formula_sum   'V2 P2 O8 F2'
_cell_volume   175.82054670
_cell_formula_units_Z   2
loop_
 _symmetry_equiv_pos_site_id
 _symmetry_equiv_pos_as_xyz
  1  'x, y, z'
loop_
 _atom_site_type_symbol
 _atom_site_label
 _atom_site_symmetry_multiplicity
 _atom_site_fract_x
 _atom_site_fract_y
 _atom_site_fract_z
 _atom_site_occupancy
  V  V0  1  0.00000000  0.00000000  0.00000000  1
  V  V1  1  0.50000000  0.50000000  0.50000000  1
  P  P0  1  0.90631900  0.58971400  0.76158900  1
  P  P1  1  0.09368100  0.41028600  0.23841100  1
  O  O0  1  0.01914900  0.58210500  0.11663400  1
  O  O1  1  0.54895600  0.66643900  0.08742200  1
  O  O2  1  0.86185200  0.38573400  0.39943100  1
  O  O3  1  0.93230500  0.98192100  0.34718100  1
  O  O4  1  0.45104400  0.33356100  0.91257800  1
  O  O5  1  0.13814800  0.61426600  0.60056900  1
  O  O6  1  0.06769500  0.01807900  0.65281900  1
  O  O7  1  0.98085100  0.41789500  0.88336600  1
  F  F0  1  0.62241800  0.79099000  0.26454900  1
  F  F1  1  0.37758200  0.20901000  0.73545100  1
loop_
_geom_bond_atom_site_label_1
_geom_bond_atom_site_label_2
_geom_bond_distance
_geom_bond_site_symmetry_2
P0 V0 2.176356 1_666
P0 V1 2.272895 1_555
P1 V0 2.176356 1_555
P1 V1 2.272895 1_555
O0 P1 1.460270 1_555
O0 V0 2.584235 1_565
O2 O5 1.704360 1_655
O2 P1 1.951524 1_655
O2 V1 2.292694 1_555
O3 V0 2.709892 1_665
O5 P0 1.951524 1_455
O5 V1 2.292694 1_555
O6 V0 2.709892 1_556
O7 P0 1.460270 1_555
O7 V0 2.584235 1_656
F0 O1 1.169750 1_555
F0 O3 1.628679 1_555
F0 V1 2.802497 1_555
F1 O4 1.169750 1_555
F1 O6 1.628679 1_555
F1 V1 2.802497 1_555
