# generated using pymatgen
data_AlVO3
_symmetry_space_group_name_H-M   'P 1'
_cell_length_a   5.83721000
_cell_length_b   5.87980687
_cell_length_c   13.21320636
_cell_angle_alpha   102.84629518
_cell_angle_beta   102.68481071
_cell_angle_gamma   90.05662530
_symmetry_Int_Tables_number   1
_chemical_formula_structural   AlVO3
_chemical_formula_sum   'Al8 V8 O24'
_cell_volume   430.76472284
_cell_formula_units_Z   8
loop_
 _symmetry_equiv_pos_site_id
 _symmetry_equiv_pos_as_xyz
  1  'x, y, z'
loop_
 _atom_site_type_symbol
 _atom_site_label
 _atom_site_symmetry_multiplicity
 _atom_site_fract_x
 _atom_site_fract_y
 _atom_site_fract_z
 _atom_site_occupancy
  Al  Al0  1  0.00806300  0.98859900  0.00758800  1
  Al  Al1  1  0.30081100  0.38015600  0.07932000  1
  Al  Al2  1  0.78216100  0.38064300  0.07901800  1
  Al  Al3  1  0.65826500  0.01639200  0.32283800  1
  Al  Al4  1  0.46056000  0.37717900  0.41561600  1
  Al  Al5  1  0.25599700  0.73880200  0.50785800  1
  Al  Al6  1  0.13459200  0.36660700  0.75560300  1
  Al  Al7  1  0.92537700  0.75481400  0.83008300  1
  V  V0  1  0.12672400  0.37983500  0.25073300  1
  V  V1  1  0.12602800  0.86789400  0.25123000  1
  V  V2  1  0.95887700  0.37819000  0.41495900  1
  V  V3  1  0.79416200  0.37141300  0.58145500  1
  V  V4  1  0.79378500  0.88466600  0.58114600  1
  V  V5  1  0.62537500  0.36646200  0.75558400  1
  V  V6  1  0.46129600  0.87215200  0.91851200  1
  V  V7  1  0.46121700  0.37210400  0.91831400  1
  O  O0  1  0.53804800  0.59961600  0.07110700  1
  O  O1  1  0.53757900  0.18518500  0.07093200  1
  O  O2  1  0.04479500  0.60416300  0.08385800  1
  O  O3  1  0.04437800  0.14620600  0.08337600  1
  O  O4  1  0.87258700  0.14130100  0.23832600  1
  O  O5  1  0.36316600  0.14370500  0.23762400  1
  O  O6  1  0.90581300  0.61050100  0.25960300  1
  O  O7  1  0.35689500  0.59396900  0.27195600  1
  O  O8  1  0.21845000  0.61416400  0.42222600  1
  O  O9  1  0.22158800  0.11899400  0.42054900  1
  O  O10  1  0.69904700  0.13981500  0.40914600  1
  O  O11  1  0.69632800  0.63510800  0.41043100  1
  O  O12  1  0.01182900  0.14490300  0.56967600  1
  O  O13  1  0.56182000  0.15969300  0.55993100  1
  O  O14  1  0.55297500  0.61581000  0.58944200  1
  O  O15  1  0.04530300  0.60961500  0.59391900  1
  O  O16  1  0.89217200  0.61447400  0.74982300  1
  O  O17  1  0.89209600  0.13583600  0.74972000  1
  O  O18  1  0.37103800  0.13974100  0.76435100  1
  O  O19  1  0.37137400  0.56722300  0.76432100  1
  O  O20  1  0.20043800  0.12580900  0.91595400  1
  O  O21  1  0.71434900  0.11838100  0.92087500  1
  O  O22  1  0.21027600  0.61732500  0.92169500  1
  O  O23  1  0.72340600  0.62092000  0.91937400  1
loop_
_geom_bond_atom_site_label_1
_geom_bond_atom_site_label_2
_geom_bond_distance
_geom_bond_site_symmetry_2
Al0 O3 1.183318 1_565
Al0 O21 2.088815 1_464
Al0 O20 2.099411 1_564
Al1 O1 1.802916 1_555
Al1 O0 1.928542 1_555
Al1 O2 1.994946 1_555
Al1 O3 2.049294 1_555
Al1 O20 2.290564 1_554
Al2 O1 1.801563 1_555
Al2 O0 1.922795 1_555
Al2 O2 1.999295 1_655
Al2 O3 2.060817 1_655
Al2 O21 2.259122 1_554
Al2 O6 2.418424 1_555
Al3 O10 1.181635 1_555
Al3 O5 2.078674 1_555
Al3 O4 2.080355 1_555
Al4 O10 1.973867 1_555
Al4 O8 1.987590 1_555
Al4 O11 2.069341 1_555
Al4 O9 2.081918 1_555
Al4 O14 2.357187 1_555
Al4 O5 2.390504 1_555
Al5 O8 1.177873 1_555
Al5 O14 2.053915 1_555
Al5 O15 2.092628 1_555
Al6 O19 1.783661 1_555
Al6 O18 1.923480 1_555
Al6 O17 1.936959 1_455
Al6 O16 2.034299 1_455
Al6 O22 2.306287 1_555
Al6 O12 2.459492 1_555
Al7 O16 1.167649 1_555
Al7 O23 2.103272 1_555
Al7 O22 2.106690 1_655
O0 V7 2.113476 1_554
O1 V6 2.366055 1_544
O2 V1 2.352308 1_555
O4 V0 1.995356 1_655
O4 V1 2.194945 1_645
O4 V2 2.382773 1_555
O5 V0 1.965792 1_555
O5 V1 2.193822 1_545
O6 V0 1.874880 1_655
O6 V1 2.021907 1_655
O7 V0 1.772913 1_555
O7 V1 2.126861 1_555
O8 V2 2.025539 1_455
O9 V2 2.164405 1_455
O9 V1 2.340456 1_545
O10 V2 2.041438 1_555
O11 V2 2.153786 1_555
O11 V4 2.351142 1_555
O12 V3 1.846718 1_455
O12 V4 2.041625 1_445
O13 V3 1.771943 1_555
O13 V4 2.136869 1_545
O13 V5 2.545445 1_555
O14 V3 2.014946 1_555
O14 V4 2.151097 1_555
O15 V3 1.981197 1_455
O15 V4 2.194702 1_455
O15 V2 2.396153 1_455
O16 V5 2.157452 1_555
O17 V5 2.068629 1_555
O17 V4 2.333642 1_545
O18 V5 2.033442 1_555
O18 V7 2.138840 1_555
O19 V5 1.903434 1_555
O19 V6 2.354801 1_555
O20 V7 2.090463 1_555
O20 V6 2.132708 1_545
O21 V6 2.057754 1_545
O21 V7 2.101152 1_555
O22 V7 2.056898 1_555
O22 V6 2.108197 1_555
O23 V7 2.111840 1_555
O23 V6 2.127770 1_555
O23 V5 2.294397 1_555
