# generated using pymatgen
data_Li3Mn5Cr2O12
_symmetry_space_group_name_H-M   'P 1'
_cell_length_a   5.23144735
_cell_length_b   5.23144735
_cell_length_c   10.07266109
_cell_angle_alpha   84.67300705
_cell_angle_beta   84.67300705
_cell_angle_gamma   121.69202410
_symmetry_Int_Tables_number   1
_chemical_formula_structural   Li3Mn5Cr2O12
_chemical_formula_sum   'Li3 Mn5 Cr2 O12'
_cell_volume   230.26355632
_cell_formula_units_Z   1
loop_
 _symmetry_equiv_pos_site_id
 _symmetry_equiv_pos_as_xyz
  1  'x, y, z'
loop_
 _atom_site_type_symbol
 _atom_site_label
 _atom_site_symmetry_multiplicity
 _atom_site_fract_x
 _atom_site_fract_y
 _atom_site_fract_z
 _atom_site_occupancy
  Li  Li0  1  0.68323500  0.84620700  0.73368100  1
  Li  Li1  1  0.15379300  0.31676500  0.26631900  1
  Li  Li2  1  0.08180600  0.91819400  0.50000000  1
  Mn  Mn0  1  0.91820600  0.08179400  0.00000000  1
  Mn  Mn1  1  0.58336600  0.41663400  0.00000000  1
  Mn  Mn2  1  0.42347800  0.57652200  0.50000000  1
  Mn  Mn3  1  0.48414000  0.00115900  0.26047700  1
  Mn  Mn4  1  0.99884100  0.51586000  0.73952300  1
  Cr  Cr0  1  0.74405400  0.25594600  0.50000000  1
  Cr  Cr1  1  0.24960600  0.75039400  0.00000000  1
  O  O0  1  0.87961800  0.36253200  0.11432500  1
  O  O1  1  0.94248300  0.76438300  0.89023100  1
  O  O2  1  0.63746800  0.12038200  0.88567500  1
  O  O3  1  0.71195100  0.54954300  0.60694400  1
  O  O4  1  0.45045700  0.28804900  0.39305600  1
  O  O5  1  0.75357400  0.96058400  0.38662800  1
  O  O6  1  0.23561700  0.05751700  0.10976900  1
  O  O7  1  0.54407800  0.73261000  0.10600300  1
  O  O8  1  0.39702100  0.85084200  0.61321000  1
  O  O9  1  0.26739000  0.45592200  0.89399700  1
  O  O10  1  0.03941600  0.24642600  0.61337200  1
  O  O11  1  0.14915800  0.60297900  0.38679000  1
loop_
_geom_bond_atom_site_label_1
_geom_bond_atom_site_label_2
_geom_bond_distance
_geom_bond_site_symmetry_2
Li0 O8 2.021158 1_555
Li0 O10 2.082001 1_665
Li0 O3 2.153626 1_555
Li0 O2 2.271356 1_565
Li0 O1 2.321835 1_555
Li0 O9 2.361686 1_555
Li1 O11 2.021158 1_555
Li1 O5 2.082001 1_445
Li1 O4 2.153626 1_555
Li1 O0 2.271356 1_455
Li1 O6 2.321835 1_555
Li1 O7 2.361686 1_555
Li2 O3 1.982427 1_455
Li2 O4 1.982427 1_565
Li2 O5 2.240302 1_455
Li2 O10 2.240302 1_565
Li2 O11 2.242508 1_555
Li2 O8 2.242508 1_555
Mn0 O9 1.949600 1_654
Mn0 O7 1.949600 1_545
Mn0 O2 2.026375 1_554
Mn0 O0 2.026375 1_555
Mn0 O6 2.128935 1_655
Mn0 O1 2.128935 1_544
Mn1 O1 1.926483 1_554
Mn1 O6 1.926483 1_555
Mn1 O0 2.130707 1_555
Mn1 O2 2.130707 1_554
Mn1 O7 2.135109 1_555
Mn1 O9 2.135109 1_554
Mn2 O11 1.965258 1_555
Mn2 O8 1.965258 1_555
Mn2 O5 1.971115 1_555
Mn2 O10 1.971115 1_555
Mn2 O4 1.988768 1_555
Mn2 O3 1.988768 1_555
Mn3 O5 2.059926 1_545
Mn3 O11 2.070581 1_545
Mn3 O4 2.161780 1_555
Mn3 O6 2.183533 1_555
Mn3 O0 2.197661 1_555
Mn3 O7 2.295920 1_545
Mn4 O10 2.059926 1_655
Mn4 O8 2.070581 1_655
Mn4 O3 2.161780 1_555
Mn4 O1 2.183533 1_555
Mn4 O2 2.197661 1_555
Mn4 O9 2.295920 1_655
Cr0 O5 2.022877 1_545
Cr0 O10 2.022877 1_655
Cr0 O4 2.022954 1_555
Cr0 O3 2.022954 1_555
Cr0 O11 2.052300 1_655
Cr0 O8 2.052300 1_545
Cr1 O9 1.989838 1_554
Cr1 O7 1.989838 1_555
Cr1 O2 2.053141 1_564
Cr1 O0 2.053141 1_455
Cr1 O6 2.060996 1_565
Cr1 O1 2.060996 1_454
