# generated using pymatgen
data_Ta2CrNO5
_symmetry_space_group_name_H-M   'P 1'
_cell_length_a   4.75062800
_cell_length_b   9.50949900
_cell_length_c   9.26020500
_cell_angle_alpha   89.99997558
_cell_angle_beta   89.99999381
_cell_angle_gamma   89.99927667
_symmetry_Int_Tables_number   1
_chemical_formula_structural   Ta2CrNO5
_chemical_formula_sum   'Ta8 Cr4 N4 O20'
_cell_volume   418.33987500
_cell_formula_units_Z   4
loop_
 _symmetry_equiv_pos_site_id
 _symmetry_equiv_pos_as_xyz
  1  'x, y, z'
loop_
 _atom_site_type_symbol
 _atom_site_label
 _atom_site_symmetry_multiplicity
 _atom_site_fract_x
 _atom_site_fract_y
 _atom_site_fract_z
 _atom_site_occupancy
  Ta  Ta0  1  0.99447500  0.00753900  0.33789300  1
  Ta  Ta1  1  0.99447600  0.50752200  0.33787100  1
  Ta  Ta2  1  0.99447400  0.00753900  0.66210900  1
  Ta  Ta3  1  0.99447500  0.50752200  0.66212600  1
  Ta  Ta4  1  0.50552800  0.25751200  0.16210400  1
  Ta  Ta5  1  0.50554700  0.75753400  0.16212800  1
  Ta  Ta6  1  0.50553300  0.25751000  0.83789800  1
  Ta  Ta7  1  0.50554400  0.75753700  0.83787400  1
  Cr  Cr0  1  0.00153100  0.99760500  0.00000700  1
  Cr  Cr1  1  0.49849600  0.74761300  0.50000500  1
  Cr  Cr2  1  0.00146700  0.49772100  0.99999400  1
  Cr  Cr3  1  0.49852100  0.24773600  0.50000400  1
  N  N0  1  0.69811300  0.34611900  0.99999900  1
  N  N1  1  0.69810700  0.84609900  0.99999900  1
  N  N2  1  0.80190300  0.09611700  0.49999900  1
  N  N3  1  0.80190700  0.59609900  0.50000100  1
  O  O0  1  0.19249900  0.40084700  0.49999900  1
  O  O1  1  0.19252100  0.90083200  0.50000000  1
  O  O2  1  0.30749500  0.15084100  0.00000000  1
  O  O3  1  0.30750300  0.65084400  0.99999900  1
  O  O4  1  0.19757000  0.39916800  0.83124000  1
  O  O5  1  0.19759400  0.89914700  0.83124500  1
  O  O6  1  0.19757000  0.39916800  0.16875700  1
  O  O7  1  0.19759400  0.89914800  0.16875500  1
  O  O8  1  0.30241300  0.14915100  0.33123800  1
  O  O9  1  0.30240000  0.64913500  0.33123400  1
  O  O10  1  0.30241300  0.14915000  0.66876200  1
  O  O11  1  0.30240000  0.64913400  0.66876500  1
  O  O12  1  0.69601600  0.34602300  0.33010100  1
  O  O13  1  0.69598200  0.84600000  0.33010000  1
  O  O14  1  0.69601700  0.34602400  0.66989800  1
  O  O15  1  0.69598200  0.84599900  0.66989900  1
  O  O16  1  0.80399200  0.09600900  0.16990000  1
  O  O17  1  0.80397500  0.59602000  0.16990600  1
  O  O18  1  0.80399300  0.09601000  0.83010000  1
  O  O19  1  0.80397400  0.59601900  0.83009200  1
loop_
_geom_bond_atom_site_label_1
_geom_bond_atom_site_label_2
_geom_bond_distance
_geom_bond_site_symmetry_2
Cr0 N1 2.038037 1_454
Cr0 O7 2.045968 1_555
Cr0 O5 2.046072 1_554
Cr0 O16 2.057038 1_465
Cr0 O18 2.057139 1_464
Cr0 O2 2.058204 1_565
Cr1 N3 2.038021 1_555
Cr1 O11 2.046231 1_555
Cr1 O9 2.046305 1_555
Cr1 O15 2.056863 1_555
Cr1 O13 2.056945 1_555
Cr1 O1 2.058100 1_555
Cr2 N0 2.038447 1_455
Cr2 O4 2.046516 1_555
Cr2 O6 2.046579 1_556
Cr2 O19 2.056543 1_455
Cr2 O17 2.056617 1_456
Cr2 O3 2.057685 1_555
Cr3 N2 2.038630 1_555
Cr3 O10 2.046709 1_555
Cr3 O8 2.046761 1_555
Cr3 O14 2.056461 1_555
Cr3 O12 2.056518 1_555
Cr3 O0 2.057531 1_555
N0 Ta6 1.949437 1_555
N0 Ta4 1.949468 1_556
N1 Ta7 1.949377 1_555
N1 Ta5 1.949411 1_556
N2 Ta0 1.949318 1_555
N2 Ta2 1.949344 1_555
N3 Ta3 1.949440 1_555
N3 Ta1 1.949478 1_555
O0 Ta3 2.041572 1_455
O0 Ta1 2.041576 1_455
O1 Ta0 2.041634 1_465
O1 Ta2 2.041651 1_465
O2 Ta6 2.041415 1_554
O2 Ta4 2.041428 1_555
O3 Ta7 2.041691 1_555
O3 Ta5 2.041712 1_556
O4 Ta6 1.989684 1_555
O4 Ta3 2.108323 1_455
O5 Ta7 1.989321 1_555
O5 Ta2 2.108706 1_465
O6 Ta4 1.989652 1_555
O6 Ta1 2.108322 1_455
O7 Ta5 1.989357 1_555
O7 Ta0 2.108713 1_465
O8 Ta0 1.989324 1_455
O8 Ta4 2.108549 1_555
O9 Ta1 1.989277 1_455
O9 Ta5 2.108602 1_555
O10 Ta2 1.989321 1_455
O10 Ta6 2.108570 1_555
O11 Ta3 1.989274 1_455
O11 Ta7 2.108636 1_555
O12 Ta4 1.986843 1_555
O12 Ta1 2.091458 1_555
O13 Ta5 1.986366 1_555
O13 Ta0 2.091851 1_565
O14 Ta6 1.986867 1_555
O14 Ta3 2.091445 1_555
O15 Ta7 1.986377 1_555
O15 Ta2 2.091854 1_565
O16 Ta0 1.986628 1_555
O16 Ta4 2.091481 1_555
O17 Ta1 1.986576 1_555
O17 Ta5 2.091436 1_555
O18 Ta2 1.986613 1_555
O18 Ta6 2.091448 1_555
O19 Ta3 1.986580 1_555
O19 Ta7 2.091472 1_555
