# generated using pymatgen
data_SnSe
_symmetry_space_group_name_H-M   'P 1'
_cell_length_a   4.28532743
_cell_length_b   4.28532741
_cell_length_c   10.99069213
_cell_angle_alpha   90.00000000
_cell_angle_beta   90.00000000
_cell_angle_gamma   89.99993141
_symmetry_Int_Tables_number   1
_chemical_formula_structural   SnSe
_chemical_formula_sum   'Sn2 Se2'
_cell_volume   201.83341197
_cell_formula_units_Z   2
loop_
 _symmetry_equiv_pos_site_id
 _symmetry_equiv_pos_as_xyz
  1  'x, y, z'
loop_
 _atom_site_type_symbol
 _atom_site_label
 _atom_site_symmetry_multiplicity
 _atom_site_fract_x
 _atom_site_fract_y
 _atom_site_fract_z
 _atom_site_occupancy
  Sn  Sn0  1  0.25000000  0.25000000  0.37222911  1
  Sn  Sn1  1  0.75000000  0.75000000  0.62777089  1
  Se  Se0  1  0.25000000  0.25000000  0.61603949  1
  Se  Se1  1  0.75000000  0.75000000  0.38396051  1
loop_
_geom_bond_atom_site_label_1
_geom_bond_atom_site_label_2
_geom_bond_distance
_geom_bond_site_symmetry_2
Se0 Sn0 2.679645 1_555
Se0 Sn1 3.032924 1_545
Se0 Sn1 3.032924 1_455
Se0 Sn1 3.032928 1_445
Se0 Sn1 3.032928 1_555
Se1 Sn1 2.679645 1_555
Se1 Sn0 3.032924 1_565
Se1 Sn0 3.032924 1_655
Se1 Sn0 3.032928 1_555
Se1 Sn0 3.032928 1_665
