# generated using pymatgen
data_Sr2B4Rh5
_symmetry_space_group_name_H-M   'P 1'
_cell_length_a   5.54174745
_cell_length_b   5.75062221
_cell_length_c   6.27558001
_cell_angle_alpha   77.71658361
_cell_angle_beta   63.79829456
_cell_angle_gamma   61.19442469
_symmetry_Int_Tables_number   1
_chemical_formula_structural   Sr2B4Rh5
_chemical_formula_sum   'Sr2 B4 Rh5'
_cell_volume   157.23871345
_cell_formula_units_Z   1
loop_
 _symmetry_equiv_pos_site_id
 _symmetry_equiv_pos_as_xyz
  1  'x, y, z'
loop_
 _atom_site_type_symbol
 _atom_site_label
 _atom_site_symmetry_multiplicity
 _atom_site_fract_x
 _atom_site_fract_y
 _atom_site_fract_z
 _atom_site_occupancy
  Sr  Sr0  1  0.14380102  0.00000000  0.71239896  1
  Sr  Sr1  1  0.85619898  0.00000000  0.28760104  1
  B  B0  1  0.20707107  0.32914186  0.25671600  1
  B  B1  1  0.79292893  0.67085814  0.74328400  1
  B  B2  1  0.46378707  0.32914186  0.74328400  1
  B  B3  1  0.53621293  0.67085814  0.25671600  1
  Rh  Rh0  1  0.50000000  0.00000000  -0.00000000  1
  Rh  Rh1  1  0.50000000  0.50000000  -0.00000000  1
  Rh  Rh2  1  -0.00000000  0.50000000  -0.00000000  1
  Rh  Rh3  1  0.25000000  0.50000000  0.50000000  1
  Rh  Rh4  1  0.75000000  0.50000000  0.50000000  1
loop_
_geom_bond_atom_site_label_1
_geom_bond_atom_site_label_2
_geom_bond_distance
_geom_bond_site_symmetry_2
B0 Rh3 2.130076 1_555
B0 Rh4 2.130077 1_455
B0 Rh2 2.179486 1_555
B0 Rh1 2.179486 1_555
B0 Rh0 2.200065 1_555
B0 Sr0 3.055208 1_555
B0 Sr1 3.234005 1_555
B0 Sr1 3.234009 1_455
B1 Rh4 2.130076 1_555
B1 Rh3 2.130077 1_655
B1 Rh2 2.179486 1_656
B1 Rh1 2.179486 1_556
B1 Rh0 2.200065 1_566
B1 Sr1 3.055208 1_565
B1 Sr0 3.234005 1_565
B1 Sr0 3.234009 1_665
B2 Rh3 2.130076 1_555
B2 Rh4 2.130077 1_555
B2 Rh1 2.179486 1_556
B2 Rh2 2.179486 1_556
B2 Rh0 2.200065 1_556
B2 Sr1 3.055208 1_555
B2 Sr0 3.234005 1_555
B2 Sr0 3.234009 1_655
B3 Rh4 2.130076 1_555
B3 Rh3 2.130077 1_555
B3 Rh1 2.179486 1_555
B3 Rh2 2.179486 1_655
B3 Rh0 2.200065 1_565
B3 Sr0 3.055208 1_565
B3 Sr1 3.234005 1_565
B3 Sr1 3.234009 1_465
Rh0 Sr0 3.209392 1_554
Rh0 Sr1 3.209392 1_555
Rh0 Sr1 3.209397 1_455
Rh0 Sr0 3.209397 1_654
Rh1 Sr0 3.299982 1_564
Rh1 Sr1 3.299982 1_555
Rh1 Sr0 3.299984 1_654
Rh1 Sr1 3.299984 1_465
Rh2 Sr1 3.299982 1_465
Rh2 Sr0 3.299982 1_554
Rh2 Sr1 3.299984 1_455
Rh2 Sr0 3.299984 1_564
Rh3 Sr0 3.114118 1_555
Rh3 Sr1 3.114118 1_555
Rh3 Sr1 3.114120 1_465
Rh3 Sr0 3.114120 1_565
Rh4 Sr1 3.114118 1_565
Rh4 Sr0 3.114118 1_565
Rh4 Sr0 3.114120 1_655
Rh4 Sr1 3.114120 1_555
