# generated using pymatgen
data_NaZn4H18SClO16
_symmetry_space_group_name_H-M   'P 1'
_cell_length_a   8.47123550
_cell_length_b   8.47123550
_cell_length_c   13.18980700
_cell_angle_alpha   90.00000000
_cell_angle_beta   90.00000000
_cell_angle_gamma   119.99999609
_symmetry_Int_Tables_number   1
_chemical_formula_structural   NaZn4H18SClO16
_chemical_formula_sum   'Na2 Zn8 H36 S2 Cl2 O32'
_cell_volume   819.71446731
_cell_formula_units_Z   2
loop_
 _symmetry_equiv_pos_site_id
 _symmetry_equiv_pos_as_xyz
  1  'x, y, z'
loop_
 _atom_site_type_symbol
 _atom_site_label
 _atom_site_symmetry_multiplicity
 _atom_site_fract_x
 _atom_site_fract_y
 _atom_site_fract_z
 _atom_site_occupancy
  Na  Na0  1  0.33333300  0.66666700  0.09189000  1
  Na  Na1  1  0.66666700  0.33333300  0.90811000  1
  Zn  Zn0  1  0.12752400  0.71362700  0.49258600  1
  Zn  Zn1  1  0.00000000  0.00000000  0.63753900  1
  Zn  Zn2  1  0.00000000  0.00000000  0.36246100  1
  Zn  Zn3  1  0.28637300  0.41389700  0.49258600  1
  Zn  Zn4  1  0.58610300  0.87247600  0.49258600  1
  Zn  Zn5  1  0.41389700  0.12752400  0.50741400  1
  Zn  Zn6  1  0.71362700  0.58610300  0.50741400  1
  Zn  Zn7  1  0.87247600  0.28637300  0.50741400  1
  H  H0  1  0.00883100  0.45966000  0.21589600  1
  H  H1  1  0.23402500  0.90903100  0.65480500  1
  H  H2  1  0.24136300  0.92398400  0.20477800  1
  H  H3  1  0.27251100  0.95172200  0.99824000  1
  H  H4  1  0.24196600  0.82242300  0.90753500  1
  H  H5  1  0.11938800  0.47852000  0.35478000  1
  H  H6  1  0.04827800  0.32078900  0.99824000  1
  H  H7  1  0.35913200  0.88061200  0.35478000  1
  H  H8  1  0.07601600  0.31737800  0.20477800  1
  H  H9  1  0.09096900  0.32499300  0.65480500  1
  H  H10  1  0.17757700  0.41954300  0.90753500  1
  H  H11  1  0.45082800  0.99116900  0.21589600  1
  H  H12  1  0.31737800  0.24136300  0.79522200  1
  H  H13  1  0.32499300  0.23402500  0.34519500  1
  H  H14  1  0.32078900  0.27251100  0.00176000  1
  H  H15  1  0.52148000  0.64086800  0.35478000  1
  H  H16  1  0.58045700  0.75803400  0.90753500  1
  H  H17  1  0.45966000  0.45082800  0.78410400  1
  H  H18  1  0.54034000  0.54917200  0.21589600  1
  H  H19  1  0.41954300  0.24196600  0.09246500  1
  H  H20  1  0.47852000  0.35913200  0.64522000  1
  H  H21  1  0.67921100  0.72748900  0.99824000  1
  H  H22  1  0.67500700  0.76597500  0.65480500  1
  H  H23  1  0.68262200  0.75863700  0.20477800  1
  H  H24  1  0.54917200  0.00883100  0.78410400  1
  H  H25  1  0.82242300  0.58045700  0.09246500  1
  H  H26  1  0.90903100  0.67500700  0.34519500  1
  H  H27  1  0.92398400  0.68262200  0.79522200  1
  H  H28  1  0.64086800  0.11938800  0.64522000  1
  H  H29  1  0.95172200  0.67921100  0.00176000  1
  H  H30  1  0.88061200  0.52148000  0.64522000  1
  H  H31  1  0.75803400  0.17757700  0.09246500  1
  H  H32  1  0.72748900  0.04827800  0.00176000  1
  H  H33  1  0.75863700  0.07601600  0.79522200  1
  H  H34  1  0.76597500  0.09096900  0.34519500  1
  H  H35  1  0.99116900  0.54034000  0.78410400  1
  S  S0  1  0.33333300  0.66666700  0.72320000  1
  S  S1  1  0.66666700  0.33333300  0.27680000  1
  Cl  Cl0  1  0.00000000  0.00000000  0.81107300  1
  Cl  Cl1  1  0.00000000  0.00000000  0.18892700  1
  O  O0  1  0.18637700  0.93694300  0.59295600  1
  O  O1  1  0.22139900  0.82154400  0.98078100  1
  O  O2  1  0.10554700  0.47898300  0.42926900  1
  O  O3  1  0.32830600  0.88079500  0.21545500  1
  O  O4  1  0.11920500  0.44751000  0.21545500  1
  O  O5  1  0.32041800  0.82651300  0.76127200  1
  O  O6  1  0.37343600  0.89445300  0.42926900  1
  O  O7  1  0.17348700  0.49390500  0.76127200  1
  O  O8  1  0.06305700  0.24943500  0.59295600  1
  O  O9  1  0.17845600  0.39985500  0.98078100  1
  O  O10  1  0.33333300  0.66666700  0.60976600  1
  O  O11  1  0.24943500  0.18637700  0.40704400  1
  O  O12  1  0.50609500  0.67958200  0.76127200  1
  O  O13  1  0.52101700  0.62656400  0.42926900  1
  O  O14  1  0.60014500  0.77860100  0.98078100  1
  O  O15  1  0.55249000  0.67169400  0.21545500  1
  O  O16  1  0.44751000  0.32830600  0.78454500  1
  O  O17  1  0.39985500  0.22139900  0.01921900  1
  O  O18  1  0.47898300  0.37343600  0.57073100  1
  O  O19  1  0.49390500  0.32041800  0.23872800  1
  O  O20  1  0.75056500  0.81362300  0.59295600  1
  O  O21  1  0.66666700  0.33333300  0.39023400  1
  O  O22  1  0.82154400  0.60014500  0.01921900  1
  O  O23  1  0.93694300  0.75056500  0.40704400  1
  O  O24  1  0.82651300  0.50609500  0.23872800  1
  O  O25  1  0.62656400  0.10554700  0.57073100  1
  O  O26  1  0.67958200  0.17348700  0.23872800  1
  O  O27  1  0.88079500  0.55249000  0.78454500  1
  O  O28  1  0.67169400  0.11920500  0.78454500  1
  O  O29  1  0.89445300  0.52101700  0.57073100  1
  O  O30  1  0.77860100  0.17845600  0.01921900  1
  O  O31  1  0.81362300  0.06305700  0.40704400  1
loop_
_geom_bond_atom_site_label_1
_geom_bond_atom_site_label_2
_geom_bond_distance
_geom_bond_site_symmetry_2
Na0 O1 2.451986 1_554
Na0 O9 2.451991 1_554
Na0 O14 2.451992 1_554
Na0 O3 2.454718 1_555
Na0 O4 2.454725 1_555
Na0 O15 2.454731 1_555
Na1 O30 2.451986 1_556
Na1 O22 2.451991 1_556
Na1 O17 2.451992 1_556
Na1 O28 2.454718 1_555
Na1 O27 2.454725 1_555
Na1 O16 2.454731 1_555
H0 O4 0.990503 1_555
H1 O0 0.989829 1_555
H2 O3 0.982653 1_555
H3 O1 0.989506 1_555
H4 O1 0.981052 1_555
H5 O2 0.989707 1_555
H6 O9 0.989506 1_555
H7 O6 0.989707 1_555
H8 O4 0.982653 1_555
H9 O8 0.989820 1_555
H10 O9 0.981052 1_555
H11 O3 0.990493 1_555
H12 O16 0.982653 1_555
H13 O11 0.989822 1_555
H14 O17 0.989506 1_555
H15 O13 0.989707 1_555
H16 O14 0.981052 1_555
H17 O16 0.990486 1_555
H18 O15 0.990486 1_555
H19 O17 0.981052 1_555
H20 O18 0.989707 1_555
H21 O14 0.989506 1_555
H22 O20 0.989822 1_555
H23 O15 0.982653 1_555
H24 O28 0.990493 1_555
H25 O22 0.981052 1_555
H26 O23 0.989820 1_555
H27 O27 0.982653 1_555
H28 O25 0.989707 1_555
H29 O22 0.989506 1_555
H30 O29 0.989707 1_555
H31 O30 0.981052 1_555
H32 O30 0.989506 1_555
H33 O28 0.982653 1_555
H34 O31 0.989829 1_555
H35 O27 0.990503 1_555
Cl0 Zn1 2.288880 1_555
Cl1 Zn2 2.288880 1_555
O0 Zn1 1.991795 1_565
O0 Zn5 2.117216 1_565
O0 Zn0 2.153318 1_555
O2 Zn3 2.047561 1_555
O2 Zn0 2.076802 1_555
O2 Zn7 2.097946 1_455
O5 S0 1.498616 1_555
O6 Zn0 2.047561 1_555
O6 Zn4 2.076802 1_555
O6 Zn5 2.097946 1_565
O7 S0 1.498621 1_555
O8 Zn1 1.991803 1_555
O8 Zn7 2.117212 1_455
O8 Zn3 2.153317 1_555
O10 S0 1.496173 1_555
O10 Zn0 2.506048 1_555
O10 Zn4 2.506053 1_555
O10 Zn3 2.506055 1_555
O11 Zn2 1.991801 1_555
O11 Zn3 2.117219 1_555
O11 Zn5 2.153312 1_555
O12 S0 1.498624 1_555
O13 Zn4 2.047561 1_555
O13 Zn3 2.076802 1_555
O13 Zn6 2.097946 1_555
O18 Zn5 2.047561 1_555
O18 Zn6 2.076802 1_555
O18 Zn3 2.097946 1_555
O19 S1 1.498624 1_555
O20 Zn1 1.991801 1_665
O20 Zn6 2.117219 1_555
O20 Zn4 2.153312 1_555
O21 S1 1.496173 1_555
O21 Zn7 2.506048 1_555
O21 Zn5 2.506053 1_555
O21 Zn6 2.506055 1_555
O23 Zn2 1.991803 1_665
O23 Zn0 2.117212 1_655
O23 Zn6 2.153317 1_555
O24 S1 1.498621 1_555
O25 Zn7 2.047561 1_555
O25 Zn5 2.076802 1_555
O25 Zn4 2.097946 1_545
O26 S1 1.498616 1_555
O29 Zn6 2.047561 1_555
O29 Zn7 2.076802 1_555
O29 Zn0 2.097946 1_655
O31 Zn2 1.991795 1_655
O31 Zn4 2.117216 1_545
O31 Zn7 2.153318 1_555
