# generated using pymatgen
data_Tl3SbS3
_symmetry_space_group_name_H-M   'P 1'
_cell_length_a   6.11972639
_cell_length_b   6.11972666
_cell_length_c   6.11972632
_cell_angle_alpha   104.36121507
_cell_angle_beta   104.36121507
_cell_angle_gamma   104.36120476
_symmetry_Int_Tables_number   1
_chemical_formula_structural   Tl3SbS3
_chemical_formula_sum   'Tl3 Sb1 S3'
_cell_volume   203.05250764
_cell_formula_units_Z   1
loop_
 _symmetry_equiv_pos_site_id
 _symmetry_equiv_pos_as_xyz
  1  'x, y, z'
loop_
 _atom_site_type_symbol
 _atom_site_label
 _atom_site_symmetry_multiplicity
 _atom_site_fract_x
 _atom_site_fract_y
 _atom_site_fract_z
 _atom_site_occupancy
  Tl  Tl0  1  0.56132357  0.56132357  0.17258728  1
  Tl  Tl1  1  0.56132357  0.17258728  0.56132357  1
  Tl  Tl2  1  0.17258728  0.56132357  0.56132357  1
  Sb  Sb0  1  -0.00740419  -0.00740419  -0.00740419  1
  S  S0  1  0.58043849  0.96561515  0.96561515  1
  S  S1  1  0.96561515  0.96561515  0.58043849  1
  S  S2  1  0.96561515  0.58043849  0.96561515  1
loop_
_geom_bond_atom_site_label_1
_geom_bond_atom_site_label_2
_geom_bond_distance
_geom_bond_site_symmetry_2
S0 Sb0 2.447398 1_666
S0 Tl1 3.037093 1_565
S0 Tl0 3.037093 1_556
S0 Tl2 3.051091 1_555
S1 Sb0 2.447398 1_666
S1 Tl1 3.037093 1_565
S1 Tl2 3.037093 1_655
S1 Tl0 3.051091 1_555
S2 Sb0 2.447398 1_666
S2 Tl2 3.037093 1_655
S2 Tl0 3.037093 1_556
S2 Tl1 3.051091 1_555
