# generated using pymatgen
data_Li7V3P8O29
_symmetry_space_group_name_H-M   'P 1'
_cell_length_a   9.85057743
_cell_length_b   9.85656602
_cell_length_c   13.90435338
_cell_angle_alpha   89.94481947
_cell_angle_beta   90.05428419
_cell_angle_gamma   60.13961291
_symmetry_Int_Tables_number   1
_chemical_formula_structural   Li7V3P8O29
_chemical_formula_sum   'Li14 V6 P16 O58'
_cell_volume   1170.78520428
_cell_formula_units_Z   2
loop_
 _symmetry_equiv_pos_site_id
 _symmetry_equiv_pos_as_xyz
  1  'x, y, z'
loop_
 _atom_site_type_symbol
 _atom_site_label
 _atom_site_symmetry_multiplicity
 _atom_site_fract_x
 _atom_site_fract_y
 _atom_site_fract_z
 _atom_site_occupancy
  Li  Li0  1  0.76607800  0.90694800  0.56573100  1
  Li  Li1  1  0.90717400  0.33091400  0.56609400  1
  Li  Li2  1  0.66683500  0.66104200  0.38479300  1
  Li  Li3  1  0.67416400  0.67495400  0.88612700  1
  Li  Li4  1  0.76484600  0.32422300  0.06222900  1
  Li  Li5  1  0.32158000  0.90949000  0.05885200  1
  Li  Li6  1  0.32633600  0.76709800  0.56548400  1
  Li  Li7  1  0.66307000  0.10135300  0.93680200  1
  Li  Li8  1  0.23551800  0.65841300  0.93936400  1
  Li  Li9  1  0.09758800  0.66652800  0.44120400  1
  Li  Li10  1  0.23284500  0.09762300  0.44534000  1
  Li  Li11  1  0.09966700  0.23119500  0.93420600  1
  Li  Li12  1  0.98464900  0.96090600  0.99997300  1
  Li  Li13  1  0.95219200  0.03067600  0.50358300  1
  V  V0  1  0.56257300  0.43483200  0.25470300  1
  V  V1  1  0.43772900  0.55945400  0.74834800  1
  V  V2  1  0.56550600  0.00038400  0.74844800  1
  V  V3  1  0.43864500  0.00253700  0.24849100  1
  V  V4  1  0.99985200  0.56552000  0.24401100  1
  V  V5  1  0.00179400  0.43609300  0.74969100  1
  P  P0  1  0.91225000  0.78051200  0.84231500  1
  P  P1  1  0.77898300  0.90761400  0.34242500  1
  P  P2  1  0.91190900  0.31513100  0.34189100  1
  P  P3  1  0.66235600  0.66679300  0.12997000  1
  P  P4  1  0.66472000  0.66544400  0.62556600  1
  P  P5  1  0.77284100  0.31539600  0.84479100  1
  P  P6  1  0.69510800  0.22342100  0.65708900  1
  P  P7  1  0.31728400  0.90557100  0.84270200  1
  P  P8  1  0.69193300  0.08657000  0.15690200  1
  P  P9  1  0.31519900  0.77634700  0.34314800  1
  P  P10  1  0.22920100  0.68570100  0.15785100  1
  P  P11  1  0.33010500  0.33466600  0.36936200  1
  P  P12  1  0.33618100  0.33372900  0.87410700  1
  P  P13  1  0.08627200  0.68740100  0.65519600  1
  P  P14  1  0.22744400  0.08501400  0.65736100  1
  P  P15  1  0.08680500  0.22629100  0.15605100  1
  O  O0  1  0.00256000  0.77887000  0.56463200  1
  O  O1  1  0.92115900  0.73964500  0.33940700  1
  O  O2  1  0.77865400  0.01068900  0.06626900  1
  O  O3  1  0.74765300  0.92496200  0.84441100  1
  O  O4  1  0.89747400  0.63196800  0.83684900  1
  O  O5  1  0.80652900  0.67065500  0.17391400  1
  O  O6  1  0.90375000  0.47594500  0.32964800  1
  O  O7  1  0.99770200  0.22649800  0.06760600  1
  O  O8  1  0.91862400  0.33312900  0.84560400  1
  O  O9  1  0.67582600  0.80918200  0.66103500  1
  O  O10  1  0.62773900  0.89480100  0.32879000  1
  O  O11  1  0.80940500  0.51224200  0.66212000  1
  O  O12  1  0.65693800  0.66521700  0.02254100  1
  O  O13  1  0.65209000  0.66598600  0.51685600  1
  O  O14  1  0.66703600  0.51648600  0.17144100  1
  O  O15  1  0.48088600  0.88791100  0.83321600  1
  O  O16  1  0.51021700  0.81601000  0.16954200  1
  O  O17  1  0.74398700  0.34530300  0.34174400  1
  O  O18  1  0.78911600  0.20464600  0.75697600  1
  O  O19  1  0.80197200  0.21244500  0.57631900  1
  O  O20  1  0.76170600  0.23569900  0.93542700  1
  O  O21  1  0.62666500  0.48025400  0.82931500  1
  O  O22  1  0.51180800  0.67435400  0.66971200  1
  O  O23  1  0.66593600  0.25394700  0.16449600  1
  O  O24  1  0.48032300  0.62995800  0.32992200  1
  O  O25  1  0.33365700  0.92290400  0.34382100  1
  O  O26  1  0.79690800  0.99522400  0.24997600  1
  O  O27  1  0.78205700  0.98759000  0.43307200  1
  O  O28  1  0.22710100  0.99513100  0.56802400  1
  O  O29  1  0.66721000  0.08433100  0.65554400  1
  O  O30  1  0.54169200  0.38167900  0.66407800  1
  O  O31  1  0.33385400  0.74129500  0.84348900  1
  O  O32  1  0.47602500  0.33744700  0.32532700  1
  O  O33  1  0.38550000  0.53350900  0.16898000  1
  O  O34  1  0.22140500  0.77804000  0.06891100  1
  O  O35  1  0.23194000  0.76571300  0.43124900  1
  O  O36  1  0.21034300  0.79425900  0.25035600  1
  O  O37  1  0.25173500  0.66825700  0.65926600  1
  O  O38  1  0.48693100  0.18742100  0.83831300  1
  O  O39  1  0.53608400  0.08521200  0.16768600  1
  O  O40  1  0.33436500  0.48248700  0.82331900  1
  O  O41  1  0.33480000  0.35777800  0.98053200  1
  O  O42  1  0.32717400  0.32868200  0.47559500  1
  O  O43  1  0.18241400  0.48385400  0.32849900  1
  O  O44  1  0.37683600  0.09277000  0.66916800  1
  O  O45  1  0.33408900  0.18316200  0.32507400  1
  O  O46  1  0.09044800  0.65699600  0.16271300  1
  O  O47  1  0.98932500  0.79786900  0.74353400  1
  O  O48  1  0.01293800  0.78571500  0.92237100  1
  O  O49  1  0.09222600  0.53102100  0.66476500  1
  O  O50  1  0.19014500  0.32761000  0.83661400  1
  O  O51  1  0.09052700  0.37897700  0.16841800  1
  O  O52  1  0.25313500  0.08273800  0.15702700  1
  O  O53  1  0.22775200  0.99780500  0.93113500  1
  O  O54  1  0.21161100  0.99360300  0.75035100  1
  O  O55  1  0.08112300  0.24721200  0.65820000  1
  O  O56  1  0.00202900  0.22723500  0.43054400  1
  O  O57  1  0.99958200  0.20727100  0.24973500  1
loop_
_geom_bond_atom_site_label_1
_geom_bond_atom_site_label_2
_geom_bond_distance
_geom_bond_site_symmetry_2
Li0 O29 1.968697 1_565
Li0 O0 2.022911 1_655
Li0 O27 2.044797 1_555
Li0 O9 2.080345 1_555
Li1 O19 1.913788 1_555
Li1 O55 1.960349 1_655
Li1 O11 2.048801 1_555
Li1 O56 2.127399 1_655
Li2 O13 1.840901 1_555
Li2 O24 2.147036 1_555
Li2 O6 2.264760 1_555
Li2 O10 2.275028 1_555
Li3 O12 1.911056 1_556
Li3 O4 2.136152 1_555
Li3 O15 2.141705 1_555
Li3 O21 2.328542 1_555
Li4 O20 1.974979 1_554
Li4 O7 1.998551 1_555
Li4 O23 2.030723 1_555
Li4 O14 2.239556 1_555
Li5 O34 1.986210 1_555
Li5 O53 1.989548 1_554
Li5 O52 2.023299 1_565
Li5 O16 2.226549 1_555
Li6 O28 1.954738 1_555
Li6 O37 1.975294 1_555
Li6 O35 2.087548 1_555
Li6 O22 2.145506 1_555
Li7 O3 1.982705 1_545
Li7 O20 1.994758 1_555
Li7 O38 2.032984 1_555
Li7 O2 2.077337 1_556
Li8 O48 1.922613 1_555
Li8 O31 2.042336 1_555
Li8 O34 2.120267 1_556
Li8 O40 2.210316 1_555
Li9 O35 2.003713 1_555
Li9 O0 2.005548 1_555
Li9 O1 2.071078 1_455
Li9 O43 2.214877 1_555
Li10 O56 1.987506 1_555
Li10 O28 1.996853 1_545
Li10 O25 2.061255 1_545
Li10 O45 2.310748 1_555
Li11 O8 1.979099 1_455
Li11 O53 1.998942 1_545
Li11 O50 2.093321 1_555
Li11 O7 2.121578 1_456
Li12 O48 1.936151 1_655
Li12 O2 2.054496 1_566
Li12 O34 2.326633 1_656
Li13 O19 1.946473 1_555
Li13 O27 2.157940 1_545
Li13 O0 2.428100 1_645
Li13 O56 2.443384 1_655
O0 P13 1.527751 1_555
O1 P1 1.547758 1_555
O1 V4 1.996853 1_555
O2 P8 1.498287 1_555
O3 P0 1.535674 1_555
O3 V2 2.053702 1_565
O4 P0 1.543713 1_555
O4 V5 2.069623 1_655
O5 P3 1.563314 1_555
O5 V4 1.918277 1_555
O6 P2 1.555794 1_555
O6 V4 1.981389 1_555
O7 P15 1.509600 1_655
O8 P5 1.530628 1_555
O8 V5 2.075353 1_655
O9 P4 1.554989 1_555
O9 V2 2.043880 1_565
O10 P1 1.567925 1_555
O10 V3 1.966713 1_565
O11 P4 1.556896 1_555
O11 V5 2.053035 1_655
O12 P3 1.495005 1_555
O13 P4 1.516322 1_555
O14 P3 1.568373 1_555
O14 V0 1.967755 1_555
O15 P7 1.538173 1_555
O15 V2 2.057310 1_565
O16 P3 1.587492 1_555
O16 V3 1.948551 1_565
O17 P2 1.527983 1_555
O17 V0 1.964801 1_555
O18 P5 1.592753 1_555
O18 P6 1.627006 1_555
O19 P6 1.506700 1_555
O20 P5 1.517053 1_555
O21 P5 1.558502 1_555
O21 V1 1.971855 1_555
O22 P4 1.588545 1_555
O22 V1 1.957712 1_555
O23 P8 1.542121 1_555
O23 V0 1.996925 1_555
O24 P9 1.557404 1_555
O24 V0 1.975619 1_555
O25 P9 1.543189 1_555
O25 V3 2.061917 1_565
O26 P1 1.606038 1_555
O26 P8 1.619518 1_565
O27 P1 1.495495 1_555
O28 P14 1.527411 1_565
O29 P6 1.526661 1_555
O29 V2 2.045201 1_555
O30 P6 1.542622 1_555
O30 V1 1.926504 1_555
O31 P7 1.544457 1_555
O31 V1 2.047034 1_555
O32 P11 1.575631 1_555
O32 V0 1.851258 1_555
O33 P10 1.530999 1_555
O33 V0 1.927078 1_555
O34 P10 1.513812 1_555
O35 P9 1.507144 1_555
O36 P9 1.605657 1_555
O36 P10 1.624491 1_555
O37 P13 1.545623 1_555
O37 V1 2.019321 1_555
O38 P12 1.550109 1_555
O38 V2 2.035781 1_555
O39 P8 1.549324 1_555
O39 V3 1.904416 1_555
O40 P12 1.618868 1_555
O40 V1 1.862403 1_555
O41 P12 1.497864 1_555
O42 P11 1.479104 1_555
O43 P11 1.571064 1_555
O43 V4 1.953133 1_455
O44 P14 1.519864 1_555
O44 V2 1.951248 1_555
O45 P11 1.598179 1_555
O45 V3 1.882578 1_555
O46 P10 1.529043 1_555
O46 V4 1.920511 1_455
O47 P13 1.604869 1_655
O47 P0 1.619578 1_555
O48 P0 1.508007 1_455
O49 P13 1.518728 1_555
O49 V5 1.973128 1_555
O50 P12 1.558793 1_555
O50 V5 2.015988 1_555
O51 P15 1.533378 1_555
O51 V4 1.911390 1_455
O52 P15 1.542127 1_555
O52 V3 2.033905 1_555
O53 P7 1.523824 1_555
O54 P7 1.606621 1_555
O54 P14 1.626638 1_565
O55 P14 1.529380 1_555
O55 V5 2.062210 1_555
O56 P2 1.512654 1_455
O57 P2 1.615072 1_555
O57 P15 1.622411 1_655
