# generated using pymatgen
data_LiMn2(BO3)2
_symmetry_space_group_name_H-M   'P 1'
_cell_length_a   5.30157000
_cell_length_b   5.79413675
_cell_length_c   22.20928661
_cell_angle_alpha   89.58241870
_cell_angle_beta   89.49115123
_cell_angle_gamma   66.26554963
_symmetry_Int_Tables_number   1
_chemical_formula_structural   LiMn2(BO3)2
_chemical_formula_sum   'Li5 Mn10 B10 O30'
_cell_volume   624.49346800
_cell_formula_units_Z   5
loop_
 _symmetry_equiv_pos_site_id
 _symmetry_equiv_pos_as_xyz
  1  'x, y, z'
loop_
 _atom_site_type_symbol
 _atom_site_label
 _atom_site_symmetry_multiplicity
 _atom_site_fract_x
 _atom_site_fract_y
 _atom_site_fract_z
 _atom_site_occupancy
  Li  Li0  1  0.38553100  0.05161600  0.38889300  1
  Li  Li1  1  0.02660300  0.14367400  0.81334300  1
  Li  Li2  1  0.78329100  0.25396700  0.58843500  1
  Li  Li3  1  0.98470800  0.85208300  0.18932400  1
  Li  Li4  1  0.57988800  0.65383700  0.98913300  1
  Mn  Mn0  1  0.52256500  0.13643800  0.88123100  1
  Mn  Mn1  1  0.27640200  0.26523100  0.52239300  1
  Mn  Mn2  1  0.87737900  0.06759400  0.32359800  1
  Mn  Mn3  1  0.33157800  0.52388000  0.27906600  1
  Mn  Mn4  1  0.93007900  0.32274000  0.07758000  1
  Mn  Mn5  1  0.07559900  0.67094800  0.92176900  1
  Mn  Mn6  1  0.66587600  0.47823700  0.72611600  1
  Mn  Mn7  1  0.12385800  0.92609000  0.67798400  1
  Mn  Mn8  1  0.73029600  0.72346900  0.47893600  1
  Mn  Mn9  1  0.47670500  0.86715900  0.12338500  1
  B  B0  1  0.57682800  0.00213700  0.75022400  1
  B  B1  1  0.22670100  0.39350300  0.65132100  1
  B  B2  1  0.82184900  0.19767400  0.45245900  1
  B  B3  1  0.37765200  0.40326900  0.14565700  1
  B  B4  1  0.97197700  0.20682200  0.94464200  1
  B  B5  1  0.02159700  0.80022200  0.05273000  1
  B  B6  1  0.62710600  0.59848900  0.85642900  1
  B  B7  1  0.17590300  0.80306500  0.54563100  1
  B  B8  1  0.77835800  0.60341400  0.34596100  1
  B  B9  1  0.42293800  0.99784200  0.25276600  1
  O  O0  1  0.00042500  0.13013300  0.40401400  1
  O  O1  1  0.40439900  0.06781200  0.79825000  1
  O  O2  1  0.48039600  0.12273600  0.30160600  1
  O  O3  1  0.00301300  0.32758600  0.65947800  1
  O  O4  1  0.59546200  0.13575900  0.45646200  1
  O  O5  1  0.16903000  0.30378700  0.93259100  1
  O  O6  1  0.78270000  0.09860600  0.74119200  1
  O  O7  1  0.35161000  0.22643600  0.10537200  1
  O  O8  1  0.95310600  0.04032700  0.89932400  1
  O  O9  1  0.40067400  0.31875200  0.60205100  1
  O  O10  1  0.20737400  0.48933200  0.19349700  1
  O  O11  1  0.79607600  0.28450300  0.99145600  1
  O  O12  1  0.28862600  0.53194100  0.69559000  1
  O  O13  1  0.87795900  0.32206300  0.50151800  1
  O  O14  1  0.41576800  0.52356200  0.86672100  1
  O  O15  1  0.57264700  0.50107900  0.13006500  1
  O  O16  1  0.15145800  0.62552200  0.50551000  1
  O  O17  1  0.75354200  0.42636200  0.30567100  1
  O  O18  1  0.19415900  0.74236700  0.00349800  1
  O  O19  1  0.80269800  0.51452700  0.80785100  1
  O  O20  1  0.60567800  0.68920600  0.39351200  1
  O  O21  1  0.07606200  0.92497500  0.10210100  1
  O  O22  1  0.67474200  0.74350100  0.90243400  1
  O  O23  1  0.19658100  0.93606700  0.25745900  1
  O  O24  1  0.79869800  0.73234700  0.05721400  1
  O  O25  1  0.37204800  0.90010400  0.53084200  1
  O  O26  1  0.97338200  0.70172100  0.33097400  1
  O  O27  1  0.54921900  0.83968800  0.70667300  1
  O  O28  1  0.59925100  0.92988400  0.20394600  1
  O  O29  1  0.00147900  0.89022100  0.59288400  1
loop_
_geom_bond_atom_site_label_1
_geom_bond_atom_site_label_2
_geom_bond_distance
_geom_bond_site_symmetry_2
Li0 O0 1.931448 1_555
Li0 O20 1.951460 1_545
Li0 O4 2.050729 1_555
Li0 O2 2.078154 1_555
Li1 O1 1.897034 1_555
Li1 O19 1.996656 1_455
Li1 O8 2.077215 1_455
Li1 O6 2.150044 1_455
Li2 O9 1.929988 1_555
Li2 O29 1.956074 1_645
Li2 O13 2.065181 1_555
Li2 O3 2.114432 1_655
Li3 O28 1.932216 1_555
Li3 O10 1.954886 1_655
Li3 O23 2.066229 1_655
Li3 O21 2.074031 1_655
Li4 O18 1.921765 1_556
Li4 O11 1.980100 1_555
Li4 O24 2.074808 1_556
Li4 O22 2.099752 1_555
Mn0 O1 2.044197 1_555
Mn0 O5 2.066265 1_555
Mn0 O14 2.103819 1_555
Mn0 O22 2.137436 1_545
Mn0 O8 2.161339 1_555
Mn1 O16 1.953762 1_555
Mn1 O9 1.962978 1_555
Mn1 O25 1.974946 1_545
Mn1 O13 2.059301 1_455
Mn1 O4 2.125711 1_555
Mn2 O17 1.950566 1_555
Mn2 O26 1.976813 1_545
Mn2 O0 1.991731 1_655
Mn2 O2 2.060292 1_555
Mn2 O23 2.129841 1_645
Mn3 O10 2.054060 1_555
Mn3 O26 2.097679 1_455
Mn3 O17 2.161937 1_555
Mn3 O2 2.188430 1_555
Mn3 O23 2.249391 1_555
Mn4 O11 2.090318 1_554
Mn4 O15 2.102238 1_555
Mn4 O7 2.168460 1_655
Mn4 O21 2.181868 1_645
Mn4 O24 2.231951 1_555
Mn5 O5 1.993806 1_555
Mn5 O18 2.025255 1_556
Mn5 O8 2.030311 1_465
Mn5 O22 2.042518 1_455
Mn5 O14 2.052467 1_555
Mn6 O27 1.975837 1_555
Mn6 O19 2.004329 1_555
Mn6 O12 2.019047 1_555
Mn6 O6 2.056784 1_555
Mn6 O3 2.205186 1_655
Mn7 O29 2.042627 1_555
Mn7 O12 2.125704 1_555
Mn7 O6 2.181999 1_465
Mn7 O3 2.186808 1_565
Mn7 O27 2.203194 1_555
Mn8 O20 2.051493 1_555
Mn8 O25 2.096946 1_555
Mn8 O16 2.157393 1_655
Mn8 O13 2.190436 1_555
Mn8 O4 2.254131 1_565
Mn9 O7 1.953091 1_565
Mn9 O15 1.976896 1_555
Mn9 O28 1.993897 1_555
Mn9 O21 2.071217 1_555
Mn9 O24 2.140737 1_555
B0 O1 1.351562 1_555
B0 O27 1.403430 1_545
B0 O6 1.424605 1_555
B1 O9 1.379519 1_555
B1 O3 1.394571 1_555
B1 O12 1.395369 1_555
B2 O0 1.377270 1_655
B2 O4 1.386125 1_555
B2 O13 1.408858 1_555
B3 O10 1.349371 1_555
B3 O15 1.404348 1_555
B3 O7 1.413781 1_555
B4 O11 1.343480 1_555
B4 O5 1.394269 1_655
B4 O8 1.430833 1_555
B5 O18 1.373159 1_555
B5 O24 1.390139 1_455
B5 O21 1.411865 1_555
B6 O14 1.371729 1_555
B6 O19 1.375683 1_555
B6 O22 1.414782 1_555
B7 O29 1.351316 1_555
B7 O25 1.402592 1_555
B7 O16 1.411295 1_555
B8 O20 1.350789 1_555
B8 O26 1.403378 1_555
B8 O17 1.412272 1_555
B9 O28 1.377071 1_555
B9 O23 1.386399 1_555
B9 O2 1.409895 1_565
