# generated using pymatgen
data_TbBr3
_symmetry_space_group_name_H-M   'P 1'
_cell_length_a   9.98231699
_cell_length_b   9.98232106
_cell_length_c   3.75946739
_cell_angle_alpha   90.00000000
_cell_angle_beta   90.00000000
_cell_angle_gamma   119.99999660
_symmetry_Int_Tables_number   1
_chemical_formula_structural   TbBr3
_chemical_formula_sum   'Tb2 Br6'
_cell_volume   324.42914312
_cell_formula_units_Z   2
loop_
 _symmetry_equiv_pos_site_id
 _symmetry_equiv_pos_as_xyz
  1  'x, y, z'
loop_
 _atom_site_type_symbol
 _atom_site_label
 _atom_site_symmetry_multiplicity
 _atom_site_fract_x
 _atom_site_fract_y
 _atom_site_fract_z
 _atom_site_occupancy
  Tb  Tb0  1  0.33333300  0.66666700  0.75000200  1
  Tb  Tb1  1  0.66666600  0.33333300  0.25000000  1
  Br  Br0  1  0.21123628  0.42247056  0.25000000  1
  Br  Br1  1  0.57752944  0.78876372  0.25000000  1
  Br  Br2  1  0.21123728  0.78876372  0.25000000  1
  Br  Br3  1  0.78876272  0.57752944  0.75000200  1
  Br  Br4  1  0.42247156  0.21123728  0.75000200  1
  Br  Br5  1  0.78876372  0.21123728  0.75000200  1
loop_
_geom_bond_atom_site_label_1
_geom_bond_atom_site_label_2
_geom_bond_distance
_geom_bond_site_symmetry_2
Br0 Tb0 2.826652 1_554
Br0 Tb0 2.826662 1_555
Br1 Tb0 2.826652 1_554
Br1 Tb0 2.826662 1_555
Br2 Tb0 2.826626 1_554
Br2 Tb0 2.826636 1_555
Br3 Tb1 2.826652 1_556
Br3 Tb1 2.826662 1_555
Br4 Tb1 2.826639 1_556
Br4 Tb1 2.826649 1_555
Br5 Tb1 2.826633 1_556
Br5 Tb1 2.826643 1_555
