# generated using pymatgen
data_Li2VO3
_symmetry_space_group_name_H-M   'P 1'
_cell_length_a   5.89744120
_cell_length_b   6.00027725
_cell_length_c   6.47767267
_cell_angle_alpha   104.03321198
_cell_angle_beta   103.15653576
_cell_angle_gamma   89.99906781
_symmetry_Int_Tables_number   1
_chemical_formula_structural   Li2VO3
_chemical_formula_sum   'Li8 V4 O12'
_cell_volume   216.17301477
_cell_formula_units_Z   4
loop_
 _symmetry_equiv_pos_site_id
 _symmetry_equiv_pos_as_xyz
  1  'x, y, z'
loop_
 _atom_site_type_symbol
 _atom_site_label
 _atom_site_symmetry_multiplicity
 _atom_site_fract_x
 _atom_site_fract_y
 _atom_site_fract_z
 _atom_site_occupancy
  Li  Li0  1  0.83327500  0.33333200  0.33331900  1
  Li  Li1  1  0.33338900  0.33334600  0.33334300  1
  Li  Li2  1  0.83328500  0.83332600  0.33333400  1
  Li  Li3  1  0.33337900  0.83333000  0.33332800  1
  Li  Li4  1  0.00151500  0.49480800  0.00598600  1
  Li  Li5  1  0.50149700  0.49482400  0.00601200  1
  Li  Li6  1  0.16515100  0.17186000  0.66068500  1
  Li  Li7  1  0.66517100  0.17184400  0.66065900  1
  V  V0  1  0.00473600  0.01202600  0.01944500  1
  V  V1  1  0.16193300  0.65464400  0.64722900  1
  V  V2  1  0.50472700  0.01213100  0.01941500  1
  V  V3  1  0.66194000  0.65453700  0.64725600  1
  O  O0  1  0.74909700  0.22663500  0.99641000  1
  O  O1  1  0.24911800  0.22665700  0.99643800  1
  O  O2  1  0.91754900  0.44001100  0.67022800  1
  O  O3  1  0.41757100  0.44003400  0.67025700  1
  O  O4  1  0.92062600  0.89871500  0.68183000  1
  O  O5  1  0.42059800  0.89871300  0.68183800  1
  O  O6  1  0.24604000  0.76794900  0.98483300  1
  O  O7  1  0.74606900  0.76795000  0.98482600  1
  O  O8  1  0.08937400  0.59326900  0.35771000  1
  O  O9  1  0.58936800  0.59334500  0.35772900  1
  O  O10  1  0.07729200  0.07339600  0.30895500  1
  O  O11  1  0.57729700  0.07331900  0.30893500  1
loop_
_geom_bond_atom_site_label_1
_geom_bond_atom_site_label_2
_geom_bond_distance
_geom_bond_site_symmetry_2
Li0 O2 2.061147 1_555
Li0 O0 2.061153 1_554
Li0 O11 2.123670 1_555
Li0 O8 2.123827 1_655
Li0 O9 2.124140 1_555
Li0 O10 2.124244 1_655
Li1 O1 2.061126 1_554
Li1 O3 2.061180 1_555
Li1 O9 2.123611 1_555
Li1 O10 2.123880 1_555
Li1 O8 2.124181 1_555
Li1 O11 2.124204 1_555
Li2 O11 2.092714 1_565
Li2 O9 2.093221 1_555
Li2 O8 2.093394 1_655
Li2 O10 2.093931 1_665
Li2 O4 2.134582 1_555
Li2 O7 2.134662 1_554
Li3 O9 2.092686 1_555
Li3 O11 2.093254 1_565
Li3 O10 2.093422 1_565
Li3 O8 2.093892 1_555
Li3 O6 2.134580 1_554
Li3 O5 2.134672 1_555
Li4 O2 2.060719 1_454
Li4 O8 2.149006 1_555
Li4 O1 2.172020 1_554
Li4 O0 2.172261 1_454
Li4 O6 2.232341 1_554
Li4 O7 2.233655 1_454
Li5 O3 2.060705 1_554
Li5 O9 2.148970 1_555
Li5 O1 2.172082 1_554
Li5 O0 2.172176 1_554
Li5 O7 2.232539 1_554
Li5 O6 2.233632 1_554
Li6 O1 2.060688 1_555
Li6 O10 2.149043 1_555
Li6 O2 2.172016 1_455
Li6 O3 2.172281 1_555
Li6 O4 2.232339 1_445
Li6 O5 2.233677 1_545
Li7 O0 2.060679 1_555
Li7 O11 2.149013 1_555
Li7 O2 2.172088 1_555
Li7 O3 2.172181 1_555
Li7 O5 2.232548 1_545
Li7 O4 2.233637 1_545
O0 V0 1.985974 1_656
O0 V2 1.986597 1_556
O1 V2 1.985488 1_556
O1 V0 1.987162 1_556
O2 V3 1.985486 1_555
O2 V1 1.987158 1_655
O3 V1 1.985971 1_555
O3 V3 1.986578 1_555
O4 V1 2.050882 1_655
O4 V3 2.051730 1_555
O4 V0 2.067892 1_666
O5 V1 2.051138 1_555
O5 V3 2.051452 1_555
O5 V2 2.067712 1_566
O6 V0 2.050901 1_566
O6 V2 2.051738 1_566
O6 V1 2.067824 1_555
O7 V0 2.051160 1_666
O7 V2 2.051477 1_566
O7 V3 2.067668 1_555
O8 V1 1.770770 1_555
O9 V3 1.770874 1_555
O10 V0 1.770716 1_555
O11 V2 1.770832 1_555
