# generated using pymatgen
data_SmPbAu2
_symmetry_space_group_name_H-M   'P 1'
_cell_length_a   5.07394270
_cell_length_b   5.07394196
_cell_length_c   5.07394343
_cell_angle_alpha   60.00001909
_cell_angle_beta   60.00002379
_cell_angle_gamma   60.00001429
_symmetry_Int_Tables_number   1
_chemical_formula_structural   SmPbAu2
_chemical_formula_sum   'Sm1 Pb1 Au2'
_cell_volume   92.36806907
_cell_formula_units_Z   1
loop_
 _symmetry_equiv_pos_site_id
 _symmetry_equiv_pos_as_xyz
  1  'x, y, z'
loop_
 _atom_site_type_symbol
 _atom_site_label
 _atom_site_symmetry_multiplicity
 _atom_site_fract_x
 _atom_site_fract_y
 _atom_site_fract_z
 _atom_site_occupancy
  Sm  Sm0  1  0.75000000  0.75000000  0.75000000  1
  Pb  Pb0  1  0.25000000  0.25000000  0.25000000  1
  Au  Au0  1  0.50000100  0.50000100  0.50000100  1
  Au  Au1  1  -0.00000000  -0.00000000  0.00000000  1
loop_
_geom_bond_atom_site_label_1
_geom_bond_atom_site_label_2
_geom_bond_distance
_geom_bond_site_symmetry_2
Pb0 Sm0 3.587820 1_544
Pb0 Sm0 3.587820 1_554
Pb0 Sm0 3.587820 1_455
Pb0 Sm0 3.587820 1_445
Pb0 Sm0 3.587820 1_545
Pb0 Sm0 3.587820 1_454
Au0 Sm0 3.107130 1_555
Au0 Pb0 3.107139 1_565
Au0 Pb0 3.107139 1_655
Au0 Pb0 3.107140 1_556
Au0 Sm0 3.107147 1_545
Au0 Sm0 3.107148 1_455
Au0 Sm0 3.107148 1_554
Au0 Pb0 3.107155 1_555
Au1 Sm0 3.107142 1_444
Au1 Pb0 3.107142 1_555
Au1 Pb0 3.107143 1_545
Au1 Sm0 3.107143 1_454
Au1 Sm0 3.107143 1_544
Au1 Pb0 3.107143 1_455
Au1 Sm0 3.107144 1_445
Au1 Pb0 3.107144 1_554
