# generated using pymatgen
data_K2SrCdSb2
_symmetry_space_group_name_H-M   'P 1'
_cell_length_a   4.99711900
_cell_length_b   8.32600600
_cell_length_c   9.97313900
_cell_angle_alpha   90.00000000
_cell_angle_beta   90.00000000
_cell_angle_gamma   90.00000000
_symmetry_Int_Tables_number   1
_chemical_formula_structural   K2SrCdSb2
_chemical_formula_sum   'K4 Sr2 Cd2 Sb4'
_cell_volume   414.94284785
_cell_formula_units_Z   2
loop_
 _symmetry_equiv_pos_site_id
 _symmetry_equiv_pos_as_xyz
  1  'x, y, z'
loop_
 _atom_site_type_symbol
 _atom_site_label
 _atom_site_symmetry_multiplicity
 _atom_site_fract_x
 _atom_site_fract_y
 _atom_site_fract_z
 _atom_site_occupancy
  K  K0  1  0.50000000  0.02486700  0.42226900  1
  K  K1  1  0.00000000  0.34092000  0.33757000  1
  K  K2  1  0.50000000  0.52486700  0.57773100  1
  K  K3  1  0.00000000  0.84092000  0.66243000  1
  Sr  Sr0  1  0.00000000  0.49606900  0.95409700  1
  Sr  Sr1  1  0.00000000  0.99606900  0.04590300  1
  Cd  Cd0  1  0.50000000  0.15180400  0.82443300  1
  Cd  Cd1  1  0.50000000  0.65180400  0.17556700  1
  Sb  Sb0  1  0.00000000  0.24943700  0.68490200  1
  Sb  Sb1  1  0.50000000  0.28242300  0.10957100  1
  Sb  Sb2  1  0.00000000  0.74943700  0.31509800  1
  Sb  Sb3  1  0.50000000  0.78242300  0.89042900  1
loop_
_geom_bond_atom_site_label_1
_geom_bond_atom_site_label_2
_geom_bond_distance
_geom_bond_site_symmetry_2
K0 Sb2 3.555856 1_545
K0 Sb2 3.555856 1_645
K0 Sb1 3.784713 1_555
K1 Sb2 3.408691 1_555
K1 Sb1 3.413280 1_455
K1 Sb1 3.413280 1_555
K1 Sb0 3.546745 1_555
K2 Sb0 3.555856 1_555
K2 Sb0 3.555856 1_655
K2 Sb3 3.784713 1_555
K3 Sb0 3.408691 1_565
K3 Sb3 3.413280 1_555
K3 Sb3 3.413280 1_455
K3 Sb2 3.546745 1_555
Cd0 Sb0 2.973220 1_555
Cd0 Sb0 2.973220 1_655
Cd0 Sb1 3.044582 1_556
Cd0 Sb3 3.145110 1_545
Cd0 Sr1 3.578084 1_546
Cd0 Sr1 3.578084 1_646
Cd0 K3 3.943748 1_545
Cd0 K3 3.943748 1_645
Cd0 K2 3.962518 1_555
Cd0 Sr0 4.016346 1_555
Cd0 Sr0 4.016346 1_655
Cd0 K0 4.147747 1_555
Cd1 Sb2 2.973220 1_555
Cd1 Sb2 2.973220 1_655
Cd1 Sb3 3.044582 1_554
Cd1 Sb1 3.145110 1_555
Cd1 Sr0 3.578084 1_654
Cd1 Sr0 3.578084 1_554
Cd1 K1 3.943748 1_555
Cd1 K1 3.943748 1_655
Cd1 K0 3.962518 1_565
Cd1 Sr1 4.016346 1_555
Cd1 Sr1 4.016346 1_655
Cd1 K2 4.147747 1_555
Sb0 Sr0 3.380002 1_555
Sb1 Sr0 3.436749 1_554
Sb1 Sr0 3.436749 1_654
Sb1 Sr1 3.511456 1_545
Sb1 Sr1 3.511456 1_645
Sb2 Sr1 3.380002 1_555
Sb3 Sr1 3.436749 1_556
Sb3 Sr1 3.436749 1_656
Sb3 Sr0 3.511456 1_555
Sb3 Sr0 3.511456 1_655
