# generated using pymatgen
data_Ga2IrRu
_symmetry_space_group_name_H-M   'P 1'
_cell_length_a   4.25481323
_cell_length_b   4.25483219
_cell_length_c   4.25476006
_cell_angle_alpha   60.02076905
_cell_angle_beta   60.01990984
_cell_angle_gamma   60.02207927
_symmetry_Int_Tables_number   1
_chemical_formula_structural   Ga2IrRu
_chemical_formula_sum   'Ga2 Ir1 Ru1'
_cell_volume   54.49151982
_cell_formula_units_Z   1
loop_
 _symmetry_equiv_pos_site_id
 _symmetry_equiv_pos_as_xyz
  1  'x, y, z'
loop_
 _atom_site_type_symbol
 _atom_site_label
 _atom_site_symmetry_multiplicity
 _atom_site_fract_x
 _atom_site_fract_y
 _atom_site_fract_z
 _atom_site_occupancy
  Ga  Ga0  1  0.50001016  0.50001170  0.50000931  1
  Ga  Ga1  1  0.99999149  0.99998697  0.99999017  1
  Ir  Ir0  1  0.25000267  0.24999914  0.24999750  1
  Ru  Ru0  1  0.74999768  0.75000319  0.75000403  1
loop_
_geom_bond_atom_site_label_1
_geom_bond_atom_site_label_2
_geom_bond_distance
_geom_bond_site_symmetry_2
Ga0 Ru0 2.605020 1_555
Ga0 Ir0 2.605222 1_555
Ga0 Ir0 2.606113 1_556
Ga0 Ru0 2.606172 1_554
Ga0 Ir0 2.606195 1_655
Ga0 Ir0 2.606211 1_565
Ga0 Ru0 2.606264 1_455
Ga0 Ru0 2.606285 1_545
Ga1 Ru0 2.604985 1_555
Ga1 Ir0 2.605218 1_666
Ga1 Ir0 2.606128 1_665
Ga1 Ir0 2.606182 1_566
Ga1 Ru0 2.606202 1_556
Ga1 Ir0 2.606213 1_656
Ga1 Ru0 2.606242 1_655
Ga1 Ru0 2.606311 1_565
