# generated using pymatgen
data_Nd2IrPd
_symmetry_space_group_name_H-M   'P 1'
_cell_length_a   5.06365813
_cell_length_b   5.06365813
_cell_length_c   5.06365813
_cell_angle_alpha   60.00000000
_cell_angle_beta   60.00000000
_cell_angle_gamma   60.00000000
_symmetry_Int_Tables_number   1
_chemical_formula_structural   Nd2IrPd
_chemical_formula_sum   'Nd2 Ir1 Pd1'
_cell_volume   91.80749385
_cell_formula_units_Z   1
loop_
 _symmetry_equiv_pos_site_id
 _symmetry_equiv_pos_as_xyz
  1  'x, y, z'
loop_
 _atom_site_type_symbol
 _atom_site_label
 _atom_site_symmetry_multiplicity
 _atom_site_fract_x
 _atom_site_fract_y
 _atom_site_fract_z
 _atom_site_occupancy
  Nd  Nd0  1  0.25000000  0.25000000  0.25000000  1
  Nd  Nd1  1  0.75000000  0.75000000  0.75000000  1
  Ir  Ir0  1  0.50000000  0.50000000  0.50000000  1
  Pd  Pd0  1  0.00000000  0.00000000  0.00000000  1
loop_
_geom_bond_atom_site_label_1
_geom_bond_atom_site_label_2
_geom_bond_distance
_geom_bond_site_symmetry_2
Nd0 Pd0 3.100845 1_555
Nd0 Pd0 3.100845 1_556
Nd0 Pd0 3.100845 1_565
Nd0 Pd0 3.100845 1_655
Nd1 Pd0 3.100845 1_666
Nd1 Pd0 3.100845 1_665
Nd1 Pd0 3.100845 1_566
Nd1 Pd0 3.100845 1_656
Ir0 Nd1 3.100845 1_554
Ir0 Nd0 3.100845 1_555
Ir0 Nd0 3.100845 1_556
Ir0 Nd1 3.100845 1_555
Ir0 Nd0 3.100845 1_565
Ir0 Nd1 3.100845 1_545
Ir0 Nd0 3.100845 1_655
Ir0 Nd1 3.100845 1_455
