# generated using pymatgen
data_Li6MnV3(PO4)6
_symmetry_space_group_name_H-M   'P 1'
_cell_length_a   8.61141300
_cell_length_b   8.65152210
_cell_length_c   12.71822734
_cell_angle_alpha   105.84140001
_cell_angle_beta   106.15945121
_cell_angle_gamma   94.46358607
_symmetry_Int_Tables_number   1
_chemical_formula_structural   Li6MnV3(PO4)6
_chemical_formula_sum   'Li12 Mn2 V6 P12 O48'
_cell_volume   863.31752114
_cell_formula_units_Z   2
loop_
 _symmetry_equiv_pos_site_id
 _symmetry_equiv_pos_as_xyz
  1  'x, y, z'
loop_
 _atom_site_type_symbol
 _atom_site_label
 _atom_site_symmetry_multiplicity
 _atom_site_fract_x
 _atom_site_fract_y
 _atom_site_fract_z
 _atom_site_occupancy
  Li  Li0  1  0.99505300  0.00621000  0.12654700  1
  Li  Li1  1  0.99198300  0.00497300  0.62462000  1
  Li  Li2  1  0.71399400  0.28955400  0.37649000  1
  Li  Li3  1  0.50037400  0.50077600  0.25124300  1
  Li  Li4  1  0.71200800  0.28739900  0.87446400  1
  Li  Li5  1  0.50000000  0.50000000  0.50000000  1
  Li  Li6  1  0.28799200  0.71260100  0.12553600  1
  Li  Li7  1  0.49962600  0.49922400  0.74875700  1
  Li  Li8  1  0.50000000  0.50000000  0.00000000  1
  Li  Li9  1  0.28600600  0.71044600  0.62351000  1
  Li  Li10  1  0.00801700  0.99502700  0.37538000  1
  Li  Li11  1  0.00494700  0.99379000  0.87345300  1
  Mn  Mn0  1  0.94201400  0.62520400  0.68285100  1
  Mn  Mn1  1  0.05798600  0.37479600  0.31714900  1
  V  V0  1  0.94226300  0.62214600  0.18083600  1
  V  V1  1  0.62027700  0.94290400  0.43035100  1
  V  V2  1  0.38034200  0.05704200  0.07072600  1
  V  V3  1  0.61965800  0.94295800  0.92927400  1
  V  V4  1  0.37972300  0.05709600  0.56964900  1
  V  V5  1  0.05773700  0.37785400  0.81916400  1
  P  P0  1  0.71561900  0.28729500  0.12508200  1
  P  P1  1  0.86080600  0.66341500  0.43303400  1
  P  P2  1  0.66145100  0.86289900  0.18181800  1
  P  P3  1  0.71595000  0.28772300  0.62520800  1
  P  P4  1  0.86285100  0.66125200  0.93100200  1
  P  P5  1  0.66138200  0.86670100  0.68252300  1
  P  P6  1  0.33861800  0.13329900  0.31747700  1
  P  P7  1  0.13714900  0.33874800  0.06899800  1
  P  P8  1  0.28405000  0.71227700  0.37479200  1
  P  P9  1  0.33854900  0.13710100  0.81818200  1
  P  P10  1  0.13919400  0.33658500  0.56696600  1
  P  P11  1  0.28438100  0.71270500  0.87491800  1
  O  O0  1  0.98909600  0.65994600  0.04480500  1
  O  O1  1  0.94601100  0.61175500  0.33767900  1
  O  O2  1  0.74373600  0.17130300  0.01785000  1
  O  O3  1  0.98660700  0.66161000  0.54822300  1
  O  O4  1  0.83047200  0.26363500  0.23679700  1
  O  O5  1  0.84500500  0.84286900  0.19524700  1
  O  O6  1  0.73585400  0.46166500  0.11358500  1
  O  O7  1  0.84039500  0.84706300  0.45005700  1
  O  O8  1  0.95028600  0.59897600  0.83529300  1
  O  O9  1  0.74243900  0.17263000  0.51664400  1
  O  O10  1  0.82842600  0.25807400  0.73440000  1
  O  O11  1  0.84602500  0.85482800  0.69815200  1
  O  O12  1  0.70237000  0.54430100  0.39847200  1
  O  O13  1  0.60089100  0.94981100  0.08653100  1
  O  O14  1  0.66136700  0.98759200  0.29576900  1
  O  O15  1  0.54020900  0.26234600  0.13555400  1
  O  O16  1  0.74095700  0.46349800  0.61553300  1
  O  O17  1  0.54367300  0.70406100  0.14758300  1
  O  O18  1  0.84304500  0.84374400  0.94439900  1
  O  O19  1  0.70293400  0.54474800  0.89699300  1
  O  O20  1  0.59773500  0.95162400  0.58656900  1
  O  O21  1  0.45326600  0.29380900  0.35113800  1
  O  O22  1  0.65696800  0.99039500  0.79625000  1
  O  O23  1  0.53913200  0.26577400  0.63399800  1
  O  O24  1  0.46086800  0.73422600  0.36600200  1
  O  O25  1  0.34303200  0.00960500  0.20375000  1
  O  O26  1  0.54673400  0.70619100  0.64886200  1
  O  O27  1  0.40226500  0.04837600  0.41343100  1
  O  O28  1  0.29706600  0.45525200  0.10300700  1
  O  O29  1  0.15695500  0.15625600  0.05560100  1
  O  O30  1  0.45632700  0.29593900  0.85241700  1
  O  O31  1  0.25904300  0.53650200  0.38446700  1
  O  O32  1  0.45979100  0.73765400  0.86444600  1
  O  O33  1  0.33863300  0.01240800  0.70423100  1
  O  O34  1  0.39910900  0.05018900  0.91346900  1
  O  O35  1  0.29763000  0.45569900  0.60152800  1
  O  O36  1  0.15397500  0.14517200  0.30184800  1
  O  O37  1  0.17157400  0.74192600  0.26560000  1
  O  O38  1  0.25756100  0.82737000  0.48335600  1
  O  O39  1  0.04971400  0.40102400  0.16470700  1
  O  O40  1  0.15960500  0.15293700  0.54994300  1
  O  O41  1  0.26414600  0.53833500  0.88641500  1
  O  O42  1  0.15499500  0.15713100  0.80475300  1
  O  O43  1  0.16952800  0.73636500  0.76320300  1
  O  O44  1  0.01339300  0.33839000  0.45177700  1
  O  O45  1  0.25626400  0.82869700  0.98215000  1
  O  O46  1  0.05398900  0.38824500  0.66232100  1
  O  O47  1  0.01090400  0.34005400  0.95519500  1
loop_
_geom_bond_atom_site_label_1
_geom_bond_atom_site_label_2
_geom_bond_distance
_geom_bond_site_symmetry_2
Li0 O36 2.207080 1_655
Li0 O18 2.302990 1_544
Li0 O5 2.334161 1_545
Li0 O29 2.345443 1_655
Li1 O7 2.225482 1_545
Li1 O11 2.281476 1_545
Li1 O42 2.286437 1_655
Li1 O40 2.400744 1_655
Li2 O12 2.158493 1_555
Li2 O21 2.182382 1_555
Li2 O4 2.241045 1_555
Li2 O9 2.245122 1_555
Li2 O44 2.445025 1_655
Li2 O14 2.485287 1_545
Li3 O12 2.091381 1_555
Li3 O28 2.103496 1_555
Li3 O24 2.258123 1_555
Li3 O15 2.296021 1_555
Li3 O21 2.529958 1_555
Li3 O17 2.531337 1_555
Li4 O30 2.150553 1_555
Li4 O19 2.176370 1_555
Li4 O10 2.242674 1_555
Li4 O2 2.274737 1_556
Li4 O22 2.443197 1_545
Li4 O47 2.444974 1_655
Li5 O21 2.132808 1_555
Li5 O26 2.132808 1_555
Li5 O31 2.285293 1_555
Li5 O16 2.285293 1_555
Li5 O35 2.503995 1_555
Li5 O12 2.503995 1_555
Li6 O17 2.150553 1_555
Li6 O28 2.176370 1_555
Li6 O37 2.242674 1_555
Li6 O45 2.274737 1_554
Li6 O25 2.443197 1_565
Li6 O0 2.444974 1_455
Li7 O35 2.091381 1_555
Li7 O19 2.103496 1_555
Li7 O23 2.258123 1_555
Li7 O32 2.296021 1_555
Li7 O26 2.529958 1_555
Li7 O30 2.531337 1_555
Li8 O17 2.115637 1_555
Li8 O30 2.115637 1_554
Li8 O6 2.248386 1_555
Li8 O41 2.248386 1_554
Li8 O19 2.523093 1_554
Li8 O28 2.523093 1_555
Li9 O35 2.158493 1_555
Li9 O26 2.182382 1_555
Li9 O43 2.241045 1_555
Li9 O38 2.245122 1_555
Li9 O3 2.445025 1_455
Li9 O33 2.485287 1_565
Li10 O40 2.225482 1_565
Li10 O36 2.281476 1_565
Li10 O5 2.286437 1_455
Li10 O7 2.400744 1_455
Li11 O11 2.207080 1_455
Li11 O29 2.302990 1_566
Li11 O42 2.334161 1_565
Li11 O18 2.345443 1_455
Mn0 O3 1.954478 1_555
Mn0 O16 1.957515 1_555
Mn0 O43 1.965570 1_655
Mn0 O8 1.995320 1_555
Mn0 O11 2.191296 1_555
Mn0 O46 2.314369 1_655
Mn1 O44 1.954478 1_555
Mn1 O31 1.957515 1_555
Mn1 O4 1.965570 1_455
Mn1 O39 1.995320 1_555
Mn1 O36 2.191296 1_555
Mn1 O1 2.314369 1_455
O0 P4 1.553028 1_554
O0 V0 1.984814 1_555
O1 P1 1.568217 1_555
O1 V0 2.012642 1_555
O2 P0 1.549209 1_555
O2 V3 2.024821 1_544
O3 P1 1.565817 1_555
O4 P0 1.564267 1_555
O5 P2 1.570416 1_555
O5 V0 2.127177 1_555
O6 P0 1.556024 1_555
O6 V0 1.984932 1_555
O7 P1 1.574488 1_555
O7 V1 2.106423 1_555
O8 P4 1.598168 1_555
O8 V5 2.173690 1_655
O9 P3 1.552426 1_555
O9 V1 2.025415 1_545
O10 P3 1.554654 1_555
O10 V5 2.005517 1_655
O11 P5 1.561706 1_555
O12 P1 1.522066 1_555
O13 P2 1.585166 1_555
O13 V3 2.036276 1_554
O13 V2 2.161416 1_565
O14 P2 1.552824 1_555
O14 V1 1.970157 1_555
O15 P0 1.556583 1_555
O15 V2 1.979385 1_555
O16 P3 1.562064 1_555
O17 P2 1.522250 1_555
O18 P4 1.569095 1_555
O18 V3 2.148368 1_555
O19 P4 1.521131 1_555
O20 P5 1.584101 1_555
O20 V1 2.031240 1_555
O20 V4 2.133665 1_565
O21 P6 1.520901 1_555
O22 P5 1.559043 1_555
O22 V3 1.948090 1_555
O23 P3 1.558321 1_555
O23 V4 1.998961 1_555
O24 P8 1.558321 1_555
O24 V1 1.998961 1_555
O25 P6 1.559043 1_555
O25 V2 1.948090 1_555
O26 P5 1.520901 1_555
O27 P6 1.584101 1_555
O27 V4 2.031240 1_555
O27 V1 2.133665 1_545
O28 P7 1.521131 1_555
O29 P7 1.569095 1_555
O29 V2 2.148368 1_555
O30 P9 1.522250 1_555
O31 P8 1.562064 1_555
O32 P11 1.556583 1_555
O32 V3 1.979385 1_555
O33 P9 1.552824 1_555
O33 V4 1.970157 1_555
O34 P9 1.585166 1_555
O34 V2 2.036276 1_556
O34 V3 2.161416 1_545
O35 P10 1.522066 1_555
O36 P6 1.561706 1_555
O37 P8 1.554654 1_555
O37 V0 2.005517 1_455
O38 P8 1.552426 1_555
O38 V4 2.025415 1_565
O39 P7 1.598168 1_555
O39 V0 2.173690 1_455
O40 P10 1.574488 1_555
O40 V4 2.106423 1_555
O41 P11 1.556024 1_555
O41 V5 1.984932 1_555
O42 P9 1.570416 1_555
O42 V5 2.127177 1_555
O43 P11 1.564267 1_555
O44 P10 1.565817 1_555
O45 P11 1.549209 1_555
O45 V2 2.024821 1_566
O46 P10 1.568217 1_555
O46 V5 2.012642 1_555
O47 P7 1.553028 1_556
O47 V5 1.984814 1_555
