# generated using pymatgen
data_LiPm2Ga
_symmetry_space_group_name_H-M   'P 1'
_cell_length_a   5.22149375
_cell_length_b   5.22149375
_cell_length_c   5.22149375
_cell_angle_alpha   60.00000000
_cell_angle_beta   60.00000000
_cell_angle_gamma   60.00000000
_symmetry_Int_Tables_number   1
_chemical_formula_structural   LiPm2Ga
_chemical_formula_sum   'Li1 Pm2 Ga1'
_cell_volume   100.66286577
_cell_formula_units_Z   1
loop_
 _symmetry_equiv_pos_site_id
 _symmetry_equiv_pos_as_xyz
  1  'x, y, z'
loop_
 _atom_site_type_symbol
 _atom_site_label
 _atom_site_symmetry_multiplicity
 _atom_site_fract_x
 _atom_site_fract_y
 _atom_site_fract_z
 _atom_site_occupancy
  Li  Li0  1  0.75000100  0.75000100  0.75000100  1
  Pm  Pm0  1  0.00000000  0.00000000  0.00000000  1
  Pm  Pm1  1  0.50000000  0.50000000  0.50000000  1
  Ga  Ga0  1  0.25000000  0.25000000  0.25000000  1
loop_
_geom_bond_atom_site_label_1
_geom_bond_atom_site_label_2
_geom_bond_distance
_geom_bond_site_symmetry_2
Li0 Pm0 3.197486 1_666
Li0 Pm1 3.197495 1_556
Li0 Pm1 3.197495 1_565
Li0 Pm1 3.197495 1_655
Li0 Pm0 3.197503 1_656
Li0 Pm0 3.197503 1_566
Li0 Pm0 3.197503 1_665
Li0 Pm1 3.197512 1_555
Ga0 Pm0 3.197499 1_655
Ga0 Pm1 3.197499 1_545
Ga0 Pm0 3.197499 1_556
Ga0 Pm1 3.197499 1_455
Ga0 Pm1 3.197499 1_554
Ga0 Pm1 3.197499 1_555
Ga0 Pm0 3.197499 1_555
Ga0 Pm0 3.197499 1_565
