# generated using pymatgen
data_TiVTc2
_symmetry_space_group_name_H-M   'P 1'
_cell_length_a   4.31381002
_cell_length_b   4.31381003
_cell_length_c   4.31380998
_cell_angle_alpha   59.99993336
_cell_angle_beta   59.99993244
_cell_angle_gamma   59.99993184
_symmetry_Int_Tables_number   1
_chemical_formula_structural   TiVTc2
_chemical_formula_sum   'Ti1 V1 Tc2'
_cell_volume   56.76326657
_cell_formula_units_Z   1
loop_
 _symmetry_equiv_pos_site_id
 _symmetry_equiv_pos_as_xyz
  1  'x, y, z'
loop_
 _atom_site_type_symbol
 _atom_site_label
 _atom_site_symmetry_multiplicity
 _atom_site_fract_x
 _atom_site_fract_y
 _atom_site_fract_z
 _atom_site_occupancy
  Ti  Ti0  1  0.25000069  0.25000071  0.25000071  1
  V  V0  1  0.74999997  0.75000000  0.75000000  1
  Tc  Tc0  1  -0.00000001  -0.00000000  -0.00000003  1
  Tc  Tc1  1  0.49999934  0.49999930  0.49999932  1
loop_
_geom_bond_atom_site_label_1
_geom_bond_atom_site_label_2
_geom_bond_distance
_geom_bond_site_symmetry_2
Tc0 Ti0 2.641653 1_554
Tc0 Ti0 2.641654 1_545
Tc0 Ti0 2.641654 1_455
Tc0 V0 2.641656 1_544
Tc0 V0 2.641656 1_454
Tc0 V0 2.641656 1_445
Tc0 V0 2.641660 1_444
Tc0 Ti0 2.641667 1_555
Tc1 Ti0 2.641645 1_555
Tc1 V0 2.641654 1_545
Tc1 V0 2.641654 1_554
Tc1 V0 2.641654 1_455
Tc1 Ti0 2.641661 1_655
Tc1 Ti0 2.641661 1_556
Tc1 Ti0 2.641661 1_565
Tc1 V0 2.641667 1_555
