# generated using pymatgen
data_NiP(H4O3)3
_symmetry_space_group_name_H-M   'P 1'
_cell_length_a   7.31342800
_cell_length_b   11.31576100
_cell_length_c   18.52526500
_cell_angle_alpha   90.00000000
_cell_angle_beta   90.00000000
_cell_angle_gamma   90.00000000
_symmetry_Int_Tables_number   1
_chemical_formula_structural   NiP(H4O3)3
_chemical_formula_sum   'Ni8 P8 H96 O72'
_cell_volume   1533.09541746
_cell_formula_units_Z   8
loop_
 _symmetry_equiv_pos_site_id
 _symmetry_equiv_pos_as_xyz
  1  'x, y, z'
loop_
 _atom_site_type_symbol
 _atom_site_label
 _atom_site_symmetry_multiplicity
 _atom_site_fract_x
 _atom_site_fract_y
 _atom_site_fract_z
 _atom_site_occupancy
  Ni  Ni0  1  0.00000000  0.00000000  0.00000000  1
  Ni  Ni1  1  0.50000000  0.00000000  0.50000000  1
  Ni  Ni2  1  0.00000000  0.19955600  0.67539400  1
  Ni  Ni3  1  0.50000000  0.30044400  0.17539400  1
  Ni  Ni4  1  0.00000000  0.50000000  0.00000000  1
  Ni  Ni5  1  0.50000000  0.50000000  0.50000000  1
  Ni  Ni6  1  0.50000000  0.69955600  0.82460600  1
  Ni  Ni7  1  0.00000000  0.80044400  0.32460600  1
  P  P0  1  0.50000000  0.11311000  0.85766200  1
  P  P1  1  0.00000000  0.20669800  0.31295900  1
  P  P2  1  0.50000000  0.29330200  0.81295900  1
  P  P3  1  0.00000000  0.38689000  0.35766200  1
  P  P4  1  0.00000000  0.61311000  0.64233800  1
  P  P5  1  0.50000000  0.70669800  0.18704100  1
  P  P6  1  0.00000000  0.79330200  0.68704100  1
  P  P7  1  0.50000000  0.88689000  0.14233800  1
  H  H0  1  0.18339900  0.99419000  0.68189400  1
  H  H1  1  0.81660100  0.99419000  0.68189400  1
  H  H2  1  0.11178100  0.05129700  0.86683500  1
  H  H3  1  0.88821900  0.05129700  0.86683500  1
  H  H4  1  0.26258200  0.07768700  0.74395400  1
  H  H5  1  0.73741800  0.07768700  0.74395400  1
  H  H6  1  0.60815300  0.08529700  0.63167400  1
  H  H7  1  0.39184700  0.08529700  0.63167400  1
  H  H8  1  0.31837900  0.09404000  0.16404600  1
  H  H9  1  0.68162100  0.09404000  0.16404600  1
  H  H10  1  0.24275800  0.12756300  0.42444400  1
  H  H11  1  0.75724200  0.12756300  0.42444400  1
  H  H12  1  0.68530900  0.12427900  0.98494900  1
  H  H13  1  0.31469100  0.12427900  0.98494900  1
  H  H14  1  0.10794500  0.12607900  0.53961800  1
  H  H15  1  0.89205500  0.12607900  0.53961800  1
  H  H16  1  0.22656200  0.15064000  0.06334600  1
  H  H17  1  0.77343800  0.15064000  0.06334600  1
  H  H18  1  0.32715200  0.20786200  0.48657100  1
  H  H19  1  0.67284800  0.20786200  0.48657100  1
  H  H20  1  0.17836300  0.19847200  0.18206100  1
  H  H21  1  0.82163700  0.19847200  0.18206100  1
  H  H22  1  0.38987800  0.20891500  0.30393400  1
  H  H23  1  0.61012200  0.20891500  0.30393400  1
  H  H24  1  0.11012200  0.29108500  0.80393400  1
  H  H25  1  0.88987800  0.29108500  0.80393400  1
  H  H26  1  0.32163700  0.30152800  0.68206100  1
  H  H27  1  0.67836300  0.30152800  0.68206100  1
  H  H28  1  0.17284800  0.29213800  0.98657100  1
  H  H29  1  0.82715200  0.29213800  0.98657100  1
  H  H30  1  0.27343800  0.34936000  0.56334600  1
  H  H31  1  0.72656200  0.34936000  0.56334600  1
  H  H32  1  0.60794500  0.37392100  0.03961800  1
  H  H33  1  0.39205500  0.37392100  0.03961800  1
  H  H34  1  0.81469100  0.37572100  0.48494900  1
  H  H35  1  0.18530900  0.37572100  0.48494900  1
  H  H36  1  0.25724200  0.37243700  0.92444400  1
  H  H37  1  0.74275800  0.37243700  0.92444400  1
  H  H38  1  0.81837900  0.40596000  0.66404600  1
  H  H39  1  0.18162100  0.40596000  0.66404600  1
  H  H40  1  0.89184700  0.41470300  0.13167400  1
  H  H41  1  0.10815300  0.41470300  0.13167400  1
  H  H42  1  0.76258200  0.42231300  0.24395400  1
  H  H43  1  0.23741800  0.42231300  0.24395400  1
  H  H44  1  0.38821900  0.44870300  0.36683500  1
  H  H45  1  0.61178100  0.44870300  0.36683500  1
  H  H46  1  0.31660100  0.50581000  0.18189400  1
  H  H47  1  0.68339900  0.50581000  0.18189400  1
  H  H48  1  0.31660100  0.49419000  0.81810600  1
  H  H49  1  0.68339900  0.49419000  0.81810600  1
  H  H50  1  0.38821900  0.55129700  0.63316500  1
  H  H51  1  0.61178100  0.55129700  0.63316500  1
  H  H52  1  0.23741800  0.57768700  0.75604600  1
  H  H53  1  0.76258200  0.57768700  0.75604600  1
  H  H54  1  0.10815300  0.58529700  0.86832600  1
  H  H55  1  0.89184700  0.58529700  0.86832600  1
  H  H56  1  0.18162100  0.59404000  0.33595400  1
  H  H57  1  0.81837900  0.59404000  0.33595400  1
  H  H58  1  0.25724200  0.62756300  0.07555600  1
  H  H59  1  0.74275800  0.62756300  0.07555600  1
  H  H60  1  0.18530900  0.62427900  0.51505100  1
  H  H61  1  0.81469100  0.62427900  0.51505100  1
  H  H62  1  0.39205500  0.62607900  0.96038200  1
  H  H63  1  0.60794500  0.62607900  0.96038200  1
  H  H64  1  0.27343800  0.65064000  0.43665400  1
  H  H65  1  0.72656200  0.65064000  0.43665400  1
  H  H66  1  0.17284800  0.70786200  0.01342900  1
  H  H67  1  0.82715200  0.70786200  0.01342900  1
  H  H68  1  0.32163700  0.69847200  0.31793900  1
  H  H69  1  0.67836300  0.69847200  0.31793900  1
  H  H70  1  0.11012200  0.70891500  0.19606600  1
  H  H71  1  0.88987800  0.70891500  0.19606600  1
  H  H72  1  0.38987800  0.79108500  0.69606600  1
  H  H73  1  0.61012200  0.79108500  0.69606600  1
  H  H74  1  0.17836300  0.80152800  0.81793900  1
  H  H75  1  0.82163700  0.80152800  0.81793900  1
  H  H76  1  0.32715200  0.79213800  0.51342900  1
  H  H77  1  0.67284800  0.79213800  0.51342900  1
  H  H78  1  0.22656200  0.84936000  0.93665400  1
  H  H79  1  0.77343800  0.84936000  0.93665400  1
  H  H80  1  0.10794500  0.87392100  0.46038200  1
  H  H81  1  0.89205500  0.87392100  0.46038200  1
  H  H82  1  0.31469100  0.87572100  0.01505100  1
  H  H83  1  0.68530900  0.87572100  0.01505100  1
  H  H84  1  0.24275800  0.87243700  0.57555600  1
  H  H85  1  0.75724200  0.87243700  0.57555600  1
  H  H86  1  0.31837900  0.90596000  0.83595400  1
  H  H87  1  0.68162100  0.90596000  0.83595400  1
  H  H88  1  0.39184700  0.91470300  0.36832600  1
  H  H89  1  0.60815300  0.91470300  0.36832600  1
  H  H90  1  0.26258200  0.92231300  0.25604600  1
  H  H91  1  0.73741800  0.92231300  0.25604600  1
  H  H92  1  0.11178100  0.94870300  0.13316500  1
  H  H93  1  0.88821900  0.94870300  0.13316500  1
  H  H94  1  0.18339900  0.00581000  0.31810600  1
  H  H95  1  0.81660100  0.00581000  0.31810600  1
  O  O0  1  0.00000000  0.02286300  0.89181700  1
  O  O1  1  0.32534900  0.05333700  0.82725800  1
  O  O2  1  0.67465100  0.05333700  0.82725800  1
  O  O3  1  0.21327300  0.07955200  0.69300000  1
  O  O4  1  0.78672700  0.07955200  0.69300000  1
  O  O5  1  0.50000000  0.08243800  0.59893200  1
  O  O6  1  0.50000000  0.11769000  0.94038900  1
  O  O7  1  0.70712100  0.12438900  0.47533100  1
  O  O8  1  0.29287900  0.12438900  0.47533100  1
  O  O9  1  0.19453800  0.13823200  0.01149400  1
  O  O10  1  0.80546200  0.13823200  0.01149400  1
  O  O11  1  0.00000000  0.12741100  0.57189700  1
  O  O12  1  0.17673500  0.14442300  0.34004200  1
  O  O13  1  0.82326500  0.14442300  0.34004200  1
  O  O14  1  0.29238900  0.17931800  0.15258800  1
  O  O15  1  0.70761100  0.17931800  0.15258800  1
  O  O16  1  0.00000000  0.21962300  0.23028600  1
  O  O17  1  0.50000000  0.24893300  0.28429500  1
  O  O18  1  0.00000000  0.25106700  0.78429500  1
  O  O19  1  0.50000000  0.28037700  0.73028600  1
  O  O20  1  0.20761100  0.32068200  0.65258800  1
  O  O21  1  0.79238900  0.32068200  0.65258800  1
  O  O22  1  0.32326500  0.35557700  0.84004200  1
  O  O23  1  0.67673500  0.35557700  0.84004200  1
  O  O24  1  0.50000000  0.37258900  0.07189700  1
  O  O25  1  0.30546200  0.36176800  0.51149400  1
  O  O26  1  0.69453800  0.36176800  0.51149400  1
  O  O27  1  0.79287900  0.37561100  0.97533100  1
  O  O28  1  0.20712100  0.37561100  0.97533100  1
  O  O29  1  0.00000000  0.38231000  0.44038900  1
  O  O30  1  0.00000000  0.41756200  0.09893200  1
  O  O31  1  0.71327300  0.42044800  0.19300000  1
  O  O32  1  0.28672700  0.42044800  0.19300000  1
  O  O33  1  0.82534900  0.44666300  0.32725800  1
  O  O34  1  0.17465100  0.44666300  0.32725800  1
  O  O35  1  0.50000000  0.47713700  0.39181700  1
  O  O36  1  0.50000000  0.52286300  0.60818300  1
  O  O37  1  0.17465100  0.55333700  0.67274200  1
  O  O38  1  0.82534900  0.55333700  0.67274200  1
  O  O39  1  0.28672700  0.57955200  0.80700000  1
  O  O40  1  0.71327300  0.57955200  0.80700000  1
  O  O41  1  0.00000000  0.58243800  0.90106800  1
  O  O42  1  0.00000000  0.61769000  0.55961100  1
  O  O43  1  0.20712100  0.62438900  0.02466900  1
  O  O44  1  0.79287900  0.62438900  0.02466900  1
  O  O45  1  0.30546200  0.63823200  0.48850600  1
  O  O46  1  0.69453800  0.63823200  0.48850600  1
  O  O47  1  0.50000000  0.62741100  0.92810300  1
  O  O48  1  0.32326500  0.64442300  0.15995800  1
  O  O49  1  0.67673500  0.64442300  0.15995800  1
  O  O50  1  0.20761100  0.67931800  0.34741200  1
  O  O51  1  0.79238900  0.67931800  0.34741200  1
  O  O52  1  0.50000000  0.71962300  0.26971400  1
  O  O53  1  0.00000000  0.74893300  0.21570500  1
  O  O54  1  0.50000000  0.75106700  0.71570500  1
  O  O55  1  0.00000000  0.78037700  0.76971400  1
  O  O56  1  0.29238900  0.82068200  0.84741200  1
  O  O57  1  0.70761100  0.82068200  0.84741200  1
  O  O58  1  0.17673500  0.85557700  0.65995800  1
  O  O59  1  0.82326500  0.85557700  0.65995800  1
  O  O60  1  0.00000000  0.87258900  0.42810300  1
  O  O61  1  0.19453800  0.86176800  0.98850600  1
  O  O62  1  0.80546200  0.86176800  0.98850600  1
  O  O63  1  0.29287900  0.87561100  0.52466900  1
  O  O64  1  0.70712100  0.87561100  0.52466900  1
  O  O65  1  0.50000000  0.88231000  0.05961100  1
  O  O66  1  0.50000000  0.91756200  0.40106800  1
  O  O67  1  0.21327300  0.92044800  0.30700000  1
  O  O68  1  0.78672700  0.92044800  0.30700000  1
  O  O69  1  0.32534900  0.94666300  0.17274200  1
  O  O70  1  0.67465100  0.94666300  0.17274200  1
  O  O71  1  0.00000000  0.97713700  0.10818300  1
loop_
_geom_bond_atom_site_label_1
_geom_bond_atom_site_label_2
_geom_bond_distance
_geom_bond_site_symmetry_2
Ni0 O71 2.020748 1_545
Ni0 O0 2.020748 1_554
Ni0 O9 2.125147 1_555
Ni0 O10 2.125147 1_455
Ni0 O61 2.125147 1_544
Ni0 O62 2.125147 1_444
Ni1 O5 2.056489 1_555
Ni1 O66 2.056489 1_545
Ni1 O8 2.117681 1_555
Ni1 O63 2.117681 1_545
Ni1 O7 2.117681 1_555
Ni1 O64 2.117681 1_545
Ni2 O11 2.083877 1_555
Ni2 O20 2.088662 1_555
Ni2 O21 2.088662 1_455
Ni2 O4 2.093612 1_455
Ni2 O3 2.093612 1_555
Ni2 O18 2.099938 1_555
Ni3 O24 2.083877 1_555
Ni3 O14 2.088662 1_555
Ni3 O15 2.088662 1_555
Ni3 O32 2.093612 1_555
Ni3 O31 2.093612 1_555
Ni3 O17 2.099938 1_555
Ni4 O41 2.056489 1_554
Ni4 O30 2.056489 1_555
Ni4 O43 2.117681 1_555
Ni4 O44 2.117681 1_455
Ni4 O27 2.117681 1_454
Ni4 O28 2.117681 1_554
Ni5 O35 2.020748 1_555
Ni5 O36 2.020748 1_555
Ni5 O25 2.125147 1_555
Ni5 O26 2.125147 1_555
Ni5 O45 2.125147 1_555
Ni5 O46 2.125147 1_555
Ni6 O47 2.083877 1_555
Ni6 O57 2.088662 1_555
Ni6 O56 2.088662 1_555
Ni6 O39 2.093612 1_555
Ni6 O40 2.093612 1_555
Ni6 O54 2.099938 1_555
Ni7 O60 2.083877 1_555
Ni7 O50 2.088662 1_555
Ni7 O51 2.088662 1_455
Ni7 O68 2.093612 1_455
Ni7 O67 2.093612 1_555
Ni7 O53 2.099938 1_555
H0 O3 1.011482 1_565
H0 O58 1.621031 1_555
H1 O4 1.011482 1_565
H1 O59 1.621031 1_555
H2 O0 0.992984 1_555
H2 O1 1.725588 1_555
H3 O0 0.992984 1_655
H3 O2 1.725588 1_555
H4 O3 1.010696 1_555
H4 O1 1.633461 1_555
H5 O4 1.010696 1_555
H5 O2 1.633461 1_555
H6 O5 0.997290 1_555
H7 O5 0.997290 1_555
H8 O14 1.006172 1_555
H8 O69 1.676221 1_545
H9 O15 1.006172 1_555
H9 O70 1.676221 1_545
H10 O8 1.012091 1_555
H10 O12 1.647512 1_555
H11 O7 1.012091 1_555
H11 O13 1.647512 1_555
H12 O10 1.019273 1_556
H12 O6 1.588607 1_555
H13 O9 1.019273 1_556
H13 O6 1.588607 1_555
H14 O11 0.990471 1_555
H15 O11 0.990471 1_655
H16 O9 0.998631 1_555
H17 O10 0.998631 1_555
H18 O8 0.999189 1_555
H19 O7 0.999189 1_555
H20 O14 1.020055 1_555
H20 O16 1.599059 1_555
H21 O15 1.020055 1_555
H21 O16 1.599059 1_655
H22 O17 0.992996 1_555
H23 O17 0.992996 1_555
H24 O18 0.992996 1_555
H25 O18 0.992996 1_655
H26 O20 1.020055 1_555
H26 O19 1.599059 1_555
H27 O21 1.020055 1_555
H27 O19 1.599059 1_555
H28 O28 0.999189 1_555
H29 O27 0.999189 1_555
H30 O25 0.998631 1_555
H31 O26 0.998631 1_555
H32 O24 0.990471 1_555
H33 O24 0.990471 1_555
H34 O26 1.019273 1_555
H34 O29 1.588607 1_655
H35 O25 1.019273 1_555
H35 O29 1.588607 1_555
H36 O28 1.012091 1_555
H36 O22 1.647512 1_555
H37 O27 1.012091 1_555
H37 O23 1.647512 1_555
H38 O21 1.006172 1_555
H38 O38 1.676221 1_555
H39 O20 1.006172 1_555
H39 O37 1.676221 1_555
H40 O30 0.997290 1_655
H41 O30 0.997290 1_555
H42 O31 1.010696 1_555
H42 O33 1.633461 1_555
H43 O32 1.010696 1_555
H43 O34 1.633461 1_555
H44 O35 0.992984 1_555
H44 O34 1.725588 1_555
H45 O35 0.992984 1_555
H45 O33 1.725588 1_555
H46 O32 1.011482 1_555
H46 O48 1.621031 1_555
H47 O31 1.011482 1_555
H47 O49 1.621031 1_555
H48 O39 1.011482 1_555
H48 O22 1.621031 1_555
H49 O40 1.011482 1_555
H49 O23 1.621031 1_555
H50 O36 0.992984 1_555
H50 O37 1.725588 1_555
H51 O36 0.992984 1_555
H51 O38 1.725588 1_555
H52 O39 1.010696 1_555
H52 O37 1.633461 1_555
H53 O40 1.010696 1_555
H53 O38 1.633461 1_555
H54 O41 0.997290 1_555
H55 O41 0.997290 1_655
H56 O50 1.006172 1_555
H56 O34 1.676221 1_555
H57 O51 1.006172 1_555
H57 O33 1.676221 1_555
H58 O43 1.012091 1_555
H58 O48 1.647512 1_555
H59 O44 1.012091 1_555
H59 O49 1.647512 1_555
H60 O45 1.019273 1_555
H60 O42 1.588607 1_555
H61 O46 1.019273 1_555
H61 O42 1.588607 1_655
H62 O47 0.990471 1_555
H63 O47 0.990471 1_555
H64 O45 0.998631 1_555
H65 O46 0.998631 1_555
H66 O43 0.999189 1_555
H67 O44 0.999189 1_555
H68 O50 1.020055 1_555
H68 O52 1.599059 1_555
H69 O51 1.020055 1_555
H69 O52 1.599059 1_555
H70 O53 0.992996 1_555
H71 O53 0.992996 1_655
H72 O54 0.992996 1_555
H73 O54 0.992996 1_555
H74 O56 1.020055 1_555
H74 O55 1.599059 1_555
H75 O57 1.020055 1_555
H75 O55 1.599059 1_655
H76 O63 0.999189 1_555
H77 O64 0.999189 1_555
H78 O61 0.998631 1_555
H79 O62 0.998631 1_555
H80 O60 0.990471 1_555
H81 O60 0.990471 1_655
H82 O61 1.019273 1_554
H82 O65 1.588607 1_555
H83 O62 1.019273 1_554
H83 O65 1.588607 1_555
H84 O63 1.012091 1_555
H84 O58 1.647512 1_555
H85 O64 1.012091 1_555
H85 O59 1.647512 1_555
H86 O56 1.006172 1_555
H86 O1 1.676221 1_565
H87 O57 1.006172 1_555
H87 O2 1.676221 1_565
H88 O66 0.997290 1_555
H89 O66 0.997290 1_555
H90 O67 1.010696 1_555
H90 O69 1.633461 1_555
H91 O68 1.010696 1_555
H91 O70 1.633461 1_555
H92 O71 0.992984 1_555
H92 O69 1.725588 1_555
H93 O71 0.992984 1_655
H93 O70 1.725588 1_555
H94 O67 1.011482 1_545
H94 O12 1.621031 1_555
H95 O68 1.011482 1_545
H95 O13 1.621031 1_555
O1 P0 1.551198 1_555
O2 P0 1.551198 1_555
O6 P0 1.533416 1_555
O12 P1 1.555302 1_555
O13 P1 1.555302 1_655
O16 P1 1.538507 1_555
O19 P2 1.538507 1_555
O22 P2 1.555302 1_555
O23 P2 1.555302 1_555
O29 P3 1.533416 1_555
O33 P3 1.551198 1_655
O34 P3 1.551198 1_555
O37 P4 1.551198 1_555
O38 P4 1.551198 1_655
O42 P4 1.533416 1_555
O48 P5 1.555302 1_555
O49 P5 1.555302 1_555
O52 P5 1.538507 1_555
O55 P6 1.538507 1_555
O58 P6 1.555302 1_555
O59 P6 1.555302 1_655
O65 P7 1.533416 1_555
O69 P7 1.551198 1_555
O70 P7 1.551198 1_555
