# generated using pymatgen
data_AcBiAu2
_symmetry_space_group_name_H-M   'P 1'
_cell_length_a   5.30344756
_cell_length_b   5.30344746
_cell_length_c   5.30344763
_cell_angle_alpha   59.99995788
_cell_angle_beta   59.99995920
_cell_angle_gamma   59.99996013
_symmetry_Int_Tables_number   1
_chemical_formula_structural   AcBiAu2
_chemical_formula_sum   'Ac1 Bi1 Au2'
_cell_volume   105.47740430
_cell_formula_units_Z   1
loop_
 _symmetry_equiv_pos_site_id
 _symmetry_equiv_pos_as_xyz
  1  'x, y, z'
loop_
 _atom_site_type_symbol
 _atom_site_label
 _atom_site_symmetry_multiplicity
 _atom_site_fract_x
 _atom_site_fract_y
 _atom_site_fract_z
 _atom_site_occupancy
  Ac  Ac0  1  0.25000078  0.25000079  0.25000077  1
  Bi  Bi0  1  0.74999999  0.74999999  0.74999999  1
  Au  Au0  1  0.00000003  -0.00000001  0.00000001  1
  Au  Au1  1  0.49999921  0.49999924  0.49999923  1
loop_
_geom_bond_atom_site_label_1
_geom_bond_atom_site_label_2
_geom_bond_distance
_geom_bond_site_symmetry_2
Ac0 Au1 3.247666 1_555
Ac0 Au0 3.247680 1_565
Ac0 Au0 3.247680 1_556
Ac0 Au0 3.247680 1_655
Ac0 Au1 3.247690 1_545
Ac0 Au1 3.247690 1_554
Ac0 Au1 3.247690 1_455
Ac0 Au0 3.247696 1_555
Au0 Bi0 3.247683 1_544
Au0 Bi0 3.247683 1_445
Au0 Bi0 3.247683 1_454
Au0 Bi0 3.247686 1_444
Au1 Bi0 3.247680 1_455
Au1 Bi0 3.247680 1_545
Au1 Bi0 3.247680 1_554
Au1 Bi0 3.247696 1_555
