# generated using pymatgen
data_La16Mn15O48
_symmetry_space_group_name_H-M   'P 1'
_cell_length_a   7.89078500
_cell_length_b   7.90047593
_cell_length_c   15.78023689
_cell_angle_alpha   90.05485689
_cell_angle_beta   90.14931915
_cell_angle_gamma   90.09955091
_symmetry_Int_Tables_number   1
_chemical_formula_structural   La16Mn15O48
_chemical_formula_sum   'La16 Mn15 O48'
_cell_volume   983.74978736
_cell_formula_units_Z   1
loop_
 _symmetry_equiv_pos_site_id
 _symmetry_equiv_pos_as_xyz
  1  'x, y, z'
loop_
 _atom_site_type_symbol
 _atom_site_label
 _atom_site_symmetry_multiplicity
 _atom_site_fract_x
 _atom_site_fract_y
 _atom_site_fract_z
 _atom_site_occupancy
  La  La0  1  0.27542200  0.75327400  0.88161200  1
  La  La1  1  0.26529100  0.76032700  0.37457700  1
  La  La2  1  0.73470900  0.23967300  0.62542300  1
  La  La3  1  0.72457800  0.24672600  0.11838800  1
  La  La4  1  0.74214600  0.73418500  0.62596200  1
  La  La5  1  0.24888300  0.23958800  0.12039100  1
  La  La6  1  0.23995700  0.23213100  0.62683900  1
  La  La7  1  0.72482800  0.71521300  0.11653400  1
  La  La8  1  0.76004300  0.76786900  0.37316100  1
  La  La9  1  0.27517200  0.28478700  0.88346600  1
  La  La10  1  0.25785400  0.26581500  0.37403800  1
  La  La11  1  0.75111700  0.76041200  0.87960900  1
  La  La12  1  0.76806700  0.25748100  0.37254300  1
  La  La13  1  0.75831500  0.26872100  0.87964400  1
  La  La14  1  0.23193300  0.74251900  0.62745700  1
  La  La15  1  0.24168500  0.73127900  0.12035600  1
  Mn  Mn0  1  0.50000000  0.00000000  0.00000000  1
  Mn  Mn1  1  0.50000000  0.00000000  0.50000000  1
  Mn  Mn2  1  0.50051100  0.00121300  0.75071100  1
  Mn  Mn3  1  0.49948900  0.99878700  0.24928900  1
  Mn  Mn4  1  0.00000000  0.00000000  0.00000000  1
  Mn  Mn5  1  0.99988800  0.99956800  0.24637400  1
  Mn  Mn6  1  0.50066400  0.50090700  0.74825700  1
  Mn  Mn7  1  0.00000000  0.00000000  0.50000000  1
  Mn  Mn8  1  0.00011200  0.00043200  0.75362600  1
  Mn  Mn9  1  0.50000000  0.50000000  0.50000000  1
  Mn  Mn10  1  0.49933600  0.49909300  0.25174300  1
  Mn  Mn11  1  0.00038000  0.49835100  0.75078400  1
  Mn  Mn12  1  0.00000000  0.50000000  0.50000000  1
  Mn  Mn13  1  0.00000000  0.50000000  0.00000000  1
  Mn  Mn14  1  0.99962000  0.50164900  0.24921600  1
  O  O0  1  0.52139000  0.74945000  0.27434300  1
  O  O1  1  0.52392600  0.75150600  0.76948400  1
  O  O2  1  0.52459900  0.76645400  0.98046900  1
  O  O3  1  0.52373900  0.75182900  0.47837200  1
  O  O4  1  0.54175900  0.96291300  0.12495500  1
  O  O5  1  0.54435500  0.96751000  0.62531900  1
  O  O6  1  0.45824100  0.03708700  0.87504500  1
  O  O7  1  0.45564500  0.03249000  0.37468100  1
  O  O8  1  0.74912500  0.47808400  0.72548100  1
  O  O9  1  0.74916800  0.47753300  0.52150700  1
  O  O10  1  0.24794900  0.97133800  0.01936200  1
  O  O11  1  0.24931500  0.97561100  0.22840000  1
  O  O12  1  0.76664500  0.46955300  0.01968800  1
  O  O13  1  0.74843300  0.47492600  0.22987100  1
  O  O14  1  0.24941800  0.97629100  0.52086600  1
  O  O15  1  0.24934900  0.97768200  0.72867000  1
  O  O16  1  0.47540100  0.23354600  0.01953100  1
  O  O17  1  0.47607400  0.24849400  0.23051600  1
  O  O18  1  0.47861000  0.25055000  0.72565700  1
  O  O19  1  0.47626100  0.24817100  0.52162800  1
  O  O20  1  0.03160300  0.95783000  0.37338000  1
  O  O21  1  0.53347200  0.46133800  0.86387200  1
  O  O22  1  0.53436400  0.45210000  0.37288000  1
  O  O23  1  0.03022700  0.94696700  0.87662000  1
  O  O24  1  0.46652800  0.53866200  0.13612800  1
  O  O25  1  0.96977300  0.05303300  0.12338000  1
  O  O26  1  0.46563600  0.54790000  0.62712000  1
  O  O27  1  0.96839700  0.04217000  0.62662000  1
  O  O28  1  0.03043300  0.24927600  0.97966800  1
  O  O29  1  0.02520400  0.25042300  0.77222600  1
  O  O30  1  0.02278700  0.25114800  0.27163400  1
  O  O31  1  0.02266200  0.24974600  0.47941700  1
  O  O32  1  0.25156700  0.52507400  0.77012900  1
  O  O33  1  0.25087500  0.52191600  0.27451900  1
  O  O34  1  0.25083200  0.52246700  0.47849300  1
  O  O35  1  0.23335500  0.53044700  0.98031200  1
  O  O36  1  0.75065100  0.02231800  0.27133000  1
  O  O37  1  0.75205100  0.02866200  0.98063800  1
  O  O38  1  0.75058200  0.02370900  0.47913400  1
  O  O39  1  0.75068500  0.02438900  0.77160000  1
  O  O40  1  0.04924300  0.47048700  0.12508000  1
  O  O41  1  0.04428300  0.46702500  0.62531100  1
  O  O42  1  0.95571700  0.53297500  0.37468900  1
  O  O43  1  0.95075700  0.52951300  0.87492000  1
  O  O44  1  0.96956700  0.75072400  0.02033200  1
  O  O45  1  0.97479600  0.74957700  0.22777400  1
  O  O46  1  0.97721300  0.74885200  0.72836600  1
  O  O47  1  0.97733800  0.75025400  0.52058300  1
loop_
_geom_bond_atom_site_label_1
_geom_bond_atom_site_label_2
_geom_bond_distance
_geom_bond_site_symmetry_2
La0 O35 2.375096 1_555
La0 O23 2.470025 1_555
La0 O2 2.508654 1_555
La0 O32 2.524231 1_555
La0 O1 2.644659 1_555
La0 O6 2.666364 1_565
La0 O10 2.781500 1_556
La1 O20 2.417694 1_555
La1 O33 2.458945 1_555
La1 O34 2.497914 1_555
La1 O0 2.570980 1_555
La1 O3 2.613333 1_555
La1 O7 2.620749 1_565
La1 O14 2.872392 1_555
La2 O27 2.417694 1_555
La2 O8 2.458945 1_555
La2 O9 2.497914 1_555
La2 O18 2.570980 1_555
La2 O19 2.613333 1_555
La2 O5 2.620749 1_545
La2 O38 2.872392 1_555
La3 O12 2.375096 1_555
La3 O25 2.470025 1_555
La3 O16 2.508654 1_555
La3 O13 2.524231 1_555
La3 O17 2.644659 1_555
La3 O4 2.666364 1_545
La3 O37 2.781500 1_554
La4 O5 2.417429 1_555
La4 O46 2.459378 1_555
La4 O47 2.498243 1_555
La4 O8 2.563033 1_555
La4 O9 2.612655 1_555
La4 O26 2.629840 1_555
La4 O1 2.851961 1_555
La4 O3 2.897300 1_555
La5 O16 2.396925 1_555
La5 O40 2.413541 1_555
La5 O17 2.494356 1_555
La5 O25 2.648485 1_455
La5 O10 2.650770 1_545
La5 O11 2.694682 1_545
La5 O28 2.808777 1_554
La5 O24 2.928583 1_555
La5 O30 2.984913 1_555
La6 O41 2.416264 1_555
La6 O18 2.445897 1_555
La6 O19 2.503007 1_555
La6 O15 2.575837 1_545
La6 O27 2.613966 1_455
La6 O14 2.623409 1_545
La7 O4 2.438109 1_555
La7 O44 2.475276 1_555
La7 O24 2.487895 1_555
La7 O12 2.492074 1_555
La7 O13 2.615954 1_555
La7 O45 2.650439 1_555
La7 O2 2.693804 1_554
La8 O42 2.416264 1_555
La8 O0 2.445897 1_555
La8 O3 2.503007 1_555
La8 O36 2.575837 1_565
La8 O20 2.613966 1_655
La8 O38 2.623409 1_565
La9 O6 2.438109 1_555
La9 O28 2.475276 1_555
La9 O21 2.487895 1_555
La9 O35 2.492074 1_555
La9 O32 2.615954 1_555
La9 O29 2.650439 1_555
La9 O16 2.693804 1_556
La10 O7 2.417429 1_555
La10 O30 2.459378 1_555
La10 O31 2.498243 1_555
La10 O33 2.563033 1_555
La10 O34 2.612655 1_555
La10 O22 2.629840 1_555
La10 O17 2.851961 1_555
La10 O19 2.897300 1_555
La11 O2 2.396925 1_555
La11 O43 2.413541 1_555
La11 O1 2.494356 1_555
La11 O23 2.648485 1_655
La11 O37 2.650770 1_565
La11 O39 2.694682 1_565
La11 O44 2.808777 1_556
La11 O21 2.928583 1_555
La11 O46 2.984913 1_555
La12 O22 2.403078 1_555
La12 O36 2.452325 1_555
La12 O38 2.503121 1_555
La12 O30 2.568050 1_655
La12 O31 2.620471 1_655
La12 O42 2.630463 1_555
La12 O13 2.837350 1_555
La13 O21 2.352289 1_555
La13 O37 2.478960 1_555
La13 O43 2.558640 1_555
La13 O39 2.574778 1_555
La13 O28 2.666360 1_655
La13 O29 2.710808 1_655
La13 O12 2.719887 1_556
La14 O26 2.403078 1_555
La14 O15 2.452325 1_555
La14 O14 2.503121 1_555
La14 O46 2.568050 1_455
La14 O47 2.620471 1_455
La14 O41 2.630463 1_555
La14 O32 2.837350 1_555
La15 O24 2.352289 1_555
La15 O10 2.478960 1_555
La15 O40 2.558640 1_555
La15 O11 2.574778 1_555
La15 O44 2.666360 1_455
La15 O45 2.710808 1_455
La15 O35 2.719887 1_554
Mn0 O16 1.880856 1_555
Mn0 O2 1.880856 1_544
Mn0 O4 2.020039 1_545
Mn0 O6 2.020039 1_554
Mn0 O37 2.025342 1_554
Mn0 O10 2.025342 1_545
Mn1 O19 1.999030 1_555
Mn1 O3 1.999030 1_545
Mn1 O14 2.013802 1_545
Mn1 O38 2.013802 1_555
Mn1 O5 2.024060 1_545
Mn1 O7 2.024060 1_555
Mn2 O1 2.003984 1_545
Mn2 O39 2.008574 1_555
Mn2 O6 2.010914 1_555
Mn2 O18 2.017157 1_555
Mn2 O15 2.019487 1_545
Mn2 O5 2.027014 1_545
Mn3 O17 2.003984 1_565
Mn3 O11 2.008574 1_555
Mn3 O4 2.010914 1_555
Mn3 O0 2.017157 1_555
Mn3 O36 2.019487 1_565
Mn3 O7 2.027014 1_565
Mn4 O37 1.992768 1_454
Mn4 O10 1.992768 1_545
Mn4 O25 2.006071 1_455
Mn4 O23 2.006071 1_544
Mn4 O28 2.009753 1_554
Mn4 O44 2.009753 1_445
Mn5 O11 1.998521 1_655
Mn5 O25 2.000349 1_565
Mn5 O45 2.005840 1_555
Mn5 O36 2.015027 1_565
Mn5 O30 2.034443 1_665
Mn5 O20 2.046230 1_655
Mn6 O21 1.868746 1_555
Mn6 O26 1.966545 1_555
Mn6 O8 2.002556 1_555
Mn6 O32 2.005932 1_555
Mn6 O1 2.015652 1_555
Mn6 O18 2.016642 1_555
Mn7 O14 2.003736 1_545
Mn7 O38 2.003736 1_455
Mn7 O31 2.007723 1_555
Mn7 O47 2.007723 1_445
Mn7 O27 2.041366 1_455
Mn7 O20 2.041366 1_545
Mn8 O39 1.998521 1_455
Mn8 O23 2.000349 1_545
Mn8 O29 2.005840 1_555
Mn8 O15 2.015027 1_545
Mn8 O46 2.034443 1_445
Mn8 O27 2.046230 1_455
Mn9 O9 2.002551 1_555
Mn9 O34 2.002551 1_555
Mn9 O3 2.027386 1_555
Mn9 O19 2.027386 1_555
Mn9 O22 2.059720 1_555
Mn9 O26 2.059720 1_555
Mn10 O24 1.868746 1_555
Mn10 O22 1.966545 1_555
Mn10 O33 2.002556 1_555
Mn10 O13 2.005932 1_555
Mn10 O17 2.015652 1_555
Mn10 O0 2.016642 1_555
Mn11 O29 1.997952 1_555
Mn11 O43 2.013608 1_455
Mn11 O32 2.015342 1_555
Mn11 O46 2.019300 1_455
Mn11 O41 2.025975 1_555
Mn11 O8 2.027416 1_455
Mn12 O47 2.011667 1_455
Mn12 O31 2.011667 1_555
Mn12 O34 2.016571 1_555
Mn12 O9 2.016571 1_455
Mn12 O41 2.024334 1_555
Mn12 O42 2.024334 1_455
Mn13 O12 1.883230 1_455
Mn13 O35 1.883230 1_554
Mn13 O44 2.021180 1_455
Mn13 O28 2.021180 1_554
Mn13 O43 2.024451 1_454
Mn13 O40 2.024451 1_555
Mn14 O45 1.997952 1_555
Mn14 O40 2.013608 1_655
Mn14 O13 2.015342 1_555
Mn14 O30 2.019300 1_655
Mn14 O42 2.025975 1_555
Mn14 O33 2.027416 1_655
