# generated using pymatgen
data_LiNi2(PO3)5
_symmetry_space_group_name_H-M   'P 1'
_cell_length_a   13.02363300
_cell_length_b   5.13678800
_cell_length_c   8.53482384
_cell_angle_alpha   77.93596366
_cell_angle_beta   90.00000000
_cell_angle_gamma   90.00000000
_symmetry_Int_Tables_number   1
_chemical_formula_structural   LiNi2(PO3)5
_chemical_formula_sum   'Li2 Ni4 P10 O30'
_cell_volume   558.36641970
_cell_formula_units_Z   2
loop_
 _symmetry_equiv_pos_site_id
 _symmetry_equiv_pos_as_xyz
  1  'x, y, z'
loop_
 _atom_site_type_symbol
 _atom_site_label
 _atom_site_symmetry_multiplicity
 _atom_site_fract_x
 _atom_site_fract_y
 _atom_site_fract_z
 _atom_site_occupancy
  Li  Li0  1  0.00000000  0.50000000  0.50000000  1
  Li  Li1  1  0.50000000  0.50000000  0.50000000  1
  Ni  Ni0  1  0.91346900  0.86569200  0.14926600  1
  Ni  Ni1  1  0.58653100  0.86569200  0.14926600  1
  Ni  Ni2  1  0.41346900  0.13430800  0.85073400  1
  Ni  Ni3  1  0.08653100  0.13430800  0.85073400  1
  P  P0  1  0.36215100  0.97448200  0.50573000  1
  P  P1  1  0.13784900  0.97448200  0.50573000  1
  P  P2  1  0.92989400  0.65673700  0.81250400  1
  P  P3  1  0.57010600  0.65673700  0.81250400  1
  P  P4  1  0.25000000  0.55797400  0.97264000  1
  P  P5  1  0.75000000  0.44202600  0.02736000  1
  P  P6  1  0.42989400  0.34326300  0.18749600  1
  P  P7  1  0.07010600  0.34326300  0.18749600  1
  P  P8  1  0.63784900  0.02551800  0.49427000  1
  P  P9  1  0.86215100  0.02551800  0.49427000  1
  O  O0  1  0.75000000  0.95101700  0.44678900  1
  O  O1  1  0.96214700  0.85043900  0.91769100  1
  O  O2  1  0.53785300  0.85043900  0.91769100  1
  O  O3  1  0.25000000  0.83616500  0.87576600  1
  O  O4  1  0.86849200  0.81094700  0.66469600  1
  O  O5  1  0.63150800  0.81094700  0.66469600  1
  O  O6  1  0.57112700  0.92143700  0.37463800  1
  O  O7  1  0.92887300  0.92143700  0.37463800  1
  O  O8  1  0.37244000  0.70047900  0.48029700  1
  O  O9  1  0.12756000  0.70047900  0.48029700  1
  O  O10  1  0.84618500  0.45800300  0.90702500  1
  O  O11  1  0.65381500  0.45800300  0.90702500  1
  O  O12  1  0.01252200  0.48596700  0.76340700  1
  O  O13  1  0.48747800  0.48596700  0.76340700  1
  O  O14  1  0.75000000  0.68095000  0.10578100  1
  O  O15  1  0.25000000  0.31905000  0.89421900  1
  O  O16  1  0.51252200  0.51403300  0.23659300  1
  O  O17  1  0.98747800  0.51403300  0.23659300  1
  O  O18  1  0.34618500  0.54199700  0.09297500  1
  O  O19  1  0.15381500  0.54199700  0.09297500  1
  O  O20  1  0.87244000  0.29952100  0.51970300  1
  O  O21  1  0.62756000  0.29952100  0.51970300  1
  O  O22  1  0.42887300  0.07856300  0.62536200  1
  O  O23  1  0.07112700  0.07856300  0.62536200  1
  O  O24  1  0.36849200  0.18905300  0.33530400  1
  O  O25  1  0.13150800  0.18905300  0.33530400  1
  O  O26  1  0.75000000  0.16383500  0.12423400  1
  O  O27  1  0.46214700  0.14956100  0.08230900  1
  O  O28  1  0.03785300  0.14956100  0.08230900  1
  O  O29  1  0.25000000  0.04898300  0.55321100  1
loop_
_geom_bond_atom_site_label_1
_geom_bond_atom_site_label_2
_geom_bond_distance
_geom_bond_site_symmetry_2
Li0 O9 1.943274 1_555
Li0 O20 1.943274 1_455
Li0 O12 2.240123 1_555
Li0 O17 2.240123 1_455
Li0 O7 2.391894 1_455
Li0 O23 2.391894 1_555
Li1 O8 1.943274 1_555
Li1 O21 1.943274 1_555
Li1 O13 2.240123 1_555
Li1 O16 2.240123 1_555
Li1 O6 2.391894 1_555
Li1 O22 2.391894 1_555
Ni0 O7 2.013051 1_555
Ni0 O17 2.045685 1_555
Ni0 O1 2.092640 1_554
Ni0 O28 2.174557 1_665
Ni0 O14 2.391234 1_555
Ni0 O26 2.605154 1_565
Ni1 O6 2.013051 1_555
Ni1 O16 2.045685 1_555
Ni1 O2 2.092640 1_554
Ni1 O27 2.174557 1_565
Ni1 O14 2.391234 1_555
Ni1 O26 2.605154 1_565
Ni2 O22 2.013051 1_555
Ni2 O13 2.045685 1_555
Ni2 O27 2.092640 1_556
Ni2 O2 2.174557 1_545
Ni2 O15 2.391234 1_555
Ni2 O3 2.605154 1_545
Ni3 O23 2.013051 1_555
Ni3 O12 2.045685 1_555
Ni3 O28 2.092640 1_556
Ni3 O1 2.174557 1_445
Ni3 O15 2.391234 1_555
Ni3 O3 2.605154 1_545
O0 P8 1.583949 1_565
O0 P9 1.583949 1_565
O1 P2 1.531612 1_555
O2 P3 1.531612 1_555
O3 P4 1.493916 1_555
O4 P2 1.562267 1_555
O4 P9 1.633171 1_565
O5 P3 1.562267 1_555
O5 P8 1.633171 1_565
O6 P8 1.520409 1_565
O7 P9 1.520409 1_565
O8 P0 1.474390 1_555
O9 P1 1.474390 1_555
O10 P2 1.592865 1_555
O10 P5 1.611059 1_556
O11 P3 1.592865 1_555
O11 P5 1.611059 1_556
O12 P2 1.502253 1_455
O13 P3 1.502253 1_555
O14 P5 1.515789 1_555
O15 P4 1.515789 1_555
O16 P6 1.502253 1_555
O17 P7 1.502253 1_655
O18 P6 1.592865 1_555
O18 P4 1.611059 1_554
O19 P7 1.592865 1_555
O19 P4 1.611059 1_554
O20 P9 1.474390 1_555
O21 P8 1.474390 1_555
O22 P0 1.520409 1_545
O23 P1 1.520409 1_545
O24 P6 1.562267 1_555
O24 P0 1.633171 1_545
O25 P7 1.562267 1_555
O25 P1 1.633171 1_545
O26 P5 1.493916 1_555
O27 P6 1.531612 1_555
O28 P7 1.531612 1_555
O29 P1 1.583949 1_545
O29 P0 1.583949 1_545
