# generated using pymatgen
data_PW12O43
_symmetry_space_group_name_H-M   'P 1'
_cell_length_a   11.99215600
_cell_length_b   11.99215600
_cell_length_c   11.99215600
_cell_angle_alpha   90.00000000
_cell_angle_beta   90.00000000
_cell_angle_gamma   90.00000000
_symmetry_Int_Tables_number   1
_chemical_formula_structural   PW12O43
_chemical_formula_sum   'P2 W24 O86'
_cell_volume   1724.61360654
_cell_formula_units_Z   2
loop_
 _symmetry_equiv_pos_site_id
 _symmetry_equiv_pos_as_xyz
  1  'x, y, z'
loop_
 _atom_site_type_symbol
 _atom_site_label
 _atom_site_symmetry_multiplicity
 _atom_site_fract_x
 _atom_site_fract_y
 _atom_site_fract_z
 _atom_site_occupancy
  P  P0  1  0.25000000  0.25000000  0.25000000  1
  P  P1  1  0.75000000  0.75000000  0.75000000  1
  W  W0  1  0.03459300  0.25686800  0.46540700  1
  W  W1  1  0.46540700  0.25686800  0.03459300  1
  W  W2  1  0.46540700  0.24313200  0.46540700  1
  W  W3  1  0.03459300  0.24313200  0.03459300  1
  W  W4  1  0.46540700  0.03459300  0.25686800  1
  W  W5  1  0.03459300  0.46540700  0.25686800  1
  W  W6  1  0.46540700  0.46540700  0.24313200  1
  W  W7  1  0.03459300  0.03459300  0.24313200  1
  W  W8  1  0.25686800  0.46540700  0.03459300  1
  W  W9  1  0.25686800  0.03459300  0.46540700  1
  W  W10  1  0.24313200  0.46540700  0.46540700  1
  W  W11  1  0.24313200  0.03459300  0.03459300  1
  W  W12  1  0.96540700  0.74313200  0.53459300  1
  W  W13  1  0.53459300  0.74313200  0.96540700  1
  W  W14  1  0.53459300  0.75686800  0.53459300  1
  W  W15  1  0.96540700  0.75686800  0.96540700  1
  W  W16  1  0.53459300  0.96540700  0.74313200  1
  W  W17  1  0.96540700  0.53459300  0.74313200  1
  W  W18  1  0.53459300  0.53459300  0.75686800  1
  W  W19  1  0.96540700  0.96540700  0.75686800  1
  W  W20  1  0.74313200  0.53459300  0.96540700  1
  W  W21  1  0.74313200  0.96540700  0.53459300  1
  W  W22  1  0.75686800  0.53459300  0.53459300  1
  W  W23  1  0.75686800  0.96540700  0.96540700  1
  O  O0  1  0.17555500  0.32444500  0.32444500  1
  O  O1  1  0.32444500  0.32444500  0.17555500  1
  O  O2  1  0.32444500  0.17555500  0.32444500  1
  O  O3  1  0.17555500  0.17555500  0.17555500  1
  O  O4  1  0.82444500  0.67555500  0.67555500  1
  O  O5  1  0.67555500  0.67555500  0.82444500  1
  O  O6  1  0.67555500  0.82444500  0.67555500  1
  O  O7  1  0.82444500  0.82444500  0.82444500  1
  O  O8  1  0.14925600  0.14925600  0.50585600  1
  O  O9  1  0.35074400  0.14925600  0.99414400  1
  O  O10  1  0.35074400  0.35074400  0.50585600  1
  O  O11  1  0.14925600  0.35074400  0.99414400  1
  O  O12  1  0.99414400  0.14925600  0.35074400  1
  O  O13  1  0.50585600  0.14925600  0.14925600  1
  O  O14  1  0.50585600  0.35074400  0.35074400  1
  O  O15  1  0.99414400  0.35074400  0.14925600  1
  O  O16  1  0.35074400  0.99414400  0.14925600  1
  O  O17  1  0.14925600  0.50585600  0.14925600  1
  O  O18  1  0.35074400  0.50585600  0.35074400  1
  O  O19  1  0.14925600  0.99414400  0.35074400  1
  O  O20  1  0.85074400  0.85074400  0.49414400  1
  O  O21  1  0.64925600  0.85074400  0.00585600  1
  O  O22  1  0.64925600  0.64925600  0.49414400  1
  O  O23  1  0.85074400  0.64925600  0.00585600  1
  O  O24  1  0.00585600  0.85074400  0.64925600  1
  O  O25  1  0.49414400  0.85074400  0.85074400  1
  O  O26  1  0.49414400  0.64925600  0.64925600  1
  O  O27  1  0.00585600  0.64925600  0.85074400  1
  O  O28  1  0.64925600  0.00585600  0.85074400  1
  O  O29  1  0.85074400  0.49414400  0.85074400  1
  O  O30  1  0.64925600  0.49414400  0.64925600  1
  O  O31  1  0.85074400  0.00585600  0.64925600  1
  O  O32  1  0.12657900  0.37342100  0.53246200  1
  O  O33  1  0.37342100  0.37342100  0.96753800  1
  O  O34  1  0.37342100  0.12657900  0.53246200  1
  O  O35  1  0.12657900  0.12657900  0.96753800  1
  O  O36  1  0.96753800  0.37342100  0.37342100  1
  O  O37  1  0.53246200  0.37342100  0.12657900  1
  O  O38  1  0.53246200  0.12657900  0.37342100  1
  O  O39  1  0.96753800  0.12657900  0.12657900  1
  O  O40  1  0.37342100  0.96753800  0.37342100  1
  O  O41  1  0.12657900  0.53246200  0.37342100  1
  O  O42  1  0.37342100  0.53246200  0.12657900  1
  O  O43  1  0.12657900  0.96753800  0.12657900  1
  O  O44  1  0.87342100  0.62657900  0.46753800  1
  O  O45  1  0.62657900  0.62657900  0.03246200  1
  O  O46  1  0.62657900  0.87342100  0.46753800  1
  O  O47  1  0.87342100  0.87342100  0.03246200  1
  O  O48  1  0.03246200  0.62657900  0.62657900  1
  O  O49  1  0.46753800  0.62657900  0.87342100  1
  O  O50  1  0.46753800  0.87342100  0.62657900  1
  O  O51  1  0.03246200  0.87342100  0.87342100  1
  O  O52  1  0.62657900  0.03246200  0.62657900  1
  O  O53  1  0.87342100  0.46753800  0.62657900  1
  O  O54  1  0.62657900  0.46753800  0.87342100  1
  O  O55  1  0.87342100  0.03246200  0.87342100  1
  O  O56  1  0.93370800  0.23666300  0.56629200  1
  O  O57  1  0.56629200  0.23666300  0.93370800  1
  O  O58  1  0.56629200  0.26333700  0.56629200  1
  O  O59  1  0.93370800  0.26333700  0.93370800  1
  O  O60  1  0.56629200  0.93370800  0.23666300  1
  O  O61  1  0.93370800  0.56629200  0.23666300  1
  O  O62  1  0.56629200  0.56629200  0.26333700  1
  O  O63  1  0.93370800  0.93370800  0.26333700  1
  O  O64  1  0.23666300  0.56629200  0.93370800  1
  O  O65  1  0.23666300  0.93370800  0.56629200  1
  O  O66  1  0.26333700  0.56629200  0.56629200  1
  O  O67  1  0.26333700  0.93370800  0.93370800  1
  O  O68  1  0.06629200  0.76333700  0.43370800  1
  O  O69  1  0.43370800  0.76333700  0.06629200  1
  O  O70  1  0.43370800  0.73666300  0.43370800  1
  O  O71  1  0.06629200  0.73666300  0.06629200  1
  O  O72  1  0.43370800  0.06629200  0.76333700  1
  O  O73  1  0.06629200  0.43370800  0.76333700  1
  O  O74  1  0.43370800  0.43370800  0.73666300  1
  O  O75  1  0.06629200  0.06629200  0.73666300  1
  O  O76  1  0.76333700  0.43370800  0.06629200  1
  O  O77  1  0.76333700  0.06629200  0.43370800  1
  O  O78  1  0.73666300  0.43370800  0.43370800  1
  O  O79  1  0.73666300  0.06629200  0.06629200  1
  O  O80  1  0.75000000  0.25000000  0.75000000  1
  O  O81  1  0.75000000  0.75000000  0.25000000  1
  O  O82  1  0.25000000  0.75000000  0.75000000  1
  O  O83  1  0.25000000  0.75000000  0.25000000  1
  O  O84  1  0.25000000  0.25000000  0.75000000  1
  O  O85  1  0.75000000  0.25000000  0.25000000  1
loop_
_geom_bond_atom_site_label_1
_geom_bond_atom_site_label_2
_geom_bond_distance
_geom_bond_site_symmetry_2
O0 P0 1.546299 1_555
O1 P0 1.546299 1_555
O2 P0 1.546299 1_555
O3 P0 1.546299 1_555
O4 P1 1.546299 1_555
O5 P1 1.546299 1_555
O6 P1 1.546299 1_555
O7 P1 1.546299 1_555
O8 W9 1.947168 1_555
O8 W0 1.947168 1_555
O9 W11 1.947168 1_556
O9 W1 1.947168 1_556
O10 W10 1.947168 1_555
O10 W2 1.947168 1_555
O11 W3 1.947168 1_556
O11 W8 1.947168 1_556
O12 W0 1.947168 1_655
O12 W7 1.947168 1_655
O13 W4 1.947168 1_555
O13 W1 1.947168 1_555
O14 W6 1.947168 1_555
O14 W2 1.947168 1_555
O15 W3 1.947168 1_655
O15 W5 1.947168 1_655
O16 W4 1.947168 1_565
O16 W11 1.947168 1_565
O17 W5 1.947168 1_555
O17 W8 1.947168 1_555
O18 W6 1.947168 1_555
O18 W10 1.947168 1_555
O19 W7 1.947168 1_565
O19 W9 1.947168 1_565
O20 W21 1.947168 1_555
O20 W12 1.947168 1_555
O21 W23 1.947168 1_554
O21 W13 1.947168 1_554
O22 W22 1.947168 1_555
O22 W14 1.947168 1_555
O23 W20 1.947168 1_554
O23 W15 1.947168 1_554
O24 W19 1.947168 1_455
O24 W12 1.947168 1_455
O25 W16 1.947168 1_555
O25 W13 1.947168 1_555
O26 W18 1.947168 1_555
O26 W14 1.947168 1_555
O27 W17 1.947168 1_455
O27 W15 1.947168 1_455
O28 W16 1.947168 1_545
O28 W23 1.947168 1_545
O29 W17 1.947168 1_555
O29 W20 1.947168 1_555
O30 W22 1.947168 1_555
O30 W18 1.947168 1_555
O31 W21 1.947168 1_545
O31 W19 1.947168 1_545
O32 W10 1.953743 1_555
O32 W0 1.953743 1_555
O33 W1 1.953743 1_556
O33 W8 1.953743 1_556
O34 W2 1.953743 1_555
O34 W9 1.953743 1_555
O35 W11 1.953743 1_556
O35 W3 1.953743 1_556
O36 W0 1.953743 1_655
O36 W5 1.953743 1_655
O37 W1 1.953743 1_555
O37 W6 1.953743 1_555
O38 W2 1.953743 1_555
O38 W4 1.953743 1_555
O39 W7 1.953743 1_655
O39 W3 1.953743 1_655
O40 W9 1.953743 1_565
O40 W4 1.953743 1_565
O41 W10 1.953743 1_555
O41 W5 1.953743 1_555
O42 W8 1.953743 1_555
O42 W6 1.953743 1_555
O43 W7 1.953743 1_565
O43 W11 1.953743 1_565
O44 W22 1.953743 1_555
O44 W12 1.953743 1_555
O45 W13 1.953743 1_554
O45 W20 1.953743 1_554
O46 W14 1.953743 1_555
O46 W21 1.953743 1_555
O47 W23 1.953743 1_554
O47 W15 1.953743 1_554
O48 W17 1.953743 1_455
O48 W12 1.953743 1_455
O49 W18 1.953743 1_555
O49 W13 1.953743 1_555
O50 W16 1.953743 1_555
O50 W14 1.953743 1_555
O51 W19 1.953743 1_455
O51 W15 1.953743 1_455
O52 W16 1.953743 1_545
O52 W21 1.953743 1_545
O53 W22 1.953743 1_555
O53 W17 1.953743 1_555
O54 W18 1.953743 1_555
O54 W20 1.953743 1_555
O55 W23 1.953743 1_545
O55 W19 1.953743 1_545
O56 W0 1.728028 1_655
O57 W1 1.728028 1_556
O58 W2 1.728028 1_555
O59 W3 1.728028 1_656
O60 W4 1.728028 1_565
O61 W5 1.728028 1_655
O62 W6 1.728028 1_555
O63 W7 1.728028 1_665
O64 W8 1.728028 1_556
O65 W9 1.728028 1_565
O66 W10 1.728028 1_555
O67 W11 1.728028 1_566
O68 W12 1.728028 1_455
O69 W13 1.728028 1_554
O70 W14 1.728028 1_555
O71 W15 1.728028 1_454
O72 W16 1.728028 1_545
O73 W17 1.728028 1_455
O74 W18 1.728028 1_555
O75 W19 1.728028 1_445
O76 W20 1.728028 1_554
O77 W21 1.728028 1_545
O78 W22 1.728028 1_555
O79 W23 1.728028 1_544
