# generated using pymatgen
data_K3Bi(AsSe2)6
_symmetry_space_group_name_H-M   'P 1'
_cell_length_a   9.89071796
_cell_length_b   9.89071796
_cell_length_c   7.96230100
_cell_angle_alpha   90.00000000
_cell_angle_beta   90.00000000
_cell_angle_gamma   119.99999971
_symmetry_Int_Tables_number   1
_chemical_formula_structural   K3Bi(AsSe2)6
_chemical_formula_sum   'K3 Bi1 As6 Se12'
_cell_volume   674.56663980
_cell_formula_units_Z   1
loop_
 _symmetry_equiv_pos_site_id
 _symmetry_equiv_pos_as_xyz
  1  'x, y, z'
loop_
 _atom_site_type_symbol
 _atom_site_label
 _atom_site_symmetry_multiplicity
 _atom_site_fract_x
 _atom_site_fract_y
 _atom_site_fract_z
 _atom_site_occupancy
  K  K0  1  0.00000000  0.00000000  0.00000000  1
  K  K1  1  0.33333300  0.66666700  0.83457400  1
  K  K2  1  0.66666700  0.33333300  0.16542600  1
  Bi  Bi0  1  0.00000000  0.00000000  0.50000000  1
  As  As0  1  0.29704000  0.84296100  0.36904100  1
  As  As1  1  0.15703900  0.45407900  0.36904100  1
  As  As2  1  0.54592100  0.70296000  0.36904100  1
  As  As3  1  0.70296000  0.15703900  0.63095900  1
  As  As4  1  0.84296100  0.54592100  0.63095900  1
  As  As5  1  0.45407900  0.29704000  0.63095900  1
  Se  Se0  1  0.27600100  0.06324600  0.28633400  1
  Se  Se1  1  0.93675400  0.21275600  0.28633400  1
  Se  Se2  1  0.78724400  0.72399900  0.28633400  1
  Se  Se3  1  0.72399900  0.93675400  0.71366600  1
  Se  Se4  1  0.06324600  0.78724400  0.71366600  1
  Se  Se5  1  0.21275600  0.27600100  0.71366600  1
  Se  Se6  1  0.53244600  0.90558600  0.19958600  1
  Se  Se7  1  0.09441400  0.62685900  0.19958600  1
  Se  Se8  1  0.37314100  0.46755400  0.19958600  1
  Se  Se9  1  0.46755400  0.09441400  0.80041400  1
  Se  Se10  1  0.90558600  0.37314100  0.80041400  1
  Se  Se11  1  0.62685900  0.53244600  0.80041400  1
loop_
_geom_bond_atom_site_label_1
_geom_bond_atom_site_label_2
_geom_bond_distance
_geom_bond_site_symmetry_2
K0 Se3 3.366537 1_444
K0 Se0 3.366537 1_555
K0 Se5 3.366539 1_554
K0 Se2 3.366539 1_445
K0 Se1 3.366544 1_455
K0 Se4 3.366544 1_544
K1 Se4 3.559642 1_555
K1 Se3 3.559656 1_555
K1 Se5 3.559661 1_555
K1 Se7 3.640816 1_556
K1 Se6 3.640821 1_556
K1 Se8 3.640828 1_556
K1 Se11 3.757515 1_555
K1 Se9 3.757515 1_565
K1 Se10 3.757515 1_455
K2 Se1 3.559642 1_555
K2 Se0 3.559656 1_555
K2 Se2 3.559661 1_555
K2 Se10 3.640816 1_554
K2 Se9 3.640821 1_554
K2 Se11 3.640828 1_554
K2 Se8 3.757515 1_555
K2 Se6 3.757515 1_545
K2 Se7 3.757515 1_655
Bi0 Se0 3.005006 1_555
Bi0 Se3 3.005006 1_445
Bi0 Se5 3.005008 1_555
Bi0 Se2 3.005008 1_445
Bi0 Se1 3.005014 1_455
Bi0 Se4 3.005014 1_545
As0 Se0 2.382735 1_565
As0 Se7 2.474238 1_555
As0 Se6 2.486584 1_555
As1 Se1 2.382730 1_455
As1 Se8 2.474241 1_555
As1 Se7 2.486576 1_555
As2 Se2 2.382725 1_555
As2 Se6 2.474233 1_555
As2 Se8 2.486582 1_555
As3 Se3 2.382735 1_545
As3 Se10 2.474238 1_555
As3 Se9 2.486584 1_555
As4 Se4 2.382730 1_655
As4 Se11 2.474241 1_555
As4 Se10 2.486576 1_555
As5 Se5 2.382725 1_555
As5 Se9 2.474233 1_555
As5 Se11 2.486582 1_555
