# generated using pymatgen
data_YbInAg2
_symmetry_space_group_name_H-M   'P 1'
_cell_length_a   4.85682774
_cell_length_b   4.85682774
_cell_length_c   4.85682774
_cell_angle_alpha   60.00000000
_cell_angle_beta   60.00000000
_cell_angle_gamma   60.00000000
_symmetry_Int_Tables_number   1
_chemical_formula_structural   YbInAg2
_chemical_formula_sum   'Yb1 In1 Ag2'
_cell_volume   81.01083401
_cell_formula_units_Z   1
loop_
 _symmetry_equiv_pos_site_id
 _symmetry_equiv_pos_as_xyz
  1  'x, y, z'
loop_
 _atom_site_type_symbol
 _atom_site_label
 _atom_site_symmetry_multiplicity
 _atom_site_fract_x
 _atom_site_fract_y
 _atom_site_fract_z
 _atom_site_occupancy
  Yb  Yb0  1  0.00000000  0.00000000  0.00000000  1
  In  In0  1  0.50000000  0.50000000  0.50000000  1
  Ag  Ag0  1  0.75000000  0.75000000  0.75000000  1
  Ag  Ag1  1  0.25000000  0.25000000  0.25000000  1
loop_
_geom_bond_atom_site_label_1
_geom_bond_atom_site_label_2
_geom_bond_distance
_geom_bond_site_symmetry_2
In0 Yb0 3.434296 1_556
In0 Yb0 3.434296 1_655
In0 Yb0 3.434296 1_566
In0 Yb0 3.434296 1_665
In0 Yb0 3.434296 1_565
In0 Yb0 3.434296 1_656
Ag0 Yb0 2.974187 1_666
Ag0 Yb0 2.974187 1_665
Ag0 In0 2.974187 1_555
Ag0 In0 2.974187 1_556
Ag0 In0 2.974187 1_565
Ag0 Yb0 2.974187 1_566
Ag0 In0 2.974187 1_655
Ag0 Yb0 2.974187 1_656
Ag1 In0 2.974187 1_555
Ag1 In0 2.974187 1_554
Ag1 Yb0 2.974187 1_555
Ag1 Yb0 2.974187 1_556
Ag1 In0 2.974187 1_545
Ag1 Yb0 2.974187 1_655
Ag1 Yb0 2.974187 1_565
Ag1 In0 2.974187 1_455
