# generated using pymatgen
data_Ca3CrN3
_symmetry_space_group_name_H-M   'P 1'
_cell_length_a   5.02865830
_cell_length_b   6.63762845
_cell_length_c   6.63746274
_cell_angle_alpha   100.93789993
_cell_angle_beta   90.00000000
_cell_angle_gamma   90.00000000
_symmetry_Int_Tables_number   1
_chemical_formula_structural   Ca3CrN3
_chemical_formula_sum   'Ca6 Cr2 N6'
_cell_volume   217.52289262
_cell_formula_units_Z   2
loop_
 _symmetry_equiv_pos_site_id
 _symmetry_equiv_pos_as_xyz
  1  'x, y, z'
loop_
 _atom_site_type_symbol
 _atom_site_label
 _atom_site_symmetry_multiplicity
 _atom_site_fract_x
 _atom_site_fract_y
 _atom_site_fract_z
 _atom_site_occupancy
  Ca  Ca0  1  0.25000000  0.40208971  0.16743375  1
  Ca  Ca1  1  0.75000000  0.10705932  0.89293922  1
  Ca  Ca2  1  0.75000000  0.16740827  0.40209152  1
  Ca  Ca3  1  0.25000000  0.89293775  0.10706439  1
  Ca  Ca4  1  0.75000000  0.59791667  0.83256959  1
  Ca  Ca5  1  0.25000000  0.83258828  0.59790222  1
  Cr  Cr0  1  0.75000000  0.69442098  0.30558280  1
  Cr  Cr1  1  0.25000000  0.30558142  0.69441454  1
  N  N0  1  0.75000000  0.43543290  0.18006368  1
  N  N1  1  0.25000000  0.12584583  0.87415965  1
  N  N2  1  0.75000000  0.87415923  0.12583509  1
  N  N3  1  0.25000000  0.18003508  0.43543635  1
  N  N4  1  0.25000000  0.56455513  0.81993185  1
  N  N5  1  0.75000000  0.81997043  0.56457536  1
loop_
_geom_bond_atom_site_label_1
_geom_bond_atom_site_label_2
_geom_bond_distance
_geom_bond_site_symmetry_2
Ca0 N1 2.407661 1_554
Ca0 N3 2.516295 1_555
Ca0 N0 2.524048 1_555
Ca0 N0 2.524048 1_455
Ca0 N4 2.725237 1_554
Ca1 N2 2.384598 1_546
Ca1 N1 2.521673 1_655
Ca1 N1 2.521673 1_555
Ca1 N5 2.608715 1_545
Ca1 N0 2.608905 1_556
Ca2 N2 2.407606 1_545
Ca2 N0 2.516297 1_555
Ca2 N3 2.524049 1_655
Ca2 N3 2.524049 1_555
Ca2 N5 2.724951 1_545
Ca3 N1 2.384684 1_564
Ca3 N2 2.521667 1_555
Ca3 N2 2.521667 1_455
Ca3 N3 2.608784 1_565
Ca3 N4 2.608978 1_554
Ca4 N2 2.407618 1_556
Ca4 N5 2.516246 1_555
Ca4 N4 2.524059 1_655
Ca4 N4 2.524059 1_555
Ca4 N0 2.725257 1_556
Ca5 N1 2.407647 1_565
Ca5 N4 2.516351 1_555
Ca5 N5 2.524038 1_555
Ca5 N5 2.524038 1_455
Ca5 N3 2.724939 1_565
Cr0 N0 1.762324 1_555
Cr0 N5 1.762376 1_555
Cr0 N2 1.840354 1_555
Cr1 N4 1.762236 1_555
Cr1 N3 1.762286 1_555
Cr1 N1 1.840327 1_555
