# generated using pymatgen
data_Be2CuIr
_symmetry_space_group_name_H-M   'P 1'
_cell_length_a   3.86931654
_cell_length_b   3.86931654
_cell_length_c   3.86931654
_cell_angle_alpha   59.95246666
_cell_angle_beta   59.95246666
_cell_angle_gamma   59.95246666
_symmetry_Int_Tables_number   1
_chemical_formula_structural   Be2CuIr
_chemical_formula_sum   'Be2 Cu1 Ir1'
_cell_volume   40.91846656
_cell_formula_units_Z   1
loop_
 _symmetry_equiv_pos_site_id
 _symmetry_equiv_pos_as_xyz
  1  'x, y, z'
loop_
 _atom_site_type_symbol
 _atom_site_label
 _atom_site_symmetry_multiplicity
 _atom_site_fract_x
 _atom_site_fract_y
 _atom_site_fract_z
 _atom_site_occupancy
  Be  Be0  1  0.50020402  0.50020402  0.50020402  1
  Be  Be1  1  -0.00020502  -0.00020502  -0.00020502  1
  Cu  Cu0  1  0.24999800  0.24999800  0.24999800  1
  Ir  Ir0  1  0.74999900  0.74999900  0.74999900  1
loop_
_geom_bond_atom_site_label_1
_geom_bond_atom_site_label_2
_geom_bond_distance
_geom_bond_site_symmetry_2
Be0 Cu0 2.367393 1_556
Be0 Cu0 2.367393 1_565
Be0 Cu0 2.367393 1_655
Be0 Ir0 2.368370 1_555
Be0 Ir0 2.368693 1_554
Be0 Ir0 2.368693 1_455
Be0 Ir0 2.368693 1_545
Be0 Cu0 2.372267 1_555
Be1 Cu0 2.367403 1_545
Be1 Cu0 2.367403 1_455
Be1 Cu0 2.367403 1_554
Be1 Ir0 2.368379 1_444
Be1 Ir0 2.368690 1_454
Be1 Ir0 2.368690 1_544
Be1 Ir0 2.368690 1_445
Be1 Cu0 2.372239 1_555
