# generated using pymatgen
data_TmTlRh2
_symmetry_space_group_name_H-M   'P 1'
_cell_length_a   4.66026046
_cell_length_b   4.66026697
_cell_length_c   4.66026118
_cell_angle_alpha   59.99986644
_cell_angle_beta   60.00001541
_cell_angle_gamma   60.00007699
_symmetry_Int_Tables_number   1
_chemical_formula_structural   TmTlRh2
_chemical_formula_sum   'Tm1 Tl1 Rh2'
_cell_volume   71.56754354
_cell_formula_units_Z   1
loop_
 _symmetry_equiv_pos_site_id
 _symmetry_equiv_pos_as_xyz
  1  'x, y, z'
loop_
 _atom_site_type_symbol
 _atom_site_label
 _atom_site_symmetry_multiplicity
 _atom_site_fract_x
 _atom_site_fract_y
 _atom_site_fract_z
 _atom_site_occupancy
  Tm  Tm0  1  0.75000000  0.75000000  0.74999900  1
  Tl  Tl0  1  0.24999900  0.25000100  0.25000000  1
  Rh  Rh0  1  0.00000000  0.99999900  0.00000200  1
  Rh  Rh1  1  0.50000000  0.50000000  0.49999800  1
loop_
_geom_bond_atom_site_label_1
_geom_bond_atom_site_label_2
_geom_bond_distance
_geom_bond_site_symmetry_2
Rh0 Tm0 2.853801 1_455
Rh0 Tl0 2.853810 1_555
Rh0 Tl0 2.853813 1_565
Rh0 Tm0 2.853818 1_554
Rh0 Tl0 2.853820 1_564
Rh0 Tm0 2.853822 1_464
Rh0 Tl0 2.853822 1_465
Rh0 Tm0 2.853824 1_454
Rh1 Tm0 2.853809 1_554
Rh1 Tl0 2.853809 1_555
Rh1 Tl0 2.853814 1_655
Rh1 Tm0 2.853818 1_545
Rh1 Tm0 2.853818 1_455
Rh1 Tl0 2.853820 1_556
Rh1 Tm0 2.853821 1_555
Rh1 Tl0 2.853822 1_565
