# generated using pymatgen
data_Tc3Rh
_symmetry_space_group_name_H-M   'P 1'
_cell_length_a   5.48342828
_cell_length_b   5.48342063
_cell_length_c   4.32565485
_cell_angle_alpha   89.99987416
_cell_angle_beta   90.00012976
_cell_angle_gamma   120.00076285
_symmetry_Int_Tables_number   1
_chemical_formula_structural   Tc3Rh
_chemical_formula_sum   'Tc6 Rh2'
_cell_volume   112.63746980
_cell_formula_units_Z   2
loop_
 _symmetry_equiv_pos_site_id
 _symmetry_equiv_pos_as_xyz
  1  'x, y, z'
loop_
 _atom_site_type_symbol
 _atom_site_label
 _atom_site_symmetry_multiplicity
 _atom_site_fract_x
 _atom_site_fract_y
 _atom_site_fract_z
 _atom_site_occupancy
  Tc  Tc0  1  0.15963856  0.31926454  0.24998304  1
  Tc  Tc1  1  0.68073590  0.84035991  0.24998304  1
  Tc  Tc2  1  0.15963143  0.84036533  0.24998628  1
  Tc  Tc3  1  0.84036023  0.68073247  0.75001943  1
  Tc  Tc4  1  0.31926718  0.15964015  0.75001943  1
  Tc  Tc5  1  0.84036606  0.15963466  0.75001632  1
  Rh  Rh0  1  0.33332948  0.66667402  0.74998164  1
  Rh  Rh1  1  0.66667117  0.33332692  0.25002082  1
loop_
_geom_bond_atom_site_label_1
_geom_bond_atom_site_label_2
_geom_bond_distance
_geom_bond_site_symmetry_2
Tc0 Tc2 2.625986 1_545
Tc0 Tc1 2.626002 1_445
Tc0 Tc4 2.641141 1_554
Tc0 Tc5 2.641191 1_454
Tc0 Tc4 2.641392 1_555
Tc0 Tc5 2.641430 1_455
Tc0 Tc1 2.857360 1_555
Tc0 Tc2 2.857434 1_555
Tc1 Tc2 2.625974 1_655
Tc1 Tc3 2.641138 1_554
Tc1 Tc5 2.641196 1_564
Tc1 Tc3 2.641389 1_555
Tc1 Tc5 2.641435 1_565
Tc1 Tc2 2.857454 1_555
Tc2 Tc3 2.641188 1_454
Tc2 Tc4 2.641197 1_564
Tc2 Tc3 2.641426 1_455
Tc2 Tc4 2.641434 1_565
Tc3 Tc5 2.626006 1_565
Tc3 Tc4 2.626022 1_665
Tc3 Tc4 2.857339 1_555
Tc3 Tc5 2.857414 1_555
Tc4 Tc5 2.626005 1_455
Tc4 Tc5 2.857423 1_555
Rh0 Tc2 2.720142 1_555
Rh0 Tc2 2.720181 1_556
Rh0 Tc1 2.720197 1_555
Rh0 Tc1 2.720203 1_556
Rh0 Tc0 2.720204 1_555
Rh0 Tc0 2.720210 1_556
Rh0 Tc5 2.742488 1_565
Rh0 Tc5 2.742503 1_455
Rh0 Tc4 2.742509 1_565
Rh0 Tc3 2.742519 1_455
Rh0 Tc3 2.742534 1_555
Rh0 Tc4 2.742537 1_555
Rh1 Tc5 2.720136 1_555
Rh1 Tc5 2.720174 1_554
Rh1 Tc4 2.720190 1_555
Rh1 Tc3 2.720193 1_555
Rh1 Tc4 2.720196 1_554
Rh1 Tc3 2.720199 1_554
Rh1 Tc2 2.742492 1_655
Rh1 Tc2 2.742499 1_545
Rh1 Tc0 2.742520 1_655
Rh1 Tc1 2.742521 1_545
Rh1 Tc1 2.742526 1_555
Rh1 Tc0 2.742534 1_555
