# generated using pymatgen
data_LuPaOs2
_symmetry_space_group_name_H-M   'P 1'
_cell_length_a   4.80455017
_cell_length_b   4.80454988
_cell_length_c   4.80454955
_cell_angle_alpha   59.99997167
_cell_angle_beta   59.99997561
_cell_angle_gamma   59.99996996
_symmetry_Int_Tables_number   1
_chemical_formula_structural   LuPaOs2
_chemical_formula_sum   'Lu1 Pa1 Os2'
_cell_volume   78.42289071
_cell_formula_units_Z   1
loop_
 _symmetry_equiv_pos_site_id
 _symmetry_equiv_pos_as_xyz
  1  'x, y, z'
loop_
 _atom_site_type_symbol
 _atom_site_label
 _atom_site_symmetry_multiplicity
 _atom_site_fract_x
 _atom_site_fract_y
 _atom_site_fract_z
 _atom_site_occupancy
  Lu  Lu0  1  0.25000094  0.25000087  0.25000088  1
  Pa  Pa0  1  0.75000086  0.75000100  0.75000088  1
  Os  Os0  1  -0.00000008  0.00000005  0.00000022  1
  Os  Os1  1  0.49999928  0.49999908  0.49999903  1
loop_
_geom_bond_atom_site_label_1
_geom_bond_atom_site_label_2
_geom_bond_distance
_geom_bond_site_symmetry_2
Lu0 Os1 2.942154 1_555
Lu0 Os0 2.942169 1_655
Lu0 Os0 2.942170 1_565
Lu0 Os0 2.942170 1_556
Lu0 Os1 2.942180 1_455
Lu0 Os1 2.942180 1_545
Lu0 Os1 2.942180 1_554
Lu0 Os0 2.942184 1_555
Os0 Pa0 2.942165 1_444
Os0 Pa0 2.942175 1_445
Os0 Pa0 2.942177 1_454
Os0 Pa0 2.942177 1_544
Os1 Pa0 2.942165 1_545
Os1 Pa0 2.942166 1_554
Os1 Pa0 2.942167 1_455
Os1 Pa0 2.942196 1_555
