# generated using pymatgen
data_Mn5Cr3O16
_symmetry_space_group_name_H-M   'P 1'
_cell_length_a   5.83421900
_cell_length_b   5.84056322
_cell_length_c   19.35827538
_cell_angle_alpha   98.60148437
_cell_angle_beta   90.07533470
_cell_angle_gamma   119.91765303
_symmetry_Int_Tables_number   1
_chemical_formula_structural   Mn5Cr3O16
_chemical_formula_sum   'Mn10 Cr6 O32'
_cell_volume   563.08211319
_cell_formula_units_Z   2
loop_
 _symmetry_equiv_pos_site_id
 _symmetry_equiv_pos_as_xyz
  1  'x, y, z'
loop_
 _atom_site_type_symbol
 _atom_site_label
 _atom_site_symmetry_multiplicity
 _atom_site_fract_x
 _atom_site_fract_y
 _atom_site_fract_z
 _atom_site_occupancy
  Mn  Mn0  1  0.12504100  0.00007400  0.62498900  1
  Mn  Mn1  1  0.37490300  0.99999600  0.87504800  1
  Mn  Mn2  1  0.49991900  0.99983400  0.99998700  1
  Mn  Mn3  1  0.24925600  0.99932200  0.75025200  1
  Mn  Mn4  1  0.87498500  0.99992000  0.87502700  1
  Mn  Mn5  1  0.00085900  0.00091600  0.49974400  1
  Mn  Mn6  1  0.37508900  0.00088300  0.37508200  1
  Mn  Mn7  1  0.12483300  0.99903000  0.12491900  1
  Mn  Mn8  1  0.87565700  0.00084000  0.37505700  1
  Mn  Mn9  1  0.62430200  0.99904800  0.12491900  1
  Cr  Cr0  1  0.87461300  0.49968600  0.87506900  1
  Cr  Cr1  1  0.62513100  0.00012800  0.62498700  1
  Cr  Cr2  1  0.62510000  0.50008800  0.62494600  1
  Cr  Cr3  1  0.37499300  0.50003400  0.37518200  1
  Cr  Cr4  1  0.75003500  0.00008800  0.24999300  1
  Cr  Cr5  1  0.12539600  0.50019400  0.12475700  1
  O  O0  1  0.46275700  0.23325000  0.93381400  1
  O  O1  1  0.90238400  0.23288100  0.93392000  1
  O  O2  1  0.95715200  0.76601300  0.92609100  1
  O  O3  1  0.84672300  0.76665400  0.81633100  1
  O  O4  1  0.28681600  0.76643000  0.81632800  1
  O  O5  1  0.28553600  0.20468300  0.81638000  1
  O  O6  1  0.46408100  0.79540200  0.93379800  1
  O  O7  1  0.21220500  0.79593500  0.68429300  1
  O  O8  1  0.40334600  0.23412700  0.43370200  1
  O  O9  1  0.65078800  0.23362000  0.68414400  1
  O  O10  1  0.79274500  0.23385100  0.82395900  1
  O  O11  1  0.54171300  0.23323500  0.57416400  1
  O  O12  1  0.70840800  0.76690700  0.67576800  1
  O  O13  1  0.03792000  0.20425500  0.56571600  1
  O  O14  1  0.78710900  0.76765800  0.31656100  1
  O  O15  1  0.03755200  0.76720900  0.56620800  1
  O  O16  1  0.21273300  0.23308900  0.68372500  1
  O  O17  1  0.96370900  0.23421800  0.43371700  1
  O  O18  1  0.96423800  0.79527900  0.43383400  1
  O  O19  1  0.29287500  0.23387200  0.32379800  1
  O  O20  1  0.34779100  0.76784700  0.31647300  1
  O  O21  1  0.45763600  0.76665000  0.42593300  1
  O  O22  1  0.20699100  0.76583000  0.17616700  1
  O  O23  1  0.59939300  0.76667900  0.56579100  1
  O  O24  1  0.53594500  0.20451500  0.06605100  1
  O  O25  1  0.78499200  0.20472100  0.31716800  1
  O  O26  1  0.71284600  0.23230100  0.18345100  1
  O  O27  1  0.71502500  0.79519000  0.18279000  1
  O  O28  1  0.04239000  0.23351900  0.07413200  1
  O  O29  1  0.15223700  0.23192800  0.18354400  1
  O  O30  1  0.09748600  0.76628000  0.06610000  1
  O  O31  1  0.53636300  0.76588800  0.06619600  1
loop_
_geom_bond_atom_site_label_1
_geom_bond_atom_site_label_2
_geom_bond_distance
_geom_bond_site_symmetry_2
Mn0 O16 1.499265 1_555
Mn0 O15 1.499394 1_545
Mn0 O13 2.002365 1_555
Mn0 O7 2.002702 1_545
Mn0 O12 2.415369 1_445
Mn0 O11 2.415969 1_555
Mn1 O0 1.500391 1_565
Mn1 O4 1.500824 1_555
Mn1 O6 2.004283 1_555
Mn1 O5 2.004296 1_565
Mn1 O2 2.423207 1_455
Mn1 O10 2.423939 1_565
Mn2 O24 1.549249 1_566
Mn2 O6 1.550400 1_555
Mn3 O7 1.541950 1_555
Mn3 O5 1.552065 1_565
Mn4 O3 1.576952 1_555
Mn4 O1 1.579610 1_565
Mn4 O2 2.032068 1_555
Mn4 O10 2.032477 1_565
Mn4 O5 2.451986 1_665
Mn4 O6 2.454689 1_555
Mn5 O13 1.541953 1_555
Mn5 O18 1.549518 1_445
Mn6 O8 1.576002 1_555
Mn6 O20 1.576861 1_545
Mn6 O19 2.030106 1_555
Mn6 O21 2.032563 1_545
Mn6 O25 2.441236 1_555
Mn6 O18 2.454709 1_445
Mn7 O29 1.576271 1_565
Mn7 O30 1.577994 1_555
Mn7 O22 2.030571 1_555
Mn7 O28 2.032783 1_565
Mn7 O27 2.440385 1_455
Mn7 O24 2.456984 1_565
Mn8 O14 1.496433 1_545
Mn8 O17 1.499439 1_555
Mn8 O25 1.994861 1_555
Mn8 O18 2.007271 1_545
Mn8 O19 2.422337 1_655
Mn8 O21 2.422905 1_545
Mn9 O26 1.497127 1_565
Mn9 O31 1.499475 1_555
Mn9 O27 1.994716 1_555
Mn9 O24 2.007257 1_565
Mn9 O28 2.422544 1_665
Mn9 O22 2.422758 1_555
Cr0 O10 1.554738 1_555
Cr0 O2 1.555320 1_555
Cr1 O9 1.588196 1_555
Cr1 O23 1.588309 1_545
Cr1 O12 2.029107 1_545
Cr1 O11 2.029479 1_555
Cr1 O13 2.467826 1_655
Cr1 O7 2.468804 1_545
Cr2 O11 1.554447 1_555
Cr2 O12 1.554757 1_555
Cr3 O21 1.553937 1_555
Cr3 O19 1.558477 1_555
Cr4 O25 1.565987 1_555
Cr4 O27 1.567186 1_545
Cr5 O28 1.552620 1_555
Cr5 O22 1.557008 1_555
