# generated using pymatgen
data_Li2MnVP2(HO5)2
_symmetry_space_group_name_H-M   'P 1'
_cell_length_a   6.87461586
_cell_length_b   7.31785082
_cell_length_c   8.15962131
_cell_angle_alpha   92.64474444
_cell_angle_beta   93.15529042
_cell_angle_gamma   117.09860972
_symmetry_Int_Tables_number   1
_chemical_formula_structural   Li2MnVP2(HO5)2
_chemical_formula_sum   'Li4 Mn2 V2 P4 H4 O20'
_cell_volume   363.70054119
_cell_formula_units_Z   2
loop_
 _symmetry_equiv_pos_site_id
 _symmetry_equiv_pos_as_xyz
  1  'x, y, z'
loop_
 _atom_site_type_symbol
 _atom_site_label
 _atom_site_symmetry_multiplicity
 _atom_site_fract_x
 _atom_site_fract_y
 _atom_site_fract_z
 _atom_site_occupancy
  Li  Li0  1  0.57351100  0.82675400  0.17712700  1
  Li  Li1  1  0.07050200  0.82610600  0.67692000  1
  Li  Li2  1  0.42642600  0.17327500  0.82278900  1
  Li  Li3  1  0.92936600  0.17398900  0.32305200  1
  Mn  Mn0  1  0.49991800  0.99971300  0.50008300  1
  Mn  Mn1  1  0.99996700  0.00002600  0.99990700  1
  V  V0  1  0.99986700  0.50004600  0.00005000  1
  V  V1  1  0.50004600  0.49992000  0.50010700  1
  P  P0  1  0.52055700  0.23150700  0.15444500  1
  P  P1  1  0.01710800  0.23151100  0.65436900  1
  P  P2  1  0.47942800  0.76852400  0.84558100  1
  P  P3  1  0.98292800  0.76855000  0.34564300  1
  H  H0  1  0.21318400  0.33517300  0.14990200  1
  H  H1  1  0.71255300  0.33922600  0.65035900  1
  H  H2  1  0.78692700  0.66522300  0.85019500  1
  H  H3  1  0.28737800  0.66050000  0.34959200  1
  O  O0  1  0.44263200  0.72520300  0.39842700  1
  O  O1  1  0.94333100  0.72990200  0.89555100  1
  O  O2  1  0.55730100  0.27436100  0.60146700  1
  O  O3  1  0.05674300  0.27036300  0.10450600  1
  O  O4  1  0.46176700  0.37808100  0.26065700  1
  O  O5  1  0.95803100  0.37836300  0.76037800  1
  O  O6  1  0.53830100  0.62192500  0.73935500  1
  O  O7  1  0.04187700  0.62165900  0.23953100  1
  O  O8  1  0.32709300  0.65224200  0.98090200  1
  O  O9  1  0.83365200  0.65706500  0.48225500  1
  O  O10  1  0.67288200  0.34784400  0.01910500  1
  O  O11  1  0.16639900  0.34293800  0.51776000  1
  O  O12  1  0.30844500  0.06798200  0.05270100  1
  O  O13  1  0.80253200  0.06513200  0.55552300  1
  O  O14  1  0.69160800  0.93208400  0.94722700  1
  O  O15  1  0.19764800  0.93467100  0.44447700  1
  O  O16  1  0.61928800  0.12098600  0.26140400  1
  O  O17  1  0.11715400  0.12227300  0.76163100  1
  O  O18  1  0.38069800  0.87897800  0.73860100  1
  O  O19  1  0.88295400  0.87790200  0.23842400  1
loop_
_geom_bond_atom_site_label_1
_geom_bond_atom_site_label_2
_geom_bond_distance
_geom_bond_site_symmetry_2
Li0 O19 2.013915 1_555
Li0 O0 2.077490 1_555
Li0 O16 2.104798 1_565
Li0 O14 2.122079 1_554
Li0 O8 2.146154 1_554
Li1 O18 2.015605 1_555
Li1 O1 2.041879 1_455
Li1 O9 2.098418 1_455
Li1 O17 2.117058 1_565
Li1 O15 2.163646 1_555
Li2 O17 2.012911 1_555
Li2 O2 2.076965 1_555
Li2 O18 2.105161 1_545
Li2 O12 2.121896 1_556
Li2 O10 2.146864 1_556
Li3 O16 2.014491 1_555
Li3 O3 2.041934 1_655
Li3 O11 2.099110 1_655
Li3 O19 2.116874 1_545
Li3 O13 2.163725 1_555
Mn0 O15 1.930196 1_555
Mn0 O13 1.931522 1_565
Mn0 O2 1.991911 1_565
Mn0 O0 1.991988 1_555
Mn0 O18 2.216906 1_555
Mn0 O16 2.219421 1_565
Mn1 O14 1.960990 1_545
Mn1 O12 1.961883 1_656
Mn1 O1 1.972586 1_545
Mn1 O3 1.974448 1_656
Mn1 O17 2.214889 1_655
Mn1 O19 2.216168 1_546
H0 O3 0.997005 1_555
H1 O2 0.998845 1_555
H2 O1 0.996728 1_555
H3 O0 0.998745 1_555
O0 V1 2.060333 1_555
O1 V0 2.097352 1_556
O2 V1 2.060462 1_555
O3 V0 2.097290 1_455
O4 P0 1.553263 1_555
O4 V1 2.061673 1_555
O5 P1 1.555159 1_655
O5 V0 2.060142 1_556
O6 P2 1.553813 1_555
O6 V1 2.060578 1_555
O7 P3 1.555302 1_455
O7 V0 2.058409 1_455
O8 P2 1.562733 1_555
O8 V0 2.024232 1_456
O9 P3 1.551892 1_555
O9 V1 2.062249 1_555
O10 P0 1.562930 1_555
O10 V0 2.022678 1_555
O11 P1 1.551811 1_555
O11 V1 2.062173 1_555
O12 P0 1.559755 1_555
O13 P1 1.565584 1_655
O14 P2 1.559740 1_555
O15 P3 1.565485 1_455
O16 P0 1.541601 1_555
O17 P1 1.541836 1_555
O18 P2 1.541325 1_555
O19 P3 1.541939 1_555
