# generated using pymatgen
data_ScGaCo2
_symmetry_space_group_name_H-M   'P 1'
_cell_length_a   4.17904230
_cell_length_b   4.17956673
_cell_length_c   4.17959223
_cell_angle_alpha   60.02459593
_cell_angle_beta   60.02170385
_cell_angle_gamma   60.02194194
_symmetry_Int_Tables_number   1
_chemical_formula_structural   ScGaCo2
_chemical_formula_sum   'Sc1 Ga1 Co2'
_cell_volume   51.64768225
_cell_formula_units_Z   1
loop_
 _symmetry_equiv_pos_site_id
 _symmetry_equiv_pos_as_xyz
  1  'x, y, z'
loop_
 _atom_site_type_symbol
 _atom_site_label
 _atom_site_symmetry_multiplicity
 _atom_site_fract_x
 _atom_site_fract_y
 _atom_site_fract_z
 _atom_site_occupancy
  Sc  Sc0  1  0.74999935  0.75000048  0.74999997  1
  Ga  Ga0  1  0.25000198  0.24999658  0.24999795  1
  Co  Co0  1  0.49999021  0.49993881  0.49992517  1
  Co  Co1  1  0.00000746  0.00006314  0.00007691  1
loop_
_geom_bond_atom_site_label_1
_geom_bond_atom_site_label_2
_geom_bond_distance
_geom_bond_site_symmetry_2
Co0 Ga0 2.558424 1_555
Co0 Sc0 2.559406 1_555
Co0 Sc0 2.559785 1_455
Co0 Ga0 2.559856 1_655
Co0 Sc0 2.559966 1_554
Co0 Sc0 2.560001 1_545
Co0 Ga0 2.560409 1_565
Co0 Ga0 2.560469 1_556
Co1 Ga0 2.558394 1_555
Co1 Sc0 2.559414 1_444
Co1 Sc0 2.559789 1_544
Co1 Ga0 2.559834 1_455
Co1 Sc0 2.559959 1_445
Co1 Sc0 2.559998 1_454
Co1 Ga0 2.560439 1_545
Co1 Ga0 2.560491 1_554
