# generated using pymatgen
data_Sr2LiFe2N3
_symmetry_space_group_name_H-M   'P 1'
_cell_length_a   6.50931312
_cell_length_b   6.50931312
_cell_length_c   6.55091168
_cell_angle_alpha   88.89951328
_cell_angle_beta   88.89951328
_cell_angle_gamma   119.69714211
_symmetry_Int_Tables_number   1
_chemical_formula_structural   Sr2LiFe2N3
_chemical_formula_sum   'Sr4 Li2 Fe4 N6'
_cell_volume   240.93633032
_cell_formula_units_Z   2
loop_
 _symmetry_equiv_pos_site_id
 _symmetry_equiv_pos_as_xyz
  1  'x, y, z'
loop_
 _atom_site_type_symbol
 _atom_site_label
 _atom_site_symmetry_multiplicity
 _atom_site_fract_x
 _atom_site_fract_y
 _atom_site_fract_z
 _atom_site_occupancy
  Sr  Sr0  1  0.82270900  0.68195900  0.90068500  1
  Sr  Sr1  1  0.31804100  0.17729100  0.59931500  1
  Sr  Sr2  1  0.17729100  0.31804100  0.09931500  1
  Sr  Sr3  1  0.68195900  0.82270900  0.40068500  1
  Li  Li0  1  0.80722400  0.19277600  0.75000000  1
  Li  Li1  1  0.19277600  0.80722400  0.25000000  1
  Fe  Fe0  1  0.57134100  0.16439400  0.10311200  1
  Fe  Fe1  1  0.42865900  0.83560600  0.89688800  1
  Fe  Fe2  1  0.83560600  0.42865900  0.39688800  1
  Fe  Fe3  1  0.16439400  0.57134100  0.60311200  1
  N  N0  1  0.41038900  0.58961100  0.75000000  1
  N  N1  1  0.58961100  0.41038900  0.25000000  1
  N  N2  1  0.99984400  0.71908200  0.51590300  1
  N  N3  1  0.71908200  0.99984400  0.01590300  1
  N  N4  1  0.00015600  0.28091800  0.48409700  1
  N  N5  1  0.28091800  0.00015600  0.98409700  1
loop_
_geom_bond_atom_site_label_1
_geom_bond_atom_site_label_2
_geom_bond_distance
_geom_bond_site_symmetry_2
Li0 N3 2.025893 1_546
Li0 N4 2.025893 1_655
Li1 N5 2.025893 1_564
Li1 N2 2.025893 1_455
Fe0 N1 1.838204 1_555
Fe0 N5 1.846816 1_554
Fe0 N3 1.849740 1_545
Fe1 N0 1.838204 1_555
Fe1 N3 1.846816 1_556
Fe1 N5 1.849740 1_565
Fe2 N1 1.838204 1_555
Fe2 N2 1.846816 1_555
Fe2 N4 1.849740 1_655
Fe3 N0 1.838204 1_555
Fe3 N4 1.846816 1_555
Fe3 N2 1.849740 1_455
N0 Sr0 2.658040 1_555
N0 Sr1 2.658040 1_555
N0 Sr3 2.777987 1_555
N0 Sr2 2.777987 1_556
N1 Sr2 2.658040 1_555
N1 Sr3 2.658040 1_555
N1 Sr0 2.777987 1_554
N1 Sr1 2.777987 1_555
N2 Sr3 2.594176 1_555
N2 Sr0 2.707499 1_555
N2 Sr1 2.733069 1_665
N3 Sr0 2.594176 1_554
N3 Sr3 2.707499 1_555
N3 Sr2 2.733069 1_665
N4 Sr1 2.594176 1_555
N4 Sr2 2.707499 1_555
N4 Sr3 2.733069 1_445
N5 Sr2 2.594176 1_556
N5 Sr1 2.707499 1_555
N5 Sr0 2.733069 1_445
