# generated using pymatgen
data_Tm2AlOs
_symmetry_space_group_name_H-M   'P 1'
_cell_length_a   4.85106365
_cell_length_b   4.85106365
_cell_length_c   4.85106365
_cell_angle_alpha   60.00000000
_cell_angle_beta   60.00000000
_cell_angle_gamma   60.00000000
_symmetry_Int_Tables_number   1
_chemical_formula_structural   Tm2AlOs
_chemical_formula_sum   'Tm2 Al1 Os1'
_cell_volume   80.72274466
_cell_formula_units_Z   1
loop_
 _symmetry_equiv_pos_site_id
 _symmetry_equiv_pos_as_xyz
  1  'x, y, z'
loop_
 _atom_site_type_symbol
 _atom_site_label
 _atom_site_symmetry_multiplicity
 _atom_site_fract_x
 _atom_site_fract_y
 _atom_site_fract_z
 _atom_site_occupancy
  Tm  Tm0  1  0.50000000  0.50000000  0.50000000  1
  Tm  Tm1  1  -0.00000000  -0.00000000  -0.00000000  1
  Al  Al0  1  0.25000000  0.25000000  0.25000000  1
  Os  Os0  1  0.75000000  0.75000000  0.75000000  1
loop_
_geom_bond_atom_site_label_1
_geom_bond_atom_site_label_2
_geom_bond_distance
_geom_bond_site_symmetry_2
Al0 Tm1 2.970658 1_556
Al0 Tm1 2.970658 1_655
Al0 Tm0 2.970658 1_545
Al0 Tm1 2.970658 1_565
Al0 Tm1 2.970658 1_555
Al0 Tm0 2.970658 1_555
Al0 Tm0 2.970658 1_554
Al0 Tm0 2.970658 1_455
Os0 Tm0 2.970658 1_655
Os0 Tm0 2.970658 1_556
Os0 Tm1 2.970658 1_656
Os0 Tm1 2.970658 1_566
Os0 Tm1 2.970658 1_665
Os0 Tm0 2.970658 1_555
Os0 Tm1 2.970658 1_666
Os0 Tm0 2.970658 1_565
