# generated using pymatgen
data_Li3Fe2(PO4)3
_symmetry_space_group_name_H-M   'P 1'
_cell_length_a   8.39074700
_cell_length_b   8.41317436
_cell_length_c   9.05010400
_cell_angle_alpha   117.68347990
_cell_angle_beta   90.02470971
_cell_angle_gamma   119.87948040
_symmetry_Int_Tables_number   1
_chemical_formula_structural   Li3Fe2(PO4)3
_chemical_formula_sum   'Li6 Fe4 P6 O24'
_cell_volume   467.63481886
_cell_formula_units_Z   2
loop_
 _symmetry_equiv_pos_site_id
 _symmetry_equiv_pos_as_xyz
  1  'x, y, z'
loop_
 _atom_site_type_symbol
 _atom_site_label
 _atom_site_symmetry_multiplicity
 _atom_site_fract_x
 _atom_site_fract_y
 _atom_site_fract_z
 _atom_site_occupancy
  Li  Li0  1  0.08119200  0.12301800  0.14826600  1
  Li  Li1  1  0.32919800  0.78043800  0.14194600  1
  Li  Li2  1  0.74529700  0.17727200  0.38016200  1
  Li  Li3  1  0.26715200  0.46144800  0.86448100  1
  Li  Li4  1  0.67133500  0.20466300  0.86450400  1
  Li  Li5  1  0.92241900  0.86996200  0.86316600  1
  Fe  Fe0  1  0.35733600  0.60941400  0.04676100  1
  Fe  Fe1  1  0.15044600  0.41180500  0.44120200  1
  Fe  Fe2  1  0.85725800  0.58568500  0.56109300  1
  Fe  Fe3  1  0.65315700  0.39412300  0.95614900  1
  P  P0  1  0.03929100  0.30030500  0.24441000  1
  P  P1  1  0.45825700  0.99754900  0.25360200  1
  P  P2  1  0.75084000  0.70546700  0.25145400  1
  P  P3  1  0.25283700  0.28770100  0.75320900  1
  P  P4  1  0.53782100  0.99823200  0.74899100  1
  P  P5  1  0.96015100  0.69325900  0.75781200  1
  O  O0  1  0.17348200  0.31548800  0.19579300  1
  O  O1  1  0.13344800  0.48958900  0.26081600  1
  O  O2  1  0.99764600  0.97971800  0.41374400  1
  O  O3  1  0.46159500  0.10840000  0.10155600  1
  O  O4  1  0.25249500  0.85263100  0.27087200  1
  O  O5  1  0.49255200  0.26374500  0.20305500  1
  O  O6  1  0.53331900  0.63756200  0.19579900  1
  O  O7  1  0.79549000  0.05265400  0.09492400  1
  O  O8  1  0.84692400  0.44644600  0.08923700  1
  O  O9  1  0.19821100  0.41127600  0.58641500  1
  O  O10  1  0.12686000  0.40978700  0.73147000  1
  O  O11  1  0.38497600  0.22080700  0.57461700  1
  O  O12  1  0.61703000  0.78626000  0.42432400  1
  O  O13  1  0.87136900  0.55788100  0.28674400  1
  O  O14  1  0.79996400  0.59131700  0.41365200  1
  O  O15  1  0.15758700  0.55076100  0.90766700  1
  O  O16  1  0.21047800  0.93865400  0.90831400  1
  O  O17  1  0.46922900  0.35691700  0.80987700  1
  O  O18  1  0.50425800  0.72058600  0.80944800  1
  O  O19  1  0.74349300  0.14132700  0.73116900  1
  O  O20  1  0.52304600  0.90455200  0.89000200  1
  O  O21  1  0.98759200  0.01903300  0.58173300  1
  O  O22  1  0.86448500  0.50508900  0.74093300  1
  O  O23  1  0.83300000  0.68105100  0.80854900  1
loop_
_geom_bond_atom_site_label_1
_geom_bond_atom_site_label_2
_geom_bond_distance
_geom_bond_site_symmetry_2
Li0 O0 1.228792 1_555
Li0 P0 1.556365 1_555
Li0 O7 2.156343 1_455
Li1 P1 1.357730 1_555
Li1 O4 1.369731 1_555
Li1 O15 1.928991 1_554
Li2 P1 2.039342 1_545
Li2 O7 2.422085 1_555
Li3 P3 1.273759 1_555
Li3 O15 1.406500 1_555
Li3 O10 1.423558 1_555
Li3 O18 2.376440 1_555
Li4 P4 1.318184 1_545
Li4 O19 1.353238 1_555
Li4 O8 1.900595 1_556
Li5 O23 1.189483 1_555
Li5 P5 1.539987 1_555
Li5 O16 2.175077 1_655
Li5 O7 2.556053 1_566
Fe0 Li3 1.412750 1_554
Fe0 Li1 1.433552 1_555
Fe0 O15 1.798388 1_554
Fe0 O6 1.846314 1_555
Fe1 O9 1.376411 1_555
Fe1 P0 1.579954 1_555
Fe2 O14 1.447326 1_555
Fe2 P5 1.567497 1_555
Fe3 Li4 1.505266 1_555
Fe3 O8 1.755122 1_556
Fe3 O17 1.834126 1_555
Fe3 P2 2.455579 1_556
O0 P0 1.177729 1_555
O1 P0 1.307235 1_555
O2 O21 1.410160 1_565
O2 P2 1.963991 1_555
O3 O5 1.079541 1_555
O3 P1 1.982530 1_545
O4 P1 1.603654 1_555
O6 P2 1.613761 1_555
O7 P0 1.867607 1_655
O10 O15 1.397705 1_555
O11 O17 1.808576 1_555
O11 P3 1.984051 1_555
O12 O6 1.747833 1_555
O12 P2 1.985967 1_555
O13 O14 1.274967 1_555
O13 O8 1.538513 1_555
O13 P2 2.070235 1_555
O14 P2 2.225021 1_555
O16 P5 1.895628 1_455
O17 P3 1.602212 1_555
O18 O20 1.288486 1_555
O19 P4 1.601305 1_545
O20 P4 1.761388 1_555
O21 P3 2.048461 1_655
O22 P5 1.297287 1_555
O23 P5 1.137855 1_555
