# generated using pymatgen
data_LiCoO2
_symmetry_space_group_name_H-M   'P 1'
_cell_length_a   5.63403108
_cell_length_b   5.62903356
_cell_length_c   5.63400363
_cell_angle_alpha   119.99971129
_cell_angle_beta   89.94817422
_cell_angle_gamma   60.00002343
_symmetry_Int_Tables_number   1
_chemical_formula_structural   LiCoO2
_chemical_formula_sum   'Li4 Co4 O8'
_cell_volume   126.28750788
_cell_formula_units_Z   4
loop_
 _symmetry_equiv_pos_site_id
 _symmetry_equiv_pos_as_xyz
  1  'x, y, z'
loop_
 _atom_site_type_symbol
 _atom_site_label
 _atom_site_symmetry_multiplicity
 _atom_site_fract_x
 _atom_site_fract_y
 _atom_site_fract_z
 _atom_site_occupancy
  Li  Li0  1  0.49998121  0.00004042  0.00001990  1
  Li  Li1  1  0.50006490  0.50001210  0.49998192  1
  Li  Li2  1  0.00005732  0.99990416  0.99986551  1
  Li  Li3  1  0.50001114  0.50000639  0.00000088  1
  Co  Co0  1  0.00000906  0.49999584  -0.00001455  1
  Co  Co1  1  0.00000919  0.49999205  0.49998970  1
  Co  Co2  1  0.50000526  0.00000147  0.49998792  1
  Co  Co3  1  0.00000548  0.00000684  0.49999292  1
  O  O0  1  0.75963582  0.98112608  0.25999610  1
  O  O1  1  0.76001884  0.51886313  0.25961837  1
  O  O2  1  0.22112902  0.51887052  0.25923465  1
  O  O3  1  0.75924812  0.98112805  0.72111957  1
  O  O4  1  0.24076285  0.01886572  0.27885732  1
  O  O5  1  0.77888220  0.48113610  0.74075689  1
  O  O6  1  0.24000117  0.48113001  0.74036374  1
  O  O7  1  0.24037142  0.01887413  0.73998617  1
loop_
_geom_bond_atom_site_label_1
_geom_bond_atom_site_label_2
_geom_bond_distance
_geom_bond_site_symmetry_2
Li0 O2 2.067090 1_555
Li0 O5 2.067389 1_544
Li0 O4 2.070433 1_555
Li0 O3 2.070545 1_544
Li0 O0 2.073850 1_545
Li0 O7 2.073892 1_554
Li1 O7 2.067217 1_565
Li1 O0 2.067321 1_545
Li1 O1 2.070189 1_555
Li1 O6 2.070840 1_555
Li1 O5 2.073681 1_555
Li1 O2 2.074064 1_555
Li2 O6 2.066872 1_555
Li2 O1 2.067606 1_466
Li2 O7 2.070182 1_565
Li2 O0 2.070839 1_456
Li2 O3 2.073518 1_455
Li2 O4 2.074134 1_566
Li3 O4 2.067204 1_565
Li3 O3 2.067284 1_544
Li3 O5 2.070499 1_554
Li3 O2 2.070529 1_555
Li3 O1 2.073821 1_555
Li3 O6 2.073912 1_554
Co0 O7 1.917294 1_554
Co0 O0 1.917330 1_455
Co0 O6 1.917429 1_554
Co0 O1 1.917462 1_455
Co0 O5 1.917531 1_454
Co0 O2 1.917590 1_555
Co1 O4 1.917312 1_555
Co1 O3 1.917353 1_455
Co1 O5 1.917440 1_455
Co1 O2 1.917455 1_555
Co1 O1 1.917559 1_455
Co1 O6 1.917574 1_555
Co2 O6 1.917321 1_555
Co2 O1 1.917362 1_545
Co2 O0 1.917428 1_545
Co2 O7 1.917477 1_555
Co2 O4 1.917603 1_555
Co2 O3 1.917609 1_545
Co3 O5 1.917327 1_455
Co3 O2 1.917356 1_545
Co3 O4 1.917445 1_555
Co3 O3 1.917493 1_445
Co3 O7 1.917548 1_555
Co3 O0 1.917581 1_445
