# generated using pymatgen
data_Hf3Al2
_symmetry_space_group_name_H-M   'P 1'
_cell_length_a   6.86770743
_cell_length_b   7.53562323
_cell_length_c   7.53562323
_cell_angle_alpha   90.00000152
_cell_angle_beta   90.00000000
_cell_angle_gamma   90.00000000
_symmetry_Int_Tables_number   1
_chemical_formula_structural   Hf3Al2
_chemical_formula_sum   'Hf12 Al8'
_cell_volume   389.98700698
_cell_formula_units_Z   4
loop_
 _symmetry_equiv_pos_site_id
 _symmetry_equiv_pos_as_xyz
  1  'x, y, z'
loop_
 _atom_site_type_symbol
 _atom_site_label
 _atom_site_symmetry_multiplicity
 _atom_site_fract_x
 _atom_site_fract_y
 _atom_site_fract_z
 _atom_site_occupancy
  Hf  Hf0  1  -0.00000000  0.34549202  0.34549202  1
  Hf  Hf1  1  0.50000000  0.15451034  0.84548966  1
  Hf  Hf2  1  0.50000000  0.84548966  0.15451034  1
  Hf  Hf3  1  -0.00000000  0.65450798  0.65450798  1
  Hf  Hf4  1  -0.00000000  0.20219261  0.79780739  1
  Hf  Hf5  1  0.50000000  0.70219257  0.70219257  1
  Hf  Hf6  1  0.50000000  0.29780743  0.29780743  1
  Hf  Hf7  1  -0.00000000  0.79780739  0.20219261  1
  Hf  Hf8  1  0.24997526  0.00000000  0.50000000  1
  Hf  Hf9  1  0.75002474  0.00000000  0.50000000  1
  Hf  Hf10  1  0.24997526  0.50000000  0.00000000  1
  Hf  Hf11  1  0.75002474  0.50000000  0.00000000  1
  Al  Al0  1  0.20982481  0.12126595  0.12126595  1
  Al  Al1  1  0.70983104  0.37873552  0.62126448  1
  Al  Al2  1  0.70983104  0.62126448  0.37873552  1
  Al  Al3  1  0.20982481  0.87873405  0.87873405  1
  Al  Al4  1  0.29016896  0.62126448  0.37873552  1
  Al  Al5  1  0.29016896  0.37873552  0.62126448  1
  Al  Al6  1  0.79017519  0.12126595  0.12126595  1
  Al  Al7  1  0.79017519  0.87873405  0.87873405  1
loop_
_geom_bond_atom_site_label_1
_geom_bond_atom_site_label_2
_geom_bond_distance
_geom_bond_site_symmetry_2
Al0 Al3 2.584658 1_544
Al0 Hf6 2.740633 1_555
Al0 Hf0 2.790445 1_555
Al0 Al6 2.882031 1_455
Al0 Hf1 2.890131 1_554
Al0 Hf2 2.890131 1_545
Al0 Hf7 2.896488 1_545
Al0 Hf4 2.896488 1_554
Al0 Hf8 3.009384 1_555
Al0 Hf10 3.009384 1_555
Al1 Al2 2.584626 1_555
Al1 Hf4 2.740612 1_655
Al1 Hf1 2.790459 1_555
Al1 Al5 2.882116 1_555
Al1 Hf3 2.890080 1_655
Al1 Hf0 2.890080 1_655
Al1 Hf6 2.896502 1_555
Al1 Hf5 2.896502 1_555
Al1 Hf11 3.009418 1_556
Al1 Hf9 3.009418 1_555
Al2 Hf7 2.740612 1_655
Al2 Hf2 2.790459 1_555
Al2 Al4 2.882116 1_555
Al2 Hf0 2.890080 1_655
Al2 Hf3 2.890080 1_655
Al2 Hf6 2.896502 1_555
Al2 Hf5 2.896502 1_555
Al2 Hf9 3.009418 1_565
Al2 Hf11 3.009418 1_555
Al3 Hf5 2.740633 1_555
Al3 Hf3 2.790445 1_555
Al3 Al7 2.882031 1_455
Al3 Hf2 2.890131 1_556
Al3 Hf1 2.890131 1_565
Al3 Hf7 2.896488 1_556
Al3 Hf4 2.896488 1_565
Al3 Hf8 3.009384 1_565
Al3 Hf10 3.009384 1_556
Al4 Al5 2.584626 1_555
Al4 Hf7 2.740612 1_555
Al4 Hf2 2.790459 1_555
Al4 Hf0 2.890080 1_555
Al4 Hf3 2.890080 1_555
Al4 Hf6 2.896502 1_555
Al4 Hf5 2.896502 1_555
Al4 Hf10 3.009418 1_555
Al4 Hf8 3.009418 1_565
Al5 Hf4 2.740612 1_555
Al5 Hf1 2.790459 1_555
Al5 Hf3 2.890080 1_555
Al5 Hf0 2.890080 1_555
Al5 Hf6 2.896502 1_555
Al5 Hf5 2.896502 1_555
Al5 Hf10 3.009418 1_556
Al5 Hf8 3.009418 1_555
Al6 Al7 2.584658 1_544
Al6 Hf6 2.740633 1_555
Al6 Hf0 2.790445 1_655
Al6 Hf1 2.890131 1_554
Al6 Hf2 2.890131 1_545
Al6 Hf7 2.896488 1_645
Al6 Hf4 2.896488 1_654
Al6 Hf11 3.009384 1_555
Al6 Hf9 3.009384 1_555
Al7 Hf5 2.740633 1_555
Al7 Hf3 2.790445 1_655
Al7 Hf2 2.890131 1_556
Al7 Hf1 2.890131 1_565
Al7 Hf4 2.896488 1_665
Al7 Hf7 2.896488 1_656
Al7 Hf11 3.009384 1_556
Al7 Hf9 3.009384 1_565
