# generated using pymatgen
data_Li2VFeO4
_symmetry_space_group_name_H-M   'P 1'
_cell_length_a   5.24372981
_cell_length_b   5.24372981
_cell_length_c   5.24372981
_cell_angle_alpha   133.71559459
_cell_angle_beta   133.71559459
_cell_angle_gamma   67.53256174
_symmetry_Int_Tables_number   1
_chemical_formula_structural   Li2VFeO4
_chemical_formula_sum   'Li2 V1 Fe1 O4'
_cell_volume   74.05630148
_cell_formula_units_Z   1
loop_
 _symmetry_equiv_pos_site_id
 _symmetry_equiv_pos_as_xyz
  1  'x, y, z'
loop_
 _atom_site_type_symbol
 _atom_site_label
 _atom_site_symmetry_multiplicity
 _atom_site_fract_x
 _atom_site_fract_y
 _atom_site_fract_z
 _atom_site_occupancy
  Li  Li0  1  0.25000000  0.75000000  0.50000000  1
  Li  Li1  1  0.50000000  0.50000000  0.00000000  1
  V  V0  1  0.00000000  0.00000000  0.00000000  1
  Fe  Fe0  1  0.75000000  0.25000000  0.50000000  1
  O  O0  1  0.51346500  0.01346500  0.50000000  1
  O  O1  1  0.23049700  0.23049700  0.00000000  1
  O  O2  1  0.98653500  0.48653500  0.50000000  1
  O  O3  1  0.76950300  0.76950300  0.00000000  1
loop_
_geom_bond_atom_site_label_1
_geom_bond_atom_site_label_2
_geom_bond_distance
_geom_bond_site_symmetry_2
Li0 O3 2.067865 1_556
Li0 O1 2.067865 1_555
Li0 O3 2.067865 1_455
Li0 O1 2.067865 1_566
Li0 O2 2.296980 1_455
Li0 O0 2.296980 1_565
Li1 O2 2.064203 1_454
Li1 O0 2.064203 1_565
Li1 O0 2.064203 1_554
Li1 O2 2.064203 1_555
Li1 O1 2.349621 1_555
Li1 O3 2.349621 1_555
Fe0 O0 2.062194 1_555
Fe0 O2 2.062194 1_555
Fe0 O1 2.067865 1_656
Fe0 O3 2.067865 1_556
Fe0 O1 2.067865 1_555
Fe0 O3 2.067865 1_545
O0 V0 2.064203 1_555
O0 V0 2.064203 1_656
O1 V0 2.009553 1_555
O2 V0 2.064203 1_666
O2 V0 2.064203 1_655
O3 V0 2.009553 1_665
