# generated using pymatgen
data_Na3CrP8O23
_symmetry_space_group_name_H-M   'P 1'
_cell_length_a   11.86746498
_cell_length_b   11.86746498
_cell_length_c   11.86746498
_cell_angle_alpha   90.00000000
_cell_angle_beta   90.00000000
_cell_angle_gamma   90.00000000
_symmetry_Int_Tables_number   1
_chemical_formula_structural   Na3CrP8O23
_chemical_formula_sum   'Na12 Cr4 P32 O92'
_cell_volume   1671.37490245
_cell_formula_units_Z   4
loop_
 _symmetry_equiv_pos_site_id
 _symmetry_equiv_pos_as_xyz
  1  'x, y, z'
loop_
 _atom_site_type_symbol
 _atom_site_label
 _atom_site_symmetry_multiplicity
 _atom_site_fract_x
 _atom_site_fract_y
 _atom_site_fract_z
 _atom_site_occupancy
  Na  Na0  1  0.37500000  0.95660347  0.79339653  1
  Na  Na1  1  0.87500000  0.54339653  0.20660347  1
  Na  Na2  1  0.04339653  0.29339653  0.12500000  1
  Na  Na3  1  0.95660347  0.79339653  0.37500000  1
  Na  Na4  1  0.20660347  0.87500000  0.54339653  1
  Na  Na5  1  0.29339653  0.12500000  0.04339653  1
  Na  Na6  1  0.45660347  0.70660347  0.62500000  1
  Na  Na7  1  0.79339653  0.37500000  0.95660347  1
  Na  Na8  1  0.70660347  0.62500000  0.45660347  1
  Na  Na9  1  0.54339653  0.20660347  0.87500000  1
  Na  Na10  1  0.62500000  0.45660347  0.70660347  1
  Na  Na11  1  0.12500000  0.04339653  0.29339653  1
  Cr  Cr0  1  0.87500000  0.12500000  0.62500000  1
  Cr  Cr1  1  0.12500000  0.62500000  0.87500000  1
  Cr  Cr2  1  0.62500000  0.87500000  0.12500000  1
  Cr  Cr3  1  0.37500000  0.37500000  0.37500000  1
  P  P0  1  0.06852263  0.35874654  0.85559899  1
  P  P1  1  0.89440101  0.39125346  0.68147737  1
  P  P2  1  0.35874654  0.85559899  0.06852263  1
  P  P3  1  0.85874654  0.64440101  0.93147737  1
  P  P4  1  0.64125346  0.35559899  0.43147737  1
  P  P5  1  0.64440101  0.93147737  0.85874654  1
  P  P6  1  0.43147737  0.64125346  0.35559899  1
  P  P7  1  0.93147737  0.85874654  0.64440101  1
  P  P8  1  0.85559899  0.06852263  0.35874654  1
  P  P9  1  0.60559899  0.60874654  0.18147737  1
  P  P10  1  0.35559899  0.43147737  0.64125346  1
  P  P11  1  0.14440101  0.56852263  0.14125346  1
  P  P12  1  0.81852263  0.10559899  0.89125346  1
  P  P13  1  0.39440101  0.10874654  0.31852263  1
  P  P14  1  0.10559899  0.89125346  0.81852263  1
  P  P15  1  0.68147737  0.89440101  0.39125346  1
  P  P16  1  0.31852263  0.39440101  0.10874654  1
  P  P17  1  0.89125346  0.81852263  0.10559899  1
  P  P18  1  0.39125346  0.68147737  0.89440101  1
  P  P19  1  0.14125346  0.14440101  0.56852263  1
  P  P20  1  0.18147737  0.60559899  0.60874654  1
  P  P21  1  0.10874654  0.31852263  0.39440101  1
  P  P22  1  0.60874654  0.18147737  0.60559899  1
  P  P23  1  0.01981563  0.01981563  0.01981563  1
  P  P24  1  0.26981563  0.23018437  0.76981563  1
  P  P25  1  0.76981563  0.26981563  0.23018437  1
  P  P26  1  0.23018437  0.76981563  0.26981563  1
  P  P27  1  0.48018437  0.98018437  0.51981563  1
  P  P28  1  0.51981563  0.48018437  0.98018437  1
  P  P29  1  0.98018437  0.51981563  0.48018437  1
  P  P30  1  0.73018437  0.73018437  0.73018437  1
  P  P31  1  0.56852263  0.14125346  0.14440101  1
  O  O0  1  0.65887444  0.65887444  0.65887444  1
  O  O1  1  0.90887444  0.59112556  0.40887444  1
  O  O2  1  0.59112556  0.40887444  0.90887444  1
  O  O3  1  0.40887444  0.90887444  0.59112556  1
  O  O4  1  0.15887444  0.84112556  0.34112556  1
  O  O5  1  0.84112556  0.34112556  0.15887444  1
  O  O6  1  0.34112556  0.15887444  0.84112556  1
  O  O7  1  0.09112556  0.09112556  0.09112556  1
  O  O8  1  0.43822622  0.51413360  0.68220423  1
  O  O9  1  0.93822622  0.98586640  0.31779577  1
  O  O10  1  0.51413360  0.68220423  0.43822622  1
  O  O11  1  0.48586640  0.18220423  0.06177378  1
  O  O12  1  0.68220423  0.43822622  0.51413360  1
  O  O13  1  0.81779577  0.56177378  0.01413360  1
  O  O14  1  0.18822622  0.93220423  0.73586640  1
  O  O15  1  0.68822622  0.56779577  0.26413360  1
  O  O16  1  0.81177378  0.43220423  0.76413360  1
  O  O17  1  0.56779577  0.26413360  0.68822622  1
  O  O18  1  0.76413360  0.81177378  0.43220423  1
  O  O19  1  0.26413360  0.68822622  0.56779577  1
  O  O20  1  0.93220423  0.73586640  0.18822622  1
  O  O21  1  0.73586640  0.18822622  0.93220423  1
  O  O22  1  0.43220423  0.76413360  0.81177378  1
  O  O23  1  0.06779577  0.23586640  0.31177378  1
  O  O24  1  0.23586640  0.31177378  0.06779577  1
  O  O25  1  0.31779577  0.93822622  0.98586640  1
  O  O26  1  0.18220423  0.06177378  0.48586640  1
  O  O27  1  0.01413360  0.81779577  0.56177378  1
  O  O28  1  0.98586640  0.31779577  0.93822622  1
  O  O29  1  0.06177378  0.48586640  0.18220423  1
  O  O30  1  0.56177378  0.01413360  0.81779577  1
  O  O31  1  0.31177378  0.06779577  0.23586640  1
  O  O32  1  0.62500000  0.23329360  0.48329360  1
  O  O33  1  0.76670640  0.98329360  0.87500000  1
  O  O34  1  0.74245597  0.32802820  0.34476585  1
  O  O35  1  0.48329360  0.62500000  0.23329360  1
  O  O36  1  0.23329360  0.48329360  0.62500000  1
  O  O37  1  0.51670640  0.12500000  0.26670640  1
  O  O38  1  0.98329360  0.87500000  0.76670640  1
  O  O39  1  0.73329360  0.01670640  0.37500000  1
  O  O40  1  0.26670640  0.51670640  0.12500000  1
  O  O41  1  0.87500000  0.76670640  0.98329360  1
  O  O42  1  0.37500000  0.73329360  0.01670640  1
  O  O43  1  0.12500000  0.26670640  0.51670640  1
  O  O44  1  0.32802820  0.34476585  0.74245597  1
  O  O45  1  0.82802820  0.15523415  0.25754403  1
  O  O46  1  0.34476585  0.74245597  0.32802820  1
  O  O47  1  0.65523415  0.24245597  0.17197180  1
  O  O48  1  0.03970141  0.11877931  0.63742678  1
  O  O49  1  0.28970141  0.61257322  0.86877931  1
  O  O50  1  0.78970141  0.88742678  0.13122069  1
  O  O51  1  0.38742678  0.36877931  0.21029859  1
  O  O52  1  0.61257322  0.86877931  0.28970141  1
  O  O53  1  0.13122069  0.78970141  0.88742678  1
  O  O54  1  0.36877931  0.21029859  0.38742678  1
  O  O55  1  0.63742678  0.03970141  0.11877931  1
  O  O56  1  0.11877931  0.63742678  0.03970141  1
  O  O57  1  0.38122069  0.36257322  0.53970141  1
  O  O58  1  0.13742678  0.46029859  0.88122069  1
  O  O59  1  0.88122069  0.13742678  0.46029859  1
  O  O60  1  0.86257322  0.96029859  0.61877931  1
  O  O61  1  0.36257322  0.53970141  0.38122069  1
  O  O62  1  0.61877931  0.86257322  0.96029859  1
  O  O63  1  0.53970141  0.38122069  0.36257322  1
  O  O64  1  0.96029859  0.61877931  0.86257322  1
  O  O65  1  0.46029859  0.88122069  0.13742678  1
  O  O66  1  0.86877931  0.28970141  0.61257322  1
  O  O67  1  0.63122069  0.71029859  0.11257322  1
  O  O68  1  0.88742678  0.13122069  0.78970141  1
  O  O69  1  0.11257322  0.63122069  0.71029859  1
  O  O70  1  0.21029859  0.38742678  0.36877931  1
  O  O71  1  0.71029859  0.11257322  0.63122069  1
  O  O72  1  0.42197180  0.00754403  0.40523415  1
  O  O73  1  0.67197180  0.84476585  0.75754403  1
  O  O74  1  0.17197180  0.65523415  0.24245597  1
  O  O75  1  0.15523415  0.25754403  0.82802820  1
  O  O76  1  0.84476585  0.75754403  0.67197180  1
  O  O77  1  0.24245597  0.17197180  0.65523415  1
  O  O78  1  0.25754403  0.82802820  0.15523415  1
  O  O79  1  0.40523415  0.42197180  0.00754403  1
  O  O80  1  0.00754403  0.40523415  0.42197180  1
  O  O81  1  0.49245597  0.59476585  0.92197180  1
  O  O82  1  0.90523415  0.07802820  0.99245597  1
  O  O83  1  0.99245597  0.90523415  0.07802820  1
  O  O84  1  0.09476585  0.57802820  0.50754403  1
  O  O85  1  0.59476585  0.92197180  0.49245597  1
  O  O86  1  0.50754403  0.09476585  0.57802820  1
  O  O87  1  0.92197180  0.49245597  0.59476585  1
  O  O88  1  0.57802820  0.50754403  0.09476585  1
  O  O89  1  0.07802820  0.99245597  0.90523415  1
  O  O90  1  0.75754403  0.67197180  0.84476585  1
  O  O91  1  0.01670640  0.37500000  0.73329360  1
loop_
_geom_bond_atom_site_label_1
_geom_bond_atom_site_label_2
_geom_bond_distance
_geom_bond_site_symmetry_2
Na0 O14 2.337303 1_555
Na0 O30 2.337303 1_565
Na0 O22 2.392838 1_555
Na0 O25 2.392838 1_555
Na0 O3 2.498914 1_555
Na0 O6 2.498914 1_565
Na1 O15 2.337303 1_555
Na1 O29 2.337303 1_655
Na1 O13 2.392838 1_555
Na1 O20 2.392838 1_555
Na1 O5 2.498914 1_555
Na1 O1 2.498914 1_555
Na2 O28 2.337303 1_454
Na2 O23 2.337303 1_555
Na2 O24 2.392838 1_555
Na2 O29 2.392838 1_555
Na2 O5 2.498914 1_455
Na2 O7 2.498914 1_555
Na3 O27 2.337303 1_655
Na3 O20 2.337303 1_555
Na3 O18 2.392838 1_555
Na3 O9 2.392838 1_555
Na3 O4 2.498914 1_655
Na3 O1 2.498914 1_555
Na4 O19 2.337303 1_555
Na4 O26 2.337303 1_565
Na4 O27 2.392838 1_555
Na4 O14 2.392838 1_555
Na4 O4 2.498914 1_555
Na4 O3 2.498914 1_555
Na5 O24 2.337303 1_555
Na5 O25 2.337303 1_544
Na5 O11 2.392838 1_555
Na5 O31 2.392838 1_555
Na5 O6 2.498914 1_554
Na5 O7 2.498914 1_555
Na6 O22 2.337303 1_555
Na6 O10 2.337303 1_555
Na6 O19 2.392838 1_555
Na6 O8 2.392838 1_555
Na6 O0 2.498914 1_555
Na6 O3 2.498914 1_555
Na7 O21 2.337303 1_555
Na7 O13 2.337303 1_556
Na7 O28 2.392838 1_555
Na7 O16 2.392838 1_555
Na7 O2 2.498914 1_555
Na7 O5 2.498914 1_556
Na8 O18 2.337303 1_555
Na8 O12 2.337303 1_555
Na8 O15 2.392838 1_555
Na8 O10 2.392838 1_555
Na8 O1 2.498914 1_555
Na8 O0 2.498914 1_555
Na9 O11 2.337303 1_556
Na9 O17 2.337303 1_555
Na9 O30 2.392838 1_555
Na9 O21 2.392838 1_555
Na9 O2 2.498914 1_555
Na9 O6 2.498914 1_555
Na10 O8 2.337303 1_555
Na10 O16 2.337303 1_555
Na10 O17 2.392838 1_555
Na10 O12 2.392838 1_555
Na10 O0 2.498914 1_555
Na10 O2 2.498914 1_555
Na11 O9 2.337303 1_445
Na11 O31 2.337303 1_555
Na11 O26 2.392838 1_555
Na11 O23 2.392838 1_555
Na11 O4 2.498914 1_545
Na11 O7 2.498914 1_555
Cr0 O48 1.961534 1_655
Cr0 O66 1.961534 1_555
Cr0 O59 1.961534 1_555
Cr0 O60 1.961534 1_545
Cr0 O68 1.961534 1_555
Cr0 O71 1.961534 1_555
Cr1 O56 1.961534 1_556
Cr1 O49 1.961534 1_555
Cr1 O58 1.961534 1_555
Cr1 O53 1.961534 1_555
Cr1 O69 1.961534 1_555
Cr1 O64 1.961534 1_455
Cr2 O55 1.961534 1_565
Cr2 O52 1.961534 1_555
Cr2 O65 1.961534 1_555
Cr2 O67 1.961534 1_555
Cr2 O62 1.961534 1_554
Cr2 O50 1.961534 1_555
Cr3 O70 1.961534 1_555
Cr3 O51 1.961534 1_555
Cr3 O54 1.961534 1_555
Cr3 O61 1.961534 1_555
Cr3 O63 1.961534 1_555
Cr3 O57 1.961534 1_555
O0 P30 1.465779 1_555
O1 P29 1.465779 1_555
O2 P28 1.465779 1_555
O3 P27 1.465779 1_555
O4 P26 1.465779 1_555
O5 P25 1.465779 1_555
O6 P24 1.465779 1_555
O7 P23 1.465779 1_555
O8 P10 1.469664 1_555
O9 P8 1.469664 1_565
O10 P6 1.469664 1_555
O11 P31 1.469664 1_555
O12 P4 1.469664 1_555
O13 P3 1.469664 1_554
O14 P14 1.469664 1_555
O15 P9 1.469664 1_555
O16 P1 1.469664 1_555
O17 P22 1.469664 1_555
O18 P15 1.469664 1_555
O19 P20 1.469664 1_555
O20 P17 1.469664 1_555
O21 P12 1.469664 1_555
O22 P18 1.469664 1_555
O23 P21 1.469664 1_555
O24 P16 1.469664 1_555
O25 P2 1.469664 1_556
O26 P19 1.469664 1_555
O27 P7 1.469664 1_455
O28 P0 1.469664 1_655
O29 P11 1.469664 1_555
O30 P5 1.469664 1_545
O31 P13 1.469664 1_555
O32 P22 1.588100 1_555
O32 P4 1.588100 1_555
O33 P5 1.588100 1_555
O33 P12 1.588100 1_565
O34 P25 1.559394 1_555
O34 P4 1.615065 1_555
O35 P9 1.588100 1_555
O35 P6 1.588100 1_555
O36 P20 1.588100 1_555
O36 P10 1.588100 1_555
O37 P13 1.588100 1_555
O37 P31 1.588100 1_555
O38 P7 1.588100 1_555
O38 P14 1.588100 1_655
O39 P15 1.588100 1_545
O39 P8 1.588100 1_555
O40 P16 1.588100 1_555
O40 P11 1.588100 1_555
O41 P3 1.588100 1_555
O41 P17 1.588100 1_556
O42 P18 1.588100 1_554
O42 P2 1.588100 1_555
O43 P21 1.588100 1_555
O43 P19 1.588100 1_555
O44 P24 1.559394 1_555
O44 P10 1.615065 1_555
O45 P25 1.559394 1_555
O45 P8 1.615065 1_555
O46 P26 1.559394 1_555
O46 P6 1.615065 1_555
O47 P25 1.559394 1_555
O47 P31 1.615065 1_555
O48 P19 1.487797 1_555
O49 P18 1.487797 1_555
O50 P17 1.487797 1_555
O51 P16 1.487797 1_555
O52 P15 1.487797 1_555
O53 P14 1.487797 1_555
O54 P13 1.487797 1_555
O55 P31 1.487797 1_555
O56 P11 1.487797 1_555
O57 P10 1.487797 1_555
O58 P0 1.487797 1_555
O59 P8 1.487797 1_555
O60 P7 1.487797 1_555
O61 P6 1.487797 1_555
O62 P5 1.487797 1_555
O63 P4 1.487797 1_555
O64 P3 1.487797 1_555
O65 P2 1.487797 1_555
O66 P1 1.487797 1_555
O67 P9 1.487797 1_555
O68 P12 1.487797 1_555
O69 P20 1.487797 1_555
O70 P21 1.487797 1_555
O71 P22 1.487797 1_555
O72 P27 1.559394 1_545
O72 P13 1.615065 1_555
O73 P30 1.559394 1_555
O73 P5 1.615065 1_555
O74 P26 1.559394 1_555
O74 P11 1.615065 1_555
O75 P24 1.559394 1_555
O75 P0 1.615065 1_555
O76 P30 1.559394 1_555
O76 P7 1.615065 1_555
O77 P24 1.559394 1_555
O77 P19 1.615065 1_555
O78 P26 1.559394 1_555
O78 P2 1.615065 1_555
O79 P28 1.559394 1_554
O79 P16 1.615065 1_555
O80 P29 1.559394 1_455
O80 P21 1.615065 1_555
O81 P28 1.559394 1_555
O81 P18 1.615065 1_555
O82 P23 1.559394 1_656
O82 P12 1.615065 1_555
O83 P23 1.559394 1_665
O83 P17 1.615065 1_555
O84 P29 1.559394 1_455
O84 P20 1.615065 1_555
O85 P27 1.559394 1_555
O85 P15 1.615065 1_555
O86 P27 1.559394 1_545
O86 P22 1.615065 1_555
O87 P29 1.559394 1_555
O87 P1 1.615065 1_555
O88 P28 1.559394 1_554
O88 P9 1.615065 1_555
O89 P23 1.559394 1_566
O89 P14 1.615065 1_555
O90 P30 1.559394 1_555
O90 P3 1.615065 1_555
O91 P1 1.588100 1_455
O91 P0 1.588100 1_555
