# generated using pymatgen
data_Pm2CdSi
_symmetry_space_group_name_H-M   'P 1'
_cell_length_a   5.22217897
_cell_length_b   5.22217897
_cell_length_c   5.22217897
_cell_angle_alpha   60.00000000
_cell_angle_beta   60.00000000
_cell_angle_gamma   60.00000000
_symmetry_Int_Tables_number   1
_chemical_formula_structural   Pm2CdSi
_chemical_formula_sum   'Pm2 Cd1 Si1'
_cell_volume   100.70250083
_cell_formula_units_Z   1
loop_
 _symmetry_equiv_pos_site_id
 _symmetry_equiv_pos_as_xyz
  1  'x, y, z'
loop_
 _atom_site_type_symbol
 _atom_site_label
 _atom_site_symmetry_multiplicity
 _atom_site_fract_x
 _atom_site_fract_y
 _atom_site_fract_z
 _atom_site_occupancy
  Pm  Pm0  1  -0.00000000  -0.00000000  0.00000000  1
  Pm  Pm1  1  0.50000000  0.50000000  0.50000000  1
  Cd  Cd0  1  0.25000000  0.25000000  0.25000000  1
  Si  Si0  1  0.74999900  0.74999900  0.74999900  1
loop_
_geom_bond_atom_site_label_1
_geom_bond_atom_site_label_2
_geom_bond_distance
_geom_bond_site_symmetry_2
Pm0 Si0 3.197914 1_445
Pm0 Si0 3.197914 1_454
Pm0 Si0 3.197914 1_544
Pm0 Si0 3.197931 1_444
Pm1 Si0 3.197906 1_555
Pm1 Si0 3.197923 1_545
Pm1 Si0 3.197923 1_554
Pm1 Si0 3.197923 1_455
Cd0 Pm1 3.197918 1_554
Cd0 Pm1 3.197918 1_555
Cd0 Pm0 3.197918 1_555
Cd0 Pm0 3.197918 1_556
Cd0 Pm1 3.197918 1_455
Cd0 Pm0 3.197918 1_565
Cd0 Pm0 3.197918 1_655
Cd0 Pm1 3.197918 1_545
