# generated using pymatgen
data_CsAg2AsS3
_symmetry_space_group_name_H-M   'P 1'
_cell_length_a   8.52191800
_cell_length_b   9.58637100
_cell_length_c   10.24471018
_cell_angle_alpha   71.74520892
_cell_angle_beta   90.00000000
_cell_angle_gamma   90.00000000
_symmetry_Int_Tables_number   1
_chemical_formula_structural   CsAg2AsS3
_chemical_formula_sum   'Cs4 Ag8 As4 S12'
_cell_volume   794.81365937
_cell_formula_units_Z   4
loop_
 _symmetry_equiv_pos_site_id
 _symmetry_equiv_pos_as_xyz
  1  'x, y, z'
loop_
 _atom_site_type_symbol
 _atom_site_label
 _atom_site_symmetry_multiplicity
 _atom_site_fract_x
 _atom_site_fract_y
 _atom_site_fract_z
 _atom_site_occupancy
  Cs  Cs0  1  0.93453100  0.24689100  0.08400800  1
  Cs  Cs1  1  0.43453100  0.25310900  0.91599200  1
  Cs  Cs2  1  0.06546900  0.75310900  0.91599200  1
  Cs  Cs3  1  0.56546900  0.74689100  0.08400800  1
  Ag  Ag0  1  0.75985200  0.93361800  0.44449300  1
  Ag  Ag1  1  0.25985200  0.56638200  0.55550700  1
  Ag  Ag2  1  0.24014800  0.06638200  0.55550700  1
  Ag  Ag3  1  0.74014800  0.43361800  0.44449300  1
  Ag  Ag4  1  0.97434200  0.21676300  0.67343600  1
  Ag  Ag5  1  0.47434200  0.28323700  0.32656400  1
  Ag  Ag6  1  0.02565800  0.78323700  0.32656400  1
  Ag  Ag7  1  0.52565800  0.71676300  0.67343600  1
  As  As0  1  0.13816500  0.44408900  0.34840500  1
  As  As1  1  0.63816500  0.05591100  0.65159500  1
  As  As2  1  0.86183500  0.55591100  0.65159500  1
  As  As3  1  0.36183500  0.94408900  0.34840500  1
  S  S0  1  0.02108300  0.21331000  0.43241900  1
  S  S1  1  0.52108300  0.28669000  0.56758100  1
  S  S2  1  0.97891700  0.78669000  0.56758100  1
  S  S3  1  0.47891700  0.71331000  0.43241900  1
  S  S4  1  0.77618300  0.06178600  0.83672700  1
  S  S5  1  0.27618300  0.43821400  0.16327300  1
  S  S6  1  0.22381700  0.93821400  0.16327300  1
  S  S7  1  0.72381700  0.56178600  0.83672700  1
  S  S8  1  0.91128400  0.56878400  0.25350500  1
  S  S9  1  0.41128400  0.93121600  0.74649500  1
  S  S10  1  0.08871600  0.43121600  0.74649500  1
  S  S11  1  0.58871600  0.06878400  0.25350500  1
loop_
_geom_bond_atom_site_label_1
_geom_bond_atom_site_label_2
_geom_bond_distance
_geom_bond_site_symmetry_2
Cs0 S0 3.559242 1_655
Cs0 S11 3.571820 1_555
Cs0 S10 3.602348 1_654
Cs0 S5 3.665160 1_655
Cs0 S7 3.736818 1_554
Cs0 S6 3.740028 1_645
Cs0 S4 3.768786 1_554
Cs0 S8 3.991676 1_555
Cs1 S1 3.559242 1_555
Cs1 S10 3.571820 1_555
Cs1 S11 3.602348 1_556
Cs1 S4 3.665160 1_555
Cs1 S6 3.736818 1_546
Cs1 S7 3.740028 1_555
Cs1 S5 3.768786 1_556
Cs1 S9 3.991676 1_545
Cs2 S2 3.559242 1_455
Cs2 S9 3.571820 1_555
Cs2 S8 3.602348 1_456
Cs2 S7 3.665160 1_455
Cs2 S5 3.736818 1_556
Cs2 S4 3.740028 1_465
Cs2 S6 3.768786 1_556
Cs2 S10 3.991676 1_555
Cs3 S3 3.559242 1_555
Cs3 S8 3.571820 1_555
Cs3 S9 3.602348 1_554
Cs3 S6 3.665160 1_555
Cs3 S4 3.736818 1_564
Cs3 S5 3.740028 1_555
Cs3 S7 3.768786 1_554
Cs3 S11 3.991676 1_565
Ag0 S2 2.438532 1_555
Ag0 S11 2.458851 1_565
Ag0 As1 2.917137 1_565
Ag1 S3 2.438532 1_555
Ag1 S10 2.458851 1_555
Ag1 As0 2.917137 1_555
Ag2 S0 2.438532 1_555
Ag2 S9 2.458851 1_545
Ag2 As3 2.917137 1_545
Ag3 S1 2.438532 1_555
Ag3 S8 2.458851 1_555
Ag3 As2 2.917137 1_555
Ag4 S4 2.510053 1_555
Ag4 S0 2.511506 1_655
Ag4 S10 2.588557 1_655
Ag5 S5 2.510053 1_555
Ag5 S1 2.511506 1_555
Ag5 S11 2.588557 1_555
Ag6 S6 2.510053 1_555
Ag6 S2 2.511506 1_455
Ag6 S8 2.588557 1_455
Ag7 S7 2.510053 1_555
Ag7 S3 2.511506 1_555
Ag7 S9 2.588557 1_555
As0 S5 2.247369 1_555
As0 S8 2.320414 1_455
As0 S0 2.331915 1_555
As1 S4 2.247369 1_555
As1 S9 2.320414 1_545
As1 S1 2.331915 1_555
As2 S7 2.247369 1_555
As2 S10 2.320414 1_655
As2 S2 2.331915 1_555
As3 S6 2.247369 1_555
As3 S11 2.320414 1_565
As3 S3 2.331915 1_555
