# generated using pymatgen
data_PaGaFe2
_symmetry_space_group_name_H-M   'P 1'
_cell_length_a   4.49659143
_cell_length_b   4.49685258
_cell_length_c   4.49695937
_cell_angle_alpha   59.99255881
_cell_angle_beta   60.00048685
_cell_angle_gamma   60.00296774
_symmetry_Int_Tables_number   1
_chemical_formula_structural   PaGaFe2
_chemical_formula_sum   'Pa1 Ga1 Fe2'
_cell_volume   64.29585152
_cell_formula_units_Z   1
loop_
 _symmetry_equiv_pos_site_id
 _symmetry_equiv_pos_as_xyz
  1  'x, y, z'
loop_
 _atom_site_type_symbol
 _atom_site_label
 _atom_site_symmetry_multiplicity
 _atom_site_fract_x
 _atom_site_fract_y
 _atom_site_fract_z
 _atom_site_occupancy
  Pa  Pa0  1  0.75000063  0.75000028  0.75000019  1
  Ga  Ga0  1  0.25000092  0.24999757  0.25000137  1
  Fe  Fe0  1  0.99996573  0.99996515  0.00000384  1
  Fe  Fe1  1  0.50003171  0.50003701  0.49999359  1
loop_
_geom_bond_atom_site_label_1
_geom_bond_atom_site_label_2
_geom_bond_distance
_geom_bond_site_symmetry_2
Ga0 Pa0 3.179416 1_445
Ga0 Pa0 3.179432 1_554
Ga0 Pa0 3.179577 1_545
Ga0 Pa0 3.179586 1_454
Ga0 Pa0 3.180050 1_544
Ga0 Pa0 3.180059 1_455
Fe0 Pa0 2.753501 1_554
Fe0 Ga0 2.753533 1_655
Fe0 Ga0 2.753583 1_565
Fe0 Pa0 2.753635 1_555
Fe0 Ga0 2.753658 1_664
Fe0 Pa0 2.753781 1_564
Fe0 Pa0 2.753840 1_654
Fe0 Ga0 2.753984 1_665
Fe1 Ga0 2.753507 1_565
Fe1 Pa0 2.753520 1_555
Fe1 Ga0 2.753599 1_655
Fe1 Pa0 2.753624 1_554
Fe1 Ga0 2.753677 1_556
Fe1 Pa0 2.753787 1_545
Fe1 Pa0 2.753826 1_455
Fe1 Ga0 2.753974 1_555
