# generated using pymatgen
data_Li2V3CuO8
_symmetry_space_group_name_H-M   'P 1'
_cell_length_a   8.64159000
_cell_length_b   8.60673306
_cell_length_c   8.00646440
_cell_angle_alpha   90.02340004
_cell_angle_beta   89.97535303
_cell_angle_gamma   90.13354575
_symmetry_Int_Tables_number   1
_chemical_formula_structural   Li2V3CuO8
_chemical_formula_sum   'Li8 V12 Cu4 O32'
_cell_volume   595.48594000
_cell_formula_units_Z   4
loop_
 _symmetry_equiv_pos_site_id
 _symmetry_equiv_pos_as_xyz
  1  'x, y, z'
loop_
 _atom_site_type_symbol
 _atom_site_label
 _atom_site_symmetry_multiplicity
 _atom_site_fract_x
 _atom_site_fract_y
 _atom_site_fract_z
 _atom_site_occupancy
  Li  Li0  1  0.00118000  0.99917300  0.00359300  1
  Li  Li1  1  0.25137400  0.24782100  0.24666500  1
  Li  Li2  1  0.24817300  0.75232000  0.74681900  1
  Li  Li3  1  0.49887300  0.00056500  0.50382800  1
  Li  Li4  1  0.50136600  0.50113900  0.99688600  1
  Li  Li5  1  0.75128600  0.25265700  0.75298300  1
  Li  Li6  1  0.74855600  0.74758500  0.25321900  1
  Li  Li7  1  0.99889000  0.49860300  0.49671800  1
  V  V0  1  0.12367500  0.12574400  0.62531900  1
  V  V1  1  0.12077800  0.37709400  0.88064100  1
  V  V2  1  0.12733800  0.63000700  0.12947600  1
  V  V3  1  0.37243500  0.37019600  0.62937500  1
  V  V4  1  0.37942500  0.62281200  0.38062200  1
  V  V5  1  0.37589600  0.87424300  0.12491100  1
  V  V6  1  0.62409600  0.37486200  0.37444200  1
  V  V7  1  0.62039900  0.12303400  0.12038600  1
  V  V8  1  0.62769600  0.86989300  0.86996600  1
  V  V9  1  0.87245400  0.12976300  0.37030000  1
  V  V10  1  0.87976200  0.87655900  0.62003900  1
  V  V11  1  0.87643700  0.62549300  0.87473200  1
  Cu  Cu0  1  0.12886400  0.87925100  0.37463400  1
  Cu  Cu1  1  0.37130100  0.12110900  0.87442900  1
  Cu  Cu2  1  0.62859300  0.62027600  0.62574400  1
  Cu  Cu3  1  0.87100100  0.37946000  0.12523400  1
  O  O0  1  0.10129100  0.12913900  0.38906700  1
  O  O1  1  0.10925400  0.89611400  0.62284100  1
  O  O2  1  0.11406900  0.61222000  0.88619400  1
  O  O3  1  0.11949500  0.14742200  0.86014300  1
  O  O4  1  0.12820400  0.39208700  0.10721100  1
  O  O5  1  0.13859100  0.36356700  0.63545200  1
  O  O6  1  0.14242100  0.62403600  0.35701000  1
  O  O7  1  0.14681100  0.86020600  0.12588800  1
  O  O8  1  0.35302700  0.14029900  0.62604000  1
  O  O9  1  0.35737900  0.37624100  0.85724200  1
  O  O10  1  0.36150000  0.63636500  0.13523900  1
  O  O11  1  0.37035800  0.60819400  0.60681300  1
  O  O12  1  0.38054000  0.85268200  0.35972300  1
  O  O13  1  0.38607000  0.38780800  0.38595100  1
  O  O14  1  0.39084400  0.10384300  0.12285100  1
  O  O15  1  0.39873000  0.87062600  0.88895200  1
  O  O16  1  0.60196000  0.37156900  0.61118600  1
  O  O17  1  0.60831700  0.60409200  0.37718600  1
  O  O18  1  0.61384500  0.88752500  0.11434200  1
  O  O19  1  0.61919700  0.35271600  0.13994200  1
  O  O20  1  0.62796800  0.10695400  0.89320400  1
  O  O21  1  0.63800200  0.13587200  0.36418100  1
  O  O22  1  0.64313800  0.87402700  0.64237500  1
  O  O23  1  0.64712500  0.63991700  0.87364400  1
  O  O24  1  0.85291100  0.35994400  0.37357100  1
  O  O25  1  0.85778800  0.12470700  0.14284500  1
  O  O26  1  0.86179600  0.86415900  0.86450500  1
  O  O27  1  0.87214900  0.89264100  0.39304300  1
  O  O28  1  0.88161300  0.64795100  0.64000800  1
  O  O29  1  0.88621400  0.11235400  0.61449500  1
  O  O30  1  0.89162400  0.39609900  0.87704200  1
  O  O31  1  0.89792200  0.62910600  0.11099200  1
loop_
_geom_bond_atom_site_label_1
_geom_bond_atom_site_label_2
_geom_bond_distance
_geom_bond_site_symmetry_2
Li0 O25 1.987437 1_465
Li0 O7 1.995517 1_555
Li0 O3 1.996648 1_564
Li0 O26 2.008685 1_454
Li1 O4 1.982320 1_555
Li1 O14 1.993943 1_555
Li1 O0 2.004719 1_555
Li1 O13 2.010873 1_555
Li2 O11 1.978404 1_555
Li2 O1 1.991748 1_555
Li2 O15 2.004665 1_555
Li2 O2 2.008893 1_555
Li3 O22 1.994816 1_545
Li3 O12 1.997651 1_545
Li3 O8 1.999328 1_555
Li3 O21 2.011262 1_555
Li4 O9 1.986907 1_555
Li4 O23 1.994928 1_555
Li4 O19 1.997202 1_556
Li4 O10 2.011671 1_556
Li5 O20 1.990606 1_555
Li5 O30 1.993628 1_555
Li5 O16 2.002464 1_555
Li5 O29 2.012836 1_555
Li6 O27 1.986530 1_555
Li6 O17 1.992996 1_555
Li6 O31 2.001631 1_555
Li6 O18 2.012687 1_555
Li7 O6 1.987120 1_655
Li7 O24 1.995193 1_555
Li7 O28 1.999848 1_555
Li7 O5 2.012644 1_655
Cu0 O1 1.999644 1_555
Cu0 O7 2.004216 1_555
Cu0 O0 2.167460 1_565
Cu0 O12 2.190599 1_555
Cu0 O6 2.204422 1_555
Cu0 O27 2.226503 1_455
Cu1 O14 2.001824 1_556
Cu1 O8 2.001968 1_555
Cu1 O15 2.172547 1_545
Cu1 O3 2.191323 1_555
Cu1 O9 2.203786 1_555
Cu1 O20 2.226785 1_555
Cu2 O23 1.998384 1_555
Cu2 O17 2.002609 1_555
Cu2 O16 2.155470 1_555
Cu2 O22 2.191287 1_555
Cu2 O28 2.201886 1_555
Cu2 O11 2.238939 1_555
Cu3 O30 2.000201 1_554
Cu3 O24 2.001469 1_555
Cu3 O31 2.163703 1_555
Cu3 O19 2.190716 1_555
Cu3 O25 2.199874 1_555
Cu3 O4 2.229660 1_655
O0 V0 1.901734 1_555
O0 V9 1.983300 1_455
O1 V0 1.980091 1_565
O1 V10 1.990049 1_455
O2 V2 1.957163 1_556
O2 V1 2.025102 1_555
O2 V11 2.059047 1_455
O3 V0 1.889607 1_555
O3 V1 1.983466 1_555
O4 V1 1.819705 1_554
O4 V2 2.055417 1_555
O5 V1 1.972470 1_555
O5 V3 2.022021 1_555
O5 V0 2.052207 1_555
O6 V2 1.827208 1_555
O6 V4 2.056931 1_555
O7 V5 1.983073 1_555
O7 V2 1.988222 1_555
O8 V3 1.985537 1_555
O8 V0 1.985640 1_555
O9 V3 1.829714 1_555
O9 V1 2.053123 1_555
O10 V4 1.974331 1_555
O10 V2 2.024689 1_555
O10 V5 2.052537 1_555
O11 V4 1.817050 1_555
O11 V3 2.056529 1_555
O12 V5 1.889678 1_555
O12 V4 1.985562 1_555
O13 V3 1.958389 1_555
O13 V4 2.024033 1_555
O13 V6 2.062216 1_555
O14 V5 1.980098 1_545
O14 V7 1.990291 1_555
O15 V5 1.899640 1_556
O15 V8 1.984420 1_555
O16 V6 1.905244 1_555
O16 V3 1.988745 1_555
O17 V6 1.978057 1_555
O17 V4 1.985094 1_555
O18 V8 1.966019 1_554
O18 V7 2.028180 1_565
O18 V5 2.060870 1_555
O19 V6 1.887572 1_555
O19 V7 1.982990 1_555
O20 V7 1.825282 1_556
O20 V8 2.048707 1_545
O21 V7 1.960970 1_555
O21 V9 2.027456 1_555
O21 V6 2.062311 1_555
O22 V8 1.827376 1_555
O22 V10 2.052602 1_555
O23 V11 1.985817 1_555
O23 V8 1.987071 1_555
O24 V6 1.981797 1_555
O24 V9 1.988845 1_555
O25 V9 1.826063 1_555
O25 V7 2.059378 1_555
O26 V10 1.966312 1_555
O26 V8 2.024166 1_555
O26 V11 2.059985 1_555
O27 V10 1.823982 1_555
O27 V9 2.049023 1_565
O28 V11 1.889801 1_555
O28 V10 1.974221 1_555
O29 V9 1.964607 1_555
O29 V10 2.030563 1_545
O29 V0 2.056868 1_655
O30 V11 1.979090 1_555
O30 V1 1.987601 1_655
O31 V11 1.901011 1_554
O31 V2 1.988095 1_655
