# generated using pymatgen
data_LiSc2Tc
_symmetry_space_group_name_H-M   'P 1'
_cell_length_a   4.65189541
_cell_length_b   4.65189541
_cell_length_c   4.65189541
_cell_angle_alpha   60.00000000
_cell_angle_beta   60.00000000
_cell_angle_gamma   60.00000000
_symmetry_Int_Tables_number   1
_chemical_formula_structural   LiSc2Tc
_chemical_formula_sum   'Li1 Sc2 Tc1'
_cell_volume   71.18276074
_cell_formula_units_Z   1
loop_
 _symmetry_equiv_pos_site_id
 _symmetry_equiv_pos_as_xyz
  1  'x, y, z'
loop_
 _atom_site_type_symbol
 _atom_site_label
 _atom_site_symmetry_multiplicity
 _atom_site_fract_x
 _atom_site_fract_y
 _atom_site_fract_z
 _atom_site_occupancy
  Li  Li0  1  0.25000100  0.25000100  0.25000100  1
  Sc  Sc0  1  0.00000000  0.00000000  0.00000000  1
  Sc  Sc1  1  0.50000000  0.50000000  0.50000000  1
  Tc  Tc0  1  0.75000000  0.75000000  0.75000000  1
loop_
_geom_bond_atom_site_label_1
_geom_bond_atom_site_label_2
_geom_bond_distance
_geom_bond_site_symmetry_2
Li0 Sc1 2.848681 1_555
Li0 Sc0 2.848689 1_556
Li0 Sc0 2.848689 1_655
Li0 Sc0 2.848689 1_565
Li0 Sc1 2.848696 1_455
Li0 Sc1 2.848696 1_545
Li0 Sc1 2.848696 1_554
Li0 Sc0 2.848704 1_555
Li0 Tc0 3.289380 1_455
Li0 Tc0 3.289380 1_554
Li0 Tc0 3.289380 1_545
Li0 Tc0 3.289393 1_445
Li0 Tc0 3.289393 1_544
Li0 Tc0 3.289393 1_454
Sc0 Tc0 2.848693 1_454
Sc0 Tc0 2.848693 1_444
Sc0 Tc0 2.848693 1_544
Sc0 Tc0 2.848693 1_445
Sc1 Tc0 2.848693 1_555
Sc1 Tc0 2.848693 1_554
Sc1 Tc0 2.848693 1_545
Sc1 Tc0 2.848693 1_455
