# generated using pymatgen
data_UO2
_symmetry_space_group_name_H-M   'P 1'
_cell_length_a   5.13850600
_cell_length_b   5.13850600
_cell_length_c   3.59010700
_cell_angle_alpha   90.00000000
_cell_angle_beta   90.00000000
_cell_angle_gamma   90.00000000
_symmetry_Int_Tables_number   1
_chemical_formula_structural   UO2
_chemical_formula_sum   'U2 O4'
_cell_volume   94.79406090
_cell_formula_units_Z   2
loop_
 _symmetry_equiv_pos_site_id
 _symmetry_equiv_pos_as_xyz
  1  'x, y, z'
loop_
 _atom_site_type_symbol
 _atom_site_label
 _atom_site_symmetry_multiplicity
 _atom_site_fract_x
 _atom_site_fract_y
 _atom_site_fract_z
 _atom_site_occupancy
  U  U0  1  0.00000000  0.00000000  0.00000000  1
  U  U1  1  0.50000000  0.50000000  0.50000000  1
  O  O0  1  0.30894200  0.30894200  0.00000000  1
  O  O1  1  0.69105800  0.69105800  0.00000000  1
  O  O2  1  0.19105800  0.80894200  0.50000000  1
  O  O3  1  0.80894200  0.19105800  0.50000000  1
loop_
_geom_bond_atom_site_label_1
_geom_bond_atom_site_label_2
_geom_bond_distance
_geom_bond_site_symmetry_2
O0 U0 2.245064 1_555
O0 U1 2.269338 1_555
O0 U1 2.269338 1_554
O1 U0 2.245064 1_665
O1 U1 2.269338 1_555
O1 U1 2.269338 1_554
O2 U1 2.245064 1_555
O2 U0 2.269338 1_565
O2 U0 2.269338 1_566
O3 U1 2.245064 1_555
O3 U0 2.269338 1_655
O3 U0 2.269338 1_656
