# generated using pymatgen
data_Li8V3P8O29
_symmetry_space_group_name_H-M   'P 1'
_cell_length_a   9.90643592
_cell_length_b   9.90643592
_cell_length_c   13.85928206
_cell_angle_alpha   89.92683921
_cell_angle_beta   89.92683921
_cell_angle_gamma   59.98464070
_symmetry_Int_Tables_number   1
_chemical_formula_structural   Li8V3P8O29
_chemical_formula_sum   'Li16 V6 P16 O58'
_cell_volume   1177.71044335
_cell_formula_units_Z   2
loop_
 _symmetry_equiv_pos_site_id
 _symmetry_equiv_pos_as_xyz
  1  'x, y, z'
loop_
 _atom_site_type_symbol
 _atom_site_label
 _atom_site_symmetry_multiplicity
 _atom_site_fract_x
 _atom_site_fract_y
 _atom_site_fract_z
 _atom_site_occupancy
  Li  Li0  1  0.31585900  0.77540300  0.93649800  1
  Li  Li1  1  0.31718400  0.90806100  0.43960900  1
  Li  Li2  1  0.77540300  0.31585900  0.43649800  1
  Li  Li3  1  0.67008100  0.66251800  0.12018100  1
  Li  Li4  1  0.66251800  0.67008100  0.62018100  1
  Li  Li5  1  0.90806100  0.31718400  0.93960900  1
  Li  Li6  1  0.09156000  0.22479800  0.56060200  1
  Li  Li7  1  0.77360400  0.90755600  0.93682300  1
  Li  Li8  1  0.22479800  0.09156000  0.06060200  1
  Li  Li9  1  0.90755600  0.77360400  0.43682300  1
  Li  Li10  1  0.09171800  0.68447000  0.06346200  1
  Li  Li11  1  0.32948200  0.33562300  0.37984000  1
  Li  Li12  1  0.33562300  0.32948200  0.87984000  1
  Li  Li13  1  0.22710800  0.68089400  0.56302300  1
  Li  Li14  1  0.68447000  0.09171800  0.56346200  1
  Li  Li15  1  0.68089400  0.22710800  0.06302300  1
  V  V0  1  0.43122100  0.56972500  0.75038200  1
  V  V1  1  0.56972500  0.43122100  0.25038200  1
  V  V2  1  0.43144000  0.00009600  0.24987500  1
  V  V3  1  0.56931400  0.00089200  0.74975200  1
  V  V4  1  0.00009600  0.43144000  0.74987500  1
  V  V5  1  0.00089200  0.56931400  0.24975200  1
  P  P0  1  0.32557300  0.76607000  0.15649900  1
  P  P1  1  0.32409500  0.91076500  0.65733200  1
  P  P2  1  0.76607000  0.32557300  0.65649900  1
  P  P3  1  0.66549600  0.66978100  0.37762700  1
  P  P4  1  0.66978100  0.66549600  0.87762700  1
  P  P5  1  0.91076500  0.32409500  0.15733200  1
  P  P6  1  0.09100400  0.23337800  0.34281100  1
  P  P7  1  0.76576200  0.91134900  0.15638000  1
  P  P8  1  0.23337800  0.09100400  0.84281100  1
  P  P9  1  0.91134900  0.76576200  0.65638000  1
  P  P10  1  0.08937000  0.67604600  0.84390800  1
  P  P11  1  0.33574300  0.33075900  0.12238000  1
  P  P12  1  0.33075900  0.33574300  0.62238000  1
  P  P13  1  0.23528000  0.67545800  0.34311300  1
  P  P14  1  0.67604600  0.08937000  0.34390800  1
  P  P15  1  0.67545800  0.23528000  0.84311300  1
  O  O0  1  0.22243000  0.78070700  0.25019700  1
  O  O1  1  0.25417600  0.75080000  0.43245800  1
  O  O2  1  0.32720400  0.75419900  0.65717300  1
  O  O3  1  0.24858700  0.99693700  0.93182200  1
  O  O4  1  0.33070100  0.91991300  0.15613600  1
  O  O5  1  0.49198400  0.62896300  0.17132100  1
  O  O6  1  0.52029500  0.66636200  0.84187700  1
  O  O7  1  0.62896300  0.49198400  0.67132100  1
  O  O8  1  0.75080000  0.25417600  0.93245800  1
  O  O9  1  0.78070700  0.22243000  0.75019700  1
  O  O10  1  0.75419900  0.32720400  0.15717300  1
  O  O11  1  0.51521200  0.82072400  0.33124400  1
  O  O12  1  0.66636200  0.52029500  0.34187700  1
  O  O13  1  0.49064700  0.88053600  0.67544100  1
  O  O14  1  0.64888200  0.68646600  0.48545400  1
  O  O15  1  0.68646600  0.64888200  0.98545400  1
  O  O16  1  0.62456900  0.88518000  0.17189900  1
  O  O17  1  0.82072400  0.51521200  0.83124400  1
  O  O18  1  0.67218800  0.81292500  0.84202900  1
  O  O19  1  0.91991300  0.33070100  0.65613600  1
  O  O20  1  0.00274700  0.21741200  0.24961300  1
  O  O21  1  0.99693700  0.24858700  0.43182200  1
  O  O22  1  0.88053600  0.49064700  0.17544100  1
  O  O23  1  0.00539200  0.24906000  0.06800700  1
  O  O24  1  0.81292500  0.67218800  0.34202900  1
  O  O25  1  0.88518000  0.62456900  0.67189900  1
  O  O26  1  0.07975200  0.25006400  0.84341600  1
  O  O27  1  0.75348500  0.91736300  0.65585400  1
  O  O28  1  0.21741200  0.00274700  0.74961300  1
  O  O29  1  0.24906000  0.00539200  0.56800700  1
  O  O30  1  0.75276000  0.99530600  0.43300000  1
  O  O31  1  0.77861600  0.00081500  0.25006000  1
  O  O32  1  0.25006400  0.07975200  0.34341600  1
  O  O33  1  0.91736300  0.75348500  0.15585400  1
  O  O34  1  0.11970500  0.37063600  0.32705600  1
  O  O35  1  0.17936300  0.33651900  0.66835900  1
  O  O36  1  0.11483300  0.50908500  0.82812800  1
  O  O37  1  0.99530600  0.75276000  0.93300000  1
  O  O38  1  0.00477200  0.74905000  0.56719100  1
  O  O39  1  0.00081500  0.77861600  0.75006000  1
  O  O40  1  0.08120000  0.67331000  0.34284200  1
  O  O41  1  0.33651900  0.17936300  0.16835900  1
  O  O42  1  0.18715700  0.48024600  0.15780100  1
  O  O43  1  0.37063600  0.11970500  0.82705600  1
  O  O44  1  0.33687000  0.31411600  0.01452300  1
  O  O45  1  0.31411600  0.33687000  0.51452300  1
  O  O46  1  0.50908500  0.11483300  0.32812800  1
  O  O47  1  0.32796400  0.48559900  0.65871400  1
  O  O48  1  0.48024600  0.18715700  0.65780100  1
  O  O49  1  0.24733400  0.66910300  0.84515700  1
  O  O50  1  0.24623000  0.75198800  0.06747900  1
  O  O51  1  0.37126700  0.50823900  0.32601800  1
  O  O52  1  0.48559900  0.32796400  0.15871400  1
  O  O53  1  0.50823900  0.37126700  0.82601800  1
  O  O54  1  0.67331000  0.08120000  0.84284200  1
  O  O55  1  0.74905000  0.00477200  0.06719100  1
  O  O56  1  0.66910300  0.24733400  0.34515700  1
  O  O57  1  0.75198800  0.24623000  0.56747900  1
loop_
_geom_bond_atom_site_label_1
_geom_bond_atom_site_label_2
_geom_bond_distance
_geom_bond_site_symmetry_2
Li0 O3 1.949659 1_555
Li0 O49 1.973090 1_555
Li0 O50 1.995174 1_556
Li0 O6 2.190040 1_555
Li1 O1 1.949330 1_555
Li1 O29 1.975366 1_565
Li1 O32 1.994329 1_565
Li1 O11 2.269433 1_555
Li2 O21 1.949659 1_555
Li2 O56 1.973090 1_555
Li2 O57 1.995174 1_555
Li2 O12 2.190040 1_555
Li3 O15 1.873242 1_554
Li3 O22 2.069176 1_555
Li3 O5 2.075710 1_555
Li3 O16 2.142611 1_555
Li4 O14 1.873242 1_555
Li4 O13 2.069176 1_555
Li4 O7 2.075710 1_555
Li4 O25 2.142611 1_555
Li5 O8 1.949330 1_555
Li5 O23 1.975366 1_656
Li5 O26 1.994329 1_655
Li5 O17 2.269433 1_555
Li6 O29 1.943239 1_555
Li6 O21 1.975325 1_455
Li6 O19 1.989509 1_455
Li6 O35 2.276509 1_555
Li7 O37 1.951511 1_555
Li7 O54 1.982531 1_565
Li7 O55 2.005035 1_566
Li7 O18 2.136115 1_555
Li8 O23 1.943239 1_555
Li8 O3 1.975325 1_544
Li8 O4 1.989509 1_545
Li8 O41 2.276509 1_555
Li9 O30 1.951511 1_555
Li9 O40 1.982531 1_655
Li9 O38 2.005035 1_655
Li9 O24 2.136115 1_555
Li10 O50 1.953970 1_555
Li10 O33 1.976251 1_455
Li10 O37 1.998498 1_454
Li10 O42 2.186129 1_555
Li11 O45 1.872167 1_555
Li11 O34 2.063064 1_555
Li11 O51 2.087108 1_555
Li11 O46 2.137910 1_555
Li12 O44 1.872167 1_556
Li12 O43 2.063064 1_555
Li12 O53 2.087108 1_555
Li12 O36 2.137910 1_555
Li13 O38 1.955102 1_555
Li13 O2 1.984791 1_555
Li13 O1 2.001813 1_555
Li13 O47 2.136119 1_555
Li14 O57 1.953970 1_555
Li14 O27 1.976251 1_545
Li14 O30 1.998498 1_545
Li14 O48 2.186129 1_555
Li15 O55 1.955102 1_555
Li15 O10 1.984791 1_555
Li15 O8 2.001813 1_554
Li15 O52 2.136119 1_555
O0 P0 1.612530 1_555
O0 P13 1.620434 1_555
O1 P13 1.506029 1_555
O2 P1 1.535840 1_555
O2 V0 2.045397 1_555
O3 P8 1.506649 1_565
O4 P0 1.550074 1_555
O4 V2 2.028231 1_565
O5 P0 1.537758 1_555
O5 V1 2.029392 1_555
O6 P4 1.558109 1_555
O6 V0 2.038181 1_555
O7 P2 1.537758 1_555
O7 V0 2.029392 1_555
O8 P15 1.506029 1_555
O9 P2 1.612530 1_555
O9 P15 1.620434 1_555
O10 P5 1.535840 1_555
O10 V1 2.045397 1_555
O11 P3 1.624320 1_555
O11 V2 1.907850 1_565
O12 P3 1.558109 1_555
O12 V1 2.038181 1_555
O13 P1 1.543211 1_555
O13 V3 2.006085 1_565
O14 P3 1.503476 1_555
O15 P4 1.503476 1_555
O16 P7 1.559406 1_555
O16 V2 1.985725 1_565
O17 P4 1.624320 1_555
O17 V4 1.907850 1_655
O18 P4 1.552416 1_555
O18 V3 2.059176 1_565
O19 P2 1.550074 1_555
O19 V4 2.028231 1_655
O20 P6 1.612319 1_555
O20 P5 1.618336 1_455
O21 P6 1.506649 1_655
O22 P5 1.543211 1_555
O22 V5 2.006085 1_655
O23 P5 1.505369 1_455
O24 P3 1.552416 1_555
O24 V5 2.059176 1_655
O25 P9 1.559406 1_555
O25 V4 1.985725 1_655
O26 P8 1.549167 1_555
O26 V4 2.027306 1_555
O27 P9 1.533451 1_555
O27 V3 2.047742 1_565
O28 P8 1.612319 1_555
O28 P1 1.618336 1_545
O29 P1 1.505369 1_545
O30 P14 1.503810 1_565
O31 P14 1.612924 1_555
O31 P7 1.613591 1_545
O32 P6 1.549167 1_555
O32 V2 2.027306 1_555
O33 P7 1.533451 1_555
O33 V5 2.047742 1_655
O34 P6 1.537295 1_555
O34 V5 2.021672 1_555
O35 P12 1.625285 1_555
O35 V4 1.908208 1_555
O36 P10 1.559010 1_555
O36 V4 1.984882 1_555
O37 P10 1.503810 1_655
O38 P9 1.502059 1_455
O39 P10 1.612924 1_555
O39 P9 1.613591 1_455
O40 P13 1.537148 1_555
O40 V5 2.045684 1_555
O41 P11 1.625285 1_555
O41 V2 1.908208 1_555
O42 P11 1.555593 1_555
O42 V5 2.043379 1_555
O43 P8 1.537295 1_555
O43 V3 2.021672 1_555
O44 P11 1.503510 1_555
O45 P12 1.503510 1_555
O46 P14 1.559010 1_555
O46 V2 1.984882 1_555
O47 P12 1.555297 1_555
O47 V0 2.052761 1_555
O48 P12 1.555593 1_555
O48 V3 2.043379 1_555
O49 P10 1.531732 1_555
O49 V0 2.053277 1_555
O50 P0 1.507326 1_555
O51 P13 1.543574 1_555
O51 V1 2.010534 1_555
O52 P11 1.555297 1_555
O52 V1 2.052761 1_555
O53 P15 1.543574 1_555
O53 V0 2.010534 1_555
O54 P15 1.537148 1_555
O54 V3 2.045684 1_555
O55 P7 1.502059 1_545
O56 P14 1.531732 1_555
O56 V1 2.053277 1_555
O57 P2 1.507326 1_555
