# generated using pymatgen
data_ScNbTc2
_symmetry_space_group_name_H-M   'P 1'
_cell_length_a   4.52720483
_cell_length_b   4.52719835
_cell_length_c   4.52719726
_cell_angle_alpha   59.99995608
_cell_angle_beta   60.00003209
_cell_angle_gamma   60.00002051
_symmetry_Int_Tables_number   1
_chemical_formula_structural   ScNbTc2
_chemical_formula_sum   'Sc1 Nb1 Tc2'
_cell_volume   65.61061595
_cell_formula_units_Z   1
loop_
 _symmetry_equiv_pos_site_id
 _symmetry_equiv_pos_as_xyz
  1  'x, y, z'
loop_
 _atom_site_type_symbol
 _atom_site_label
 _atom_site_symmetry_multiplicity
 _atom_site_fract_x
 _atom_site_fract_y
 _atom_site_fract_z
 _atom_site_occupancy
  Sc  Sc0  1  0.75000059  0.75000000  0.75000070  1
  Nb  Nb0  1  0.24999909  0.25000000  0.25000001  1
  Tc  Tc0  1  0.99999913  -0.00000009  0.99999913  1
  Tc  Tc1  1  0.49999919  0.50000009  0.50000016  1
loop_
_geom_bond_atom_site_label_1
_geom_bond_atom_site_label_2
_geom_bond_distance
_geom_bond_site_symmetry_2
Sc0 Tc0 2.772321 1_565
Sc0 Tc1 2.772328 1_556
Sc0 Tc1 2.772331 1_565
Sc0 Tc0 2.772331 1_555
Sc0 Tc1 2.772332 1_655
Sc0 Tc0 2.772336 1_564
Sc0 Tc1 2.772339 1_555
Sc0 Tc0 2.772342 1_465
Nb0 Tc0 2.772327 1_455
Nb0 Tc1 2.772330 1_554
Nb0 Tc0 2.772330 1_464
Nb0 Tc1 2.772330 1_545
Nb0 Tc1 2.772334 1_555
Nb0 Tc0 2.772336 1_454
Nb0 Tc1 2.772336 1_455
Nb0 Tc0 2.772337 1_554
