# generated using pymatgen
data_Li3VF5
_symmetry_space_group_name_H-M   'P 1'
_cell_length_a   6.63363500
_cell_length_b   7.88906800
_cell_length_c   8.10678100
_cell_angle_alpha   90.00000000
_cell_angle_beta   90.00000000
_cell_angle_gamma   90.00000000
_symmetry_Int_Tables_number   1
_chemical_formula_structural   Li3VF5
_chemical_formula_sum   'Li12 V4 F20'
_cell_volume   424.25377199
_cell_formula_units_Z   4
loop_
 _symmetry_equiv_pos_site_id
 _symmetry_equiv_pos_as_xyz
  1  'x, y, z'
loop_
 _atom_site_type_symbol
 _atom_site_label
 _atom_site_symmetry_multiplicity
 _atom_site_fract_x
 _atom_site_fract_y
 _atom_site_fract_z
 _atom_site_occupancy
  Li  Li0  1  0.98359600  0.92629400  0.22797600  1
  Li  Li1  1  0.98359600  0.57370600  0.22797600  1
  Li  Li2  1  0.79167800  0.25000000  0.52775700  1
  Li  Li3  1  0.70832200  0.75000000  0.02775700  1
  Li  Li4  1  0.51640400  0.42629400  0.72797600  1
  Li  Li5  1  0.51640400  0.07370600  0.72797600  1
  Li  Li6  1  0.48359600  0.92629400  0.27202400  1
  Li  Li7  1  0.48359600  0.57370600  0.27202400  1
  Li  Li8  1  0.29167800  0.25000000  0.97224300  1
  Li  Li9  1  0.20832200  0.75000000  0.47224300  1
  Li  Li10  1  0.01640400  0.07370600  0.77202400  1
  Li  Li11  1  0.01640400  0.42629400  0.77202400  1
  V  V0  1  0.77082300  0.75000000  0.60211300  1
  V  V1  1  0.72917700  0.25000000  0.10211300  1
  V  V2  1  0.27082300  0.75000000  0.89788700  1
  V  V3  1  0.22917700  0.25000000  0.39788700  1
  F  F0  1  0.99383600  0.25000000  0.95562100  1
  F  F1  1  0.92638600  0.75000000  0.37848500  1
  F  F2  1  0.92000400  0.25000000  0.31234200  1
  F  F3  1  0.77712400  0.48337700  0.64098300  1
  F  F4  1  0.77712400  0.01662300  0.64098300  1
  F  F5  1  0.72287600  0.98337700  0.14098300  1
  F  F6  1  0.72287600  0.51662300  0.14098300  1
  F  F7  1  0.57999600  0.75000000  0.81234200  1
  F  F8  1  0.57361400  0.25000000  0.87848500  1
  F  F9  1  0.50616400  0.75000000  0.45562100  1
  F  F10  1  0.49383600  0.25000000  0.54437900  1
  F  F11  1  0.42638600  0.75000000  0.12151500  1
  F  F12  1  0.42000400  0.25000000  0.18765800  1
  F  F13  1  0.27712400  0.48337700  0.85901700  1
  F  F14  1  0.27712400  0.01662300  0.85901700  1
  F  F15  1  0.22287600  0.98337700  0.35901700  1
  F  F16  1  0.22287600  0.51662300  0.35901700  1
  F  F17  1  0.07999600  0.75000000  0.68765800  1
  F  F18  1  0.07361400  0.25000000  0.62151500  1
  F  F19  1  0.00616400  0.75000000  0.04437900  1
loop_
_geom_bond_atom_site_label_1
_geom_bond_atom_site_label_2
_geom_bond_distance
_geom_bond_site_symmetry_2
F0 Li8 1.980365 1_655
F0 Li11 2.042548 1_655
F0 Li10 2.042548 1_655
F0 V1 2.119588 1_556
F1 Li0 1.888674 1_555
F1 Li1 1.888674 1_555
F1 Li9 2.018809 1_655
F1 V0 2.086033 1_555
F2 Li2 1.942755 1_555
F2 V1 2.122973 1_555
F2 V3 2.165016 1_655
F3 Li4 1.921301 1_555
F3 Li11 1.962354 1_655
F3 Li2 2.059516 1_555
F3 V0 2.127290 1_555
F4 Li5 1.921301 1_555
F4 Li10 1.962354 1_655
F4 Li2 2.059516 1_555
F4 V0 2.127290 1_545
F5 Li0 1.921301 1_555
F5 Li6 1.962354 1_555
F5 Li3 2.059516 1_555
F5 V1 2.127290 1_565
F6 Li1 1.921301 1_555
F6 Li7 1.962354 1_555
F6 Li3 2.059516 1_555
F6 V1 2.127290 1_555
F7 Li3 1.942755 1_556
F7 V0 2.122973 1_555
F7 V2 2.165016 1_555
F8 Li5 1.888674 1_555
F8 Li4 1.888674 1_555
F8 Li8 2.018809 1_555
F8 V1 2.086033 1_556
F9 Li9 1.980365 1_555
F9 Li6 2.042548 1_555
F9 Li7 2.042548 1_555
F9 V0 2.119588 1_555
F10 Li2 1.980365 1_555
F10 Li5 2.042548 1_555
F10 Li4 2.042548 1_555
F10 V3 2.119588 1_555
F11 Li6 1.888674 1_555
F11 Li7 1.888674 1_555
F11 Li3 2.018809 1_555
F11 V2 2.086033 1_554
F12 Li8 1.942755 1_554
F12 V3 2.122973 1_555
F12 V1 2.165016 1_555
F13 Li11 1.921301 1_555
F13 Li4 1.962354 1_555
F13 Li8 2.059516 1_555
F13 V2 2.127290 1_555
F14 Li10 1.921301 1_555
F14 Li5 1.962354 1_555
F14 Li8 2.059516 1_555
F14 V2 2.127290 1_545
F15 Li6 1.921301 1_555
F15 Li0 1.962354 1_455
F15 Li9 2.059516 1_555
F15 V3 2.127290 1_565
F16 Li7 1.921301 1_555
F16 Li1 1.962354 1_455
F16 Li9 2.059516 1_555
F16 V3 2.127290 1_555
F17 Li9 1.942755 1_555
F17 V2 2.122973 1_555
F17 V0 2.165016 1_455
F18 Li10 1.888674 1_555
F18 Li11 1.888674 1_555
F18 Li2 2.018809 1_455
F18 V3 2.086033 1_555
F19 Li3 1.980365 1_455
F19 Li0 2.042548 1_455
F19 Li1 2.042548 1_455
F19 V2 2.119588 1_554
