# generated using pymatgen
data_Fe2CoO6
_symmetry_space_group_name_H-M   'P 1'
_cell_length_a   8.38455061
_cell_length_b   8.38455061
_cell_length_c   4.41412300
_cell_angle_alpha   90.00000000
_cell_angle_beta   90.00000000
_cell_angle_gamma   120.00000479
_symmetry_Int_Tables_number   1
_chemical_formula_structural   Fe2CoO6
_chemical_formula_sum   'Fe6 Co3 O18'
_cell_volume   268.74142897
_cell_formula_units_Z   3
loop_
 _symmetry_equiv_pos_site_id
 _symmetry_equiv_pos_as_xyz
  1  'x, y, z'
loop_
 _atom_site_type_symbol
 _atom_site_label
 _atom_site_symmetry_multiplicity
 _atom_site_fract_x
 _atom_site_fract_y
 _atom_site_fract_z
 _atom_site_occupancy
  Fe  Fe0  1  0.00000000  0.64346700  0.00000000  1
  Fe  Fe1  1  0.00000000  0.31147100  0.50000000  1
  Fe  Fe2  1  0.35653300  0.35653300  0.00000000  1
  Fe  Fe3  1  0.31147100  0.00000000  0.50000000  1
  Fe  Fe4  1  0.68852900  0.68852900  0.50000000  1
  Fe  Fe5  1  0.64346700  0.00000000  0.00000000  1
  Co  Co0  1  0.33333300  0.66666700  0.50439500  1
  Co  Co1  1  0.00000000  0.00000000  0.00000000  1
  Co  Co2  1  0.66666700  0.33333300  0.49560500  1
  O  O0  1  0.09598700  0.88271700  0.77354000  1
  O  O1  1  0.22375000  0.77336400  0.27158900  1
  O  O2  1  0.11832900  0.54224900  0.73503500  1
  O  O3  1  0.42392000  0.88167100  0.73503500  1
  O  O4  1  0.22663600  0.45038600  0.27158900  1
  O  O5  1  0.11728300  0.21327100  0.77354000  1
  O  O6  1  0.54961400  0.77625000  0.27158900  1
  O  O7  1  0.21327100  0.11728300  0.22646000  1
  O  O8  1  0.45775100  0.57608000  0.73503500  1
  O  O9  1  0.78672900  0.90401300  0.77354000  1
  O  O10  1  0.45038600  0.22663600  0.72841100  1
  O  O11  1  0.57608000  0.45775100  0.26496500  1
  O  O12  1  0.54224900  0.11832900  0.26496500  1
  O  O13  1  0.77625000  0.54961400  0.72841100  1
  O  O14  1  0.90401300  0.78672900  0.22646000  1
  O  O15  1  0.77336400  0.22375000  0.72841100  1
  O  O16  1  0.88167100  0.42392000  0.26496500  1
  O  O17  1  0.88271700  0.09598700  0.22646000  1
loop_
_geom_bond_atom_site_label_1
_geom_bond_atom_site_label_2
_geom_bond_distance
_geom_bond_site_symmetry_2
Fe0 O16 1.978509 1_455
Fe0 O2 1.978509 1_554
Fe0 O14 2.014085 1_455
Fe0 O0 2.014091 1_554
Fe0 O1 2.024765 1_555
Fe0 O13 2.024765 1_454
Fe1 O4 1.941851 1_555
Fe1 O15 1.941851 1_455
Fe1 O2 1.971050 1_555
Fe1 O16 1.971050 1_455
Fe1 O5 1.978006 1_555
Fe1 O17 1.978012 1_455
Fe2 O8 1.978509 1_554
Fe2 O11 1.978509 1_555
Fe2 O5 2.014090 1_554
Fe2 O7 2.014090 1_555
Fe2 O4 2.024765 1_555
Fe2 O10 2.024765 1_554
Fe3 O10 1.941851 1_555
Fe3 O1 1.941851 1_545
Fe3 O12 1.971050 1_555
Fe3 O3 1.971050 1_545
Fe3 O7 1.978006 1_555
Fe3 O0 1.978012 1_545
Fe4 O13 1.941851 1_555
Fe4 O6 1.941851 1_555
Fe4 O11 1.971050 1_555
Fe4 O8 1.971050 1_555
Fe4 O14 1.978012 1_555
Fe4 O9 1.978012 1_555
Fe5 O3 1.978509 1_544
Fe5 O12 1.978509 1_555
Fe5 O9 2.014085 1_544
Fe5 O17 2.014091 1_555
Fe5 O15 2.024765 1_554
Fe5 O6 2.024765 1_545
Co0 O3 1.869202 1_555
Co0 O2 1.869202 1_555
Co0 O8 1.869208 1_555
Co0 O1 1.876838 1_555
Co0 O6 1.876844 1_555
Co0 O4 1.876844 1_555
Co1 O0 1.845369 1_544
Co1 O17 1.845369 1_455
Co1 O5 1.845375 1_554
Co1 O7 1.845375 1_555
Co1 O9 1.845376 1_444
Co1 O14 1.845376 1_445
Co2 O16 1.869202 1_555
Co2 O12 1.869202 1_555
Co2 O11 1.869208 1_555
Co2 O15 1.876838 1_555
Co2 O13 1.876844 1_555
Co2 O10 1.876844 1_555
