# generated using pymatgen
data_V4O7F5
_symmetry_space_group_name_H-M   'P 1'
_cell_length_a   5.26960500
_cell_length_b   5.33798430
_cell_length_c   9.02110016
_cell_angle_alpha   106.29008913
_cell_angle_beta   90.06656807
_cell_angle_gamma   119.21186404
_symmetry_Int_Tables_number   1
_chemical_formula_structural   V4O7F5
_chemical_formula_sum   'V4 O7 F5'
_cell_volume   209.68475562
_cell_formula_units_Z   1
loop_
 _symmetry_equiv_pos_site_id
 _symmetry_equiv_pos_as_xyz
  1  'x, y, z'
loop_
 _atom_site_type_symbol
 _atom_site_label
 _atom_site_symmetry_multiplicity
 _atom_site_fract_x
 _atom_site_fract_y
 _atom_site_fract_z
 _atom_site_occupancy
  V  V0  1  0.74541200  0.94827400  0.26410800  1
  V  V1  1  0.50734000  0.94001900  0.50998300  1
  V  V2  1  0.20691200  0.94840300  0.75228800  1
  V  V3  1  0.95586100  0.96711900  0.01496000  1
  O  O0  1  0.81126400  0.52330900  0.11963700  1
  O  O1  1  0.69443200  0.50972500  0.37493400  1
  O  O2  1  0.84321100  0.08531700  0.08215400  1
  O  O3  1  0.84707500  0.93403400  0.66238100  1
  O  O4  1  0.31325600  0.51321800  0.62463200  1
  O  O5  1  0.20402900  0.52153100  0.86755900  1
  O  O6  1  0.65743900  0.93588600  0.41190300  1
  F  F0  1  0.34390700  0.09276100  0.58655800  1
  F  F1  1  0.33459800  0.94994000  0.15267900  1
  F  F2  1  0.17112100  0.09303200  0.33855300  1
  F  F3  1  0.18745500  0.94577700  0.90827400  1
  F  F4  1  0.67668500  0.09165000  0.82939500  1
loop_
_geom_bond_atom_site_label_1
_geom_bond_atom_site_label_2
_geom_bond_distance
_geom_bond_site_symmetry_2
O0 V0 2.464895 1_555
O0 V3 2.565039 1_555
O2 V3 1.126838 1_545
O2 V0 1.950031 1_545
O3 V2 2.019613 1_655
O3 V1 2.273962 1_555
O4 V1 2.521144 1_555
O4 V2 2.609209 1_555
O6 V1 1.190239 1_555
O6 V0 1.420519 1_555
F0 V1 1.501492 1_545
F0 V2 1.859035 1_545
F1 V0 2.390765 1_555
F1 V3 2.402477 1_455
F2 V0 2.023356 1_445
F3 V2 1.414504 1_555
F3 V3 1.582898 1_456
F4 O3 1.952805 1_545
F4 V2 2.246488 1_545
