# generated using pymatgen
data_LiGe
_symmetry_space_group_name_H-M   'P 1'
_cell_length_a   4.03138404
_cell_length_b   4.03138488
_cell_length_c   11.85473384
_cell_angle_alpha   99.78971155
_cell_angle_beta   99.78971026
_cell_angle_gamma   89.99999662
_symmetry_Int_Tables_number   1
_chemical_formula_structural   LiGe
_chemical_formula_sum   'Li6 Ge6'
_cell_volume   187.01080194
_cell_formula_units_Z   6
loop_
 _symmetry_equiv_pos_site_id
 _symmetry_equiv_pos_as_xyz
  1  'x, y, z'
loop_
 _atom_site_type_symbol
 _atom_site_label
 _atom_site_symmetry_multiplicity
 _atom_site_fract_x
 _atom_site_fract_y
 _atom_site_fract_z
 _atom_site_occupancy
  Li  Li0  1  0.37500000  0.12500000  0.25000000  1
  Li  Li1  1  0.62500000  0.87500000  0.75000000  1
  Li  Li2  1  0.46234542  0.71234542  0.42469085  1
  Li  Li3  1  0.21234542  0.96234542  0.92469085  1
  Li  Li4  1  0.53765458  0.28765458  0.57530915  1
  Li  Li5  1  0.78765458  0.03765458  0.07530915  1
  Ge  Ge0  1  0.12500000  0.37500000  0.75000000  1
  Ge  Ge1  1  0.87500000  0.62500000  0.25000000  1
  Ge  Ge2  1  0.29876905  0.54876905  0.09753910  1
  Ge  Ge3  1  0.04876905  0.79876905  0.59753910  1
  Ge  Ge4  1  0.70123095  0.45123095  0.90246090  1
  Ge  Ge5  1  0.95123095  0.20123095  0.40246090  1
loop_
_geom_bond_atom_site_label_1
_geom_bond_atom_site_label_2
_geom_bond_distance
_geom_bond_site_symmetry_2
Li0 Li5 2.846703 1_555
Li0 Li2 2.846703 1_545
Li0 Li5 2.846703 1_455
Li0 Li2 2.846703 1_555
Li1 Li3 2.846703 1_555
Li1 Li4 2.846703 1_565
Li1 Li3 2.846703 1_655
Li1 Li4 2.846703 1_555
Li2 Li4 2.658349 1_555
Li2 Li4 2.658350 1_565
Li3 Li5 2.658349 1_466
Li3 Li5 2.658350 1_566
Ge0 Ge4 2.672219 1_455
Ge0 Ge3 2.672220 1_555
Ge0 Ge4 2.672223 1_555
Ge0 Ge3 2.672223 1_545
Ge0 Li4 2.846703 1_555
Ge0 Li3 2.846703 1_545
Ge0 Li4 2.846703 1_455
Ge0 Li3 2.846703 1_555
Ge0 Li1 2.850619 1_455
Ge0 Li1 2.850619 1_545
Ge0 Li1 2.850619 1_445
Ge0 Li1 2.850619 1_555
Ge1 Ge2 2.672219 1_655
Ge1 Ge5 2.672220 1_555
Ge1 Ge2 2.672223 1_555
Ge1 Ge5 2.672223 1_565
Ge1 Li2 2.846703 1_555
Ge1 Li5 2.846703 1_565
Ge1 Li2 2.846703 1_655
Ge1 Li5 2.846703 1_555
Ge1 Li0 2.850619 1_565
Ge1 Li0 2.850619 1_655
Ge1 Li0 2.850619 1_555
Ge1 Li0 2.850619 1_665
Ge2 Li0 2.672220 1_555
Ge2 Li0 2.672223 1_565
Ge2 Li3 2.831770 1_544
Ge2 Li3 2.831772 1_554
Ge2 Li5 2.862070 1_455
Ge2 Li5 2.862073 1_465
Ge2 Li5 2.862073 1_555
Ge2 Li5 2.862076 1_565
Ge3 Li1 2.672219 1_455
Ge3 Li1 2.672223 1_555
Ge3 Li2 2.831769 1_455
Ge3 Li2 2.831772 1_555
Ge3 Li4 2.862070 1_455
Ge3 Li4 2.862073 1_465
Ge3 Li4 2.862073 1_555
Ge3 Li4 2.862076 1_565
Ge4 Li1 2.672220 1_555
Ge4 Li1 2.672223 1_545
Ge4 Li5 2.831770 1_566
Ge4 Li5 2.831772 1_556
Ge4 Li3 2.862070 1_655
Ge4 Li3 2.862073 1_645
Ge4 Li3 2.862073 1_555
Ge4 Li3 2.862076 1_545
Ge5 Li0 2.672219 1_655
Ge5 Li0 2.672223 1_555
Ge5 Li4 2.831769 1_655
Ge5 Li4 2.831772 1_555
Ge5 Li2 2.862070 1_655
Ge5 Li2 2.862073 1_645
Ge5 Li2 2.862073 1_555
Ge5 Li2 2.862076 1_545
