# generated using pymatgen
data_CaSnS3
_symmetry_space_group_name_H-M   'P 1'
_cell_length_a   6.79478914
_cell_length_b   6.79478914
_cell_length_c   6.79478917
_cell_angle_alpha   62.78629783
_cell_angle_beta   62.78629783
_cell_angle_gamma   62.78629644
_symmetry_Int_Tables_number   1
_chemical_formula_structural   CaSnS3
_chemical_formula_sum   'Ca2 Sn2 S6'
_cell_volume   235.57039569
_cell_formula_units_Z   2
loop_
 _symmetry_equiv_pos_site_id
 _symmetry_equiv_pos_as_xyz
  1  'x, y, z'
loop_
 _atom_site_type_symbol
 _atom_site_label
 _atom_site_symmetry_multiplicity
 _atom_site_fract_x
 _atom_site_fract_y
 _atom_site_fract_z
 _atom_site_occupancy
  Ca  Ca0  1  0.25000000  0.25000000  0.25000000  1
  Ca  Ca1  1  0.75000000  0.75000000  0.75000000  1
  Sn  Sn0  1  0.50000000  0.50000000  0.50000000  1
  Sn  Sn1  1  0.00000000  0.00000000  0.00000000  1
  S  S0  1  0.85980900  0.64019100  0.25000000  1
  S  S1  1  0.25000000  0.85980900  0.64019100  1
  S  S2  1  0.64019100  0.25000000  0.85980900  1
  S  S3  1  0.75000000  0.14019100  0.35980900  1
  S  S4  1  0.35980900  0.75000000  0.14019100  1
  S  S5  1  0.14019100  0.35980900  0.75000000  1
loop_
_geom_bond_atom_site_label_1
_geom_bond_atom_site_label_2
_geom_bond_distance
_geom_bond_site_symmetry_2
Ca0 S0 2.762129 1_455
Ca0 S2 2.762129 1_554
Ca0 S1 2.762129 1_545
Ca1 S5 2.762129 1_655
Ca1 S4 2.762129 1_556
Ca1 S3 2.762129 1_565
S0 Sn0 2.573276 1_555
S0 Sn1 2.573276 1_665
S1 Sn0 2.573276 1_555
S1 Sn1 2.573276 1_566
S2 Sn1 2.573276 1_656
S2 Sn0 2.573276 1_555
S3 Sn0 2.573276 1_555
S3 Sn1 2.573276 1_655
S4 Sn1 2.573276 1_565
S4 Sn0 2.573276 1_555
S5 Sn1 2.573276 1_556
S5 Sn0 2.573276 1_555
