# generated using pymatgen
data_LiMn2(BO3)2
_symmetry_space_group_name_H-M   'P 1'
_cell_length_a   5.30435400
_cell_length_b   9.14812549
_cell_length_c   11.54236497
_cell_angle_alpha   112.63512446
_cell_angle_beta   101.95435243
_cell_angle_gamma   89.53638024
_symmetry_Int_Tables_number   1
_chemical_formula_structural   LiMn2(BO3)2
_chemical_formula_sum   'Li4 Mn8 B8 O24'
_cell_volume   504.14590684
_cell_formula_units_Z   4
loop_
 _symmetry_equiv_pos_site_id
 _symmetry_equiv_pos_as_xyz
  1  'x, y, z'
loop_
 _atom_site_type_symbol
 _atom_site_label
 _atom_site_symmetry_multiplicity
 _atom_site_fract_x
 _atom_site_fract_y
 _atom_site_fract_z
 _atom_site_occupancy
  Li  Li0  1  0.69211000  0.83718100  0.66673700  1
  Li  Li1  1  0.45262300  0.57733600  0.16894400  1
  Li  Li2  1  0.32533800  0.15559600  0.34815900  1
  Li  Li3  1  0.17071300  0.33086000  0.65685300  1
  Mn  Mn0  1  0.92200300  0.75547900  0.13291500  1
  Mn  Mn1  1  0.85654600  0.35236000  0.37836000  1
  Mn  Mn2  1  0.65521400  0.14494900  0.62811900  1
  Mn  Mn3  1  0.41917600  0.23378100  0.13133300  1
  Mn  Mn4  1  0.59555800  0.78181800  0.88183000  1
  Mn  Mn5  1  0.34468600  0.84190800  0.38660700  1
  Mn  Mn6  1  0.16738000  0.63884200  0.62724400  1
  Mn  Mn7  1  0.08547700  0.28261100  0.88603200  1
  B  B0  1  0.90237600  0.41280100  0.13336000  1
  B  B1  1  0.85645300  0.02110200  0.38229300  1
  B  B2  1  0.64931300  0.47897100  0.62691000  1
  B  B3  1  0.40479100  0.89366300  0.13880800  1
  B  B4  1  0.58932100  0.11431300  0.86879600  1
  B  B5  1  0.35600600  0.50253700  0.37275300  1
  B  B6  1  0.14614300  0.97454800  0.62753600  1
  B  B7  1  0.09604000  0.61638300  0.86763500  1
  O  O0  1  0.92642500  0.86673100  0.32009700  1
  O  O1  1  0.78247600  0.54065500  0.12557200  1
  O  O2  1  0.79976500  0.30988400  0.17935000  1
  O  O3  1  0.88230000  0.46386200  0.58588300  1
  O  O4  1  0.60330900  0.84331000  0.07549700  1
  O  O5  1  0.93855600  0.69360100  0.95248800  1
  O  O6  1  0.63220700  0.03852600  0.43566300  1
  O  O7  1  0.67620300  0.96941900  0.84091700  1
  O  O8  1  0.45944800  0.61932200  0.34996500  1
  O  O9  1  0.67116600  0.21719200  0.81501800  1
  O  O10  1  0.43293500  0.34451600  0.32170200  1
  O  O11  1  0.55962600  0.63209200  0.67067000  1
  O  O12  1  0.31629300  0.03887200  0.16214200  1
  O  O13  1  0.51114300  0.34953000  0.62008000  1
  O  O14  1  0.30552800  0.78504000  0.18237100  1
  O  O15  1  0.38451500  0.96139200  0.58853600  1
  O  O16  1  0.13824000  0.37743200  0.09273900  1
  O  O17  1  0.41088300  0.17299800  0.94758200  1
  O  O18  1  0.16809800  0.52365100  0.44504600  1
  O  O19  1  0.18679900  0.71253000  0.81075200  1
  O  O20  1  0.00029900  0.14998400  0.39465900  1
  O  O21  1  0.15352300  0.46453000  0.83577200  1
  O  O22  1  0.04891200  0.12543800  0.66879100  1
  O  O23  1  0.01669000  0.84313900  0.62039400  1
loop_
_geom_bond_atom_site_label_1
_geom_bond_atom_site_label_2
_geom_bond_distance
_geom_bond_site_symmetry_2
Li0 O23 1.912793 1_655
Li0 O7 1.925890 1_555
Li0 O11 2.028810 1_555
Li0 O15 2.217514 1_555
Li1 O1 1.910123 1_555
Li1 O8 1.966123 1_555
Li1 O14 2.010628 1_555
Li1 O16 2.258861 1_555
Li2 O20 1.915539 1_555
Li2 O10 1.974915 1_555
Li2 O12 1.986426 1_555
Li2 O6 2.222600 1_555
Li3 O13 1.961735 1_555
Li3 O21 1.975062 1_555
Li3 O22 2.055173 1_555
Li3 O3 2.170197 1_455
Mn0 O5 1.957733 1_554
Mn0 O4 1.966285 1_555
Mn0 O14 1.986600 1_655
Mn0 O0 1.997773 1_555
Mn0 O1 2.070370 1_555
Mn1 O20 2.056740 1_655
Mn1 O18 2.089382 1_655
Mn1 O2 2.132224 1_555
Mn1 O3 2.186930 1_555
Mn1 O10 2.199886 1_555
Mn2 O9 1.981307 1_555
Mn2 O6 2.030342 1_555
Mn2 O13 2.043624 1_555
Mn2 O22 2.065341 1_655
Mn2 O15 2.065658 1_545
Mn3 O17 1.965557 1_554
Mn3 O10 2.020179 1_555
Mn3 O2 2.032134 1_555
Mn3 O12 2.046399 1_555
Mn3 O16 2.071220 1_555
Mn4 O7 2.017599 1_555
Mn4 O4 2.075917 1_556
Mn4 O5 2.120078 1_555
Mn4 O19 2.158938 1_555
Mn4 O11 2.257201 1_555
Mn5 O8 2.029640 1_555
Mn5 O15 2.123801 1_555
Mn5 O14 2.173912 1_555
Mn5 O6 2.187367 1_565
Mn5 O0 2.232391 1_455
Mn6 O19 1.939884 1_555
Mn6 O18 1.957175 1_555
Mn6 O11 2.042967 1_555
Mn6 O23 2.049745 1_555
Mn6 O3 2.056408 1_455
Mn7 O21 2.018917 1_555
Mn7 O17 2.121763 1_555
Mn7 O16 2.158128 1_556
Mn7 O9 2.181091 1_455
Mn7 O22 2.328166 1_555
B0 O1 1.351220 1_555
B0 O2 1.406102 1_555
B0 O16 1.417559 1_655
B1 O20 1.353726 1_655
B1 O0 1.403208 1_545
B1 O6 1.429911 1_555
B2 O13 1.365214 1_555
B2 O3 1.399987 1_555
B2 O11 1.409880 1_555
B3 O12 1.350709 1_565
B3 O4 1.380887 1_555
B3 O14 1.421347 1_555
B4 O7 1.340202 1_545
B4 O17 1.408404 1_555
B4 O9 1.423886 1_555
B5 O8 1.340605 1_555
B5 O18 1.394428 1_555
B5 O10 1.427542 1_555
B6 O23 1.355392 1_555
B6 O22 1.407984 1_565
B6 O15 1.416855 1_555
B7 O21 1.343269 1_555
B7 O5 1.397459 1_455
B7 O19 1.420836 1_555
