# generated using pymatgen
data_Er4Ga16Co3
_symmetry_space_group_name_H-M   'P 1'
_cell_length_a   5.94311329
_cell_length_b   5.94313844
_cell_length_c   10.91953338
_cell_angle_alpha   90.00001698
_cell_angle_beta   89.99999367
_cell_angle_gamma   90.00000096
_symmetry_Int_Tables_number   1
_chemical_formula_structural   Er4Ga16Co3
_chemical_formula_sum   'Er4 Ga16 Co3'
_cell_volume   385.68605455
_cell_formula_units_Z   1
loop_
 _symmetry_equiv_pos_site_id
 _symmetry_equiv_pos_as_xyz
  1  'x, y, z'
loop_
 _atom_site_type_symbol
 _atom_site_label
 _atom_site_symmetry_multiplicity
 _atom_site_fract_x
 _atom_site_fract_y
 _atom_site_fract_z
 _atom_site_occupancy
  Er  Er0  1  -0.00000015  0.49999956  0.19480922  1
  Er  Er1  1  0.00000025  0.50000078  0.80519085  1
  Er  Er2  1  0.49999989  -0.00000021  0.80519000  1
  Er  Er3  1  0.49999994  -0.00000003  0.19481001  1
  Ga  Ga0  1  0.00000004  -0.00000009  0.21865599  1
  Ga  Ga1  1  -0.00000003  0.00000016  0.78134396  1
  Ga  Ga2  1  0.50000005  0.50000001  0.19544285  1
  Ga  Ga3  1  0.49999997  0.49999998  0.80455703  1
  Ga  Ga4  1  0.28106792  0.28106858  0.00000006  1
  Ga  Ga5  1  0.71893205  0.71893134  -0.00000019  1
  Ga  Ga6  1  0.28106799  0.71893128  -0.00000005  1
  Ga  Ga7  1  0.71893210  0.28106855  -0.00000010  1
  Ga  Ga8  1  0.24962464  0.24962629  0.38418580  1
  Ga  Ga9  1  0.75037539  0.75037375  0.38418583  1
  Ga  Ga10  1  0.24962467  0.75037373  0.61581426  1
  Ga  Ga11  1  0.75037533  0.24962628  0.61581424  1
  Ga  Ga12  1  0.75037532  0.75037383  0.61581428  1
  Ga  Ga13  1  0.24962466  0.24962634  0.61581423  1
  Ga  Ga14  1  0.24962459  0.75037377  0.38418582  1
  Ga  Ga15  1  0.75037535  0.24962624  0.38418579  1
  Co  Co0  1  -0.00000001  0.50000015  0.50000016  1
  Co  Co1  1  0.49999996  -0.00000003  0.50000004  1
  Co  Co2  1  0.00000008  -0.00000025  -0.00000008  1
loop_
_geom_bond_atom_site_label_1
_geom_bond_atom_site_label_2
_geom_bond_distance
_geom_bond_site_symmetry_2
Er0 Ga15 2.948100 1_455
Er0 Ga8 2.948101 1_555
Er0 Ga9 2.948102 1_455
Er0 Ga14 2.948103 1_555
Er0 Ga2 2.971564 1_455
Er0 Ga2 2.971566 1_555
Er0 Ga0 2.982955 1_555
Er0 Ga0 2.982958 1_565
Er0 Ga4 3.001390 1_555
Er0 Ga7 3.001391 1_455
Er0 Ga6 3.001394 1_555
Er0 Ga5 3.001394 1_455
Er1 Ga10 2.948098 1_555
Er1 Ga12 2.948100 1_455
Er1 Ga13 2.948103 1_555
Er1 Ga11 2.948104 1_455
Er1 Ga3 2.971563 1_555
Er1 Ga3 2.971566 1_455
Er1 Ga1 2.982953 1_565
Er1 Ga1 2.982960 1_555
Er1 Ga6 3.001388 1_556
Er1 Ga5 3.001388 1_456
Er1 Ga4 3.001393 1_556
Er1 Ga7 3.001393 1_456
Er2 Ga12 2.948103 1_545
Er2 Ga10 2.948103 1_545
Er2 Ga13 2.948106 1_555
Er2 Ga11 2.948106 1_555
Er2 Ga3 2.971576 1_545
Er2 Ga3 2.971578 1_555
Er2 Ga1 2.982943 1_555
Er2 Ga1 2.982944 1_655
Er2 Ga5 3.001402 1_546
Er2 Ga6 3.001402 1_546
Er2 Ga7 3.001403 1_556
Er2 Ga4 3.001404 1_556
Er3 Ga8 2.948104 1_555
Er3 Ga15 2.948105 1_555
Er3 Ga14 2.948105 1_545
Er3 Ga9 2.948106 1_545
Er3 Ga2 2.971577 1_545
Er3 Ga2 2.971577 1_555
Er3 Ga0 2.982943 1_555
Er3 Ga0 2.982944 1_655
Er3 Ga4 3.001403 1_555
Er3 Ga6 3.001403 1_545
Er3 Ga7 3.001404 1_555
Er3 Ga5 3.001405 1_545
Ga0 Ga14 2.769289 1_545
Ga0 Ga15 2.769289 1_455
Ga0 Ga8 2.769289 1_555
Ga0 Ga9 2.769289 1_445
Ga1 Ga12 2.769288 1_445
Ga1 Ga11 2.769288 1_455
Ga1 Ga13 2.769288 1_555
Ga1 Ga10 2.769288 1_545
Ga2 Ga4 2.817889 1_555
Ga2 Ga6 2.817889 1_555
Ga2 Ga7 2.817890 1_555
Ga2 Ga5 2.817890 1_555
Ga2 Ga9 2.945504 1_555
Ga2 Ga8 2.945504 1_555
Ga3 Ga5 2.817888 1_556
Ga3 Ga6 2.817889 1_556
Ga3 Ga7 2.817890 1_556
Ga3 Ga4 2.817891 1_556
Ga4 Ga7 2.602276 1_555
Ga4 Ga6 2.602279 1_555
Ga5 Ga6 2.602276 1_555
Ga5 Ga7 2.602279 1_555
Ga10 Ga14 2.529274 1_555
Ga10 Ga3 2.945502 1_555
Ga10 Ga12 2.967095 1_455
Ga10 Ga13 2.967127 1_565
Ga10 Ga13 2.976011 1_555
Ga10 Ga12 2.976018 1_555
Ga11 Ga15 2.529275 1_555
Ga11 Ga3 2.945502 1_555
Ga11 Ga13 2.967095 1_655
Ga11 Ga12 2.967126 1_545
Ga11 Ga12 2.976012 1_555
Ga11 Ga13 2.976018 1_555
Ga12 Ga9 2.529275 1_555
Ga12 Ga3 2.945503 1_555
Ga13 Ga8 2.529274 1_555
Ga13 Ga3 2.945502 1_555
Ga14 Ga2 2.945504 1_555
Ga14 Ga9 2.967095 1_455
Ga14 Ga8 2.967127 1_565
Ga14 Ga8 2.976012 1_555
Ga14 Ga9 2.976019 1_555
Ga15 Ga2 2.945504 1_555
Ga15 Ga8 2.967095 1_655
Ga15 Ga9 2.967127 1_545
Ga15 Ga9 2.976012 1_555
Ga15 Ga8 2.976018 1_555
Co0 Ga10 2.452422 1_555
Co0 Ga12 2.452423 1_455
Co0 Ga13 2.452424 1_555
Co0 Ga11 2.452424 1_455
Co0 Ga14 2.452424 1_555
Co0 Ga9 2.452424 1_455
Co0 Ga8 2.452425 1_555
Co0 Ga15 2.452425 1_455
Co1 Ga14 2.452435 1_545
Co1 Ga13 2.452435 1_555
Co1 Ga9 2.452435 1_545
Co1 Ga10 2.452435 1_545
Co1 Ga11 2.452435 1_555
Co1 Ga12 2.452435 1_545
Co1 Ga15 2.452436 1_555
Co1 Ga8 2.452436 1_555
Co2 Ga6 2.362336 1_545
Co2 Ga5 2.362336 1_445
Co2 Ga4 2.362337 1_555
Co2 Ga7 2.362337 1_455
Co2 Ga1 2.387621 1_554
Co2 Ga0 2.387622 1_555
