# generated using pymatgen
data_LiMnPO4
_symmetry_space_group_name_H-M   'P 1'
_cell_length_a   10.29224600
_cell_length_b   5.98121100
_cell_length_c   10.09728327
_cell_angle_alpha   86.44459480
_cell_angle_beta   90.00000000
_cell_angle_gamma   90.00000000
_symmetry_Int_Tables_number   1
_chemical_formula_structural   LiMnPO4
_chemical_formula_sum   'Li8 Mn8 P8 O32'
_cell_volume   620.39334173
_cell_formula_units_Z   8
loop_
 _symmetry_equiv_pos_site_id
 _symmetry_equiv_pos_as_xyz
  1  'x, y, z'
loop_
 _atom_site_type_symbol
 _atom_site_label
 _atom_site_symmetry_multiplicity
 _atom_site_fract_x
 _atom_site_fract_y
 _atom_site_fract_z
 _atom_site_occupancy
  Li  Li0  1  0.89824300  0.85813000  0.47779300  1
  Li  Li1  1  0.60175700  0.85813000  0.97779300  1
  Li  Li2  1  0.40771200  0.62860800  0.78007400  1
  Li  Li3  1  0.09228800  0.62860800  0.28007400  1
  Li  Li4  1  0.90771200  0.37139200  0.71992600  1
  Li  Li5  1  0.59228800  0.37139200  0.21992600  1
  Li  Li6  1  0.39824300  0.14187000  0.02220700  1
  Li  Li7  1  0.10175700  0.14187000  0.52220700  1
  Mn  Mn0  1  0.16917600  0.87858300  0.86796900  1
  Mn  Mn1  1  0.33082400  0.87858300  0.36796900  1
  Mn  Mn2  1  0.64531300  0.62641200  0.64145400  1
  Mn  Mn3  1  0.85468700  0.62641200  0.14145400  1
  Mn  Mn4  1  0.14531300  0.37358800  0.85854600  1
  Mn  Mn5  1  0.35468700  0.37358800  0.35854600  1
  Mn  Mn6  1  0.66917600  0.12141700  0.63203100  1
  Mn  Mn7  1  0.83082400  0.12141700  0.13203100  1
  P  P0  1  0.89187900  0.87004000  0.84691200  1
  P  P1  1  0.60812100  0.87004000  0.34691200  1
  P  P2  1  0.14566900  0.62518600  0.59752800  1
  P  P3  1  0.35433100  0.62518600  0.09752800  1
  P  P4  1  0.64566900  0.37481400  0.90247200  1
  P  P5  1  0.85433100  0.37481400  0.40247200  1
  P  P6  1  0.39187900  0.12996000  0.65308800  1
  P  P7  1  0.10812100  0.12996000  0.15308800  1
  O  O0  1  0.80768500  0.87972500  0.97705000  1
  O  O1  1  0.48259800  0.91967600  0.66757700  1
  O  O2  1  0.69231500  0.87972500  0.47705000  1
  O  O3  1  0.01740200  0.91967600  0.16757700  1
  O  O4  1  0.79846700  0.86123400  0.72563300  1
  O  O5  1  0.06021200  0.83222500  0.57694300  1
  O  O6  1  0.70153300  0.86123400  0.22563300  1
  O  O7  1  0.43978800  0.83222500  0.07694300  1
  O  O8  1  0.23462800  0.65163500  0.72168300  1
  O  O9  1  0.98171000  0.65915200  0.86384700  1
  O  O10  1  0.26537200  0.65163500  0.22168300  1
  O  O11  1  0.51829000  0.65915200  0.36384700  1
  O  O12  1  0.57115200  0.59636400  0.86665700  1
  O  O13  1  0.26869700  0.59876300  0.97141600  1
  O  O14  1  0.92884800  0.59636400  0.36665700  1
  O  O15  1  0.23130300  0.59876300  0.47141600  1
  O  O16  1  0.76869700  0.40123700  0.52858400  1
  O  O17  1  0.07115200  0.40363600  0.63334300  1
  O  O18  1  0.73130300  0.40123700  0.02858400  1
  O  O19  1  0.42884800  0.40363600  0.13334300  1
  O  O20  1  0.48171000  0.34084800  0.63615300  1
  O  O21  1  0.73462800  0.34836500  0.77831700  1
  O  O22  1  0.01829000  0.34084800  0.13615300  1
  O  O23  1  0.76537200  0.34836500  0.27831700  1
  O  O24  1  0.56021200  0.16777500  0.92305700  1
  O  O25  1  0.29846700  0.13876600  0.77436700  1
  O  O26  1  0.93978800  0.16777500  0.42305700  1
  O  O27  1  0.20153300  0.13876600  0.27436700  1
  O  O28  1  0.98259800  0.08032400  0.83242300  1
  O  O29  1  0.30768500  0.12027500  0.52295000  1
  O  O30  1  0.51740200  0.08032400  0.33242300  1
  O  O31  1  0.19231500  0.12027500  0.02295000  1
loop_
_geom_bond_atom_site_label_1
_geom_bond_atom_site_label_2
_geom_bond_distance
_geom_bond_site_symmetry_2
Li0 O5 1.945773 1_655
Li0 O26 1.947161 1_565
Li0 O14 2.006925 1_555
Li0 O2 2.123379 1_555
Li1 O7 1.945773 1_556
Li1 O24 1.947161 1_565
Li1 O12 2.006925 1_555
Li1 O0 2.123379 1_555
Li2 O8 1.878825 1_555
Li2 O12 1.900073 1_555
Li2 O1 2.161006 1_555
Li2 O13 2.401868 1_555
Li2 O20 2.442223 1_555
Li3 O10 1.878825 1_555
Li3 O14 1.900073 1_455
Li3 O3 2.161006 1_555
Li3 O15 2.401868 1_555
Li3 O22 2.442223 1_555
Li4 O21 1.878825 1_555
Li4 O17 1.900073 1_655
Li4 O28 2.161006 1_555
Li4 O16 2.401868 1_555
Li4 O9 2.442223 1_555
Li5 O23 1.878825 1_555
Li5 O19 1.900073 1_555
Li5 O30 2.161006 1_555
Li5 O18 2.401868 1_555
Li5 O11 2.442223 1_555
Li6 O24 1.945773 1_554
Li6 O7 1.947161 1_545
Li6 O19 2.006925 1_555
Li6 O31 2.123379 1_555
Li7 O26 1.945773 1_455
Li7 O5 1.947161 1_545
Li7 O17 2.006925 1_555
Li7 O29 2.123379 1_555
Mn0 O13 2.173603 1_555
Mn0 O8 2.174139 1_555
Mn0 O31 2.208157 1_566
Mn0 O25 2.214357 1_565
Mn0 O28 2.284448 1_465
Mn0 O9 2.335344 1_455
Mn1 O15 2.173603 1_555
Mn1 O10 2.174139 1_555
Mn1 O29 2.208157 1_565
Mn1 O27 2.214357 1_565
Mn1 O30 2.284448 1_565
Mn1 O11 2.335344 1_555
Mn2 O16 2.217163 1_555
Mn2 O2 2.230105 1_555
Mn2 O21 2.288124 1_555
Mn2 O4 2.308230 1_555
Mn2 O12 2.394788 1_555
Mn2 O20 2.401428 1_555
Mn2 O1 2.451196 1_555
Mn3 O18 2.217163 1_555
Mn3 O0 2.230105 1_554
Mn3 O23 2.288124 1_555
Mn3 O6 2.308230 1_555
Mn3 O14 2.394788 1_555
Mn3 O22 2.401428 1_655
Mn3 O3 2.451196 1_655
Mn4 O13 2.217163 1_555
Mn4 O31 2.230105 1_556
Mn4 O8 2.288124 1_555
Mn4 O25 2.308230 1_555
Mn4 O17 2.394788 1_555
Mn4 O9 2.401428 1_455
Mn4 O28 2.451196 1_455
Mn5 O15 2.217163 1_555
Mn5 O29 2.230105 1_555
Mn5 O10 2.288124 1_555
Mn5 O27 2.308230 1_555
Mn5 O19 2.394788 1_555
Mn5 O11 2.401428 1_555
Mn5 O30 2.451196 1_555
Mn6 O16 2.173603 1_555
Mn6 O21 2.174139 1_555
Mn6 O2 2.208157 1_545
Mn6 O4 2.214357 1_545
Mn6 O1 2.284448 1_545
Mn6 O20 2.335344 1_555
Mn7 O18 2.173603 1_555
Mn7 O23 2.174139 1_555
Mn7 O0 2.208157 1_544
Mn7 O6 2.214357 1_545
Mn7 O3 2.284448 1_645
Mn7 O22 2.335344 1_655
O0 P0 1.578100 1_555
O1 P6 1.565990 1_565
O2 P1 1.578100 1_555
O3 P7 1.565990 1_565
O4 P0 1.560358 1_555
O5 P2 1.522620 1_555
O6 P1 1.560358 1_555
O7 P3 1.522620 1_555
O8 P2 1.568282 1_555
O9 P0 1.564720 1_555
O10 P3 1.568282 1_555
O11 P1 1.564720 1_555
O12 P4 1.554201 1_555
O13 P3 1.564692 1_556
O14 P5 1.554201 1_555
O15 P2 1.564692 1_555
O16 P5 1.564692 1_555
O17 P2 1.554201 1_555
O18 P4 1.564692 1_554
O19 P3 1.554201 1_555
O20 P6 1.564720 1_555
O21 P4 1.568282 1_555
O22 P7 1.564720 1_555
O23 P5 1.568282 1_555
O24 P4 1.522620 1_555
O25 P6 1.560358 1_555
O26 P5 1.522620 1_555
O27 P7 1.560358 1_555
O28 P0 1.565990 1_545
O29 P6 1.578100 1_555
O30 P1 1.565990 1_545
O31 P7 1.578100 1_555
