# generated using pymatgen
data_Li5Fe4(P2O7)4
_symmetry_space_group_name_H-M   'P 1'
_cell_length_a   9.75922600
_cell_length_b   9.79642540
_cell_length_c   11.15872680
_cell_angle_alpha   89.78216274
_cell_angle_beta   78.36451992
_cell_angle_gamma   89.46604640
_symmetry_Int_Tables_number   1
_chemical_formula_structural   Li5Fe4(P2O7)4
_chemical_formula_sum   'Li10 Fe8 P16 O56'
_cell_volume   1044.86569958
_cell_formula_units_Z   2
loop_
 _symmetry_equiv_pos_site_id
 _symmetry_equiv_pos_as_xyz
  1  'x, y, z'
loop_
 _atom_site_type_symbol
 _atom_site_label
 _atom_site_symmetry_multiplicity
 _atom_site_fract_x
 _atom_site_fract_y
 _atom_site_fract_z
 _atom_site_occupancy
  Li  Li0  1  0.88418700  0.29515200  0.45473200  1
  Li  Li1  1  0.59118500  0.38809100  0.97519000  1
  Li  Li2  1  0.63695300  0.06667000  0.48448500  1
  Li  Li3  1  0.61526100  0.77733200  0.55190000  1
  Li  Li4  1  0.41008500  0.60565200  0.03426600  1
  Li  Li5  1  0.14489800  0.40955900  0.95286300  1
  Li  Li6  1  0.35261600  0.90508400  0.04592100  1
  Li  Li7  1  0.07746200  0.09763800  0.97605400  1
  Li  Li8  1  0.18189400  0.41339000  0.45056100  1
  Li  Li9  1  0.11291300  0.71524700  0.54490000  1
  Fe  Fe0  1  0.79757600  0.08186800  0.68058600  1
  Fe  Fe1  1  0.75701300  0.79621500  0.82586900  1
  Fe  Fe2  1  0.75696500  0.27725300  0.17447700  1
  Fe  Fe3  1  0.70739500  0.57307200  0.32537500  1
  Fe  Fe4  1  0.29598600  0.42175200  0.67622000  1
  Fe  Fe5  1  0.24426000  0.71753900  0.82945800  1
  Fe  Fe6  1  0.25538500  0.21358700  0.17431300  1
  Fe  Fe7  1  0.20574300  0.92767200  0.32871300  1
  P  P0  1  0.97884800  0.54865500  0.74743700  1
  P  P1  1  0.88324900  0.29209500  0.88490500  1
  P  P2  1  0.93152800  0.08074500  0.24405700  1
  P  P3  1  0.87552300  0.85230100  0.41683800  1
  P  P4  1  0.62207000  0.35771900  0.57765900  1
  P  P5  1  0.56034100  0.57492700  0.76496700  1
  P  P6  1  0.48036200  0.94998600  0.75466100  1
  P  P7  1  0.61980700  0.78829700  0.11572300  1
  P  P8  1  0.38343800  0.20580800  0.88400600  1
  P  P9  1  0.52414000  0.05045900  0.24717700  1
  P  P10  1  0.44133200  0.42284300  0.24079500  1
  P  P11  1  0.37873900  0.64754500  0.42289600  1
  P  P12  1  0.12288000  0.14639000  0.57165400  1
  P  P13  1  0.06840000  0.92421100  0.75788400  1
  P  P14  1  0.11097200  0.71395900  0.11678600  1
  P  P15  1  0.02760600  0.44947300  0.23850300  1
  O  O0  1  0.98976500  0.56913300  0.61305400  1
  O  O1  1  0.96501100  0.16103600  0.56711500  1
  O  O2  1  0.91291900  0.91987000  0.73481100  1
  O  O3  1  0.89000000  0.41163700  0.78515100  1
  O  O4  1  0.89736500  0.65796900  0.83209700  1
  O  O5  1  0.82044400  0.17402200  0.82545300  1
  O  O6  1  0.77965100  0.34049200  0.00283800  1
  O  O7  1  0.97275400  0.74453400  0.08854800  1
  O  O8  1  0.87767300  0.93228000  0.28942800  1
  O  O9  1  0.91242300  0.10839600  0.11407200  1
  O  O10  1  0.86947400  0.45624600  0.22397900  1
  O  O11  1  0.80761100  0.71497900  0.40301100  1
  O  O12  1  0.83006300  0.18595600  0.32082300  1
  O  O13  1  0.78184900  0.93563900  0.51916300  1
  O  O14  1  0.71395300  0.42888600  0.46886900  1
  O  O15  1  0.65406400  0.69622400  0.71093300  1
  O  O16  1  0.68531400  0.21430900  0.59401900  1
  O  O17  1  0.63702700  0.96688500  0.77560500  1
  O  O18  1  0.63370200  0.43980000  0.69914200  1
  O  O19  1  0.56082400  0.56000800  0.89860100  1
  O  O20  1  0.52318100  0.23850000  0.90918500  1
  O  O21  1  0.71759400  0.83155100  0.99503900  1
  O  O22  1  0.67831500  0.67011400  0.18091600  1
  O  O23  1  0.61378500  0.91288300  0.20984200  1
  O  O24  1  0.59347900  0.41005000  0.26645100  1
  O  O25  1  0.60159400  0.16040600  0.15977400  1
  O  O26  1  0.53072000  0.65632800  0.43951300  1
  O  O27  1  0.48187700  0.91196300  0.62455800  1
  O  O28  1  0.52081600  0.07354300  0.37905600  1
  O  O29  1  0.46717400  0.34953300  0.57339300  1
  O  O30  1  0.39976200  0.86022100  0.85772600  1
  O  O31  1  0.41233400  0.58295600  0.73254100  1
  O  O32  1  0.40505600  0.09757300  0.77294100  1
  O  O33  1  0.30828200  0.32688800  0.83116900  1
  O  O34  1  0.27966200  0.14156100  0.99443800  1
  O  O35  1  0.47350800  0.76645800  0.09527700  1
  O  O36  1  0.43887200  0.43108500  0.10646100  1
  O  O37  1  0.38390900  0.56942500  0.29583100  1
  O  O38  1  0.37471100  0.02802700  0.21649400  1
  O  O39  1  0.30839800  0.78436200  0.40713500  1
  O  O40  1  0.33611300  0.31863800  0.30668300  1
  O  O41  1  0.28343700  0.56175600  0.52249200  1
  O  O42  1  0.20336400  0.06617900  0.46367000  1
  O  O43  1  0.15444600  0.80545000  0.69091700  1
  O  O44  1  0.18301100  0.28819100  0.59024900  1
  O  O45  1  0.12627500  0.52454600  0.78368300  1
  O  O46  1  0.08191300  0.93149700  0.88899500  1
  O  O47  1  0.12820000  0.06539100  0.69548300  1
  O  O48  1  0.02747100  0.26645600  0.90772200  1
  O  O49  1  0.22131800  0.64941200  0.00841700  1
  O  O50  1  0.18703500  0.83029100  0.17371700  1
  O  O51  1  0.11163700  0.36415800  0.13338700  1
  O  O52  1  0.09334700  0.59871500  0.22749300  1
  O  O53  1  0.08472400  0.08451200  0.26157800  1
  O  O54  1  0.02840600  0.84029300  0.43127900  1
  O  O55  1  0.03559900  0.40012600  0.36531400  1
loop_
_geom_bond_atom_site_label_1
_geom_bond_atom_site_label_2
_geom_bond_distance
_geom_bond_site_symmetry_2
Li0 O55 1.913744 1_655
Li0 O12 1.999294 1_555
Li0 O1 2.070796 1_555
Li0 O14 2.087263 1_555
Li0 O16 2.369037 1_555
Li1 O20 1.831394 1_555
Li1 O36 1.909810 1_556
Li1 O19 1.933011 1_555
Li1 O6 1.976712 1_556
Li2 O28 1.791373 1_555
Li2 O13 1.995037 1_545
Li2 O16 2.016782 1_555
Li2 O27 2.470031 1_545
Li2 O12 2.624698 1_555
Li3 O27 1.908339 1_555
Li3 O26 2.026218 1_555
Li3 O15 2.044190 1_555
Li3 O13 2.232669 1_555
Li3 O11 2.320683 1_555
Li4 O35 1.877380 1_555
Li4 O36 1.929855 1_555
Li4 O19 1.936590 1_554
Li4 O49 1.964543 1_555
Li5 O48 1.949491 1_555
Li5 O51 2.023162 1_556
Li5 O33 2.037957 1_555
Li5 O45 2.232549 1_555
Li5 O49 2.586858 1_556
Li6 O35 1.940646 1_555
Li6 O50 2.065506 1_555
Li6 O30 2.104383 1_554
Li6 O38 2.303856 1_565
Li6 O34 2.515519 1_564
Li7 O46 1.894297 1_545
Li7 O48 1.918319 1_555
Li7 O9 1.993669 1_456
Li7 O34 2.073883 1_555
Li8 O55 1.874135 1_555
Li8 O44 1.981456 1_555
Li8 O41 2.023710 1_555
Li8 O40 2.171413 1_555
Li9 O0 1.930484 1_455
Li9 O43 1.970788 1_555
Li9 O54 2.044364 1_555
Li9 O41 2.209388 1_555
Li9 O39 2.300971 1_555
Fe0 O5 1.907450 1_555
Fe0 O1 2.014050 1_555
Fe0 O17 2.049807 1_545
Fe0 O16 2.051261 1_555
Fe0 O2 2.094265 1_545
Fe0 O13 2.335702 1_545
Fe1 O21 1.881722 1_555
Fe1 O4 1.928280 1_555
Fe1 O15 2.039982 1_555
Fe1 O2 2.053360 1_555
Fe1 O17 2.168525 1_555
Fe2 O25 1.941780 1_555
Fe2 O6 1.980802 1_555
Fe2 O12 2.102987 1_555
Fe2 O24 2.145302 1_555
Fe2 O10 2.207569 1_555
Fe2 O9 2.245361 1_555
Fe3 O22 1.936654 1_555
Fe3 O11 2.003977 1_555
Fe3 O10 2.084752 1_555
Fe3 O26 2.087140 1_555
Fe3 O24 2.134180 1_555
Fe3 O14 2.141402 1_555
Fe4 O29 1.954259 1_555
Fe4 O33 1.984188 1_555
Fe4 O44 2.076286 1_555
Fe4 O45 2.090972 1_555
Fe4 O31 2.122974 1_555
Fe4 O41 2.214151 1_555
Fe5 O49 2.072603 1_556
Fe5 O43 2.102924 1_555
Fe5 O30 2.142965 1_555
Fe5 O31 2.203028 1_555
Fe5 O45 2.333754 1_555
Fe5 O46 2.620889 1_555
Fe6 O40 2.087495 1_555
Fe6 O34 2.097281 1_554
Fe6 O51 2.137084 1_555
Fe6 O53 2.167202 1_555
Fe6 O38 2.248844 1_555
Fe7 O39 2.014580 1_555
Fe7 O50 2.019396 1_555
Fe7 O42 2.027405 1_565
Fe7 O54 2.063745 1_555
Fe7 O38 2.107536 1_565
Fe7 O53 2.152012 1_565
O0 P0 1.494621 1_555
O1 P12 1.556967 1_655
O2 P13 1.590406 1_655
O3 P1 1.605234 1_555
O3 P0 1.612726 1_555
O4 P0 1.536362 1_555
O5 P1 1.528659 1_555
O6 P1 1.561383 1_554
O7 P14 1.473681 1_655
O8 P2 1.596631 1_565
O8 P3 1.617237 1_555
O9 P2 1.522220 1_555
O10 P15 1.584669 1_655
O11 P3 1.527171 1_555
O12 P2 1.556336 1_555
O13 P3 1.542122 1_555
O14 P4 1.526422 1_555
O15 P5 1.550650 1_555
O16 P4 1.554148 1_555
O17 P6 1.602746 1_555
O18 P4 1.602862 1_555
O18 P5 1.606877 1_555
O19 P5 1.498727 1_555
O20 P8 1.484858 1_555
O21 P7 1.545521 1_556
O22 P7 1.531178 1_555
O23 P7 1.606114 1_555
O23 P9 1.609555 1_565
O24 P10 1.571667 1_555
O25 P9 1.546779 1_555
O26 P11 1.534651 1_555
O27 P6 1.497329 1_555
O28 P9 1.483557 1_555
O29 P4 1.524842 1_555
O30 P6 1.534601 1_555
O31 P5 1.559482 1_555
O32 P6 1.610623 1_545
O32 P8 1.614035 1_555
O33 P8 1.563793 1_555
O34 P8 1.562987 1_555
O35 P7 1.507912 1_555
O36 P10 1.505870 1_555
O37 P11 1.605395 1_555
O37 P10 1.614351 1_555
O38 P9 1.581182 1_555
O39 P11 1.525905 1_555
O40 P10 1.531795 1_555
O41 P11 1.548227 1_555
O42 P12 1.516663 1_555
O43 P13 1.533765 1_555
O44 P12 1.543906 1_555
O45 P0 1.586540 1_455
O46 P13 1.497245 1_555
O47 P12 1.600460 1_555
O47 P13 1.606892 1_545
O48 P1 1.498810 1_455
O49 P14 1.577874 1_555
O50 P14 1.569993 1_555
O51 P15 1.534134 1_555
O52 P15 1.596433 1_555
O52 P14 1.654561 1_555
O53 P2 1.547199 1_455
O54 P3 1.536065 1_455
O55 P15 1.510221 1_555
