# generated using pymatgen
data_Co6O7F5
_symmetry_space_group_name_H-M   'P 1'
_cell_length_a   5.54235229
_cell_length_b   5.54235229
_cell_length_c   7.66782229
_cell_angle_alpha   66.99823914
_cell_angle_beta   66.99823914
_cell_angle_gamma   67.44667112
_symmetry_Int_Tables_number   1
_chemical_formula_structural   Co6O7F5
_chemical_formula_sum   'Co6 O7 F5'
_cell_volume   192.02275458
_cell_formula_units_Z   1
loop_
 _symmetry_equiv_pos_site_id
 _symmetry_equiv_pos_as_xyz
  1  'x, y, z'
loop_
 _atom_site_type_symbol
 _atom_site_label
 _atom_site_symmetry_multiplicity
 _atom_site_fract_x
 _atom_site_fract_y
 _atom_site_fract_z
 _atom_site_occupancy
  Co  Co0  1  0.33495400  0.33495400  0.16525200  1
  Co  Co1  1  0.34354400  0.34354400  0.66960900  1
  Co  Co2  1  0.66648600  0.66648600  0.34578700  1
  Co  Co3  1  0.65402800  0.65402800  0.81448700  1
  Co  Co4  1  0.00169700  0.00169700  0.50244800  1
  Co  Co5  1  0.99853200  0.99853200  0.99828800  1
  O  O0  1  0.63775500  0.02303600  0.66907900  1
  O  O1  1  0.97346200  0.36529700  0.33598300  1
  O  O2  1  0.56178800  0.56178800  0.62583700  1
  O  O3  1  0.02303600  0.63775500  0.66907900  1
  O  O4  1  0.36529700  0.97346200  0.33598300  1
  O  O5  1  0.68926500  0.30706100  0.99238300  1
  O  O6  1  0.30706100  0.68926500  0.99238300  1
  F  F0  1  0.43691500  0.43691500  0.37178200  1
  F  F1  1  0.10516900  0.10516900  0.70834900  1
  F  F2  1  0.77071100  0.77071100  0.04633300  1
  F  F3  1  0.22534100  0.22534100  0.96634900  1
  F  F4  1  0.90496000  0.90496000  0.29058900  1
loop_
_geom_bond_atom_site_label_1
_geom_bond_atom_site_label_2
_geom_bond_distance
_geom_bond_site_symmetry_2
Co0 O5 1.878862 1_554
Co0 O6 1.878862 1_554
Co0 O4 1.902622 1_545
Co0 O1 1.902622 1_455
Co0 F0 2.188684 1_555
Co0 F3 2.189882 1_554
Co1 O2 1.877925 1_555
Co1 O3 1.895510 1_555
Co1 O0 1.895510 1_555
Co1 F3 2.008705 1_555
Co1 F0 2.027080 1_555
Co1 F1 2.074767 1_555
Co2 O1 1.872533 1_555
Co2 O4 1.872533 1_555
Co2 O2 1.896126 1_555
Co2 F2 2.030392 1_555
Co2 F0 2.030513 1_555
Co2 F4 2.034357 1_555
Co3 O5 1.861962 1_555
Co3 O6 1.861962 1_555
Co3 O3 1.894469 1_655
Co3 O0 1.894469 1_565
Co3 O2 1.992869 1_555
Co3 F2 2.472779 1_556
Co4 O1 1.902292 1_455
Co4 O4 1.902292 1_545
Co4 O3 1.906859 1_545
Co4 O0 1.906859 1_455
Co4 F4 2.189926 1_445
Co4 F1 2.194966 1_555
Co5 O5 1.901552 1_565
Co5 O6 1.901552 1_655
Co5 F2 1.954551 1_556
Co5 F1 1.963521 1_665
Co5 F4 1.987683 1_556
Co5 F3 1.987789 1_665
