# generated using pymatgen
data_Li2Mn(Si2O5)2
_symmetry_space_group_name_H-M   'P 1'
_cell_length_a   10.02385100
_cell_length_b   7.11627600
_cell_length_c   14.97587079
_cell_angle_alpha   66.66399333
_cell_angle_beta   90.00000000
_cell_angle_gamma   90.00000000
_symmetry_Int_Tables_number   1
_chemical_formula_structural   Li2Mn(Si2O5)2
_chemical_formula_sum   'Li8 Mn4 Si16 O40'
_cell_volume   980.87944959
_cell_formula_units_Z   4
loop_
 _symmetry_equiv_pos_site_id
 _symmetry_equiv_pos_as_xyz
  1  'x, y, z'
loop_
 _atom_site_type_symbol
 _atom_site_label
 _atom_site_symmetry_multiplicity
 _atom_site_fract_x
 _atom_site_fract_y
 _atom_site_fract_z
 _atom_site_occupancy
  Li  Li0  1  0.83960700  0.96781000  0.41366400  1
  Li  Li1  1  0.08777600  0.54634500  0.75787600  1
  Li  Li2  1  0.58777600  0.45365500  0.74212400  1
  Li  Li3  1  0.33960700  0.03219000  0.08633600  1
  Li  Li4  1  0.66039300  0.96781000  0.91366400  1
  Li  Li5  1  0.41222400  0.54634500  0.25787600  1
  Li  Li6  1  0.91222400  0.45365500  0.24212400  1
  Li  Li7  1  0.16039300  0.03219000  0.58633600  1
  Mn  Mn0  1  0.86189900  0.79239500  0.65563400  1
  Mn  Mn1  1  0.36189900  0.20760500  0.84436600  1
  Mn  Mn2  1  0.63810100  0.79239500  0.15563400  1
  Mn  Mn3  1  0.13810100  0.20760500  0.34436600  1
  Si  Si0  1  0.72711600  0.64443000  0.86501000  1
  Si  Si1  1  0.44888500  0.67910700  0.83540400  1
  Si  Si2  1  0.02586200  0.09122900  0.16887700  1
  Si  Si3  1  0.26780200  0.78539300  0.46033600  1
  Si  Si4  1  0.76780200  0.21460700  0.03966400  1
  Si  Si5  1  0.52586200  0.90877100  0.33112300  1
  Si  Si6  1  0.77288400  0.64443000  0.36501000  1
  Si  Si7  1  0.05111500  0.67910700  0.33540400  1
  Si  Si8  1  0.94888500  0.32089300  0.66459600  1
  Si  Si9  1  0.22711600  0.35557000  0.63499000  1
  Si  Si10  1  0.47413800  0.09122900  0.66887700  1
  Si  Si11  1  0.23219800  0.78539300  0.96033600  1
  Si  Si12  1  0.73219800  0.21460700  0.53966400  1
  Si  Si13  1  0.97413800  0.90877100  0.83112300  1
  Si  Si14  1  0.55111500  0.32089300  0.16459600  1
  Si  Si15  1  0.27288400  0.35557000  0.13499000  1
  O  O0  1  0.54692400  0.15850700  0.27940800  1
  O  O1  1  0.69124600  0.27722000  0.12137800  1
  O  O2  1  0.18762400  0.96913800  0.47527100  1
  O  O3  1  0.98570400  0.18692800  0.24726800  1
  O  O4  1  0.41896500  0.27613600  0.10605000  1
  O  O5  1  0.71771100  0.64957300  0.75686600  1
  O  O6  1  0.17604700  0.17861000  0.12120200  1
  O  O7  1  0.42010400  0.85290600  0.42084800  1
  O  O8  1  0.77645800  0.41963600  0.93951200  1
  O  O9  1  0.92010400  0.14709400  0.07915200  1
  O  O10  1  0.67604700  0.82139000  0.37879800  1
  O  O11  1  0.96672000  0.55116600  0.65497900  1
  O  O12  1  0.46672000  0.44883400  0.84502100  1
  O  O13  1  0.27645800  0.58036400  0.56048800  1
  O  O14  1  0.91896500  0.72386400  0.39395000  1
  O  O15  1  0.48570400  0.81307200  0.25273200  1
  O  O16  1  0.68762400  0.03086200  0.02472900  1
  O  O17  1  0.19124600  0.72278000  0.37862200  1
  O  O18  1  0.04692400  0.84149300  0.22059200  1
  O  O19  1  0.21771100  0.35042700  0.74313400  1
  O  O20  1  0.78228900  0.64957300  0.25686600  1
  O  O21  1  0.95307600  0.15850700  0.77940800  1
  O  O22  1  0.80875400  0.27722000  0.62137800  1
  O  O23  1  0.31237600  0.96913800  0.97527100  1
  O  O24  1  0.51429600  0.18692800  0.74726800  1
  O  O25  1  0.08103500  0.27613600  0.60605000  1
  O  O26  1  0.72354200  0.41963600  0.43951200  1
  O  O27  1  0.53328000  0.55116600  0.15497900  1
  O  O28  1  0.03328000  0.44883400  0.34502100  1
  O  O29  1  0.32395300  0.17861000  0.62120200  1
  O  O30  1  0.07989600  0.85290600  0.92084800  1
  O  O31  1  0.22354200  0.58036400  0.06048800  1
  O  O32  1  0.57989600  0.14709400  0.57915200  1
  O  O33  1  0.82395300  0.82139000  0.87879800  1
  O  O34  1  0.28228900  0.35042700  0.24313400  1
  O  O35  1  0.58103500  0.72386400  0.89395000  1
  O  O36  1  0.01429600  0.81307200  0.75273200  1
  O  O37  1  0.81237600  0.03086200  0.52472900  1
  O  O38  1  0.30875400  0.72278000  0.87862200  1
  O  O39  1  0.45307600  0.84149300  0.72059200  1
loop_
_geom_bond_atom_site_label_1
_geom_bond_atom_site_label_2
_geom_bond_distance
_geom_bond_site_symmetry_2
Li0 O37 1.906213 1_565
Li0 O14 2.034609 1_555
Li0 O10 2.115969 1_555
Li1 O11 1.950985 1_455
Li1 O19 1.983125 1_555
Li1 O36 2.008829 1_555
Li2 O12 1.950985 1_555
Li2 O5 1.983125 1_555
Li2 O24 2.008829 1_555
Li3 O23 1.906213 1_544
Li3 O4 2.034609 1_555
Li3 O6 2.115969 1_555
Li4 O16 1.906213 1_566
Li4 O35 2.034609 1_555
Li4 O33 2.115969 1_555
Li5 O27 1.950985 1_555
Li5 O34 1.983125 1_555
Li5 O15 2.008829 1_555
Li6 O28 1.950985 1_655
Li6 O20 1.983125 1_555
Li6 O3 2.008829 1_555
Li7 O2 1.906213 1_545
Li7 O25 2.034609 1_555
Li7 O29 2.115969 1_555
Mn0 O11 2.016017 1_555
Mn0 O5 2.049288 1_555
Mn0 O37 2.081777 1_565
Mn0 O36 2.153886 1_655
Mn1 O12 2.016017 1_555
Mn1 O19 2.049288 1_555
Mn1 O23 2.081777 1_545
Mn1 O24 2.153886 1_555
Mn2 O27 2.016017 1_555
Mn2 O20 2.049288 1_555
Mn2 O16 2.081777 1_565
Mn2 O15 2.153886 1_555
Mn3 O28 2.016017 1_555
Mn3 O34 2.049288 1_555
Mn3 O2 2.081777 1_545
Mn3 O3 2.153886 1_455
O0 Si5 1.646922 1_545
O0 Si14 1.649054 1_555
O1 Si14 1.627238 1_555
O1 Si4 1.648312 1_555
O2 Si3 1.624011 1_555
O3 Si2 1.624020 1_655
O4 Si15 1.686897 1_555
O4 Si14 1.687046 1_555
O5 Si0 1.608170 1_555
O6 Si15 1.666340 1_555
O6 Si2 1.676610 1_555
O7 Si5 1.632240 1_555
O7 Si3 1.638938 1_555
O8 Si0 1.623110 1_555
O8 Si4 1.628559 1_556
O9 Si2 1.632240 1_655
O9 Si4 1.638938 1_555
O10 Si6 1.666340 1_555
O10 Si5 1.676610 1_555
O11 Si8 1.597191 1_555
O12 Si1 1.597191 1_555
O13 Si9 1.623110 1_555
O13 Si3 1.628559 1_555
O14 Si6 1.686897 1_555
O14 Si7 1.687046 1_655
O15 Si5 1.624020 1_555
O16 Si4 1.624011 1_555
O17 Si7 1.627238 1_555
O17 Si3 1.648312 1_555
O18 Si2 1.646922 1_565
O18 Si7 1.649054 1_555
O19 Si9 1.608170 1_555
O20 Si6 1.608170 1_555
O21 Si13 1.646922 1_545
O21 Si8 1.649054 1_555
O22 Si8 1.627238 1_555
O22 Si12 1.648312 1_555
O23 Si11 1.624011 1_555
O24 Si10 1.624020 1_555
O25 Si9 1.686897 1_555
O25 Si8 1.687046 1_455
O26 Si6 1.623110 1_555
O26 Si12 1.628559 1_555
O27 Si14 1.597191 1_555
O28 Si7 1.597191 1_555
O29 Si9 1.666340 1_555
O29 Si10 1.676610 1_555
O30 Si13 1.632240 1_455
O30 Si11 1.638938 1_555
O31 Si15 1.623110 1_555
O31 Si11 1.628559 1_554
O32 Si10 1.632240 1_555
O32 Si12 1.638938 1_555
O33 Si0 1.666340 1_555
O33 Si13 1.676610 1_555
O34 Si15 1.608170 1_555
O35 Si0 1.686897 1_555
O35 Si1 1.687046 1_555
O36 Si13 1.624020 1_455
O37 Si12 1.624011 1_555
O38 Si1 1.627238 1_555
O38 Si11 1.648312 1_555
O39 Si10 1.646922 1_565
O39 Si1 1.649054 1_555
