# generated using pymatgen
data_LuMgPd2
_symmetry_space_group_name_H-M   'P 1'
_cell_length_a   4.67243128
_cell_length_b   4.67243196
_cell_length_c   4.67243209
_cell_angle_alpha   60.00041982
_cell_angle_beta   60.00041766
_cell_angle_gamma   60.00043008
_symmetry_Int_Tables_number   1
_chemical_formula_structural   LuMgPd2
_chemical_formula_sum   'Lu1 Mg1 Pd2'
_cell_volume   72.13035487
_cell_formula_units_Z   1
loop_
 _symmetry_equiv_pos_site_id
 _symmetry_equiv_pos_as_xyz
  1  'x, y, z'
loop_
 _atom_site_type_symbol
 _atom_site_label
 _atom_site_symmetry_multiplicity
 _atom_site_fract_x
 _atom_site_fract_y
 _atom_site_fract_z
 _atom_site_occupancy
  Lu  Lu0  1  0.24999936  0.25000016  0.24999953  1
  Mg  Mg0  1  0.75000061  0.75000056  0.75000055  1
  Pd  Pd0  1  0.00000089  0.00000065  0.00000076  1
  Pd  Pd1  1  0.50000014  0.50000063  0.50000016  1
loop_
_geom_bond_atom_site_label_1
_geom_bond_atom_site_label_2
_geom_bond_distance
_geom_bond_site_symmetry_2
Lu0 Pd0 2.861247 1_555
Lu0 Pd1 2.861266 1_555
Lu0 Pd1 2.861280 1_455
Lu0 Pd1 2.861281 1_554
Lu0 Pd1 2.861282 1_545
Lu0 Pd0 2.861286 1_565
Lu0 Pd0 2.861288 1_556
Lu0 Pd0 2.861289 1_655
Mg0 Pd0 2.861262 1_666
Mg0 Pd1 2.861262 1_555
Mg0 Pd1 2.861282 1_655
Mg0 Pd1 2.861282 1_556
Mg0 Pd0 2.861282 1_566
Mg0 Pd0 2.861283 1_665
Mg0 Pd0 2.861284 1_656
Mg0 Pd1 2.861284 1_565
