# generated using pymatgen
data_Na3VP2O9
_symmetry_space_group_name_H-M   'P 1'
_cell_length_a   6.47005300
_cell_length_b   6.31857200
_cell_length_c   9.76674824
_cell_angle_alpha   71.37119234
_cell_angle_beta   90.00000000
_cell_angle_gamma   90.00000000
_symmetry_Int_Tables_number   1
_chemical_formula_structural   Na3VP2O9
_chemical_formula_sum   'Na6 V2 P4 O18'
_cell_volume   378.36020524
_cell_formula_units_Z   2
loop_
 _symmetry_equiv_pos_site_id
 _symmetry_equiv_pos_as_xyz
  1  'x, y, z'
loop_
 _atom_site_type_symbol
 _atom_site_label
 _atom_site_symmetry_multiplicity
 _atom_site_fract_x
 _atom_site_fract_y
 _atom_site_fract_z
 _atom_site_occupancy
  Na  Na0  1  0.49235200  0.22343500  0.17504900  1
  Na  Na1  1  0.99235200  0.77656500  0.82495100  1
  Na  Na2  1  0.50764800  0.77656500  0.82495100  1
  Na  Na3  1  0.00764800  0.22343500  0.17504900  1
  Na  Na4  1  0.75000000  0.73153100  0.18024600  1
  Na  Na5  1  0.25000000  0.26846900  0.81975400  1
  V  V0  1  0.75000000  0.21208300  0.57815100  1
  V  V1  1  0.25000000  0.78791700  0.42184900  1
  P  P0  1  0.75000000  0.75652500  0.49975900  1
  P  P1  1  0.25000000  0.24347500  0.50024100  1
  P  P2  1  0.75000000  0.26029000  0.90300200  1
  P  P3  1  0.25000000  0.73971000  0.09699800  1
  O  O0  1  0.75000000  0.87906500  0.61455100  1
  O  O1  1  0.25000000  0.12093500  0.38544900  1
  O  O2  1  0.44156100  0.18531200  0.60071700  1
  O  O3  1  0.94156100  0.81468800  0.39928300  1
  O  O4  1  0.55843900  0.81468800  0.39928300  1
  O  O5  1  0.05843900  0.18531200  0.60071700  1
  O  O6  1  0.25000000  0.72220800  0.60011600  1
  O  O7  1  0.75000000  0.27779200  0.39988400  1
  O  O8  1  0.25000000  0.49621500  0.41337000  1
  O  O9  1  0.75000000  0.50378500  0.58663000  1
  O  O10  1  0.25000000  0.89046100  0.20505400  1
  O  O11  1  0.75000000  0.10953900  0.79494600  1
  O  O12  1  0.25000000  0.90307700  0.94027500  1
  O  O13  1  0.75000000  0.09692300  0.05972500  1
  O  O14  1  0.44867300  0.59914400  0.12466200  1
  O  O15  1  0.94867300  0.40085600  0.87533800  1
  O  O16  1  0.55132700  0.40085600  0.87533800  1
  O  O17  1  0.05132700  0.59914400  0.12466200  1
loop_
_geom_bond_atom_site_label_1
_geom_bond_atom_site_label_2
_geom_bond_distance
_geom_bond_site_symmetry_2
Na0 O14 2.282825 1_555
Na0 O13 2.293848 1_555
Na0 O1 2.500125 1_555
Na0 O10 2.564601 1_545
Na0 O16 2.806132 1_554
Na0 O4 2.834754 1_545
Na0 O7 2.863684 1_555
Na1 O15 2.282825 1_555
Na1 O12 2.293848 1_655
Na1 O0 2.500125 1_555
Na1 O11 2.564601 1_565
Na1 O17 2.806132 1_656
Na1 O5 2.834754 1_665
Na1 O6 2.863684 1_655
Na2 O16 2.282825 1_555
Na2 O12 2.293848 1_555
Na2 O0 2.500125 1_555
Na2 O11 2.564601 1_565
Na2 O14 2.806132 1_556
Na2 O2 2.834754 1_565
Na2 O6 2.863684 1_555
Na3 O17 2.282825 1_555
Na3 O13 2.293848 1_455
Na3 O1 2.500125 1_555
Na3 O10 2.564601 1_545
Na3 O15 2.806132 1_454
Na3 O3 2.834754 1_445
Na3 O7 2.863684 1_455
Na4 O13 2.231523 1_565
Na4 O17 2.255107 1_655
Na4 O14 2.255107 1_555
Na4 O3 2.665869 1_555
Na4 O4 2.665869 1_555
Na4 O7 2.981967 1_555
Na5 O12 2.231523 1_545
Na5 O16 2.255107 1_555
Na5 O15 2.255107 1_455
Na5 O2 2.665869 1_555
Na5 O5 2.665869 1_555
Na5 O6 2.981967 1_555
O0 P0 1.552759 1_555
O0 V0 2.018941 1_565
O1 P1 1.552759 1_555
O1 V1 2.018941 1_545
O2 P1 1.550416 1_555
O2 V0 2.008944 1_555
O3 P0 1.550416 1_555
O3 V1 2.008944 1_655
O4 P0 1.550416 1_555
O4 V1 2.008944 1_555
O5 P1 1.550416 1_555
O5 V0 2.008944 1_455
O6 V1 1.655882 1_555
O7 V0 1.655882 1_555
O8 P1 1.550646 1_555
O8 V1 1.871239 1_555
O9 P0 1.550646 1_555
O9 V0 1.871239 1_555
O10 P3 1.631969 1_555
O10 V1 2.006650 1_555
O11 P2 1.631969 1_555
O11 V0 2.006650 1_555
O12 P3 1.548889 1_556
O13 P2 1.548889 1_554
O14 P3 1.536510 1_555
O15 P2 1.536510 1_555
O16 P2 1.536510 1_555
O17 P3 1.536510 1_555
