# generated using pymatgen
data_K3P2AuSe8
_symmetry_space_group_name_H-M   'P 1'
_cell_length_a   7.24292185
_cell_length_b   7.24292185
_cell_length_c   18.82310373
_cell_angle_alpha   87.16634708
_cell_angle_beta   87.16634708
_cell_angle_gamma   120.72945155
_symmetry_Int_Tables_number   1
_chemical_formula_structural   K3P2AuSe8
_chemical_formula_sum   'K6 P4 Au2 Se16'
_cell_volume   844.55638449
_cell_formula_units_Z   2
loop_
 _symmetry_equiv_pos_site_id
 _symmetry_equiv_pos_as_xyz
  1  'x, y, z'
loop_
 _atom_site_type_symbol
 _atom_site_label
 _atom_site_symmetry_multiplicity
 _atom_site_fract_x
 _atom_site_fract_y
 _atom_site_fract_z
 _atom_site_occupancy
  K  K0  1  0.49557463  0.36065374  0.10601175  1
  K  K1  1  0.36065374  0.49557463  0.60601175  1
  K  K2  1  0.89286001  0.68449830  0.75413493  1
  K  K3  1  0.68449830  0.89286001  0.25413493  1
  K  K4  1  0.58026612  0.02950866  0.89751903  1
  K  K5  1  0.02950866  0.58026612  0.39751903  1
  P  P0  1  0.30492683  0.42897229  0.87776910  1
  P  P1  1  0.42897229  0.30492683  0.37776910  1
  P  P2  1  0.21670613  0.68297893  0.12364218  1
  P  P3  1  0.68297893  0.21670613  0.62364218  1
  Au  Au0  1  0.05044775  0.95182471  0.99928502  1
  Au  Au1  1  0.95182471  0.05044775  0.49928502  1
  Se  Se0  1  0.49820633  0.17772354  0.72248702  1
  Se  Se1  1  0.17772354  0.49820633  0.22248702  1
  Se  Se2  1  0.08293913  0.07148457  0.87438147  1
  Se  Se3  1  0.07148457  0.08293913  0.37438147  1
  Se  Se4  1  0.34028230  0.62094904  0.78104861  1
  Se  Se5  1  0.62094904  0.34028230  0.28104861  1
  Se  Se6  1  0.60145885  0.50915658  0.92317098  1
  Se  Se7  1  0.50915658  0.60145885  0.42317098  1
  Se  Se8  1  0.10466362  0.54202107  0.93963144  1
  Se  Se9  1  0.54202107  0.10466362  0.43963144  1
  Se  Se10  1  0.05219940  0.38976208  0.05779404  1
  Se  Se11  1  0.38976208  0.05219940  0.55779404  1
  Se  Se12  1  0.54357185  0.91442769  0.08274179  1
  Se  Se13  1  0.91442769  0.54357185  0.58274179  1
  Se  Se14  1  0.00349411  0.82522574  0.12408263  1
  Se  Se15  1  0.82522574  0.00349411  0.62408263  1
loop_
_geom_bond_atom_site_label_1
_geom_bond_atom_site_label_2
_geom_bond_distance
_geom_bond_site_symmetry_2
K0 Se12 3.468655 1_545
K0 Se5 3.476542 1_555
K0 Se6 3.481364 1_554
K0 Se10 3.484541 1_555
K0 Se14 3.543716 1_655
K0 Se1 3.627702 1_555
K0 Se14 3.671802 1_545
K1 Se13 3.468655 1_455
K1 Se4 3.476542 1_555
K1 Se7 3.481364 1_555
K1 Se11 3.484541 1_555
K1 Se15 3.543716 1_565
K1 Se0 3.627702 1_555
K1 Se15 3.671802 1_455
K2 Se0 3.414735 1_555
K2 Se2 3.444774 1_665
K2 Se13 3.451526 1_555
K2 Se15 3.505266 1_565
K2 Se6 3.519716 1_555
K2 Se4 3.554424 1_655
K2 Se4 3.792170 1_555
K3 Se1 3.414735 1_555
K3 Se3 3.444774 1_665
K3 Se12 3.451526 1_555
K3 Se14 3.505266 1_655
K3 Se7 3.519716 1_555
K3 Se5 3.554424 1_565
K3 Se5 3.792170 1_555
K4 Se6 3.457449 1_555
K4 Se8 3.461890 1_545
K4 Se2 3.498084 1_655
K4 Se12 3.509346 1_546
K4 Se4 3.513674 1_545
K4 Se0 3.585574 1_555
K4 Se2 3.810310 1_555
K4 Se6 3.857422 1_545
K4 Se8 3.874760 1_655
K5 Se7 3.457449 1_555
K5 Se9 3.461890 1_455
K5 Se3 3.498084 1_565
K5 Se13 3.509346 1_455
K5 Se5 3.513674 1_455
K5 Se1 3.585574 1_555
K5 Se3 3.810310 1_555
K5 Se7 3.857422 1_455
K5 Se9 3.874760 1_565
P0 Se6 2.153208 1_555
P0 Se4 2.157133 1_555
P0 Se2 2.250633 1_555
P0 Se8 2.295935 1_555
P1 Se7 2.153208 1_555
P1 Se5 2.157133 1_555
P1 Se3 2.250633 1_555
P1 Se9 2.295935 1_555
P2 Se12 2.155005 1_555
P2 Se1 2.155959 1_555
P2 Se14 2.252093 1_555
P2 Se10 2.299238 1_555
P3 Se13 2.155005 1_555
P3 Se0 2.155959 1_555
P3 Se15 2.252093 1_555
P3 Se11 2.299238 1_555
Au0 Se14 2.421564 1_556
Au0 Se2 2.422696 1_565
Au0 K0 3.830198 1_566
Au0 K4 3.958769 1_565
Au1 Se15 2.421564 1_555
Au1 Se3 2.422696 1_655
Au1 K1 3.830198 1_655
Au1 K5 3.958769 1_655
Se10 Se8 2.356528 1_554
Se11 Se9 2.356528 1_555
