# generated using pymatgen
data_Li4CrF6
_symmetry_space_group_name_H-M   'P 1'
_cell_length_a   8.78846365
_cell_length_b   8.78846365
_cell_length_c   10.46290544
_cell_angle_alpha   86.74383231
_cell_angle_beta   86.74383231
_cell_angle_gamma   62.50369212
_symmetry_Int_Tables_number   1
_chemical_formula_structural   Li4CrF6
_chemical_formula_sum   'Li24 Cr6 F36'
_cell_volume   715.25517624
_cell_formula_units_Z   6
loop_
 _symmetry_equiv_pos_site_id
 _symmetry_equiv_pos_as_xyz
  1  'x, y, z'
loop_
 _atom_site_type_symbol
 _atom_site_label
 _atom_site_symmetry_multiplicity
 _atom_site_fract_x
 _atom_site_fract_y
 _atom_site_fract_z
 _atom_site_occupancy
  Li  Li0  1  0.97061300  0.70321800  0.96601300  1
  Li  Li1  1  0.94682800  0.65583300  0.20838800  1
  Li  Li2  1  0.99822400  0.33860900  0.97188000  1
  Li  Li3  1  0.68982600  0.98824400  0.47242700  1
  Li  Li4  1  0.66202000  0.93888600  0.71543100  1
  Li  Li5  1  0.84616400  0.46738600  0.73349800  1
  Li  Li6  1  0.80185500  0.19814500  0.00000000  1
  Li  Li7  1  0.46733300  0.86257900  0.23230500  1
  Li  Li8  1  0.67453000  0.36951300  0.22978700  1
  Li  Li9  1  0.82109800  0.17890200  0.50000000  1
  Li  Li10  1  0.63048700  0.32547000  0.77021300  1
  Li  Li11  1  0.66139100  0.00177600  0.02812000  1
  Li  Li12  1  0.29457800  0.96926500  0.47878600  1
  Li  Li13  1  0.48912300  0.51087700  0.50000000  1
  Li  Li14  1  0.35750000  0.68456000  0.72798700  1
  Li  Li15  1  0.20365000  0.79635000  0.00000000  1
  Li  Li16  1  0.31544000  0.64250000  0.27201300  1
  Li  Li17  1  0.53261400  0.15383600  0.26650200  1
  Li  Li18  1  0.13742100  0.53266700  0.76769500  1
  Li  Li19  1  0.34416700  0.05317200  0.79161200  1
  Li  Li20  1  0.29678200  0.02938700  0.03398700  1
  Li  Li21  1  0.03073500  0.70542200  0.52121400  1
  Li  Li22  1  0.06111400  0.33798000  0.28456900  1
  Li  Li23  1  0.01175600  0.31017400  0.52757300  1
  Cr  Cr0  1  0.64877800  0.66096200  0.96480900  1
  Cr  Cr1  1  0.68375400  0.66479200  0.46092000  1
  Cr  Cr2  1  0.33903800  0.35122200  0.03519100  1
  Cr  Cr3  1  0.33520800  0.31624600  0.53908000  1
  Cr  Cr4  1  0.00037200  0.00203200  0.24901600  1
  Cr  Cr5  1  0.99796800  0.99962800  0.75098400  1
  F  F0  1  0.90608200  0.93663200  0.92092600  1
  F  F1  1  0.92090900  0.92556000  0.41667600  1
  F  F2  1  0.93023200  0.55686500  0.86731600  1
  F  F3  1  0.91917400  0.56316400  0.36798400  1
  F  F4  1  0.76924300  0.75230300  0.08694000  1
  F  F5  1  0.77030900  0.77725900  0.58437200  1
  F  F6  1  0.88522800  0.26448200  0.84011400  1
  F  F7  1  0.56866800  0.90288300  0.87462700  1
  F  F8  1  0.75573800  0.42925800  0.06330700  1
  F  F9  1  0.90840400  0.24319400  0.32668100  1
  F  F10  1  0.56630400  0.93566400  0.36104700  1
  F  F11  1  0.76852400  0.39822500  0.57612900  1
  F  F12  1  0.58799600  0.57050000  0.80975400  1
  F  F13  1  0.73551800  0.11477200  0.15988600  1
  F  F14  1  0.39618300  0.78771900  0.08106300  1
  F  F15  1  0.57657500  0.57658200  0.33279200  1
  F  F16  1  0.75680600  0.09159600  0.67331900  1
  F  F17  1  0.45321900  0.73806800  0.56013800  1
  F  F18  1  0.57074200  0.24426200  0.93669300  1
  F  F19  1  0.24078500  0.90817600  0.82991400  1
  F  F20  1  0.42950000  0.41200400  0.19024600  1
  F  F21  1  0.60177500  0.23147600  0.42387100  1
  F  F22  1  0.26781200  0.88229300  0.32496000  1
  F  F23  1  0.42341800  0.42342500  0.66720800  1
  F  F24  1  0.21228100  0.60381700  0.91893700  1
  F  F25  1  0.44313500  0.06976800  0.13268400  1
  F  F26  1  0.09182400  0.75921500  0.17008600  1
  F  F27  1  0.26193200  0.54678100  0.43986200  1
  F  F28  1  0.43683600  0.08082600  0.63201600  1
  F  F29  1  0.11770700  0.73218800  0.67504000  1
  F  F30  1  0.24769700  0.23075700  0.91306000  1
  F  F31  1  0.22274100  0.22969100  0.41562800  1
  F  F32  1  0.09711700  0.43133200  0.12537300  1
  F  F33  1  0.06433600  0.43369600  0.63895300  1
  F  F34  1  0.06336800  0.09391800  0.07907400  1
  F  F35  1  0.07444000  0.07909100  0.58332400  1
loop_
_geom_bond_atom_site_label_1
_geom_bond_atom_site_label_2
_geom_bond_distance
_geom_bond_site_symmetry_2
Cr0 F12 2.046085 1_555
Cr0 F8 2.048526 1_556
Cr0 F7 2.090869 1_555
Cr0 F4 2.110240 1_556
Cr0 F14 2.283032 1_556
Cr0 F2 2.392853 1_555
Cr1 F5 2.043262 1_555
Cr1 F3 2.046388 1_555
Cr1 F15 2.054556 1_555
Cr1 F17 2.056573 1_555
Cr1 F10 2.322799 1_555
Cr1 F11 2.380334 1_555
Cr2 F20 2.046085 1_555
Cr2 F18 2.048526 1_554
Cr2 F32 2.090869 1_555
Cr2 F30 2.110240 1_554
Cr2 F24 2.283032 1_554
Cr2 F25 2.392853 1_555
Cr3 F31 2.043262 1_555
Cr3 F28 2.046388 1_555
Cr3 F23 2.054556 1_555
Cr3 F27 2.056573 1_555
Cr3 F33 2.322799 1_555
Cr3 F21 2.380334 1_555
Cr4 F1 2.043753 1_445
Cr4 F34 2.063518 1_555
Cr4 F9 2.084436 1_455
Cr4 F26 2.103083 1_545
Cr4 F22 2.257519 1_545
Cr4 F13 2.298135 1_455
Cr5 F35 2.043753 1_665
Cr5 F0 2.063518 1_555
Cr5 F16 2.084436 1_565
Cr5 F19 2.103083 1_655
Cr5 F29 2.257519 1_655
Cr5 F6 2.298135 1_565
F0 Li0 1.896953 1_555
F0 Li11 2.207318 1_566
F0 Li6 2.234212 1_566
F0 Li15 2.489245 1_656
F1 Li3 1.907095 1_555
F1 Li21 2.006533 1_655
F1 Li9 2.194762 1_565
F2 Li0 1.860293 1_555
F2 Li18 1.974653 1_655
F2 Li5 1.975777 1_555
F2 Li2 2.002685 1_555
F3 Li1 1.868924 1_555
F3 Li22 2.006817 1_655
F4 Li1 1.910589 1_555
F4 Li0 2.005391 1_554
F4 Li11 2.019460 1_565
F5 Li4 1.904866 1_555
F5 Li3 1.986631 1_555
F5 Li21 2.148240 1_655
F6 Li5 1.947902 1_555
F6 Li6 1.954400 1_556
F6 Li2 2.041127 1_555
F6 Li10 2.206304 1_555
F7 Li4 1.890025 1_555
F7 Li19 2.012412 1_565
F7 Li11 2.227061 1_566
F8 Li8 1.979911 1_555
F8 Li6 2.022545 1_555
F8 Li2 2.092499 1_554
F9 Li22 1.900717 1_655
F9 Li9 2.079022 1_555
F9 Li8 2.118193 1_555
F10 Li3 1.848823 1_555
F10 Li7 1.931534 1_555
F10 Li17 2.009033 1_565
F10 Li12 2.522604 1_555
F11 Li23 1.954549 1_655
F11 Li9 1.968119 1_555
F11 Li5 2.042154 1_555
F11 Li13 2.352013 1_555
F11 Li10 2.508605 1_555
F12 Li14 2.016102 1_555
F12 Li10 2.070993 1_555
F12 Li5 2.140940 1_555
F13 Li17 1.947902 1_555
F13 Li6 1.954400 1_555
F13 Li11 2.041127 1_555
F13 Li8 2.206304 1_555
F14 Li15 1.904055 1_555
F14 Li20 1.932218 1_565
F14 Li7 1.984557 1_555
F15 Li8 1.971078 1_555
F15 Li13 2.031532 1_555
F15 Li16 2.214319 1_555
F15 Li7 2.435352 1_555
F16 Li4 1.900717 1_545
F16 Li9 2.079022 1_555
F16 Li10 2.118193 1_555
F17 Li13 2.005129 1_555
F17 Li14 2.028947 1_555
F17 Li12 2.029617 1_555
F18 Li10 1.979911 1_555
F18 Li6 2.022545 1_556
F18 Li11 2.092499 1_556
F19 Li19 1.891988 1_565
F19 Li15 2.066597 1_556
F19 Li14 2.074627 1_555
F20 Li16 2.016102 1_555
F20 Li8 2.070993 1_555
F20 Li17 2.140940 1_555
F21 Li3 1.954549 1_545
F21 Li9 1.968119 1_555
F21 Li17 2.042154 1_555
F21 Li13 2.352013 1_555
F21 Li8 2.508605 1_555
F22 Li12 1.891754 1_555
F22 Li7 1.894725 1_555
F22 Li16 2.053056 1_555
F23 Li10 1.971078 1_555
F23 Li13 2.031532 1_555
F23 Li14 2.214319 1_555
F23 Li18 2.435352 1_555
F24 Li15 1.904055 1_556
F24 Li0 1.932218 1_455
F24 Li18 1.984557 1_555
F25 Li20 1.860293 1_555
F25 Li7 1.974653 1_545
F25 Li17 1.975777 1_555
F25 Li11 2.002685 1_555
F26 Li1 1.891988 1_455
F26 Li15 2.066597 1_555
F26 Li16 2.074627 1_555
F27 Li13 2.005129 1_555
F27 Li16 2.028947 1_555
F27 Li21 2.029617 1_555
F28 Li19 1.868924 1_555
F28 Li4 2.006817 1_545
F29 Li21 1.891754 1_555
F29 Li18 1.894725 1_555
F29 Li14 2.053056 1_555
F30 Li19 1.910589 1_555
F30 Li20 2.005391 1_556
F30 Li2 2.019460 1_455
F31 Li22 1.904866 1_555
F31 Li23 1.986631 1_555
F31 Li12 2.148240 1_545
F32 Li22 1.890025 1_555
F32 Li1 2.012412 1_455
F32 Li2 2.227061 1_454
F33 Li23 1.848823 1_555
F33 Li18 1.931534 1_555
F33 Li5 2.009033 1_455
F33 Li21 2.522604 1_555
F34 Li20 1.896953 1_555
F34 Li2 2.207318 1_454
F34 Li6 2.234212 1_455
F34 Li15 2.489245 1_545
F35 Li23 1.907095 1_555
F35 Li12 2.006533 1_545
F35 Li9 2.194762 1_455
