# generated using pymatgen
data_Ga2IrRh
_symmetry_space_group_name_H-M   'P 1'
_cell_length_a   4.26684193
_cell_length_b   4.26684194
_cell_length_c   4.26684192
_cell_angle_alpha   60.00041669
_cell_angle_beta   60.00041691
_cell_angle_gamma   60.00041674
_symmetry_Int_Tables_number   1
_chemical_formula_structural   Ga2IrRh
_chemical_formula_sum   'Ga2 Ir1 Rh1'
_cell_volume   54.92989490
_cell_formula_units_Z   1
loop_
 _symmetry_equiv_pos_site_id
 _symmetry_equiv_pos_as_xyz
  1  'x, y, z'
loop_
 _atom_site_type_symbol
 _atom_site_label
 _atom_site_symmetry_multiplicity
 _atom_site_fract_x
 _atom_site_fract_y
 _atom_site_fract_z
 _atom_site_occupancy
  Ga  Ga0  1  0.00000011  0.00000011  0.00000011  1
  Ga  Ga1  1  0.50000068  0.50000068  0.50000068  1
  Ir  Ir0  1  0.24999920  0.24999920  0.24999920  1
  Rh  Rh0  1  0.75000001  0.75000001  0.75000001  1
loop_
_geom_bond_atom_site_label_1
_geom_bond_atom_site_label_2
_geom_bond_distance
_geom_bond_site_symmetry_2
Ga0 Ir0 2.612879 1_555
Ga0 Rh0 2.612889 1_444
Ga0 Rh0 2.612910 1_445
Ga0 Rh0 2.612910 1_544
Ga0 Rh0 2.612910 1_454
Ga0 Ir0 2.612913 1_554
Ga0 Ir0 2.612913 1_455
Ga0 Ir0 2.612913 1_545
Ga1 Rh0 2.612881 1_555
Ga1 Ir0 2.612904 1_555
Ga1 Ir0 2.612905 1_556
Ga1 Ir0 2.612905 1_655
Ga1 Ir0 2.612905 1_565
Ga1 Rh0 2.612912 1_554
Ga1 Rh0 2.612912 1_455
Ga1 Rh0 2.612912 1_545
