# generated using pymatgen
data_K5La4Si4O16F
_symmetry_space_group_name_H-M   'P 1'
_cell_length_a   9.33352328
_cell_length_b   9.33352328
_cell_length_c   9.33352328
_cell_angle_alpha   95.10857521
_cell_angle_beta   95.10857521
_cell_angle_gamma   145.27677978
_symmetry_Int_Tables_number   1
_chemical_formula_structural   K5La4Si4O16F
_chemical_formula_sum   'K5 La4 Si4 O16 F1'
_cell_volume   442.04383153
_cell_formula_units_Z   1
loop_
 _symmetry_equiv_pos_site_id
 _symmetry_equiv_pos_as_xyz
  1  'x, y, z'
loop_
 _atom_site_type_symbol
 _atom_site_label
 _atom_site_symmetry_multiplicity
 _atom_site_fract_x
 _atom_site_fract_y
 _atom_site_fract_z
 _atom_site_occupancy
  K  K0  1  0.60020100  0.09053400  0.69392600  1
  K  K1  1  0.39660800  0.90627600  0.30607400  1
  K  K2  1  0.90946600  0.60339200  0.50966800  1
  K  K3  1  0.09372400  0.39979900  0.49033200  1
  K  K4  1  0.50000000  0.50000000  0.00000000  1
  La  La0  1  0.11096100  0.80601900  0.93470400  1
  La  La1  1  0.87131500  0.17625700  0.06529600  1
  La  La2  1  0.19398100  0.12868500  0.30494200  1
  La  La3  1  0.82374300  0.88903900  0.69505800  1
  Si  Si0  1  0.74931600  0.40147400  0.14434900  1
  Si  Si1  1  0.25712500  0.60496700  0.85565100  1
  Si  Si2  1  0.59852600  0.74287500  0.34784200  1
  Si  Si3  1  0.39503300  0.25068400  0.65215800  1
  O  O0  1  0.95030000  0.70799100  0.16894700  1
  O  O1  1  0.53904400  0.78135300  0.83105300  1
  O  O2  1  0.29200900  0.46095600  0.24230900  1
  O  O3  1  0.21864700  0.04970000  0.75769100  1
  O  O4  1  0.72200600  0.30064900  0.97502100  1
  O  O5  1  0.32562900  0.74698500  0.02497900  1
  O  O6  1  0.69935100  0.67437100  0.42135700  1
  O  O7  1  0.25301500  0.27799400  0.57864300  1
  O  O8  1  0.11987200  0.61102700  0.73821300  1
  O  O9  1  0.87281400  0.38165900  0.26178700  1
  O  O10  1  0.38897300  0.12718600  0.50884500  1
  O  O11  1  0.61834100  0.88012800  0.49115500  1
  O  O12  1  0.05469400  0.30009000  0.84246100  1
  O  O13  1  0.45762900  0.21223300  0.15753900  1
  O  O14  1  0.69991000  0.54237100  0.75460400  1
  O  O15  1  0.78776700  0.94530600  0.24539600  1
  F  F0  1  0.00000000  0.00000000  0.00000000  1
loop_
_geom_bond_atom_site_label_1
_geom_bond_atom_site_label_2
_geom_bond_distance
_geom_bond_site_symmetry_2
K0 O4 2.628559 1_555
K0 O11 2.721919 1_545
K0 O10 2.755965 1_555
K0 O8 2.801580 1_655
K0 O8 2.824319 1_545
K0 O1 2.893367 1_545
K0 O12 2.928018 1_655
K1 O5 2.628564 1_555
K1 O10 2.721912 1_565
K1 O11 2.755972 1_555
K1 O9 2.801577 1_565
K1 O9 2.824322 1_455
K1 O0 2.893361 1_455
K1 O13 2.928010 1_565
K2 O6 2.628553 1_555
K2 O8 2.721912 1_655
K2 O9 2.755972 1_555
K2 O10 2.801577 1_555
K2 O10 2.824322 1_665
K2 O3 2.893361 1_665
K2 O14 2.928010 1_555
K3 O7 2.628570 1_555
K3 O9 2.721907 1_455
K3 O8 2.755967 1_555
K3 O11 2.801581 1_445
K3 O11 2.824321 1_555
K3 O2 2.893363 1_555
K3 O15 2.928015 1_445
K4 O15 2.931421 1_555
K4 O13 2.931421 1_555
K4 O12 2.931421 1_554
K4 O14 2.931421 1_554
K4 O3 2.963437 1_554
K4 O0 2.963437 1_555
K4 O1 2.963437 1_554
K4 O2 2.963437 1_555
La0 O3 2.473841 1_565
La0 O14 2.489152 1_455
La0 O8 2.522726 1_555
La0 O13 2.530068 1_566
La0 O0 2.559386 1_456
La0 O5 2.573863 1_556
La0 O4 2.825003 1_455
La0 O4 3.163631 1_565
La1 O2 2.473841 1_655
La1 O15 2.489152 1_545
La1 O9 2.522726 1_555
La1 O12 2.530068 1_654
La1 O1 2.559386 1_544
La1 O4 2.573855 1_554
La1 O5 2.824997 1_545
La1 O5 3.163631 1_655
La2 O0 2.473841 1_445
La2 O13 2.489152 1_555
La2 O10 2.522726 1_555
La2 O15 2.530068 1_445
La2 O2 2.559386 1_555
La2 O7 2.573855 1_555
La2 O6 2.824999 1_555
La2 O6 3.163633 1_445
La3 O1 2.473841 1_555
La3 O12 2.489152 1_665
La3 O11 2.522726 1_555
La3 O14 2.530068 1_555
La3 O3 2.559386 1_665
La3 O6 2.573858 1_555
La3 O7 2.825003 1_665
La3 O7 3.163631 1_555
O0 Si0 1.655516 1_555
O1 Si1 1.655516 1_555
O2 Si2 1.655516 1_555
O3 Si3 1.655516 1_555
O4 Si0 1.648450 1_556
O5 Si1 1.648447 1_554
O6 Si2 1.648459 1_555
O7 Si3 1.648450 1_555
O8 Si1 1.651012 1_555
O9 Si0 1.651012 1_555
O10 Si3 1.651012 1_555
O11 Si2 1.651012 1_555
O12 Si1 1.655466 1_555
O13 Si0 1.655466 1_555
O14 Si3 1.655466 1_555
O15 Si2 1.655466 1_555
F0 La3 2.778529 1_444
F0 La1 2.778529 1_455
F0 La2 2.778529 1_555
F0 La0 2.778529 1_544
F0 K4 2.785136 1_445
F0 K4 2.785136 1_555
