# generated using pymatgen
data_BaAl2O6
_symmetry_space_group_name_H-M   'P 1'
_cell_length_a   7.26560700
_cell_length_b   12.38833400
_cell_length_c   12.79071400
_cell_angle_alpha   90.00000000
_cell_angle_beta   90.00000000
_cell_angle_gamma   90.00000000
_symmetry_Int_Tables_number   1
_chemical_formula_structural   BaAl2O6
_chemical_formula_sum   'Ba8 Al16 O48'
_cell_volume   1151.27638632
_cell_formula_units_Z   8
loop_
 _symmetry_equiv_pos_site_id
 _symmetry_equiv_pos_as_xyz
  1  'x, y, z'
loop_
 _atom_site_type_symbol
 _atom_site_label
 _atom_site_symmetry_multiplicity
 _atom_site_fract_x
 _atom_site_fract_y
 _atom_site_fract_z
 _atom_site_occupancy
  Ba  Ba0  1  0.89169500  0.65318100  0.57202000  1
  Ba  Ba1  1  0.10830500  0.84681900  0.07202000  1
  Ba  Ba2  1  0.60830500  0.15318100  0.42798000  1
  Ba  Ba3  1  0.39169500  0.34681900  0.92798000  1
  Ba  Ba4  1  0.10830500  0.34681900  0.42798000  1
  Ba  Ba5  1  0.89169500  0.15318100  0.92798000  1
  Ba  Ba6  1  0.39169500  0.84681900  0.57202000  1
  Ba  Ba7  1  0.60830500  0.65318100  0.07202000  1
  Al  Al0  1  0.87864900  0.99080900  0.64649200  1
  Al  Al1  1  0.12135100  0.50919100  0.14649200  1
  Al  Al2  1  0.62135100  0.49080900  0.35350800  1
  Al  Al3  1  0.37864900  0.00919100  0.85350800  1
  Al  Al4  1  0.12135100  0.00919100  0.35350800  1
  Al  Al5  1  0.87864900  0.49080900  0.85350800  1
  Al  Al6  1  0.37864900  0.50919100  0.64649200  1
  Al  Al7  1  0.62135100  0.99080900  0.14649200  1
  Al  Al8  1  0.72930600  0.84553700  0.82911000  1
  Al  Al9  1  0.27069400  0.65446300  0.32911000  1
  Al  Al10  1  0.77069400  0.34553700  0.17089000  1
  Al  Al11  1  0.22930600  0.15446300  0.67089000  1
  Al  Al12  1  0.27069400  0.15446300  0.17089000  1
  Al  Al13  1  0.72930600  0.34553700  0.67089000  1
  Al  Al14  1  0.22930600  0.65446300  0.82911000  1
  Al  Al15  1  0.77069400  0.84553700  0.32911000  1
  O  O0  1  0.82564500  0.77697400  0.93796200  1
  O  O1  1  0.17435500  0.72302600  0.43796200  1
  O  O2  1  0.67435500  0.27697400  0.06203800  1
  O  O3  1  0.32564500  0.22302600  0.56203800  1
  O  O4  1  0.17435500  0.22302600  0.06203800  1
  O  O5  1  0.82564500  0.27697400  0.56203800  1
  O  O6  1  0.32564500  0.72302600  0.93796200  1
  O  O7  1  0.67435500  0.77697400  0.43796200  1
  O  O8  1  0.66620000  0.99684500  0.57865700  1
  O  O9  1  0.33380000  0.50315500  0.07865700  1
  O  O10  1  0.83380000  0.49684500  0.42134300  1
  O  O11  1  0.16620000  0.00315500  0.92134300  1
  O  O12  1  0.33380000  0.00315500  0.42134300  1
  O  O13  1  0.66620000  0.49684500  0.92134300  1
  O  O14  1  0.16620000  0.50315500  0.57865700  1
  O  O15  1  0.83380000  0.99684500  0.07865700  1
  O  O16  1  0.69458900  0.77150900  0.71119500  1
  O  O17  1  0.30541100  0.72849100  0.21119500  1
  O  O18  1  0.80541100  0.27150900  0.28880500  1
  O  O19  1  0.19458900  0.22849100  0.78880500  1
  O  O20  1  0.30541100  0.22849100  0.28880500  1
  O  O21  1  0.69458900  0.27150900  0.78880500  1
  O  O22  1  0.19458900  0.72849100  0.71119500  1
  O  O23  1  0.80541100  0.77150900  0.21119500  1
  O  O24  1  0.97449300  0.87484500  0.58068400  1
  O  O25  1  0.02550700  0.62515500  0.08068400  1
  O  O26  1  0.52550700  0.37484500  0.41931600  1
  O  O27  1  0.47449300  0.12515500  0.91931600  1
  O  O28  1  0.02550700  0.12515500  0.41931600  1
  O  O29  1  0.97449300  0.37484500  0.91931600  1
  O  O30  1  0.47449300  0.62515500  0.58068400  1
  O  O31  1  0.52550700  0.87484500  0.08068400  1
  O  O32  1  0.86066500  0.95541100  0.77836200  1
  O  O33  1  0.13933500  0.54458900  0.27836200  1
  O  O34  1  0.63933500  0.45541100  0.22163800  1
  O  O35  1  0.36066500  0.04458900  0.72163800  1
  O  O36  1  0.13933500  0.04458900  0.22163800  1
  O  O37  1  0.86066500  0.45541100  0.72163800  1
  O  O38  1  0.36066500  0.54458900  0.77836200  1
  O  O39  1  0.63933500  0.95541100  0.27836200  1
  O  O40  1  0.51242800  0.89191100  0.87211500  1
  O  O41  1  0.48757200  0.60808900  0.37211500  1
  O  O42  1  0.98757200  0.39191100  0.12788500  1
  O  O43  1  0.01242800  0.10808900  0.62788500  1
  O  O44  1  0.48757200  0.10808900  0.12788500  1
  O  O45  1  0.51242800  0.39191100  0.62788500  1
  O  O46  1  0.01242800  0.60808900  0.87211500  1
  O  O47  1  0.98757200  0.89191100  0.37211500  1
loop_
_geom_bond_atom_site_label_1
_geom_bond_atom_site_label_2
_geom_bond_distance
_geom_bond_site_symmetry_2
Ba0 O16 2.714525 1_555
Ba0 O14 2.727510 1_655
Ba0 O10 2.764465 1_555
Ba0 O7 2.790280 1_555
Ba0 O1 2.811857 1_655
Ba0 O24 2.813353 1_555
Ba0 O22 2.980347 1_655
Ba0 O30 3.053057 1_555
Ba0 O37 3.117027 1_555
Ba1 O17 2.714525 1_555
Ba1 O15 2.727510 1_455
Ba1 O11 2.764465 1_564
Ba1 O6 2.790280 1_554
Ba1 O0 2.811857 1_454
Ba1 O25 2.813353 1_555
Ba1 O23 2.980347 1_455
Ba1 O31 3.053057 1_555
Ba1 O36 3.117027 1_565
Ba2 O18 2.714525 1_555
Ba2 O12 2.727510 1_555
Ba2 O8 2.764465 1_545
Ba2 O5 2.790280 1_555
Ba2 O3 2.811857 1_555
Ba2 O26 2.813353 1_555
Ba2 O20 2.980347 1_555
Ba2 O28 3.053057 1_655
Ba2 O39 3.117027 1_545
Ba3 O19 2.714525 1_555
Ba3 O13 2.727510 1_555
Ba3 O9 2.764465 1_556
Ba3 O4 2.790280 1_556
Ba3 O2 2.811857 1_556
Ba3 O27 2.813353 1_555
Ba3 O21 2.980347 1_555
Ba3 O29 3.053057 1_455
Ba3 O38 3.117027 1_555
Ba4 O20 2.714525 1_555
Ba4 O10 2.727510 1_455
Ba4 O14 2.764465 1_555
Ba4 O3 2.790280 1_555
Ba4 O5 2.811857 1_455
Ba4 O28 2.813353 1_555
Ba4 O18 2.980347 1_455
Ba4 O26 3.053057 1_555
Ba4 O33 3.117027 1_555
Ba5 O21 2.714525 1_555
Ba5 O11 2.727510 1_655
Ba5 O15 2.764465 1_546
Ba5 O2 2.790280 1_556
Ba5 O4 2.811857 1_656
Ba5 O29 2.813353 1_555
Ba5 O19 2.980347 1_655
Ba5 O27 3.053057 1_555
Ba5 O32 3.117027 1_545
Ba6 O22 2.714525 1_555
Ba6 O8 2.727510 1_555
Ba6 O12 2.764465 1_565
Ba6 O1 2.790280 1_555
Ba6 O7 2.811857 1_555
Ba6 O30 2.813353 1_555
Ba6 O16 2.980347 1_555
Ba6 O24 3.053057 1_455
Ba6 O35 3.117027 1_565
Ba7 O23 2.714525 1_555
Ba7 O9 2.727510 1_555
Ba7 O13 2.764465 1_554
Ba7 O0 2.790280 1_554
Ba7 O6 2.811857 1_554
Ba7 O31 2.813353 1_555
Ba7 O17 2.980347 1_555
Ba7 O25 3.053057 1_655
Ba7 O34 3.117027 1_555
Al0 O32 1.747676 1_555
Al0 O43 1.764179 1_665
Al0 O8 1.772296 1_555
Al0 O24 1.804787 1_555
Al1 O33 1.747676 1_555
Al1 O42 1.764179 1_455
Al1 O9 1.772296 1_555
Al1 O25 1.804787 1_555
Al2 O34 1.747676 1_555
Al2 O41 1.764179 1_555
Al2 O10 1.772296 1_555
Al2 O26 1.804787 1_555
Al3 O35 1.747676 1_555
Al3 O40 1.764179 1_545
Al3 O11 1.772296 1_555
Al3 O27 1.804787 1_555
Al4 O36 1.747676 1_555
Al4 O47 1.764179 1_445
Al4 O12 1.772296 1_555
Al4 O28 1.804787 1_555
Al5 O37 1.747676 1_555
Al5 O46 1.764179 1_655
Al5 O13 1.772296 1_555
Al5 O29 1.804787 1_555
Al6 O38 1.747676 1_555
Al6 O45 1.764179 1_555
Al6 O14 1.772296 1_555
Al6 O30 1.804787 1_555
Al7 O39 1.747676 1_555
Al7 O44 1.764179 1_565
Al7 O15 1.772296 1_555
Al7 O31 1.804787 1_555
Al8 O40 1.765108 1_555
Al8 O0 1.774790 1_555
Al8 O16 1.783083 1_555
Al8 O32 1.784647 1_555
Al9 O41 1.765108 1_555
Al9 O1 1.774790 1_555
Al9 O17 1.783083 1_555
Al9 O33 1.784647 1_555
Al10 O42 1.765108 1_555
Al10 O2 1.774790 1_555
Al10 O18 1.783083 1_555
Al10 O34 1.784647 1_555
Al11 O43 1.765108 1_555
Al11 O3 1.774790 1_555
Al11 O19 1.783083 1_555
Al11 O35 1.784647 1_555
Al12 O44 1.765108 1_555
Al12 O4 1.774790 1_555
Al12 O20 1.783083 1_555
Al12 O36 1.784647 1_555
Al13 O45 1.765108 1_555
Al13 O5 1.774790 1_555
Al13 O21 1.783083 1_555
Al13 O37 1.784647 1_555
Al14 O46 1.765108 1_555
Al14 O6 1.774790 1_555
Al14 O22 1.783083 1_555
Al14 O38 1.784647 1_555
Al15 O47 1.765108 1_555
Al15 O7 1.774790 1_555
Al15 O23 1.783083 1_555
Al15 O39 1.784647 1_555
