# generated using pymatgen
data_Pa3Sb
_symmetry_space_group_name_H-M   'P 1'
_cell_length_a   4.59511777
_cell_length_b   4.59513958
_cell_length_c   4.59512296
_cell_angle_alpha   90.00002594
_cell_angle_beta   90.00002594
_cell_angle_gamma   90.00002594
_symmetry_Int_Tables_number   1
_chemical_formula_structural   Pa3Sb
_chemical_formula_sum   'Pa3 Sb1'
_cell_volume   97.02697497
_cell_formula_units_Z   1
loop_
 _symmetry_equiv_pos_site_id
 _symmetry_equiv_pos_as_xyz
  1  'x, y, z'
loop_
 _atom_site_type_symbol
 _atom_site_label
 _atom_site_symmetry_multiplicity
 _atom_site_fract_x
 _atom_site_fract_y
 _atom_site_fract_z
 _atom_site_occupancy
  Pa  Pa0  1  -0.00000000  0.49999900  0.49999900  1
  Pa  Pa1  1  0.49999900  0.49999900  0.00000000  1
  Pa  Pa2  1  0.49999900  -0.00000000  0.49999900  1
  Sb  Sb0  1  0.00000000  -0.00000000  0.00000000  1
loop_
_geom_bond_atom_site_label_1
_geom_bond_atom_site_label_2
_geom_bond_distance
_geom_bond_site_symmetry_2
Pa0 Pa1 3.249235 1_555
Pa0 Pa1 3.249240 1_455
Pa0 Pa1 3.249240 1_556
Pa0 Pa2 3.249241 1_555
Pa0 Sb0 3.249241 1_555
Pa0 Pa2 3.249246 1_455
Pa0 Pa2 3.249246 1_565
Pa0 Pa1 3.249248 1_456
Pa0 Sb0 3.249249 1_556
Pa0 Sb0 3.249249 1_565
Pa0 Pa2 3.249254 1_465
Pa0 Sb0 3.249254 1_566
Pa1 Sb0 3.249239 1_555
Pa1 Pa2 3.249243 1_555
Pa1 Sb0 3.249247 1_655
Pa1 Sb0 3.249247 1_565
Pa1 Pa2 3.249248 1_554
Pa1 Pa2 3.249248 1_565
Pa1 Sb0 3.249252 1_665
Pa1 Pa2 3.249256 1_564
Pa2 Sb0 3.249234 1_555
Pa2 Sb0 3.249242 1_655
Pa2 Sb0 3.249242 1_556
Pa2 Sb0 3.249247 1_656
