# generated using pymatgen
data_Si2Mo
_symmetry_space_group_name_H-M   'P 1'
_cell_length_a   4.58547219
_cell_length_b   4.58547093
_cell_length_c   6.57976010
_cell_angle_alpha   90.00000000
_cell_angle_beta   90.00000000
_cell_angle_gamma   119.99999459
_symmetry_Int_Tables_number   1
_chemical_formula_structural   Si2Mo
_chemical_formula_sum   'Si6 Mo3'
_cell_volume   119.81431887
_cell_formula_units_Z   3
loop_
 _symmetry_equiv_pos_site_id
 _symmetry_equiv_pos_as_xyz
  1  'x, y, z'
loop_
 _atom_site_type_symbol
 _atom_site_label
 _atom_site_symmetry_multiplicity
 _atom_site_fract_x
 _atom_site_fract_y
 _atom_site_fract_z
 _atom_site_occupancy
  Si  Si0  1  0.16387298  0.83612702  0.83333300  1
  Si  Si1  1  0.32774695  0.16387298  0.16666700  1
  Si  Si2  1  0.83612702  0.67225305  0.50000000  1
  Si  Si3  1  0.83612702  0.16387298  0.83333300  1
  Si  Si4  1  0.67225305  0.83612702  0.16666700  1
  Si  Si5  1  0.16387298  0.32774695  0.50000000  1
  Mo  Mo0  1  0.50000000  -0.00000000  0.50000000  1
  Mo  Mo1  1  -0.00000000  0.50000000  0.16666700  1
  Mo  Mo2  1  0.50000000  0.50000000  0.83333300  1
loop_
_geom_bond_atom_site_label_1
_geom_bond_atom_site_label_2
_geom_bond_distance
_geom_bond_site_symmetry_2
Si0 Si2 2.550356 1_455
Si0 Si1 2.550361 1_566
Si0 Si3 2.603047 1_465
Si0 Si3 2.669888 1_455
Si0 Si3 2.669889 1_565
Si1 Si5 2.550360 1_555
Si1 Si4 2.603055 1_445
Si1 Si4 2.669880 1_545
Si1 Si4 2.669888 1_555
Si2 Si4 2.550360 1_555
Si2 Si5 2.603054 1_665
Si2 Si5 2.669880 1_655
Si2 Si5 2.669888 1_555
Si3 Si5 2.550356 1_655
Si3 Si4 2.550361 1_546
Mo0 Si1 2.567570 1_555
Mo0 Si4 2.567570 1_545
Mo0 Si0 2.567572 1_545
Mo0 Si3 2.567572 1_555
Mo0 Si2 2.636400 1_445
Mo0 Si5 2.636400 1_655
Mo0 Si5 2.636403 1_555
Mo0 Si2 2.636403 1_545
Mo0 Si2 2.669607 1_555
Mo0 Si5 2.669607 1_545
Mo1 Si5 2.567570 1_555
Mo1 Si2 2.567570 1_455
Mo1 Si0 2.567578 1_554
Mo1 Si3 2.567578 1_454
Mo1 Si4 2.636399 1_445
Mo1 Si1 2.636399 1_565
Mo1 Si1 2.636403 1_555
Mo1 Si4 2.636403 1_455
Mo1 Si1 2.669608 1_455
Mo1 Si4 2.669608 1_555
Mo2 Si2 2.567572 1_555
Mo2 Si5 2.567572 1_555
Mo2 Si4 2.567578 1_556
Mo2 Si1 2.567578 1_556
Mo2 Si3 2.636399 1_565
Mo2 Si0 2.636399 1_545
Mo2 Si3 2.636400 1_455
Mo2 Si0 2.636400 1_655
Mo2 Si0 2.669611 1_555
Mo2 Si3 2.669611 1_555
