# generated using pymatgen
data_TmF3
_symmetry_space_group_name_H-M   'P 1'
_cell_length_a   4.02631245
_cell_length_b   4.02631245
_cell_length_c   4.02631245
_cell_angle_alpha   127.61378148
_cell_angle_beta   127.61378148
_cell_angle_gamma   77.25152736
_symmetry_Int_Tables_number   1
_chemical_formula_structural   TmF3
_chemical_formula_sum   'Tm1 F3'
_cell_volume   39.73995853
_cell_formula_units_Z   1
loop_
 _symmetry_equiv_pos_site_id
 _symmetry_equiv_pos_as_xyz
  1  'x, y, z'
loop_
 _atom_site_type_symbol
 _atom_site_label
 _atom_site_symmetry_multiplicity
 _atom_site_fract_x
 _atom_site_fract_y
 _atom_site_fract_z
 _atom_site_occupancy
  Tm  Tm0  1  0.00000000  0.00000000  0.00000000  1
  F  F0  1  0.75000200  0.25000000  0.50000300  1
  F  F1  1  0.25000000  0.75000200  0.50000300  1
  F  F2  1  0.50000000  0.50000000  0.00000000  1
loop_
_geom_bond_atom_site_label_1
_geom_bond_atom_site_label_2
_geom_bond_distance
_geom_bond_site_symmetry_2
F0 Tm0 2.373181 1_656
F0 Tm0 2.373190 1_666
F0 Tm0 2.373193 1_655
F0 Tm0 2.373194 1_555
F1 Tm0 2.373181 1_566
F1 Tm0 2.373190 1_666
F1 Tm0 2.373193 1_565
F1 Tm0 2.373194 1_555
F2 Tm0 2.513349 1_655
F2 Tm0 2.513349 1_565
F2 Tm0 2.513349 1_554
F2 Tm0 2.513349 1_666
