# generated using pymatgen
data_Fe10O9F11
_symmetry_space_group_name_H-M   'P 1'
_cell_length_a   4.78004343
_cell_length_b   4.78004343
_cell_length_c   15.41704200
_cell_angle_alpha   90.00000000
_cell_angle_beta   90.00000000
_cell_angle_gamma   95.58043932
_symmetry_Int_Tables_number   1
_chemical_formula_structural   Fe10O9F11
_chemical_formula_sum   'Fe10 O9 F11'
_cell_volume   350.59165655
_cell_formula_units_Z   1
loop_
 _symmetry_equiv_pos_site_id
 _symmetry_equiv_pos_as_xyz
  1  'x, y, z'
loop_
 _atom_site_type_symbol
 _atom_site_label
 _atom_site_symmetry_multiplicity
 _atom_site_fract_x
 _atom_site_fract_y
 _atom_site_fract_z
 _atom_site_occupancy
  Fe  Fe0  1  0.99468500  0.99468500  0.69806400  1
  Fe  Fe1  1  0.00002100  0.00002100  0.89974800  1
  Fe  Fe2  1  0.00002100  0.00002100  0.10025200  1
  Fe  Fe3  1  0.99468500  0.99468500  0.30193600  1
  Fe  Fe4  1  0.02387300  0.02387300  0.50000000  1
  Fe  Fe5  1  0.49939400  0.49939400  0.80224200  1
  Fe  Fe6  1  0.49939400  0.49939400  0.19775800  1
  Fe  Fe7  1  0.50020400  0.50020400  0.00000000  1
  Fe  Fe8  1  0.48857400  0.48857400  0.39363000  1
  Fe  Fe9  1  0.48857400  0.48857400  0.60637000  1
  O  O0  1  0.29396600  0.29396600  0.70308500  1
  O  O1  1  0.29930900  0.29930900  0.90066400  1
  O  O2  1  0.29930900  0.29930900  0.09933600  1
  O  O3  1  0.29396600  0.29396600  0.29691500  1
  O  O4  1  0.32740000  0.32740000  0.50000000  1
  O  O5  1  0.69759000  0.69759000  0.70060400  1
  O  O6  1  0.70018800  0.70018800  0.90037500  1
  O  O7  1  0.70018800  0.70018800  0.09962500  1
  O  O8  1  0.69759000  0.69759000  0.29939600  1
  F  F0  1  0.80529800  0.19004000  0.80015800  1
  F  F1  1  0.80702600  0.19280600  0.00000000  1
  F  F2  1  0.80529800  0.19004000  0.19984200  1
  F  F3  1  0.79836500  0.20165700  0.39560800  1
  F  F4  1  0.79836500  0.20165700  0.60439200  1
  F  F5  1  0.71052100  0.71052100  0.50000000  1
  F  F6  1  0.19004000  0.80529800  0.80015800  1
  F  F7  1  0.19004000  0.80529800  0.19984200  1
  F  F8  1  0.19280600  0.80702600  0.00000000  1
  F  F9  1  0.20165700  0.79836500  0.60439200  1
  F  F10  1  0.20165700  0.79836500  0.39560800  1
loop_
_geom_bond_atom_site_label_1
_geom_bond_atom_site_label_2
_geom_bond_distance
_geom_bond_site_symmetry_2
Fe0 O5 1.908618 1_555
Fe0 O0 1.923815 1_665
Fe1 O1 1.922354 1_555
Fe1 O6 1.925826 1_445
Fe2 O2 1.922354 1_555
Fe2 O7 1.925826 1_445
Fe3 O8 1.908618 1_555
Fe3 O3 1.923815 1_665
Fe4 O4 1.949528 1_555
Fe5 O6 1.988017 1_555
Fe5 O1 1.988464 1_555
Fe5 O5 2.018880 1_555
Fe5 O0 2.019378 1_555
Fe6 O7 1.988017 1_555
Fe6 O2 1.988464 1_555
Fe6 O8 2.018880 1_555
Fe6 O3 2.019378 1_555
Fe7 O6 2.002236 1_554
Fe7 O7 2.002236 1_555
Fe7 O1 2.002585 1_554
Fe7 O2 2.002585 1_555
Fe8 O4 1.939320 1_555
Fe8 O3 1.945671 1_555
Fe8 O8 1.978115 1_555
Fe9 O4 1.939320 1_555
Fe9 O0 1.945671 1_555
Fe9 O5 1.978115 1_555
F0 Fe1 2.052606 1_655
F0 Fe0 2.081674 1_545
F0 Fe5 2.178605 1_555
F1 Fe2 2.062628 1_655
F1 Fe1 2.062628 1_654
F1 Fe7 2.174665 1_555
F2 Fe2 2.052606 1_655
F2 Fe3 2.081674 1_545
F2 Fe6 2.178605 1_555
F3 Fe3 2.031140 1_545
F3 Fe8 2.114159 1_555
F3 Fe4 2.156969 1_655
F4 Fe0 2.031140 1_545
F4 Fe9 2.114159 1_555
F4 Fe4 2.156969 1_655
F5 Fe4 2.012634 1_665
F5 Fe9 2.172899 1_555
F5 Fe8 2.172899 1_555
F6 Fe1 2.052606 1_565
F6 Fe0 2.081674 1_455
F6 Fe5 2.178605 1_555
F7 Fe2 2.052606 1_565
F7 Fe3 2.081674 1_455
F7 Fe6 2.178605 1_555
F8 Fe2 2.062628 1_565
F8 Fe1 2.062628 1_564
F8 Fe7 2.174665 1_555
F9 Fe0 2.031140 1_455
F9 Fe9 2.114159 1_555
F9 Fe4 2.156969 1_565
F10 Fe3 2.031140 1_455
F10 Fe8 2.114159 1_555
F10 Fe4 2.156969 1_565
