# generated using pymatgen
data_Li4Mn3Co2Ni3O16
_symmetry_space_group_name_H-M   'P 1'
_cell_length_a   5.80695187
_cell_length_b   5.75767625
_cell_length_c   9.29181243
_cell_angle_alpha   90.00101108
_cell_angle_beta   91.37072431
_cell_angle_gamma   119.72655354
_symmetry_Int_Tables_number   1
_chemical_formula_structural   Li4Mn3Co2Ni3O16
_chemical_formula_sum   'Li4 Mn3 Co2 Ni3 O16'
_cell_volume   269.68181477
_cell_formula_units_Z   1
loop_
 _symmetry_equiv_pos_site_id
 _symmetry_equiv_pos_as_xyz
  1  'x, y, z'
loop_
 _atom_site_type_symbol
 _atom_site_label
 _atom_site_symmetry_multiplicity
 _atom_site_fract_x
 _atom_site_fract_y
 _atom_site_fract_z
 _atom_site_occupancy
  Li  Li0  1  0.33282300  0.66635500  0.89642600  1
  Li  Li1  1  0.99095000  0.99543400  0.99211400  1
  Li  Li2  1  0.99633800  0.99807300  0.49666200  1
  Li  Li3  1  0.66567800  0.33298700  0.39814100  1
  Mn  Mn0  1  0.17241400  0.83166700  0.21321400  1
  Mn  Mn1  1  0.17237100  0.34074500  0.21321100  1
  Mn  Mn2  1  0.34387400  0.17193300  0.71393500  1
  Co  Co0  1  0.34050200  0.67024800  0.48743900  1
  Co  Co1  1  0.67737000  0.33867600  0.98295000  1
  Ni  Ni0  1  0.66043200  0.83025700  0.21199000  1
  Ni  Ni1  1  0.82996400  0.66004600  0.71119400  1
  Ni  Ni2  1  0.82993900  0.16999800  0.71119800  1
  O  O0  1  0.17946300  0.83977100  0.59768800  1
  O  O1  1  0.04012200  0.52005000  0.33787800  1
  O  O2  1  0.31921300  0.65964100  0.10564900  1
  O  O3  1  0.01134400  0.00565400  0.30654200  1
  O  O4  1  0.00487100  0.00231900  0.80090700  1
  O  O5  1  0.17945000  0.33962800  0.59769000  1
  O  O6  1  0.46926900  0.95869900  0.34697800  1
  O  O7  1  0.46924700  0.51073200  0.34698000  1
  O  O8  1  0.32805800  0.16403700  0.10219600  1
  O  O9  1  0.66315400  0.83157700  0.59524800  1
  O  O10  1  0.51211600  0.47030400  0.84781400  1
  O  O11  1  0.51217000  0.04178200  0.84774300  1
  O  O12  1  0.66040600  0.33041300  0.60838400  1
  O  O13  1  0.84136300  0.66373500  0.09552500  1
  O  O14  1  0.95568000  0.47793500  0.84667800  1
  O  O15  1  0.84141900  0.17760300  0.09546500  1
loop_
_geom_bond_atom_site_label_1
_geom_bond_atom_site_label_2
_geom_bond_distance
_geom_bond_site_symmetry_2
Li0 O10 1.936542 1_555
Li0 O11 1.936937 1_565
Li0 O14 1.944797 1_455
Li0 O2 1.947161 1_556
Li1 O4 1.779978 1_665
Li1 O15 1.928572 1_566
Li1 O13 1.928730 1_556
Li1 O8 1.959660 1_666
Li2 O3 1.770262 1_665
Li2 O9 1.935699 1_555
Li2 O0 1.938100 1_655
Li2 O5 1.938464 1_665
Li3 O7 1.925153 1_555
Li3 O6 1.925475 1_545
Li3 O12 1.954452 1_555
Li3 O1 1.984250 1_655
Mn0 O2 1.893338 1_555
Mn0 O3 1.896935 1_565
Mn0 O6 1.923130 1_555
Mn0 O1 1.956218 1_555
Mn0 O8 1.967877 1_565
Mn0 O13 1.970369 1_455
Mn1 O2 1.893517 1_555
Mn1 O3 1.896973 1_555
Mn1 O7 1.923270 1_555
Mn1 O1 1.956071 1_555
Mn1 O8 1.968080 1_555
Mn1 O15 1.970235 1_455
Mn2 O12 1.896316 1_555
Mn2 O4 1.910928 1_555
Mn2 O10 1.931458 1_555
Mn2 O11 1.931494 1_555
Mn2 O5 1.968638 1_555
Mn2 O0 1.968656 1_545
Co0 O9 1.887055 1_555
Co0 O0 1.956427 1_555
Co0 O5 1.956567 1_555
Co0 O7 1.957906 1_555
Co0 O6 1.958564 1_555
Co0 O1 2.027237 1_555
Co1 O14 1.915964 1_555
Co1 O13 1.920570 1_556
Co1 O15 1.920709 1_556
Co1 O10 1.932759 1_555
Co1 O11 1.933055 1_555
Co1 O8 2.106688 1_556
Ni0 O3 1.953856 1_665
Ni0 O2 1.960461 1_555
Ni0 O7 2.057072 1_555
Ni0 O6 2.057452 1_555
Ni0 O15 2.060713 1_565
Ni0 O13 2.060972 1_555
Ni1 O4 1.893289 1_665
Ni1 O12 1.893629 1_555
Ni1 O14 1.983022 1_555
Ni1 O9 1.993296 1_555
Ni1 O0 2.078894 1_655
Ni1 O10 2.079456 1_555
Ni2 O4 1.894969 1_655
Ni2 O12 1.895174 1_555
Ni2 O14 1.983297 1_555
Ni2 O9 1.993480 1_545
Ni2 O11 2.078657 1_555
Ni2 O5 2.078973 1_655
