# generated using pymatgen
data_Ba2Ca(BO2)6
_symmetry_space_group_name_H-M   'P 1'
_cell_length_a   7.35513894
_cell_length_b   7.35513894
_cell_length_c   7.35513852
_cell_angle_alpha   58.98648827
_cell_angle_beta   58.98648827
_cell_angle_gamma   58.98649093
_symmetry_Int_Tables_number   1
_chemical_formula_structural   Ba2Ca(BO2)6
_chemical_formula_sum   'Ba2 Ca1 B6 O12'
_cell_volume   274.85182485
_cell_formula_units_Z   1
loop_
 _symmetry_equiv_pos_site_id
 _symmetry_equiv_pos_as_xyz
  1  'x, y, z'
loop_
 _atom_site_type_symbol
 _atom_site_label
 _atom_site_symmetry_multiplicity
 _atom_site_fract_x
 _atom_site_fract_y
 _atom_site_fract_z
 _atom_site_occupancy
  Ba  Ba0  1  0.79422600  0.79422600  0.79422600  1
  Ba  Ba1  1  0.20577400  0.20577400  0.20577400  1
  Ca  Ca0  1  0.00000000  0.00000000  0.00000000  1
  B  B0  1  0.63064200  0.36634100  0.75464800  1
  B  B1  1  0.63365900  0.24535200  0.36935800  1
  B  B2  1  0.36935800  0.63365900  0.24535200  1
  B  B3  1  0.24535200  0.36935800  0.63365900  1
  B  B4  1  0.36634100  0.75464800  0.63064200  1
  B  B5  1  0.75464800  0.63064200  0.36634100  1
  O  O0  1  0.45943900  0.20427300  0.58009400  1
  O  O1  1  0.20427300  0.58009400  0.45943900  1
  O  O2  1  0.58009400  0.45943900  0.20427300  1
  O  O3  1  0.41990600  0.54056100  0.79572700  1
  O  O4  1  0.83673700  0.08702600  0.33547100  1
  O  O5  1  0.79572700  0.41990600  0.54056100  1
  O  O6  1  0.54056100  0.79572700  0.41990600  1
  O  O7  1  0.08702600  0.33547100  0.83673700  1
  O  O8  1  0.33547100  0.83673700  0.08702600  1
  O  O9  1  0.91297400  0.66452900  0.16326300  1
  O  O10  1  0.66452900  0.16326300  0.91297400  1
  O  O11  1  0.16326300  0.91297400  0.66452900  1
loop_
_geom_bond_atom_site_label_1
_geom_bond_atom_site_label_2
_geom_bond_distance
_geom_bond_site_symmetry_2
Ba0 O9 2.820734 1_556
Ba0 O11 2.820734 1_655
Ba0 O10 2.820734 1_565
Ba0 O4 2.870460 1_565
Ba0 O8 2.870460 1_556
Ba0 O7 2.870461 1_655
Ba0 O2 3.014745 1_556
Ba0 O1 3.014745 1_655
Ba0 O0 3.014745 1_565
Ba1 O7 2.820734 1_554
Ba1 O4 2.820734 1_455
Ba1 O8 2.820734 1_545
Ba1 O11 2.870460 1_545
Ba1 O10 2.870460 1_554
Ba1 O9 2.870461 1_455
Ba1 O3 3.014745 1_554
Ba1 O5 3.014745 1_455
Ba1 O6 3.014745 1_545
Ca0 O4 2.392095 1_455
Ca0 O11 2.392095 1_544
Ca0 O7 2.392095 1_554
Ca0 O9 2.392095 1_445
Ca0 O8 2.392095 1_545
Ca0 O10 2.392095 1_454
B0 O10 1.331277 1_555
B0 O5 1.411553 1_555
B0 O3 1.416136 1_555
B1 O4 1.331277 1_555
B1 O2 1.411553 1_555
B1 O0 1.416136 1_555
B2 O8 1.331277 1_555
B2 O1 1.411553 1_555
B2 O2 1.416136 1_555
B3 O7 1.331277 1_555
B3 O0 1.411553 1_555
B3 O1 1.416136 1_555
B4 O11 1.331277 1_555
B4 O3 1.411553 1_555
B4 O6 1.416136 1_555
B5 O9 1.331277 1_555
B5 O6 1.411553 1_555
B5 O5 1.416136 1_555
