# generated using pymatgen
data_LiMn2OF3
_symmetry_space_group_name_H-M   'P 1'
_cell_length_a   6.26688384
_cell_length_b   10.89477569
_cell_length_c   6.41879977
_cell_angle_alpha   106.38799895
_cell_angle_beta   119.23061131
_cell_angle_gamma   89.98219692
_symmetry_Int_Tables_number   1
_chemical_formula_structural   LiMn2OF3
_chemical_formula_sum   'Li4 Mn8 O4 F12'
_cell_volume   361.92811719
_cell_formula_units_Z   4
loop_
 _symmetry_equiv_pos_site_id
 _symmetry_equiv_pos_as_xyz
  1  'x, y, z'
loop_
 _atom_site_type_symbol
 _atom_site_label
 _atom_site_symmetry_multiplicity
 _atom_site_fract_x
 _atom_site_fract_y
 _atom_site_fract_z
 _atom_site_occupancy
  Li  Li0  1  0.46496500  0.48836400  0.92949500  1
  Li  Li1  1  0.96500900  0.98838500  0.92939600  1
  Li  Li2  1  0.41088000  0.13673300  0.82111500  1
  Li  Li3  1  0.91073800  0.63675000  0.82103500  1
  Mn  Mn0  1  0.93769000  0.31280800  0.87590200  1
  Mn  Mn1  1  0.43700000  0.81212300  0.87457100  1
  Mn  Mn2  1  0.18719100  0.56268000  0.37507800  1
  Mn  Mn3  1  0.43894300  0.81326000  0.37597000  1
  Mn  Mn4  1  0.43822400  0.31183500  0.37442800  1
  Mn  Mn5  1  0.68670700  0.06270000  0.37506200  1
  Mn  Mn6  1  0.93891600  0.31327000  0.37616000  1
  Mn  Mn7  1  0.93802900  0.81180600  0.37427300  1
  O  O0  1  0.27480800  0.42475600  0.54850800  1
  O  O1  1  0.77480000  0.92474500  0.54853700  1
  O  O2  1  0.60100800  0.20050000  0.20078500  1
  O  O3  1  0.10108000  0.70048800  0.20084500  1
  F  F0  1  0.07005700  0.19303300  0.64832400  1
  F  F1  1  0.57097600  0.69228300  0.64801000  1
  F  F2  1  0.04923200  0.18479700  0.09877400  1
  F  F3  1  0.54972100  0.68476400  0.09864000  1
  F  F4  1  0.57812200  0.19273800  0.65118000  1
  F  F5  1  0.07820600  0.69301800  0.65141400  1
  F  F6  1  0.80164600  0.43207800  0.09830700  1
  F  F7  1  0.30178100  0.93249200  0.09822000  1
  F  F8  1  0.29713600  0.43253500  0.10196000  1
  F  F9  1  0.79575000  0.93168800  0.10186100  1
  F  F10  1  0.82581100  0.43969000  0.65113200  1
  F  F11  1  0.32557300  0.93968200  0.65102000  1
loop_
_geom_bond_atom_site_label_1
_geom_bond_atom_site_label_2
_geom_bond_distance
_geom_bond_site_symmetry_2
Li0 O0 2.019591 1_555
Li1 O1 2.018913 1_555
Li2 O2 2.012620 1_556
Li3 O3 2.013361 1_656
Mn2 O0 2.035957 1_555
Mn2 O3 2.038057 1_555
Mn3 O1 2.024285 1_555
Mn3 O3 2.038146 1_555
Mn4 O2 2.025124 1_555
Mn4 O0 2.037643 1_555
Mn5 O1 2.036447 1_545
Mn5 O2 2.038167 1_555
Mn6 O0 2.024643 1_655
Mn6 O2 2.038152 1_555
Mn7 O3 2.025469 1_655
Mn7 O1 2.037565 1_555
F0 Li2 2.058603 1_555
F0 Mn0 2.152201 1_455
F0 Mn6 2.309058 1_455
F0 Mn5 2.312063 1_455
F1 Li3 2.049882 1_555
F1 Mn1 2.155196 1_555
F1 Mn2 2.310551 1_555
F1 Mn3 2.314698 1_555
F2 Li1 2.041347 1_444
F2 Mn0 2.151460 1_454
F2 Mn4 2.323059 1_555
F2 Mn6 2.324331 1_455
F3 Li0 2.041064 1_554
F3 Mn1 2.150837 1_554
F3 Mn7 2.320162 1_555
F3 Mn3 2.326105 1_555
F4 Li2 2.037909 1_555
F4 Mn0 2.152244 1_555
F4 Mn5 2.317723 1_555
F4 Mn4 2.320942 1_555
F5 Li3 2.038546 1_455
F5 Mn1 2.144489 1_555
F5 Mn7 2.320187 1_455
F5 Mn2 2.321717 1_555
F6 Li0 2.035503 1_554
F6 Mn0 2.143499 1_554
F6 Mn6 2.323751 1_555
F6 Mn2 2.324239 1_655
F7 Li1 2.034027 1_454
F7 Mn1 2.150294 1_554
F7 Mn5 2.319992 1_565
F7 Mn3 2.326837 1_555
F8 Li0 2.054056 1_554
F8 Mn0 2.150045 1_454
F8 Mn2 2.309753 1_555
F8 Mn4 2.314408 1_555
F9 Li1 2.065255 1_554
F9 Mn1 2.146140 1_554
F9 Mn7 2.307298 1_555
F9 Mn5 2.310162 1_565
F10 Li3 2.048056 1_555
F10 Mn0 2.149621 1_555
F10 Mn6 2.316055 1_555
F10 Mn4 2.321080 1_555
F11 Li2 2.048105 1_565
F11 Mn1 2.150356 1_555
F11 Mn3 2.317562 1_555
F11 Mn7 2.321010 1_455
