# generated using pymatgen
data_Ca2SnS4
_symmetry_space_group_name_H-M   'P 1'
_cell_length_a   6.88313700
_cell_length_b   7.34067700
_cell_length_c   13.55192400
_cell_angle_alpha   90.00000000
_cell_angle_beta   90.00000000
_cell_angle_gamma   90.00000000
_symmetry_Int_Tables_number   1
_chemical_formula_structural   Ca2SnS4
_chemical_formula_sum   'Ca8 Sn4 S16'
_cell_volume   684.73651176
_cell_formula_units_Z   4
loop_
 _symmetry_equiv_pos_site_id
 _symmetry_equiv_pos_as_xyz
  1  'x, y, z'
loop_
 _atom_site_type_symbol
 _atom_site_label
 _atom_site_symmetry_multiplicity
 _atom_site_fract_x
 _atom_site_fract_y
 _atom_site_fract_z
 _atom_site_occupancy
  Ca  Ca0  1  0.98892200  0.90261800  0.85514900  1
  Ca  Ca1  1  0.48892200  0.59738200  0.14485100  1
  Ca  Ca2  1  0.01107800  0.40261800  0.64485100  1
  Ca  Ca3  1  0.51107800  0.09738200  0.35514900  1
  Ca  Ca4  1  0.01107800  0.09738200  0.14485100  1
  Ca  Ca5  1  0.51107800  0.40261800  0.85514900  1
  Ca  Ca6  1  0.98892200  0.59738200  0.35514900  1
  Ca  Ca7  1  0.48892200  0.90261800  0.64485100  1
  Sn  Sn0  1  0.00000000  0.00000000  0.50000000  1
  Sn  Sn1  1  0.50000000  0.50000000  0.50000000  1
  Sn  Sn2  1  0.00000000  0.50000000  0.00000000  1
  Sn  Sn3  1  0.50000000  0.00000000  0.00000000  1
  S  S0  1  0.81042200  0.69581900  0.55238300  1
  S  S1  1  0.31042200  0.80418100  0.44761700  1
  S  S2  1  0.18957800  0.19581900  0.94761700  1
  S  S3  1  0.68957800  0.30418100  0.05238300  1
  S  S4  1  0.18957800  0.30418100  0.44761700  1
  S  S5  1  0.68957800  0.19581900  0.55238300  1
  S  S6  1  0.81042200  0.80418100  0.05238300  1
  S  S7  1  0.31042200  0.69581900  0.94761700  1
  S  S8  1  0.11755900  0.03968400  0.67357400  1
  S  S9  1  0.61755900  0.46031600  0.32642600  1
  S  S10  1  0.88244100  0.53968400  0.82642600  1
  S  S11  1  0.38244100  0.96031600  0.17357400  1
  S  S12  1  0.88244100  0.96031600  0.32642600  1
  S  S13  1  0.38244100  0.53968400  0.67357400  1
  S  S14  1  0.11755900  0.46031600  0.17357400  1
  S  S15  1  0.61755900  0.03968400  0.82642600  1
loop_
_geom_bond_atom_site_label_1
_geom_bond_atom_site_label_2
_geom_bond_distance
_geom_bond_site_symmetry_2
Ca0 S15 2.774479 1_565
Ca0 S10 2.790440 1_555
Ca0 S8 2.802022 1_665
Ca0 S2 2.847847 1_665
Ca0 S7 2.961726 1_655
Ca0 S6 3.029207 1_556
Ca1 S14 2.774479 1_555
Ca1 S11 2.790440 1_555
Ca1 S9 2.802022 1_555
Ca1 S3 2.847847 1_555
Ca1 S6 2.961726 1_555
Ca1 S7 3.029207 1_554
Ca2 S13 2.774479 1_555
Ca2 S8 2.790440 1_555
Ca2 S10 2.802022 1_455
Ca2 S0 2.847847 1_455
Ca2 S5 2.961726 1_455
Ca2 S4 3.029207 1_555
Ca3 S12 2.774479 1_545
Ca3 S9 2.790440 1_555
Ca3 S11 2.802022 1_545
Ca3 S1 2.847847 1_545
Ca3 S4 2.961726 1_555
Ca3 S5 3.029207 1_555
Ca4 S11 2.774479 1_545
Ca4 S14 2.790440 1_555
Ca4 S12 2.802022 1_445
Ca4 S6 2.847847 1_445
Ca4 S3 2.961726 1_455
Ca4 S2 3.029207 1_554
Ca5 S10 2.774479 1_555
Ca5 S15 2.790440 1_555
Ca5 S13 2.802022 1_555
Ca5 S7 2.847847 1_555
Ca5 S2 2.961726 1_555
Ca5 S3 3.029207 1_556
Ca6 S9 2.774479 1_555
Ca6 S12 2.790440 1_555
Ca6 S14 2.802022 1_655
Ca6 S4 2.847847 1_655
Ca6 S1 2.961726 1_655
Ca6 S0 3.029207 1_555
Ca7 S8 2.774479 1_565
Ca7 S13 2.790440 1_555
Ca7 S15 2.802022 1_565
Ca7 S5 2.847847 1_565
Ca7 S0 2.961726 1_555
Ca7 S1 3.029207 1_555
S0 Sn1 2.671250 1_555
S0 Sn0 2.681884 1_665
S1 Sn0 2.671250 1_565
S1 Sn1 2.681884 1_555
S2 Sn3 2.671250 1_556
S2 Sn2 2.681884 1_556
S3 Sn2 2.671250 1_655
S3 Sn3 2.681884 1_555
S4 Sn1 2.671250 1_555
S4 Sn0 2.681884 1_555
S5 Sn0 2.671250 1_655
S5 Sn1 2.681884 1_555
S6 Sn3 2.671250 1_565
S6 Sn2 2.681884 1_655
S7 Sn2 2.671250 1_556
S7 Sn3 2.681884 1_566
S8 Sn0 2.504548 1_555
S9 Sn1 2.504548 1_555
S10 Sn2 2.504548 1_656
S11 Sn3 2.504548 1_565
S12 Sn0 2.504548 1_665
S13 Sn1 2.504548 1_555
S14 Sn2 2.504548 1_555
S15 Sn3 2.504548 1_556
