# generated using pymatgen
data_Ba(NdS2)2
_symmetry_space_group_name_H-M   'P 1'
_cell_length_a   4.19898505
_cell_length_b   12.41079018
_cell_length_c   14.94208972
_cell_angle_alpha   90.00000000
_cell_angle_beta   90.00000000
_cell_angle_gamma   90.00000000
_symmetry_Int_Tables_number   1
_chemical_formula_structural   Ba(NdS2)2
_chemical_formula_sum   'Ba4 Nd8 S16'
_cell_volume   778.67297402
_cell_formula_units_Z   4
loop_
 _symmetry_equiv_pos_site_id
 _symmetry_equiv_pos_as_xyz
  1  'x, y, z'
loop_
 _atom_site_type_symbol
 _atom_site_label
 _atom_site_symmetry_multiplicity
 _atom_site_fract_x
 _atom_site_fract_y
 _atom_site_fract_z
 _atom_site_occupancy
  Ba  Ba0  1  0.25000000  0.25296661  0.65876922  1
  Ba  Ba1  1  0.75000000  0.24703339  0.15876922  1
  Ba  Ba2  1  0.25000000  0.75296661  0.84123078  1
  Ba  Ba3  1  0.75000000  0.74703339  0.34123078  1
  Nd  Nd0  1  0.25000000  0.92242154  0.60715950  1
  Nd  Nd1  1  0.75000000  0.57757846  0.10715950  1
  Nd  Nd2  1  0.25000000  0.42242154  0.89284050  1
  Nd  Nd3  1  0.75000000  0.07757846  0.39284050  1
  Nd  Nd4  1  0.25000000  0.92425415  0.10464434  1
  Nd  Nd5  1  0.75000000  0.57574585  0.60464434  1
  Nd  Nd6  1  0.25000000  0.42425415  0.39535566  1
  Nd  Nd7  1  0.75000000  0.07574585  0.89535566  1
  S  S0  1  0.25000000  0.51607676  0.71759932  1
  S  S1  1  0.75000000  -0.01607676  0.21759932  1
  S  S2  1  0.25000000  0.01607676  0.78240068  1
  S  S3  1  0.75000000  0.48392324  0.28240068  1
  S  S4  1  0.25000000  0.63159085  0.47907686  1
  S  S5  1  0.75000000  0.86840915  0.97907686  1
  S  S6  1  0.25000000  0.13159085  0.02092314  1
  S  S7  1  0.75000000  0.36840915  0.52092314  1
  S  S8  1  0.25000000  0.71127524  0.17459013  1
  S  S9  1  0.75000000  0.78872476  0.67459013  1
  S  S10  1  0.25000000  0.21127524  0.32540987  1
  S  S11  1  0.75000000  0.28872476  0.82540987  1
  S  S12  1  0.25000000  0.92292908  0.41974004  1
  S  S13  1  0.75000000  0.57707092  0.91974004  1
  S  S14  1  0.25000000  0.42292908  0.08025996  1
  S  S15  1  0.75000000  0.07707092  0.58025996  1
loop_
_geom_bond_atom_site_label_1
_geom_bond_atom_site_label_2
_geom_bond_distance
_geom_bond_site_symmetry_2
Ba0 S15 3.248003 1_555
Ba0 S15 3.248003 1_455
Ba0 S7 3.271543 1_455
Ba0 S7 3.271543 1_555
Ba0 S11 3.287053 1_555
Ba0 S11 3.287053 1_455
Ba0 S0 3.381655 1_555
Ba0 S2 3.472190 1_555
Ba1 S14 3.248003 1_655
Ba1 S14 3.248003 1_555
Ba1 S6 3.271543 1_655
Ba1 S6 3.271543 1_555
Ba1 S10 3.287053 1_655
Ba1 S10 3.287053 1_555
Ba1 S1 3.381655 1_555
Ba1 S3 3.472190 1_555
Ba2 S13 3.248003 1_455
Ba2 S13 3.248003 1_555
Ba2 S5 3.271543 1_455
Ba2 S5 3.271543 1_555
Ba2 S9 3.287053 1_455
Ba2 S9 3.287053 1_555
Ba2 S2 3.381655 1_565
Ba2 S0 3.472190 1_555
Ba3 S12 3.248003 1_555
Ba3 S12 3.248003 1_655
Ba3 S4 3.271543 1_555
Ba3 S4 3.271543 1_655
Ba3 S8 3.287053 1_555
Ba3 S8 3.287053 1_655
Ba3 S3 3.381655 1_555
Ba3 S1 3.472190 1_565
Nd0 S12 2.800445 1_555
Nd0 S9 2.859415 1_455
Nd0 S9 2.859415 1_555
Nd0 S2 2.864857 1_565
Nd0 S15 2.872841 1_565
Nd0 S15 2.872841 1_465
Nd1 S13 2.800445 1_554
Nd1 S8 2.859415 1_555
Nd1 S8 2.859415 1_655
Nd1 S3 2.864857 1_555
Nd1 S14 2.872841 1_555
Nd1 S14 2.872841 1_655
Nd2 S14 2.800445 1_556
Nd2 S11 2.859415 1_455
Nd2 S11 2.859415 1_555
Nd2 S0 2.864857 1_555
Nd2 S13 2.872841 1_555
Nd2 S13 2.872841 1_455
Nd3 S15 2.800445 1_555
Nd3 S10 2.859415 1_555
Nd3 S10 2.859415 1_655
Nd3 S1 2.864857 1_555
Nd3 S12 2.872841 1_545
Nd3 S12 2.872841 1_645
Nd4 S1 2.793722 1_565
Nd4 S1 2.793722 1_465
Nd4 S8 2.842360 1_555
Nd4 S6 2.861179 1_565
Nd4 S5 2.899743 1_554
Nd4 S5 2.899743 1_454
Nd5 S0 2.793722 1_555
Nd5 S0 2.793722 1_655
Nd5 S9 2.842360 1_555
Nd5 S7 2.861179 1_555
Nd5 S4 2.899743 1_655
Nd5 S4 2.899743 1_555
Nd6 S3 2.793722 1_555
Nd6 S3 2.793722 1_455
Nd6 S10 2.842360 1_555
Nd6 S4 2.861179 1_555
Nd6 S7 2.899743 1_555
Nd6 S7 2.899743 1_455
Nd7 S2 2.793722 1_555
Nd7 S2 2.793722 1_655
Nd7 S11 2.842360 1_555
Nd7 S5 2.861179 1_545
Nd7 S6 2.899743 1_656
Nd7 S6 2.899743 1_556
