# generated using pymatgen
data_LiFe2(SiO4)2
_symmetry_space_group_name_H-M   'P 1'
_cell_length_a   10.90735927
_cell_length_b   10.90735927
_cell_length_c   11.84825800
_cell_angle_alpha   90.00000000
_cell_angle_beta   90.00000000
_cell_angle_gamma   119.99999554
_symmetry_Int_Tables_number   1
_chemical_formula_structural   LiFe2(SiO4)2
_chemical_formula_sum   'Li6 Fe12 Si12 O48'
_cell_volume   1220.74341413
_cell_formula_units_Z   6
loop_
 _symmetry_equiv_pos_site_id
 _symmetry_equiv_pos_as_xyz
  1  'x, y, z'
loop_
 _atom_site_type_symbol
 _atom_site_label
 _atom_site_symmetry_multiplicity
 _atom_site_fract_x
 _atom_site_fract_y
 _atom_site_fract_z
 _atom_site_occupancy
  Li  Li0  1  0.00000000  0.50000000  0.33333300  1
  Li  Li1  1  0.00000000  0.00000000  0.16666700  1
  Li  Li2  1  0.00000000  0.00000000  0.50000000  1
  Li  Li3  1  0.00000000  0.00000000  0.83333300  1
  Li  Li4  1  0.50000000  0.00000000  0.00000000  1
  Li  Li5  1  0.50000000  0.50000000  0.66666700  1
  Fe  Fe0  1  0.00000000  0.74667700  0.83333300  1
  Fe  Fe1  1  0.25332300  0.00000000  0.50000000  1
  Fe  Fe2  1  0.00000000  0.25332300  0.83333300  1
  Fe  Fe3  1  0.25100000  0.74900000  0.16666700  1
  Fe  Fe4  1  0.50200100  0.25100000  0.83333300  1
  Fe  Fe5  1  0.25100000  0.50200100  0.50000000  1
  Fe  Fe6  1  0.74900000  0.49799900  0.50000000  1
  Fe  Fe7  1  0.49799900  0.74900000  0.83333300  1
  Fe  Fe8  1  0.74900000  0.25100000  0.16666700  1
  Fe  Fe9  1  0.25332300  0.25332300  0.16666700  1
  Fe  Fe10  1  0.74667700  0.00000000  0.50000000  1
  Fe  Fe11  1  0.74667700  0.74667700  0.16666700  1
  Si  Si0  1  0.00000000  0.75387700  0.33333300  1
  Si  Si1  1  0.24612300  0.00000000  0.00000000  1
  Si  Si2  1  0.24798900  0.75201100  0.66666700  1
  Si  Si3  1  0.49597800  0.24798900  0.33333300  1
  Si  Si4  1  0.00000000  0.24612300  0.33333300  1
  Si  Si5  1  0.24798900  0.49597800  0.00000000  1
  Si  Si6  1  0.75201100  0.50402200  0.00000000  1
  Si  Si7  1  0.24612300  0.24612300  0.66666700  1
  Si  Si8  1  0.50402200  0.75201100  0.33333300  1
  Si  Si9  1  0.75201100  0.24798900  0.66666700  1
  Si  Si10  1  0.75387700  0.00000000  0.00000000  1
  Si  Si11  1  0.75387700  0.75387700  0.66666700  1
  O  O0  1  0.07873400  0.88514300  0.42403200  1
  O  O1  1  0.19359100  0.11485700  0.57596800  1
  O  O2  1  0.11485700  0.92126600  0.90930100  1
  O  O3  1  0.19359100  0.07873400  0.09069900  1
  O  O4  1  0.10135700  0.70231700  0.73488300  1
  O  O5  1  0.39904000  0.29768300  0.26511700  1
  O  O6  1  0.10612300  0.70908900  0.27033400  1
  O  O7  1  0.39703400  0.29091100  0.72966600  1
  O  O8  1  0.29091100  0.89387700  0.06300000  1
  O  O9  1  0.39703400  0.10612300  0.93700000  1
  O  O10  1  0.29768300  0.89864300  0.59845100  1
  O  O11  1  0.39904000  0.10135700  0.40154900  1
  O  O12  1  0.20743800  0.61848500  0.58275700  1
  O  O13  1  0.58895300  0.38151500  0.41724300  1
  O  O14  1  0.10135700  0.39904000  0.93178400  1
  O  O15  1  0.70231700  0.60096000  0.06821600  1
  O  O16  1  0.10612300  0.39703400  0.39633300  1
  O  O17  1  0.70908900  0.60296600  0.60366700  1
  O  O18  1  0.20743800  0.58895300  0.08391000  1
  O  O19  1  0.61848500  0.41104700  0.91609000  1
  O  O20  1  0.07873400  0.19359100  0.24263500  1
  O  O21  1  0.88514300  0.80640900  0.75736500  1
  O  O22  1  0.38151500  0.79256200  0.75057600  1
  O  O23  1  0.58895300  0.20743800  0.24942400  1
  O  O24  1  0.41104700  0.79256200  0.24942400  1
  O  O25  1  0.61848500  0.20743800  0.75057600  1
  O  O26  1  0.11485700  0.19359100  0.75736500  1
  O  O27  1  0.92126600  0.80640900  0.24263500  1
  O  O28  1  0.38151500  0.58895300  0.91609000  1
  O  O29  1  0.79256200  0.41104700  0.08391000  1
  O  O30  1  0.29091100  0.39703400  0.60366700  1
  O  O31  1  0.89387700  0.60296600  0.39633300  1
  O  O32  1  0.29768300  0.39904000  0.06821600  1
  O  O33  1  0.89864300  0.60096000  0.93178400  1
  O  O34  1  0.41104700  0.61848500  0.41724300  1
  O  O35  1  0.79256200  0.38151500  0.58275700  1
  O  O36  1  0.60096000  0.89864300  0.40154900  1
  O  O37  1  0.70231700  0.10135700  0.59845100  1
  O  O38  1  0.60296600  0.89387700  0.93700000  1
  O  O39  1  0.70908900  0.10612300  0.06300000  1
  O  O40  1  0.60296600  0.70908900  0.72966600  1
  O  O41  1  0.89387700  0.29091100  0.27033400  1
  O  O42  1  0.60096000  0.70231700  0.26511700  1
  O  O43  1  0.89864300  0.29768300  0.73488300  1
  O  O44  1  0.80640900  0.92126600  0.09069900  1
  O  O45  1  0.88514300  0.07873400  0.90930100  1
  O  O46  1  0.80640900  0.88514300  0.57596800  1
  O  O47  1  0.92126600  0.11485700  0.42403200  1
loop_
_geom_bond_atom_site_label_1
_geom_bond_atom_site_label_2
_geom_bond_distance
_geom_bond_site_symmetry_2
Li0 O6 2.111477 1_555
Li0 O41 2.111477 1_455
Li0 O16 2.111481 1_555
Li0 O31 2.111481 1_455
Li1 O3 2.047683 1_555
Li1 O20 2.047683 1_555
Li1 O44 2.047683 1_445
Li1 O27 2.047683 1_445
Li2 O0 2.047683 1_545
Li2 O47 2.047683 1_455
Li2 O1 2.047683 1_555
Li2 O46 2.047683 1_445
Li3 O45 2.047683 1_455
Li3 O2 2.047683 1_545
Li3 O26 2.047683 1_555
Li3 O21 2.047683 1_445
Li4 O9 2.111481 1_554
Li4 O38 2.111481 1_544
Li4 O39 2.111481 1_555
Li4 O8 2.111481 1_545
Li5 O40 2.111477 1_555
Li5 O7 2.111477 1_555
Li5 O17 2.111481 1_555
Li5 O30 2.111481 1_555
Fe0 O4 1.830811 1_555
Fe0 O33 1.830819 1_455
Fe0 O21 1.902715 1_455
Fe0 O2 1.902715 1_555
Fe1 O10 1.830819 1_545
Fe1 O11 1.830819 1_555
Fe1 O1 1.902715 1_555
Fe1 O0 1.902715 1_545
Fe2 O43 1.830811 1_455
Fe2 O14 1.830819 1_555
Fe2 O26 1.902715 1_555
Fe2 O45 1.902715 1_455
Fe3 O18 1.845311 1_555
Fe3 O24 1.845311 1_555
Fe3 O8 1.872796 1_555
Fe3 O6 1.872796 1_555
Fe4 O25 1.845302 1_555
Fe4 O19 1.845308 1_555
Fe4 O9 1.872798 1_555
Fe4 O7 1.872804 1_555
Fe5 O12 1.845302 1_555
Fe5 O34 1.845308 1_555
Fe5 O16 1.872798 1_555
Fe5 O30 1.872804 1_555
Fe6 O35 1.845302 1_555
Fe6 O13 1.845308 1_555
Fe6 O31 1.872798 1_555
Fe6 O17 1.872804 1_555
Fe7 O22 1.845302 1_555
Fe7 O28 1.845308 1_555
Fe7 O38 1.872798 1_555
Fe7 O40 1.872804 1_555
Fe8 O29 1.845311 1_555
Fe8 O23 1.845311 1_555
Fe8 O39 1.872796 1_555
Fe8 O41 1.872796 1_555
Fe9 O5 1.830811 1_555
Fe9 O32 1.830819 1_555
Fe9 O3 1.902715 1_555
Fe9 O20 1.902715 1_555
Fe10 O37 1.830819 1_555
Fe10 O36 1.830819 1_545
Fe10 O46 1.902715 1_545
Fe10 O47 1.902715 1_555
Fe11 O42 1.830811 1_555
Fe11 O15 1.830819 1_555
Fe11 O44 1.902715 1_555
Fe11 O27 1.902715 1_555
O0 Si0 1.647029 1_555
O1 Si7 1.647029 1_555
O2 Si1 1.647029 1_566
O3 Si1 1.647029 1_555
O4 Si2 1.624230 1_555
O5 Si3 1.624230 1_555
O6 Si0 1.643513 1_555
O7 Si7 1.643513 1_555
O8 Si1 1.643518 1_565
O9 Si1 1.643518 1_556
O10 Si2 1.624230 1_555
O11 Si3 1.624230 1_555
O12 Si2 1.631260 1_555
O13 Si3 1.631260 1_555
O14 Si5 1.624230 1_556
O15 Si6 1.624230 1_555
O16 Si4 1.643518 1_555
O17 Si11 1.643518 1_555
O18 Si5 1.631260 1_555
O19 Si6 1.631260 1_556
O20 Si4 1.647021 1_555
O21 Si11 1.647021 1_555
O22 Si2 1.631253 1_555
O23 Si3 1.631253 1_555
O24 Si8 1.631253 1_555
O25 Si9 1.631253 1_555
O26 Si7 1.647021 1_555
O27 Si0 1.647021 1_655
O28 Si5 1.631260 1_556
O29 Si6 1.631260 1_555
O30 Si7 1.643518 1_555
O31 Si0 1.643518 1_655
O32 Si5 1.624230 1_555
O33 Si6 1.624230 1_556
O34 Si8 1.631260 1_555
O35 Si9 1.631260 1_555
O36 Si8 1.624230 1_555
O37 Si9 1.624230 1_555
O38 Si10 1.643518 1_566
O39 Si10 1.643518 1_555
O40 Si11 1.643513 1_555
O41 Si4 1.643513 1_655
O42 Si8 1.624230 1_555
O43 Si9 1.624230 1_555
O44 Si10 1.647029 1_565
O45 Si10 1.647029 1_556
O46 Si11 1.647029 1_555
O47 Si4 1.647029 1_655
