# generated using pymatgen
data_Li4Ni2P4H3O16
_symmetry_space_group_name_H-M   'P 1'
_cell_length_a   4.97592000
_cell_length_b   7.56302775
_cell_length_c   8.17299908
_cell_angle_alpha   91.75559961
_cell_angle_beta   91.79278204
_cell_angle_gamma   101.35337972
_symmetry_Int_Tables_number   1
_chemical_formula_structural   Li4Ni2P4H3O16
_chemical_formula_sum   'Li4 Ni2 P4 H3 O16'
_cell_volume   301.19577641
_cell_formula_units_Z   1
loop_
 _symmetry_equiv_pos_site_id
 _symmetry_equiv_pos_as_xyz
  1  'x, y, z'
loop_
 _atom_site_type_symbol
 _atom_site_label
 _atom_site_symmetry_multiplicity
 _atom_site_fract_x
 _atom_site_fract_y
 _atom_site_fract_z
 _atom_site_occupancy
  Li  Li0  1  0.12095500  0.68663100  0.64651400  1
  Li  Li1  1  0.38570800  0.84210500  0.13050100  1
  Li  Li2  1  0.60364900  0.16237300  0.86971800  1
  Li  Li3  1  0.87794600  0.31404800  0.35157200  1
  Ni  Ni0  1  0.00075100  0.49617600  0.00291800  1
  Ni  Ni1  1  0.49813600  0.00159200  0.49856300  1
  P  P0  1  0.10089100  0.24635300  0.66683300  1
  P  P1  1  0.37511100  0.23696200  0.15050300  1
  P  P2  1  0.62397600  0.75497500  0.84640000  1
  P  P3  1  0.89654300  0.75452000  0.33229100  1
  H  H0  1  0.41515700  0.43480900  0.56850800  1
  H  H1  1  0.58233900  0.56320200  0.42799700  1
  H  H2  1  0.95045800  0.97800700  0.98605600  1
  O  O0  1  0.12303300  0.84499000  0.45317700  1
  O  O1  1  0.98559500  0.29834900  0.82933100  1
  O  O2  1  0.15126000  0.35572800  0.17579900  1
  O  O3  1  0.22225200  0.43832000  0.58203300  1
  O  O4  1  0.39428800  0.66119100  0.95140000  1
  O  O5  1  0.51463500  0.80129300  0.67874600  1
  O  O6  1  0.24796700  0.05739300  0.06017100  1
  O  O7  1  0.34505500  0.15288700  0.68342000  1
  O  O8  1  0.65231000  0.84806900  0.31553100  1
  O  O9  1  0.75232500  0.94369700  0.93840800  1
  O  O10  1  0.48231800  0.20267900  0.32429900  1
  O  O11  1  0.61050600  0.34002800  0.05144600  1
  O  O12  1  0.77706900  0.56310400  0.41844300  1
  O  O13  1  0.85406000  0.64516700  0.82449200  1
  O  O14  1  0.00913300  0.70189500  0.16916800  1
  O  O15  1  0.87545500  0.15536200  0.54586400  1
loop_
_geom_bond_atom_site_label_1
_geom_bond_atom_site_label_2
_geom_bond_distance
_geom_bond_site_symmetry_2
Li0 O5 1.985867 1_555
Li0 O13 1.990680 1_455
Li0 O0 2.010842 1_555
Li0 O3 2.094584 1_555
Li0 O12 2.517883 1_455
Li1 O8 1.973706 1_555
Li1 O4 1.980109 1_554
Li1 O6 1.980748 1_565
Li1 O14 2.002688 1_555
Li1 O9 2.466646 1_554
Li2 O7 1.952839 1_555
Li2 O11 1.966967 1_556
Li2 O1 2.017200 1_555
Li2 O9 2.027396 1_545
Li2 O6 2.424973 1_556
Li3 O10 1.985641 1_555
Li3 O2 1.998484 1_655
Li3 O15 2.018473 1_555
Li3 O12 2.103574 1_555
Li3 O3 2.534162 1_655
Ni0 O2 2.006136 1_555
Ni0 O1 2.018866 1_454
Ni0 O14 2.027323 1_555
Ni0 O13 2.070507 1_454
Ni0 O11 2.120533 1_455
Ni0 O4 2.165870 1_554
Ni1 O0 2.020770 1_545
Ni1 O15 2.023449 1_555
Ni1 O7 2.116930 1_555
Ni1 O8 2.119090 1_545
Ni1 O10 2.126137 1_555
Ni1 O5 2.155993 1_545
H0 O3 0.975084 1_555
H1 O12 0.974678 1_555
H2 O9 1.029580 1_555
H2 O6 1.578161 1_666
O0 P3 1.516488 1_455
O1 P0 1.533661 1_655
O2 P1 1.577088 1_555
O3 P0 1.641811 1_555
O4 P2 1.524886 1_555
O5 P2 1.534301 1_555
O6 P1 1.536480 1_555
O7 P0 1.525729 1_555
O8 P3 1.526535 1_555
O9 P2 1.598705 1_555
O10 P1 1.548886 1_555
O11 P1 1.540627 1_555
O12 P3 1.641584 1_555
O13 P2 1.552602 1_555
O14 P3 1.533532 1_455
O15 P0 1.514719 1_655
