# generated using pymatgen
data_Ni(C2O3)2
_symmetry_space_group_name_H-M   'P 1'
_cell_length_a   7.64425733
_cell_length_b   7.64425733
_cell_length_c   7.28169885
_cell_angle_alpha   61.62870902
_cell_angle_beta   61.62870902
_cell_angle_gamma   57.03373673
_symmetry_Int_Tables_number   1
_chemical_formula_structural   Ni(C2O3)2
_chemical_formula_sum   'Ni2 C8 O12'
_cell_volume   300.28705030
_cell_formula_units_Z   2
loop_
 _symmetry_equiv_pos_site_id
 _symmetry_equiv_pos_as_xyz
  1  'x, y, z'
loop_
 _atom_site_type_symbol
 _atom_site_label
 _atom_site_symmetry_multiplicity
 _atom_site_fract_x
 _atom_site_fract_y
 _atom_site_fract_z
 _atom_site_occupancy
  Ni  Ni0  1  0.00000000  0.50000000  0.50000000  1
  Ni  Ni1  1  0.50000000  0.00000000  0.00000000  1
  C  C0  1  0.97453800  0.74067800  0.06586000  1
  C  C1  1  0.25932200  0.02546200  0.43414000  1
  C  C2  1  0.02546200  0.25932200  0.93414000  1
  C  C3  1  0.74067800  0.97453800  0.56586000  1
  C  C4  1  0.08208100  0.83268300  0.84380200  1
  C  C5  1  0.16731700  0.91791900  0.65619800  1
  C  C6  1  0.91791900  0.16731700  0.15619800  1
  C  C7  1  0.83268300  0.08208100  0.34380200  1
  O  O0  1  0.09038700  0.64837300  0.19532000  1
  O  O1  1  0.35162700  0.90961300  0.30468000  1
  O  O2  1  0.90961300  0.35162700  0.80468000  1
  O  O3  1  0.64837300  0.09038700  0.69532000  1
  O  O4  1  0.78551800  0.75484600  0.11740400  1
  O  O5  1  0.24515400  0.21448200  0.38259600  1
  O  O6  1  0.21448200  0.24515400  0.88259600  1
  O  O7  1  0.75484600  0.78551800  0.61740400  1
  O  O8  1  0.20688100  0.52116200  0.52465400  1
  O  O9  1  0.47883800  0.79311900  0.97534600  1
  O  O10  1  0.79311900  0.47883800  0.47534600  1
  O  O11  1  0.52116200  0.20688100  0.02465400  1
loop_
_geom_bond_atom_site_label_1
_geom_bond_atom_site_label_2
_geom_bond_distance
_geom_bond_site_symmetry_2
Ni0 O8 1.770654 1_555
Ni0 O10 1.770654 1_455
Ni0 O0 1.921078 1_555
Ni0 O2 1.921078 1_455
Ni0 O7 2.192216 1_455
Ni0 O5 2.192216 1_555
Ni1 O11 1.770654 1_555
Ni1 O9 1.770654 1_544
Ni1 O3 1.921078 1_554
Ni1 O1 1.921078 1_545
Ni1 O4 2.192216 1_545
Ni1 O6 2.192216 1_554
C0 O4 1.262265 1_555
C0 O0 1.285299 1_655
C0 C4 1.438810 1_654
C1 O5 1.262265 1_555
C1 O1 1.285299 1_545
C1 C5 1.438810 1_545
C2 O6 1.262265 1_555
C2 O2 1.285299 1_455
C2 C6 1.438810 1_456
C3 O7 1.262265 1_555
C3 O3 1.285299 1_565
C3 C7 1.438810 1_565
C4 C5 1.218786 1_555
C6 C7 1.218786 1_555
