# generated using pymatgen
data_Tm2S2O
_symmetry_space_group_name_H-M   'P 1'
_cell_length_a   6.79725200
_cell_length_b   6.79789600
_cell_length_c   8.18507789
_cell_angle_alpha   80.48751912
_cell_angle_beta   90.00000000
_cell_angle_gamma   90.00000000
_symmetry_Int_Tables_number   1
_chemical_formula_structural   Tm2S2O
_chemical_formula_sum   'Tm8 S8 O4'
_cell_volume   373.00749205
_cell_formula_units_Z   4
loop_
 _symmetry_equiv_pos_site_id
 _symmetry_equiv_pos_as_xyz
  1  'x, y, z'
loop_
 _atom_site_type_symbol
 _atom_site_label
 _atom_site_symmetry_multiplicity
 _atom_site_fract_x
 _atom_site_fract_y
 _atom_site_fract_z
 _atom_site_occupancy
  Tm  Tm0  1  0.05333400  0.75079300  0.13888700  1
  Tm  Tm1  1  0.55333400  0.74920700  0.86111300  1
  Tm  Tm2  1  0.94666600  0.24920700  0.86111300  1
  Tm  Tm3  1  0.44666600  0.25079300  0.13888700  1
  Tm  Tm4  1  0.14600800  0.67555900  0.57493600  1
  Tm  Tm5  1  0.64600800  0.82444100  0.42506400  1
  Tm  Tm6  1  0.85399200  0.32444100  0.42506400  1
  Tm  Tm7  1  0.35399200  0.17555900  0.57493600  1
  S  S0  1  0.77742000  0.46951000  0.07470500  1
  S  S1  1  0.27742000  0.03049000  0.92529500  1
  S  S2  1  0.22258000  0.53049000  0.92529500  1
  S  S3  1  0.72258000  0.96951000  0.07470500  1
  S  S4  1  0.86904800  0.91898300  0.68156300  1
  S  S5  1  0.36904800  0.58101700  0.31843700  1
  S  S6  1  0.13095200  0.08101700  0.31843700  1
  S  S7  1  0.63095200  0.41898300  0.68156300  1
  O  O0  1  0.58698300  0.14999000  0.38328500  1
  O  O1  1  0.08698300  0.35001000  0.61671500  1
  O  O2  1  0.41301700  0.85001000  0.61671500  1
  O  O3  1  0.91301700  0.64999000  0.38328500  1
loop_
_geom_bond_atom_site_label_1
_geom_bond_atom_site_label_2
_geom_bond_distance
_geom_bond_site_symmetry_2
S0 Tm3 2.698688 1_555
S0 Tm2 2.736431 1_554
S0 Tm0 2.789549 1_655
S0 Tm1 2.809436 1_554
S0 Tm6 2.921040 1_555
S1 Tm2 2.698688 1_455
S1 Tm3 2.736431 1_556
S1 Tm1 2.789549 1_545
S1 Tm0 2.809436 1_546
S1 Tm7 2.921040 1_555
S2 Tm1 2.698688 1_555
S2 Tm0 2.736431 1_556
S2 Tm2 2.789549 1_455
S2 Tm3 2.809436 1_556
S2 Tm4 2.921040 1_555
S3 Tm0 2.698688 1_655
S3 Tm1 2.736431 1_554
S3 Tm3 2.789549 1_565
S3 Tm2 2.809436 1_564
S3 Tm5 2.921040 1_555
S4 Tm4 2.742510 1_655
S4 Tm1 2.745261 1_555
S4 Tm5 2.750492 1_555
S4 Tm2 2.927088 1_565
S4 Tm6 3.178453 1_565
S5 Tm5 2.742510 1_555
S5 Tm0 2.745261 1_555
S5 Tm4 2.750492 1_555
S5 Tm3 2.927088 1_555
S5 Tm7 3.178453 1_555
S6 Tm6 2.742510 1_455
S6 Tm3 2.745261 1_555
S6 Tm7 2.750492 1_555
S6 Tm0 2.927088 1_545
S6 Tm4 3.178453 1_545
S7 Tm7 2.742510 1_555
S7 Tm2 2.745261 1_555
S7 Tm6 2.750492 1_555
S7 Tm1 2.927088 1_555
S7 Tm5 3.178453 1_555
O0 Tm5 2.219314 1_545
O0 Tm3 2.219872 1_555
O0 Tm6 2.225151 1_555
O0 Tm7 2.255922 1_555
O1 Tm4 2.219314 1_555
O1 Tm2 2.219872 1_455
O1 Tm7 2.225151 1_555
O1 Tm6 2.255922 1_455
O2 Tm7 2.219314 1_565
O2 Tm1 2.219872 1_555
O2 Tm4 2.225151 1_555
O2 Tm5 2.255922 1_555
O3 Tm6 2.219314 1_555
O3 Tm0 2.219872 1_655
O3 Tm5 2.225151 1_555
O3 Tm4 2.255922 1_655
