# generated using pymatgen
data_Li6Mn3Nb(PO4)6
_symmetry_space_group_name_H-M   'P 1'
_cell_length_a   8.87386948
_cell_length_b   8.78554277
_cell_length_c   8.84635619
_cell_angle_alpha   60.83727404
_cell_angle_beta   60.02040626
_cell_angle_gamma   61.26314536
_symmetry_Int_Tables_number   1
_chemical_formula_structural   Li6Mn3Nb(PO4)6
_chemical_formula_sum   'Li6 Mn3 Nb1 P6 O24'
_cell_volume   495.33910008
_cell_formula_units_Z   1
loop_
 _symmetry_equiv_pos_site_id
 _symmetry_equiv_pos_as_xyz
  1  'x, y, z'
loop_
 _atom_site_type_symbol
 _atom_site_label
 _atom_site_symmetry_multiplicity
 _atom_site_fract_x
 _atom_site_fract_y
 _atom_site_fract_z
 _atom_site_occupancy
  Li  Li0  1  0.03382200  0.02629300  0.00998900  1
  Li  Li1  1  0.73054000  0.16328600  0.35321800  1
  Li  Li2  1  0.47130900  0.50209600  0.49010300  1
  Li  Li3  1  0.31187700  0.83710900  0.64392800  1
  Li  Li4  1  0.64357900  0.31147300  0.83461700  1
  Li  Li5  1  0.84095400  0.64412800  0.30629600  1
  Mn  Mn0  1  0.15012300  0.14652200  0.14584800  1
  Mn  Mn1  1  0.34914300  0.36437300  0.34967500  1
  Mn  Mn2  1  0.65462500  0.65747000  0.65264400  1
  Nb  Nb0  1  0.85013300  0.84696900  0.85338900  1
  P  P0  1  0.05499300  0.75466900  0.43442300  1
  P  P1  1  0.44403300  0.05093400  0.75356600  1
  P  P2  1  0.74723300  0.43773800  0.04887900  1
  P  P3  1  0.24629600  0.54039700  0.95323500  1
  P  P4  1  0.55027500  0.95715600  0.25433300  1
  P  P5  1  0.95261900  0.24859900  0.53487500  1
  O  O0  1  0.12512300  0.26410500  0.51347800  1
  O  O1  1  0.26929100  0.53251400  0.11557300  1
  O  O2  1  0.06598300  0.92712700  0.25792400  1
  O  O3  1  0.55832400  0.11024900  0.28463500  1
  O  O4  1  0.23689100  0.60679600  0.43811200  1
  O  O5  1  0.97314000  0.82060700  0.60689900  1
  O  O6  1  0.26086200  0.08341100  0.91342400  1
  O  O7  1  0.47578700  0.22337900  0.58923000  1
  O  O8  1  0.59974000  0.43988700  0.23904700  1
  O  O9  1  0.18407600  0.38416800  0.99578800  1
  O  O10  1  0.09415600  0.73447000  0.89675200  1
  O  O11  1  0.38871100  0.01146600  0.20226600  1
  O  O12  1  0.60824600  0.96695300  0.82803800  1
  O  O13  1  0.89923900  0.25233000  0.07358200  1
  O  O14  1  0.82087900  0.60351000  0.97552100  1
  O  O15  1  0.41463200  0.55074400  0.77104300  1
  O  O16  1  0.55950400  0.77301800  0.41861500  1
  O  O17  1  0.74138600  0.89988700  0.09346900  1
  O  O18  1  0.97244000  0.19913500  0.37859500  1
  O  O19  1  0.77777100  0.41754500  0.55360200  1
  O  O20  1  0.45521300  0.90238000  0.69997600  1
  O  O21  1  0.89810200  0.09392600  0.73038100  1
  O  O22  1  0.68067400  0.46792000  0.90334100  1
  O  O23  1  0.90827500  0.69425900  0.45269200  1
loop_
_geom_bond_atom_site_label_1
_geom_bond_atom_site_label_2
_geom_bond_distance
_geom_bond_site_symmetry_2
Li0 O13 1.955304 1_455
Li0 O6 1.968513 1_554
Li0 O2 2.043359 1_545
Li1 O8 2.083270 1_555
Li1 O13 2.124062 1_555
Li1 O3 2.192609 1_555
Li1 O7 2.226656 1_555
Li1 O18 2.440910 1_555
Li2 O4 2.022071 1_555
Li2 O8 2.141156 1_555
Li2 O7 2.148289 1_555
Li2 O15 2.488300 1_555
Li2 O16 2.550959 1_555
Li3 O20 1.949677 1_555
Li3 O15 2.118297 1_555
Li3 O16 2.155311 1_555
Li3 O10 2.222468 1_555
Li4 O22 1.953608 1_555
Li4 O19 2.077803 1_555
Li4 O15 2.178496 1_555
Li4 O21 2.256060 1_555
Li5 O23 1.951962 1_555
Li5 O16 2.098637 1_555
Li5 O19 2.160169 1_555
Li5 O17 2.237138 1_555
Mn0 O9 1.927728 1_554
Mn0 O18 1.980243 1_455
Mn0 O2 2.009310 1_545
Mn0 O6 2.017064 1_554
Mn0 O11 2.050067 1_555
Mn0 O13 2.254435 1_455
Mn1 O0 2.094903 1_555
Mn1 O1 2.109895 1_555
Mn1 O4 2.223846 1_555
Mn1 O8 2.225745 1_555
Mn1 O3 2.227284 1_555
Mn1 O7 2.402400 1_555
Mn2 O22 2.070728 1_555
Mn2 O20 2.100639 1_555
Mn2 O23 2.112592 1_555
Mn2 O16 2.214366 1_555
Mn2 O19 2.243446 1_555
Mn2 O15 2.290302 1_555
Nb0 O14 1.952203 1_555
Nb0 O12 1.960561 1_555
Nb0 O5 1.967299 1_555
Nb0 O17 2.034870 1_556
Nb0 O21 2.048635 1_565
Nb0 O10 2.053230 1_655
O0 P5 1.511121 1_455
O1 P3 1.513657 1_554
O2 P0 1.558005 1_555
O3 P4 1.532609 1_545
O4 P0 1.513006 1_555
O5 P0 1.593874 1_655
O6 P1 1.540577 1_555
O7 P1 1.530602 1_555
O8 P2 1.533044 1_555
O9 P3 1.532290 1_555
O10 P3 1.615522 1_555
O11 P4 1.511055 1_545
O12 P1 1.598032 1_565
O13 P2 1.534756 1_555
O14 P2 1.593610 1_556
O15 P3 1.555327 1_555
O16 P4 1.560812 1_555
O17 P4 1.618564 1_555
O18 P5 1.549233 1_555
O19 P5 1.551195 1_555
O20 P1 1.539299 1_565
O21 P5 1.605400 1_555
O22 P2 1.534085 1_556
O23 P0 1.540601 1_655
