# generated using pymatgen
data_SrSn(BO3)2
_symmetry_space_group_name_H-M   'P 1'
_cell_length_a   6.39088523
_cell_length_b   6.39088523
_cell_length_c   6.39088551
_cell_angle_alpha   46.05196459
_cell_angle_beta   46.05196459
_cell_angle_gamma   46.05195928
_symmetry_Int_Tables_number   1
_chemical_formula_structural   SrSn(BO3)2
_chemical_formula_sum   'Sr1 Sn1 B2 O6'
_cell_volume   123.42826070
_cell_formula_units_Z   1
loop_
 _symmetry_equiv_pos_site_id
 _symmetry_equiv_pos_as_xyz
  1  'x, y, z'
loop_
 _atom_site_type_symbol
 _atom_site_label
 _atom_site_symmetry_multiplicity
 _atom_site_fract_x
 _atom_site_fract_y
 _atom_site_fract_z
 _atom_site_occupancy
  Sr  Sr0  1  0.00000000  0.00000000  0.00000000  1
  Sn  Sn0  1  0.50000000  0.50000000  0.50000000  1
  B  B0  1  0.76501900  0.76501900  0.76501900  1
  B  B1  1  0.23498100  0.23498100  0.23498100  1
  O  O0  1  0.50859300  0.71805300  0.05773400  1
  O  O1  1  0.71805300  0.05773400  0.50859300  1
  O  O2  1  0.94226600  0.49140700  0.28194700  1
  O  O3  1  0.49140700  0.28194700  0.94226600  1
  O  O4  1  0.28194700  0.94226600  0.49140700  1
  O  O5  1  0.05773400  0.50859300  0.71805300  1
loop_
_geom_bond_atom_site_label_1
_geom_bond_atom_site_label_2
_geom_bond_distance
_geom_bond_site_symmetry_2
B0 O5 1.386877 1_655
B0 O1 1.386877 1_565
B0 O0 1.386877 1_556
B1 O2 1.386877 1_455
B1 O4 1.386877 1_545
B1 O3 1.386877 1_554
O0 Sn0 2.087480 1_555
O0 Sr0 2.561309 1_565
O1 Sn0 2.087480 1_555
O1 Sr0 2.561309 1_655
O2 Sn0 2.087480 1_555
O2 Sr0 2.561309 1_665
O3 Sn0 2.087480 1_555
O3 Sr0 2.561309 1_656
O4 Sn0 2.087480 1_555
O4 Sr0 2.561309 1_566
O5 Sn0 2.087480 1_555
O5 Sr0 2.561309 1_556
