# generated using pymatgen
data_NdAgAs2
_symmetry_space_group_name_H-M   'P 1'
_cell_length_a   4.03070706
_cell_length_b   4.07917538
_cell_length_c   21.34933284
_cell_angle_alpha   89.99778750
_cell_angle_beta   90.00036250
_cell_angle_gamma   90.00018049
_symmetry_Int_Tables_number   1
_chemical_formula_structural   NdAgAs2
_chemical_formula_sum   'Nd4 Ag4 As8'
_cell_volume   351.02489786
_cell_formula_units_Z   4
loop_
 _symmetry_equiv_pos_site_id
 _symmetry_equiv_pos_as_xyz
  1  'x, y, z'
loop_
 _atom_site_type_symbol
 _atom_site_label
 _atom_site_symmetry_multiplicity
 _atom_site_fract_x
 _atom_site_fract_y
 _atom_site_fract_z
 _atom_site_occupancy
  Nd  Nd0  1  0.25014611  0.72785546  0.11502519  1
  Nd  Nd1  1  0.75015384  0.22771343  0.38498798  1
  Nd  Nd2  1  0.24984703  0.77229013  0.61501092  1
  Nd  Nd3  1  0.74985868  0.27214181  0.88497876  1
  Ag  Ag0  1  0.75016098  0.72608750  0.24992454  1
  Ag  Ag1  1  0.25017484  0.22604946  0.25006498  1
  Ag  Ag2  1  0.74983985  0.77395644  0.74992938  1
  Ag  Ag3  1  0.24984934  0.27391223  0.75007167  1
  As  As0  1  0.75017931  0.22696538  0.16176636  1
  As  As1  1  0.25014782  0.72675724  0.33825207  1
  As  As2  1  0.74981728  0.27324819  0.66174945  1
  As  As3  1  0.24982714  0.77302608  0.83823212  1
  As  As4  1  0.25003345  0.19877051  0.00185544  1
  As  As5  1  0.75003206  0.69881167  0.49815637  1
  As  As6  1  0.24995701  0.30120332  0.50184628  1
  As  As7  1  0.74997726  0.80120716  0.99815148  1
loop_
_geom_bond_atom_site_label_1
_geom_bond_atom_site_label_2
_geom_bond_distance
_geom_bond_site_symmetry_2
Ag0 As1 2.759962 1_655
Ag0 As1 2.760056 1_555
Ag0 As0 2.772722 1_555
Ag0 As0 2.777879 1_565
Ag0 Ag1 2.867184 1_565
Ag0 Ag1 2.867254 1_665
Ag0 Ag1 2.867396 1_555
Ag0 Ag1 2.867483 1_655
Ag0 Nd0 3.515110 1_655
Ag0 Nd0 3.515158 1_555
Ag0 Nd1 3.528046 1_555
Ag0 Nd1 3.535835 1_565
Ag1 As0 2.759567 1_455
Ag1 As0 2.759610 1_555
Ag1 As1 2.773544 1_545
Ag1 As1 2.777894 1_555
Ag1 Nd1 3.515488 1_555
Ag1 Nd1 3.515606 1_455
Ag1 Nd0 3.527338 1_545
Ag1 Nd0 3.535719 1_555
Ag2 As3 2.759602 1_655
Ag2 As3 2.759695 1_555
Ag2 As2 2.773439 1_565
Ag2 As2 2.777792 1_555
Ag2 Ag3 2.867179 1_565
Ag2 Ag3 2.867223 1_665
Ag2 Ag3 2.867426 1_555
Ag2 Ag3 2.867489 1_655
Ag2 Nd2 3.515440 1_555
Ag2 Nd2 3.515495 1_655
Ag2 Nd3 3.527486 1_565
Ag2 Nd3 3.535907 1_555
Ag3 As2 2.759846 1_555
Ag3 As2 2.760017 1_455
Ag3 As3 2.772730 1_555
Ag3 As3 2.777936 1_545
Ag3 Nd3 3.515258 1_455
Ag3 Nd3 3.515280 1_555
Ag3 Nd2 3.528008 1_555
Ag3 Nd2 3.535779 1_545
As0 Nd0 3.033518 1_645
As0 Nd0 3.033679 1_545
As0 Nd0 3.038336 1_655
As0 Nd0 3.038513 1_555
As1 Nd1 3.033312 1_455
As1 Nd1 3.033345 1_555
As1 Nd1 3.038613 1_465
As1 Nd1 3.038629 1_565
As2 Nd2 3.033262 1_555
As2 Nd2 3.033421 1_655
As2 Nd2 3.038556 1_545
As2 Nd2 3.038732 1_645
As3 Nd3 3.033576 1_465
As3 Nd3 3.033728 1_565
As3 Nd3 3.038363 1_455
As3 Nd3 3.038531 1_555
As4 As7 2.587863 1_544
As4 As7 2.588207 1_444
As4 Nd0 3.086617 1_545
As4 Nd3 3.220964 1_554
As4 Nd3 3.221827 1_454
As4 Nd0 3.239737 1_555
As5 As6 2.587905 1_655
As5 As6 2.588369 1_555
As5 Nd1 3.087176 1_555
As5 Nd2 3.220611 1_655
As5 Nd2 3.221565 1_555
As5 Nd1 3.239093 1_565
As6 Nd2 3.087084 1_555
As6 Nd1 3.220647 1_455
As6 Nd1 3.221661 1_555
As6 Nd2 3.239064 1_545
As7 Nd3 3.086716 1_565
As7 Nd0 3.220922 1_556
As7 Nd0 3.221755 1_656
As7 Nd3 3.239731 1_555
