# generated using pymatgen
data_Li4V3Fe2Sb3O16
_symmetry_space_group_name_H-M   'P 1'
_cell_length_a   6.15848483
_cell_length_b   6.15848483
_cell_length_c   9.93696180
_cell_angle_alpha   89.74642908
_cell_angle_beta   89.74642908
_cell_angle_gamma   60.03256598
_symmetry_Int_Tables_number   1
_chemical_formula_structural   Li4V3Fe2Sb3O16
_chemical_formula_sum   'Li4 V3 Fe2 Sb3 O16'
_cell_volume   326.48915050
_cell_formula_units_Z   1
loop_
 _symmetry_equiv_pos_site_id
 _symmetry_equiv_pos_as_xyz
  1  'x, y, z'
loop_
 _atom_site_type_symbol
 _atom_site_label
 _atom_site_symmetry_multiplicity
 _atom_site_fract_x
 _atom_site_fract_y
 _atom_site_fract_z
 _atom_site_occupancy
  Li  Li0  1  0.66449600  0.66449600  0.87428600  1
  Li  Li1  1  0.99161200  0.99161200  0.99051800  1
  Li  Li2  1  0.99455100  0.99455100  0.50599300  1
  Li  Li3  1  0.32795900  0.32795900  0.40069800  1
  V  V0  1  0.83240800  0.83240800  0.21700600  1
  V  V1  1  0.66352500  0.17069000  0.71421400  1
  V  V2  1  0.17069000  0.66352500  0.71421400  1
  Fe  Fe0  1  0.67356700  0.67356700  0.51417800  1
  Fe  Fe1  1  0.34438700  0.34438700  0.97740700  1
  Sb  Sb0  1  0.83157800  0.33780800  0.21609000  1
  Sb  Sb1  1  0.33780800  0.83157800  0.21609000  1
  Sb  Sb2  1  0.17092300  0.17092300  0.71501900  1
  O  O0  1  0.84959200  0.31560200  0.60115600  1
  O  O1  1  0.51252500  0.51252500  0.32976000  1
  O  O2  1  0.66330800  0.66330800  0.10330500  1
  O  O3  1  0.00384400  0.00384400  0.32056600  1
  O  O4  1  0.00590100  0.00590100  0.81338200  1
  O  O5  1  0.31560200  0.84959200  0.60115600  1
  O  O6  1  0.96575900  0.51265700  0.32547700  1
  O  O7  1  0.51265700  0.96575900  0.32547700  1
  O  O8  1  0.15577800  0.15577800  0.10373000  1
  O  O9  1  0.84543500  0.84543500  0.60963800  1
  O  O10  1  0.47937700  0.03324900  0.83279400  1
  O  O11  1  0.03324900  0.47937700  0.83279400  1
  O  O12  1  0.32860000  0.32860000  0.60144300  1
  O  O13  1  0.69342800  0.15934400  0.10998100  1
  O  O14  1  0.48211800  0.48211800  0.83136600  1
  O  O15  1  0.15934400  0.69342800  0.10998100  1
loop_
_geom_bond_atom_site_label_1
_geom_bond_atom_site_label_2
_geom_bond_distance
_geom_bond_site_symmetry_2
Li0 O14 1.993410 1_555
Li0 O11 2.009075 1_655
Li0 O10 2.009075 1_565
Li0 O2 2.275724 1_556
Li1 O4 1.766002 1_665
Li1 O15 1.986197 1_656
Li1 O13 1.986197 1_566
Li1 O8 2.085944 1_666
Li2 O3 1.844739 1_665
Li2 O9 1.890274 1_555
Li2 O5 1.961167 1_655
Li2 O0 1.961167 1_565
Li3 O12 1.994842 1_555
Li3 O6 2.073794 1_455
Li3 O7 2.073794 1_545
Li3 O1 2.087424 1_555
Fe0 O9 2.068189 1_555
Fe0 O0 2.094292 1_555
Fe0 O5 2.094292 1_555
Fe0 O6 2.437469 1_555
Fe0 O7 2.437469 1_555
Fe0 O1 2.517998 1_555
Fe1 O14 2.059586 1_555
Fe1 O10 2.202301 1_555
Fe1 O11 2.202301 1_555
Fe1 O13 2.284590 1_556
Fe1 O15 2.284590 1_556
Fe1 O8 2.365612 1_556
O0 Sb2 2.059024 1_655
O0 V1 2.091177 1_555
O1 Sb0 2.042882 1_555
O1 Sb1 2.042882 1_555
O2 Sb1 2.064808 1_555
O2 Sb0 2.064808 1_555
O2 V0 2.133037 1_555
O3 Sb1 2.060197 1_545
O3 Sb0 2.060197 1_455
O3 V0 2.102659 1_445
O4 Sb2 2.008799 1_555
O4 V1 2.078137 1_455
O4 V2 2.078137 1_545
O5 Sb2 2.059024 1_565
O5 V2 2.091177 1_555
O6 Sb0 1.982709 1_555
O6 V0 2.021729 1_555
O7 Sb1 1.982709 1_555
O7 V0 2.021729 1_555
O8 Sb0 2.060334 1_455
O8 Sb1 2.060334 1_545
O9 V2 2.028187 1_655
O9 V1 2.028187 1_565
O10 Sb2 2.024579 1_555
O10 V1 2.080702 1_555
O11 Sb2 2.024579 1_555
O11 V2 2.080702 1_555
O12 Sb2 2.020453 1_555
O12 V2 2.112541 1_555
O12 V1 2.112541 1_555
O13 Sb0 1.998980 1_555
O13 V0 2.045730 1_545
O14 V1 2.037016 1_555
O14 V2 2.037016 1_555
O15 Sb1 1.998980 1_555
O15 V0 2.045730 1_455
