# generated using pymatgen
data_HfMgIr2
_symmetry_space_group_name_H-M   'P 1'
_cell_length_a   4.48298655
_cell_length_b   4.48298655
_cell_length_c   4.48298655
_cell_angle_alpha   60.00000000
_cell_angle_beta   60.00000000
_cell_angle_gamma   60.00000000
_symmetry_Int_Tables_number   1
_chemical_formula_structural   HfMgIr2
_chemical_formula_sum   'Hf1 Mg1 Ir2'
_cell_volume   63.70702283
_cell_formula_units_Z   1
loop_
 _symmetry_equiv_pos_site_id
 _symmetry_equiv_pos_as_xyz
  1  'x, y, z'
loop_
 _atom_site_type_symbol
 _atom_site_label
 _atom_site_symmetry_multiplicity
 _atom_site_fract_x
 _atom_site_fract_y
 _atom_site_fract_z
 _atom_site_occupancy
  Hf  Hf0  1  0.25000000  0.25000000  0.25000000  1
  Mg  Mg0  1  0.75000000  0.75000000  0.75000000  1
  Ir  Ir0  1  0.00000000  -0.00000000  0.00000000  1
  Ir  Ir1  1  0.50000000  0.50000000  0.50000000  1
loop_
_geom_bond_atom_site_label_1
_geom_bond_atom_site_label_2
_geom_bond_distance
_geom_bond_site_symmetry_2
Hf0 Ir1 2.745257 1_545
Hf0 Ir1 2.745257 1_555
Hf0 Ir0 2.745257 1_556
Hf0 Ir0 2.745257 1_655
Hf0 Ir1 2.745257 1_455
Hf0 Ir0 2.745257 1_565
Hf0 Ir1 2.745257 1_554
Hf0 Ir0 2.745257 1_555
Ir0 Mg0 2.745257 1_454
Ir0 Mg0 2.745257 1_444
Ir0 Mg0 2.745257 1_445
Ir0 Mg0 2.745257 1_544
Ir1 Mg0 2.745257 1_545
Ir1 Mg0 2.745257 1_555
Ir1 Mg0 2.745257 1_554
Ir1 Mg0 2.745257 1_455
