# generated using pymatgen
data_Mn6O7F5
_symmetry_space_group_name_H-M   'P 1'
_cell_length_a   4.62265650
_cell_length_b   5.68521997
_cell_length_c   15.29817092
_cell_angle_alpha   90.05685627
_cell_angle_beta   90.26115192
_cell_angle_gamma   87.77698803
_symmetry_Int_Tables_number   1
_chemical_formula_structural   Mn6O7F5
_chemical_formula_sum   'Mn12 O14 F10'
_cell_volume   401.74158026
_cell_formula_units_Z   2
loop_
 _symmetry_equiv_pos_site_id
 _symmetry_equiv_pos_as_xyz
  1  'x, y, z'
loop_
 _atom_site_type_symbol
 _atom_site_label
 _atom_site_symmetry_multiplicity
 _atom_site_fract_x
 _atom_site_fract_y
 _atom_site_fract_z
 _atom_site_occupancy
  Mn  Mn0  1  0.01668200  0.15301500  0.40736800  1
  Mn  Mn1  1  0.01873900  0.83762900  0.24261900  1
  Mn  Mn2  1  0.99575000  0.15344500  0.07900200  1
  Mn  Mn3  1  0.01957100  0.16709700  0.75155100  1
  Mn  Mn4  1  0.00928600  0.82566000  0.57550400  1
  Mn  Mn5  1  0.04219700  0.84794100  0.91493300  1
  Mn  Mn6  1  0.51959700  0.37569600  0.58881600  1
  Mn  Mn7  1  0.47877600  0.35082800  0.92509800  1
  Mn  Mn8  1  0.49872500  0.36418600  0.25886000  1
  Mn  Mn9  1  0.50028500  0.64860500  0.08657500  1
  Mn  Mn10  1  0.49771100  0.65481000  0.41639100  1
  Mn  Mn11  1  0.48407400  0.63708300  0.75277500  1
  O  O0  1  0.23436300  0.11508600  0.30083500  1
  O  O1  1  0.21973700  0.11249000  0.97210300  1
  O  O2  1  0.21305700  0.88117800  0.13504500  1
  O  O3  1  0.22117500  0.88674500  0.46561900  1
  O  O4  1  0.23488800  0.88273400  0.80754400  1
  O  O5  1  0.27266600  0.60510600  0.31064800  1
  O  O6  1  0.27790300  0.60813400  0.64494400  1
  O  O7  1  0.28355700  0.39435000  0.81296600  1
  O  O8  1  0.27237700  0.61477600  0.97703300  1
  O  O9  1  0.71393900  0.37797100  0.02911000  1
  O  O10  1  0.71965000  0.60931900  0.19488500  1
  O  O11  1  0.71960700  0.38000900  0.36236600  1
  O  O12  1  0.71704100  0.62027100  0.52580400  1
  O  O13  1  0.72946100  0.39455100  0.69522500  1
  F  F0  1  0.24544000  0.11153100  0.63369900  1
  F  F1  1  0.25737100  0.37948100  0.15159400  1
  F  F2  1  0.26015700  0.38046400  0.48567300  1
  F  F3  1  0.74446500  0.62237000  0.85912000  1
  F  F4  1  0.74800500  0.12484600  0.18967300  1
  F  F5  1  0.76657800  0.13113400  0.52538600  1
  F  F6  1  0.77505300  0.87878500  0.34761200  1
  F  F7  1  0.77144200  0.87166800  0.01515600  1
  F  F8  1  0.75598800  0.11571700  0.86505600  1
  F  F9  1  0.76468600  0.88528800  0.69341600  1
loop_
_geom_bond_atom_site_label_1
_geom_bond_atom_site_label_2
_geom_bond_distance
_geom_bond_site_symmetry_2
Mn0 O0 1.926812 1_555
Mn0 O3 1.965527 1_545
Mn0 O11 1.970006 1_455
Mn1 O2 1.899473 1_555
Mn1 O5 2.019826 1_555
Mn1 O10 2.063424 1_455
Mn1 O0 2.094275 1_565
Mn2 O9 1.942394 1_555
Mn2 O1 1.948506 1_654
Mn2 O2 2.003570 1_645
Mn3 O13 2.017501 1_455
Mn3 O7 2.037296 1_555
Mn3 O4 2.051388 1_545
Mn4 O12 1.969233 1_455
Mn4 O3 1.987072 1_555
Mn4 O6 2.017723 1_555
Mn5 O4 1.886579 1_555
Mn5 O8 1.917232 1_555
Mn5 O1 1.946062 1_565
Mn6 O13 1.896287 1_555
Mn6 O6 1.903626 1_555
Mn6 O12 1.950591 1_555
Mn7 O8 1.920119 1_555
Mn7 O9 1.932409 1_556
Mn7 O7 1.946191 1_555
Mn7 O1 1.980572 1_555
Mn8 O5 1.868175 1_555
Mn8 O11 1.884167 1_555
Mn8 O0 2.013597 1_555
Mn8 O10 2.016254 1_555
Mn9 O10 1.947176 1_555
Mn9 O2 1.982898 1_555
Mn9 O8 1.988517 1_554
Mn9 O9 2.000739 1_555
Mn10 O5 1.945640 1_555
Mn10 O3 1.953468 1_555
Mn10 O12 1.959064 1_555
Mn10 O11 2.014168 1_555
Mn11 O6 1.911528 1_555
Mn11 O7 1.928986 1_555
Mn11 O13 1.961740 1_555
Mn11 O4 1.964944 1_555
F0 Mn3 2.104978 1_555
F0 Mn6 2.119137 1_555
F0 Mn4 2.179822 1_545
F1 Mn8 1.980202 1_555
F1 Mn2 2.110156 1_455
F1 Mn9 2.176642 1_555
F2 Mn6 1.977154 1_555
F2 Mn0 2.114572 1_555
F2 Mn10 2.215567 1_555
F3 Mn11 2.019219 1_555
F3 Mn5 2.095690 1_655
F3 Mn7 2.252099 1_555
F4 Mn8 2.046042 1_555
F4 Mn2 2.058432 1_555
F4 Mn1 2.173367 1_645
F5 Mn6 2.015578 1_555
F5 Mn0 2.154637 1_655
F5 Mn4 2.169414 1_645
F6 Mn1 1.974558 1_655
F6 Mn10 2.124569 1_555
F6 Mn0 2.153351 1_665
F7 Mn5 1.984815 1_654
F7 Mn9 2.124075 1_555
F7 Mn2 2.170707 1_565
F8 Mn7 2.036639 1_555
F8 Mn5 2.118279 1_645
F8 Mn3 2.152443 1_655
F9 Mn4 2.152877 1_655
F9 Mn11 2.157258 1_555
F9 Mn3 2.209109 1_665
