# generated using pymatgen
data_SnS
_symmetry_space_group_name_H-M   'P 1'
_cell_length_a   4.12347904
_cell_length_b   4.12347765
_cell_length_c   11.01513752
_cell_angle_alpha   90.00000000
_cell_angle_beta   90.00000000
_cell_angle_gamma   89.04343830
_symmetry_Int_Tables_number   1
_chemical_formula_structural   SnS
_chemical_formula_sum   'Sn2 S2'
_cell_volume   187.26509372
_cell_formula_units_Z   2
loop_
 _symmetry_equiv_pos_site_id
 _symmetry_equiv_pos_as_xyz
  1  'x, y, z'
loop_
 _atom_site_type_symbol
 _atom_site_label
 _atom_site_symmetry_multiplicity
 _atom_site_fract_x
 _atom_site_fract_y
 _atom_site_fract_z
 _atom_site_occupancy
  Sn  Sn0  1  0.26268378  0.76268378  0.86686536  1
  Sn  Sn1  1  0.76268378  0.26268378  0.13313464  1
  S  S0  1  0.71331622  0.21331622  0.90225598  1
  S  S1  1  0.21331622  0.71331622  0.09774402  1
loop_
_geom_bond_atom_site_label_1
_geom_bond_atom_site_label_2
_geom_bond_distance
_geom_bond_site_symmetry_2
S0 Sn1 2.559673 1_556
S0 Sn0 2.678221 1_545
S0 Sn0 2.931866 1_555
S0 Sn0 2.931866 1_645
S1 Sn0 2.559673 1_554
S1 Sn1 2.678221 1_455
S1 Sn1 2.931866 1_465
S1 Sn1 2.931866 1_555
