# generated using pymatgen
data_ZrAsRu
_symmetry_space_group_name_H-M   'P 1'
_cell_length_a   6.60138623
_cell_length_b   6.60138538
_cell_length_c   3.91891128
_cell_angle_alpha   90.00000000
_cell_angle_beta   90.00000000
_cell_angle_gamma   119.99999918
_symmetry_Int_Tables_number   1
_chemical_formula_structural   ZrAsRu
_chemical_formula_sum   'Zr3 As3 Ru3'
_cell_volume   147.89936083
_cell_formula_units_Z   3
loop_
 _symmetry_equiv_pos_site_id
 _symmetry_equiv_pos_as_xyz
  1  'x, y, z'
loop_
 _atom_site_type_symbol
 _atom_site_label
 _atom_site_symmetry_multiplicity
 _atom_site_fract_x
 _atom_site_fract_y
 _atom_site_fract_z
 _atom_site_occupancy
  Zr  Zr0  1  0.41805964  0.41805964  0.50000000  1
  Zr  Zr1  1  0.58194036  0.00000000  0.50000000  1
  Zr  Zr2  1  -0.00000000  0.58194036  0.50000000  1
  As  As0  1  -0.00000000  0.00000000  0.50000000  1
  As  As1  1  0.66666700  0.33333300  0.00000000  1
  As  As2  1  0.33333300  0.66666700  -0.00000000  1
  Ru  Ru0  1  -0.00000000  0.24373390  -0.00000000  1
  Ru  Ru1  1  0.24373390  0.00000000  0.00000000  1
  Ru  Ru2  1  0.75626610  0.75626610  -0.00000000  1
loop_
_geom_bond_atom_site_label_1
_geom_bond_atom_site_label_2
_geom_bond_distance
_geom_bond_site_symmetry_2
As0 Ru0 2.535407 1_556
As0 Ru0 2.535407 1_555
As0 Ru2 2.535407 1_446
As0 Ru2 2.535407 1_445
As0 Ru1 2.535407 1_555
As0 Ru1 2.535407 1_556
As0 Zr2 2.759773 1_545
As0 Zr0 2.759773 1_555
As0 Zr1 2.759773 1_455
As1 Ru0 2.548214 1_655
As1 Ru1 2.548218 1_555
As1 Ru2 2.548220 1_555
As1 Zr1 2.786319 1_555
As1 Zr1 2.786319 1_554
As1 Zr2 2.786321 1_655
As1 Zr2 2.786321 1_654
As1 Zr0 2.786324 1_555
As1 Zr0 2.786324 1_554
As2 Ru1 2.548214 1_565
As2 Ru0 2.548218 1_555
As2 Ru2 2.548220 1_555
As2 Zr2 2.786319 1_555
As2 Zr2 2.786319 1_554
As2 Zr1 2.786320 1_565
As2 Zr1 2.786320 1_564
As2 Zr0 2.786324 1_555
As2 Zr0 2.786324 1_554
Ru0 Ru2 2.786838 1_445
Ru0 Ru1 2.786838 1_555
Ru0 Zr2 2.970540 1_554
Ru0 Zr2 2.970540 1_555
Ru0 Zr1 3.099066 1_454
Ru0 Zr1 3.099066 1_455
Ru0 Zr0 3.099066 1_555
Ru0 Zr0 3.099066 1_554
Ru1 Ru2 2.786838 1_445
Ru1 Zr1 2.970540 1_555
Ru1 Zr1 2.970540 1_554
Ru1 Zr0 3.099066 1_555
Ru1 Zr0 3.099066 1_554
Ru1 Zr2 3.099066 1_544
Ru1 Zr2 3.099066 1_545
Ru2 Zr0 2.970540 1_555
Ru2 Zr0 2.970540 1_554
Ru2 Zr1 3.099066 1_565
Ru2 Zr1 3.099066 1_564
Ru2 Zr2 3.099066 1_655
Ru2 Zr2 3.099066 1_654
