# generated using pymatgen
data_Mn6P4H2O17
_symmetry_space_group_name_H-M   'P 1'
_cell_length_a   10.03455215
_cell_length_b   10.03455215
_cell_length_c   8.24873980
_cell_angle_alpha   88.76449094
_cell_angle_beta   88.76449094
_cell_angle_gamma   123.75075285
_symmetry_Int_Tables_number   1
_chemical_formula_structural   Mn6P4H2O17
_chemical_formula_sum   'Mn12 P8 H4 O34'
_cell_volume   689.87650773
_cell_formula_units_Z   2
loop_
 _symmetry_equiv_pos_site_id
 _symmetry_equiv_pos_as_xyz
  1  'x, y, z'
loop_
 _atom_site_type_symbol
 _atom_site_label
 _atom_site_symmetry_multiplicity
 _atom_site_fract_x
 _atom_site_fract_y
 _atom_site_fract_z
 _atom_site_occupancy
  Mn  Mn0  1  0.35304900  0.18309900  0.57598100  1
  Mn  Mn1  1  0.81464700  0.06916700  0.16365500  1
  Mn  Mn2  1  0.69786800  0.31966500  0.97221000  1
  Mn  Mn3  1  0.83846500  0.24420200  0.62594700  1
  Mn  Mn4  1  0.71053800  0.47017300  0.39929000  1
  Mn  Mn5  1  0.18309900  0.35304900  0.07598100  1
  Mn  Mn6  1  0.88194200  0.71647200  0.04001700  1
  Mn  Mn7  1  0.06916700  0.81464700  0.66365500  1
  Mn  Mn8  1  0.31966500  0.69786800  0.47221000  1
  Mn  Mn9  1  0.24420200  0.83846500  0.12594700  1
  Mn  Mn10  1  0.47017300  0.71053800  0.89929000  1
  Mn  Mn11  1  0.71647200  0.88194200  0.54001700  1
  P  P0  1  0.07967100  0.01615200  0.30971600  1
  P  P1  1  0.56679000  0.08716700  0.32730200  1
  P  P2  1  0.01615200  0.07967100  0.80971600  1
  P  P3  1  0.67250300  0.57140900  0.70885100  1
  P  P4  1  0.97515900  0.46520900  0.27500700  1
  P  P5  1  0.08716700  0.56679000  0.82730200  1
  P  P6  1  0.57140900  0.67250300  0.20885100  1
  P  P7  1  0.46520900  0.97515900  0.77500700  1
  H  H0  1  0.38171400  0.21715400  0.11877600  1
  H  H1  1  0.37161400  0.22229200  0.92914300  1
  H  H2  1  0.22229200  0.37161400  0.42914300  1
  H  H3  1  0.21715400  0.38171400  0.61877600  1
  O  O0  1  0.20253200  0.19392700  0.25115800  1
  O  O1  1  0.43159600  0.21306300  0.01635000  1
  O  O2  1  0.53525200  0.21271600  0.39130100  1
  O  O3  1  0.64613400  0.13870100  0.15328900  1
  O  O4  1  0.69022700  0.07538400  0.42924400  1
  O  O5  1  0.62306200  0.14480300  0.77627400  1
  O  O6  1  0.54871700  0.41434100  0.62488900  1
  O  O7  1  0.89730200  0.07380000  0.68464900  1
  O  O8  1  0.99057400  0.14008300  0.97243500  1
  O  O9  1  0.68201200  0.61074600  0.22729900  1
  O  O10  1  0.71335900  0.53473100  0.87733400  1
  O  O11  1  0.99167200  0.33052400  0.21273000  1
  O  O12  1  0.89314200  0.42084300  0.44767200  1
  O  O13  1  0.86017400  0.48879600  0.17059500  1
  O  O14  1  0.92200800  0.40409900  0.82655700  1
  O  O15  1  0.19392700  0.20253200  0.75115800  1
  O  O16  1  0.82181900  0.65842900  0.58775600  1
  O  O17  1  0.21306300  0.43159600  0.51635000  1
  O  O18  1  0.14480300  0.62306200  0.27627400  1
  O  O19  1  0.21271600  0.53525200  0.89130100  1
  O  O20  1  0.13870100  0.64613400  0.65328900  1
  O  O21  1  0.07538400  0.69022700  0.92924400  1
  O  O22  1  0.97875900  0.90809100  0.83671000  1
  O  O23  1  0.41434100  0.54871700  0.12488900  1
  O  O24  1  0.07380000  0.89730200  0.18464900  1
  O  O25  1  0.14008300  0.99057400  0.47243500  1
  O  O26  1  0.53473100  0.71335900  0.37733400  1
  O  O27  1  0.61074600  0.68201200  0.72729900  1
  O  O28  1  0.40409900  0.92200800  0.32655700  1
  O  O29  1  0.33052400  0.99167200  0.71273000  1
  O  O30  1  0.42084300  0.89314200  0.94767200  1
  O  O31  1  0.48879600  0.86017400  0.67059500  1
  O  O32  1  0.65842900  0.82181900  0.08775600  1
  O  O33  1  0.90809100  0.97875900  0.33671000  1
loop_
_geom_bond_atom_site_label_1
_geom_bond_atom_site_label_2
_geom_bond_distance
_geom_bond_site_symmetry_2
Mn0 O6 2.101010 1_555
Mn0 O29 2.103904 1_545
Mn0 O25 2.142673 1_545
Mn0 O15 2.221296 1_555
Mn0 O2 2.237940 1_555
Mn1 O8 2.132235 1_554
Mn1 O3 2.160589 1_555
Mn1 O33 2.164959 1_545
Mn1 O32 2.189926 1_545
Mn1 O11 2.257787 1_555
Mn1 O4 2.517265 1_555
Mn2 O3 2.144795 1_556
Mn2 O10 2.200718 1_555
Mn2 O14 2.223088 1_555
Mn2 O5 2.228354 1_555
Mn2 O1 2.276260 1_556
Mn2 O13 2.318215 1_556
Mn3 O12 2.092252 1_555
Mn3 O7 2.145975 1_555
Mn3 O5 2.154057 1_555
Mn3 O14 2.166841 1_555
Mn3 O4 2.266643 1_555
Mn4 O9 2.112889 1_555
Mn4 O2 2.176128 1_555
Mn4 O12 2.189217 1_555
Mn4 O16 2.256074 1_555
Mn4 O6 2.286363 1_555
Mn4 O13 2.323586 1_555
Mn5 O23 2.101010 1_555
Mn5 O11 2.103904 1_455
Mn5 O8 2.142673 1_454
Mn5 O0 2.221296 1_555
Mn5 O19 2.237940 1_554
Mn6 O24 2.175552 1_655
Mn6 O10 2.182602 1_554
Mn6 O9 2.228811 1_555
Mn6 O22 2.273422 1_554
Mn6 O21 2.274660 1_654
Mn6 O13 2.399294 1_555
Mn7 O25 2.132235 1_555
Mn7 O20 2.160589 1_555
Mn7 O22 2.164959 1_455
Mn7 O16 2.189926 1_455
Mn7 O29 2.257787 1_555
Mn7 O21 2.517265 1_555
Mn8 O20 2.144795 1_555
Mn8 O26 2.200718 1_555
Mn8 O28 2.223088 1_555
Mn8 O18 2.228354 1_555
Mn8 O17 2.276260 1_555
Mn8 O31 2.318215 1_555
Mn9 O30 2.092252 1_554
Mn9 O24 2.145975 1_555
Mn9 O18 2.154057 1_555
Mn9 O28 2.166841 1_555
Mn9 O21 2.266643 1_554
Mn10 O27 2.112889 1_555
Mn10 O19 2.176128 1_555
Mn10 O30 2.189217 1_555
Mn10 O32 2.256074 1_556
Mn10 O23 2.286363 1_556
Mn10 O31 2.323586 1_555
Mn11 O7 2.175552 1_565
Mn11 O26 2.182602 1_555
Mn11 O27 2.228811 1_555
Mn11 O33 2.273422 1_555
Mn11 O4 2.274660 1_565
Mn11 O31 2.399294 1_555
H0 O1 0.985977 1_555
H1 O1 0.982877 1_556
H2 O17 0.982877 1_555
H3 O17 0.985977 1_555
O0 P0 1.558501 1_555
O2 P1 1.559007 1_555
O3 P1 1.556559 1_555
O4 P1 1.568011 1_555
O5 P7 1.553148 1_545
O6 P3 1.554185 1_555
O7 P2 1.570885 1_655
O8 P2 1.558222 1_655
O9 P6 1.551261 1_555
O10 P3 1.550864 1_555
O11 P4 1.546940 1_555
O12 P4 1.555331 1_555
O13 P4 1.570549 1_555
O14 P5 1.551242 1_655
O15 P2 1.558501 1_555
O16 P3 1.565017 1_555
O18 P4 1.553148 1_455
O19 P5 1.559007 1_555
O20 P5 1.556559 1_555
O21 P5 1.568011 1_555
O22 P2 1.554587 1_665
O23 P6 1.554185 1_555
O24 P0 1.570885 1_565
O25 P0 1.558222 1_565
O26 P6 1.550864 1_555
O27 P3 1.551261 1_555
O28 P1 1.551242 1_565
O29 P7 1.546940 1_555
O30 P7 1.555331 1_555
O31 P7 1.570549 1_555
O32 P6 1.565017 1_555
O33 P0 1.554587 1_665
