# generated using pymatgen
data_Li5Mn6(BO3)6
_symmetry_space_group_name_H-M   'P 1'
_cell_length_a   12.73864500
_cell_length_b   8.24527400
_cell_length_c   8.27892424
_cell_angle_alpha   60.20539733
_cell_angle_beta   90.00000000
_cell_angle_gamma   90.00000000
_symmetry_Int_Tables_number   1
_chemical_formula_structural   Li5Mn6(BO3)6
_chemical_formula_sum   'Li10 Mn12 B12 O36'
_cell_volume   754.61949324
_cell_formula_units_Z   2
loop_
 _symmetry_equiv_pos_site_id
 _symmetry_equiv_pos_as_xyz
  1  'x, y, z'
loop_
 _atom_site_type_symbol
 _atom_site_label
 _atom_site_symmetry_multiplicity
 _atom_site_fract_x
 _atom_site_fract_y
 _atom_site_fract_z
 _atom_site_occupancy
  Li  Li0  1  0.50000000  0.02066500  0.69947000  1
  Li  Li1  1  0.74790500  0.01710000  0.70217400  1
  Li  Li2  1  0.25209500  0.01710000  0.70217400  1
  Li  Li3  1  0.00000000  0.70165900  0.28144600  1
  Li  Li4  1  0.75126200  0.70165000  0.28096000  1
  Li  Li5  1  0.24873800  0.70165000  0.28096000  1
  Li  Li6  1  0.50000000  0.28090600  0.01655400  1
  Li  Li7  1  0.75074200  0.28137200  0.01640100  1
  Li  Li8  1  0.00000000  0.27894200  0.02105700  1
  Li  Li9  1  0.24925800  0.28137200  0.01640100  1
  Mn  Mn0  1  0.37582800  0.63807400  0.99762000  1
  Mn  Mn1  1  0.62417200  0.63807400  0.99762000  1
  Mn  Mn2  1  0.87640700  0.65061300  0.98098300  1
  Mn  Mn3  1  0.12359300  0.65061300  0.98098300  1
  Mn  Mn4  1  0.37665100  0.98110200  0.36716300  1
  Mn  Mn5  1  0.62334900  0.98110200  0.36716300  1
  Mn  Mn6  1  0.87607700  0.98702100  0.38268000  1
  Mn  Mn7  1  0.12392300  0.98702100  0.38268000  1
  Mn  Mn8  1  0.87618300  0.36165100  0.63905500  1
  Mn  Mn9  1  0.37616200  0.38162600  0.63054600  1
  Mn  Mn10  1  0.62383800  0.38162600  0.63054600  1
  Mn  Mn11  1  0.12381700  0.36165100  0.63905500  1
  B  B0  1  0.87154400  0.99924100  0.00668600  1
  B  B1  1  0.37147900  0.00645200  0.99307200  1
  B  B2  1  0.62852100  0.00645200  0.99307200  1
  B  B3  1  0.12845600  0.99924100  0.00668600  1
  B  B4  1  0.24994500  0.33320200  0.33121700  1
  B  B5  1  0.00000000  0.33712100  0.32484600  1
  B  B6  1  0.75005500  0.33320200  0.33121700  1
  B  B7  1  0.50000000  0.32570500  0.33774700  1
  B  B8  1  0.74994400  0.66595800  0.66675200  1
  B  B9  1  0.50000000  0.66725100  0.67338000  1
  B  B10  1  0.00000000  0.65945800  0.66842800  1
  B  B11  1  0.25005600  0.66595800  0.66675200  1
  O  O0  1  0.62216100  0.09056800  0.79911300  1
  O  O1  1  0.13956100  0.08147700  0.81725600  1
  O  O2  1  0.37783900  0.09056800  0.79911300  1
  O  O3  1  0.86043900  0.08147700  0.81725600  1
  O  O4  1  0.50000000  0.74422000  0.79055600  1
  O  O5  1  0.00000000  0.73740800  0.78100800  1
  O  O6  1  0.74967000  0.74651100  0.77945600  1
  O  O7  1  0.25033000  0.74651100  0.77945600  1
  O  O8  1  0.50000000  0.39859000  0.45680200  1
  O  O9  1  0.25050900  0.41849500  0.44022400  1
  O  O10  1  0.74949100  0.41849500  0.44022400  1
  O  O11  1  0.00000000  0.41621900  0.43859700  1
  O  O12  1  0.87718800  0.80463900  0.11820400  1
  O  O13  1  0.36029600  0.81617100  0.10078800  1
  O  O14  1  0.63970400  0.81617100  0.10078800  1
  O  O15  1  0.12281200  0.80463900  0.11820400  1
  O  O16  1  0.25094000  0.13924300  0.41668100  1
  O  O17  1  0.00000000  0.14576200  0.39715800  1
  O  O18  1  0.74906000  0.13924300  0.41668100  1
  O  O19  1  0.50000000  0.13284100  0.41526300  1
  O  O20  1  0.50000000  0.47280300  0.74999000  1
  O  O21  1  0.74750900  0.47270800  0.74441600  1
  O  O22  1  0.25249100  0.47270800  0.74441600  1
  O  O23  1  0.00000000  0.46513800  0.74488000  1
  O  O24  1  0.50000000  0.77986600  0.48315500  1
  O  O25  1  0.75269900  0.78009500  0.47308800  1
  O  O26  1  0.00000000  0.77666900  0.47445000  1
  O  O27  1  0.24730100  0.78009500  0.47308800  1
  O  O28  1  0.50000000  0.43892000  0.14602800  1
  O  O29  1  0.00000000  0.45188000  0.13275000  1
  O  O30  1  0.24836000  0.44234700  0.13865300  1
  O  O31  1  0.75164000  0.44234700  0.13865300  1
  O  O32  1  0.37453000  0.11826400  0.07679500  1
  O  O33  1  0.62547000  0.11826400  0.07679500  1
  O  O34  1  0.87518600  0.11022200  0.09138800  1
  O  O35  1  0.12481400  0.11022200  0.09138800  1
loop_
_geom_bond_atom_site_label_1
_geom_bond_atom_site_label_2
_geom_bond_distance
_geom_bond_site_symmetry_2
Li0 O0 1.976585 1_555
Li0 O2 1.976585 1_555
Li0 O4 2.013949 1_545
Li0 O19 2.056454 1_555
Li1 O3 1.935741 1_555
Li1 O6 1.992231 1_545
Li1 O0 2.014935 1_555
Li1 O18 2.058007 1_555
Li2 O1 1.935741 1_555
Li2 O7 1.992231 1_545
Li2 O2 2.014935 1_555
Li2 O16 2.058007 1_555
Li3 O15 1.963305 1_555
Li3 O12 1.963305 1_455
Li3 O26 1.979341 1_555
Li3 O11 2.046658 1_555
Li4 O14 1.932970 1_555
Li4 O25 1.992775 1_555
Li4 O12 1.993194 1_555
Li4 O10 2.032384 1_555
Li5 O13 1.932970 1_555
Li5 O27 1.992775 1_555
Li5 O15 1.993194 1_555
Li5 O9 2.032384 1_555
Li6 O20 1.975765 1_554
Li6 O33 1.984201 1_555
Li6 O32 1.984201 1_555
Li6 O28 2.057746 1_555
Li7 O33 1.984184 1_555
Li7 O34 2.004797 1_555
Li7 O21 2.007638 1_554
Li7 O31 2.030074 1_555
Li8 O34 1.999327 1_455
Li8 O35 1.999327 1_555
Li8 O23 2.023951 1_554
Li8 O29 2.049065 1_555
Li9 O32 1.984184 1_555
Li9 O35 2.004797 1_555
Li9 O22 2.007638 1_554
Li9 O30 2.030074 1_555
Mn0 O13 2.042421 1_556
Mn0 O28 2.168651 1_556
Mn0 O4 2.171572 1_555
Mn0 O30 2.175260 1_556
Mn0 O7 2.238872 1_555
Mn1 O14 2.042421 1_556
Mn1 O28 2.168651 1_556
Mn1 O4 2.171572 1_555
Mn1 O31 2.175260 1_556
Mn1 O6 2.238872 1_555
Mn2 O12 2.082630 1_556
Mn2 O5 2.134104 1_655
Mn2 O29 2.167128 1_656
Mn2 O6 2.168940 1_555
Mn2 O31 2.225126 1_556
Mn3 O15 2.082630 1_556
Mn3 O5 2.134104 1_555
Mn3 O29 2.167128 1_556
Mn3 O7 2.168940 1_555
Mn3 O30 2.225126 1_556
Mn4 O32 2.087307 1_565
Mn4 O24 2.135599 1_555
Mn4 O19 2.165180 1_565
Mn4 O27 2.187818 1_555
Mn4 O16 2.227988 1_565
Mn5 O33 2.087307 1_565
Mn5 O24 2.135599 1_555
Mn5 O19 2.165180 1_565
Mn5 O25 2.187818 1_555
Mn5 O18 2.227988 1_565
Mn6 O17 2.091748 1_665
Mn6 O34 2.100773 1_565
Mn6 O18 2.150269 1_565
Mn6 O25 2.161541 1_555
Mn6 O26 2.183548 1_655
Mn7 O17 2.091748 1_565
Mn7 O35 2.100773 1_565
Mn7 O16 2.150269 1_565
Mn7 O27 2.161541 1_555
Mn7 O26 2.183548 1_555
Mn8 O3 2.041184 1_555
Mn8 O11 2.168486 1_655
Mn8 O23 2.174015 1_655
Mn8 O10 2.183401 1_555
Mn8 O21 2.253862 1_555
Mn9 O8 2.092188 1_555
Mn9 O2 2.092609 1_555
Mn9 O22 2.153645 1_555
Mn9 O9 2.158977 1_555
Mn9 O20 2.184128 1_555
Mn10 O8 2.092188 1_555
Mn10 O0 2.092609 1_555
Mn10 O21 2.153645 1_555
Mn10 O10 2.158977 1_555
Mn10 O20 2.184128 1_555
Mn11 O1 2.041184 1_555
Mn11 O11 2.168486 1_555
Mn11 O23 2.174015 1_555
Mn11 O9 2.183401 1_555
Mn11 O22 2.253862 1_555
B0 O3 1.372040 1_564
B0 O12 1.399979 1_555
B0 O34 1.403189 1_565
B1 O13 1.373549 1_546
B1 O2 1.399756 1_555
B1 O32 1.402473 1_556
B2 O14 1.373549 1_546
B2 O0 1.399756 1_555
B2 O33 1.402473 1_556
B3 O1 1.372040 1_564
B3 O15 1.399979 1_555
B3 O35 1.403189 1_565
B4 O30 1.387824 1_555
B4 O16 1.390633 1_555
B4 O9 1.392764 1_555
B5 O17 1.381727 1_555
B5 O11 1.386571 1_555
B5 O29 1.388911 1_555
B6 O31 1.387824 1_555
B6 O18 1.390633 1_555
B6 O10 1.392764 1_555
B7 O28 1.385006 1_555
B7 O8 1.386109 1_555
B7 O19 1.387967 1_555
B8 O6 1.388395 1_555
B8 O21 1.391098 1_555
B8 O25 1.399303 1_555
B9 O24 1.374458 1_555
B9 O4 1.398448 1_555
B9 O20 1.400790 1_555
B10 O5 1.370075 1_555
B10 O23 1.399972 1_555
B10 O26 1.403790 1_555
B11 O7 1.388395 1_555
B11 O22 1.391098 1_555
B11 O27 1.399303 1_555
