# generated using pymatgen
data_V2CrFe
_symmetry_space_group_name_H-M   'P 1'
_cell_length_a   4.05468655
_cell_length_b   4.05493407
_cell_length_c   4.05474919
_cell_angle_alpha   60.00025772
_cell_angle_beta   59.99920655
_cell_angle_gamma   60.00130032
_symmetry_Int_Tables_number   1
_chemical_formula_structural   V2CrFe
_chemical_formula_sum   'V2 Cr1 Fe1'
_cell_volume   47.14032693
_cell_formula_units_Z   1
loop_
 _symmetry_equiv_pos_site_id
 _symmetry_equiv_pos_as_xyz
  1  'x, y, z'
loop_
 _atom_site_type_symbol
 _atom_site_label
 _atom_site_symmetry_multiplicity
 _atom_site_fract_x
 _atom_site_fract_y
 _atom_site_fract_z
 _atom_site_occupancy
  V  V0  1  0.49996844  0.50010699  0.49996134  1
  V  V1  1  0.00003530  0.99988656  0.00003333  1
  Cr  Cr0  1  0.24999233  0.25000795  0.25000417  1
  Fe  Fe0  1  0.75000193  0.74999650  0.74999816  1
loop_
_geom_bond_atom_site_label_1
_geom_bond_atom_site_label_2
_geom_bond_distance
_geom_bond_site_symmetry_2
Cr0 V1 2.482762 1_555
Cr0 V0 2.482836 1_545
Cr0 V0 2.483065 1_455
Cr0 V1 2.483095 1_546
Cr0 V1 2.483128 1_645
Cr0 V0 2.483140 1_554
Cr0 V0 2.483144 1_555
Cr0 V1 2.483200 1_545
Cr0 Fe0 2.867139 1_554
Cr0 Fe0 2.867149 1_445
Cr0 Fe0 2.867159 1_454
Cr0 Fe0 2.867161 1_455
Cr0 Fe0 2.867180 1_545
Cr0 Fe0 2.867261 1_544
Fe0 V0 2.482875 1_655
Fe0 V1 2.482876 1_556
Fe0 V0 2.482877 1_556
Fe0 V1 2.482882 1_655
Fe0 V1 2.482900 1_656
Fe0 V0 2.482904 1_555
Fe0 V1 2.483528 1_646
Fe0 V0 2.483530 1_565
