# generated using pymatgen
data_Er2(Ga3Co)3
_symmetry_space_group_name_H-M   'P 1'
_cell_length_a   7.24437046
_cell_length_b   7.24437046
_cell_length_c   9.30751811
_cell_angle_alpha   90.00000000
_cell_angle_beta   90.00000000
_cell_angle_gamma   119.73211200
_symmetry_Int_Tables_number   1
_chemical_formula_structural   Er2(Ga3Co)3
_chemical_formula_sum   'Er4 Ga18 Co6'
_cell_volume   424.16208692
_cell_formula_units_Z   2
loop_
 _symmetry_equiv_pos_site_id
 _symmetry_equiv_pos_as_xyz
  1  'x, y, z'
loop_
 _atom_site_type_symbol
 _atom_site_label
 _atom_site_symmetry_multiplicity
 _atom_site_fract_x
 _atom_site_fract_y
 _atom_site_fract_z
 _atom_site_occupancy
  Er  Er0  1  0.50287456  0.83128416  0.75000000  1
  Er  Er1  1  0.49712544  0.16871584  0.25000000  1
  Er  Er2  1  0.16871584  0.49712544  0.25000000  1
  Er  Er3  1  0.83128416  0.50287456  0.75000000  1
  Ga  Ga0  1  0.16375315  0.95048504  0.75000000  1
  Ga  Ga1  1  0.83624685  0.04951496  0.25000000  1
  Ga  Ga2  1  0.04951496  0.83624685  0.25000000  1
  Ga  Ga3  1  0.95048504  0.16375315  0.75000000  1
  Ga  Ga4  1  0.62225063  0.62225063  0.25000000  1
  Ga  Ga5  1  0.37774937  0.37774937  0.75000000  1
  Ga  Ga6  1  0.16565690  0.16565690  0.05863426  1
  Ga  Ga7  1  0.83434310  0.83434310  0.55863426  1
  Ga  Ga8  1  0.83434310  0.83434310  0.94136574  1
  Ga  Ga9  1  0.16565690  0.16565690  0.44136574  1
  Ga  Ga10  1  0.50087545  0.83437405  0.07152042  1
  Ga  Ga11  1  0.49912455  0.16562595  0.57152042  1
  Ga  Ga12  1  0.16562595  0.49912455  0.92847958  1
  Ga  Ga13  1  0.83437405  0.50087545  0.42847958  1
  Ga  Ga14  1  0.49912455  0.16562595  0.92847958  1
  Ga  Ga15  1  0.50087545  0.83437405  0.42847958  1
  Ga  Ga16  1  0.83437405  0.50087545  0.07152042  1
  Ga  Ga17  1  0.16562595  0.49912455  0.57152042  1
  Co  Co0  1  0.17102835  0.82897165  -0.00000000  1
  Co  Co1  1  0.50000000  0.50000000  0.50000000  1
  Co  Co2  1  0.50000000  0.50000000  -0.00000000  1
  Co  Co3  1  0.82897165  0.17102835  0.50000000  1
  Co  Co4  1  0.82897165  0.17102835  -0.00000000  1
  Co  Co5  1  0.17102835  0.82897165  0.50000000  1
loop_
_geom_bond_atom_site_label_1
_geom_bond_atom_site_label_2
_geom_bond_distance
_geom_bond_site_symmetry_2
Er0 Ga3 2.927308 1_565
Er0 Ga5 2.943227 1_555
Er0 Ga17 2.947466 1_555
Er0 Ga12 2.947466 1_555
Er0 Ga11 2.948244 1_565
Er0 Ga14 2.948244 1_565
Er0 Ga0 2.980845 1_555
Er0 Ga7 2.980993 1_555
Er0 Ga8 2.980993 1_555
Er0 Ga10 2.992730 1_556
Er0 Ga15 2.992730 1_555
Er1 Ga2 2.927308 1_545
Er1 Ga4 2.943227 1_555
Er1 Ga16 2.947466 1_555
Er1 Ga13 2.947466 1_555
Er1 Ga15 2.948244 1_545
Er1 Ga10 2.948244 1_545
Er1 Ga1 2.980845 1_555
Er1 Ga9 2.980993 1_555
Er1 Ga6 2.980993 1_555
Er1 Ga11 2.992730 1_555
Er1 Ga14 2.992730 1_554
Er2 Ga1 2.927308 1_455
Er2 Ga4 2.943227 1_555
Er2 Ga10 2.947466 1_555
Er2 Ga15 2.947466 1_555
Er2 Ga16 2.948244 1_455
Er2 Ga13 2.948244 1_455
Er2 Ga2 2.980845 1_555
Er2 Ga6 2.980993 1_555
Er2 Ga9 2.980993 1_555
Er2 Ga12 2.992730 1_554
Er2 Ga17 2.992730 1_555
Er3 Ga0 2.927308 1_655
Er3 Ga5 2.943227 1_555
Er3 Ga11 2.947466 1_555
Er3 Ga14 2.947466 1_555
Er3 Ga12 2.948244 1_655
Er3 Ga17 2.948244 1_655
Er3 Ga3 2.980845 1_555
Er3 Ga7 2.980993 1_555
Er3 Ga8 2.980993 1_555
Er3 Ga16 2.992730 1_556
Er3 Ga13 2.992730 1_555
Ga0 Ga3 2.672388 1_465
Ga0 Ga5 2.687824 1_565
Ga0 Ga14 2.708420 1_565
Ga0 Ga11 2.708420 1_565
Ga0 Ga7 2.753830 1_455
Ga0 Ga8 2.753830 1_455
Ga1 Ga2 2.672388 1_645
Ga1 Ga4 2.687824 1_545
Ga1 Ga10 2.708420 1_545
Ga1 Ga15 2.708420 1_545
Ga1 Ga6 2.753830 1_655
Ga1 Ga9 2.753830 1_655
Ga2 Ga4 2.687824 1_455
Ga2 Ga9 2.753830 1_565
Ga2 Ga6 2.753830 1_565
Ga3 Ga5 2.687824 1_655
Ga3 Ga7 2.753830 1_545
Ga3 Ga8 2.753830 1_545
Ga6 Ga8 2.645526 1_444
Ga7 Ga9 2.645526 1_665
Ga10 Ga4 2.689689 1_555
Ga10 Ga8 2.702588 1_554
Ga10 Ga14 2.749813 1_564
Ga10 Ga12 2.778270 1_554
Ga11 Ga5 2.689689 1_555
Ga11 Ga9 2.702588 1_555
Ga11 Ga15 2.749813 1_545
Ga11 Ga13 2.778270 1_555
Ga12 Ga5 2.689689 1_555
Ga12 Ga6 2.702588 1_556
Ga12 Ga3 2.708420 1_455
Ga12 Ga16 2.749813 1_456
Ga13 Ga4 2.689689 1_555
Ga13 Ga7 2.702588 1_555
Ga13 Ga2 2.708420 1_655
Ga13 Ga17 2.749813 1_655
Ga14 Ga5 2.689689 1_555
Ga14 Ga6 2.702588 1_556
Ga14 Ga16 2.778270 1_556
Ga15 Ga4 2.689689 1_555
Ga15 Ga7 2.702588 1_555
Ga15 Ga17 2.778270 1_555
Ga16 Ga4 2.689689 1_555
Ga16 Ga8 2.702588 1_554
Ga16 Ga2 2.708420 1_655
Ga17 Ga5 2.689689 1_555
Ga17 Ga9 2.702588 1_555
Ga17 Ga3 2.708420 1_455
Co0 Ga12 2.462067 1_554
Co0 Ga10 2.462067 1_555
Co0 Ga0 2.497613 1_554
Co0 Ga2 2.497613 1_555
Co0 Ga14 2.508138 1_564
Co0 Ga16 2.508138 1_455
Co0 Ga8 2.518445 1_454
Co0 Ga6 2.518445 1_565
Co1 Ga5 2.490997 1_555
Co1 Ga4 2.490997 1_555
Co1 Ga9 2.492388 1_555
Co1 Ga7 2.492388 1_555
Co1 Ga11 2.509105 1_555
Co1 Ga15 2.509105 1_555
Co1 Ga17 2.509105 1_555
Co1 Ga13 2.509105 1_555
Co2 Ga5 2.490997 1_554
Co2 Ga4 2.490997 1_555
Co2 Ga6 2.492388 1_555
Co2 Ga8 2.492388 1_554
Co2 Ga14 2.509105 1_554
Co2 Ga10 2.509105 1_555
Co2 Ga16 2.509105 1_555
Co2 Ga12 2.509105 1_554
Co3 Ga13 2.462067 1_555
Co3 Ga11 2.462067 1_555
Co3 Ga3 2.497613 1_555
Co3 Ga1 2.497613 1_555
Co3 Ga15 2.508138 1_545
Co3 Ga17 2.508138 1_655
Co3 Ga7 2.518445 1_545
Co3 Ga9 2.518445 1_655
Co4 Ga14 2.462067 1_554
Co4 Ga16 2.462067 1_555
Co4 Ga3 2.497613 1_554
Co4 Ga1 2.497613 1_555
Co4 Ga12 2.508138 1_654
Co4 Ga10 2.508138 1_545
Co4 Ga8 2.518445 1_544
Co4 Ga6 2.518445 1_655
Co5 Ga17 2.462067 1_555
Co5 Ga15 2.462067 1_555
Co5 Ga2 2.497613 1_555
Co5 Ga0 2.497613 1_555
Co5 Ga11 2.508138 1_565
Co5 Ga13 2.508138 1_455
Co5 Ga7 2.518445 1_455
Co5 Ga9 2.518445 1_565
