# generated using pymatgen
data_BaLu2NiO5
_symmetry_space_group_name_H-M   'P 1'
_cell_length_a   5.65254800
_cell_length_b   6.97120200
_cell_length_c   12.17122300
_cell_angle_alpha   90.00000000
_cell_angle_beta   90.00000000
_cell_angle_gamma   90.00000000
_symmetry_Int_Tables_number   1
_chemical_formula_structural   BaLu2NiO5
_chemical_formula_sum   'Ba4 Lu8 Ni4 O20'
_cell_volume   479.60769862
_cell_formula_units_Z   4
loop_
 _symmetry_equiv_pos_site_id
 _symmetry_equiv_pos_as_xyz
  1  'x, y, z'
loop_
 _atom_site_type_symbol
 _atom_site_label
 _atom_site_symmetry_multiplicity
 _atom_site_fract_x
 _atom_site_fract_y
 _atom_site_fract_z
 _atom_site_occupancy
  Ba  Ba0  1  0.25000000  0.57837400  0.40268600  1
  Ba  Ba1  1  0.25000000  0.92162600  0.90268600  1
  Ba  Ba2  1  0.75000000  0.42162600  0.59731400  1
  Ba  Ba3  1  0.75000000  0.07837400  0.09731400  1
  Lu  Lu0  1  0.25000000  0.37742700  0.79166100  1
  Lu  Lu1  1  0.25000000  0.12257300  0.29166100  1
  Lu  Lu2  1  0.75000000  0.62257300  0.20833900  1
  Lu  Lu3  1  0.75000000  0.87742700  0.70833900  1
  Lu  Lu4  1  0.25000000  0.10000300  0.57376200  1
  Lu  Lu5  1  0.25000000  0.39999700  0.07376200  1
  Lu  Lu6  1  0.75000000  0.89999700  0.42623800  1
  Lu  Lu7  1  0.75000000  0.60000300  0.92623800  1
  Ni  Ni0  1  0.25000000  0.80501400  0.15608400  1
  Ni  Ni1  1  0.25000000  0.69498600  0.65608400  1
  Ni  Ni2  1  0.75000000  0.19498600  0.84391600  1
  Ni  Ni3  1  0.75000000  0.30501400  0.34391600  1
  O  O0  1  0.99863200  0.33419300  0.93464200  1
  O  O1  1  0.50136800  0.16580700  0.43464200  1
  O  O2  1  0.49863200  0.66580700  0.06535800  1
  O  O3  1  0.00136800  0.83419300  0.56535800  1
  O  O4  1  0.00136800  0.66580700  0.06535800  1
  O  O5  1  0.49863200  0.83419300  0.56535800  1
  O  O6  1  0.50136800  0.33419300  0.93464200  1
  O  O7  1  0.99863200  0.16580700  0.43464200  1
  O  O8  1  0.49882300  0.13440600  0.72495300  1
  O  O9  1  0.00117700  0.36559400  0.22495300  1
  O  O10  1  0.99882300  0.86559400  0.27504700  1
  O  O11  1  0.50117700  0.63440600  0.77504700  1
  O  O12  1  0.50117700  0.86559400  0.27504700  1
  O  O13  1  0.99882300  0.63440600  0.77504700  1
  O  O14  1  0.00117700  0.13440600  0.72495300  1
  O  O15  1  0.49882300  0.36559400  0.22495300  1
  O  O16  1  0.25000000  0.42060100  0.60455900  1
  O  O17  1  0.25000000  0.07939900  0.10455900  1
  O  O18  1  0.75000000  0.57939900  0.39544100  1
  O  O19  1  0.75000000  0.92060100  0.89544100  1
loop_
_geom_bond_atom_site_label_1
_geom_bond_atom_site_label_2
_geom_bond_distance
_geom_bond_site_symmetry_2
Ba0 O16 2.691981 1_555
Ba0 O18 2.827658 1_455
Ba0 O18 2.827658 1_555
Ba0 O12 2.904878 1_555
Ba0 O10 2.904878 1_455
Ba0 O15 2.976244 1_555
Ba0 O9 2.976244 1_555
Ba0 O5 3.012578 1_555
Ba0 O3 3.012578 1_555
Ba0 O1 3.231413 1_555
Ba0 O7 3.231413 1_455
Ba1 O17 2.691981 1_566
Ba1 O19 2.827658 1_555
Ba1 O19 2.827658 1_455
Ba1 O11 2.904878 1_555
Ba1 O13 2.904878 1_455
Ba1 O8 2.976244 1_565
Ba1 O14 2.976244 1_565
Ba1 O2 3.012578 1_556
Ba1 O4 3.012578 1_556
Ba1 O6 3.231413 1_565
Ba1 O0 3.231413 1_465
Ba2 O18 2.691981 1_555
Ba2 O16 2.827658 1_655
Ba2 O16 2.827658 1_555
Ba2 O14 2.904878 1_655
Ba2 O8 2.904878 1_555
Ba2 O13 2.976244 1_555
Ba2 O11 2.976244 1_555
Ba2 O7 3.012578 1_555
Ba2 O1 3.012578 1_555
Ba2 O3 3.231413 1_655
Ba2 O5 3.231413 1_555
Ba3 O19 2.691981 1_544
Ba3 O17 2.827658 1_555
Ba3 O17 2.827658 1_655
Ba3 O9 2.904878 1_655
Ba3 O15 2.904878 1_555
Ba3 O10 2.976244 1_545
Ba3 O12 2.976244 1_545
Ba3 O0 3.012578 1_554
Ba3 O6 3.012578 1_554
Ba3 O4 3.231413 1_645
Ba3 O2 3.231413 1_545
Lu0 O6 2.266758 1_555
Lu0 O0 2.266758 1_455
Lu0 O11 2.294776 1_555
Lu0 O13 2.294776 1_455
Lu0 O16 2.297063 1_555
Lu0 O8 2.346816 1_555
Lu0 O14 2.346816 1_555
Lu1 O1 2.266758 1_555
Lu1 O7 2.266758 1_455
Lu1 O12 2.294776 1_545
Lu1 O10 2.294776 1_445
Lu1 O17 2.297063 1_555
Lu1 O15 2.346816 1_555
Lu1 O9 2.346816 1_555
Lu2 O4 2.266758 1_655
Lu2 O2 2.266758 1_555
Lu2 O9 2.294776 1_655
Lu2 O15 2.294776 1_555
Lu2 O18 2.297063 1_555
Lu2 O10 2.346816 1_555
Lu2 O12 2.346816 1_555
Lu3 O3 2.266758 1_655
Lu3 O5 2.266758 1_555
Lu3 O14 2.294776 1_665
Lu3 O8 2.294776 1_565
Lu3 O19 2.297063 1_555
Lu3 O13 2.346816 1_555
Lu3 O11 2.346816 1_555
Lu4 O1 2.257529 1_555
Lu4 O7 2.257529 1_455
Lu4 O16 2.266169 1_555
Lu4 O5 2.327937 1_545
Lu4 O3 2.327937 1_545
Lu4 O8 2.328514 1_555
Lu4 O14 2.328514 1_555
Lu5 O6 2.257529 1_554
Lu5 O0 2.257529 1_454
Lu5 O17 2.266169 1_555
Lu5 O2 2.327937 1_555
Lu5 O4 2.327937 1_555
Lu5 O15 2.328514 1_555
Lu5 O9 2.328514 1_555
Lu6 O3 2.257529 1_655
Lu6 O5 2.257529 1_555
Lu6 O18 2.266169 1_555
Lu6 O7 2.327937 1_565
Lu6 O1 2.327937 1_565
Lu6 O10 2.328514 1_555
Lu6 O12 2.328514 1_555
Lu7 O4 2.257529 1_656
Lu7 O2 2.257529 1_556
Lu7 O19 2.266169 1_555
Lu7 O0 2.327937 1_555
Lu7 O6 2.327937 1_555
Lu7 O13 2.328514 1_555
Lu7 O11 2.328514 1_555
Ni0 O17 2.012973 1_565
Ni0 O2 2.033784 1_555
Ni0 O4 2.033784 1_555
Ni0 O12 2.071386 1_555
Ni0 O10 2.071386 1_455
Ni1 O16 2.012973 1_555
Ni1 O5 2.033784 1_555
Ni1 O3 2.033784 1_555
Ni1 O11 2.071386 1_555
Ni1 O13 2.071386 1_455
Ni2 O19 2.012973 1_545
Ni2 O0 2.033784 1_555
Ni2 O6 2.033784 1_555
Ni2 O14 2.071386 1_655
Ni2 O8 2.071386 1_555
Ni3 O18 2.012973 1_555
Ni3 O7 2.033784 1_555
Ni3 O1 2.033784 1_555
Ni3 O9 2.071386 1_655
Ni3 O15 2.071386 1_555
