# generated using pymatgen
data_KTl2Bi
_symmetry_space_group_name_H-M   'P 1'
_cell_length_a   5.73012325
_cell_length_b   5.73012916
_cell_length_c   5.73012547
_cell_angle_alpha   59.99992758
_cell_angle_beta   60.00002135
_cell_angle_gamma   59.99998298
_symmetry_Int_Tables_number   1
_chemical_formula_structural   KTl2Bi
_chemical_formula_sum   'K1 Tl2 Bi1'
_cell_volume   133.03848326
_cell_formula_units_Z   1
loop_
 _symmetry_equiv_pos_site_id
 _symmetry_equiv_pos_as_xyz
  1  'x, y, z'
loop_
 _atom_site_type_symbol
 _atom_site_label
 _atom_site_symmetry_multiplicity
 _atom_site_fract_x
 _atom_site_fract_y
 _atom_site_fract_z
 _atom_site_occupancy
  K  K0  1  0.75000000  0.75000000  0.75000000  1
  Tl  Tl0  1  -0.00000000  0.00000000  0.00000000  1
  Tl  Tl1  1  0.50000000  0.50000000  0.50000000  1
  Bi  Bi0  1  0.24999900  0.24999900  0.24999900  1
loop_
_geom_bond_atom_site_label_1
_geom_bond_atom_site_label_2
_geom_bond_distance
_geom_bond_site_symmetry_2
K0 Tl1 3.508970 1_556
K0 Tl0 3.508970 1_665
K0 Tl1 3.508970 1_655
K0 Tl0 3.508970 1_566
K0 Tl1 3.508971 1_565
K0 Tl0 3.508971 1_656
K0 Tl0 3.508972 1_666
K0 Tl1 3.508972 1_555
Bi0 Tl0 3.508958 1_555
Bi0 Tl1 3.508965 1_554
Bi0 Tl1 3.508966 1_455
Bi0 Tl1 3.508966 1_545
Bi0 Tl0 3.508974 1_556
Bi0 Tl0 3.508975 1_655
Bi0 Tl0 3.508975 1_565
Bi0 Tl1 3.508986 1_555
