# generated using pymatgen
data_Pr5Al2Ru3
_symmetry_space_group_name_H-M   'P 1'
_cell_length_a   8.57985719
_cell_length_b   8.57985719
_cell_length_c   8.57985719
_cell_angle_alpha   109.47122063
_cell_angle_beta   109.47122063
_cell_angle_gamma   109.47122063
_symmetry_Int_Tables_number   1
_chemical_formula_structural   Pr5Al2Ru3
_chemical_formula_sum   'Pr10 Al4 Ru6'
_cell_volume   486.20373102
_cell_formula_units_Z   2
loop_
 _symmetry_equiv_pos_site_id
 _symmetry_equiv_pos_as_xyz
  1  'x, y, z'
loop_
 _atom_site_type_symbol
 _atom_site_label
 _atom_site_symmetry_multiplicity
 _atom_site_fract_x
 _atom_site_fract_y
 _atom_site_fract_z
 _atom_site_occupancy
  Pr  Pr0  1  0.25000000  0.68430454  0.43430554  1
  Pr  Pr1  1  0.75000000  0.81569546  0.06569546  1
  Pr  Pr2  1  0.43430554  0.25000000  0.68430454  1
  Pr  Pr3  1  0.68430454  0.43430554  0.25000000  1
  Pr  Pr4  1  0.06569546  0.75000000  0.81569546  1
  Pr  Pr5  1  0.81569546  0.06569546  0.75000000  1
  Pr  Pr6  1  0.21327168  0.21327168  0.21327168  1
  Pr  Pr7  1  0.50000100  -0.00000000  0.28672832  1
  Pr  Pr8  1  0.28672832  0.50000100  -0.00000000  1
  Pr  Pr9  1  -0.00000000  0.28672832  0.50000100  1
  Al  Al0  1  0.58895551  0.58895551  0.58895551  1
  Al  Al1  1  0.50000100  -0.00000000  0.91104449  1
  Al  Al2  1  0.91104449  0.50000100  -0.00000000  1
  Al  Al3  1  0.00000000  0.91104449  0.50000100  1
  Ru  Ru0  1  0.25000100  0.11586499  0.86586599  1
  Ru  Ru1  1  0.75000000  0.38413301  0.63413401  1
  Ru  Ru2  1  0.86586599  0.25000100  0.11586499  1
  Ru  Ru3  1  0.11586499  0.86586599  0.25000100  1
  Ru  Ru4  1  0.63413401  0.75000000  0.38413301  1
  Ru  Ru5  1  0.38413301  0.63413401  0.75000000  1
loop_
_geom_bond_atom_site_label_1
_geom_bond_atom_site_label_2
_geom_bond_distance
_geom_bond_site_symmetry_2
Pr0 Ru5 2.806375 1_555
Pr0 Ru3 2.806388 1_555
Pr0 Ru2 3.351785 1_455
Pr0 Ru4 3.351796 1_555
Pr1 Ru3 2.806378 1_655
Pr1 Ru5 2.806389 1_554
Pr1 Ru4 3.351779 1_555
Pr1 Ru2 3.351799 1_565
Pr2 Ru1 2.806375 1_555
Pr2 Ru0 2.806388 1_555
Pr2 Ru3 3.351785 1_545
Pr2 Ru5 3.351796 1_555
Pr3 Ru4 2.806375 1_555
Pr3 Ru2 2.806388 1_555
Pr3 Ru0 3.351785 1_554
Pr3 Ru1 3.351796 1_555
Pr4 Ru0 2.806378 1_565
Pr4 Ru1 2.806389 1_455
Pr4 Ru5 3.351779 1_555
Pr4 Ru3 3.351799 1_556
Pr5 Ru2 2.806378 1_556
Pr5 Ru4 2.806389 1_545
Pr5 Ru1 3.351779 1_555
Pr5 Ru0 3.351799 1_655
Pr6 Ru3 2.970413 1_545
Pr6 Ru0 2.970413 1_554
Pr6 Ru2 2.970413 1_455
Pr7 Ru4 2.970401 1_545
Pr7 Ru1 2.970404 1_555
Pr7 Ru3 2.970429 1_545
Pr8 Ru5 2.970401 1_554
Pr8 Ru4 2.970404 1_555
Pr8 Ru0 2.970429 1_554
Pr9 Ru1 2.970401 1_455
Pr9 Ru5 2.970404 1_555
Pr9 Ru2 2.970429 1_455
Al0 Ru4 2.619845 1_555
Al0 Ru5 2.619845 1_555
Al0 Ru1 2.619845 1_555
Al0 Pr6 3.223314 1_555
Al0 Pr0 3.259545 1_555
Al0 Pr2 3.259545 1_555
Al0 Pr3 3.259545 1_555
Al0 Pr1 3.400002 1_556
Al0 Pr5 3.400002 1_565
Al0 Pr4 3.400002 1_655
Al1 Ru0 2.619831 1_555
Al1 Ru2 2.619833 1_556
Al1 Ru5 2.619834 1_545
Al1 Pr7 3.223314 1_556
Al1 Pr1 3.259541 1_546
Al1 Pr4 3.259554 1_545
Al1 Pr3 3.259555 1_556
Al1 Pr5 3.399994 1_555
Al1 Pr0 3.399995 1_545
Al1 Pr2 3.400002 1_555
Al2 Ru2 2.619831 1_555
Al2 Ru3 2.619833 1_655
Al2 Ru1 2.619834 1_554
Al2 Pr8 3.223314 1_655
Al2 Pr4 3.259541 1_654
Al2 Pr5 3.259554 1_554
Al2 Pr0 3.259555 1_655
Al2 Pr1 3.399994 1_555
Al2 Pr2 3.399995 1_554
Al2 Pr3 3.400002 1_555
Al3 Ru3 2.619831 1_555
Al3 Ru0 2.619833 1_565
Al3 Ru4 2.619834 1_455
Al3 Pr9 3.223314 1_565
Al3 Pr5 3.259541 1_465
Al3 Pr1 3.259554 1_455
Al3 Pr2 3.259555 1_565
Al3 Pr4 3.399994 1_555
Al3 Pr3 3.399995 1_455
Al3 Pr0 3.400002 1_555
