# generated using pymatgen
data_Li2V2(SO4)3
_symmetry_space_group_name_H-M   'P 1'
_cell_length_a   8.78587700
_cell_length_b   8.90339000
_cell_length_c   24.38849100
_cell_angle_alpha   90.00000000
_cell_angle_beta   90.00000000
_cell_angle_gamma   90.00000000
_symmetry_Int_Tables_number   1
_chemical_formula_structural   Li2V2(SO4)3
_chemical_formula_sum   'Li16 V16 S24 O96'
_cell_volume   1907.76750088
_cell_formula_units_Z   8
loop_
 _symmetry_equiv_pos_site_id
 _symmetry_equiv_pos_as_xyz
  1  'x, y, z'
loop_
 _atom_site_type_symbol
 _atom_site_label
 _atom_site_symmetry_multiplicity
 _atom_site_fract_x
 _atom_site_fract_y
 _atom_site_fract_z
 _atom_site_occupancy
  Li  Li0  1  0.03723300  0.62237500  0.29070500  1
  Li  Li1  1  0.03723300  0.87762500  0.79070500  1
  Li  Li2  1  0.14428100  0.93160000  0.00950400  1
  Li  Li3  1  0.14428100  0.56840000  0.50950400  1
  Li  Li4  1  0.35571900  0.06840000  0.50950400  1
  Li  Li5  1  0.35571900  0.43160000  0.00950400  1
  Li  Li6  1  0.46276700  0.12237500  0.29070500  1
  Li  Li7  1  0.46276700  0.37762500  0.79070500  1
  Li  Li8  1  0.53723300  0.62237500  0.20929500  1
  Li  Li9  1  0.53723300  0.87762500  0.70929500  1
  Li  Li10  1  0.64428100  0.56840000  0.99049600  1
  Li  Li11  1  0.64428100  0.93160000  0.49049600  1
  Li  Li12  1  0.85571900  0.43160000  0.49049600  1
  Li  Li13  1  0.85571900  0.06840000  0.99049600  1
  Li  Li14  1  0.96276700  0.12237500  0.20929500  1
  Li  Li15  1  0.96276700  0.37762500  0.70929500  1
  V  V0  1  0.00329200  0.40035500  0.06281600  1
  V  V1  1  0.00329200  0.09964500  0.56281600  1
  V  V2  1  0.99831100  0.79652600  0.17947200  1
  V  V3  1  0.99831100  0.70347400  0.67947200  1
  V  V4  1  0.50168900  0.29652600  0.17947200  1
  V  V5  1  0.50168900  0.20347400  0.67947200  1
  V  V6  1  0.49670800  0.59964500  0.56281600  1
  V  V7  1  0.49670800  0.90035500  0.06281600  1
  V  V8  1  0.50329200  0.40035500  0.43718400  1
  V  V9  1  0.50329200  0.09964500  0.93718400  1
  V  V10  1  0.49831100  0.70347400  0.82052800  1
  V  V11  1  0.49831100  0.79652600  0.32052800  1
  V  V12  1  0.00168900  0.29652600  0.32052800  1
  V  V13  1  0.00168900  0.20347400  0.82052800  1
  V  V14  1  0.99670800  0.90035500  0.43718400  1
  V  V15  1  0.99670800  0.59964500  0.93718400  1
  S  S0  1  0.14410700  0.94670000  0.29952900  1
  S  S1  1  0.14410700  0.55330000  0.79952900  1
  S  S2  1  0.14863200  0.25410300  0.44797200  1
  S  S3  1  0.14863200  0.24589700  0.94797200  1
  S  S4  1  0.19499500  0.09312500  0.11632600  1
  S  S5  1  0.19499500  0.40687500  0.61632600  1
  S  S6  1  0.30500500  0.59312500  0.11632600  1
  S  S7  1  0.30500500  0.90687500  0.61632600  1
  S  S8  1  0.35136800  0.75410300  0.44797200  1
  S  S9  1  0.35136800  0.74589700  0.94797200  1
  S  S10  1  0.35589300  0.44670000  0.29952900  1
  S  S11  1  0.35589300  0.05330000  0.79952900  1
  S  S12  1  0.64410700  0.55330000  0.70047100  1
  S  S13  1  0.64410700  0.94670000  0.20047100  1
  S  S14  1  0.64863200  0.25410300  0.05202800  1
  S  S15  1  0.64863200  0.24589700  0.55202800  1
  S  S16  1  0.69499500  0.09312500  0.38367400  1
  S  S17  1  0.69499500  0.40687500  0.88367400  1
  S  S18  1  0.80500500  0.59312500  0.38367400  1
  S  S19  1  0.80500500  0.90687500  0.88367400  1
  S  S20  1  0.85136800  0.75410300  0.05202800  1
  S  S21  1  0.85136800  0.74589700  0.55202800  1
  S  S22  1  0.85589300  0.44670000  0.20047100  1
  S  S23  1  0.85589300  0.05330000  0.70047100  1
  O  O0  1  0.06524000  0.38948200  0.46566800  1
  O  O1  1  0.06524000  0.11051800  0.96566800  1
  O  O2  1  0.08260700  0.09253500  0.27874800  1
  O  O3  1  0.08260700  0.40746500  0.77874800  1
  O  O4  1  0.08435400  0.11376600  0.47590400  1
  O  O5  1  0.08435400  0.38623400  0.97590400  1
  O  O6  1  0.08897900  0.91323900  0.35479500  1
  O  O7  1  0.08897900  0.58676100  0.85479500  1
  O  O8  1  0.09432800  0.18853100  0.08306500  1
  O  O9  1  0.09432800  0.31146900  0.58306500  1
  O  O10  1  0.09387100  0.82266200  0.26206400  1
  O  O11  1  0.09387100  0.67733800  0.76206400  1
  O  O12  1  0.09801300  0.01034700  0.15691800  1
  O  O13  1  0.09801300  0.48965300  0.65691800  1
  O  O14  1  0.13973400  0.23137300  0.38854600  1
  O  O15  1  0.13973400  0.26862700  0.88854600  1
  O  O16  1  0.18588100  0.45512600  0.29774200  1
  O  O17  1  0.18588100  0.04487400  0.79774200  1
  O  O18  1  0.18964700  0.67881000  0.14634200  1
  O  O19  1  0.18964700  0.82119000  0.64634200  1
  O  O20  1  0.18957600  0.76319200  0.46651300  1
  O  O21  1  0.18957600  0.73680800  0.96651300  1
  O  O22  1  0.23164700  0.01677500  0.57764300  1
  O  O23  1  0.23164700  0.48322500  0.07764300  1
  O  O24  1  0.26835300  0.98322500  0.07764300  1
  O  O25  1  0.26835300  0.51677500  0.57764300  1
  O  O26  1  0.31042400  0.23680800  0.96651300  1
  O  O27  1  0.31042400  0.26319200  0.46651300  1
  O  O28  1  0.31035300  0.17881000  0.14634200  1
  O  O29  1  0.31035300  0.32119000  0.64634200  1
  O  O30  1  0.31411900  0.95512600  0.29774200  1
  O  O31  1  0.31411900  0.54487400  0.79774200  1
  O  O32  1  0.36026600  0.73137300  0.38854600  1
  O  O33  1  0.36026600  0.76862700  0.88854600  1
  O  O34  1  0.40198700  0.51034700  0.15691800  1
  O  O35  1  0.40198700  0.98965300  0.65691800  1
  O  O36  1  0.40612900  0.32266200  0.26206400  1
  O  O37  1  0.40612900  0.17733800  0.76206400  1
  O  O38  1  0.40567200  0.68853100  0.08306500  1
  O  O39  1  0.40567200  0.81146900  0.58306500  1
  O  O40  1  0.41102100  0.08676100  0.85479500  1
  O  O41  1  0.41102100  0.41323900  0.35479500  1
  O  O42  1  0.41564600  0.61376600  0.47590400  1
  O  O43  1  0.41564600  0.88623400  0.97590400  1
  O  O44  1  0.41739300  0.59253500  0.27874800  1
  O  O45  1  0.41739300  0.90746500  0.77874800  1
  O  O46  1  0.43476000  0.61051800  0.96566800  1
  O  O47  1  0.43476000  0.88948200  0.46566800  1
  O  O48  1  0.56524000  0.38948200  0.03433200  1
  O  O49  1  0.56524000  0.11051800  0.53433200  1
  O  O50  1  0.58260700  0.09253500  0.22125200  1
  O  O51  1  0.58260700  0.40746500  0.72125200  1
  O  O52  1  0.58435400  0.11376600  0.02409600  1
  O  O53  1  0.58435400  0.38623400  0.52409600  1
  O  O54  1  0.58897900  0.58676100  0.64520500  1
  O  O55  1  0.58897900  0.91323900  0.14520500  1
  O  O56  1  0.59432800  0.18853100  0.41693500  1
  O  O57  1  0.59432800  0.31146900  0.91693500  1
  O  O58  1  0.59387100  0.82266200  0.23793600  1
  O  O59  1  0.59387100  0.67733800  0.73793600  1
  O  O60  1  0.59801300  0.01034700  0.34308200  1
  O  O61  1  0.59801300  0.48965300  0.84308200  1
  O  O62  1  0.63973400  0.23137300  0.11145400  1
  O  O63  1  0.63973400  0.26862700  0.61145400  1
  O  O64  1  0.68588100  0.45512600  0.20225800  1
  O  O65  1  0.68588100  0.04487400  0.70225800  1
  O  O66  1  0.68964700  0.67881000  0.35365800  1
  O  O67  1  0.68964700  0.82119000  0.85365800  1
  O  O68  1  0.68957600  0.76319200  0.03348700  1
  O  O69  1  0.68957600  0.73680800  0.53348700  1
  O  O70  1  0.73164700  0.48322500  0.42235700  1
  O  O71  1  0.73164700  0.01677500  0.92235700  1
  O  O72  1  0.76835300  0.98322500  0.42235700  1
  O  O73  1  0.76835300  0.51677500  0.92235700  1
  O  O74  1  0.81042400  0.26319200  0.03348700  1
  O  O75  1  0.81042400  0.23680800  0.53348700  1
  O  O76  1  0.81035300  0.17881000  0.35365800  1
  O  O77  1  0.81035300  0.32119000  0.85365800  1
  O  O78  1  0.81411900  0.54487400  0.70225800  1
  O  O79  1  0.81411900  0.95512600  0.20225800  1
  O  O80  1  0.86026600  0.73137300  0.11145400  1
  O  O81  1  0.86026600  0.76862700  0.61145400  1
  O  O82  1  0.90198700  0.51034700  0.34308200  1
  O  O83  1  0.90198700  0.98965300  0.84308200  1
  O  O84  1  0.90612900  0.32266200  0.23793600  1
  O  O85  1  0.90612900  0.17733800  0.73793600  1
  O  O86  1  0.90567200  0.68853100  0.41693500  1
  O  O87  1  0.90567200  0.81146900  0.91693500  1
  O  O88  1  0.91102100  0.41323900  0.14520500  1
  O  O89  1  0.91102100  0.08676100  0.64520500  1
  O  O90  1  0.91564600  0.61376600  0.02409600  1
  O  O91  1  0.91564600  0.88623400  0.52409600  1
  O  O92  1  0.91739300  0.59253500  0.22125200  1
  O  O93  1  0.91739300  0.90746500  0.72125200  1
  O  O94  1  0.93476000  0.61051800  0.53433200  1
  O  O95  1  0.93476000  0.88948200  0.03433200  1
loop_
_geom_bond_atom_site_label_1
_geom_bond_atom_site_label_2
_geom_bond_distance
_geom_bond_site_symmetry_2
Li0 O10 1.978752 1_555
Li0 O16 1.988081 1_555
Li0 O82 2.009615 1_455
Li0 O92 2.012044 1_455
Li1 O11 1.978752 1_555
Li1 O17 1.988081 1_565
Li1 O83 2.009615 1_455
Li1 O93 2.012044 1_455
Li2 O95 1.973806 1_455
Li2 O24 2.039889 1_555
Li2 O1 2.040292 1_564
Li2 O21 2.065313 1_554
Li2 O43 2.553225 1_554
Li3 O94 1.973806 1_455
Li3 O25 2.039889 1_555
Li3 O0 2.040292 1_555
Li3 O20 2.065313 1_555
Li3 O42 2.553225 1_555
Li4 O49 1.973806 1_555
Li4 O22 2.039889 1_555
Li4 O47 2.040292 1_545
Li4 O27 2.065313 1_555
Li4 O4 2.553225 1_555
Li5 O48 1.973806 1_555
Li5 O23 2.039889 1_555
Li5 O46 2.040292 1_554
Li5 O26 2.065313 1_554
Li5 O5 2.553225 1_554
Li6 O36 1.978752 1_555
Li6 O30 1.988081 1_545
Li6 O60 2.009615 1_555
Li6 O50 2.012044 1_555
Li7 O37 1.978752 1_555
Li7 O31 1.988081 1_555
Li7 O61 2.009615 1_555
Li7 O51 2.012044 1_555
Li8 O58 1.978752 1_555
Li8 O64 1.988081 1_555
Li8 O34 2.009615 1_555
Li8 O44 2.012044 1_555
Li9 O59 1.978752 1_555
Li9 O65 1.988081 1_565
Li9 O35 2.009615 1_555
Li9 O45 2.012044 1_555
Li10 O46 1.973806 1_555
Li10 O73 2.039889 1_555
Li10 O48 2.040292 1_556
Li10 O68 2.065313 1_556
Li10 O90 2.553225 1_556
Li11 O47 1.973806 1_555
Li11 O72 2.039889 1_555
Li11 O49 2.040292 1_565
Li11 O69 2.065313 1_555
Li11 O91 2.553225 1_555
Li12 O0 1.973806 1_655
Li12 O70 2.039889 1_555
Li12 O94 2.040292 1_555
Li12 O75 2.065313 1_555
Li12 O53 2.553225 1_555
Li13 O1 1.973806 1_655
Li13 O71 2.039889 1_555
Li13 O95 2.040292 1_546
Li13 O74 2.065313 1_556
Li13 O52 2.553225 1_556
Li14 O84 1.978752 1_555
Li14 O79 1.988081 1_545
Li14 O12 2.009615 1_655
Li14 O2 2.012044 1_655
Li15 O85 1.978752 1_555
Li15 O78 1.988081 1_555
Li15 O13 2.009615 1_655
Li15 O3 2.012044 1_655
O0 S2 1.475091 1_555
O1 S3 1.475091 1_555
O2 S0 1.494902 1_545
O2 V12 2.200526 1_555
O3 S1 1.494902 1_555
O3 V13 2.200526 1_555
O4 S2 1.531071 1_555
O4 V1 2.239635 1_555
O4 V14 2.257216 1_445
O5 S3 1.531071 1_555
O5 V0 2.239635 1_556
O5 V15 2.257216 1_455
O6 S0 1.462894 1_555
O6 V14 2.169752 1_455
O7 S1 1.462894 1_555
O7 V15 2.169752 1_455
O8 S4 1.470311 1_555
O8 V0 2.107231 1_555
O9 S5 1.470311 1_555
O9 V1 2.107231 1_555
O10 S0 1.499763 1_555
O10 V2 2.194635 1_455
O11 S1 1.499763 1_555
O11 V3 2.194635 1_455
O12 S4 1.499753 1_555
O12 V2 2.166583 1_445
O13 S5 1.499753 1_555
O13 V3 2.166583 1_455
O14 S2 1.465458 1_555
O14 V12 2.135251 1_555
O15 S3 1.465458 1_555
O15 V13 2.135251 1_555
O16 S10 1.496222 1_555
O16 V12 2.218477 1_555
O17 S11 1.496222 1_555
O17 V13 2.218477 1_555
O18 S6 1.464620 1_555
O18 V2 2.139450 1_455
O19 S7 1.464620 1_555
O19 V3 2.139450 1_455
O20 S8 1.493868 1_555
O20 V14 2.207801 1_455
O21 S9 1.493868 1_555
O21 V15 2.207801 1_455
O22 S7 1.504283 1_545
O22 V1 2.168036 1_555
O23 S6 1.504283 1_555
O23 V0 2.168036 1_555
O24 S4 1.504283 1_565
O24 V7 2.168036 1_555
O25 S5 1.504283 1_555
O25 V6 2.168036 1_555
O26 S3 1.493868 1_555
O26 V9 2.207801 1_555
O27 S2 1.493868 1_555
O27 V8 2.207801 1_555
O28 S4 1.464620 1_555
O28 V4 2.139450 1_555
O29 S5 1.464620 1_555
O29 V5 2.139450 1_555
O30 S0 1.496222 1_555
O30 V11 2.218477 1_555
O31 S1 1.496222 1_555
O31 V10 2.218477 1_555
O32 S8 1.465458 1_555
O32 V11 2.135251 1_555
O33 S9 1.465458 1_555
O33 V10 2.135251 1_555
O34 S6 1.499753 1_555
O34 V4 2.166583 1_555
O35 S7 1.499753 1_555
O35 V5 2.166583 1_565
O36 S10 1.499763 1_555
O36 V4 2.194635 1_555
O37 S11 1.499763 1_555
O37 V5 2.194635 1_555
O38 S6 1.470311 1_555
O38 V7 2.107231 1_555
O39 S7 1.470311 1_555
O39 V6 2.107231 1_555
O40 S11 1.462894 1_555
O40 V9 2.169752 1_555
O41 S10 1.462894 1_555
O41 V8 2.169752 1_555
O42 S8 1.531071 1_555
O42 V6 2.239635 1_555
O42 V8 2.257216 1_555
O43 S9 1.531071 1_555
O43 V7 2.239635 1_556
O43 V9 2.257216 1_565
O44 S10 1.494902 1_555
O44 V11 2.200526 1_555
O45 S11 1.494902 1_565
O45 V10 2.200526 1_555
O46 S9 1.475091 1_555
O47 S8 1.475091 1_555
O48 S14 1.475091 1_555
O49 S15 1.475091 1_555
O50 S13 1.494902 1_545
O50 V4 2.200526 1_555
O51 S12 1.494902 1_555
O51 V5 2.200526 1_555
O52 S14 1.531071 1_555
O52 V9 2.239635 1_554
O52 V7 2.257216 1_545
O53 S15 1.531071 1_555
O53 V8 2.239635 1_555
O53 V6 2.257216 1_555
O54 S12 1.462894 1_555
O54 V6 2.169752 1_555
O55 S13 1.462894 1_555
O55 V7 2.169752 1_555
O56 S16 1.470311 1_555
O56 V8 2.107231 1_555
O57 S17 1.470311 1_555
O57 V9 2.107231 1_555
O58 S13 1.499763 1_555
O58 V11 2.194635 1_555
O59 S12 1.499763 1_555
O59 V10 2.194635 1_555
O60 S16 1.499753 1_555
O60 V11 2.166583 1_545
O61 S17 1.499753 1_555
O61 V10 2.166583 1_555
O62 S14 1.465458 1_555
O62 V4 2.135251 1_555
O63 S15 1.465458 1_555
O63 V5 2.135251 1_555
O64 S22 1.496222 1_555
O64 V4 2.218477 1_555
O65 S23 1.496222 1_555
O65 V5 2.218477 1_555
O66 S18 1.464620 1_555
O66 V11 2.139450 1_555
O67 S19 1.464620 1_555
O67 V10 2.139450 1_555
O68 S20 1.493868 1_555
O68 V7 2.207801 1_555
O69 S21 1.493868 1_555
O69 V6 2.207801 1_555
O70 S18 1.504283 1_555
O70 V8 2.168036 1_555
O71 S19 1.504283 1_545
O71 V9 2.168036 1_555
O72 S16 1.504283 1_565
O72 V14 2.168036 1_555
O73 S17 1.504283 1_555
O73 V15 2.168036 1_555
O74 S14 1.493868 1_555
O74 V0 2.207801 1_655
O75 S15 1.493868 1_555
O75 V1 2.207801 1_655
O76 S16 1.464620 1_555
O76 V12 2.139450 1_655
O77 S17 1.464620 1_555
O77 V13 2.139450 1_655
O78 S12 1.496222 1_555
O78 V3 2.218477 1_555
O79 S13 1.496222 1_555
O79 V2 2.218477 1_555
O80 S20 1.465458 1_555
O80 V2 2.135251 1_555
O81 S21 1.465458 1_555
O81 V3 2.135251 1_555
O82 S18 1.499753 1_555
O82 V12 2.166583 1_655
O83 S19 1.499753 1_555
O83 V13 2.166583 1_665
O84 S22 1.499763 1_555
O84 V12 2.194635 1_655
O85 S23 1.499763 1_555
O85 V13 2.194635 1_655
O86 S18 1.470311 1_555
O86 V14 2.107231 1_555
O87 S19 1.470311 1_555
O87 V15 2.107231 1_555
O88 S22 1.462894 1_555
O88 V0 2.169752 1_655
O89 S23 1.462894 1_555
O89 V1 2.169752 1_655
O90 S20 1.531071 1_555
O90 V15 2.239635 1_554
O90 V0 2.257216 1_655
O91 S21 1.531071 1_555
O91 V14 2.239635 1_555
O91 V1 2.257216 1_665
O92 S22 1.494902 1_555
O92 V2 2.200526 1_555
O93 S23 1.494902 1_565
O93 V3 2.200526 1_555
O94 S21 1.475091 1_555
O95 S20 1.475091 1_555
