# generated using pymatgen
data_Ni3(P2O7)2
_symmetry_space_group_name_H-M   'P 1'
_cell_length_a   6.34118860
_cell_length_b   8.50874684
_cell_length_c   9.99331777
_cell_angle_alpha   108.55008306
_cell_angle_beta   93.16539653
_cell_angle_gamma   91.89276039
_symmetry_Int_Tables_number   1
_chemical_formula_structural   Ni3(P2O7)2
_chemical_formula_sum   'Ni6 P8 O28'
_cell_volume   509.67224242
_cell_formula_units_Z   2
loop_
 _symmetry_equiv_pos_site_id
 _symmetry_equiv_pos_as_xyz
  1  'x, y, z'
loop_
 _atom_site_type_symbol
 _atom_site_label
 _atom_site_symmetry_multiplicity
 _atom_site_fract_x
 _atom_site_fract_y
 _atom_site_fract_z
 _atom_site_occupancy
  Ni  Ni0  1  0.00000000  0.50000000  0.50000000  1
  Ni  Ni1  1  0.29906600  0.89673200  0.63069300  1
  Ni  Ni2  1  0.35437100  0.87915400  0.06032300  1
  Ni  Ni3  1  0.50000000  0.50000000  0.00000000  1
  Ni  Ni4  1  0.64562900  0.12084600  0.93967700  1
  Ni  Ni5  1  0.70093400  0.10326800  0.36930700  1
  P  P0  1  0.15828900  0.20104900  0.00597700  1
  P  P1  1  0.18775400  0.17565400  0.30295700  1
  P  P2  1  0.27150800  0.55012400  0.72339700  1
  P  P3  1  0.48100100  0.74760300  0.31692400  1
  P  P4  1  0.51899900  0.25239700  0.68307600  1
  P  P5  1  0.72849200  0.44987600  0.27660300  1
  P  P6  1  0.81224600  0.82434600  0.69704300  1
  P  P7  1  0.84171100  0.79895100  0.99402300  1
  O  O0  1  0.04785000  0.85886500  0.08241100  1
  O  O1  1  0.01395300  0.08296800  0.35214400  1
  O  O2  1  0.05747000  0.44858800  0.67850800  1
  O  O3  1  0.09796600  0.21302600  0.16359600  1
  O  O4  1  0.23602900  0.37129800  0.00615100  1
  O  O5  1  0.22501800  0.34643500  0.41539400  1
  O  O6  1  0.26435500  0.66144700  0.62888200  1
  O  O7  1  0.31303500  0.81344800  0.41886000  1
  O  O8  1  0.32976300  0.63491400  0.88092800  1
  O  O9  1  0.32270400  0.13329900  0.64324700  1
  O  O10  1  0.33079800  0.07069700  0.96645200  1
  O  O11  1  0.41003700  0.70559600  0.15832900  1
  O  O12  1  0.39043600  0.08189300  0.26406800  1
  O  O13  1  0.46056800  0.42895300  0.67005700  1
  O  O14  1  0.53943200  0.57104700  0.32994300  1
  O  O15  1  0.60956400  0.91810700  0.73593200  1
  O  O16  1  0.58996300  0.29440400  0.84167100  1
  O  O17  1  0.66920200  0.92930300  0.03354800  1
  O  O18  1  0.67729600  0.86670100  0.35675300  1
  O  O19  1  0.67023700  0.36508600  0.11907200  1
  O  O20  1  0.68696500  0.18655200  0.58114000  1
  O  O21  1  0.73564500  0.33855300  0.37111800  1
  O  O22  1  0.77498200  0.65356500  0.58460600  1
  O  O23  1  0.76397100  0.62870200  0.99384900  1
  O  O24  1  0.90203400  0.78697400  0.83640400  1
  O  O25  1  0.94253000  0.55141200  0.32149200  1
  O  O26  1  0.98604700  0.91703200  0.64785600  1
  O  O27  1  0.95215000  0.14113500  0.91758900  1
loop_
_geom_bond_atom_site_label_1
_geom_bond_atom_site_label_2
_geom_bond_distance
_geom_bond_site_symmetry_2
Ni0 O2 1.985367 1_555
Ni0 O25 1.985367 1_455
Ni0 O22 2.002909 1_455
Ni0 O5 2.002909 1_555
Ni0 O6 2.199931 1_555
Ni0 O21 2.199931 1_455
Ni1 O9 1.976675 1_565
Ni1 O6 2.001025 1_555
Ni1 O26 2.010106 1_455
Ni1 O7 2.015370 1_555
Ni1 O15 2.154474 1_555
Ni2 O0 1.976357 1_555
Ni2 O11 2.044792 1_555
Ni2 O17 2.077176 1_555
Ni2 O10 2.128836 1_564
Ni2 O12 2.204878 1_565
Ni2 O8 2.265899 1_554
Ni3 O23 1.984444 1_554
Ni3 O4 1.984444 1_555
Ni3 O11 2.072114 1_555
Ni3 O16 2.072114 1_554
Ni3 O19 2.169830 1_555
Ni3 O8 2.169830 1_554
Ni4 O27 1.976357 1_555
Ni4 O16 2.044792 1_555
Ni4 O10 2.077176 1_555
Ni4 O17 2.128836 1_546
Ni4 O15 2.204878 1_545
Ni4 O19 2.265899 1_556
Ni5 O18 1.976675 1_545
Ni5 O21 2.001025 1_555
Ni5 O1 2.010106 1_655
Ni5 O20 2.015370 1_555
Ni5 O12 2.154474 1_555
O0 P7 1.513517 1_454
O1 P1 1.525537 1_555
O2 P2 1.548705 1_555
O3 P1 1.603437 1_555
O3 P0 1.613922 1_555
O4 P0 1.514135 1_555
O5 P1 1.529402 1_555
O6 P2 1.535822 1_555
O7 P3 1.510680 1_555
O8 P2 1.526687 1_555
O9 P4 1.529726 1_555
O10 P0 1.559472 1_556
O11 P3 1.546708 1_555
O12 P1 1.537848 1_555
O13 P4 1.602134 1_555
O13 P2 1.608400 1_555
O14 P3 1.602134 1_555
O14 P5 1.608400 1_555
O15 P6 1.537848 1_555
O16 P4 1.546708 1_555
O17 P7 1.559472 1_554
O18 P3 1.529726 1_555
O19 P5 1.526687 1_555
O20 P4 1.510680 1_555
O21 P5 1.535822 1_555
O22 P6 1.529402 1_555
O23 P7 1.514135 1_555
O24 P6 1.603437 1_555
O24 P7 1.613922 1_555
O25 P5 1.548705 1_555
O26 P6 1.525537 1_555
O27 P0 1.513517 1_656
