# generated using pymatgen
data_Ac2SiPd
_symmetry_space_group_name_H-M   'P 1'
_cell_length_a   5.43459640
_cell_length_b   5.43458972
_cell_length_c   5.43458527
_cell_angle_alpha   59.99995476
_cell_angle_beta   59.99986898
_cell_angle_gamma   60.00001356
_symmetry_Int_Tables_number   1
_chemical_formula_structural   Ac2SiPd
_chemical_formula_sum   'Ac2 Si1 Pd1'
_cell_volume   113.49714470
_cell_formula_units_Z   1
loop_
 _symmetry_equiv_pos_site_id
 _symmetry_equiv_pos_as_xyz
  1  'x, y, z'
loop_
 _atom_site_type_symbol
 _atom_site_label
 _atom_site_symmetry_multiplicity
 _atom_site_fract_x
 _atom_site_fract_y
 _atom_site_fract_z
 _atom_site_occupancy
  Ac  Ac0  1  0.50000000  0.50000000  0.50000000  1
  Ac  Ac1  1  -0.00000000  0.00000100  -0.00000000  1
  Si  Si0  1  0.75000100  0.75000100  0.75000100  1
  Pd  Pd0  1  0.25000100  0.25000100  0.25000100  1
loop_
_geom_bond_atom_site_label_1
_geom_bond_atom_site_label_2
_geom_bond_distance
_geom_bond_site_symmetry_2
Ac0 Si0 3.327981 1_554
Ac0 Pd0 3.327981 1_555
Ac0 Si0 3.327989 1_545
Ac0 Si0 3.327990 1_455
Ac0 Pd0 3.327990 1_556
Ac0 Pd0 3.327998 1_565
Ac0 Pd0 3.327999 1_655
Ac0 Si0 3.328008 1_555
Ac1 Pd0 3.327981 1_554
Ac1 Si0 3.327986 1_444
Ac1 Pd0 3.327990 1_455
Ac1 Si0 3.327990 1_445
Ac1 Si0 3.327993 1_454
Ac1 Pd0 3.327993 1_545
Ac1 Si0 3.327999 1_544
Ac1 Pd0 3.328004 1_555
