# generated using pymatgen
data_TiMn2Si
_symmetry_space_group_name_H-M   'P 1'
_cell_length_a   4.06909197
_cell_length_b   4.06909163
_cell_length_c   4.06909369
_cell_angle_alpha   59.99978489
_cell_angle_beta   59.99978880
_cell_angle_gamma   59.99983399
_symmetry_Int_Tables_number   1
_chemical_formula_structural   TiMn2Si
_chemical_formula_sum   'Ti1 Mn2 Si1'
_cell_volume   47.64043558
_cell_formula_units_Z   1
loop_
 _symmetry_equiv_pos_site_id
 _symmetry_equiv_pos_as_xyz
  1  'x, y, z'
loop_
 _atom_site_type_symbol
 _atom_site_label
 _atom_site_symmetry_multiplicity
 _atom_site_fract_x
 _atom_site_fract_y
 _atom_site_fract_z
 _atom_site_occupancy
  Ti  Ti0  1  0.74999950  0.74999935  0.74999935  1
  Mn  Mn0  1  -0.00000005  0.00000014  0.00000015  1
  Mn  Mn1  1  0.50000037  0.50000058  0.50000058  1
  Si  Si0  1  0.25000018  0.24999993  0.24999993  1
loop_
_geom_bond_atom_site_label_1
_geom_bond_atom_site_label_2
_geom_bond_distance
_geom_bond_site_symmetry_2
Mn0 Ti0 2.491791 1_454
Mn0 Ti0 2.491791 1_445
Mn0 Ti0 2.491793 1_544
Mn0 Si0 2.491793 1_455
Mn0 Si0 2.491794 1_545
Mn0 Si0 2.491795 1_554
Mn0 Si0 2.491803 1_555
Mn0 Ti0 2.491811 1_444
Mn1 Si0 2.491792 1_565
Mn1 Si0 2.491792 1_556
Mn1 Ti0 2.491793 1_555
Mn1 Si0 2.491793 1_655
Mn1 Ti0 2.491797 1_455
Mn1 Ti0 2.491798 1_545
Mn1 Ti0 2.491798 1_554
Mn1 Si0 2.491809 1_555
Si0 Ti0 2.877273 1_554
Si0 Ti0 2.877276 1_545
Si0 Ti0 2.877276 1_455
Si0 Ti0 2.877280 1_445
Si0 Ti0 2.877283 1_544
Si0 Ti0 2.877283 1_454
