# generated using pymatgen
data_Rb2MnSe2
_symmetry_space_group_name_H-M   'P 1'
_cell_length_a   6.65379062
_cell_length_b   7.31146824
_cell_length_c   8.49026200
_cell_angle_alpha   115.50848341
_cell_angle_beta   113.07314250
_cell_angle_gamma   89.99132608
_symmetry_Int_Tables_number   1
_chemical_formula_structural   Rb2MnSe2
_chemical_formula_sum   'Rb4 Mn2 Se4'
_cell_volume   335.81300151
_cell_formula_units_Z   2
loop_
 _symmetry_equiv_pos_site_id
 _symmetry_equiv_pos_as_xyz
  1  'x, y, z'
loop_
 _atom_site_type_symbol
 _atom_site_label
 _atom_site_symmetry_multiplicity
 _atom_site_fract_x
 _atom_site_fract_y
 _atom_site_fract_z
 _atom_site_occupancy
  Rb  Rb0  1  0.64645014  0.81325370  0.29289932  1
  Rb  Rb1  1  0.35354993  0.18674622  0.70710063  1
  Rb  Rb2  1  0.85355194  0.52035973  0.70710065  1
  Rb  Rb3  1  0.14644810  0.47964017  0.29289931  1
  Mn  Mn0  1  0.74998685  0.00002693  -0.00001678  1
  Mn  Mn1  1  0.25001300  -0.00002637  0.00001706  1
  Se  Se0  1  0.60172501  0.28935430  0.20367338  1
  Se  Se1  1  0.89812935  0.08561812  0.79630054  1
  Se  Se2  1  0.10187069  0.91438165  0.20369943  1
  Se  Se3  1  0.39827499  0.71064555  0.79632648  1
loop_
_geom_bond_atom_site_label_1
_geom_bond_atom_site_label_2
_geom_bond_distance
_geom_bond_site_symmetry_2
Rb0 Se1 3.478148 1_565
Rb0 Se2 3.546925 1_555
Rb0 Se2 3.547473 1_655
Rb0 Se0 3.557997 1_555
Rb0 Se3 3.589412 1_554
Rb0 Se0 3.856682 1_565
Rb1 Se2 3.478148 1_545
Rb1 Se1 3.546925 1_555
Rb1 Se1 3.547473 1_455
Rb1 Se3 3.557997 1_555
Rb1 Se0 3.589411 1_556
Rb1 Se3 3.856682 1_545
Rb2 Se0 3.478344 1_555
Rb2 Se3 3.546263 1_555
Rb2 Se3 3.547951 1_655
Rb2 Se1 3.558371 1_555
Rb2 Se2 3.589664 1_656
Rb2 Se1 3.856247 1_565
Rb3 Se3 3.478343 1_555
Rb3 Se0 3.546263 1_555
Rb3 Se0 3.547951 1_455
Rb3 Se2 3.558370 1_555
Rb3 Se1 3.589665 1_454
Rb3 Se2 3.856248 1_545
Mn0 Se3 2.573302 1_544
Mn0 Se1 2.573355 1_554
Mn0 Se2 2.573687 1_645
Mn0 Se0 2.573828 1_555
Mn0 Rb1 3.575853 1_554
Mn0 Rb2 3.576174 1_544
Mn0 Rb3 3.576304 1_655
Mn0 Rb0 3.576659 1_545
Mn1 Se0 2.573300 1_555
Mn1 Se2 2.573355 1_545
Mn1 Se1 2.573684 1_454
Mn1 Se3 2.573833 1_544
Mn1 Rb0 3.575855 1_545
Mn1 Rb3 3.576170 1_555
Mn1 Rb2 3.576307 1_444
Mn1 Rb1 3.576659 1_554
