# generated using pymatgen
data_PmCdRh2
_symmetry_space_group_name_H-M   'P 1'
_cell_length_a   4.72674698
_cell_length_b   4.72674698
_cell_length_c   4.72674698
_cell_angle_alpha   60.00000000
_cell_angle_beta   60.00000000
_cell_angle_gamma   60.00000000
_symmetry_Int_Tables_number   1
_chemical_formula_structural   PmCdRh2
_chemical_formula_sum   'Pm1 Cd1 Rh2'
_cell_volume   74.67445598
_cell_formula_units_Z   1
loop_
 _symmetry_equiv_pos_site_id
 _symmetry_equiv_pos_as_xyz
  1  'x, y, z'
loop_
 _atom_site_type_symbol
 _atom_site_label
 _atom_site_symmetry_multiplicity
 _atom_site_fract_x
 _atom_site_fract_y
 _atom_site_fract_z
 _atom_site_occupancy
  Pm  Pm0  1  0.74999900  0.74999900  0.74999900  1
  Cd  Cd0  1  0.24999900  0.24999900  0.24999900  1
  Rh  Rh0  1  -0.00000000  -0.00000000  -0.00000000  1
  Rh  Rh1  1  0.50000000  0.50000000  0.50000000  1
loop_
_geom_bond_atom_site_label_1
_geom_bond_atom_site_label_2
_geom_bond_distance
_geom_bond_site_symmetry_2
Pm0 Rh1 2.894518 1_555
Pm0 Rh0 2.894526 1_656
Pm0 Rh0 2.894526 1_665
Pm0 Rh0 2.894526 1_566
Pm0 Rh1 2.894533 1_655
Pm0 Rh1 2.894533 1_565
Pm0 Rh1 2.894533 1_556
Pm0 Rh0 2.894541 1_666
Cd0 Rh0 2.894518 1_555
Cd0 Rh1 2.894526 1_554
Cd0 Rh1 2.894526 1_545
Cd0 Rh1 2.894526 1_455
Cd0 Rh0 2.894533 1_556
Cd0 Rh0 2.894533 1_565
Cd0 Rh0 2.894533 1_655
Cd0 Rh1 2.894541 1_555
