# generated using pymatgen
data_SmY3O6
_symmetry_space_group_name_H-M   'P 1'
_cell_length_a   9.24917762
_cell_length_b   9.26213288
_cell_length_c   9.26213581
_cell_angle_alpha   109.47700669
_cell_angle_beta   109.44997068
_cell_angle_gamma   109.45335168
_symmetry_Int_Tables_number   1
_chemical_formula_structural   SmY3O6
_chemical_formula_sum   'Sm4 Y12 O24'
_cell_volume   611.05723078
_cell_formula_units_Z   4
loop_
 _symmetry_equiv_pos_site_id
 _symmetry_equiv_pos_as_xyz
  1  'x, y, z'
loop_
 _atom_site_type_symbol
 _atom_site_label
 _atom_site_symmetry_multiplicity
 _atom_site_fract_x
 _atom_site_fract_y
 _atom_site_fract_z
 _atom_site_occupancy
  Sm  Sm0  1  0.99957802  0.99949527  0.49853951  1
  Sm  Sm1  1  0.99977880  0.50211422  0.00014162  1
  Sm  Sm2  1  0.50019339  0.50034568  0.50238873  1
  Sm  Sm3  1  0.25180167  0.21910699  0.96953629  1
  Y  Y0  1  0.50054272  0.99900374  0.99996696  1
  Y  Y1  1  0.74829403  0.78176979  0.03133552  1
  Y  Y2  1  0.46935969  0.75346224  0.21911658  1
  Y  Y3  1  0.02926461  0.24977555  0.28174140  1
  Y  Y4  1  0.71705330  0.96777446  0.75108877  1
  Y  Y5  1  0.21906291  0.47126102  0.75005050  1
  Y  Y6  1  0.25045508  0.71909446  0.46972327  1
  Y  Y7  1  0.74954754  0.28090992  0.53026224  1
  Y  Y8  1  0.78181711  0.53054454  0.24985211  1
  Y  Y9  1  0.28205613  0.03119831  0.24981405  1
  Y  Y10  1  0.96880076  0.74908957  0.71790711  1
  Y  Y11  1  0.53256370  0.24811085  0.78158979  1
  O  O0  1  0.26744259  0.51271890  0.54236479  1
  O  O1  1  0.46892802  0.73088394  0.95711872  1
  O  O2  1  0.22954697  0.95270921  0.96908478  1
  O  O3  1  0.72459673  0.75510378  0.26701982  1
  O  O4  1  0.00978633  0.54065037  0.76627677  1
  O  O5  1  0.51213647  0.74454918  0.47026856  1
  O  O6  1  0.02864857  0.98676297  0.25420518  1
  O  O7  1  0.23267566  0.77608270  0.24574218  1
  O  O8  1  0.45673837  0.96785586  0.73021116  1
  O  O9  1  0.24536593  0.47614532  0.01284115  1
  O  O10  1  0.95791370  0.23190361  0.48846090  1
  O  O11  1  0.74454320  0.73243972  0.77561563  1
  O  O12  1  0.54347037  0.03213842  0.26974186  1
  O  O13  1  0.04182533  0.76782771  0.51135831  1
  O  O14  1  0.75425504  0.52964337  0.98724639  1
  O  O15  1  0.25571434  0.26798064  0.23061545  1
  O  O16  1  0.96634716  0.00788451  0.74015224  1
  O  O17  1  0.76861004  0.22500104  0.75642793  1
  O  O18  1  0.98895843  0.45847664  0.23176867  1
  O  O19  1  0.48905333  0.25464820  0.53004442  1
  O  O20  1  0.27608581  0.24627302  0.72888196  1
  O  O21  1  0.76989038  0.04266534  0.03150656  1
  O  O22  1  0.73117599  0.48816591  0.45738438  1
  O  O23  1  0.53612680  0.26843002  0.04260773  1
loop_
_geom_bond_atom_site_label_1
_geom_bond_atom_site_label_2
_geom_bond_distance
_geom_bond_site_symmetry_2
O0 Y5 2.235918 1_555
O0 Y6 2.262385 1_555
O0 Sm2 2.334832 1_555
O0 Y3 2.361326 1_555
O1 Y5 2.252288 1_555
O1 Y1 2.271812 1_556
O1 Y0 2.278573 1_555
O1 Y2 2.363685 1_556
O2 Y10 2.256869 1_455
O2 Y9 2.277822 1_566
O2 Y0 2.296310 1_555
O2 Sm3 2.405153 1_565
O3 Y2 2.245928 1_555
O3 Y8 2.280362 1_555
O3 Sm0 2.342453 1_555
O3 Y1 2.348699 1_555
O4 Y10 2.241148 1_455
O4 Y5 2.267216 1_555
O4 Sm1 2.335592 1_456
O4 Y7 2.343447 1_455
O5 Y2 2.260855 1_555
O5 Y4 2.269987 1_555
O5 Sm2 2.349648 1_555
O5 Y6 2.350452 1_555
O6 Y9 2.257569 1_565
O6 Y1 2.265456 1_455
O6 Sm0 2.335812 1_455
O6 Y3 2.361127 1_565
O7 Y9 2.236884 1_565
O7 Y6 2.273811 1_555
O7 Sm1 2.345288 1_455
O7 Y2 2.351082 1_555
O8 Y6 2.251493 1_555
O8 Y11 2.279847 1_565
O8 Y0 2.292875 1_555
O8 Y4 2.350671 1_555
O9 Y2 2.255397 1_555
O9 Sm3 2.303427 1_554
O9 Sm1 2.331556 1_455
O9 Y5 2.347444 1_554
O10 Y7 2.243319 1_555
O10 Y3 2.260295 1_655
O10 Sm0 2.335265 1_545
O10 Y5 2.360790 1_655
O11 Y1 2.243407 1_556
O11 Y10 2.278600 1_555
O11 Sm2 2.336750 1_555
O11 Y4 2.351221 1_555
O12 Y7 2.251379 1_555
O12 Y2 2.269884 1_545
O12 Y0 2.289553 1_544
O12 Y9 2.359645 1_555
O13 Y6 2.244026 1_555
O13 Y10 2.269371 1_455
O13 Sm0 2.338468 1_455
O13 Y8 2.351743 1_455
O14 Y1 2.255641 1_556
O14 Y11 2.271017 1_555
O14 Sm1 2.337005 1_556
O14 Y8 2.356523 1_556
O15 Y3 2.262302 1_555
O15 Sm3 2.292274 1_554
O15 Sm2 2.331629 1_555
O15 Y9 2.342610 1_555
O16 Y4 2.252753 1_545
O16 Sm3 2.316056 1_655
O16 Sm0 2.338054 1_545
O16 Y10 2.344898 1_545
O17 Y4 2.248329 1_545
O17 Y7 2.285947 1_555
O17 Y11 2.341686 1_555
O17 Sm1 2.349808 1_556
O18 Y3 2.247552 1_655
O18 Y8 2.266099 1_555
O18 Sm1 2.338852 1_555
O18 Y6 2.355324 1_655
O19 Y11 2.253818 1_555
O19 Y9 2.270414 1_555
O19 Y7 2.338857 1_555
O19 Sm2 2.346291 1_555
O20 Y11 2.249958 1_555
O20 Y5 2.277627 1_555
O20 Sm0 2.353188 1_445
O20 Sm3 2.398302 1_555
O21 Y3 2.252499 1_655
O21 Y4 2.278877 1_544
O21 Y0 2.284883 1_544
O21 Y1 2.356875 1_545
O22 Y8 2.246898 1_555
O22 Y7 2.274744 1_555
O22 Sm2 2.339426 1_555
O22 Y10 2.352651 1_555
O23 Y8 2.248379 1_555
O23 Y0 2.280521 1_544
O23 Sm3 2.321802 1_554
O23 Y11 2.349599 1_554
