# generated using pymatgen
data_LiCrPH2O5
_symmetry_space_group_name_H-M   'P 1'
_cell_length_a   5.04581500
_cell_length_b   8.29671500
_cell_length_c   10.54580300
_cell_angle_alpha   90.00000000
_cell_angle_beta   90.00000000
_cell_angle_gamma   90.00000000
_symmetry_Int_Tables_number   1
_chemical_formula_structural   LiCrPH2O5
_chemical_formula_sum   'Li4 Cr4 P4 H8 O20'
_cell_volume   441.48621702
_cell_formula_units_Z   4
loop_
 _symmetry_equiv_pos_site_id
 _symmetry_equiv_pos_as_xyz
  1  'x, y, z'
loop_
 _atom_site_type_symbol
 _atom_site_label
 _atom_site_symmetry_multiplicity
 _atom_site_fract_x
 _atom_site_fract_y
 _atom_site_fract_z
 _atom_site_occupancy
  Li  Li0  1  0.71409400  0.30790100  0.19302100  1
  Li  Li1  1  0.21409400  0.80790100  0.30697900  1
  Li  Li2  1  0.71409400  0.19209900  0.69302100  1
  Li  Li3  1  0.21409400  0.69209900  0.80697900  1
  Cr  Cr0  1  0.26483100  0.10596800  0.10234200  1
  Cr  Cr1  1  0.76483100  0.60596800  0.39765800  1
  Cr  Cr2  1  0.26483100  0.39403200  0.60234200  1
  Cr  Cr3  1  0.76483100  0.89403200  0.89765800  1
  P  P0  1  0.69329200  0.91479300  0.18850900  1
  P  P1  1  0.19329200  0.41479300  0.31149100  1
  P  P2  1  0.69329200  0.58520700  0.68850900  1
  P  P3  1  0.19329200  0.08520700  0.81149100  1
  H  H0  1  0.33316600  0.53222100  0.99593400  1
  H  H1  1  0.16665700  0.67394900  0.04978100  1
  H  H2  1  0.66665700  0.17394900  0.45021900  1
  H  H3  1  0.83316600  0.03222100  0.50406600  1
  H  H4  1  0.33316600  0.96777900  0.49593400  1
  H  H5  1  0.16665700  0.82605100  0.54978100  1
  H  H6  1  0.66665700  0.32605100  0.95021900  1
  H  H7  1  0.83316600  0.46777900  0.00406600  1
  O  O0  1  0.66576500  0.40791700  0.01797100  1
  O  O1  1  0.53990900  0.87361000  0.06172800  1
  O  O2  1  0.59024700  0.08911300  0.21871900  1
  O  O3  1  0.99487200  0.90821600  0.17033500  1
  O  O4  1  0.10343700  0.30056600  0.20339700  1
  O  O5  1  0.60343700  0.80056600  0.29660300  1
  O  O6  1  0.49487200  0.40821600  0.32966500  1
  O  O7  1  0.09024700  0.58911300  0.28128100  1
  O  O8  1  0.03990900  0.37361000  0.43827200  1
  O  O9  1  0.16576500  0.90791700  0.48202900  1
  O  O10  1  0.66576500  0.09208300  0.51797100  1
  O  O11  1  0.53990900  0.62639000  0.56172800  1
  O  O12  1  0.59024700  0.41088700  0.71871900  1
  O  O13  1  0.99487200  0.59178400  0.67033500  1
  O  O14  1  0.10343700  0.19943400  0.70339700  1
  O  O15  1  0.60343700  0.69943400  0.79660300  1
  O  O16  1  0.49487200  0.09178400  0.82966500  1
  O  O17  1  0.09024700  0.91088700  0.78128100  1
  O  O18  1  0.03990900  0.12639000  0.93827200  1
  O  O19  1  0.16576500  0.59208300  0.98202900  1
loop_
_geom_bond_atom_site_label_1
_geom_bond_atom_site_label_2
_geom_bond_distance
_geom_bond_site_symmetry_2
Li0 O2 1.938810 1_555
Li0 O4 1.968539 1_655
Li0 O6 1.998203 1_555
Li0 O0 2.038607 1_555
Li1 O7 1.938810 1_555
Li1 O5 1.968539 1_555
Li1 O3 1.998203 1_455
Li1 O9 2.038607 1_555
Li2 O12 1.938810 1_555
Li2 O14 1.968539 1_655
Li2 O16 1.998203 1_555
Li2 O10 2.038607 1_555
Li3 O17 1.938810 1_555
Li3 O15 1.968539 1_555
Li3 O13 1.998203 1_455
Li3 O19 2.038607 1_555
Cr0 O2 2.054731 1_555
Cr0 O18 2.076176 1_554
Cr0 O4 2.098954 1_555
Cr0 O3 2.249779 1_445
Cr0 O1 2.413797 1_545
Cr1 O7 2.054731 1_655
Cr1 O11 2.076176 1_555
Cr1 O5 2.098954 1_555
Cr1 O6 2.249779 1_555
Cr1 O8 2.413797 1_655
Cr2 O12 2.054731 1_555
Cr2 O8 2.076176 1_555
Cr2 O14 2.098954 1_555
Cr2 O13 2.249779 1_455
Cr2 O11 2.413797 1_555
Cr3 O17 2.054731 1_655
Cr3 O1 2.076176 1_556
Cr3 O15 2.098954 1_555
Cr3 O16 2.249779 1_565
Cr3 O18 2.413797 1_665
H0 O19 0.990781 1_555
H1 O19 0.985834 1_554
H2 O10 0.985834 1_555
H3 O10 0.990781 1_555
H4 O9 0.990781 1_555
H5 O9 0.985834 1_555
H6 O0 0.985834 1_556
H7 O0 0.990781 1_555
O1 P0 1.582189 1_555
O2 P0 1.569579 1_545
O3 P0 1.534709 1_555
O4 P1 1.550218 1_555
O5 P0 1.550218 1_555
O6 P1 1.534709 1_555
O7 P1 1.569579 1_555
O8 P1 1.582189 1_555
O11 P2 1.582189 1_555
O12 P2 1.569579 1_555
O13 P2 1.534709 1_555
O14 P3 1.550218 1_555
O15 P2 1.550218 1_555
O16 P3 1.534709 1_555
O17 P3 1.569579 1_565
O18 P3 1.582189 1_555
