# generated using pymatgen
data_Li5Mn6(BO3)6
_symmetry_space_group_name_H-M   'P 1'
_cell_length_a   8.85952446
_cell_length_b   8.85952446
_cell_length_c   14.35294023
_cell_angle_alpha   89.53438985
_cell_angle_beta   89.53438985
_cell_angle_gamma   42.12875520
_symmetry_Int_Tables_number   1
_chemical_formula_structural   Li5Mn6(BO3)6
_chemical_formula_sum   'Li10 Mn12 B12 O36'
_cell_volume   755.67939539
_cell_formula_units_Z   2
loop_
 _symmetry_equiv_pos_site_id
 _symmetry_equiv_pos_as_xyz
  1  'x, y, z'
loop_
 _atom_site_type_symbol
 _atom_site_label
 _atom_site_symmetry_multiplicity
 _atom_site_fract_x
 _atom_site_fract_y
 _atom_site_fract_z
 _atom_site_occupancy
  Li  Li0  1  0.89496200  0.89496200  0.99201700  1
  Li  Li1  1  0.39510300  0.39510300  0.99096100  1
  Li  Li2  1  0.42116000  0.42116000  0.35965900  1
  Li  Li3  1  0.43420900  0.43420900  0.64982600  1
  Li  Li4  1  0.93435800  0.93435800  0.64936400  1
  Li  Li5  1  0.14469600  0.14469600  0.49217400  1
  Li  Li6  1  0.64537600  0.64537600  0.49084600  1
  Li  Li7  1  0.17112400  0.17112400  0.85966800  1
  Li  Li8  1  0.18405400  0.18405400  0.14851400  1
  Li  Li9  1  0.68451400  0.68451400  0.15091100  1
  Mn  Mn0  1  0.06662000  0.57081800  0.50113000  1
  Mn  Mn1  1  0.57081800  0.06662000  0.50113000  1
  Mn  Mn2  1  0.07981300  0.58628400  0.81509700  1
  Mn  Mn3  1  0.58628400  0.07981300  0.81509700  1
  Mn  Mn4  1  0.60051700  0.09494600  0.18398900  1
  Mn  Mn5  1  0.09494600  0.60051700  0.18398900  1
  Mn  Mn6  1  0.32104700  0.81655000  0.00126400  1
  Mn  Mn7  1  0.81655000  0.32104700  0.00126400  1
  Mn  Mn8  1  0.32960700  0.83627400  0.31521900  1
  Mn  Mn9  1  0.83627400  0.32960700  0.31521900  1
  Mn  Mn10  1  0.34991800  0.84570700  0.68401000  1
  Mn  Mn11  1  0.84570700  0.34991800  0.68401000  1
  B  B0  1  0.00529200  0.49649100  0.00226300  1
  B  B1  1  0.49649100  0.00529200  0.00226300  1
  B  B2  1  0.24940000  0.24940000  0.33339400  1
  B  B3  1  0.74635000  0.74635000  0.33162200  1
  B  B4  1  0.24988900  0.24988900  0.66574700  1
  B  B5  1  0.75229100  0.75229100  0.66412500  1
  B  B6  1  0.25510800  0.74669400  0.50233000  1
  B  B7  1  0.74669400  0.25510800  0.50233000  1
  B  B8  1  0.00236600  0.00236600  0.16403900  1
  B  B9  1  0.49969900  0.49969900  0.16566800  1
  B  B10  1  0.99910300  0.99910300  0.83328100  1
  B  B11  1  0.49670100  0.49670100  0.83173300  1
  O  O0  1  0.75525600  0.75525600  0.42768700  1
  O  O1  1  0.25540000  0.25540000  0.42989300  1
  O  O2  1  0.76169900  0.76169900  0.75929600  1
  O  O3  1  0.25689300  0.25689300  0.76248000  1
  O  O4  1  0.31800400  0.31800400  0.60884100  1
  O  O5  1  0.82004900  0.82004900  0.60509900  1
  O  O6  1  0.31979100  0.31979100  0.27939000  1
  O  O7  1  0.81216800  0.81216800  0.27188000  1
  O  O8  1  0.07764800  0.57826000  0.96078200  1
  O  O9  1  0.57826000  0.07764800  0.96078200  1
  O  O10  1  0.42247000  0.42247000  0.12656100  1
  O  O11  1  0.92450300  0.92450300  0.12623300  1
  O  O12  1  0.41924800  0.41924800  0.79408400  1
  O  O13  1  0.92419700  0.92419700  0.79065900  1
  O  O14  1  0.20236200  0.66395100  0.44842000  1
  O  O15  1  0.66395100  0.20236200  0.44842000  1
  O  O16  1  0.74662300  0.24216800  0.59979000  1
  O  O17  1  0.24216800  0.74662300  0.59979000  1
  O  O18  1  0.50596000  0.50596000  0.92798100  1
  O  O19  1  0.00475600  0.00475600  0.92956200  1
  O  O20  1  0.01181400  0.01181400  0.25933400  1
  O  O21  1  0.50677800  0.50677800  0.26225200  1
  O  O22  1  0.06985200  0.06985200  0.10506000  1
  O  O23  1  0.56810900  0.56810900  0.10871200  1
  O  O24  1  0.06967200  0.06967200  0.77948400  1
  O  O25  1  0.56220100  0.56220100  0.77164900  1
  O  O26  1  0.32771400  0.82824600  0.46084400  1
  O  O27  1  0.82824600  0.32771400  0.46084400  1
  O  O28  1  0.17243800  0.17243800  0.62699300  1
  O  O29  1  0.67459600  0.67459600  0.62592400  1
  O  O30  1  0.17441400  0.17441400  0.29115300  1
  O  O31  1  0.66901300  0.66901300  0.29352700  1
  O  O32  1  0.95171100  0.41454300  0.94829600  1
  O  O33  1  0.41454300  0.95171100  0.94829600  1
  O  O34  1  0.49552800  0.99310800  0.09973200  1
  O  O35  1  0.99310800  0.49552800  0.09973200  1
loop_
_geom_bond_atom_site_label_1
_geom_bond_atom_site_label_2
_geom_bond_distance
_geom_bond_site_symmetry_2
Li0 O9 1.991464 1_565
Li0 O8 1.991464 1_655
Li0 O11 1.991476 1_556
Li0 O19 2.017685 1_665
Li1 O8 1.992455 1_555
Li1 O9 1.992455 1_555
Li1 O10 2.002007 1_556
Li1 O18 2.036721 1_555
Li2 O14 1.956310 1_555
Li2 O15 1.956310 1_555
Li2 O21 1.980994 1_555
Li2 O6 2.042155 1_555
Li3 O4 2.014374 1_555
Li3 O17 2.018404 1_555
Li3 O16 2.018404 1_555
Li3 O12 2.083112 1_555
Li4 O17 1.992330 1_655
Li4 O16 1.992330 1_565
Li4 O5 1.999261 1_555
Li4 O13 2.033488 1_555
Li5 O26 1.989291 1_545
Li5 O27 1.989291 1_455
Li5 O28 1.992559 1_555
Li5 O1 2.030095 1_555
Li6 O26 1.993976 1_555
Li6 O27 1.993976 1_555
Li6 O29 2.002141 1_555
Li6 O0 2.023387 1_555
Li7 O33 1.958054 1_545
Li7 O32 1.958054 1_455
Li7 O3 1.980569 1_555
Li7 O24 2.042592 1_555
Li8 O22 1.993816 1_555
Li8 O35 2.007611 1_455
Li8 O34 2.007611 1_545
Li8 O30 2.052100 1_555
Li9 O34 2.003793 1_555
Li9 O35 2.003793 1_555
Li9 O23 2.022831 1_555
Li9 O31 2.060727 1_555
Mn0 O14 2.036259 1_555
Mn0 O5 2.172646 1_455
Mn0 O0 2.173498 1_455
Mn0 O1 2.176663 1_555
Mn0 O4 2.228782 1_555
Mn1 O15 2.036259 1_555
Mn1 O5 2.172646 1_545
Mn1 O0 2.173498 1_545
Mn1 O1 2.176663 1_555
Mn1 O4 2.228782 1_555
Mn2 O8 2.092054 1_555
Mn2 O2 2.125899 1_455
Mn2 O12 2.171612 1_555
Mn2 O3 2.184831 1_555
Mn2 O13 2.203404 1_455
Mn3 O9 2.092054 1_555
Mn3 O2 2.125899 1_545
Mn3 O12 2.171612 1_555
Mn3 O3 2.184831 1_555
Mn3 O13 2.203404 1_545
Mn4 O7 2.098321 1_545
Mn4 O34 2.102978 1_545
Mn4 O6 2.160797 1_555
Mn4 O11 2.181511 1_545
Mn4 O10 2.186448 1_555
Mn5 O7 2.098321 1_455
Mn5 O35 2.102978 1_455
Mn5 O6 2.160797 1_555
Mn5 O11 2.181511 1_455
Mn5 O10 2.186448 1_555
Mn6 O33 2.035742 1_554
Mn6 O18 2.166669 1_554
Mn6 O19 2.186353 1_564
Mn6 O22 2.191090 1_565
Mn6 O23 2.206281 1_555
Mn7 O32 2.035742 1_554
Mn7 O18 2.166669 1_554
Mn7 O19 2.186353 1_654
Mn7 O22 2.191090 1_655
Mn7 O23 2.206281 1_555
Mn8 O26 2.091133 1_555
Mn8 O20 2.123842 1_565
Mn8 O31 2.172021 1_555
Mn8 O21 2.187125 1_555
Mn8 O30 2.205821 1_565
Mn9 O27 2.091133 1_555
Mn9 O20 2.123842 1_655
Mn9 O31 2.172021 1_555
Mn9 O21 2.187125 1_555
Mn9 O30 2.205821 1_655
Mn10 O25 2.099630 1_555
Mn10 O17 2.102873 1_555
Mn10 O24 2.158928 1_565
Mn10 O28 2.180018 1_565
Mn10 O29 2.186530 1_555
Mn11 O25 2.099630 1_555
Mn11 O16 2.102873 1_555
Mn11 O24 2.158928 1_655
Mn11 O28 2.180018 1_655
Mn11 O29 2.186530 1_555
B0 O32 1.370674 1_454
B0 O8 1.402076 1_554
B0 O35 1.402694 1_455
B1 O33 1.370674 1_544
B1 O9 1.402076 1_554
B1 O34 1.402694 1_545
B2 O30 1.384922 1_555
B2 O1 1.389454 1_555
B2 O6 1.392765 1_555
B3 O7 1.379640 1_555
B3 O0 1.387931 1_555
B3 O31 1.395130 1_555
B4 O4 1.385497 1_555
B4 O3 1.394229 1_555
B4 O28 1.400670 1_555
B5 O2 1.376158 1_555
B5 O5 1.398735 1_555
B5 O29 1.401185 1_555
B6 O14 1.370286 1_555
B6 O26 1.402322 1_555
B6 O17 1.402632 1_555
B7 O15 1.370286 1_555
B7 O27 1.402322 1_555
B7 O16 1.402632 1_555
B8 O20 1.378007 1_555
B8 O22 1.394754 1_555
B8 O11 1.401492 1_445
B9 O23 1.389857 1_555
B9 O21 1.392213 1_555
B9 O10 1.399366 1_555
B10 O19 1.385885 1_665
B10 O13 1.386180 1_555
B10 O24 1.393584 1_665
B11 O25 1.378557 1_555
B11 O18 1.391224 1_555
B11 O12 1.394351 1_555
