# generated using pymatgen
data_V6O5F19
_symmetry_space_group_name_H-M   'P 1'
_cell_length_a   5.37689400
_cell_length_b   5.61174539
_cell_length_c   14.80702415
_cell_angle_alpha   100.36633262
_cell_angle_beta   89.63201576
_cell_angle_gamma   93.10651811
_symmetry_Int_Tables_number   1
_chemical_formula_structural   V6O5F19
_chemical_formula_sum   'V6 O5 F19'
_cell_volume   438.84256700
_cell_formula_units_Z   1
loop_
 _symmetry_equiv_pos_site_id
 _symmetry_equiv_pos_as_xyz
  1  'x, y, z'
loop_
 _atom_site_type_symbol
 _atom_site_label
 _atom_site_symmetry_multiplicity
 _atom_site_fract_x
 _atom_site_fract_y
 _atom_site_fract_z
 _atom_site_occupancy
  V  V0  1  0.03469700  0.95549200  0.99624300  1
  V  V1  1  0.51209500  0.81877100  0.66825600  1
  V  V2  1  0.96880600  0.73406300  0.33681500  1
  V  V3  1  0.54296500  0.46660600  0.00372200  1
  V  V4  1  0.03871300  0.27736700  0.66261400  1
  V  V5  1  0.51624500  0.22436200  0.33475700  1
  O  O0  1  0.79448900  0.96971900  0.35849700  1
  O  O1  1  0.70646000  0.46939000  0.35644600  1
  O  O2  1  0.77020400  0.30348300  0.02109500  1
  O  O3  1  0.20598400  0.72422600  0.97852300  1
  O  O4  1  0.20796700  0.03946100  0.64253300  1
  F  F0  1  0.72512900  0.78515500  0.02632300  1
  F  F1  1  0.27173300  0.86284400  0.30854400  1
  F  F2  1  0.90420100  0.96111300  0.88699400  1
  F  F3  1  0.56298600  0.80056800  0.54912400  1
  F  F4  1  0.91180400  0.60477400  0.22033300  1
  F  F5  1  0.39724600  0.88974800  0.78157000  1
  F  F6  1  0.07432900  0.68871800  0.44533100  1
  F  F7  1  0.40601200  0.54601200  0.11342400  1
  F  F8  1  0.78056600  0.65504000  0.69232500  1
  F  F9  1  0.29646900  0.51720500  0.64318400  1
  F  F10  1  0.23403200  0.34955900  0.30701400  1
  F  F11  1  0.56024500  0.47674900  0.88495000  1
  F  F12  1  0.91258400  0.30412300  0.55533900  1
  F  F13  1  0.58879200  0.09542100  0.22052200  1
  F  F14  1  0.07032700  0.39254300  0.78076500  1
  F  F15  1  0.42506900  0.18419200  0.44628900  1
  F  F16  1  0.06974800  0.07204000  0.11494700  1
  F  F17  1  0.72529100  0.12621900  0.69009800  1
  F  F18  1  0.28481000  0.20503900  0.97342100  1
loop_
_geom_bond_atom_site_label_1
_geom_bond_atom_site_label_2
_geom_bond_distance
_geom_bond_site_symmetry_2
O0 V2 1.645633 1_555
O0 V5 2.196158 1_565
O1 V5 1.653112 1_555
O1 V2 2.050214 1_555
O2 V3 1.614633 1_555
O3 V0 1.614084 1_555
O4 V4 1.638407 1_555
O4 V1 2.179494 1_545
F0 V0 1.963149 1_654
F0 V3 1.966235 1_555
F1 V2 1.822924 1_455
F1 V5 2.330027 1_565
F2 V0 1.773547 1_655
F3 V1 1.768885 1_555
F4 V2 1.768461 1_555
F5 V1 1.768613 1_555
F6 V2 1.772847 1_455
F7 V3 1.771744 1_555
F8 V1 1.822980 1_555
F9 V4 1.935742 1_555
F9 V1 1.978059 1_555
F10 V5 1.786722 1_555
F11 V3 1.771471 1_556
F12 V4 1.765296 1_655
F13 V5 1.765924 1_555
F14 V4 1.758480 1_555
F15 V5 1.769199 1_555
F16 V0 1.769128 1_544
F17 V4 1.919785 1_655
F17 V1 1.996244 1_545
F18 V3 1.957749 1_556
F18 V0 1.960668 1_545
