# generated using pymatgen
data_Li8Ni(O2F)2
_symmetry_space_group_name_H-M   'P 1'
_cell_length_a   5.43993172
_cell_length_b   5.18163322
_cell_length_c   10.51516735
_cell_angle_alpha   79.76806078
_cell_angle_beta   76.84242325
_cell_angle_gamma   63.99654066
_symmetry_Int_Tables_number   1
_chemical_formula_structural   Li8Ni(O2F)2
_chemical_formula_sum   'Li16 Ni2 O8 F4'
_cell_volume   258.37218864
_cell_formula_units_Z   2
loop_
 _symmetry_equiv_pos_site_id
 _symmetry_equiv_pos_as_xyz
  1  'x, y, z'
loop_
 _atom_site_type_symbol
 _atom_site_label
 _atom_site_symmetry_multiplicity
 _atom_site_fract_x
 _atom_site_fract_y
 _atom_site_fract_z
 _atom_site_occupancy
  Li  Li0  1  0.16104443  0.75035936  0.68171769  1
  Li  Li1  1  0.16825745  0.61803407  0.31774833  1
  Li  Li2  1  0.11634979  0.37036917  0.81174714  1
  Li  Li3  1  0.14169304  0.25330880  0.47146411  1
  Li  Li4  1  0.23894879  0.41358055  0.01444798  1
  Li  Li5  1  0.23598071  0.98191828  0.17376757  1
  Li  Li6  1  0.46984429  0.07425060  0.65443115  1
  Li  Li7  1  0.54843283  0.33497888  0.17278717  1
  Li  Li8  1  0.45156717  0.66502112  0.82721283  1
  Li  Li9  1  0.53015571  0.92574940  0.34556885  1
  Li  Li10  1  0.76401929  0.01808172  0.82623243  1
  Li  Li11  1  0.76105121  0.58641945  0.98555202  1
  Li  Li12  1  0.85830696  0.74669120  0.52853589  1
  Li  Li13  1  0.83174255  0.38196593  0.68225167  1
  Li  Li14  1  0.88365021  0.62963083  0.18825286  1
  Li  Li15  1  0.83895557  0.24964064  0.31828231  1
  Ni  Ni0  1  0.00000000  -0.00000000  -0.00000000  1
  Ni  Ni1  1  0.50000000  0.50000000  0.50000000  1
  O  O0  1  0.06868663  0.70692787  0.88331524  1
  O  O1  1  0.21807529  0.67414324  0.12309623  1
  O  O2  1  0.17785482  0.43090062  0.61313168  1
  O  O3  1  0.47608490  0.29732790  0.37063784  1
  O  O4  1  0.52391510  0.70267210  0.62936216  1
  O  O5  1  0.82214518  0.56909938  0.38686832  1
  O  O6  1  0.78192471  0.32585676  0.87690377  1
  O  O7  1  0.93131337  0.29307213  0.11668476  1
  F  F0  1  0.42614238  0.03320707  0.84439695  1
  F  F1  1  0.15424448  0.95790497  0.36339933  1
  F  F2  1  0.84575552  0.04209503  0.63660067  1
  F  F3  1  0.57385762  0.96679293  0.15560305  1
loop_
_geom_bond_atom_site_label_1
_geom_bond_atom_site_label_2
_geom_bond_distance
_geom_bond_site_symmetry_2
Li0 O4 1.840288 1_555
Li0 O2 1.878809 1_555
Li0 O0 2.059502 1_555
Li1 O3 1.878976 1_555
Li1 O5 1.966654 1_455
Li1 O1 1.988091 1_555
Li2 O6 1.891194 1_455
Li2 O0 1.912004 1_555
Li2 O2 2.028110 1_555
Li3 O2 1.970715 1_555
Li3 O3 1.971032 1_555
Li3 O5 2.045302 1_455
Li4 O1 1.869619 1_555
Li4 O0 1.916241 1_554
Li4 O7 2.050619 1_455
Li5 O1 1.816153 1_555
Li5 O7 1.863499 1_465
Li6 O4 1.873907 1_545
Li6 O2 1.892571 1_555
Li7 O7 1.955235 1_555
Li7 O1 1.980683 1_555
Li7 O3 2.017802 1_555
Li8 O0 1.955235 1_555
Li8 O6 1.980683 1_555
Li8 O4 2.017802 1_555
Li9 O3 1.873907 1_565
Li9 O5 1.892571 1_555
Li10 O6 1.816153 1_555
Li10 O0 1.863499 1_645
Li11 O6 1.869619 1_555
Li11 O7 1.916241 1_556
Li11 O0 2.050619 1_655
Li12 O5 1.970715 1_555
Li12 O4 1.971032 1_555
Li12 O2 2.045302 1_655
Li13 O4 1.878976 1_555
Li13 O2 1.966654 1_655
Li13 O6 1.988091 1_555
Li14 O1 1.891194 1_655
Li14 O7 1.912004 1_555
Li14 O5 2.028110 1_555
Li15 O3 1.840288 1_555
Li15 O5 1.878809 1_555
Li15 O7 2.059502 1_555
Ni0 O0 1.976577 1_544
Ni0 O7 1.976577 1_455
Ni0 O1 2.024829 1_545
Ni0 O6 2.024829 1_454
Ni1 O3 1.917805 1_555
Ni1 O4 1.917805 1_555
Ni1 O5 2.015986 1_555
Ni1 O2 2.015986 1_555
F0 Li10 1.772046 1_555
F0 Li2 1.865154 1_555
F0 Li8 1.889767 1_545
F0 Li6 1.941406 1_555
F1 Li15 1.814983 1_465
F1 Li1 1.871796 1_555
F1 Li5 1.935455 1_555
F1 Li9 1.944851 1_555
F1 Li3 2.032194 1_565
F2 Li0 1.814983 1_645
F2 Li13 1.871796 1_555
F2 Li10 1.935455 1_555
F2 Li6 1.944851 1_555
F2 Li12 2.032194 1_545
F3 Li5 1.772046 1_555
F3 Li14 1.865154 1_555
F3 Li7 1.889767 1_565
F3 Li9 1.941406 1_555
