# generated using pymatgen
data_Sr2SnHg
_symmetry_space_group_name_H-M   'P 1'
_cell_length_a   5.70080833
_cell_length_b   5.70080833
_cell_length_c   5.70080833
_cell_angle_alpha   60.00000000
_cell_angle_beta   60.00000000
_cell_angle_gamma   60.00000000
_symmetry_Int_Tables_number   1
_chemical_formula_structural   Sr2SnHg
_chemical_formula_sum   'Sr2 Sn1 Hg1'
_cell_volume   131.00694566
_cell_formula_units_Z   1
loop_
 _symmetry_equiv_pos_site_id
 _symmetry_equiv_pos_as_xyz
  1  'x, y, z'
loop_
 _atom_site_type_symbol
 _atom_site_label
 _atom_site_symmetry_multiplicity
 _atom_site_fract_x
 _atom_site_fract_y
 _atom_site_fract_z
 _atom_site_occupancy
  Sr  Sr0  1  0.00000000  0.00000000  -0.00000000  1
  Sr  Sr1  1  0.50000000  0.50000000  0.50000000  1
  Sn  Sn0  1  0.75000000  0.75000000  0.75000000  1
  Hg  Hg0  1  0.25000100  0.25000100  0.25000100  1
loop_
_geom_bond_atom_site_label_1
_geom_bond_atom_site_label_2
_geom_bond_distance
_geom_bond_site_symmetry_2
Sn0 Sr1 3.491018 1_655
Sn0 Sr0 3.491018 1_566
Sn0 Sr1 3.491018 1_555
Sn0 Sr0 3.491018 1_656
Sn0 Sr0 3.491018 1_665
Sn0 Sr0 3.491018 1_666
Sn0 Sr1 3.491018 1_565
Sn0 Sr1 3.491018 1_556
Hg0 Sr1 3.491004 1_555
Hg0 Sr0 3.491013 1_556
Hg0 Sr0 3.491013 1_565
Hg0 Sr0 3.491013 1_655
Hg0 Sr1 3.491023 1_545
Hg0 Sr1 3.491023 1_455
Hg0 Sr1 3.491023 1_554
Hg0 Sr0 3.491032 1_555
