# generated using pymatgen
data_V4GeSe8
_symmetry_space_group_name_H-M   'P 1'
_cell_length_a   7.31705782
_cell_length_b   7.36541259
_cell_length_c   7.31701390
_cell_angle_alpha   60.21713238
_cell_angle_beta   60.00019846
_cell_angle_gamma   60.21693481
_symmetry_Int_Tables_number   1
_chemical_formula_structural   V4GeSe8
_chemical_formula_sum   'V4 Ge1 Se8'
_cell_volume   279.74995727
_cell_formula_units_Z   1
loop_
 _symmetry_equiv_pos_site_id
 _symmetry_equiv_pos_as_xyz
  1  'x, y, z'
loop_
 _atom_site_type_symbol
 _atom_site_label
 _atom_site_symmetry_multiplicity
 _atom_site_fract_x
 _atom_site_fract_y
 _atom_site_fract_z
 _atom_site_occupancy
  V  V0  1  0.60565309  0.61271851  0.17595929  1
  V  V1  1  0.60565309  0.61271851  0.60566910  1
  V  V2  1  0.17594568  0.61271914  0.60566759  1
  V  V3  1  0.61175036  0.16471973  0.61176495  1
  Ge  Ge0  1  -0.00026224  0.00076128  -0.00024952  1
  Se  Se0  1  0.37450042  0.37249434  0.37447301  1
  Se  Se1  1  0.87849257  0.37254484  0.37448129  1
  Se  Se2  1  0.37142418  0.88589548  0.37134017  1
  Se  Se3  1  0.37450042  0.37249434  0.87853223  1
  Se  Se4  1  0.86458813  0.85997539  0.86458812  1
  Se  Se5  1  0.41083378  0.85998033  0.86459295  1
  Se  Se6  1  0.86233238  0.41300272  0.86233245  1
  Se  Se7  1  0.86458813  0.85997539  0.41084836  1
loop_
_geom_bond_atom_site_label_1
_geom_bond_atom_site_label_2
_geom_bond_distance
_geom_bond_site_symmetry_2
Ge0 Se5 2.459013 1_544
Ge0 Se7 2.459015 1_445
Ge0 Se4 2.459015 1_444
Ge0 Se6 2.487252 1_454
Se0 V0 2.462562 1_555
Se0 V2 2.462747 1_555
Se0 V3 2.470921 1_555
Se1 V1 2.462450 1_555
Se1 V0 2.462450 1_555
Se1 V3 2.471046 1_555
Se2 V1 2.451764 1_555
Se2 V0 2.451764 1_555
Se2 V2 2.452232 1_555
Se3 V1 2.462562 1_555
Se3 V2 2.462747 1_555
Se3 V3 2.470921 1_555
Se4 V3 2.656127 1_565
Se4 V2 2.661910 1_655
Se4 V0 2.662008 1_556
Se5 V3 2.656112 1_565
Se5 V0 2.661957 1_556
Se5 V1 2.661957 1_555
Se6 V2 2.693697 1_655
Se6 V0 2.693753 1_556
Se6 V1 2.693753 1_555
Se7 V3 2.656127 1_565
Se7 V2 2.661910 1_655
Se7 V1 2.662008 1_555
