# generated using pymatgen
data_Li2TiFe3O8
_symmetry_space_group_name_H-M   'P 1'
_cell_length_a   5.98457312
_cell_length_b   5.98541737
_cell_length_c   5.98556926
_cell_angle_alpha   60.00658634
_cell_angle_beta   60.02249321
_cell_angle_gamma   60.02545889
_symmetry_Int_Tables_number   1
_chemical_formula_structural   Li2TiFe3O8
_chemical_formula_sum   'Li2 Ti1 Fe3 O8'
_cell_volume   151.66906194
_cell_formula_units_Z   1
loop_
 _symmetry_equiv_pos_site_id
 _symmetry_equiv_pos_as_xyz
  1  'x, y, z'
loop_
 _atom_site_type_symbol
 _atom_site_label
 _atom_site_symmetry_multiplicity
 _atom_site_fract_x
 _atom_site_fract_y
 _atom_site_fract_z
 _atom_site_occupancy
  Li  Li0  1  0.12557800  0.12560500  0.12558400  1
  Li  Li1  1  0.87442600  0.87442400  0.87439500  1
  Ti  Ti0  1  0.50000700  0.50001000  0.49999400  1
  Fe  Fe0  1  0.00013500  0.49992600  0.49989200  1
  Fe  Fe1  1  0.49991700  0.99994300  0.50018200  1
  Fe  Fe2  1  0.49991600  0.50000100  0.00002300  1
  O  O0  1  0.26300100  0.26292400  0.26289900  1
  O  O1  1  0.26564000  0.26572400  0.71427400  1
  O  O2  1  0.26563000  0.71429600  0.26570100  1
  O  O3  1  0.71429600  0.26561400  0.26560200  1
  O  O4  1  0.28570400  0.73441000  0.73438400  1
  O  O5  1  0.73437500  0.28572900  0.73428000  1
  O  O6  1  0.73436600  0.73430000  0.28570800  1
  O  O7  1  0.73700900  0.73709300  0.73708200  1
loop_
_geom_bond_atom_site_label_1
_geom_bond_atom_site_label_2
_geom_bond_distance
_geom_bond_site_symmetry_2
Li0 O3 2.010622 1_455
Li0 O1 2.010706 1_554
Li0 O2 2.010712 1_545
Li0 O0 2.013398 1_555
Li1 O4 2.010602 1_655
Li1 O5 2.010692 1_565
Li1 O6 2.010721 1_556
Li1 O7 2.013418 1_555
Fe0 O0 2.012780 1_555
Fe0 O7 2.014345 1_455
Fe0 O2 2.036897 1_555
Fe0 O1 2.037106 1_555
Fe0 O5 2.037370 1_455
Fe0 O6 2.037475 1_455
Fe1 O7 2.012138 1_555
Fe1 O0 2.013024 1_565
Fe1 O4 2.036428 1_555
Fe1 O3 2.037682 1_565
Fe1 O1 2.037791 1_565
Fe1 O6 2.038699 1_555
Fe2 O0 2.012034 1_555
Fe2 O7 2.012834 1_554
Fe2 O4 2.036995 1_554
Fe2 O3 2.037407 1_555
Fe2 O2 2.038147 1_555
Fe2 O5 2.038330 1_554
O1 Ti0 1.986989 1_555
O2 Ti0 1.987175 1_555
O3 Ti0 1.988306 1_555
O4 Ti0 1.988310 1_555
O5 Ti0 1.987106 1_555
O6 Ti0 1.986969 1_555
