# generated using pymatgen
data_Li2V(SiO3)2
_symmetry_space_group_name_H-M   'P 1'
_cell_length_a   7.22423200
_cell_length_b   10.00304700
_cell_length_c   10.23069400
_cell_angle_alpha   90.00000000
_cell_angle_beta   90.00000000
_cell_angle_gamma   90.00000000
_symmetry_Int_Tables_number   1
_chemical_formula_structural   Li2V(SiO3)2
_chemical_formula_sum   'Li12 V6 Si12 O36'
_cell_volume   739.31427021
_cell_formula_units_Z   6
loop_
 _symmetry_equiv_pos_site_id
 _symmetry_equiv_pos_as_xyz
  1  'x, y, z'
loop_
 _atom_site_type_symbol
 _atom_site_label
 _atom_site_symmetry_multiplicity
 _atom_site_fract_x
 _atom_site_fract_y
 _atom_site_fract_z
 _atom_site_occupancy
  Li  Li0  1  0.77623100  0.24471300  0.00000000  1
  Li  Li1  1  0.76578000  0.76523000  0.00000000  1
  Li  Li2  1  0.28990900  0.45369500  0.23266000  1
  Li  Li3  1  0.22067400  0.03946500  0.23512300  1
  Li  Li4  1  0.77932600  0.53946500  0.26487700  1
  Li  Li5  1  0.71009100  0.95369500  0.26734000  1
  Li  Li6  1  0.23422000  0.26523000  0.50000000  1
  Li  Li7  1  0.22376900  0.74471300  0.50000000  1
  Li  Li8  1  0.71009100  0.95369500  0.73266000  1
  Li  Li9  1  0.77932600  0.53946500  0.73512300  1
  Li  Li10  1  0.22067400  0.03946500  0.76487700  1
  Li  Li11  1  0.28990900  0.45369500  0.76734000  1
  V  V0  1  0.24979700  0.24697000  0.00000000  1
  V  V1  1  0.98197200  0.01876100  0.00000000  1
  V  V2  1  0.51697100  0.47406300  0.00000000  1
  V  V3  1  0.01802800  0.51876100  0.50000000  1
  V  V4  1  0.48302900  0.97406300  0.50000000  1
  V  V5  1  0.75020300  0.74697000  0.50000000  1
  Si  Si0  1  0.98750300  0.52588300  0.00000000  1
  Si  Si1  1  0.51228500  0.96882400  0.00000000  1
  Si  Si2  1  0.02473600  0.74874400  0.22538600  1
  Si  Si3  1  0.47306600  0.74768100  0.22585100  1
  Si  Si4  1  0.52693400  0.24768100  0.27414900  1
  Si  Si5  1  0.97526400  0.24874400  0.27461400  1
  Si  Si6  1  0.48771500  0.46882400  0.50000000  1
  Si  Si7  1  0.01249700  0.02588300  0.50000000  1
  Si  Si8  1  0.97526400  0.24874400  0.72538600  1
  Si  Si9  1  0.52693400  0.24768100  0.72585100  1
  Si  Si10  1  0.47306600  0.74768100  0.77414900  1
  Si  Si11  1  0.02473600  0.74874400  0.77461400  1
  O  O0  1  0.30307300  0.02849100  0.00000000  1
  O  O1  1  0.68819400  0.06799400  0.00000000  1
  O  O2  1  0.19534500  0.46516000  0.00000000  1
  O  O3  1  0.81057700  0.42836600  0.00000000  1
  O  O4  1  0.03985700  0.18814700  0.13474900  1
  O  O5  1  0.55165600  0.86228100  0.12203800  1
  O  O6  1  0.95102100  0.63027100  0.12423300  1
  O  O7  1  0.45332400  0.30799100  0.13669800  1
  O  O8  1  0.94066800  0.88991900  0.17498300  1
  O  O9  1  0.54147900  0.60014600  0.18161400  1
  O  O10  1  0.75170200  0.25784700  0.27954000  1
  O  O11  1  0.24829800  0.75784700  0.22046000  1
  O  O12  1  0.45852100  0.10014600  0.31838600  1
  O  O13  1  0.05933200  0.38991900  0.32501700  1
  O  O14  1  0.54667600  0.80799100  0.36330200  1
  O  O15  1  0.04897900  0.13027100  0.37576700  1
  O  O16  1  0.44834400  0.36228100  0.37796200  1
  O  O17  1  0.96014300  0.68814700  0.36525100  1
  O  O18  1  0.69692700  0.52849100  0.50000000  1
  O  O19  1  0.31180600  0.56799400  0.50000000  1
  O  O20  1  0.18942300  0.92836600  0.50000000  1
  O  O21  1  0.80465500  0.96516000  0.50000000  1
  O  O22  1  0.96014300  0.68814700  0.63474900  1
  O  O23  1  0.44834400  0.36228100  0.62203800  1
  O  O24  1  0.04897900  0.13027100  0.62423300  1
  O  O25  1  0.54667600  0.80799100  0.63669800  1
  O  O26  1  0.05933200  0.38991900  0.67498300  1
  O  O27  1  0.45852100  0.10014600  0.68161400  1
  O  O28  1  0.24829800  0.75784700  0.77954000  1
  O  O29  1  0.75170200  0.25784700  0.72046000  1
  O  O30  1  0.54147900  0.60014600  0.81838600  1
  O  O31  1  0.94066800  0.88991900  0.82501700  1
  O  O32  1  0.45332400  0.30799100  0.86330200  1
  O  O33  1  0.95102100  0.63027100  0.87576700  1
  O  O34  1  0.55165600  0.86228100  0.87796200  1
  O  O35  1  0.03985700  0.18814700  0.86525100  1
loop_
_geom_bond_atom_site_label_1
_geom_bond_atom_site_label_2
_geom_bond_distance
_geom_bond_site_symmetry_2
Li0 O3 1.853770 1_555
Li0 O1 1.878659 1_555
Li0 O4 2.418210 1_655
Li0 O35 2.418210 1_654
Li1 O5 2.212271 1_555
Li1 O34 2.212271 1_554
Li1 O6 2.286649 1_555
Li1 O33 2.286649 1_554
Li1 O8 2.521259 1_555
Li1 O31 2.521259 1_554
Li2 O13 2.018532 1_555
Li2 O16 2.087105 1_555
Li2 O7 2.117027 1_555
Li2 O9 2.392022 1_555
Li2 O2 2.479022 1_555
Li3 O12 2.011590 1_555
Li3 O15 2.105700 1_555
Li3 O4 2.229982 1_555
Li3 O0 2.480461 1_555
Li3 O8 2.590012 1_445
Li4 O9 2.011590 1_555
Li4 O6 2.105700 1_555
Li4 O17 2.229982 1_555
Li4 O18 2.480461 1_555
Li4 O13 2.590012 1_655
Li5 O8 2.018532 1_555
Li5 O5 2.087105 1_555
Li5 O14 2.117027 1_555
Li5 O12 2.392022 1_565
Li5 O21 2.479022 1_555
Li6 O23 2.212271 1_555
Li6 O16 2.212271 1_555
Li6 O24 2.286649 1_555
Li6 O15 2.286649 1_555
Li6 O13 2.521259 1_555
Li6 O26 2.521259 1_555
Li7 O20 1.853770 1_555
Li7 O19 1.878659 1_555
Li7 O17 2.418210 1_455
Li7 O22 2.418210 1_455
Li8 O31 2.018532 1_555
Li8 O34 2.087105 1_555
Li8 O25 2.117027 1_555
Li8 O27 2.392022 1_565
Li8 O21 2.479022 1_555
Li9 O30 2.011590 1_555
Li9 O33 2.105700 1_555
Li9 O22 2.229982 1_555
Li9 O18 2.480461 1_555
Li9 O26 2.590012 1_655
Li10 O27 2.011590 1_555
Li10 O24 2.105700 1_555
Li10 O35 2.229982 1_555
Li10 O0 2.480461 1_556
Li10 O31 2.590012 1_445
Li11 O26 2.018532 1_555
Li11 O23 2.087105 1_555
Li11 O32 2.117027 1_555
Li11 O30 2.392022 1_555
Li11 O2 2.479022 1_556
O0 Si1 1.624977 1_545
O0 V0 2.219087 1_555
O0 V1 2.321749 1_455
O1 Si1 1.612148 1_545
O1 V1 2.178711 1_555
O2 Si0 1.619707 1_455
O2 V0 2.217731 1_555
O2 V2 2.325207 1_555
O3 Si0 1.607860 1_555
O3 V2 2.169774 1_555
O4 Si5 1.622557 1_455
O4 V0 2.132355 1_555
O4 V1 2.224017 1_455
O5 Si3 1.662670 1_555
O5 Si1 1.666003 1_555
O6 Si2 1.661018 1_655
O6 Si0 1.665901 1_555
O7 Si4 1.619935 1_555
O7 V0 2.119030 1_555
O7 V2 2.219670 1_555
O8 Si2 1.621420 1_655
O8 V1 2.225956 1_565
O9 Si3 1.620825 1_555
O9 V2 2.252623 1_555
O10 Si5 1.618413 1_555
O10 Si4 1.627892 1_555
O11 Si2 1.618413 1_555
O11 Si3 1.627892 1_555
O12 Si4 1.620825 1_555
O12 V4 2.252623 1_545
O13 Si5 1.621420 1_455
O13 V3 2.225956 1_555
O14 Si3 1.619935 1_555
O14 V5 2.119030 1_555
O14 V4 2.219670 1_555
O15 Si5 1.661018 1_455
O15 Si7 1.665901 1_555
O16 Si4 1.662670 1_555
O16 Si6 1.666003 1_555
O17 Si2 1.622557 1_655
O17 V5 2.132355 1_555
O17 V3 2.224017 1_655
O18 Si6 1.624977 1_555
O18 V5 2.219087 1_555
O18 V3 2.321749 1_655
O19 Si6 1.612148 1_555
O19 V3 2.178711 1_555
O20 Si7 1.607860 1_565
O20 V4 2.169774 1_555
O21 Si7 1.619707 1_665
O21 V5 2.217731 1_555
O21 V4 2.325207 1_555
O22 Si11 1.622557 1_655
O22 V5 2.132355 1_555
O22 V3 2.224017 1_655
O23 Si9 1.662670 1_555
O23 Si6 1.666003 1_555
O24 Si8 1.661018 1_455
O24 Si7 1.665901 1_555
O25 Si10 1.619935 1_555
O25 V5 2.119030 1_555
O25 V4 2.219670 1_555
O26 Si8 1.621420 1_455
O26 V3 2.225956 1_555
O27 Si9 1.620825 1_555
O27 V4 2.252623 1_545
O28 Si11 1.618413 1_555
O28 Si10 1.627892 1_555
O29 Si8 1.618413 1_555
O29 Si9 1.627892 1_555
O30 Si10 1.620825 1_555
O30 V2 2.252623 1_556
O31 Si11 1.621420 1_655
O31 V1 2.225956 1_566
O32 Si9 1.619935 1_555
O32 V0 2.119030 1_556
O32 V2 2.219670 1_556
O33 Si11 1.661018 1_655
O33 Si0 1.665901 1_556
O34 Si10 1.662670 1_555
O34 Si1 1.666003 1_556
O35 Si8 1.622557 1_455
O35 V0 2.132355 1_556
O35 V1 2.224017 1_456
