# generated using pymatgen
data_FeB6(CO)4
_symmetry_space_group_name_H-M   'P 1'
_cell_length_a   11.59697400
_cell_length_b   11.92973300
_cell_length_c   16.33695800
_cell_angle_alpha   90.00000000
_cell_angle_beta   90.00000000
_cell_angle_gamma   90.00000000
_symmetry_Int_Tables_number   1
_chemical_formula_structural   FeB6(CO)4
_chemical_formula_sum   'Fe8 B48 C32 O32'
_cell_volume   2260.19859095
_cell_formula_units_Z   8
loop_
 _symmetry_equiv_pos_site_id
 _symmetry_equiv_pos_as_xyz
  1  'x, y, z'
loop_
 _atom_site_type_symbol
 _atom_site_label
 _atom_site_symmetry_multiplicity
 _atom_site_fract_x
 _atom_site_fract_y
 _atom_site_fract_z
 _atom_site_occupancy
  Fe  Fe0  1  0.73043600  0.16746300  0.47754900  1
  Fe  Fe1  1  0.23043600  0.33253700  0.52245100  1
  Fe  Fe2  1  0.26956400  0.66746300  0.02245100  1
  Fe  Fe3  1  0.76956400  0.83253700  0.97754900  1
  Fe  Fe4  1  0.26956400  0.83253700  0.52245100  1
  Fe  Fe5  1  0.76956400  0.66746300  0.47754900  1
  Fe  Fe6  1  0.73043600  0.33253700  0.97754900  1
  Fe  Fe7  1  0.23043600  0.16746300  0.02245100  1
  B  B0  1  0.77036100  0.08362800  0.29424500  1
  B  B1  1  0.27036100  0.41637200  0.70575500  1
  B  B2  1  0.22963900  0.58362800  0.20575500  1
  B  B3  1  0.72963900  0.91637200  0.79424500  1
  B  B4  1  0.22963900  0.91637200  0.70575500  1
  B  B5  1  0.72963900  0.58362800  0.29424500  1
  B  B6  1  0.77036100  0.41637200  0.79424500  1
  B  B7  1  0.27036100  0.08362800  0.20575500  1
  B  B8  1  0.69804400  0.15214800  0.22148700  1
  B  B9  1  0.19804400  0.34785200  0.77851300  1
  B  B10  1  0.30195600  0.65214800  0.27851300  1
  B  B11  1  0.80195600  0.84785200  0.72148700  1
  B  B12  1  0.30195600  0.84785200  0.77851300  1
  B  B13  1  0.80195600  0.65214800  0.22148700  1
  B  B14  1  0.69804400  0.34785200  0.72148700  1
  B  B15  1  0.19804400  0.15214800  0.27851300  1
  B  B16  1  0.62572300  0.07827000  0.28497800  1
  B  B17  1  0.12572300  0.42173000  0.71502200  1
  B  B18  1  0.37427700  0.57827000  0.21502200  1
  B  B19  1  0.87427700  0.92173000  0.78497800  1
  B  B20  1  0.37427700  0.92173000  0.71502200  1
  B  B21  1  0.87427700  0.57827000  0.28497800  1
  B  B22  1  0.62572300  0.42173000  0.78497800  1
  B  B23  1  0.12572300  0.07827000  0.21502200  1
  B  B24  1  0.68277800  0.08019200  0.37546000  1
  B  B25  1  0.18277800  0.41980800  0.62454000  1
  B  B26  1  0.31722200  0.58019200  0.12454000  1
  B  B27  1  0.81722200  0.91980800  0.87546000  1
  B  B28  1  0.31722200  0.91980800  0.62454000  1
  B  B29  1  0.81722200  0.58019200  0.37546000  1
  B  B30  1  0.68277800  0.41980800  0.87546000  1
  B  B31  1  0.18277800  0.08019200  0.12454000  1
  B  B32  1  0.80535600  0.17948200  0.36433200  1
  B  B33  1  0.30535600  0.32051800  0.63566800  1
  B  B34  1  0.19464400  0.67948200  0.13566800  1
  B  B35  1  0.69464400  0.82051800  0.86433200  1
  B  B36  1  0.19464400  0.82051800  0.63566800  1
  B  B37  1  0.69464400  0.67948200  0.36433200  1
  B  B38  1  0.80535600  0.32051800  0.86433200  1
  B  B39  1  0.30535600  0.17948200  0.13566800  1
  B  B40  1  0.79721600  0.21820900  0.26946700  1
  B  B41  1  0.29721600  0.28179100  0.73053300  1
  B  B42  1  0.20278400  0.71820900  0.23053300  1
  B  B43  1  0.70278400  0.78179100  0.76946700  1
  B  B44  1  0.20278400  0.78179100  0.73053300  1
  B  B45  1  0.70278400  0.71820900  0.26946700  1
  B  B46  1  0.79721600  0.28179100  0.76946700  1
  B  B47  1  0.29721600  0.21820900  0.23053300  1
  C  C0  1  0.81297100  0.27594000  0.52551900  1
  C  C1  1  0.31297100  0.22406000  0.47448100  1
  C  C2  1  0.18702900  0.77594000  0.97448100  1
  C  C3  1  0.68702900  0.72406000  0.02551900  1
  C  C4  1  0.18702900  0.72406000  0.47448100  1
  C  C5  1  0.68702900  0.77594000  0.52551900  1
  C  C6  1  0.81297100  0.22406000  0.02551900  1
  C  C7  1  0.31297100  0.27594000  0.97448100  1
  C  C8  1  0.61863000  0.12755000  0.54856600  1
  C  C9  1  0.11863000  0.37245000  0.45143400  1
  C  C10  1  0.38137000  0.62755000  0.95143400  1
  C  C11  1  0.88137000  0.87245000  0.04856600  1
  C  C12  1  0.38137000  0.87245000  0.45143400  1
  C  C13  1  0.88137000  0.62755000  0.54856600  1
  C  C14  1  0.61863000  0.37245000  0.04856600  1
  C  C15  1  0.11863000  0.12755000  0.95143400  1
  C  C16  1  0.63480500  0.26440300  0.42788000  1
  C  C17  1  0.13480500  0.23559700  0.57212000  1
  C  C18  1  0.36519500  0.76440300  0.07212000  1
  C  C19  1  0.86519500  0.73559700  0.92788000  1
  C  C20  1  0.36519500  0.73559700  0.57212000  1
  C  C21  1  0.86519500  0.76440300  0.42788000  1
  C  C22  1  0.63480500  0.23559700  0.92788000  1
  C  C23  1  0.13480500  0.26440300  0.07212000  1
  C  C24  1  0.82499000  0.05687200  0.51445000  1
  C  C25  1  0.32499000  0.44312800  0.48555000  1
  C  C26  1  0.17501000  0.55687200  0.98555000  1
  C  C27  1  0.67501000  0.94312800  0.01445000  1
  C  C28  1  0.17501000  0.94312800  0.48555000  1
  C  C29  1  0.67501000  0.55687200  0.51445000  1
  C  C30  1  0.82499000  0.44312800  0.01445000  1
  C  C31  1  0.32499000  0.05687200  0.98555000  1
  O  O0  1  0.86596100  0.34847400  0.55364100  1
  O  O1  1  0.36596100  0.15152600  0.44635900  1
  O  O2  1  0.13403900  0.84847400  0.94635900  1
  O  O3  1  0.63403900  0.65152600  0.05364100  1
  O  O4  1  0.13403900  0.65152600  0.44635900  1
  O  O5  1  0.63403900  0.84847400  0.55364100  1
  O  O6  1  0.86596100  0.15152600  0.05364100  1
  O  O7  1  0.36596100  0.34847400  0.94635900  1
  O  O8  1  0.54375200  0.10516000  0.59196000  1
  O  O9  1  0.04375200  0.39484000  0.40804000  1
  O  O10  1  0.45624800  0.60516000  0.90804000  1
  O  O11  1  0.95624800  0.89484000  0.09196000  1
  O  O12  1  0.45624800  0.89484000  0.40804000  1
  O  O13  1  0.95624800  0.60516000  0.59196000  1
  O  O14  1  0.54375200  0.39484000  0.09196000  1
  O  O15  1  0.04375200  0.10516000  0.90804000  1
  O  O16  1  0.57309600  0.32611400  0.39550100  1
  O  O17  1  0.07309600  0.17388600  0.60449900  1
  O  O18  1  0.42690400  0.82611400  0.10449900  1
  O  O19  1  0.92690400  0.67388600  0.89550100  1
  O  O20  1  0.42690400  0.67388600  0.60449900  1
  O  O21  1  0.92690400  0.82611400  0.39550100  1
  O  O22  1  0.57309600  0.17388600  0.89550100  1
  O  O23  1  0.07309600  0.32611400  0.10449900  1
  O  O24  1  0.88172500  0.98911400  0.54505500  1
  O  O25  1  0.38172500  0.51088600  0.45494500  1
  O  O26  1  0.11827500  0.48911400  0.95494500  1
  O  O27  1  0.61827500  0.01088600  0.04505500  1
  O  O28  1  0.11827500  0.01088600  0.45494500  1
  O  O29  1  0.61827500  0.48911400  0.54505500  1
  O  O30  1  0.88172500  0.51088600  0.04505500  1
  O  O31  1  0.38172500  0.98911400  0.95494500  1
loop_
_geom_bond_atom_site_label_1
_geom_bond_atom_site_label_2
_geom_bond_distance
_geom_bond_site_symmetry_2
B0 B32 1.668343 1_555
B0 B8 1.668654 1_555
B0 B24 1.671447 1_555
B0 B40 1.684795 1_555
B0 B16 1.685394 1_555
B1 B33 1.668343 1_555
B1 B9 1.668654 1_555
B1 B25 1.671447 1_555
B1 B41 1.684795 1_555
B1 B17 1.685394 1_555
B2 B34 1.668343 1_555
B2 B26 1.671447 1_555
B2 B42 1.684795 1_555
B3 B35 1.668343 1_555
B3 B43 1.684795 1_555
B4 B44 1.684795 1_555
B10 B18 1.598775 1_555
B10 B42 1.599444 1_555
B10 B2 1.668654 1_555
B11 B19 1.598775 1_555
B11 B43 1.599444 1_555
B11 B3 1.668654 1_555
B12 B20 1.598775 1_555
B12 B44 1.599444 1_555
B12 B4 1.668654 1_555
B13 B21 1.598775 1_555
B13 B45 1.599444 1_555
B13 B5 1.668654 1_555
B14 B22 1.598775 1_555
B14 B46 1.599444 1_555
B14 B6 1.668654 1_555
B15 B23 1.598775 1_555
B15 B47 1.599444 1_555
B15 B7 1.668654 1_555
B16 B8 1.598775 1_555
B16 B24 1.619693 1_555
B17 B9 1.598775 1_555
B17 B25 1.619693 1_555
B18 B26 1.619693 1_555
B18 B2 1.685394 1_555
B19 B27 1.619693 1_555
B19 B3 1.685394 1_555
B20 B28 1.619693 1_555
B20 B4 1.685394 1_555
B21 B29 1.619693 1_555
B21 B5 1.685394 1_555
B22 B30 1.619693 1_555
B22 B6 1.685394 1_555
B23 B31 1.619693 1_555
B23 B7 1.685394 1_555
B24 B32 1.859262 1_555
B24 Fe0 2.042310 1_555
B25 B33 1.859262 1_555
B25 Fe1 2.042310 1_555
B26 B34 1.859262 1_555
B26 Fe2 2.042310 1_555
B27 B3 1.671447 1_555
B27 B35 1.859262 1_555
B27 Fe3 2.042310 1_555
B28 B4 1.671447 1_555
B28 B36 1.859262 1_555
B28 Fe4 2.042310 1_555
B29 B5 1.671447 1_555
B29 B37 1.859262 1_555
B29 Fe5 2.042310 1_555
B30 B6 1.671447 1_555
B30 B38 1.859262 1_555
B30 Fe6 2.042310 1_555
B31 B7 1.671447 1_555
B31 B39 1.859262 1_555
B31 Fe7 2.042310 1_555
B32 B40 1.619955 1_555
B32 Fe0 2.048548 1_555
B33 B41 1.619955 1_555
B33 Fe1 2.048548 1_555
B34 B42 1.619955 1_555
B34 Fe2 2.048548 1_555
B35 B43 1.619955 1_555
B35 Fe3 2.048548 1_555
B36 B44 1.619955 1_555
B36 B4 1.668343 1_555
B36 Fe4 2.048548 1_555
B37 B45 1.619955 1_555
B37 B5 1.668343 1_555
B37 Fe5 2.048548 1_555
B38 B46 1.619955 1_555
B38 B6 1.668343 1_555
B38 Fe6 2.048548 1_555
B39 B47 1.619955 1_555
B39 B7 1.668343 1_555
B39 Fe7 2.048548 1_555
B40 B8 1.599444 1_555
B41 B9 1.599444 1_555
B45 B5 1.684795 1_555
B46 B6 1.684795 1_555
B47 B7 1.684795 1_555
C0 O0 1.156493 1_555
C0 Fe0 1.790253 1_555
C1 O1 1.156493 1_555
C1 Fe1 1.790253 1_555
C2 O2 1.156493 1_555
C2 Fe2 1.790253 1_556
C3 O3 1.156493 1_555
C3 Fe3 1.790253 1_554
C4 O4 1.156493 1_555
C4 Fe4 1.790253 1_555
C5 O5 1.156493 1_555
C5 Fe5 1.790253 1_555
C6 O6 1.156493 1_555
C6 Fe6 1.790253 1_554
C7 O7 1.156493 1_555
C7 Fe7 1.790253 1_556
C8 O8 1.152375 1_555
C8 Fe0 1.803882 1_555
C9 O9 1.152375 1_555
C9 Fe1 1.803882 1_555
C10 O10 1.152375 1_555
C10 Fe2 1.803882 1_556
C11 O11 1.152375 1_555
C11 Fe3 1.803882 1_554
C12 O12 1.152375 1_555
C12 Fe4 1.803882 1_555
C13 O13 1.152375 1_555
C13 Fe5 1.803882 1_555
C14 O14 1.152375 1_555
C14 Fe6 1.803882 1_554
C15 O15 1.152375 1_555
C15 Fe7 1.803882 1_556
C16 O16 1.154961 1_555
C16 Fe0 1.796052 1_555
C17 O17 1.154961 1_555
C17 Fe1 1.796052 1_555
C18 O18 1.154961 1_555
C18 Fe2 1.796052 1_555
C19 O19 1.154961 1_555
C19 Fe3 1.796052 1_555
C20 O20 1.154961 1_555
C20 Fe4 1.796052 1_555
C21 O21 1.154961 1_555
C21 Fe5 1.796052 1_555
C22 O22 1.154961 1_555
C22 Fe6 1.796052 1_555
C23 O23 1.154961 1_555
C23 Fe7 1.796052 1_555
C24 O24 1.155985 1_545
C24 Fe0 1.818361 1_555
C25 O25 1.155985 1_555
C25 Fe1 1.818361 1_555
C26 O26 1.155985 1_555
C26 Fe2 1.818361 1_556
C27 O27 1.155985 1_565
C27 Fe3 1.818361 1_554
C28 O28 1.155985 1_565
C28 Fe4 1.818361 1_555
C29 O29 1.155985 1_555
C29 Fe5 1.818361 1_555
C30 O30 1.155985 1_555
C30 Fe6 1.818361 1_554
C31 O31 1.155985 1_545
C31 Fe7 1.818361 1_556
