# generated using pymatgen
data_V2TcOs
_symmetry_space_group_name_H-M   'P 1'
_cell_length_a   4.25279608
_cell_length_b   4.25279104
_cell_length_c   4.25279464
_cell_angle_alpha   60.00002800
_cell_angle_beta   60.00008960
_cell_angle_gamma   60.00008393
_symmetry_Int_Tables_number   1
_chemical_formula_structural   V2TcOs
_chemical_formula_sum   'V2 Tc1 Os1'
_cell_volume   54.38870005
_cell_formula_units_Z   1
loop_
 _symmetry_equiv_pos_site_id
 _symmetry_equiv_pos_as_xyz
  1  'x, y, z'
loop_
 _atom_site_type_symbol
 _atom_site_label
 _atom_site_symmetry_multiplicity
 _atom_site_fract_x
 _atom_site_fract_y
 _atom_site_fract_z
 _atom_site_occupancy
  V  V0  1  0.50000000  0.50000000  0.50000000  1
  V  V1  1  -0.00000000  0.99999900  0.99999900  1
  Tc  Tc0  1  0.74999900  0.75000100  0.75000000  1
  Os  Os0  1  0.25000000  0.25000000  0.25000000  1
loop_
_geom_bond_atom_site_label_1
_geom_bond_atom_site_label_2
_geom_bond_distance
_geom_bond_site_symmetry_2
Tc0 V1 2.604286 1_655
Tc0 V0 2.604290 1_565
Tc0 V0 2.604292 1_555
Tc0 V1 2.604295 1_555
Tc0 V0 2.604296 1_556
Tc0 V1 2.604299 1_654
Tc0 V1 2.604301 1_645
Tc0 V0 2.604302 1_655
Os0 V1 2.604290 1_554
Os0 V0 2.604292 1_555
Os0 V1 2.604293 1_545
Os0 V0 2.604294 1_545
Os0 V0 2.604296 1_554
Os0 V0 2.604298 1_455
Os0 V1 2.604298 1_644
Os0 V1 2.604299 1_544
