# generated using pymatgen
data_Mg17Al11Ag
_symmetry_space_group_name_H-M   'P 1'
_cell_length_a   9.08290491
_cell_length_b   9.08290491
_cell_length_c   9.14300257
_cell_angle_alpha   70.44918918
_cell_angle_beta   70.44918918
_cell_angle_gamma   109.02903416
_symmetry_Int_Tables_number   1
_chemical_formula_structural   Mg17Al11Ag
_chemical_formula_sum   'Mg17 Al11 Ag1'
_cell_volume   582.65987863
_cell_formula_units_Z   1
loop_
 _symmetry_equiv_pos_site_id
 _symmetry_equiv_pos_as_xyz
  1  'x, y, z'
loop_
 _atom_site_type_symbol
 _atom_site_label
 _atom_site_symmetry_multiplicity
 _atom_site_fract_x
 _atom_site_fract_y
 _atom_site_fract_z
 _atom_site_occupancy
  Mg  Mg0  1  0.99902200  0.99902200  0.65540400  1
  Mg  Mg1  1  0.68236600  0.68236600  0.71399200  1
  Mg  Mg2  1  0.65481400  0.65481400  0.34480800  1
  Mg  Mg3  1  0.39653300  0.39653300  0.28812700  1
  Mg  Mg4  1  0.00144800  0.00144800  0.99845500  1
  Mg  Mg5  1  0.59977900  0.31677100  0.99939400  1
  Mg  Mg6  1  0.71119300  0.39757200  0.60418100  1
  Mg  Mg7  1  0.31652000  0.00051300  0.39857700  1
  Mg  Mg8  1  0.34476600  0.00143900  0.99895900  1
  Mg  Mg9  1  0.68377800  0.28632900  0.31573200  1
  Mg  Mg10  1  0.00004300  0.60163300  0.68372300  1
  Mg  Mg11  1  0.60163300  0.00004300  0.68372300  1
  Mg  Mg12  1  0.28632900  0.68377800  0.31573200  1
  Mg  Mg13  1  0.00143900  0.34476600  0.99895900  1
  Mg  Mg14  1  0.00051300  0.31652000  0.39857700  1
  Mg  Mg15  1  0.39757200  0.71119300  0.60418100  1
  Mg  Mg16  1  0.31677100  0.59977900  0.99939400  1
  Al  Al0  1  0.18676900  0.18676900  0.18020500  1
  Al  Al1  1  0.81425600  0.63241600  0.00044500  1
  Al  Al2  1  0.36621900  0.18211800  0.63363900  1
  Al  Al3  1  0.00023300  0.81522200  0.36620100  1
  Al  Al4  1  0.99988800  0.63457700  0.18435900  1
  Al  Al5  1  0.18535400  0.82003300  0.81352200  1
  Al  Al6  1  0.82003300  0.18535400  0.81352200  1
  Al  Al7  1  0.63457700  0.99988800  0.18435900  1
  Al  Al8  1  0.81522200  0.00023300  0.36620100  1
  Al  Al9  1  0.18211800  0.36621900  0.63363900  1
  Al  Al10  1  0.63241600  0.81425600  0.00044500  1
  Ag  Ag0  1  0.36839800  0.36839800  0.82153700  1
loop_
_geom_bond_atom_site_label_1
_geom_bond_atom_site_label_2
_geom_bond_distance
_geom_bond_site_symmetry_2
Mg0 Mg14 3.041626 1_665
Mg0 Mg7 3.041626 1_665
Mg0 Mg1 3.061844 1_555
Mg0 Mg4 3.151333 1_665
Mg1 Mg16 3.108836 1_555
Mg1 Mg5 3.108836 1_555
Mg1 Mg6 3.125990 1_555
Mg1 Mg15 3.125990 1_555
Mg1 Mg10 3.149781 1_655
Mg1 Mg11 3.149781 1_565
Mg2 Mg6 3.038059 1_555
Mg2 Mg3 3.051893 1_555
Mg2 Mg4 3.169163 1_664
Mg3 Mg5 3.129259 1_554
Mg3 Mg9 3.138032 1_555
Mg3 Mg7 3.139979 1_555
Mg4 Mg8 3.119896 1_555
Mg5 Mg8 3.042378 1_555
Mg5 Mg6 3.148499 1_555
Mg5 Mg7 3.173430 1_556
Mg5 Mg9 3.178530 1_556
Mg6 Mg9 3.177603 1_555
Mg7 Mg9 3.128318 1_555
Mg10 Mg13 3.048569 1_555
Mg10 Mg12 3.136508 1_555
Mg10 Mg6 3.139377 1_455
Mg10 Mg15 3.157778 1_555
Mg10 Mg7 3.171323 1_565
Mg10 Mg5 3.176031 1_455
Mg11 Mg8 3.048569 1_555
Mg11 Mg9 3.136508 1_555
Mg11 Mg15 3.139377 1_545
Mg11 Mg6 3.157778 1_555
Mg11 Mg14 3.171323 1_655
Mg11 Mg16 3.176031 1_545
Mg12 Mg8 3.061777 1_564
Mg12 Mg14 3.128318 1_555
Mg12 Mg3 3.138032 1_555
Mg12 Mg7 3.163597 1_565
Mg12 Mg15 3.177603 1_555
Mg12 Mg16 3.178530 1_554
Mg13 Mg16 3.042378 1_555
Mg13 Mg9 3.061777 1_456
Mg13 Mg4 3.119896 1_555
Mg14 Mg3 3.139979 1_555
Mg14 Mg6 3.140537 1_455
Mg14 Mg9 3.163597 1_455
Mg14 Mg16 3.173430 1_554
Mg15 Mg2 3.038059 1_555
Mg15 Mg7 3.140537 1_565
Mg15 Mg16 3.148499 1_555
Mg16 Mg3 3.129259 1_556
Al0 Al3 2.766482 1_545
Al0 Al8 2.766482 1_455
Al0 Mg3 2.895355 1_555
Al0 Mg7 2.975149 1_555
Al0 Mg14 2.975149 1_555
Al0 Mg13 3.080544 1_554
Al0 Mg8 3.080544 1_554
Al0 Mg5 3.139129 1_554
Al0 Mg16 3.139129 1_554
Al0 Mg4 3.213194 1_554
Al1 Al10 2.689730 1_555
Al1 Al4 2.751151 1_555
Al1 Al5 2.763293 1_654
Al1 Mg5 2.898895 1_554
Al1 Mg9 2.969030 1_555
Al1 Mg10 2.981680 1_654
Al1 Mg2 3.101756 1_555
Al1 Mg0 3.104581 1_554
Al1 Mg3 3.186286 1_555
Al1 Mg1 3.187363 1_554
Al1 Mg4 3.216902 1_664
Al2 Al5 2.695965 1_545
Al2 Al9 2.723174 1_555
Al2 Mg9 2.903640 1_555
Al2 Mg3 2.966242 1_555
Al2 Mg6 2.967161 1_555
Al2 Mg8 3.094315 1_555
Al2 Mg0 3.105860 1_445
Al2 Mg11 3.157708 1_555
Al2 Mg7 3.174900 1_555
Al2 Mg4 3.192261 1_555
Al3 Al4 2.698565 1_455
Al3 Al8 2.736635 1_465
Al3 Mg10 2.901150 1_555
Al3 Mg1 2.986422 1_455
Al3 Mg7 2.987113 1_565
Al3 Mg2 3.102419 1_455
Al3 Mg8 3.105291 1_564
Al3 Mg12 3.159146 1_555
Al3 Mg6 3.189884 1_455
Al3 Mg4 3.212925 1_564
Al4 Al5 2.770476 1_654
Al4 Mg14 2.900514 1_655
Al4 Mg9 2.986380 1_555
Al4 Mg16 2.989518 1_654
Al4 Mg2 3.080313 1_555
Al4 Mg8 3.106200 1_664
Al4 Mg12 3.178680 1_655
Al4 Mg4 3.186769 1_664
Al4 Mg6 3.208723 1_555
Al5 Mg15 2.897576 1_555
Al5 Mg10 2.985253 1_555
Al5 Mg16 2.992397 1_555
Al5 Mg0 3.075075 1_455
Al5 Mg8 3.105307 1_565
Al5 Mg7 3.168412 1_565
Al5 Mg11 3.169336 1_565
Al5 Mg4 3.183332 1_565
Al6 Al9 2.695965 1_655
Al6 Al7 2.770476 1_546
Al6 Mg6 2.897576 1_555
Al6 Mg11 2.985253 1_555
Al6 Mg5 2.992397 1_555
Al6 Mg0 3.075075 1_545
Al6 Mg13 3.105307 1_655
Al6 Mg14 3.168412 1_655
Al6 Mg10 3.169336 1_655
Al6 Mg4 3.183332 1_655
Al7 Al8 2.698565 1_565
Al7 Mg7 2.900514 1_565
Al7 Mg12 2.986380 1_555
Al7 Mg5 2.989518 1_564
Al7 Mg2 3.080313 1_555
Al7 Mg13 3.106200 1_664
Al7 Mg9 3.178680 1_565
Al7 Mg4 3.186769 1_664
Al7 Mg15 3.208723 1_555
Al8 Mg11 2.901150 1_555
Al8 Mg1 2.986422 1_545
Al8 Mg14 2.987113 1_655
Al8 Mg2 3.102419 1_545
Al8 Mg13 3.105291 1_654
Al8 Mg9 3.159146 1_555
Al8 Mg15 3.189884 1_545
Al8 Mg4 3.212925 1_654
Al9 Mg12 2.903640 1_555
Al9 Mg3 2.966242 1_555
Al9 Mg15 2.967161 1_555
Al9 Mg13 3.094315 1_555
Al9 Mg0 3.105860 1_445
Al9 Mg10 3.157708 1_555
Al9 Mg14 3.174900 1_555
Al9 Mg4 3.192261 1_555
Al10 Al7 2.751151 1_555
Al10 Al6 2.763293 1_564
Al10 Mg16 2.898895 1_554
Al10 Mg12 2.969030 1_555
Al10 Mg11 2.981680 1_564
Al10 Mg2 3.101756 1_555
Al10 Mg0 3.104581 1_554
Al10 Mg3 3.186286 1_555
Al10 Mg1 3.187363 1_554
Al10 Mg4 3.216902 1_664
Ag0 Al0 2.679679 1_556
Ag0 Al2 2.785827 1_555
Ag0 Al9 2.785827 1_555
Ag0 Mg1 2.859221 1_555
Ag0 Mg15 2.946552 1_555
Ag0 Mg6 2.946552 1_555
Ag0 Mg13 3.077094 1_555
Ag0 Mg8 3.077094 1_555
Ag0 Mg16 3.114578 1_555
Ag0 Mg5 3.114578 1_555
Ag0 Mg4 3.220771 1_555
