# generated using pymatgen
data_Fe10O9F11
_symmetry_space_group_name_H-M   'P 1'
_cell_length_a   4.75187200
_cell_length_b   4.75985437
_cell_length_c   15.44768320
_cell_angle_alpha   90.31677280
_cell_angle_beta   89.98770460
_cell_angle_gamma   93.45560706
_symmetry_Int_Tables_number   1
_chemical_formula_structural   Fe10O9F11
_chemical_formula_sum   'Fe10 O9 F11'
_cell_volume   348.75846679
_cell_formula_units_Z   1
loop_
 _symmetry_equiv_pos_site_id
 _symmetry_equiv_pos_as_xyz
  1  'x, y, z'
loop_
 _atom_site_type_symbol
 _atom_site_label
 _atom_site_symmetry_multiplicity
 _atom_site_fract_x
 _atom_site_fract_y
 _atom_site_fract_z
 _atom_site_occupancy
  Fe  Fe0  1  0.99650900  0.99467500  0.99659800  1
  Fe  Fe1  1  0.00409900  0.00416100  0.20070400  1
  Fe  Fe2  1  0.97868000  0.96016200  0.40812100  1
  Fe  Fe3  1  0.04876700  0.00038700  0.60346300  1
  Fe  Fe4  1  0.02531900  0.01202600  0.79348900  1
  Fe  Fe5  1  0.50012800  0.49963100  0.09911900  1
  Fe  Fe6  1  0.47019000  0.52819400  0.49954100  1
  Fe  Fe7  1  0.51295900  0.50572600  0.29215800  1
  Fe  Fe8  1  0.45799300  0.50237900  0.70243500  1
  Fe  Fe9  1  0.49272200  0.48673900  0.90702400  1
  O  O0  1  0.18870700  0.80728500  0.49800400  1
  O  O1  1  0.20918500  0.80398400  0.69523500  1
  O  O2  1  0.29670900  0.29387000  0.00432000  1
  O  O3  1  0.30177100  0.29938800  0.20106300  1
  O  O4  1  0.31535200  0.31890200  0.59514000  1
  O  O5  1  0.31908300  0.32083300  0.80587300  1
  O  O6  1  0.70068600  0.69727000  0.00192900  1
  O  O7  1  0.70472000  0.70210500  0.19843500  1
  O  O8  1  0.67706900  0.67869600  0.39679300  1
  F  F0  1  0.19239000  0.80712300  0.10142900  1
  F  F1  1  0.18774400  0.80191900  0.30101800  1
  F  F2  1  0.20347500  0.79792400  0.90497300  1
  F  F3  1  0.28760100  0.28958300  0.39447100  1
  F  F4  1  0.70399000  0.70985400  0.59865600  1
  F  F5  1  0.70424000  0.70283100  0.80343900  1
  F  F6  1  0.80822000  0.19050800  0.10140800  1
  F  F7  1  0.80177400  0.19201100  0.49705000  1
  F  F8  1  0.80652300  0.18550900  0.30232100  1
  F  F9  1  0.80271400  0.19622900  0.90339100  1
  F  F10  1  0.80068000  0.21009500  0.69240400  1
loop_
_geom_bond_atom_site_label_1
_geom_bond_atom_site_label_2
_geom_bond_distance
_geom_bond_site_symmetry_2
Fe0 O6 1.936001 1_556
Fe0 O2 1.957189 1_666
Fe1 O3 1.932829 1_555
Fe1 O7 1.960880 1_445
Fe2 O0 1.884876 1_655
Fe2 O8 1.909364 1_555
Fe3 O1 1.888338 1_545
Fe3 O4 1.921024 1_555
Fe3 O0 1.999406 1_545
Fe4 O5 1.973678 1_555
Fe4 O1 2.033415 1_545
Fe5 O2 1.977051 1_555
Fe5 O6 1.988528 1_555
Fe5 O7 2.024621 1_555
Fe5 O3 2.045613 1_555
Fe6 O4 1.908429 1_555
Fe6 O0 1.941381 1_555
Fe6 O8 1.981379 1_555
Fe7 O7 1.926632 1_555
Fe7 O8 1.951167 1_555
Fe7 O3 1.954079 1_555
Fe8 O1 1.917702 1_555
Fe8 O5 1.918776 1_555
Fe8 O4 1.970383 1_555
Fe9 O5 1.911631 1_555
Fe9 O2 1.970004 1_556
Fe9 O6 1.998777 1_556
F0 Fe1 2.028954 1_565
F0 Fe0 2.098234 1_454
F0 Fe5 2.130558 1_555
F1 Fe1 2.051310 1_565
F1 Fe2 2.089816 1_455
F1 Fe7 2.157543 1_555
F2 Fe0 1.985796 1_455
F2 Fe9 2.080879 1_555
F2 Fe4 2.201169 1_565
F3 Fe2 2.093802 1_445
F3 Fe6 2.130394 1_555
F3 Fe7 2.141876 1_555
F4 Fe6 2.048536 1_555
F4 Fe3 2.080348 1_665
F4 Fe8 2.188448 1_555
F5 Fe4 2.061346 1_665
F5 Fe9 2.126392 1_555
F5 Fe8 2.136297 1_555
F6 Fe1 2.030056 1_655
F6 Fe0 2.091419 1_544
F6 Fe5 2.137715 1_555
F7 Fe2 1.976432 1_545
F7 Fe3 2.249023 1_655
F7 Fe6 2.312565 1_555
F8 Fe1 2.042727 1_655
F8 Fe7 2.133732 1_555
F8 Fe2 2.148635 1_545
F9 Fe0 1.990951 1_545
F9 Fe9 2.080806 1_555
F9 Fe4 2.205568 1_655
F10 Fe3 2.097570 1_655
F10 Fe4 2.145922 1_655
F10 Fe8 2.209490 1_555
