# generated using pymatgen
data_Na2Nb3O6
_symmetry_space_group_name_H-M   'P 1'
_cell_length_a   5.15161095
_cell_length_b   5.15161447
_cell_length_c   23.22627738
_cell_angle_alpha   89.99995849
_cell_angle_beta   90.00002086
_cell_angle_gamma   120.00045152
_symmetry_Int_Tables_number   1
_chemical_formula_structural   Na2Nb3O6
_chemical_formula_sum   'Na8 Nb12 O24'
_cell_volume   533.81979694
_cell_formula_units_Z   4
loop_
 _symmetry_equiv_pos_site_id
 _symmetry_equiv_pos_as_xyz
  1  'x, y, z'
loop_
 _atom_site_type_symbol
 _atom_site_label
 _atom_site_symmetry_multiplicity
 _atom_site_fract_x
 _atom_site_fract_y
 _atom_site_fract_z
 _atom_site_occupancy
  Na  Na0  1  0.00000274  0.00000072  0.74997166  1
  Na  Na1  1  0.00000077  0.00000212  0.24998025  1
  Na  Na2  1  0.66667224  0.33333706  0.50015863  1
  Na  Na3  1  0.66666904  0.33333474  0.74996901  1
  Na  Na4  1  0.66666575  0.33333076  -0.00010942  1
  Na  Na5  1  0.33334024  0.66667438  0.00030469  1
  Na  Na6  1  0.33333456  0.66666849  0.24997622  1
  Na  Na7  1  0.33332803  0.66666220  0.49974341  1
  Nb  Nb0  1  0.32521837  0.99186274  0.62495868  1
  Nb  Nb1  1  0.33336600  0.00812355  0.12506390  1
  Nb  Nb2  1  0.33336067  0.32520356  0.37494081  1
  Nb  Nb3  1  0.32516663  0.33336771  0.87504488  1
  Nb  Nb4  1  0.67476121  0.66663770  0.12506481  1
  Nb  Nb5  1  0.66664099  0.67477997  0.62495807  1
  Nb  Nb6  1  0.66663128  0.99179727  0.87504434  1
  Nb  Nb7  1  0.67479793  0.00815763  0.37494088  1
  Nb  Nb8  1  0.99187310  0.32524047  0.12506391  1
  Nb  Nb9  1  0.00813814  0.33335666  0.62495873  1
  Nb  Nb10  1  0.99184298  0.66664089  0.37494056  1
  Nb  Nb11  1  0.00819977  0.67483355  0.87504355  1
  O  O0  1  0.33669046  0.00752991  0.82072712  1
  O  O1  1  0.32917377  0.99248334  0.32067960  1
  O  O2  1  0.34087534  0.00339913  0.92933261  1
  O  O3  1  0.32917801  0.33667252  0.17932272  1
  O  O4  1  0.33744416  0.34082254  0.07077746  1
  O  O5  1  0.33746016  0.99660574  0.42922906  1
  O  O6  1  0.33668531  0.32917601  0.67924441  1
  O  O7  1  0.34086192  0.33746946  0.57068307  1
  O  O8  1  0.66330902  0.67082587  0.32067955  1
  O  O9  1  0.67084175  0.66331122  0.82072705  1
  O  O10  1  0.66252793  0.00339236  0.57068259  1
  O  O11  1  0.67082232  0.00750892  0.67924440  1
  O  O12  1  0.66332409  0.99250392  0.17932264  1
  O  O13  1  0.65917472  0.99662026  0.07077735  1
  O  O14  1  0.66252579  0.65912624  0.92933252  1
  O  O15  1  0.65914510  0.66253929  0.42922870  1
  O  O16  1  0.00751750  0.33669072  0.32067953  1
  O  O17  1  0.99247159  0.32916011  0.82072732  1
  O  O18  1  0.99660216  0.33747611  0.92933278  1
  O  O19  1  0.99660629  0.65913640  0.57068271  1
  O  O20  1  0.99248752  0.66331291  0.67924460  1
  O  O21  1  0.00337667  0.66255234  0.07077723  1
  O  O22  1  0.00749240  0.67081786  0.17932250  1
  O  O23  1  0.00339360  0.34085464  0.42922891  1
loop_
_geom_bond_atom_site_label_1
_geom_bond_atom_site_label_2
_geom_bond_distance
_geom_bond_site_symmetry_2
Na0 O6 2.375139 1_555
Na0 O20 2.375151 1_445
Na0 O11 2.375168 1_455
Na0 O9 2.375578 1_445
Na0 O0 2.375579 1_555
Na0 O17 2.375592 1_455
Na1 O3 2.373999 1_555
Na1 O12 2.374022 1_445
Na1 O22 2.374036 1_545
Na1 O16 2.374705 1_555
Na1 O8 2.374709 1_445
Na1 O1 2.374712 1_545
Na2 O19 2.352924 1_555
Na2 O10 2.352951 1_555
Na2 O7 2.352974 1_555
Na2 O23 2.378528 1_655
Na2 O15 2.378544 1_555
Na2 O5 2.378552 1_545
Na3 O20 2.356282 1_555
Na3 O11 2.356310 1_555
Na3 O6 2.356315 1_555
Na3 O0 2.356804 1_555
Na3 O9 2.356807 1_555
Na3 O17 2.356808 1_555
Na4 O2 2.353451 1_554
Na4 O18 2.353466 1_554
Na4 O14 2.353476 1_554
Na4 O21 2.377839 1_655
Na4 O13 2.377844 1_545
Na4 O4 2.377856 1_555
Na5 O13 2.352178 1_555
Na5 O21 2.352230 1_555
Na5 O4 2.352238 1_555
Na5 O2 2.379190 1_564
Na5 O14 2.379202 1_554
Na5 O18 2.379221 1_454
Na6 O12 2.355188 1_555
Na6 O22 2.355214 1_555
Na6 O3 2.355215 1_555
Na6 O16 2.355937 1_555
Na6 O8 2.355939 1_555
Na6 O1 2.355940 1_555
Na7 O23 2.352784 1_555
Na7 O5 2.352813 1_555
Na7 O15 2.352823 1_555
Na7 O19 2.378669 1_455
Na7 O7 2.378678 1_555
Na7 O10 2.378682 1_565
Nb0 O19 2.119275 1_455
Nb0 O20 2.119295 1_455
Nb0 O10 2.123456 1_565
Nb0 O6 2.123729 1_565
Nb0 O7 2.149909 1_565
Nb0 O11 2.150030 1_565
Nb1 O3 2.118943 1_555
Nb1 O4 2.119388 1_555
Nb1 O22 2.123381 1_545
Nb1 O13 2.123663 1_545
Nb1 O12 2.149605 1_545
Nb1 O21 2.150023 1_545
Nb2 O1 2.118908 1_545
Nb2 O5 2.119363 1_545
Nb2 O16 2.123421 1_555
Nb2 O15 2.123676 1_555
Nb2 O8 2.149710 1_555
Nb2 O23 2.150113 1_555
Nb3 O18 2.119239 1_455
Nb3 O17 2.119539 1_455
Nb3 O14 2.123673 1_555
Nb3 O0 2.124260 1_555
Nb3 O2 2.150243 1_555
Nb3 O9 2.150589 1_555
Nb4 O22 2.118917 1_655
Nb4 O21 2.119398 1_655
Nb4 O12 2.123362 1_555
Nb4 O4 2.123688 1_555
Nb4 O3 2.149610 1_555
Nb4 O13 2.150025 1_555
Nb5 O10 2.119276 1_565
Nb5 O11 2.119303 1_565
Nb5 O7 2.123433 1_555
Nb5 O20 2.123740 1_555
Nb5 O19 2.149916 1_555
Nb5 O6 2.150025 1_555
Nb6 O14 2.119241 1_555
Nb6 O9 2.119538 1_555
Nb6 O2 2.123683 1_565
Nb6 O17 2.124246 1_565
Nb6 O18 2.150251 1_565
Nb6 O0 2.150582 1_565
Nb7 O16 2.118898 1_655
Nb7 O23 2.119347 1_655
Nb7 O8 2.123426 1_545
Nb7 O5 2.123696 1_545
Nb7 O1 2.149726 1_545
Nb7 O15 2.150106 1_545
Nb8 O12 2.118930 1_545
Nb8 O13 2.119379 1_545
Nb8 O3 2.123390 1_655
Nb8 O21 2.123663 1_655
Nb8 O22 2.149604 1_655
Nb8 O4 2.150027 1_655
Nb9 O7 2.119272 1_555
Nb9 O6 2.119289 1_555
Nb9 O19 2.123460 1_455
Nb9 O11 2.123726 1_455
Nb9 O10 2.149918 1_455
Nb9 O20 2.150038 1_455
Nb10 O8 2.118902 1_555
Nb10 O15 2.119360 1_555
Nb10 O1 2.123407 1_655
Nb10 O23 2.123698 1_655
Nb10 O16 2.149728 1_655
Nb10 O5 2.150103 1_655
Nb11 O2 2.119254 1_565
Nb11 O0 2.119524 1_565
Nb11 O18 2.123702 1_455
Nb11 O9 2.124228 1_455
Nb11 O14 2.150248 1_455
Nb11 O17 2.150578 1_455
