# generated using pymatgen
data_Li9V12Fe7O48
_symmetry_space_group_name_H-M   'P 1'
_cell_length_a   5.12459148
_cell_length_b   10.21292841
_cell_length_c   17.44121858
_cell_angle_alpha   90.25433649
_cell_angle_beta   90.42840689
_cell_angle_gamma   89.81094714
_symmetry_Int_Tables_number   1
_chemical_formula_structural   Li9V12Fe7O48
_chemical_formula_sum   'Li9 V12 Fe7 O48'
_cell_volume   912.78317557
_cell_formula_units_Z   1
loop_
 _symmetry_equiv_pos_site_id
 _symmetry_equiv_pos_as_xyz
  1  'x, y, z'
loop_
 _atom_site_type_symbol
 _atom_site_label
 _atom_site_symmetry_multiplicity
 _atom_site_fract_x
 _atom_site_fract_y
 _atom_site_fract_z
 _atom_site_occupancy
  Li  Li0  1  0.24234300  0.41883600  0.96982900  1
  Li  Li1  1  0.26625300  0.74810300  0.30208200  1
  Li  Li2  1  0.24847500  0.25321800  0.79879300  1
  Li  Li3  1  0.25274700  0.58484100  0.47063900  1
  Li  Li4  1  0.40063900  0.74863000  0.75204300  1
  Li  Li5  1  0.59724300  0.24893100  0.24798400  1
  Li  Li6  1  0.74687400  0.08564400  0.52950300  1
  Li  Li7  1  0.75696900  0.74774800  0.20221800  1
  Li  Li8  1  0.74047300  0.24934900  0.69890300  1
  V  V0  1  0.21341200  0.74667900  0.94347500  1
  V  V1  1  0.21453100  0.02525500  0.65623500  1
  V  V2  1  0.21011700  0.47288300  0.65101800  1
  V  V3  1  0.27947800  0.52690900  0.15246600  1
  V  V4  1  0.28212500  0.97047700  0.15636500  1
  V  V5  1  0.27700500  0.25311800  0.44310000  1
  V  V6  1  0.72249600  0.75426100  0.55574600  1
  V  V7  1  0.71587800  0.02857900  0.84633200  1
  V  V8  1  0.72488500  0.47575000  0.84426600  1
  V  V9  1  0.78702500  0.52572500  0.34408100  1
  V  V10  1  0.79149700  0.97364800  0.34847400  1
  V  V11  1  0.78199600  0.24734700  0.05793800  1
  Fe  Fe0  1  0.09572800  0.24906800  0.25160200  1
  Fe  Fe1  1  0.24324200  0.07573900  0.97280500  1
  Fe  Fe2  1  0.26431500  0.93216300  0.47561000  1
  Fe  Fe3  1  0.73535200  0.43199000  0.52383400  1
  Fe  Fe4  1  0.75107100  0.56752900  0.02625100  1
  Fe  Fe5  1  0.74655900  0.92143600  0.02976800  1
  Fe  Fe6  1  0.90133800  0.74997500  0.74672500  1
  O  O0  1  0.05495300  0.23936300  0.99603900  1
  O  O1  1  0.05610600  0.61270300  0.36983600  1
  O  O2  1  0.08169800  0.88861300  0.37996400  1
  O  O3  1  0.10374400  0.63111700  0.20984300  1
  O  O4  1  0.10532000  0.87182100  0.21332700  1
  O  O5  1  0.10226700  0.11018300  0.46638000  1
  O  O6  1  0.06356900  0.37859100  0.46412200  1
  O  O7  1  0.07706800  0.00090500  0.07348700  1
  O  O8  1  0.07422800  0.49576100  0.07427900  1
  O  O9  1  0.14154000  0.74803900  0.84779500  1
  O  O10  1  0.14258800  0.61376700  0.70467300  1
  O  O11  1  0.14447100  0.88360100  0.70827600  1
  O  O12  1  0.33472500  0.11637800  0.20483800  1
  O  O13  1  0.33030300  0.38177000  0.20379900  1
  O  O14  1  0.33225500  0.25261600  0.34450000  1
  O  O15  1  0.41210800  0.98986300  0.57334200  1
  O  O16  1  0.41436600  0.50946000  0.57385800  1
  O  O17  1  0.41115100  0.88620500  0.96699500  1
  O  O18  1  0.42098100  0.62086100  0.96608600  1
  O  O19  1  0.41123200  0.12699700  0.71224900  1
  O  O20  1  0.38760200  0.36674400  0.70660200  1
  O  O21  1  0.42854700  0.11078400  0.87661400  1
  O  O22  1  0.44801400  0.39349000  0.86874900  1
  O  O23  1  0.44242900  0.76439300  0.49350200  1
  O  O24  1  0.55733400  0.26434600  0.50490500  1
  O  O25  1  0.57026600  0.60848600  0.12280700  1
  O  O26  1  0.57028600  0.88673900  0.12654400  1
  O  O27  1  0.59430700  0.62781800  0.28725000  1
  O  O28  1  0.61585900  0.86894000  0.29178300  1
  O  O29  1  0.57531000  0.10928100  0.03583200  1
  O  O30  1  0.59639600  0.38355400  0.03534300  1
  O  O31  1  0.58524500  0.00979900  0.42562500  1
  O  O32  1  0.58811400  0.49077900  0.42587300  1
  O  O33  1  0.66579000  0.75391600  0.65395800  1
  O  O34  1  0.66533300  0.61781600  0.79128200  1
  O  O35  1  0.66630600  0.88384000  0.79617300  1
  O  O36  1  0.85754700  0.11536400  0.29593900  1
  O  O37  1  0.85552600  0.38356400  0.29115700  1
  O  O38  1  0.85903500  0.24568400  0.15409000  1
  O  O39  1  0.90933900  0.51461400  0.92734400  1
  O  O40  1  0.91474400  0.99025500  0.92989300  1
  O  O41  1  0.89725900  0.61038900  0.53288300  1
  O  O42  1  0.93638500  0.87906500  0.53506700  1
  O  O43  1  0.90426800  0.12956300  0.79372200  1
  O  O44  1  0.91063200  0.36727500  0.78799300  1
  O  O45  1  0.94640100  0.11299600  0.63019200  1
  O  O46  1  0.91942000  0.38906000  0.61951100  1
  O  O47  1  0.92756600  0.74899900  0.00758500  1
loop_
_geom_bond_atom_site_label_1
_geom_bond_atom_site_label_2
_geom_bond_distance
_geom_bond_site_symmetry_2
Li0 O22 2.075533 1_555
Li0 O39 2.096324 1_455
Li0 O0 2.125194 1_555
Li0 O8 2.164359 1_556
Li0 O30 2.166974 1_556
Li0 O18 2.261400 1_555
Li1 O27 2.095789 1_555
Li1 O1 2.124095 1_555
Li1 O4 2.159707 1_555
Li1 O3 2.163006 1_555
Li1 O28 2.187790 1_555
Li1 O2 2.189027 1_555
Li2 O44 2.091305 1_455
Li2 O20 2.115934 1_555
Li2 O22 2.135909 1_555
Li2 O19 2.151801 1_555
Li2 O43 2.173816 1_455
Li2 O21 2.190844 1_555
Li3 O1 2.040467 1_555
Li3 O23 2.113290 1_555
Li3 O32 2.118635 1_555
Li3 O16 2.122594 1_555
Li3 O41 2.142255 1_455
Li3 O6 2.323675 1_555
Li4 O34 2.018782 1_555
Li4 O11 2.046599 1_555
Li4 O10 2.077019 1_555
Li4 O35 2.083284 1_555
Li4 O9 2.141339 1_555
Li4 O33 2.193595 1_555
Li5 O12 2.048559 1_555
Li5 O37 2.048763 1_555
Li5 O13 2.070515 1_555
Li5 O36 2.078753 1_555
Li5 O38 2.124812 1_555
Li5 O14 2.170814 1_555
Li6 O45 2.044072 1_555
Li6 O24 2.108889 1_555
Li6 O15 2.126478 1_545
Li6 O31 2.130226 1_555
Li6 O5 2.151106 1_655
Li6 O42 2.321772 1_545
Li7 O27 2.106157 1_555
Li7 O28 2.118710 1_555
Li7 O3 2.139726 1_655
Li7 O26 2.158936 1_555
Li7 O25 2.197328 1_555
Li7 O4 2.199447 1_655
Li8 O45 2.117417 1_555
Li8 O19 2.117714 1_555
Li8 O44 2.143677 1_555
Li8 O20 2.171041 1_555
Li8 O46 2.199866 1_555
Li8 O43 2.219579 1_555
Fe0 O37 1.967499 1_455
Fe0 O36 1.996722 1_455
Fe0 O12 1.998973 1_555
Fe0 O13 2.003177 1_555
Fe0 O14 2.016466 1_555
Fe0 O38 2.081787 1_455
Fe1 O21 1.968731 1_555
Fe1 O0 1.968998 1_555
Fe1 O40 2.035022 1_445
Fe1 O29 2.047949 1_556
Fe1 O7 2.105103 1_556
Fe1 O17 2.118056 1_545
Fe2 O15 1.949652 1_555
Fe2 O2 1.956850 1_555
Fe2 O23 1.963797 1_555
Fe2 O5 2.002916 1_565
Fe2 O31 2.032171 1_565
Fe2 O42 2.056847 1_455
Fe3 O32 1.958526 1_555
Fe3 O46 1.961342 1_555
Fe3 O24 1.968102 1_555
Fe3 O41 2.009573 1_555
Fe3 O16 2.024778 1_555
Fe3 O6 2.055769 1_655
Fe4 O25 1.970793 1_555
Fe4 O39 1.983796 1_554
Fe4 O8 1.989499 1_655
Fe4 O30 2.048937 1_555
Fe4 O18 2.057107 1_554
Fe4 O47 2.092782 1_555
Fe5 O26 1.954679 1_555
Fe5 O7 2.023142 1_665
Fe5 O47 2.024863 1_555
Fe5 O17 2.062753 1_554
Fe5 O40 2.075694 1_554
Fe5 O29 2.109562 1_565
Fe6 O11 1.973928 1_655
Fe6 O34 1.980545 1_555
Fe6 O10 1.998662 1_655
Fe6 O33 2.011854 1_555
Fe6 O35 2.014394 1_555
Fe6 O9 2.142593 1_655
O0 V11 1.774780 1_456
O1 V9 1.699289 1_455
O2 V10 1.803056 1_455
O3 V3 1.715468 1_555
O4 V4 1.688642 1_555
O5 V5 1.765505 1_555
O6 V5 1.722049 1_555
O7 V4 1.808146 1_545
O8 V3 1.744720 1_555
O9 V0 1.706353 1_555
O10 V2 1.747957 1_555
O11 V1 1.750900 1_565
O12 V4 1.730836 1_545
O13 V3 1.752815 1_555
O14 V5 1.744926 1_555
O15 V1 1.805783 1_565
O16 V2 1.753368 1_555
O17 V0 1.795489 1_555
O18 V0 1.710949 1_555
O19 V1 1.741664 1_555
O20 V2 1.712241 1_555
O21 V7 1.775234 1_555
O22 V8 1.709205 1_555
O23 V6 1.796068 1_555
O24 V5 1.793239 1_555
O25 V3 1.790492 1_555
O26 V4 1.783752 1_555
O27 V9 1.741475 1_555
O28 V10 1.707336 1_555
O29 V11 1.804911 1_555
O30 V11 1.727875 1_555
O31 V10 1.754541 1_545
O32 V9 1.797260 1_555
O33 V6 1.739573 1_555
O34 V8 1.748431 1_555
O35 V7 1.732814 1_565
O36 V10 1.751728 1_545
O37 V9 1.752942 1_555
O38 V11 1.720120 1_555
O39 V8 1.768468 1_555
O40 V7 1.815496 1_565
O41 V6 1.763957 1_555
O42 V6 1.724922 1_555
O43 V7 1.692892 1_555
O44 V8 1.758988 1_555
O45 V1 1.698083 1_655
O46 V2 1.801682 1_655
O47 V0 1.849495 1_654
