# generated using pymatgen
data_Li5(Cu2P3)2
_symmetry_space_group_name_H-M   'P 1'
_cell_length_a   3.83650775
_cell_length_b   7.88558823
_cell_length_c   7.88558823
_cell_angle_alpha   106.17184458
_cell_angle_beta   104.07906721
_cell_angle_gamma   104.07906721
_symmetry_Int_Tables_number   1
_chemical_formula_structural   Li5(Cu2P3)2
_chemical_formula_sum   'Li5 Cu4 P6'
_cell_volume   209.48991329
_cell_formula_units_Z   1
loop_
 _symmetry_equiv_pos_site_id
 _symmetry_equiv_pos_as_xyz
  1  'x, y, z'
loop_
 _atom_site_type_symbol
 _atom_site_label
 _atom_site_symmetry_multiplicity
 _atom_site_fract_x
 _atom_site_fract_y
 _atom_site_fract_z
 _atom_site_occupancy
  Li  Li0  1  0.00000000  0.00000000  0.00000000  1
  Li  Li1  1  0.00000100  0.72148316  0.27851684  1
  Li  Li2  1  0.82534744  0.32534844  0.32534844  1
  Li  Li3  1  0.17465256  0.67465156  0.67465156  1
  Li  Li4  1  0.00000100  0.27851684  0.72148316  1
  Cu  Cu0  1  0.26759283  0.44117451  0.09401215  1
  Cu  Cu1  1  0.26759283  0.09401215  0.44117451  1
  Cu  Cu2  1  0.73240717  0.90598785  0.55882549  1
  Cu  Cu3  1  0.73240717  0.55882549  0.90598785  1
  P  P0  1  0.37585916  0.72636462  0.02535369  1
  P  P1  1  0.62414084  0.97464731  0.27363638  1
  P  P2  1  0.50000000  0.58531267  0.41468933  1
  P  P3  1  0.50000000  0.41468933  0.58531267  1
  P  P4  1  0.37585916  0.02535369  0.72636462  1
  P  P5  1  0.62414084  0.27363638  0.97464731  1
loop_
_geom_bond_atom_site_label_1
_geom_bond_atom_site_label_2
_geom_bond_distance
_geom_bond_site_symmetry_2
Li0 P0 2.896402 1_545
Li0 P4 2.896402 1_554
Li0 P0 2.896402 1_445
Li0 P4 2.896402 1_454
Li0 P5 2.896403 1_554
Li0 P1 2.896403 1_545
Li0 P1 2.896407 1_445
Li0 P5 2.896407 1_454
Li1 P2 2.574492 1_555
Li1 P2 2.574504 1_455
Li1 P0 2.735419 1_555
Li1 P1 2.735419 1_555
Li1 P0 2.735424 1_455
Li1 P1 2.735430 1_455
Li2 P1 2.567126 1_545
Li2 P5 2.567126 1_554
Li2 P2 2.669260 1_555
Li2 P3 2.669260 1_555
Li2 P2 2.669260 1_655
Li2 P3 2.669260 1_655
Li3 P4 2.567132 1_565
Li3 P0 2.567132 1_556
Li3 P3 2.669244 1_555
Li3 P2 2.669244 1_555
Li3 P3 2.669256 1_455
Li3 P2 2.669256 1_455
Li4 P3 2.574492 1_555
Li4 P3 2.574504 1_455
Li4 P4 2.735419 1_555
Li4 P5 2.735419 1_555
Li4 P4 2.735424 1_455
Li4 P5 2.735430 1_455
Cu0 P2 2.300068 1_555
Cu0 P5 2.305533 1_554
Cu0 P5 2.305536 1_454
Cu0 P0 2.419990 1_555
Cu0 Li4 2.668691 1_554
Cu0 Cu3 2.736194 1_454
Cu0 Cu3 2.736199 1_554
Cu0 Li1 2.845335 1_555
Cu0 Li1 2.845343 1_655
Cu0 Li2 2.953087 1_555
Cu0 Li2 2.953089 1_455
Cu0 Li0 3.187770 1_555
Cu1 P3 2.300068 1_555
Cu1 P1 2.305533 1_545
Cu1 P1 2.305536 1_445
Cu1 P4 2.419990 1_555
Cu1 Li1 2.668691 1_545
Cu1 Cu2 2.736194 1_445
Cu1 Cu2 2.736199 1_545
Cu1 Li4 2.845335 1_555
Cu1 Li4 2.845343 1_655
Cu1 Li2 2.953087 1_555
Cu1 Li2 2.953089 1_455
Cu1 Li0 3.187770 1_555
Cu2 P2 2.300053 1_555
Cu2 P4 2.305538 1_665
Cu2 P4 2.305541 1_565
Cu2 P1 2.419987 1_555
Cu2 Li4 2.668691 1_665
Cu2 Li1 2.845338 1_555
Cu2 Li1 2.845340 1_655
Cu2 Li3 2.953087 1_555
Cu2 Li3 2.953089 1_655
Cu2 Li0 3.187770 1_666
Cu3 P3 2.300053 1_555
Cu3 P0 2.305538 1_656
Cu3 P0 2.305541 1_556
Cu3 P5 2.419987 1_555
Cu3 Li1 2.668691 1_656
Cu3 Li4 2.845338 1_555
Cu3 Li4 2.845340 1_655
Cu3 Li3 2.953087 1_555
Cu3 Li3 2.953089 1_655
Cu3 Li0 3.187770 1_666
P0 P1 2.150308 1_555
P2 P3 2.151499 1_555
P4 P5 2.150308 1_555
