# generated using pymatgen
data_TaAlRu2
_symmetry_space_group_name_H-M   'P 1'
_cell_length_a   4.35070077
_cell_length_b   4.35070077
_cell_length_c   4.35070077
_cell_angle_alpha   60.00000000
_cell_angle_beta   60.00000000
_cell_angle_gamma   60.00000000
_symmetry_Int_Tables_number   1
_chemical_formula_structural   TaAlRu2
_chemical_formula_sum   'Ta1 Al1 Ru2'
_cell_volume   58.23212616
_cell_formula_units_Z   1
loop_
 _symmetry_equiv_pos_site_id
 _symmetry_equiv_pos_as_xyz
  1  'x, y, z'
loop_
 _atom_site_type_symbol
 _atom_site_label
 _atom_site_symmetry_multiplicity
 _atom_site_fract_x
 _atom_site_fract_y
 _atom_site_fract_z
 _atom_site_occupancy
  Ta  Ta0  1  0.75000000  0.75000000  0.75000000  1
  Al  Al0  1  0.25000000  0.25000000  0.25000000  1
  Ru  Ru0  1  -0.00000000  -0.00000000  -0.00000000  1
  Ru  Ru1  1  0.49999900  0.49999900  0.49999900  1
loop_
_geom_bond_atom_site_label_1
_geom_bond_atom_site_label_2
_geom_bond_distance
_geom_bond_site_symmetry_2
Al0 Ru1 2.664239 1_555
Al0 Ru0 2.664249 1_655
Al0 Ru0 2.664249 1_555
Al0 Ru0 2.664249 1_565
Al0 Ru0 2.664249 1_556
Al0 Ru1 2.664253 1_455
Al0 Ru1 2.664253 1_545
Al0 Ru1 2.664253 1_554
Ru0 Ta0 2.664249 1_544
Ru0 Ta0 2.664249 1_445
Ru0 Ta0 2.664249 1_454
Ru0 Ta0 2.664249 1_444
Ru1 Ta0 2.664246 1_554
Ru1 Ta0 2.664246 1_455
Ru1 Ta0 2.664246 1_545
Ru1 Ta0 2.664260 1_555
