# generated using pymatgen
data_SmCu4Ag
_symmetry_space_group_name_H-M   'P 1'
_cell_length_a   5.04606585
_cell_length_b   5.04630569
_cell_length_c   5.04605066
_cell_angle_alpha   119.99607698
_cell_angle_beta   89.99873586
_cell_angle_gamma   119.99532214
_symmetry_Int_Tables_number   1
_chemical_formula_structural   SmCu4Ag
_chemical_formula_sum   'Sm1 Cu4 Ag1'
_cell_volume   90.87079252
_cell_formula_units_Z   1
loop_
 _symmetry_equiv_pos_site_id
 _symmetry_equiv_pos_as_xyz
  1  'x, y, z'
loop_
 _atom_site_type_symbol
 _atom_site_label
 _atom_site_symmetry_multiplicity
 _atom_site_fract_x
 _atom_site_fract_y
 _atom_site_fract_z
 _atom_site_occupancy
  Sm  Sm0  1  0.99995382  -0.00000038  0.00002067  1
  Cu  Cu0  1  0.37649100  0.75299834  0.12937979  1
  Cu  Cu1  1  0.37640227  0.24699025  0.62349111  1
  Cu  Cu2  1  0.37650623  0.75300591  0.62360597  1
  Cu  Cu3  1  0.87063090  0.24700447  0.62350983  1
  Ag  Ag0  1  0.75001278  0.49999840  0.24999264  1
loop_
_geom_bond_atom_site_label_1
_geom_bond_atom_site_label_2
_geom_bond_distance
_geom_bond_site_symmetry_2
Cu0 Cu1 2.493444 1_565
Cu0 Cu3 2.493813 1_565
Cu0 Cu2 2.493871 1_555
Cu0 Cu2 2.552179 1_554
Cu0 Cu3 2.553013 1_454
Cu0 Cu1 2.553033 1_554
Cu0 Sm0 2.961397 1_565
Cu0 Sm0 2.961647 1_465
Cu0 Sm0 2.962482 1_455
Cu1 Cu2 2.493348 1_545
Cu1 Cu3 2.493874 1_555
Cu1 Cu3 2.552192 1_455
Cu1 Cu2 2.552958 1_555
Cu1 Sm0 2.961729 1_455
Cu1 Sm0 2.961799 1_456
Cu1 Sm0 2.962484 1_566
Cu2 Cu3 2.493546 1_565
Cu2 Cu3 2.552997 1_455
Cu2 Sm0 2.961563 1_566
Cu2 Sm0 2.961815 1_466
Cu2 Sm0 2.962527 1_455
Cu3 Sm0 2.961406 1_555
Cu3 Sm0 2.961472 1_556
Cu3 Sm0 2.962524 1_566
Ag0 Cu3 2.955475 1_565
Ag0 Cu0 2.955480 1_545
Ag0 Cu0 2.955559 1_655
Ag0 Cu3 2.955565 1_554
Ag0 Cu1 2.955598 1_555
Ag0 Cu2 2.955609 1_544
Ag0 Cu2 2.955621 1_555
Ag0 Cu3 2.955635 1_555
Ag0 Cu1 2.955637 1_665
Ag0 Cu0 2.955667 1_555
Ag0 Cu2 2.955706 1_655
Ag0 Cu1 2.955721 1_554
Ag0 Sm0 3.089899 1_555
Ag0 Sm0 3.090056 1_565
Ag0 Sm0 3.090468 1_566
Ag0 Sm0 3.090628 1_455
