# generated using pymatgen
data_KNaNdTaO5
_symmetry_space_group_name_H-M   'P 1'
_cell_length_a   5.79221000
_cell_length_b   5.79221000
_cell_length_c   8.33772300
_cell_angle_alpha   90.00000000
_cell_angle_beta   90.00000000
_cell_angle_gamma   90.00000000
_symmetry_Int_Tables_number   1
_chemical_formula_structural   KNaNdTaO5
_chemical_formula_sum   'K2 Na2 Nd2 Ta2 O10'
_cell_volume   279.72807769
_cell_formula_units_Z   2
loop_
 _symmetry_equiv_pos_site_id
 _symmetry_equiv_pos_as_xyz
  1  'x, y, z'
loop_
 _atom_site_type_symbol
 _atom_site_label
 _atom_site_symmetry_multiplicity
 _atom_site_fract_x
 _atom_site_fract_y
 _atom_site_fract_z
 _atom_site_occupancy
  K  K0  1  0.00000000  0.00000000  0.00000000  1
  K  K1  1  0.50000000  0.50000000  0.00000000  1
  Na  Na0  1  0.00000000  0.50000000  0.24072000  1
  Na  Na1  1  0.50000000  0.00000000  0.75928000  1
  Nd  Nd0  1  0.00000000  0.00000000  0.50000000  1
  Nd  Nd1  1  0.50000000  0.50000000  0.50000000  1
  Ta  Ta0  1  0.50000000  0.00000000  0.25734400  1
  Ta  Ta1  1  0.00000000  0.50000000  0.74265600  1
  O  O0  1  0.50000000  0.00000000  0.03443700  1
  O  O1  1  0.27000500  0.77000500  0.32852300  1
  O  O2  1  0.72999500  0.77000500  0.32852300  1
  O  O3  1  0.27000500  0.22999500  0.32852300  1
  O  O4  1  0.72999500  0.22999500  0.32852300  1
  O  O5  1  0.77000500  0.27000500  0.67147700  1
  O  O6  1  0.22999500  0.27000500  0.67147700  1
  O  O7  1  0.77000500  0.72999500  0.67147700  1
  O  O8  1  0.22999500  0.72999500  0.67147700  1
  O  O9  1  0.00000000  0.50000000  0.96556300  1
loop_
_geom_bond_atom_site_label_1
_geom_bond_atom_site_label_2
_geom_bond_distance
_geom_bond_site_symmetry_2
K0 O0 2.910303 1_555
K0 O0 2.910303 1_455
K0 O9 2.910303 1_544
K0 O9 2.910303 1_554
K1 O0 2.910303 1_555
K1 O0 2.910303 1_565
K1 O9 2.910303 1_554
K1 O9 2.910303 1_654
Na0 O9 2.294183 1_554
Na0 O1 2.329735 1_555
Na0 O2 2.329735 1_455
Na0 O3 2.329735 1_555
Na0 O4 2.329735 1_455
Na1 O0 2.294183 1_556
Na1 O5 2.329735 1_555
Na1 O7 2.329735 1_545
Na1 O6 2.329735 1_555
Na1 O8 2.329735 1_545
Nd0 O3 2.502936 1_555
Nd0 O6 2.502936 1_555
Nd0 O4 2.502936 1_455
Nd0 O8 2.502936 1_545
Nd0 O1 2.502936 1_545
Nd0 O5 2.502936 1_455
Nd0 O7 2.502936 1_445
Nd0 O2 2.502936 1_445
Nd1 O7 2.502936 1_555
Nd1 O1 2.502936 1_555
Nd1 O2 2.502936 1_555
Nd1 O5 2.502936 1_555
Nd1 O8 2.502936 1_555
Nd1 O4 2.502936 1_555
Nd1 O6 2.502936 1_555
Nd1 O3 2.502936 1_555
O0 Ta0 1.858537 1_555
O1 Ta0 1.975250 1_565
O2 Ta0 1.975250 1_565
O3 Ta0 1.975250 1_555
O4 Ta0 1.975250 1_555
O5 Ta1 1.975250 1_655
O6 Ta1 1.975250 1_555
O7 Ta1 1.975250 1_655
O8 Ta1 1.975250 1_555
O9 Ta1 1.858537 1_555
