# generated using pymatgen
data_Fe4O3F5
_symmetry_space_group_name_H-M   'P 1'
_cell_length_a   4.81504600
_cell_length_b   6.16886319
_cell_length_c   10.09325151
_cell_angle_alpha   107.78376685
_cell_angle_beta   91.10300569
_cell_angle_gamma   89.80645839
_symmetry_Int_Tables_number   1
_chemical_formula_structural   Fe4O3F5
_chemical_formula_sum   'Fe8 O6 F10'
_cell_volume   285.42378017
_cell_formula_units_Z   2
loop_
 _symmetry_equiv_pos_site_id
 _symmetry_equiv_pos_as_xyz
  1  'x, y, z'
loop_
 _atom_site_type_symbol
 _atom_site_label
 _atom_site_symmetry_multiplicity
 _atom_site_fract_x
 _atom_site_fract_y
 _atom_site_fract_z
 _atom_site_occupancy
  Fe  Fe0  1  0.42681900  0.62643800  0.75452400  1
  Fe  Fe1  1  0.53390800  0.88727500  0.27138600  1
  Fe  Fe2  1  0.57318100  0.37356200  0.24547600  1
  Fe  Fe3  1  0.46609200  0.11272500  0.72861400  1
  Fe  Fe4  1  0.00000000  0.50000000  0.00000000  1
  Fe  Fe5  1  0.99852400  0.73406500  0.49968000  1
  Fe  Fe6  1  0.00000000  0.00000000  0.00000000  1
  Fe  Fe7  1  0.00147600  0.26593500  0.50032000  1
  O  O0  1  0.82244700  0.30923600  0.09231000  1
  O  O1  1  0.71425100  0.17565400  0.35029800  1
  O  O2  1  0.70590800  0.67633900  0.35227700  1
  O  O3  1  0.28574900  0.82434600  0.64970200  1
  O  O4  1  0.29409200  0.32366100  0.64772300  1
  O  O5  1  0.17755300  0.69076400  0.90769000  1
  F  F0  1  0.78596600  0.55435800  0.61008900  1
  F  F1  1  0.79787100  0.05042100  0.60086800  1
  F  F2  1  0.78496400  0.78629700  0.10136400  1
  F  F3  1  0.68610300  0.41623600  0.84306800  1
  F  F4  1  0.66955700  0.92261000  0.84043600  1
  F  F5  1  0.33044300  0.07739000  0.15956400  1
  F  F6  1  0.31389700  0.58376400  0.15693200  1
  F  F7  1  0.20212900  0.94957900  0.39913200  1
  F  F8  1  0.21503600  0.21370300  0.89863600  1
  F  F9  1  0.21403400  0.44564200  0.38991100  1
loop_
_geom_bond_atom_site_label_1
_geom_bond_atom_site_label_2
_geom_bond_distance
_geom_bond_site_symmetry_2
Fe0 O5 1.918707 1_555
Fe0 O4 1.952109 1_555
Fe0 O3 1.956275 1_555
Fe1 O2 1.913468 1_555
Fe1 O1 1.916103 1_565
Fe2 O0 1.918707 1_555
Fe2 O2 1.952109 1_555
Fe2 O1 1.956275 1_555
Fe3 O4 1.913468 1_555
Fe3 O3 1.916103 1_545
Fe4 O5 1.921210 1_554
Fe4 O0 1.921210 1_455
Fe5 O2 1.981037 1_555
Fe5 O3 1.981196 1_655
Fe6 O0 2.042546 1_455
Fe6 O5 2.042546 1_544
Fe7 O4 1.981037 1_555
Fe7 O1 1.981196 1_455
F0 Fe7 2.073075 1_655
F0 Fe5 2.079554 1_555
F0 Fe0 2.238160 1_555
F1 Fe3 2.033408 1_555
F1 Fe5 2.143092 1_545
F1 Fe7 2.151708 1_655
F2 Fe4 2.040262 1_655
F2 Fe1 2.053301 1_555
F2 Fe6 2.174995 1_665
F3 Fe4 2.115059 1_656
F3 Fe3 2.146486 1_555
F3 Fe0 2.166289 1_555
F4 Fe3 2.089814 1_565
F4 Fe0 2.112755 1_555
F4 Fe6 2.188628 1_666
F5 Fe1 2.089814 1_545
F5 Fe2 2.112755 1_555
F5 Fe6 2.188628 1_555
F6 Fe4 2.115059 1_555
F6 Fe1 2.146486 1_555
F6 Fe2 2.166289 1_555
F7 Fe1 2.033408 1_555
F7 Fe7 2.143092 1_565
F7 Fe5 2.151708 1_455
F8 Fe4 2.040262 1_556
F8 Fe3 2.053301 1_555
F8 Fe6 2.174995 1_556
F9 Fe5 2.073075 1_455
F9 Fe7 2.079554 1_555
F9 Fe2 2.238160 1_555
