# generated using pymatgen
data_Fe3Ni2P6WO24
_symmetry_space_group_name_H-M   'P 1'
_cell_length_a   8.53637904
_cell_length_b   8.65738751
_cell_length_c   8.65738755
_cell_angle_alpha   60.00000087
_cell_angle_beta   59.52995707
_cell_angle_gamma   59.52996310
_symmetry_Int_Tables_number   1
_chemical_formula_structural   Fe3Ni2P6WO24
_chemical_formula_sum   'Fe3 Ni2 P6 W1 O24'
_cell_volume   449.16932111
_cell_formula_units_Z   1
loop_
 _symmetry_equiv_pos_site_id
 _symmetry_equiv_pos_as_xyz
  1  'x, y, z'
loop_
 _atom_site_type_symbol
 _atom_site_label
 _atom_site_symmetry_multiplicity
 _atom_site_fract_x
 _atom_site_fract_y
 _atom_site_fract_z
 _atom_site_occupancy
  Fe  Fe0  1  0.07030200  0.64323300  0.64323300  1
  Fe  Fe1  1  0.43510000  0.85496600  0.85496600  1
  Fe  Fe2  1  0.93082900  0.35639100  0.35639100  1
  Ni  Ni0  1  0.01634400  0.99455200  0.99455200  1
  Ni  Ni1  1  0.50303900  0.49898700  0.49898700  1
  P  P0  1  0.24383800  0.25375300  0.54965600  1
  P  P1  1  0.24383800  0.95275300  0.25375300  1
  P  P2  1  0.24383800  0.54965600  0.95275300  1
  P  P3  1  0.74914100  0.46068900  0.04570800  1
  P  P4  1  0.74914100  0.04570800  0.74446300  1
  P  P5  1  0.74914100  0.74446300  0.46068900  1
  W  W0  1  0.57289500  0.14236800  0.14236800  1
  O  O0  1  0.06697400  0.10930400  0.32177900  1
  O  O1  1  0.06697400  0.50194300  0.10930400  1
  O  O2  1  0.06697400  0.32177900  0.50194300  1
  O  O3  1  0.22615800  0.09087000  0.74249700  1
  O  O4  1  0.43096400  0.17952500  0.38946100  1
  O  O5  1  0.27979600  0.40994900  0.55327700  1
  O  O6  1  0.22615800  0.94047500  0.09087000  1
  O  O7  1  0.27979600  0.75697800  0.40994900  1
  O  O8  1  0.56612200  0.61002100  0.00338700  1
  O  O9  1  0.27979600  0.55327700  0.75697800  1
  O  O10  1  0.76970600  0.25683300  0.06470300  1
  O  O11  1  0.56612200  0.00338700  0.82046900  1
  O  O12  1  0.43096400  0.00005000  0.17952500  1
  O  O13  1  0.22615800  0.74249700  0.94047500  1
  O  O14  1  0.72482300  0.44079700  0.24391100  1
  O  O15  1  0.43096400  0.38946100  0.00005000  1
  O  O16  1  0.72482300  0.24391100  0.59046800  1
  O  O17  1  0.76970600  0.06470300  0.90875900  1
  O  O18  1  0.72482300  0.59046800  0.44079700  1
  O  O19  1  0.56612200  0.82046900  0.61002100  1
  O  O20  1  0.76970600  0.90875900  0.25683300  1
  O  O21  1  0.93297600  0.68728400  0.49253800  1
  O  O22  1  0.93297600  0.49253800  0.88720200  1
  O  O23  1  0.93297600  0.88720200  0.68728400  1
loop_
_geom_bond_atom_site_label_1
_geom_bond_atom_site_label_2
_geom_bond_distance
_geom_bond_site_symmetry_2
Fe0 O23 1.954936 1_455
Fe0 O22 1.954939 1_455
Fe0 O21 1.954943 1_455
Fe0 O9 2.093066 1_555
Fe0 O7 2.093069 1_555
Fe0 O5 2.093073 1_555
Fe1 O19 1.930328 1_555
Fe1 O8 1.930332 1_556
Fe1 O11 1.930336 1_565
Fe1 O13 2.092544 1_555
Fe1 O3 2.092550 1_565
Fe1 O6 2.092557 1_556
Fe2 O2 1.944935 1_655
Fe2 O1 1.944943 1_655
Fe2 O0 1.944951 1_655
Fe2 O18 2.072806 1_555
Fe2 O16 2.072816 1_555
Fe2 O14 2.072824 1_555
Ni0 O3 2.096724 1_565
Ni0 O6 2.096724 1_556
Ni0 O13 2.096725 1_555
Ni0 O17 2.278435 1_465
Ni0 O20 2.278438 1_456
Ni0 O10 2.278441 1_466
Ni1 O18 2.149364 1_555
Ni1 O16 2.149368 1_555
Ni1 O14 2.149370 1_555
Ni1 O5 2.160057 1_555
Ni1 O9 2.160058 1_555
Ni1 O7 2.160058 1_555
O0 P1 1.511408 1_545
O1 P2 1.511408 1_554
O2 P0 1.511408 1_555
O3 P0 1.550670 1_555
O4 P0 1.578417 1_555
O4 W0 1.952393 1_555
O5 P0 1.548189 1_555
O6 P1 1.550670 1_555
O7 P1 1.548189 1_555
O8 P3 1.518189 1_555
O9 P2 1.548189 1_555
O10 P3 1.611655 1_555
O10 W0 2.033033 1_555
O11 P4 1.518192 1_555
O12 P1 1.578417 1_545
O12 W0 1.952385 1_555
O13 P2 1.550670 1_555
O14 P3 1.548106 1_555
O15 P2 1.578417 1_554
O15 W0 1.952389 1_555
O16 P4 1.548112 1_555
O17 P4 1.611655 1_555
O17 W0 2.033020 1_556
O18 P5 1.548123 1_555
O19 P5 1.518183 1_555
O20 P5 1.611655 1_555
O20 W0 2.033027 1_565
O21 P5 1.515991 1_555
O22 P3 1.515993 1_556
O23 P4 1.515995 1_565
