# generated using pymatgen
data_Ca2SnS4
_symmetry_space_group_name_H-M   'P 1'
_cell_length_a   7.17077500
_cell_length_b   11.78263600
_cell_length_c   16.80750900
_cell_angle_alpha   90.00000000
_cell_angle_beta   90.00000000
_cell_angle_gamma   90.00000000
_symmetry_Int_Tables_number   1
_chemical_formula_structural   Ca2SnS4
_chemical_formula_sum   'Ca16 Sn8 S32'
_cell_volume   1420.07705209
_cell_formula_units_Z   8
loop_
 _symmetry_equiv_pos_site_id
 _symmetry_equiv_pos_as_xyz
  1  'x, y, z'
loop_
 _atom_site_type_symbol
 _atom_site_label
 _atom_site_symmetry_multiplicity
 _atom_site_fract_x
 _atom_site_fract_y
 _atom_site_fract_z
 _atom_site_occupancy
  Ca  Ca0  1  0.77188000  0.99483900  0.12325200  1
  Ca  Ca1  1  0.22812000  0.49483900  0.87674800  1
  Ca  Ca2  1  0.27188000  0.49483900  0.37674800  1
  Ca  Ca3  1  0.72812000  0.99483900  0.62325200  1
  Ca  Ca4  1  0.80730100  0.88261600  0.38005400  1
  Ca  Ca5  1  0.19269900  0.38261600  0.61994600  1
  Ca  Ca6  1  0.30730100  0.38261600  0.11994600  1
  Ca  Ca7  1  0.69269900  0.88261600  0.88005400  1
  Ca  Ca8  1  0.81853900  0.63141600  0.18803000  1
  Ca  Ca9  1  0.18146100  0.13141600  0.81197000  1
  Ca  Ca10  1  0.31853900  0.13141600  0.31197000  1
  Ca  Ca11  1  0.68146100  0.63141600  0.68803000  1
  Ca  Ca12  1  0.79006600  0.24515600  0.44938100  1
  Ca  Ca13  1  0.20993400  0.74515600  0.55061900  1
  Ca  Ca14  1  0.29006600  0.74515600  0.05061900  1
  Ca  Ca15  1  0.70993400  0.24515600  0.94938100  1
  Sn  Sn0  1  0.71919900  0.60279800  0.47152000  1
  Sn  Sn1  1  0.28080100  0.10279800  0.52848000  1
  Sn  Sn2  1  0.21919900  0.10279800  0.02848000  1
  Sn  Sn3  1  0.78080100  0.60279800  0.97152000  1
  Sn  Sn4  1  0.81161100  0.27456000  0.23617900  1
  Sn  Sn5  1  0.18838900  0.77456000  0.76382100  1
  Sn  Sn6  1  0.31161100  0.77456000  0.26382100  1
  Sn  Sn7  1  0.68838900  0.27456000  0.73617900  1
  S  S0  1  0.52576500  0.93486000  0.25997700  1
  S  S1  1  0.47423500  0.43486000  0.74002300  1
  S  S2  1  0.02576500  0.43486000  0.24002300  1
  S  S3  1  0.97423500  0.93486000  0.75997700  1
  S  S4  1  0.54691700  0.46212600  0.98234000  1
  S  S5  1  0.45308300  0.96212600  0.01766000  1
  S  S6  1  0.04691700  0.96212600  0.51766000  1
  S  S7  1  0.95308300  0.46212600  0.48234000  1
  S  S8  1  0.54514700  0.32558000  0.32282700  1
  S  S9  1  0.45485300  0.82558000  0.67717300  1
  S  S10  1  0.04514700  0.82558000  0.17717300  1
  S  S11  1  0.95485300  0.32558000  0.82282700  1
  S  S12  1  0.56936700  0.04337500  0.46679900  1
  S  S13  1  0.43063300  0.54337500  0.53320100  1
  S  S14  1  0.06936700  0.54337500  0.03320100  1
  S  S15  1  0.93063300  0.04337500  0.96679900  1
  S  S16  1  0.64130800  0.66572700  0.34086100  1
  S  S17  1  0.35869200  0.16572700  0.65913900  1
  S  S18  1  0.14130800  0.16572700  0.15913900  1
  S  S19  1  0.85869200  0.66572700  0.84086100  1
  S  S20  1  0.63819300  0.22495400  0.11874300  1
  S  S21  1  0.36180700  0.72495400  0.88125700  1
  S  S22  1  0.13819300  0.72495400  0.38125700  1
  S  S23  1  0.86180700  0.22495400  0.61874300  1
  S  S24  1  0.69482000  0.76681000  0.04747800  1
  S  S25  1  0.30518000  0.26681000  0.95252200  1
  S  S26  1  0.19482000  0.26681000  0.45252200  1
  S  S27  1  0.80518000  0.76681000  0.54747800  1
  S  S28  1  0.91243700  0.11098400  0.31788200  1
  S  S29  1  0.08756300  0.61098400  0.68211800  1
  S  S30  1  0.41243700  0.61098400  0.18211800  1
  S  S31  1  0.58756300  0.11098400  0.81788200  1
loop_
_geom_bond_atom_site_label_1
_geom_bond_atom_site_label_2
_geom_bond_distance
_geom_bond_site_symmetry_2
Ca0 S20 2.876841 1_565
Ca0 S5 2.919616 1_555
Ca0 S15 2.921931 1_564
Ca0 S10 2.939119 1_655
Ca0 S0 2.982435 1_555
Ca0 S24 3.024257 1_555
Ca0 S18 3.381670 1_665
Ca1 S21 2.876841 1_555
Ca1 S4 2.919616 1_555
Ca1 S14 2.921931 1_556
Ca1 S11 2.939119 1_455
Ca1 S1 2.982435 1_555
Ca1 S25 3.024257 1_555
Ca1 S19 3.381670 1_455
Ca2 S22 2.876841 1_555
Ca2 S7 2.919616 1_455
Ca2 S13 2.921931 1_555
Ca2 S8 2.939119 1_555
Ca2 S2 2.982435 1_555
Ca2 S26 3.024257 1_555
Ca2 S16 3.381670 1_555
Ca3 S23 2.876841 1_565
Ca3 S6 2.919616 1_655
Ca3 S12 2.921931 1_565
Ca3 S9 2.939119 1_555
Ca3 S3 2.982435 1_555
Ca3 S27 3.024257 1_555
Ca3 S17 3.381670 1_565
Ca4 S16 2.895073 1_555
Ca4 S0 2.920226 1_555
Ca4 S12 2.936758 1_565
Ca4 S28 2.983386 1_565
Ca4 S22 3.013522 1_655
Ca4 S6 3.029702 1_655
Ca4 S27 3.127391 1_555
Ca5 S17 2.895073 1_555
Ca5 S1 2.920226 1_555
Ca5 S13 2.936758 1_555
Ca5 S29 2.983386 1_555
Ca5 S23 3.013522 1_455
Ca5 S7 3.029702 1_455
Ca5 S26 3.127391 1_555
Ca6 S18 2.895073 1_555
Ca6 S2 2.920226 1_555
Ca6 S14 2.936758 1_555
Ca6 S30 2.983386 1_555
Ca6 S20 3.013522 1_555
Ca6 S4 3.029702 1_554
Ca6 S25 3.127391 1_554
Ca7 S19 2.895073 1_555
Ca7 S3 2.920226 1_555
Ca7 S15 2.936758 1_565
Ca7 S31 2.983386 1_565
Ca7 S21 3.013522 1_555
Ca7 S5 3.029702 1_556
Ca7 S24 3.127391 1_556
Ca8 S10 2.812053 1_655
Ca8 S2 2.887105 1_655
Ca8 S16 2.894278 1_555
Ca8 S30 2.923689 1_555
Ca8 S24 2.985403 1_555
Ca8 S14 3.329128 1_655
Ca9 S11 2.812053 1_455
Ca9 S3 2.887105 1_445
Ca9 S17 2.894278 1_555
Ca9 S31 2.923689 1_555
Ca9 S25 2.985403 1_555
Ca9 S15 3.329128 1_455
Ca10 S8 2.812053 1_555
Ca10 S0 2.887105 1_545
Ca10 S18 2.894278 1_555
Ca10 S28 2.923689 1_455
Ca10 S26 2.985403 1_555
Ca10 S12 3.329128 1_555
Ca11 S9 2.812053 1_555
Ca11 S1 2.887105 1_555
Ca11 S19 2.894278 1_555
Ca11 S29 2.923689 1_655
Ca11 S27 2.985403 1_555
Ca11 S13 3.329128 1_555
Ca12 S28 2.855538 1_555
Ca12 S7 2.865121 1_555
Ca12 S12 2.871034 1_555
Ca12 S23 2.902443 1_555
Ca12 S26 2.914071 1_655
Ca12 S8 2.916638 1_555
Ca13 S29 2.855538 1_555
Ca13 S6 2.865121 1_555
Ca13 S13 2.871034 1_555
Ca13 S22 2.902443 1_555
Ca13 S27 2.914071 1_455
Ca13 S9 2.916638 1_555
Ca14 S30 2.855538 1_555
Ca14 S5 2.865121 1_555
Ca14 S14 2.871034 1_555
Ca14 S21 2.902443 1_554
Ca14 S24 2.914071 1_555
Ca14 S10 2.916638 1_555
Ca15 S31 2.855538 1_555
Ca15 S4 2.865121 1_555
Ca15 S15 2.871034 1_555
Ca15 S20 2.902443 1_556
Ca15 S25 2.914071 1_555
Ca15 S11 2.916638 1_555
S0 Sn6 2.435117 1_555
S1 Sn7 2.435117 1_555
S2 Sn4 2.435117 1_455
S3 Sn5 2.435117 1_655
S4 Sn3 2.364973 1_555
S5 Sn2 2.364973 1_565
S6 Sn1 2.364973 1_565
S7 Sn0 2.364973 1_555
S8 Sn4 2.476545 1_555
S9 Sn5 2.476545 1_555
S10 Sn6 2.476545 1_555
S11 Sn7 2.476545 1_555
S12 Sn1 2.418003 1_555
S13 Sn0 2.418003 1_555
S14 Sn3 2.418003 1_454
S15 Sn2 2.418003 1_656
S16 Sn0 2.384196 1_555
S16 Sn6 2.985028 1_555
S17 Sn1 2.384196 1_555
S17 Sn7 2.985028 1_555
S18 Sn2 2.384196 1_555
S18 Sn4 2.985028 1_455
S19 Sn3 2.384196 1_555
S19 Sn5 2.985028 1_655
S20 Sn4 2.404981 1_555
S21 Sn5 2.404981 1_555
S22 Sn6 2.404981 1_555
S23 Sn7 2.404981 1_555
S24 Sn3 2.396777 1_554
S25 Sn2 2.396777 1_556
S26 Sn1 2.396777 1_555
S27 Sn0 2.396777 1_555
S28 Sn4 2.474505 1_555
S29 Sn5 2.474505 1_555
S30 Sn6 2.474505 1_555
S31 Sn7 2.474505 1_555
