# generated using pymatgen
data_LiV2OF5
_symmetry_space_group_name_H-M   'P 1'
_cell_length_a   5.20588300
_cell_length_b   4.66192100
_cell_length_c   17.63900915
_cell_angle_alpha   75.44378865
_cell_angle_beta   90.00000000
_cell_angle_gamma   90.00000000
_symmetry_Int_Tables_number   1
_chemical_formula_structural   LiV2OF5
_chemical_formula_sum   'Li4 V8 O4 F20'
_cell_volume   414.34745568
_cell_formula_units_Z   4
loop_
 _symmetry_equiv_pos_site_id
 _symmetry_equiv_pos_as_xyz
  1  'x, y, z'
loop_
 _atom_site_type_symbol
 _atom_site_label
 _atom_site_symmetry_multiplicity
 _atom_site_fract_x
 _atom_site_fract_y
 _atom_site_fract_z
 _atom_site_occupancy
  Li  Li0  1  0.50248100  0.61113100  0.38054500  1
  Li  Li1  1  0.01826100  0.37140400  0.61789400  1
  Li  Li2  1  0.49751900  0.61113100  0.88054500  1
  Li  Li3  1  0.98173900  0.37140400  0.11789400  1
  V  V0  1  0.02576800  0.69696100  0.28365700  1
  V  V1  1  0.50453700  0.96520900  0.05668100  1
  V  V2  1  0.00009800  0.04727500  0.95146900  1
  V  V3  1  0.49927100  0.28296000  0.71591300  1
  V  V4  1  0.49546300  0.96520900  0.55668100  1
  V  V5  1  0.97423200  0.69696100  0.78365700  1
  V  V6  1  0.50072900  0.28296000  0.21591300  1
  V  V7  1  0.99990200  0.04727500  0.45146900  1
  O  O0  1  0.31763500  0.47187100  0.28570700  1
  O  O1  1  0.36763300  0.14428600  0.62888400  1
  O  O2  1  0.68236500  0.47187100  0.78570700  1
  O  O3  1  0.63236700  0.14428600  0.12888400  1
  F  F0  1  0.83863400  0.05496200  0.70730000  1
  F  F1  1  0.84636500  0.38825400  0.37458200  1
  F  F2  1  0.83972100  0.74582200  0.03763500  1
  F  F3  1  0.33095000  0.82213500  0.96151800  1
  F  F4  1  0.33034400  0.26099000  0.46175100  1
  F  F5  1  0.84240400  0.19503300  0.53637800  1
  F  F6  1  0.83629400  0.86018200  0.87595700  1
  F  F7  1  0.33430100  0.61443800  0.12521500  1
  F  F8  1  0.82915000  0.52775200  0.20577500  1
  F  F9  1  0.31356600  0.93933200  0.79314100  1
  F  F10  1  0.16136600  0.05496200  0.20730000  1
  F  F11  1  0.15363500  0.38825400  0.87458200  1
  F  F12  1  0.16027900  0.74582200  0.53763500  1
  F  F13  1  0.66905000  0.82213500  0.46151800  1
  F  F14  1  0.15759600  0.19503300  0.03637800  1
  F  F15  1  0.66965600  0.26099000  0.96175100  1
  F  F16  1  0.16370600  0.86018200  0.37595700  1
  F  F17  1  0.66569900  0.61443800  0.62521500  1
  F  F18  1  0.68643400  0.93933200  0.29314100  1
  F  F19  1  0.17085000  0.52775200  0.70577500  1
loop_
_geom_bond_atom_site_label_1
_geom_bond_atom_site_label_2
_geom_bond_distance
_geom_bond_site_symmetry_2
Li0 O0 2.166059 1_555
Li1 O1 2.088893 1_555
Li2 O2 2.166059 1_555
Li3 O3 2.088893 1_555
O0 V0 1.841746 1_555
O0 V6 1.935130 1_555
O1 V4 1.815569 1_545
O1 V3 1.934676 1_555
O2 V5 1.841746 1_555
O2 V3 1.935130 1_555
O3 V1 1.815569 1_545
O3 V6 1.934676 1_555
F0 V5 1.991958 1_545
F0 V3 2.086911 1_555
F0 Li1 2.090059 1_655
F1 V7 1.980253 1_555
F1 Li0 2.085780 1_555
F1 V0 2.086984 1_655
F2 V2 1.976981 1_664
F2 Li3 2.086974 1_555
F2 V1 2.091985 1_555
F3 V2 2.001528 1_565
F3 Li2 2.113240 1_555
F3 V1 2.154515 1_556
F4 V7 2.018815 1_455
F4 V4 2.069668 1_545
F4 Li0 2.084227 1_555
F5 V7 1.976987 1_555
F5 Li1 2.043501 1_655
F5 V4 2.084573 1_545
F6 V2 1.961123 1_665
F6 V5 2.089981 1_555
F6 Li2 2.101841 1_555
F7 V1 1.981716 1_555
F7 V6 2.110787 1_555
F7 Li3 2.177752 1_455
F8 V0 2.025316 1_655
F8 Li3 2.033010 1_555
F8 V6 2.038353 1_555
F9 V3 2.063893 1_565
F9 Li2 2.109334 1_555
F9 V5 2.126110 1_455
F10 V0 1.991958 1_545
F10 V6 2.086911 1_555
F10 Li3 2.090059 1_455
F11 V2 1.980253 1_555
F11 Li2 2.085780 1_555
F11 V5 2.086984 1_455
F12 V7 1.976981 1_465
F12 Li1 2.086974 1_555
F12 V4 2.091985 1_555
F13 V7 2.001528 1_565
F13 Li0 2.113240 1_555
F13 V4 2.154515 1_555
F14 V2 1.976987 1_554
F14 Li3 2.043501 1_455
F14 V1 2.084573 1_545
F15 V2 2.018815 1_655
F15 V1 2.069668 1_546
F15 Li2 2.084227 1_555
F16 V7 1.961123 1_465
F16 V0 2.089981 1_555
F16 Li0 2.101841 1_555
F17 V4 1.981716 1_555
F17 V3 2.110787 1_555
F17 Li1 2.177752 1_655
F18 V6 2.063893 1_565
F18 Li0 2.109334 1_555
F18 V0 2.126110 1_655
F19 V5 2.025316 1_455
F19 Li1 2.033010 1_555
F19 V3 2.038353 1_555
