# generated using pymatgen
data_Li3Mn4(P2O7)4
_symmetry_space_group_name_H-M   'P 1'
_cell_length_a   9.68885611
_cell_length_b   9.67176831
_cell_length_c   11.05202789
_cell_angle_alpha   90.07886935
_cell_angle_beta   100.25943736
_cell_angle_gamma   89.31616960
_symmetry_Int_Tables_number   1
_chemical_formula_structural   Li3Mn4(P2O7)4
_chemical_formula_sum   'Li6 Mn8 P16 O56'
_cell_volume   1019.03575599
_cell_formula_units_Z   2
loop_
 _symmetry_equiv_pos_site_id
 _symmetry_equiv_pos_as_xyz
  1  'x, y, z'
loop_
 _atom_site_type_symbol
 _atom_site_label
 _atom_site_symmetry_multiplicity
 _atom_site_fract_x
 _atom_site_fract_y
 _atom_site_fract_z
 _atom_site_occupancy
  Li  Li0  1  0.09129300  0.10314900  0.02204400  1
  Li  Li1  1  0.41712700  0.59593700  0.97673200  1
  Li  Li2  1  0.39122100  0.20654600  0.54533000  1
  Li  Li3  1  0.90654400  0.89475400  0.97868000  1
  Li  Li4  1  0.83582600  0.58119200  0.46132400  1
  Li  Li5  1  0.88998200  0.28345100  0.55125000  1
  Mn  Mn0  1  0.19506400  0.92094100  0.66297200  1
  Mn  Mn1  1  0.27468800  0.22013100  0.83638500  1
  Mn  Mn2  1  0.22750400  0.71426200  0.16746600  1
  Mn  Mn3  1  0.30417500  0.42960900  0.33303400  1
  Mn  Mn4  1  0.69567800  0.58039400  0.67365700  1
  Mn  Mn5  1  0.75636600  0.29343100  0.83086900  1
  Mn  Mn6  1  0.71958000  0.77429300  0.16741600  1
  Mn  Mn7  1  0.80687000  0.07277700  0.33327800  1
  P  P0  1  0.02351800  0.44116700  0.75276100  1
  P  P1  1  0.11843800  0.70926000  0.88322600  1
  P  P2  1  0.06198500  0.93038000  0.24278100  1
  P  P3  1  0.13151000  0.15298500  0.42760400  1
  P  P4  1  0.37363700  0.64896300  0.57468200  1
  P  P5  1  0.43046000  0.42487800  0.75833700  1
  P  P6  1  0.53240700  0.06250400  0.75718700  1
  P  P7  1  0.38670300  0.21373900  0.11693900  1
  P  P8  1  0.61264200  0.79102300  0.88519400  1
  P  P9  1  0.46571500  0.93724100  0.24769000  1
  P  P10  1  0.56415600  0.56941100  0.24262800  1
  P  P11  1  0.62905900  0.34654500  0.42344800  1
  P  P12  1  0.87298200  0.85739900  0.56752600  1
  P  P13  1  0.93848700  0.06786800  0.75773800  1
  P  P14  1  0.88093000  0.28830200  0.11692600  1
  P  P15  1  0.97003900  0.56144100  0.24202900  1
  O  O0  1  0.01900400  0.41798900  0.61917800  1
  O  O1  1  0.03173000  0.85282000  0.55866800  1
  O  O2  1  0.08894400  0.07153300  0.72298500  1
  O  O3  1  0.10833200  0.33488000  0.84146300  1
  O  O4  1  0.09861600  0.58606600  0.78436600  1
  O  O5  1  0.18623100  0.82415700  0.81297000  1
  O  O6  1  0.22754800  0.65659300  0.99613800  1
  O  O7  1  0.02219900  0.25345600  0.09103900  1
  O  O8  1  0.12997400  0.06959500  0.30231300  1
  O  O9  1  0.06115500  0.93827900  0.10725200  1
  O  O10  1  0.12075000  0.55344800  0.20529500  1
  O  O11  1  0.19953100  0.29132200  0.40764800  1
  O  O12  1  0.15753200  0.80908100  0.29791100  1
  O  O13  1  0.22382800  0.07317700  0.53323100  1
  O  O14  1  0.29114400  0.57012400  0.46660400  1
  O  O15  1  0.33734300  0.30596600  0.69417900  1
  O  O16  1  0.31904200  0.79420000  0.59932600  1
  O  O17  1  0.38062700  0.05580000  0.79321000  1
  O  O18  1  0.36406000  0.56612700  0.69920600  1
  O  O19  1  0.41506600  0.42378800  0.89058000  1
  O  O20  1  0.47336300  0.75986800  0.91389400  1
  O  O21  1  0.27439400  0.16357500  0.00302700  1
  O  O22  1  0.31820600  0.33045800  0.18675800  1
  O  O23  1  0.39863900  0.08854100  0.21465000  1
  O  O24  1  0.41308400  0.57891500  0.27290300  1
  O  O25  1  0.37285500  0.83867500  0.15564600  1
  O  O26  1  0.53394200  0.09281900  0.62648600  1
  O  O27  1  0.47846200  0.33720000  0.44420100  1
  O  O28  1  0.53365300  0.65056300  0.57100600  1
  O  O29  1  0.46907100  0.91294000  0.37971100  1
  O  O30  1  0.62365000  0.15952600  0.85135800  1
  O  O31  1  0.58268600  0.41551100  0.73016800  1
  O  O32  1  0.60148400  0.91231800  0.78569500  1
  O  O33  1  0.68516400  0.67343700  0.81982300  1
  O  O34  1  0.72025100  0.83991600  0.99974300  1
  O  O35  1  0.52332400  0.24310100  0.08267900  1
  O  O36  1  0.57050400  0.58489300  0.10887800  1
  O  O37  1  0.62453500  0.42197700  0.29327800  1
  O  O38  1  0.61641900  0.93745700  0.20786100  1
  O  O39  1  0.69806500  0.20622600  0.40863900  1
  O  O40  1  0.66973500  0.67728400  0.31022400  1
  O  O41  1  0.72454800  0.43429700  0.52171600  1
  O  O42  1  0.78522400  0.94055400  0.46375300  1
  O  O43  1  0.84771000  0.19277000  0.70190700  1
  O  O44  1  0.81805900  0.71212700  0.58590100  1
  O  O45  1  0.86717100  0.45498100  0.78408700  1
  O  O46  1  0.93888300  0.05831800  0.89226600  1
  O  O47  1  0.86476300  0.93218000  0.69564300  1
  O  O48  1  0.98101900  0.74256200  0.91681100  1
  O  O49  1  0.77922900  0.34001200  0.00074900  1
  O  O50  1  0.81294200  0.17425400  0.18697300  1
  O  O51  1  0.89751000  0.41380100  0.21436500  1
  O  O52  1  0.88006900  0.66428600  0.15190400  1
  O  O53  1  0.91158600  0.92293000  0.27522900  1
  O  O54  1  0.97649900  0.16705300  0.44065000  1
  O  O55  1  0.97477600  0.58713600  0.37458100  1
loop_
_geom_bond_atom_site_label_1
_geom_bond_atom_site_label_2
_geom_bond_distance
_geom_bond_site_symmetry_2
Li0 O7 1.816180 1_555
Li0 O9 1.904732 1_545
Li0 O46 1.919620 1_454
Li0 O21 1.921158 1_555
Li1 O20 1.857808 1_555
Li1 O36 1.891109 1_556
Li1 O19 1.915419 1_555
Li1 O6 1.969332 1_555
Li2 O26 1.857719 1_555
Li2 O27 1.981519 1_555
Li2 O15 2.047676 1_555
Li2 O13 2.069868 1_555
Li2 O11 2.323262 1_555
Li3 O48 1.817289 1_555
Li3 O46 1.906687 1_565
Li3 O9 1.922388 1_656
Li3 O34 1.940685 1_555
Li4 O55 1.787893 1_555
Li4 O44 1.898266 1_555
Li4 O41 1.980382 1_555
Li4 O40 2.292041 1_555
Li5 O0 1.876517 1_655
Li5 O54 1.950091 1_555
Li5 O43 1.991209 1_555
Li5 O41 2.136206 1_555
Li5 O39 2.342135 1_555
Mn0 O1 1.907957 1_555
Mn0 O5 1.920552 1_555
Mn0 O16 1.924515 1_555
Mn0 O2 1.955239 1_565
Mn0 O13 2.111784 1_565
Mn0 O17 2.476795 1_565
Mn1 O21 1.922464 1_556
Mn1 O3 1.955022 1_555
Mn1 O15 1.970613 1_555
Mn1 O17 1.985141 1_555
Mn1 O19 2.420528 1_555
Mn1 O2 2.475559 1_555
Mn2 O25 1.885381 1_555
Mn2 O12 1.925811 1_555
Mn2 O10 1.964175 1_555
Mn2 O6 1.973296 1_554
Mn2 O24 2.346525 1_555
Mn2 O9 2.696930 1_555
Mn3 O22 1.903299 1_555
Mn3 O11 1.957053 1_555
Mn3 O24 1.982222 1_555
Mn3 O14 2.024573 1_555
Mn3 O27 2.094705 1_555
Mn3 O10 2.376169 1_555
Mn4 O33 1.866072 1_555
Mn4 O28 1.885296 1_555
Mn4 O44 2.102154 1_555
Mn4 O31 2.102298 1_555
Mn4 O45 2.226043 1_555
Mn4 O41 2.246355 1_555
Mn5 O30 1.877841 1_555
Mn5 O49 1.904998 1_556
Mn5 O45 2.025142 1_555
Mn5 O43 2.046337 1_555
Mn5 O31 2.180260 1_555
Mn6 O52 1.906373 1_555
Mn6 O38 1.951599 1_555
Mn6 O34 1.960760 1_554
Mn6 O40 1.972572 1_555
Mn6 O36 2.363773 1_555
Mn6 O53 2.493340 1_555
Mn7 O50 1.902878 1_555
Mn7 O53 1.932770 1_545
Mn7 O39 1.936037 1_555
Mn7 O42 1.969264 1_545
Mn7 O54 2.068528 1_555
Mn7 O38 2.486109 1_545
O0 P0 1.485980 1_555
O1 P12 1.558607 1_455
O2 P13 1.573071 1_455
O3 P0 1.545553 1_555
O4 P0 1.596213 1_555
O4 P1 1.605453 1_555
O5 P1 1.571848 1_555
O6 P1 1.566296 1_555
O7 P14 1.482259 1_455
O8 P2 1.595029 1_545
O8 P3 1.599384 1_555
O9 P2 1.498508 1_555
O10 P15 1.584748 1_455
O11 P3 1.531917 1_555
O12 P2 1.542629 1_555
O13 P3 1.540362 1_555
O14 P4 1.522825 1_555
O15 P5 1.560160 1_555
O16 P4 1.536130 1_555
O17 P6 1.592545 1_555
O18 P5 1.593421 1_555
O18 P4 1.610847 1_555
O19 P5 1.495402 1_555
O20 P8 1.474746 1_555
O21 P7 1.589770 1_555
O22 P7 1.572379 1_555
O23 P9 1.609750 1_545
O23 P7 1.612943 1_555
O24 P10 1.560138 1_555
O25 P9 1.563616 1_555
O26 P6 1.477065 1_555
O27 P11 1.520593 1_555
O28 P4 1.558382 1_555
O29 P9 1.472797 1_555
O30 P6 1.560341 1_555
O31 P5 1.562288 1_555
O32 P8 1.598556 1_555
O32 P6 1.600027 1_565
O33 P8 1.571169 1_555
O34 P8 1.566316 1_555
O35 P7 1.471056 1_555
O36 P10 1.498172 1_555
O37 P10 1.598296 1_555
O37 P11 1.607338 1_555
O38 P9 1.598386 1_555
O39 P11 1.527193 1_555
O40 P10 1.563379 1_555
O41 P11 1.553734 1_555
O42 P12 1.524475 1_555
O43 P13 1.548226 1_555
O44 P12 1.534820 1_555
O45 P0 1.616869 1_655
O46 P13 1.489120 1_555
O47 P13 1.596472 1_565
O47 P12 1.603230 1_555
O48 P1 1.476383 1_655
O49 P14 1.552106 1_555
O50 P14 1.565664 1_555
O51 P15 1.603910 1_555
O51 P14 1.611910 1_555
O52 P15 1.553760 1_555
O53 P2 1.563949 1_655
O54 P3 1.538554 1_655
O55 P15 1.478282 1_555
