# generated using pymatgen
data_Cr2S3
_symmetry_space_group_name_H-M   'P 1'
_cell_length_a   6.51849290
_cell_length_b   6.51849290
_cell_length_c   6.51849245
_cell_angle_alpha   53.90961587
_cell_angle_beta   53.90961587
_cell_angle_gamma   53.90961876
_symmetry_Int_Tables_number   1
_chemical_formula_structural   Cr2S3
_chemical_formula_sum   'Cr4 S6'
_cell_volume   167.98103471
_cell_formula_units_Z   2
loop_
 _symmetry_equiv_pos_site_id
 _symmetry_equiv_pos_as_xyz
  1  'x, y, z'
loop_
 _atom_site_type_symbol
 _atom_site_label
 _atom_site_symmetry_multiplicity
 _atom_site_fract_x
 _atom_site_fract_y
 _atom_site_fract_z
 _atom_site_occupancy
  Cr  Cr0  1  0.67359300  0.67359300  0.67359300  1
  Cr  Cr1  1  0.49571900  0.49571900  0.49571900  1
  Cr  Cr2  1  0.99959100  0.99959100  0.99959100  1
  Cr  Cr3  1  0.33009600  0.33009600  0.33009600  1
  S  S0  1  0.90960100  0.25819000  0.58850400  1
  S  S1  1  0.40635700  0.09046400  0.74788500  1
  S  S2  1  0.58850400  0.90960100  0.25819000  1
  S  S3  1  0.09046400  0.74788500  0.40635700  1
  S  S4  1  0.74788500  0.40635700  0.09046400  1
  S  S5  1  0.25819000  0.58850400  0.90960100  1
loop_
_geom_bond_atom_site_label_1
_geom_bond_atom_site_label_2
_geom_bond_distance
_geom_bond_site_symmetry_2
Cr0 S4 2.373362 1_556
Cr0 S3 2.373362 1_655
Cr0 S1 2.373362 1_565
Cr0 S2 2.421353 1_555
Cr0 S5 2.421354 1_555
Cr0 S0 2.421354 1_555
Cr1 S4 2.364047 1_555
Cr1 S1 2.364047 1_555
Cr1 S3 2.364048 1_555
Cr1 S5 2.437123 1_555
Cr1 S2 2.437123 1_555
Cr1 S0 2.437123 1_555
Cr2 S3 2.377691 1_656
Cr2 S1 2.377692 1_665
Cr2 S4 2.377692 1_566
Cr2 S0 2.394059 1_565
Cr2 S2 2.394059 1_556
Cr2 S5 2.394059 1_655
Cr3 S5 2.390416 1_554
Cr3 S0 2.390416 1_455
Cr3 S2 2.390416 1_545
Cr3 S1 2.402531 1_555
Cr3 S4 2.402531 1_555
Cr3 S3 2.402531 1_555
