# generated using pymatgen
data_Pm2IrRu
_symmetry_space_group_name_H-M   'P 1'
_cell_length_a   4.93433500
_cell_length_b   4.93433500
_cell_length_c   4.93433500
_cell_angle_alpha   60.00000000
_cell_angle_beta   60.00000000
_cell_angle_gamma   60.00000000
_symmetry_Int_Tables_number   1
_chemical_formula_structural   Pm2IrRu
_chemical_formula_sum   'Pm2 Ir1 Ru1'
_cell_volume   84.95146951
_cell_formula_units_Z   1
loop_
 _symmetry_equiv_pos_site_id
 _symmetry_equiv_pos_as_xyz
  1  'x, y, z'
loop_
 _atom_site_type_symbol
 _atom_site_label
 _atom_site_symmetry_multiplicity
 _atom_site_fract_x
 _atom_site_fract_y
 _atom_site_fract_z
 _atom_site_occupancy
  Pm  Pm0  1  0.00000000  0.00000000  0.00000000  1
  Pm  Pm1  1  0.49999900  0.49999900  0.49999900  1
  Ir  Ir0  1  0.25000000  0.25000000  0.25000000  1
  Ru  Ru0  1  0.75000000  0.75000000  0.75000000  1
loop_
_geom_bond_atom_site_label_1
_geom_bond_atom_site_label_2
_geom_bond_distance
_geom_bond_site_symmetry_2
Pm0 Ru0 3.021651 1_544
Pm0 Ru0 3.021651 1_454
Pm0 Ru0 3.021651 1_444
Pm0 Ru0 3.021651 1_445
Pm1 Ru0 3.021647 1_455
Pm1 Ru0 3.021647 1_545
Pm1 Ru0 3.021647 1_554
Pm1 Ru0 3.021663 1_555
Ir0 Pm1 3.021639 1_555
Ir0 Pm0 3.021651 1_655
Ir0 Pm0 3.021651 1_565
Ir0 Pm0 3.021651 1_555
Ir0 Pm0 3.021651 1_556
Ir0 Pm1 3.021655 1_554
Ir0 Pm1 3.021655 1_545
Ir0 Pm1 3.021655 1_455
