# generated using pymatgen
data_PmTlTe2
_symmetry_space_group_name_H-M   'P 1'
_cell_length_a   5.59859480
_cell_length_b   5.59859480
_cell_length_c   5.59859480
_cell_angle_alpha   60.00000000
_cell_angle_beta   60.00000000
_cell_angle_gamma   60.00000000
_symmetry_Int_Tables_number   1
_chemical_formula_structural   PmTlTe2
_chemical_formula_sum   'Pm1 Tl1 Te2'
_cell_volume   124.08580773
_cell_formula_units_Z   1
loop_
 _symmetry_equiv_pos_site_id
 _symmetry_equiv_pos_as_xyz
  1  'x, y, z'
loop_
 _atom_site_type_symbol
 _atom_site_label
 _atom_site_symmetry_multiplicity
 _atom_site_fract_x
 _atom_site_fract_y
 _atom_site_fract_z
 _atom_site_occupancy
  Pm  Pm0  1  0.25000100  0.25000100  0.25000100  1
  Tl  Tl0  1  0.75000000  0.75000000  0.75000000  1
  Te  Te0  1  0.00000000  0.00000000  -0.00000000  1
  Te  Te1  1  0.50000000  0.50000000  0.50000000  1
loop_
_geom_bond_atom_site_label_1
_geom_bond_atom_site_label_2
_geom_bond_distance
_geom_bond_site_symmetry_2
Pm0 Te1 3.428411 1_555
Pm0 Te0 3.428421 1_655
Pm0 Te0 3.428421 1_556
Pm0 Te0 3.428421 1_565
Pm0 Te1 3.428430 1_554
Pm0 Te1 3.428430 1_545
Pm0 Te1 3.428430 1_455
Pm0 Te0 3.428439 1_555
Te0 Tl0 3.428425 1_454
Te0 Tl0 3.428425 1_444
Te0 Tl0 3.428425 1_445
Te0 Tl0 3.428425 1_544
Te1 Tl0 3.428425 1_545
Te1 Tl0 3.428425 1_554
Te1 Tl0 3.428425 1_555
Te1 Tl0 3.428425 1_455
