# generated using pymatgen
data_MnOF
_symmetry_space_group_name_H-M   'P 1'
_cell_length_a   5.74312000
_cell_length_b   5.12794800
_cell_length_c   10.54310656
_cell_angle_alpha   62.05978242
_cell_angle_beta   90.00000000
_cell_angle_gamma   90.00000000
_symmetry_Int_Tables_number   1
_chemical_formula_structural   MnOF
_chemical_formula_sum   'Mn8 O8 F8'
_cell_volume   274.30622514
_cell_formula_units_Z   8
loop_
 _symmetry_equiv_pos_site_id
 _symmetry_equiv_pos_as_xyz
  1  'x, y, z'
loop_
 _atom_site_type_symbol
 _atom_site_label
 _atom_site_symmetry_multiplicity
 _atom_site_fract_x
 _atom_site_fract_y
 _atom_site_fract_z
 _atom_site_occupancy
  Mn  Mn0  1  0.15087100  0.74834500  0.99110800  1
  Mn  Mn1  1  0.84912900  0.25165500  0.00889200  1
  Mn  Mn2  1  0.40533600  0.00000000  0.25000000  1
  Mn  Mn3  1  0.69865700  0.50000000  0.25000000  1
  Mn  Mn4  1  0.84912900  0.74834500  0.49110800  1
  Mn  Mn5  1  0.15087100  0.25165500  0.50889200  1
  Mn  Mn6  1  0.30134300  0.50000000  0.75000000  1
  Mn  Mn7  1  0.59466400  0.00000000  0.75000000  1
  O  O0  1  0.91049000  0.47257500  0.11330700  1
  O  O1  1  0.64684900  0.92769400  0.14363000  1
  O  O2  1  0.64684900  0.07230600  0.35637000  1
  O  O3  1  0.91049000  0.52742500  0.38669300  1
  O  O4  1  0.08951000  0.47257500  0.61330700  1
  O  O5  1  0.35315100  0.92769400  0.64363000  1
  O  O6  1  0.35315100  0.07230600  0.85637000  1
  O  O7  1  0.08951000  0.52742500  0.88669300  1
  F  F0  1  0.15711600  0.95195100  0.12070900  1
  F  F1  1  0.41858600  0.46663000  0.12875500  1
  F  F2  1  0.41858600  0.53337000  0.37124500  1
  F  F3  1  0.15711600  0.04804900  0.37929100  1
  F  F4  1  0.84288400  0.95195100  0.62070900  1
  F  F5  1  0.58141400  0.46663000  0.62875500  1
  F  F6  1  0.58141400  0.53337000  0.87124500  1
  F  F7  1  0.84288400  0.04804900  0.87929100  1
loop_
_geom_bond_atom_site_label_1
_geom_bond_atom_site_label_2
_geom_bond_distance
_geom_bond_site_symmetry_2
Mn0 O7 1.946316 1_555
Mn0 O0 1.964233 1_456
Mn0 O6 1.978856 1_565
Mn1 O0 1.946316 1_555
Mn1 O7 1.964233 1_654
Mn1 O1 1.978856 1_545
Mn2 O1 1.925802 1_545
Mn2 O2 1.925802 1_555
Mn3 O3 1.940811 1_555
Mn3 O0 1.940811 1_555
Mn3 O2 1.962505 1_555
Mn3 O1 1.962505 1_555
Mn4 O3 1.946316 1_555
Mn4 O4 1.964233 1_655
Mn4 O2 1.978856 1_565
Mn5 O4 1.946316 1_555
Mn5 O3 1.964233 1_455
Mn5 O5 1.978856 1_545
Mn6 O4 1.940811 1_555
Mn6 O7 1.940811 1_555
Mn6 O5 1.962505 1_555
Mn6 O6 1.962505 1_555
Mn7 O6 1.925802 1_555
Mn7 O5 1.925802 1_545
F0 Mn2 2.065377 1_565
F0 Mn0 2.072517 1_554
F0 Mn1 2.276530 1_465
F1 Mn3 2.110812 1_555
F1 Mn2 2.121133 1_555
F1 Mn0 2.142977 1_554
F2 Mn3 2.110812 1_555
F2 Mn2 2.121133 1_565
F2 Mn5 2.142977 1_555
F3 Mn2 2.065377 1_555
F3 Mn5 2.072517 1_555
F3 Mn4 2.276530 1_445
F4 Mn7 2.065377 1_565
F4 Mn4 2.072517 1_555
F4 Mn5 2.276530 1_665
F5 Mn6 2.110812 1_555
F5 Mn7 2.121133 1_555
F5 Mn4 2.142977 1_555
F6 Mn6 2.110812 1_555
F6 Mn7 2.121133 1_565
F6 Mn1 2.142977 1_556
F7 Mn7 2.065377 1_555
F7 Mn1 2.072517 1_556
F7 Mn0 2.276530 1_645
