# generated using pymatgen
data_Li3Cu3(PO4)2
_symmetry_space_group_name_H-M   'P 1'
_cell_length_a   6.24287300
_cell_length_b   5.40563663
_cell_length_c   5.11569420
_cell_angle_alpha   90.32362679
_cell_angle_beta   90.07596963
_cell_angle_gamma   90.15041435
_symmetry_Int_Tables_number   1
_chemical_formula_structural   Li3Cu3(PO4)2
_chemical_formula_sum   'Li3 Cu3 P2 O8'
_cell_volume   172.63430869
_cell_formula_units_Z   1
loop_
 _symmetry_equiv_pos_site_id
 _symmetry_equiv_pos_as_xyz
  1  'x, y, z'
loop_
 _atom_site_type_symbol
 _atom_site_label
 _atom_site_symmetry_multiplicity
 _atom_site_fract_x
 _atom_site_fract_y
 _atom_site_fract_z
 _atom_site_occupancy
  Li  Li0  1  0.50630000  0.00007300  0.15464100  1
  Li  Li1  1  0.00398600  0.75174500  0.32688300  1
  Li  Li2  1  0.50684400  0.25403300  0.67410500  1
  Cu  Cu0  1  0.50712000  0.73937000  0.66399800  1
  Cu  Cu1  1  0.00609400  0.50023500  0.81735200  1
  Cu  Cu2  1  0.99454300  0.25084300  0.33204400  1
  P  P0  1  0.00126600  0.00046000  0.83085700  1
  P  P1  1  0.50190800  0.50049800  0.18051000  1
  O  O0  1  0.11074000  0.98786100  0.09884600  1
  O  O1  1  0.69826300  0.01149400  0.83088200  1
  O  O2  1  0.09414200  0.79955300  0.67922300  1
  O  O3  1  0.61782300  0.70862200  0.29899900  1
  O  O4  1  0.19907100  0.51221100  0.18957200  1
  O  O5  1  0.59552700  0.48778800  0.90471000  1
  O  O6  1  0.59263800  0.29360300  0.31814200  1
  O  O7  1  0.12114300  0.20161200  0.69923600  1
loop_
_geom_bond_atom_site_label_1
_geom_bond_atom_site_label_2
_geom_bond_distance
_geom_bond_site_symmetry_2
Li0 O6 1.867380 1_555
Li0 O3 1.878768 1_545
Li0 O1 2.046748 1_554
Li0 O0 2.486157 1_545
Li1 O0 1.857025 1_555
Li1 O2 1.903609 1_555
Li1 O4 1.911426 1_555
Li1 O3 2.425334 1_455
Li2 O5 1.809045 1_555
Li2 O6 1.911816 1_555
Li2 O1 1.951349 1_555
Li2 O7 2.427421 1_555
Cu0 O5 1.921335 1_555
Cu0 O3 1.998073 1_555
Cu0 O1 2.071357 1_565
Cu1 O2 1.851668 1_555
Cu1 O7 1.866277 1_555
Cu1 O4 2.252448 1_556
Cu1 O5 2.603130 1_455
Cu2 O0 1.989684 1_645
Cu2 O4 2.040182 1_655
Cu2 O7 2.055926 1_655
Cu2 O6 2.521217 1_555
O0 P0 1.532983 1_564
O1 P0 1.892706 1_655
O2 P0 1.453395 1_565
O3 P1 1.464124 1_555
O4 P1 1.892420 1_555
O5 P1 1.529140 1_556
O6 P1 1.441715 1_555
O7 P0 1.483617 1_555
