# generated using pymatgen
data_LiMn2(BO3)2
_symmetry_space_group_name_H-M   'P 1'
_cell_length_a   5.23619448
_cell_length_b   5.23622822
_cell_length_c   10.59154251
_cell_angle_alpha   90.53692463
_cell_angle_beta   89.46919810
_cell_angle_gamma   61.61541450
_symmetry_Int_Tables_number   1
_chemical_formula_structural   LiMn2(BO3)2
_chemical_formula_sum   'Li2 Mn4 B4 O12'
_cell_volume   255.44301006
_cell_formula_units_Z   2
loop_
 _symmetry_equiv_pos_site_id
 _symmetry_equiv_pos_as_xyz
  1  'x, y, z'
loop_
 _atom_site_type_symbol
 _atom_site_label
 _atom_site_symmetry_multiplicity
 _atom_site_fract_x
 _atom_site_fract_y
 _atom_site_fract_z
 _atom_site_occupancy
  Li  Li0  1  0.52463600  0.53823900  0.24586400  1
  Li  Li1  1  0.46169400  0.47540700  0.74591300  1
  Mn  Mn0  1  0.93281700  0.70387300  0.63046900  1
  Mn  Mn1  1  0.00609100  0.30309300  0.39192700  1
  Mn  Mn2  1  0.29608300  0.06713800  0.13042900  1
  Mn  Mn3  1  0.69698500  0.99400900  0.89196100  1
  B  B0  1  0.01062400  0.36551000  0.87618800  1
  B  B1  1  0.63456400  0.98933700  0.37615500  1
  B  B2  1  0.32081300  0.03283700  0.63706300  1
  B  B3  1  0.96715100  0.67913700  0.13701000  1
  O  O0  1  0.12387900  0.28920500  0.57941000  1
  O  O1  1  0.71078200  0.87617100  0.07937600  1
  O  O2  1  0.24286300  0.18958200  0.95314100  1
  O  O3  1  0.81034900  0.75720300  0.45316200  1
  O  O4  1  0.04390000  0.58477800  0.81014400  1
  O  O5  1  0.41520500  0.95609200  0.31010900  1
  O  O6  1  0.56516400  0.03674200  0.69270300  1
  O  O7  1  0.96319300  0.43486000  0.19264700  1
  O  O8  1  0.20471700  0.71601800  0.13676500  1
  O  O9  1  0.28385600  0.79533600  0.63685400  1
  O  O10  1  0.66066600  0.23025900  0.36158600  1
  O  O11  1  0.76961300  0.33953000  0.86167700  1
loop_
_geom_bond_atom_site_label_1
_geom_bond_atom_site_label_2
_geom_bond_distance
_geom_bond_site_symmetry_2
Li0 O10 1.889808 1_555
Li0 O8 1.892446 1_555
Li0 O5 2.086013 1_555
Li0 O7 2.161589 1_555
Li1 O11 1.889833 1_555
Li1 O9 1.892295 1_555
Li1 O4 2.085798 1_555
Li1 O6 2.161946 1_555
Mn0 O3 1.969213 1_555
Mn0 O0 1.977501 1_655
Mn0 O6 1.985747 1_565
Mn0 O4 2.011625 1_655
Mn0 O9 2.109799 1_655
Mn1 O10 2.045599 1_455
Mn1 O0 2.076434 1_555
Mn1 O3 2.183303 1_455
Mn1 O7 2.206855 1_455
Mn1 O5 2.208337 1_545
Mn2 O2 1.969027 1_554
Mn2 O1 1.977655 1_545
Mn2 O7 1.985933 1_455
Mn2 O5 2.011667 1_545
Mn2 O8 2.109887 1_545
Mn3 O11 2.045384 1_565
Mn3 O1 2.075922 1_556
Mn3 O2 2.183268 1_565
Mn3 O6 2.206693 1_565
Mn3 O4 2.208514 1_655
B0 O11 1.342069 1_455
B0 O2 1.399659 1_555
B0 O4 1.428596 1_555
B1 O10 1.342058 1_565
B1 O3 1.399526 1_555
B1 O5 1.428863 1_555
B2 O9 1.346396 1_545
B2 O0 1.396125 1_555
B2 O6 1.422452 1_555
B3 O8 1.346493 1_655
B3 O1 1.396168 1_555
B3 O7 1.422272 1_555
