# generated using pymatgen
data_Na5ReO6
_symmetry_space_group_name_H-M   'P 1'
_cell_length_a   5.58446856
_cell_length_b   5.58446894
_cell_length_c   5.55555979
_cell_angle_alpha   100.24977810
_cell_angle_beta   100.24977193
_cell_angle_gamma   119.43322666
_symmetry_Int_Tables_number   1
_chemical_formula_structural   Na5ReO6
_chemical_formula_sum   'Na5 Re1 O6'
_cell_volume   141.18862439
_cell_formula_units_Z   1
loop_
 _symmetry_equiv_pos_site_id
 _symmetry_equiv_pos_as_xyz
  1  'x, y, z'
loop_
 _atom_site_type_symbol
 _atom_site_label
 _atom_site_symmetry_multiplicity
 _atom_site_fract_x
 _atom_site_fract_y
 _atom_site_fract_z
 _atom_site_occupancy
  Na  Na0  1  0.66632360  0.33367640  0.00000000  1
  Na  Na1  1  0.82681213  0.17318787  0.50000000  1
  Na  Na2  1  0.33367640  0.66632360  -0.00000000  1
  Na  Na3  1  0.17318787  0.82681213  0.50000000  1
  Na  Na4  1  0.50000000  0.50000000  0.50000000  1
  Re  Re0  1  -0.00000000  0.00000000  -0.00000000  1
  O  O0  1  0.79522454  0.79522454  0.20618934  1
  O  O1  1  0.20477546  0.20477546  0.79381066  1
  O  O2  1  0.92935103  0.64941187  0.78456440  1
  O  O3  1  0.35058813  0.07064897  0.21543560  1
  O  O4  1  0.07064897  0.35058813  0.21543560  1
  O  O5  1  0.64941187  0.92935103  0.78456440  1
loop_
_geom_bond_atom_site_label_1
_geom_bond_atom_site_label_2
_geom_bond_distance
_geom_bond_site_symmetry_2
Na0 O1 2.303506 1_554
Na0 O0 2.303506 1_555
Na0 O4 2.308279 1_655
Na0 O5 2.308279 1_544
Na0 O3 2.351644 1_555
Na0 O2 2.351644 1_554
Na1 O4 2.309247 1_655
Na1 O5 2.309248 1_545
Na1 O0 2.335831 1_545
Na1 O1 2.335831 1_655
Na1 O3 2.566083 1_555
Na1 O2 2.566083 1_555
Na2 O0 2.303506 1_555
Na2 O1 2.303506 1_554
Na2 O2 2.308279 1_454
Na2 O3 2.308279 1_565
Na2 O5 2.351644 1_554
Na2 O4 2.351644 1_555
Na3 O2 2.309247 1_455
Na3 O3 2.309248 1_565
Na3 O1 2.335831 1_565
Na3 O0 2.335831 1_455
Na3 O5 2.566083 1_555
Na3 O4 2.566083 1_555
Na4 O2 2.271518 1_555
Na4 O4 2.271518 1_555
Na4 O5 2.271518 1_555
Na4 O3 2.271518 1_555
Na4 O1 2.710089 1_555
Na4 O0 2.710089 1_555
O0 Re0 1.890697 1_665
O1 Re0 1.890697 1_556
O2 Re0 1.913157 1_666
O3 Re0 1.913157 1_555
O4 Re0 1.913157 1_555
O5 Re0 1.913157 1_666
