# generated using pymatgen
data_TlCu4S3
_symmetry_space_group_name_H-M   'P 1'
_cell_length_a   3.85232464
_cell_length_b   3.85232464
_cell_length_c   9.39926588
_cell_angle_alpha   90.00000000
_cell_angle_beta   90.00000000
_cell_angle_gamma   90.00000000
_symmetry_Int_Tables_number   1
_chemical_formula_structural   TlCu4S3
_chemical_formula_sum   'Tl1 Cu4 S3'
_cell_volume   139.48891360
_cell_formula_units_Z   1
loop_
 _symmetry_equiv_pos_site_id
 _symmetry_equiv_pos_as_xyz
  1  'x, y, z'
loop_
 _atom_site_type_symbol
 _atom_site_label
 _atom_site_symmetry_multiplicity
 _atom_site_fract_x
 _atom_site_fract_y
 _atom_site_fract_z
 _atom_site_occupancy
  Tl  Tl0  1  -0.00000000  -0.00000000  0.50000000  1
  Cu  Cu0  1  0.50000000  -0.00000000  0.15911689  1
  Cu  Cu1  1  0.50000000  0.00000000  0.84088311  1
  Cu  Cu2  1  -0.00000000  0.50000000  0.84088311  1
  Cu  Cu3  1  0.00000000  0.50000000  0.15911689  1
  S  S0  1  0.50000000  0.50000000  0.70947353  1
  S  S1  1  0.50000000  0.50000000  0.29052647  1
  S  S2  1  -0.00000000  -0.00000000  0.00000000  1
loop_
_geom_bond_atom_site_label_1
_geom_bond_atom_site_label_2
_geom_bond_distance
_geom_bond_site_symmetry_2
Cu0 S1 2.288166 1_555
Cu0 S1 2.288166 1_545
Cu0 S2 2.438620 1_655
Cu0 S2 2.438620 1_555
Cu1 S0 2.288166 1_555
Cu1 S0 2.288166 1_545
Cu1 S2 2.438620 1_556
Cu1 S2 2.438620 1_656
Cu2 S0 2.288166 1_555
Cu2 S0 2.288166 1_455
Cu2 S2 2.438620 1_556
Cu2 S2 2.438620 1_566
Cu3 S1 2.288166 1_555
Cu3 S1 2.288166 1_455
Cu3 S2 2.438620 1_555
Cu3 S2 2.438620 1_565
