# generated using pymatgen
data_Pm3Ge
_symmetry_space_group_name_H-M   'P 1'
_cell_length_a   4.76111703
_cell_length_b   4.76111703
_cell_length_c   4.76111703
_cell_angle_alpha   90.00000000
_cell_angle_beta   90.00000000
_cell_angle_gamma   90.00000000
_symmetry_Int_Tables_number   1
_chemical_formula_structural   Pm3Ge
_chemical_formula_sum   'Pm3 Ge1'
_cell_volume   107.92612148
_cell_formula_units_Z   1
loop_
 _symmetry_equiv_pos_site_id
 _symmetry_equiv_pos_as_xyz
  1  'x, y, z'
loop_
 _atom_site_type_symbol
 _atom_site_label
 _atom_site_symmetry_multiplicity
 _atom_site_fract_x
 _atom_site_fract_y
 _atom_site_fract_z
 _atom_site_occupancy
  Pm  Pm0  1  0.00000000  0.50000100  0.50000100  1
  Pm  Pm1  1  0.50000100  0.00000000  0.50000100  1
  Pm  Pm2  1  0.50000100  0.50000100  0.00000000  1
  Ge  Ge0  1  0.00000000  0.00000000  0.00000000  1
loop_
_geom_bond_atom_site_label_1
_geom_bond_atom_site_label_2
_geom_bond_distance
_geom_bond_site_symmetry_2
Ge0 Pm2 3.366611 1_445
Ge0 Pm0 3.366611 1_544
Ge0 Pm1 3.366611 1_454
Ge0 Pm0 3.366618 1_554
Ge0 Pm2 3.366618 1_545
Ge0 Pm1 3.366618 1_455
Ge0 Pm1 3.366618 1_554
Ge0 Pm0 3.366618 1_545
Ge0 Pm2 3.366618 1_455
Ge0 Pm2 3.366625 1_555
Ge0 Pm0 3.366625 1_555
Ge0 Pm1 3.366625 1_555
