# generated using pymatgen
data_Li2Cu(PO3)4
_symmetry_space_group_name_H-M   'P 1'
_cell_length_a   9.05903200
_cell_length_b   7.69317900
_cell_length_c   8.41525845
_cell_angle_alpha   58.45289473
_cell_angle_beta   90.00000000
_cell_angle_gamma   90.00000000
_symmetry_Int_Tables_number   1
_chemical_formula_structural   Li2Cu(PO3)4
_chemical_formula_sum   'Li4 Cu2 P8 O24'
_cell_volume   499.80646913
_cell_formula_units_Z   2
loop_
 _symmetry_equiv_pos_site_id
 _symmetry_equiv_pos_as_xyz
  1  'x, y, z'
loop_
 _atom_site_type_symbol
 _atom_site_label
 _atom_site_symmetry_multiplicity
 _atom_site_fract_x
 _atom_site_fract_y
 _atom_site_fract_z
 _atom_site_occupancy
  Li  Li0  1  0.69610800  0.76106200  0.35461400  1
  Li  Li1  1  0.80389200  0.76106200  0.85461400  1
  Li  Li2  1  0.19610800  0.23893800  0.14538600  1
  Li  Li3  1  0.30389200  0.23893800  0.64538600  1
  Cu  Cu0  1  0.00000000  0.00000000  0.00000000  1
  Cu  Cu1  1  0.50000000  0.00000000  0.50000000  1
  P  P0  1  0.58496000  0.43589600  0.74140000  1
  P  P1  1  0.08496000  0.56410400  0.75860000  1
  P  P2  1  0.21373200  0.81269700  0.36554300  1
  P  P3  1  0.71373200  0.18730300  0.13445700  1
  P  P4  1  0.28626800  0.81269700  0.86554300  1
  P  P5  1  0.78626800  0.18730300  0.63445700  1
  P  P6  1  0.91504000  0.43589600  0.24140000  1
  P  P7  1  0.41504000  0.56410400  0.25860000  1
  O  O0  1  0.72345200  0.34194000  0.68781000  1
  O  O1  1  0.11540000  0.33944600  0.85686500  1
  O  O2  1  0.44168800  0.35554500  0.72288600  1
  O  O3  1  0.61293200  0.33912300  0.96280400  1
  O  O4  1  0.11293200  0.66087700  0.53719600  1
  O  O5  1  0.11372500  0.96635400  0.21106900  1
  O  O6  1  0.94168800  0.64445500  0.77711400  1
  O  O7  1  0.61540000  0.66055400  0.64313500  1
  O  O8  1  0.82678900  0.07764000  0.08985800  1
  O  O9  1  0.22345200  0.65806000  0.81219000  1
  O  O10  1  0.32678900  0.92236000  0.41014200  1
  O  O11  1  0.61372500  0.03364600  0.28893100  1
  O  O12  1  0.38627500  0.96635400  0.71106900  1
  O  O13  1  0.67321100  0.07764000  0.58985800  1
  O  O14  1  0.77654800  0.34194000  0.18781000  1
  O  O15  1  0.17321100  0.92236000  0.91014200  1
  O  O16  1  0.38460000  0.33944600  0.35686500  1
  O  O17  1  0.05831200  0.35554500  0.22288600  1
  O  O18  1  0.88627500  0.03364600  0.78893100  1
  O  O19  1  0.88706800  0.33912300  0.46280400  1
  O  O20  1  0.38706800  0.66087700  0.03719600  1
  O  O21  1  0.55831200  0.64445500  0.27711400  1
  O  O22  1  0.88460000  0.66055400  0.14313500  1
  O  O23  1  0.27654800  0.65806000  0.31219000  1
loop_
_geom_bond_atom_site_label_1
_geom_bond_atom_site_label_2
_geom_bond_distance
_geom_bond_site_symmetry_2
Li0 O21 1.844057 1_555
Li0 O11 2.011758 1_565
Li0 O7 2.250119 1_555
Li0 O8 2.572746 1_565
Li1 O6 1.844057 1_555
Li1 O18 2.011758 1_565
Li1 O22 2.250119 1_556
Li1 O13 2.572746 1_565
Li2 O17 1.844057 1_555
Li2 O5 2.011758 1_545
Li2 O1 2.250119 1_554
Li2 O10 2.572746 1_545
Li3 O2 1.844057 1_555
Li3 O12 2.011758 1_545
Li3 O16 2.250119 1_555
Li3 O15 2.572746 1_545
Cu0 O5 1.949920 1_545
Cu0 O18 1.949920 1_454
Cu0 O15 1.965539 1_544
Cu0 O8 1.965539 1_455
Cu0 O1 2.464104 1_554
Cu0 O22 2.464104 1_445
Cu1 O12 1.949920 1_545
Cu1 O11 1.949920 1_555
Cu1 O10 1.965539 1_545
Cu1 O13 1.965539 1_555
Cu1 O16 2.464104 1_555
Cu1 O7 2.464104 1_545
O0 P5 1.581006 1_555
O0 P0 1.625107 1_555
O1 P1 1.500490 1_555
O2 P0 1.480448 1_555
O3 P3 1.587192 1_556
O3 P0 1.624319 1_555
O4 P2 1.587192 1_555
O4 P1 1.624319 1_555
O5 P2 1.516585 1_555
O6 P1 1.480448 1_655
O7 P0 1.500490 1_555
O8 P3 1.494290 1_555
O9 P4 1.581006 1_555
O9 P1 1.625107 1_555
O10 P2 1.494290 1_555
O11 P3 1.516585 1_555
O12 P4 1.516585 1_555
O13 P5 1.494290 1_555
O14 P3 1.581006 1_555
O14 P6 1.625107 1_555
O15 P4 1.494290 1_555
O16 P7 1.500490 1_555
O17 P6 1.480448 1_455
O18 P5 1.516585 1_555
O19 P5 1.587192 1_555
O19 P6 1.624319 1_555
O20 P4 1.587192 1_554
O20 P7 1.624319 1_555
O21 P7 1.480448 1_555
O22 P6 1.500490 1_555
O23 P2 1.581006 1_555
O23 P7 1.625107 1_555
