# generated using pymatgen
data_Li4Co3Ni3(SnO8)2
_symmetry_space_group_name_H-M   'P 1'
_cell_length_a   5.89070654
_cell_length_b   5.76676791
_cell_length_c   9.56641304
_cell_angle_alpha   89.99178296
_cell_angle_beta   92.15156397
_cell_angle_gamma   119.35649016
_symmetry_Int_Tables_number   1
_chemical_formula_structural   Li4Co3Ni3(SnO8)2
_chemical_formula_sum   'Li4 Co3 Ni3 Sn2 O16'
_cell_volume   282.98123912
_cell_formula_units_Z   1
loop_
 _symmetry_equiv_pos_site_id
 _symmetry_equiv_pos_as_xyz
  1  'x, y, z'
loop_
 _atom_site_type_symbol
 _atom_site_label
 _atom_site_symmetry_multiplicity
 _atom_site_fract_x
 _atom_site_fract_y
 _atom_site_fract_z
 _atom_site_occupancy
  Li  Li0  1  0.31919500  0.65933000  0.89381100  1
  Li  Li1  1  0.00639200  0.00296700  0.99393400  1
  Li  Li2  1  0.00445600  0.00244600  0.49459100  1
  Li  Li3  1  0.66417500  0.33248000  0.39179600  1
  Co  Co0  1  0.17337400  0.83283500  0.21577400  1
  Co  Co1  1  0.17346500  0.34040400  0.21573700  1
  Co  Co2  1  0.33793800  0.16902500  0.71515800  1
  Ni  Ni0  1  0.66339600  0.83169000  0.21418800  1
  Ni  Ni1  1  0.82953900  0.66253500  0.71480800  1
  Ni  Ni2  1  0.82945100  0.16720000  0.71488100  1
  Sn  Sn0  1  0.33999300  0.67001400  0.49228400  1
  Sn  Sn1  1  0.66649000  0.33293400  0.99311900  1
  O  O0  1  0.17579900  0.85290500  0.60182500  1
  O  O1  1  0.03250800  0.51591600  0.32993100  1
  O  O2  1  0.29862600  0.64941100  0.11330400  1
  O  O3  1  0.03132000  0.01546100  0.30633000  1
  O  O4  1  0.01401800  0.00664500  0.80428200  1
  O  O5  1  0.17559700  0.32348000  0.60229800  1
  O  O6  1  0.46876100  0.96645900  0.33529100  1
  O  O7  1  0.46873500  0.50259600  0.33529500  1
  O  O8  1  0.32001700  0.15984700  0.10660000  1
  O  O9  1  0.69688000  0.84889200  0.59858900  1
  O  O10  1  0.49588700  0.47036600  0.83851800  1
  O  O11  1  0.49621700  0.02534200  0.83803300  1
  O  O12  1  0.65201800  0.32681000  0.61628300  1
  O  O13  1  0.85389100  0.68916100  0.09948000  1
  O  O14  1  0.95791300  0.47882700  0.83250800  1
  O  O15  1  0.85394600  0.16432000  0.09918700  1
loop_
_geom_bond_atom_site_label_1
_geom_bond_atom_site_label_2
_geom_bond_distance
_geom_bond_site_symmetry_2
Li0 O14 1.921224 1_455
Li0 O10 1.924630 1_555
Li0 O11 1.926293 1_565
Li0 O2 2.106946 1_556
Li1 O4 1.816394 1_555
Li1 O15 1.890374 1_456
Li1 O13 1.890755 1_446
Li1 O8 1.898760 1_556
Li2 O3 1.812161 1_555
Li2 O0 1.894786 1_545
Li2 O5 1.896840 1_555
Li2 O9 1.902288 1_445
Li3 O7 1.908011 1_555
Li3 O6 1.908890 1_545
Li3 O1 2.005706 1_655
Li3 O12 2.151125 1_555
Co0 O2 1.855800 1_555
Co0 O6 1.861444 1_555
Co0 O3 1.865108 1_565
Co0 O13 1.944277 1_455
Co0 O1 1.949829 1_555
Co0 O8 1.965499 1_565
Co1 O2 1.856021 1_555
Co1 O7 1.861219 1_555
Co1 O3 1.865259 1_555
Co1 O15 1.945691 1_455
Co1 O1 1.949286 1_555
Co1 O8 1.966930 1_555
Co2 O10 1.900268 1_555
Co2 O11 1.900663 1_555
Co2 O4 1.901240 1_555
Co2 O12 1.904266 1_555
Co2 O0 1.904373 1_545
Co2 O5 1.905495 1_555
Ni0 O15 2.032430 1_565
Ni0 O13 2.033717 1_555
Ni0 O3 2.049927 1_665
Ni0 O7 2.055293 1_555
Ni0 O6 2.057767 1_555
Ni0 O2 2.069654 1_555
Ni1 O4 1.915123 1_665
Ni1 O12 1.916153 1_555
Ni1 O14 1.919170 1_555
Ni1 O9 1.938955 1_555
Ni1 O0 2.122151 1_655
Ni1 O10 2.128460 1_555
Ni2 O14 1.916154 1_555
Ni2 O4 1.920347 1_655
Ni2 O12 1.923104 1_555
Ni2 O9 1.935666 1_545
Ni2 O5 2.119602 1_655
Ni2 O11 2.123528 1_555
O0 Sn0 2.054905 1_555
O1 Sn0 2.166498 1_555
O5 Sn0 2.053634 1_555
O6 Sn0 2.137012 1_555
O7 Sn0 2.136951 1_555
O8 Sn1 2.123447 1_554
O9 Sn0 2.057056 1_555
O10 Sn1 2.120013 1_555
O11 Sn1 2.120884 1_555
O13 Sn1 2.041262 1_554
O14 Sn1 2.190242 1_555
O15 Sn1 2.040293 1_554
