# generated using pymatgen
data_LiCu2F5
_symmetry_space_group_name_H-M   'P 1'
_cell_length_a   3.14399800
_cell_length_b   10.02313300
_cell_length_c   13.42653500
_cell_angle_alpha   90.00000000
_cell_angle_beta   90.00000000
_cell_angle_gamma   90.00000000
_symmetry_Int_Tables_number   1
_chemical_formula_structural   LiCu2F5
_chemical_formula_sum   'Li4 Cu8 F20'
_cell_volume   423.10650518
_cell_formula_units_Z   4
loop_
 _symmetry_equiv_pos_site_id
 _symmetry_equiv_pos_as_xyz
  1  'x, y, z'
loop_
 _atom_site_type_symbol
 _atom_site_label
 _atom_site_symmetry_multiplicity
 _atom_site_fract_x
 _atom_site_fract_y
 _atom_site_fract_z
 _atom_site_occupancy
  Li  Li0  1  0.76390900  0.75000000  0.23234000  1
  Li  Li1  1  0.26390900  0.25000000  0.26766000  1
  Li  Li2  1  0.73609100  0.75000000  0.73234000  1
  Li  Li3  1  0.23609100  0.25000000  0.76766000  1
  Cu  Cu0  1  0.27411100  0.59021600  0.07253200  1
  Cu  Cu1  1  0.27411100  0.90978400  0.07253200  1
  Cu  Cu2  1  0.77411100  0.09021600  0.42746800  1
  Cu  Cu3  1  0.77411100  0.40978400  0.42746800  1
  Cu  Cu4  1  0.22588900  0.59021600  0.57253200  1
  Cu  Cu5  1  0.22588900  0.90978400  0.57253200  1
  Cu  Cu6  1  0.72588900  0.09021600  0.92746800  1
  Cu  Cu7  1  0.72588900  0.40978400  0.92746800  1
  F  F0  1  0.89568700  0.75000000  0.05480500  1
  F  F1  1  0.70866400  0.05448100  0.06986800  1
  F  F2  1  0.70866400  0.44551900  0.06986800  1
  F  F3  1  0.27646500  0.62333100  0.20865300  1
  F  F4  1  0.27646500  0.87666900  0.20865300  1
  F  F5  1  0.77646500  0.12333100  0.29134700  1
  F  F6  1  0.77646500  0.37666900  0.29134700  1
  F  F7  1  0.20866400  0.55448100  0.43013200  1
  F  F8  1  0.20866400  0.94551900  0.43013200  1
  F  F9  1  0.39568700  0.25000000  0.44519500  1
  F  F10  1  0.60431300  0.75000000  0.55480500  1
  F  F11  1  0.79133600  0.05448100  0.56986800  1
  F  F12  1  0.79133600  0.44551900  0.56986800  1
  F  F13  1  0.22353500  0.62333100  0.70865300  1
  F  F14  1  0.22353500  0.87666900  0.70865300  1
  F  F15  1  0.72353500  0.12333100  0.79134700  1
  F  F16  1  0.72353500  0.37666900  0.79134700  1
  F  F17  1  0.29133600  0.55448100  0.93013200  1
  F  F18  1  0.29133600  0.94551900  0.93013200  1
  F  F19  1  0.10431300  0.25000000  0.94519500  1
loop_
_geom_bond_atom_site_label_1
_geom_bond_atom_site_label_2
_geom_bond_distance
_geom_bond_site_symmetry_2
Cu0 F3 1.857543 1_555
Cu0 F17 1.945953 1_554
Cu0 F2 1.992811 1_555
Cu0 F0 2.009255 1_455
Cu0 F2 2.294590 1_455
Cu0 F0 2.537833 1_555
Cu1 F4 1.857543 1_555
Cu1 F18 1.945953 1_554
Cu1 F1 1.992811 1_565
Cu1 F0 2.009255 1_455
Cu1 F1 2.294590 1_465
Cu1 F0 2.537833 1_555
Cu2 F5 1.857543 1_555
Cu2 F11 1.945953 1_555
Cu2 F8 1.992811 1_645
Cu2 F9 2.009255 1_555
Cu2 F8 2.294590 1_545
Cu2 F9 2.537833 1_655
Cu3 F6 1.857543 1_555
Cu3 F12 1.945953 1_555
Cu3 F7 1.992811 1_655
Cu3 F9 2.009255 1_555
Cu3 F7 2.294590 1_555
Cu3 F9 2.537833 1_655
Cu4 F13 1.857543 1_555
Cu4 F7 1.945953 1_555
Cu4 F12 1.992811 1_455
Cu4 F10 2.009255 1_555
Cu4 F12 2.294590 1_555
Cu4 F10 2.537833 1_455
Cu5 F14 1.857543 1_555
Cu5 F8 1.945953 1_555
Cu5 F11 1.992811 1_465
Cu5 F10 2.009255 1_555
Cu5 F11 2.294590 1_565
Cu5 F10 2.537833 1_455
Cu6 F15 1.857543 1_555
Cu6 F1 1.945953 1_556
Cu6 F18 1.992811 1_545
Cu6 F19 2.009255 1_655
Cu6 F18 2.294590 1_645
Cu6 F19 2.537833 1_555
Cu7 F16 1.857543 1_555
Cu7 F2 1.945953 1_556
Cu7 F17 1.992811 1_555
Cu7 F19 2.009255 1_655
Cu7 F17 2.294590 1_655
Cu7 F19 2.537833 1_555
F0 Li0 2.419418 1_555
F3 Li0 2.015368 1_555
F3 Li0 2.076038 1_455
F4 Li0 2.015368 1_555
F4 Li0 2.076038 1_455
F5 Li1 2.015368 1_655
F5 Li1 2.076038 1_555
F6 Li1 2.015368 1_655
F6 Li1 2.076038 1_555
F9 Li1 2.419418 1_555
F10 Li2 2.419418 1_555
F13 Li2 2.015368 1_455
F13 Li2 2.076038 1_555
F14 Li2 2.015368 1_455
F14 Li2 2.076038 1_555
F15 Li3 2.015368 1_555
F15 Li3 2.076038 1_655
F16 Li3 2.015368 1_555
F16 Li3 2.076038 1_655
F19 Li3 2.419418 1_555
