# generated using pymatgen
data_Li2MnVP2(HO5)2
_symmetry_space_group_name_H-M   'P 1'
_cell_length_a   5.16412600
_cell_length_b   5.49881424
_cell_length_c   19.81987838
_cell_angle_alpha   94.71242356
_cell_angle_beta   96.91754888
_cell_angle_gamma   99.60256416
_symmetry_Int_Tables_number   1
_chemical_formula_structural   Li2MnVP2(HO5)2
_chemical_formula_sum   'Li6 Mn3 V3 P6 H6 O30'
_cell_volume   547.87725053
_cell_formula_units_Z   3
loop_
 _symmetry_equiv_pos_site_id
 _symmetry_equiv_pos_as_xyz
  1  'x, y, z'
loop_
 _atom_site_type_symbol
 _atom_site_label
 _atom_site_symmetry_multiplicity
 _atom_site_fract_x
 _atom_site_fract_y
 _atom_site_fract_z
 _atom_site_occupancy
  Li  Li0  1  0.80268000  0.45047200  0.94049200  1
  Li  Li1  1  0.47075100  0.11436700  0.27396800  1
  Li  Li2  1  0.86518900  0.21184100  0.39205500  1
  Li  Li3  1  0.13931900  0.78798900  0.61069500  1
  Li  Li4  1  0.52555100  0.88507400  0.72439100  1
  Li  Li5  1  0.19463500  0.55063800  0.05908300  1
  Mn  Mn0  1  0.16207500  0.16970100  0.83295400  1
  Mn  Mn1  1  0.33302600  0.33745600  0.66685600  1
  Mn  Mn2  1  0.83243000  0.83299800  0.16643900  1
  V  V0  1  0.99845400  0.99997600  0.99979100  1
  V  V1  1  0.50488300  0.49701800  0.50092300  1
  V  V2  1  0.67039900  0.66329500  0.33277800  1
  P  P0  1  0.73743300  0.04652400  0.58847700  1
  P  P1  1  0.07355800  0.37756100  0.25568800  1
  P  P2  1  0.59283000  0.28744200  0.07756300  1
  P  P3  1  0.40290400  0.71347500  0.92181400  1
  P  P4  1  0.92567400  0.62963700  0.74505600  1
  P  P5  1  0.26909000  0.94482000  0.41158800  1
  H  H0  1  0.75033600  0.04520000  0.88615700  1
  H  H1  1  0.57998800  0.29253000  0.77827100  1
  H  H2  1  0.08665200  0.38202800  0.55616900  1
  H  H3  1  0.91562200  0.61188200  0.44626500  1
  H  H4  1  0.41789300  0.71075100  0.21895700  1
  H  H5  1  0.24733800  0.95626100  0.11366500  1
  O  O0  1  0.49033400  0.01955800  0.62549200  1
  O  O1  1  0.93074700  0.13514500  0.90749100  1
  O  O2  1  0.99219500  0.10654800  0.64262800  1
  O  O3  1  0.39844400  0.20220500  0.75734300  1
  O  O4  1  0.08552400  0.11448800  0.22138700  1
  O  O5  1  0.25484000  0.20165400  0.44869000  1
  O  O6  1  0.57870100  0.09003500  0.12792400  1
  O  O7  1  0.74322300  0.25388900  0.53995800  1
  O  O8  1  0.41357600  0.45010000  0.88726700  1
  O  O9  1  0.91278600  0.42893600  0.79466100  1
  O  O10  1  0.26736200  0.46956300  0.57676500  1
  O  O11  1  0.67369200  0.57137900  0.68957200  1
  O  O12  1  0.34174800  0.23391200  0.02296100  1
  O  O13  1  0.84283900  0.29752500  0.03963700  1
  O  O14  1  0.82300000  0.36550500  0.29342900  1
  O  O15  1  0.17398600  0.65261000  0.70819600  1
  O  O16  1  0.15453400  0.70235300  0.96031800  1
  O  O17  1  0.65535900  0.76487400  0.97586300  1
  O  O18  1  0.32330400  0.43021500  0.31065300  1
  O  O19  1  0.73513900  0.52857900  0.42527600  1
  O  O20  1  0.08656800  0.57560700  0.20549400  1
  O  O21  1  0.58056900  0.55042800  0.11159100  1
  O  O22  1  0.26477800  0.73876500  0.46022000  1
  O  O23  1  0.41604900  0.91274000  0.87197100  1
  O  O24  1  0.76141300  0.79292300  0.55067500  1
  O  O25  1  0.90399800  0.88924800  0.78080100  1
  O  O26  1  0.59937300  0.79956700  0.24002400  1
  O  O27  1  0.01539200  0.89315400  0.35847200  1
  O  O28  1  0.06600400  0.86692500  0.09258000  1
  O  O29  1  0.51581000  0.96263300  0.37256200  1
loop_
_geom_bond_atom_site_label_1
_geom_bond_atom_site_label_2
_geom_bond_distance
_geom_bond_site_symmetry_2
Li0 O1 2.042580 1_555
Li0 O16 2.067192 1_655
Li0 O17 2.104111 1_555
Li0 O8 2.153633 1_555
Li0 O13 2.200749 1_556
Li1 O26 2.046984 1_545
Li1 O14 2.066443 1_555
Li1 O18 2.119424 1_555
Li1 O4 2.131851 1_555
Li1 O29 2.189069 1_545
Li2 O29 2.050030 1_545
Li2 O19 2.055814 1_555
Li2 O27 2.121747 1_645
Li2 O14 2.193794 1_555
Li2 O5 2.194533 1_655
Li3 O0 2.008428 1_565
Li3 O10 2.062826 1_555
Li3 O2 2.103317 1_465
Li3 O15 2.125584 1_555
Li3 O24 2.165219 1_455
Li4 O15 2.012735 1_555
Li4 O3 2.048515 1_565
Li4 O11 2.099713 1_555
Li4 O25 2.127087 1_555
Li4 O0 2.149270 1_565
Li5 O28 2.051535 1_555
Li5 O13 2.070214 1_455
Li5 O12 2.119085 1_555
Li5 O21 2.134597 1_555
Li5 O16 2.190668 1_554
Mn0 O25 1.985814 1_445
Mn0 O8 1.986299 1_555
Mn0 O1 2.010262 1_455
Mn0 O3 2.044399 1_555
Mn0 O9 2.195445 1_455
Mn0 O23 2.206400 1_545
Mn1 O2 1.972648 1_455
Mn1 O11 1.977698 1_555
Mn1 O10 1.995116 1_555
Mn1 O3 2.010153 1_555
Mn1 O15 2.180072 1_555
Mn1 O0 2.187804 1_555
Mn2 O21 1.998838 1_555
Mn2 O4 1.998851 1_665
Mn2 O26 2.000603 1_555
Mn2 O28 2.006938 1_655
Mn2 O6 2.202607 1_565
Mn2 O20 2.209024 1_655
H0 O1 1.004203 1_555
H0 O23 1.737708 1_545
H1 O3 1.007375 1_555
H1 O9 1.737000 1_555
H2 O10 0.997644 1_555
H3 O19 0.992185 1_555
H4 O26 1.005340 1_555
H4 O20 1.727489 1_555
H5 O28 1.005682 1_555
H5 O6 1.725856 1_565
O0 P0 1.539077 1_555
O1 V0 2.043858 1_545
O2 P0 1.564768 1_555
O4 P1 1.561082 1_555
O5 P5 1.554920 1_545
O5 V1 2.019653 1_555
O6 P2 1.532675 1_555
O7 P0 1.549698 1_555
O7 V1 2.095326 1_555
O8 P3 1.562718 1_555
O9 P4 1.535758 1_555
O10 V1 2.050975 1_555
O11 P4 1.569577 1_555
O12 P2 1.556069 1_555
O12 V0 1.988593 1_444
O13 P2 1.565801 1_555
O13 V0 2.079847 1_544
O14 P1 1.565508 1_655
O14 V2 2.068663 1_555
O15 P4 1.542980 1_455
O16 P3 1.564771 1_555
O16 V0 2.078874 1_455
O17 P3 1.554996 1_555
O17 V0 1.992009 1_555
O18 P1 1.555361 1_555
O18 V2 1.999921 1_555
O19 V1 2.023685 1_555
O19 V2 2.044417 1_555
O20 P1 1.532932 1_555
O21 P2 1.559066 1_555
O22 P5 1.545827 1_555
O22 V1 2.107249 1_555
O23 P3 1.533075 1_555
O24 P0 1.558723 1_565
O24 V1 2.019263 1_555
O25 P4 1.567990 1_555
O26 V2 2.057004 1_555
O27 P5 1.549155 1_555
O27 V2 1.988815 1_455
O28 V0 2.047148 1_454
O29 P5 1.561857 1_555
O29 V2 2.084506 1_555
