# generated using pymatgen
data_BaCdS2
_symmetry_space_group_name_H-M   'P 1'
_cell_length_a   4.22594200
_cell_length_b   7.46260800
_cell_length_c   14.26382700
_cell_angle_alpha   90.00000000
_cell_angle_beta   90.00000000
_cell_angle_gamma   90.00000000
_symmetry_Int_Tables_number   1
_chemical_formula_structural   BaCdS2
_chemical_formula_sum   'Ba4 Cd4 S8'
_cell_volume   449.83187308
_cell_formula_units_Z   4
loop_
 _symmetry_equiv_pos_site_id
 _symmetry_equiv_pos_as_xyz
  1  'x, y, z'
loop_
 _atom_site_type_symbol
 _atom_site_label
 _atom_site_symmetry_multiplicity
 _atom_site_fract_x
 _atom_site_fract_y
 _atom_site_fract_z
 _atom_site_occupancy
  Ba  Ba0  1  0.75000000  0.15470000  0.64037000  1
  Ba  Ba1  1  0.25000000  0.84530000  0.35963000  1
  Ba  Ba2  1  0.75000000  0.65470000  0.85963000  1
  Ba  Ba3  1  0.25000000  0.34530000  0.14037000  1
  Cd  Cd0  1  0.75000000  0.32665800  0.38127900  1
  Cd  Cd1  1  0.75000000  0.82665800  0.11872100  1
  Cd  Cd2  1  0.25000000  0.67334200  0.61872100  1
  Cd  Cd3  1  0.25000000  0.17334200  0.88127900  1
  S  S0  1  0.75000000  0.26389900  0.96993700  1
  S  S1  1  0.25000000  0.73610100  0.03006300  1
  S  S2  1  0.75000000  0.76389900  0.53006300  1
  S  S3  1  0.25000000  0.23610100  0.46993700  1
  S  S4  1  0.25000000  0.42285500  0.73777600  1
  S  S5  1  0.75000000  0.07714500  0.23777600  1
  S  S6  1  0.25000000  0.92285500  0.76222400  1
  S  S7  1  0.75000000  0.57714500  0.26222400  1
loop_
_geom_bond_atom_site_label_1
_geom_bond_atom_site_label_2
_geom_bond_distance
_geom_bond_site_symmetry_2
Ba0 S4 3.224837 1_555
Ba0 S4 3.224837 1_655
Ba0 S6 3.237149 1_645
Ba0 S6 3.237149 1_545
Ba0 S3 3.277736 1_555
Ba0 S3 3.277736 1_655
Ba0 S2 3.313751 1_545
Ba1 S7 3.224837 1_455
Ba1 S7 3.224837 1_555
Ba1 S5 3.237149 1_565
Ba1 S5 3.237149 1_465
Ba1 S2 3.277736 1_555
Ba1 S2 3.277736 1_455
Ba1 S3 3.313751 1_565
Ba2 S6 3.224837 1_555
Ba2 S6 3.224837 1_655
Ba2 S4 3.237149 1_655
Ba2 S4 3.237149 1_555
Ba2 S1 3.277736 1_556
Ba2 S1 3.277736 1_656
Ba2 S0 3.313751 1_555
Ba3 S5 3.224837 1_455
Ba3 S5 3.224837 1_555
Ba3 S7 3.237149 1_455
Ba3 S7 3.237149 1_555
Ba3 S0 3.277736 1_554
Ba3 S0 3.277736 1_454
Ba3 S1 3.313751 1_555
Cd0 S7 2.525479 1_555
Cd0 S3 2.553539 1_555
Cd0 S3 2.553539 1_655
Cd0 S5 2.767114 1_555
Cd1 S5 2.525479 1_565
Cd1 S1 2.553539 1_655
Cd1 S1 2.553539 1_555
Cd1 S7 2.767114 1_555
Cd2 S4 2.525479 1_555
Cd2 S2 2.553539 1_555
Cd2 S2 2.553539 1_455
Cd2 S6 2.767114 1_555
Cd3 S6 2.525479 1_545
Cd3 S0 2.553539 1_455
Cd3 S0 2.553539 1_555
Cd3 S4 2.767114 1_555
