# generated using pymatgen
data_MnSiRh2
_symmetry_space_group_name_H-M   'P 1'
_cell_length_a   4.20967245
_cell_length_b   4.20967173
_cell_length_c   4.20967389
_cell_angle_alpha   59.99984692
_cell_angle_beta   59.99990921
_cell_angle_gamma   59.99990360
_symmetry_Int_Tables_number   1
_chemical_formula_structural   MnSiRh2
_chemical_formula_sum   'Mn1 Si1 Rh2'
_cell_volume   52.75077876
_cell_formula_units_Z   1
loop_
 _symmetry_equiv_pos_site_id
 _symmetry_equiv_pos_as_xyz
  1  'x, y, z'
loop_
 _atom_site_type_symbol
 _atom_site_label
 _atom_site_symmetry_multiplicity
 _atom_site_fract_x
 _atom_site_fract_y
 _atom_site_fract_z
 _atom_site_occupancy
  Mn  Mn0  1  0.25000000  0.25000000  0.25000000  1
  Si  Si0  1  0.75000100  0.75000100  0.75000100  1
  Rh  Rh0  1  0.00000100  0.00000000  0.99999900  1
  Rh  Rh1  1  0.49999900  0.49999900  0.50000000  1
loop_
_geom_bond_atom_site_label_1
_geom_bond_atom_site_label_2
_geom_bond_distance
_geom_bond_site_symmetry_2
Mn0 Rh0 2.577881 1_555
Mn0 Rh0 2.577883 1_564
Mn0 Rh1 2.577883 1_555
Mn0 Rh1 2.577884 1_554
Mn0 Rh1 2.577886 1_545
Mn0 Rh0 2.577888 1_654
Mn0 Rh1 2.577888 1_455
Mn0 Rh0 2.577890 1_554
Rh0 Si0 2.577879 1_445
Rh0 Si0 2.577885 1_545
Rh0 Si0 2.577886 1_455
Rh0 Si0 2.577891 1_446
Rh1 Si0 2.577876 1_545
Rh1 Si0 2.577878 1_455
Rh1 Si0 2.577881 1_554
Rh1 Si0 2.577907 1_555
