# generated using pymatgen
data_SmBO3
_symmetry_space_group_name_H-M   'P 1'
_cell_length_a   6.23856789
_cell_length_b   6.49445647
_cell_length_c   6.49005902
_cell_angle_alpha   93.07748134
_cell_angle_beta   107.55825983
_cell_angle_gamma   107.92843066
_symmetry_Int_Tables_number   1
_chemical_formula_structural   SmBO3
_chemical_formula_sum   'Sm4 B4 O12'
_cell_volume   235.39413174
_cell_formula_units_Z   4
loop_
 _symmetry_equiv_pos_site_id
 _symmetry_equiv_pos_as_xyz
  1  'x, y, z'
loop_
 _atom_site_type_symbol
 _atom_site_label
 _atom_site_symmetry_multiplicity
 _atom_site_fract_x
 _atom_site_fract_y
 _atom_site_fract_z
 _atom_site_occupancy
  Sm  Sm0  1  0.56196146  0.18653114  0.28208977  1
  Sm  Sm1  1  0.43803854  0.81346886  0.71791023  1
  Sm  Sm2  1  0.05847962  0.27123927  0.84571320  1
  Sm  Sm3  1  0.94152038  0.72876073  0.15428680  1
  B  B0  1  0.97719083  0.75971511  0.71330245  1
  B  B1  1  0.02280917  0.24028489  0.28669755  1
  B  B2  1  0.49037792  0.27664928  0.77103796  1
  B  B3  1  0.50962208  0.72335072  0.22896204  1
  O  O0  1  0.45448002  0.47145588  0.76635673  1
  O  O1  1  0.54551998  0.52854412  0.23364327  1
  O  O2  1  0.91041382  0.35341783  0.13660034  1
  O  O3  1  0.08958618  0.64658217  0.86339966  1
  O  O4  1  0.03031759  0.77069737  0.52541407  1
  O  O5  1  0.96968241  0.22930263  0.47458593  1
  O  O6  1  0.84991493  0.87187824  0.78242598  1
  O  O7  1  0.15008507  0.12812176  0.21757402  1
  O  O8  1  0.37820448  0.79674566  0.33449614  1
  O  O9  1  0.62179552  0.20325434  0.66550386  1
  O  O10  1  0.37455386  0.12775328  0.88413300  1
  O  O11  1  0.62544614  0.87224672  0.11586700  1
loop_
_geom_bond_atom_site_label_1
_geom_bond_atom_site_label_2
_geom_bond_distance
_geom_bond_site_symmetry_2
B0 O4 1.356658 1_655
B0 O6 1.377777 1_555
B0 O3 1.400842 1_655
B1 O5 1.356658 1_455
B1 O7 1.377777 1_555
B1 O2 1.400842 1_455
B2 O0 1.351360 1_555
B2 O9 1.383053 1_555
B2 O10 1.400706 1_555
B3 O1 1.351360 1_555
B3 O8 1.383053 1_555
B3 O11 1.400706 1_555
O0 Sm1 2.288854 1_555
O0 Sm2 2.630809 1_555
O1 Sm0 2.288854 1_555
O1 Sm3 2.630809 1_555
O2 Sm3 2.378706 1_555
O2 Sm2 2.439192 1_654
O2 Sm0 2.586439 1_555
O3 Sm2 2.378706 1_555
O3 Sm3 2.439192 1_456
O3 Sm1 2.586439 1_555
O4 Sm3 2.283465 1_455
O4 Sm1 2.391289 1_555
O5 Sm2 2.283465 1_655
O5 Sm0 2.391289 1_555
O6 Sm1 2.378100 1_555
O6 Sm2 2.464574 1_665
O6 Sm3 2.598217 1_556
O7 Sm0 2.378100 1_555
O7 Sm3 2.464574 1_445
O7 Sm2 2.598217 1_554
O8 Sm1 2.393483 1_555
O8 Sm3 2.503229 1_455
O8 Sm0 2.525697 1_565
O9 Sm0 2.393483 1_555
O9 Sm2 2.503229 1_655
O9 Sm1 2.525697 1_545
O10 Sm2 2.382919 1_555
O10 Sm0 2.445561 1_556
O10 Sm1 2.450678 1_545
O11 Sm3 2.382919 1_555
O11 Sm1 2.445561 1_554
O11 Sm0 2.450678 1_565
