# generated using pymatgen
data_La8Ni4O17
_symmetry_space_group_name_H-M   'P 1'
_cell_length_a   6.90271700
_cell_length_b   7.79377320
_cell_length_c   8.68805581
_cell_angle_alpha   116.21446261
_cell_angle_beta   97.33405304
_cell_angle_gamma   106.56720581
_symmetry_Int_Tables_number   1
_chemical_formula_structural   La8Ni4O17
_chemical_formula_sum   'La8 Ni4 O17'
_cell_volume   384.04246631
_cell_formula_units_Z   1
loop_
 _symmetry_equiv_pos_site_id
 _symmetry_equiv_pos_as_xyz
  1  'x, y, z'
loop_
 _atom_site_type_symbol
 _atom_site_label
 _atom_site_symmetry_multiplicity
 _atom_site_fract_x
 _atom_site_fract_y
 _atom_site_fract_z
 _atom_site_occupancy
  La  La0  1  0.71700500  0.91835700  0.17214200  1
  La  La1  1  0.70730100  0.41425900  0.17545300  1
  La  La2  1  0.27981700  0.83553900  0.32672100  1
  La  La3  1  0.27453200  0.34511500  0.31844300  1
  La  La4  1  0.72376200  0.65262600  0.68668700  1
  La  La5  1  0.71307800  0.15897100  0.67831900  1
  La  La6  1  0.28584800  0.08621200  0.82306300  1
  La  La7  1  0.28859800  0.60300100  0.81366900  1
  Ni  Ni0  1  0.99505100  0.25702700  0.49499700  1
  Ni  Ni1  1  0.99270800  0.74981100  0.49904400  1
  Ni  Ni2  1  0.00052100  0.00468900  0.99829700  1
  Ni  Ni3  1  0.00547800  0.48910100  0.00637600  1
  O  O0  1  0.34142800  0.93734800  0.08206300  1
  O  O1  1  0.34290200  0.36926400  0.15457200  1
  O  O2  1  0.96931300  0.63097100  0.23933200  1
  O  O3  1  0.97119900  0.12577900  0.24627200  1
  O  O4  1  0.65773700  0.27892600  0.42504800  1
  O  O5  1  0.65375600  0.79530700  0.41304200  1
  O  O6  1  0.01029600  0.50126600  0.50074400  1
  O  O7  1  0.34368100  0.30912300  0.51862500  1
  O  O8  1  0.34147400  0.70304900  0.58707000  1
  O  O9  1  0.01101700  0.99082900  0.50871300  1
  O  O10  1  0.00966700  0.87693300  0.75285200  1
  O  O11  1  0.66301000  0.10734000  0.91250900  1
  O  O12  1  0.49173800  0.81247500  0.87308800  1
  O  O13  1  0.66453300  0.48690600  0.91223300  1
  O  O14  1  0.98337200  0.37473700  0.74484400  1
  O  O15  1  0.05403700  0.24844600  0.00996600  1
  O  O16  1  0.97499000  0.75310700  0.99278000  1
loop_
_geom_bond_atom_site_label_1
_geom_bond_atom_site_label_2
_geom_bond_distance
_geom_bond_site_symmetry_2
La0 O3 1.811340 1_565
La0 O0 2.675559 1_555
La0 O5 2.694176 1_555
La0 O4 2.884874 1_565
La0 O13 2.987613 1_554
La1 O2 1.898766 1_555
La1 O11 2.368772 1_554
La1 O13 2.589282 1_554
La1 O4 2.817133 1_555
La1 O5 2.936344 1_555
La2 O2 2.068473 1_455
La2 O0 2.618601 1_555
La2 O5 2.738324 1_555
La2 O8 2.903794 1_555
La2 O4 3.340454 1_565
La3 O1 1.625655 1_555
La3 O7 1.904399 1_555
La3 O3 2.091922 1_455
La3 O8 2.584604 1_555
La3 O4 2.948827 1_555
La3 O0 3.137467 1_545
La4 O10 2.033822 1_655
La4 O4 2.643326 1_555
La4 O13 2.795459 1_555
La4 O8 2.859315 1_555
La4 O5 3.077525 1_555
La5 O14 1.928667 1_555
La5 O11 2.290141 1_555
La5 O5 2.615133 1_545
La5 O13 2.616900 1_555
La5 O4 2.769185 1_555
La6 O10 1.928129 1_545
La6 O11 2.556339 1_555
La6 O8 2.952073 1_545
La6 O0 2.982721 1_546
La6 O13 3.142583 1_555
La7 O12 1.631920 1_555
La7 O14 2.136002 1_455
La7 O8 2.448343 1_555
La7 O0 2.496692 1_556
La7 O13 3.121230 1_555
Ni0 O6 1.854050 1_655
Ni0 O3 1.898255 1_555
Ni0 O14 1.971682 1_555
Ni0 O9 2.162437 1_645
Ni0 O7 2.289374 1_655
Ni0 O4 2.403502 1_555
Ni1 O9 1.809436 1_655
Ni1 O10 1.948229 1_655
Ni1 O6 1.981479 1_655
Ni1 O2 1.987605 1_555
Ni1 O5 2.533580 1_555
Ni1 O8 2.605760 1_655
Ni2 O15 1.782131 1_556
Ni2 O16 1.896243 1_445
Ni2 O10 1.933155 1_545
Ni2 O3 1.999282 1_456
Ni2 O0 2.635738 1_546
Ni3 O2 1.921076 1_455
Ni3 O14 2.006319 1_454
Ni3 O15 2.009671 1_555
Ni3 O16 2.178829 1_454
Ni3 O13 2.383532 1_454
