# generated using pymatgen
data_Eu2SiO5
_symmetry_space_group_name_H-M   'P 1'
_cell_length_a   8.17651671
_cell_length_b   8.17651671
_cell_length_c   10.77885064
_cell_angle_alpha   61.24086201
_cell_angle_beta   61.24086201
_cell_angle_gamma   50.45058418
_symmetry_Int_Tables_number   1
_chemical_formula_structural   Eu2SiO5
_chemical_formula_sum   'Eu8 Si4 O20'
_cell_volume   470.55248097
_cell_formula_units_Z   4
loop_
 _symmetry_equiv_pos_site_id
 _symmetry_equiv_pos_as_xyz
  1  'x, y, z'
loop_
 _atom_site_type_symbol
 _atom_site_label
 _atom_site_symmetry_multiplicity
 _atom_site_fract_x
 _atom_site_fract_y
 _atom_site_fract_z
 _atom_site_occupancy
  Eu  Eu0  1  0.76112100  0.52822200  0.16382400  1
  Eu  Eu1  1  0.21381900  0.70858500  0.46693300  1
  Eu  Eu2  1  0.29141500  0.78618100  0.03306700  1
  Eu  Eu3  1  0.52822200  0.76112100  0.66382400  1
  Eu  Eu4  1  0.47177800  0.23887900  0.33617600  1
  Eu  Eu5  1  0.70858500  0.21381900  0.96693300  1
  Eu  Eu6  1  0.78618100  0.29141500  0.53306700  1
  Eu  Eu7  1  0.23887900  0.47177800  0.83617600  1
  Si  Si0  1  0.90726700  0.73182600  0.30598800  1
  Si  Si1  1  0.73182600  0.90726700  0.80598800  1
  Si  Si2  1  0.26817400  0.09273300  0.19401200  1
  Si  Si3  1  0.09273300  0.26817400  0.69401200  1
  O  O0  1  0.73248700  0.86847000  0.43273800  1
  O  O1  1  0.91052800  0.90523300  0.14308100  1
  O  O2  1  0.84837100  0.56295900  0.32401400  1
  O  O3  1  0.86847000  0.73248700  0.93273800  1
  O  O4  1  0.90523300  0.91052800  0.64308100  1
  O  O5  1  0.40075400  0.84008400  0.17961000  1
  O  O6  1  0.56295900  0.84837100  0.82401400  1
  O  O7  1  0.57611000  0.39124400  0.39442100  1
  O  O8  1  0.60875600  0.42389000  0.10557900  1
  O  O9  1  0.15991600  0.59924600  0.32039000  1
  O  O10  1  0.84008400  0.40075400  0.67961000  1
  O  O11  1  0.39124400  0.57611000  0.89442100  1
  O  O12  1  0.42389000  0.60875600  0.60557900  1
  O  O13  1  0.43704100  0.15162900  0.17598600  1
  O  O14  1  0.59924600  0.15991600  0.82039000  1
  O  O15  1  0.09476700  0.08947200  0.35691900  1
  O  O16  1  0.13153000  0.26751300  0.06726200  1
  O  O17  1  0.15162900  0.43704100  0.67598600  1
  O  O18  1  0.08947200  0.09476700  0.85691900  1
  O  O19  1  0.26751300  0.13153000  0.56726200  1
loop_
_geom_bond_atom_site_label_1
_geom_bond_atom_site_label_2
_geom_bond_distance
_geom_bond_site_symmetry_2
Eu0 O8 2.301160 1_555
Eu0 O2 2.342274 1_555
Eu0 O3 2.350360 1_554
Eu0 O5 2.362200 1_555
Eu0 O7 2.362544 1_555
Eu0 O16 2.383275 1_655
Eu1 O12 2.315323 1_555
Eu1 O15 2.397749 1_565
Eu1 O17 2.405572 1_555
Eu1 O4 2.408112 1_455
Eu1 O9 2.453380 1_555
Eu1 O7 2.460445 1_555
Eu1 O5 2.723487 1_555
Eu2 O11 2.315323 1_554
Eu2 O1 2.397749 1_455
Eu2 O6 2.405572 1_554
Eu2 O18 2.408112 1_564
Eu2 O5 2.453380 1_555
Eu2 O8 2.460445 1_555
Eu2 O9 2.723487 1_555
Eu3 O12 2.301160 1_555
Eu3 O6 2.342274 1_555
Eu3 O0 2.350360 1_555
Eu3 O10 2.362200 1_555
Eu3 O11 2.362544 1_555
Eu3 O19 2.383275 1_565
Eu4 O7 2.301160 1_555
Eu4 O13 2.342274 1_555
Eu4 O19 2.350360 1_555
Eu4 O9 2.362200 1_555
Eu4 O8 2.362544 1_555
Eu4 O0 2.383275 1_545
Eu5 O8 2.315323 1_556
Eu5 O18 2.397749 1_655
Eu5 O13 2.405572 1_556
Eu5 O1 2.408112 1_546
Eu5 O14 2.453380 1_555
Eu5 O11 2.460445 1_555
Eu5 O10 2.723487 1_555
Eu6 O7 2.315323 1_555
Eu6 O4 2.397749 1_545
Eu6 O2 2.405572 1_555
Eu6 O15 2.408112 1_655
Eu6 O10 2.453380 1_555
Eu6 O12 2.460445 1_555
Eu6 O14 2.723487 1_555
Eu7 O11 2.301160 1_555
Eu7 O17 2.342274 1_555
Eu7 O16 2.350360 1_556
Eu7 O14 2.362200 1_555
Eu7 O12 2.362544 1_555
Eu7 O3 2.383275 1_455
O0 Si0 1.647381 1_555
O1 Si0 1.643707 1_555
O2 Si0 1.635446 1_555
O3 Si1 1.647381 1_555
O4 Si1 1.643707 1_555
O5 Si2 1.661785 1_565
O6 Si1 1.635446 1_555
O9 Si0 1.661785 1_455
O10 Si3 1.661785 1_655
O13 Si2 1.635446 1_555
O14 Si1 1.661785 1_545
O15 Si2 1.643707 1_555
O16 Si2 1.647381 1_555
O17 Si3 1.635446 1_555
O18 Si3 1.643707 1_555
O19 Si3 1.647381 1_555
