# generated using pymatgen
data_Li6VFe5O12
_symmetry_space_group_name_H-M   'P 1'
_cell_length_a   5.01023660
_cell_length_b   5.01240380
_cell_length_c   10.08182289
_cell_angle_alpha   93.69687976
_cell_angle_beta   86.11937428
_cell_angle_gamma   59.56449757
_symmetry_Int_Tables_number   1
_chemical_formula_structural   Li6VFe5O12
_chemical_formula_sum   'Li6 V1 Fe5 O12'
_cell_volume   216.35811058
_cell_formula_units_Z   1
loop_
 _symmetry_equiv_pos_site_id
 _symmetry_equiv_pos_as_xyz
  1  'x, y, z'
loop_
 _atom_site_type_symbol
 _atom_site_label
 _atom_site_symmetry_multiplicity
 _atom_site_fract_x
 _atom_site_fract_y
 _atom_site_fract_z
 _atom_site_occupancy
  Li  Li0  1  0.29379400  0.03935700  0.23869700  1
  Li  Li1  1  0.95317600  0.71328200  0.24137100  1
  Li  Li2  1  0.38059700  0.62117700  0.75731900  1
  Li  Li3  1  0.61615900  0.38249000  0.24529000  1
  Li  Li4  1  0.71092200  0.95081000  0.75754700  1
  Li  Li5  1  0.04540700  0.28934300  0.75946500  1
  V  V0  1  0.99100300  0.01452700  0.00015000  1
  Fe  Fe0  1  0.50060800  0.50097300  0.50034200  1
  Fe  Fe1  1  0.67074300  0.65799200  0.99998200  1
  Fe  Fe2  1  0.33923800  0.32792500  0.00016900  1
  Fe  Fe3  1  0.83215400  0.83171200  0.49996900  1
  Fe  Fe4  1  0.16730200  0.16801100  0.49949100  1
  O  O0  1  0.13345400  0.84401400  0.60672200  1
  O  O1  1  0.29342100  0.70806500  0.11527000  1
  O  O2  1  0.55455700  0.77847700  0.38879400  1
  O  O3  1  0.19957700  0.48857900  0.39137100  1
  O  O4  1  0.97369900  0.34603100  0.12079100  1
  O  O5  1  0.65353600  0.02838900  0.11813100  1
  O  O6  1  0.34449000  0.97576200  0.88172000  1
  O  O7  1  0.02683900  0.65498400  0.88490100  1
  O  O8  1  0.77842300  0.55411800  0.61143500  1
  O  O9  1  0.48730000  0.19832100  0.60839200  1
  O  O10  1  0.70921000  0.29180200  0.87928300  1
  O  O11  1  0.84439700  0.13385500  0.39340000  1
loop_
_geom_bond_atom_site_label_1
_geom_bond_atom_site_label_2
_geom_bond_distance
_geom_bond_site_symmetry_2
Li0 O1 2.010706 1_545
Li0 O5 2.079324 1_555
Li0 O4 2.084225 1_455
Li0 O2 2.121008 1_545
Li0 O3 2.457637 1_555
Li0 O11 2.464855 1_455
Li1 O3 2.035490 1_655
Li1 O1 2.044551 1_655
Li1 O4 2.092781 1_555
Li1 O5 2.096531 1_565
Li1 O2 2.275725 1_555
Li1 O11 2.323047 1_565
Li2 O6 2.029945 1_555
Li2 O0 2.039111 1_555
Li2 O7 2.045395 1_555
Li2 O10 2.174921 1_555
Li2 O8 2.260464 1_555
Li2 O9 2.316361 1_555
Li3 O11 2.029229 1_555
Li3 O4 2.037706 1_555
Li3 O5 2.041120 1_555
Li3 O1 2.210297 1_555
Li3 O2 2.253141 1_555
Li3 O3 2.273010 1_555
Li4 O9 2.028816 1_565
Li4 O10 2.034927 1_565
Li4 O6 2.095118 1_555
Li4 O7 2.120218 1_655
Li4 O8 2.260871 1_555
Li4 O0 2.321975 1_655
Li5 O10 1.999575 1_455
Li5 O6 2.085365 1_545
Li5 O7 2.116439 1_555
Li5 O8 2.122498 1_455
Li5 O9 2.420802 1_555
Li5 O0 2.452695 1_545
Fe0 O0 1.944549 1_555
Fe0 O3 1.948339 1_555
Fe0 O11 1.948596 1_555
Fe0 O9 1.948895 1_555
Fe0 O8 1.952189 1_555
Fe0 O2 1.952964 1_555
Fe1 O1 2.042571 1_556
Fe1 O10 2.051528 1_555
Fe1 O7 2.054206 1_655
Fe1 O4 2.079349 1_556
Fe1 O5 2.100460 1_566
Fe1 O6 2.121650 1_555
Fe2 O6 2.054140 1_544
Fe2 O5 2.058322 1_555
Fe2 O1 2.065324 1_555
Fe2 O10 2.068784 1_554
Fe2 O4 2.087386 1_455
Fe2 O7 2.092863 1_554
Fe3 O0 1.935628 1_655
Fe3 O11 1.935651 1_565
Fe3 O2 1.952007 1_555
Fe3 O8 1.952325 1_555
Fe3 O3 1.955067 1_655
Fe3 O9 1.955898 1_565
Fe4 O3 2.064331 1_555
Fe4 O9 2.064582 1_555
Fe4 O11 2.069284 1_455
Fe4 O0 2.077380 1_545
Fe4 O2 2.100031 1_545
Fe4 O8 2.101382 1_455
O1 V0 2.027889 1_465
O4 V0 1.956280 1_555
O5 V0 1.968888 1_555
O6 V0 1.983736 1_466
O7 V0 2.001008 1_466
O10 V0 1.968012 1_556
