# generated using pymatgen
data_Li7Ni2P7O24
_symmetry_space_group_name_H-M   'P 1'
_cell_length_a   5.06777000
_cell_length_b   12.21751500
_cell_length_c   15.11314657
_cell_angle_alpha   82.90865406
_cell_angle_beta   90.00000000
_cell_angle_gamma   90.00000000
_symmetry_Int_Tables_number   1
_chemical_formula_structural   Li7Ni2P7O24
_chemical_formula_sum   'Li14 Ni4 P14 O48'
_cell_volume   928.58102761
_cell_formula_units_Z   2
loop_
 _symmetry_equiv_pos_site_id
 _symmetry_equiv_pos_as_xyz
  1  'x, y, z'
loop_
 _atom_site_type_symbol
 _atom_site_label
 _atom_site_symmetry_multiplicity
 _atom_site_fract_x
 _atom_site_fract_y
 _atom_site_fract_z
 _atom_site_occupancy
  Li  Li0  1  0.27251400  0.48066600  0.05799500  1
  Li  Li1  1  0.17417100  0.11250600  0.13618200  1
  Li  Li2  1  0.72748600  0.98066600  0.05799500  1
  Li  Li3  1  0.82582900  0.61250600  0.13618200  1
  Li  Li4  1  0.84301700  0.44128900  0.40717700  1
  Li  Li5  1  0.15698300  0.94128900  0.40717700  1
  Li  Li6  1  0.29843200  0.25000000  0.50000000  1
  Li  Li7  1  0.70156800  0.75000000  0.50000000  1
  Li  Li8  1  0.84301700  0.05871100  0.59282300  1
  Li  Li9  1  0.15698300  0.55871100  0.59282300  1
  Li  Li10  1  0.17417100  0.38749400  0.86381800  1
  Li  Li11  1  0.27251400  0.01933400  0.94200500  1
  Li  Li12  1  0.82582900  0.88749400  0.86381800  1
  Li  Li13  1  0.72748600  0.51933400  0.94200500  1
  Ni  Ni0  1  0.36195000  0.29122100  0.28401500  1
  Ni  Ni1  1  0.63805000  0.79122100  0.28401500  1
  Ni  Ni2  1  0.36195000  0.20877900  0.71598500  1
  Ni  Ni3  1  0.63805000  0.70877900  0.71598500  1
  P  P0  1  0.55641000  0.25000000  0.00000000  1
  P  P1  1  0.44359000  0.75000000  0.00000000  1
  P  P2  1  0.86534500  0.34391400  0.13853200  1
  P  P3  1  0.13465500  0.84391400  0.13853200  1
  P  P4  1  0.62040100  0.05021500  0.27264300  1
  P  P5  1  0.37959900  0.55021500  0.27264300  1
  P  P6  1  0.85382700  0.19415200  0.39314600  1
  P  P7  1  0.14617300  0.69415200  0.39314600  1
  P  P8  1  0.85382700  0.30584800  0.60685400  1
  P  P9  1  0.14617300  0.80584800  0.60685400  1
  P  P10  1  0.62040100  0.44978500  0.72735700  1
  P  P11  1  0.37959900  0.94978500  0.72735700  1
  P  P12  1  0.86534500  0.15608600  0.86146800  1
  P  P13  1  0.13465500  0.65608600  0.86146800  1
  O  O0  1  0.40844100  0.14172200  0.01547800  1
  O  O1  1  0.59155900  0.64172200  0.01547800  1
  O  O2  1  0.75979500  0.24692300  0.08175800  1
  O  O3  1  0.86874600  0.45279700  0.07671800  1
  O  O4  1  0.24020500  0.74692300  0.08175800  1
  O  O5  1  0.13125400  0.95279700  0.07671800  1
  O  O6  1  0.13512400  0.29741400  0.16828000  1
  O  O7  1  0.74249800  0.01595900  0.18841000  1
  O  O8  1  0.67650200  0.34898700  0.21596300  1
  O  O9  1  0.86487600  0.79741400  0.16828000  1
  O  O10  1  0.25750200  0.51595900  0.18841000  1
  O  O11  1  0.39324500  0.13285700  0.24780900  1
  O  O12  1  0.32349800  0.84898700  0.21596300  1
  O  O13  1  0.60675500  0.63285700  0.24780900  1
  O  O14  1  0.86301200  0.11490900  0.31437000  1
  O  O15  1  0.13698800  0.61490900  0.31437000  1
  O  O16  1  0.03735100  0.29235900  0.36086800  1
  O  O17  1  0.46736100  0.45813900  0.34436000  1
  O  O18  1  0.56680900  0.23264600  0.40113300  1
  O  O19  1  0.96264900  0.79235900  0.36086800  1
  O  O20  1  0.53263900  0.95813900  0.34436000  1
  O  O21  1  0.43319100  0.73264600  0.40113300  1
  O  O22  1  0.96762500  0.12582400  0.47507700  1
  O  O23  1  0.03237500  0.62582400  0.47507700  1
  O  O24  1  0.96762500  0.37417600  0.52492300  1
  O  O25  1  0.03237500  0.87417600  0.52492300  1
  O  O26  1  0.56680900  0.26735400  0.59886700  1
  O  O27  1  0.46736100  0.04186100  0.65564000  1
  O  O28  1  0.03735100  0.20764100  0.63913200  1
  O  O29  1  0.43319100  0.76735400  0.59886700  1
  O  O30  1  0.53263900  0.54186100  0.65564000  1
  O  O31  1  0.96264900  0.70764100  0.63913200  1
  O  O32  1  0.86301200  0.38509100  0.68563000  1
  O  O33  1  0.13698800  0.88509100  0.68563000  1
  O  O34  1  0.39324500  0.36714300  0.75219100  1
  O  O35  1  0.67650200  0.15101300  0.78403700  1
  O  O36  1  0.60675500  0.86714300  0.75219100  1
  O  O37  1  0.74249800  0.48404100  0.81159000  1
  O  O38  1  0.13512400  0.20258600  0.83172000  1
  O  O39  1  0.32349800  0.65101300  0.78403700  1
  O  O40  1  0.25750200  0.98404100  0.81159000  1
  O  O41  1  0.86487600  0.70258600  0.83172000  1
  O  O42  1  0.86874600  0.04720300  0.92328200  1
  O  O43  1  0.75979500  0.25307700  0.91824200  1
  O  O44  1  0.13125400  0.54720300  0.92328200  1
  O  O45  1  0.24020500  0.75307700  0.91824200  1
  O  O46  1  0.40844100  0.35827800  0.98452200  1
  O  O47  1  0.59155900  0.85827800  0.98452200  1
loop_
_geom_bond_atom_site_label_1
_geom_bond_atom_site_label_2
_geom_bond_distance
_geom_bond_site_symmetry_2
Li0 O10 2.070342 1_555
Li0 O46 2.086461 1_554
Li0 O3 2.087861 1_455
Li0 O44 2.215787 1_554
Li0 O1 2.566469 1_555
Li1 O11 2.060111 1_555
Li1 O0 2.168851 1_555
Li1 O5 2.257270 1_545
Li1 O6 2.376693 1_555
Li1 O7 2.563242 1_455
Li2 O7 2.070342 1_565
Li2 O47 2.086461 1_554
Li2 O5 2.087861 1_655
Li2 O42 2.215787 1_564
Li2 O0 2.566469 1_565
Li3 O13 2.060111 1_555
Li3 O1 2.168851 1_555
Li3 O3 2.257270 1_555
Li3 O9 2.376693 1_555
Li3 O10 2.563242 1_655
Li4 O24 1.969137 1_555
Li4 O17 2.125943 1_555
Li4 O16 2.254980 1_655
Li5 O25 1.969137 1_555
Li5 O20 2.125943 1_555
Li5 O19 2.254980 1_455
Li6 O18 2.050751 1_555
Li6 O26 2.050751 1_555
Li6 O24 2.322741 1_455
Li6 O22 2.322741 1_455
Li6 O16 2.484186 1_555
Li6 O28 2.484186 1_555
Li7 O21 2.050751 1_555
Li7 O29 2.050751 1_555
Li7 O23 2.322741 1_655
Li7 O25 2.322741 1_655
Li7 O19 2.484186 1_555
Li7 O31 2.484186 1_555
Li8 O22 1.969137 1_555
Li8 O27 2.125943 1_555
Li8 O28 2.254980 1_655
Li9 O23 1.969137 1_555
Li9 O30 2.125943 1_555
Li9 O31 2.254980 1_455
Li10 O34 2.060111 1_555
Li10 O46 2.168851 1_555
Li10 O44 2.257270 1_555
Li10 O38 2.376693 1_555
Li10 O37 2.563242 1_455
Li11 O40 2.070342 1_545
Li11 O0 2.086461 1_556
Li11 O42 2.087861 1_455
Li11 O5 2.215787 1_546
Li11 O47 2.566469 1_545
Li12 O36 2.060111 1_555
Li12 O47 2.168851 1_555
Li12 O42 2.257270 1_565
Li12 O41 2.376693 1_555
Li12 O40 2.563242 1_655
Li13 O37 2.070342 1_555
Li13 O1 2.086461 1_556
Li13 O44 2.087861 1_655
Li13 O3 2.215787 1_556
Li13 O46 2.566469 1_555
Ni0 O8 1.979325 1_555
Ni0 O16 2.014756 1_555
Ni0 O11 2.080738 1_555
Ni0 O6 2.086582 1_555
Ni0 O18 2.100043 1_555
Ni0 O17 2.394820 1_555
Ni1 O12 1.979325 1_555
Ni1 O19 2.014756 1_555
Ni1 O13 2.080738 1_555
Ni1 O9 2.086582 1_555
Ni1 O21 2.100043 1_555
Ni1 O20 2.394820 1_555
Ni2 O35 1.979325 1_555
Ni2 O28 2.014756 1_555
Ni2 O34 2.080738 1_555
Ni2 O38 2.086582 1_555
Ni2 O26 2.100043 1_555
Ni2 O27 2.394820 1_555
Ni3 O39 1.979325 1_555
Ni3 O31 2.014756 1_555
Ni3 O36 2.080738 1_555
Ni3 O41 2.086582 1_555
Ni3 O29 2.100043 1_555
Ni3 O30 2.394820 1_555
O0 P0 1.513492 1_555
O1 P1 1.513492 1_555
O2 P0 1.605946 1_555
O2 P2 1.636332 1_555
O3 P2 1.528345 1_555
O4 P1 1.605946 1_555
O4 P3 1.636332 1_555
O5 P3 1.528345 1_555
O6 P2 1.526759 1_455
O7 P4 1.519923 1_555
O8 P2 1.518898 1_555
O9 P3 1.526759 1_655
O10 P5 1.519923 1_555
O11 P4 1.546595 1_555
O12 P3 1.518898 1_555
O13 P5 1.546595 1_555
O14 P6 1.625267 1_555
O14 P4 1.630077 1_555
O15 P7 1.625267 1_555
O15 P5 1.630077 1_555
O16 P6 1.548577 1_455
O17 P5 1.528734 1_555
O18 P6 1.538005 1_555
O19 P7 1.548577 1_655
O20 P4 1.528734 1_565
O21 P7 1.538005 1_555
O22 P6 1.519040 1_555
O23 P7 1.519040 1_555
O24 P8 1.519040 1_555
O25 P9 1.519040 1_555
O26 P8 1.538005 1_555
O27 P11 1.528734 1_545
O28 P8 1.548577 1_455
O29 P9 1.538005 1_555
O30 P10 1.528734 1_555
O31 P9 1.548577 1_655
O32 P8 1.625267 1_555
O32 P10 1.630077 1_555
O33 P9 1.625267 1_555
O33 P11 1.630077 1_555
O34 P10 1.546595 1_555
O35 P12 1.518898 1_555
O36 P11 1.546595 1_555
O37 P10 1.519923 1_555
O38 P12 1.526759 1_455
O39 P13 1.518898 1_555
O40 P11 1.519923 1_555
O41 P13 1.526759 1_655
O42 P12 1.528345 1_555
O43 P0 1.605946 1_556
O43 P12 1.636332 1_555
O44 P13 1.528345 1_555
O45 P1 1.605946 1_556
O45 P13 1.636332 1_555
O46 P0 1.513492 1_556
O47 P1 1.513492 1_556
