# generated using pymatgen
data_Li5Cr4O8
_symmetry_space_group_name_H-M   'P 1'
_cell_length_a   8.38194600
_cell_length_b   8.54712200
_cell_length_c   8.88131000
_cell_angle_alpha   90.00000000
_cell_angle_beta   90.00000000
_cell_angle_gamma   90.00000000
_symmetry_Int_Tables_number   1
_chemical_formula_structural   Li5Cr4O8
_chemical_formula_sum   'Li20 Cr16 O32'
_cell_volume   636.27050411
_cell_formula_units_Z   4
loop_
 _symmetry_equiv_pos_site_id
 _symmetry_equiv_pos_as_xyz
  1  'x, y, z'
loop_
 _atom_site_type_symbol
 _atom_site_label
 _atom_site_symmetry_multiplicity
 _atom_site_fract_x
 _atom_site_fract_y
 _atom_site_fract_z
 _atom_site_occupancy
  Li  Li0  1  0.43844500  0.05627100  0.45539900  1
  Li  Li1  1  0.86685100  0.12455500  0.90103700  1
  Li  Li2  1  0.11322200  0.14426500  0.12515800  1
  Li  Li3  1  0.62476100  0.11255100  0.64635200  1
  Li  Li4  1  0.31339200  0.19797500  0.29436600  1
  Li  Li5  1  0.81339200  0.30202500  0.70563400  1
  Li  Li6  1  0.12476100  0.38744900  0.35364800  1
  Li  Li7  1  0.61322200  0.35573500  0.87484200  1
  Li  Li8  1  0.36685100  0.37544500  0.09896300  1
  Li  Li9  1  0.93844500  0.44372900  0.54460100  1
  Li  Li10  1  0.56155500  0.55627100  0.04460100  1
  Li  Li11  1  0.13314900  0.62455500  0.59896300  1
  Li  Li12  1  0.88677800  0.64426500  0.37484200  1
  Li  Li13  1  0.37523900  0.61255100  0.85364800  1
  Li  Li14  1  0.68660800  0.69797500  0.20563400  1
  Li  Li15  1  0.18660800  0.80202500  0.79436600  1
  Li  Li16  1  0.87523900  0.88744900  0.14635200  1
  Li  Li17  1  0.38677800  0.85573500  0.62515800  1
  Li  Li18  1  0.63314900  0.87544500  0.40103700  1
  Li  Li19  1  0.06155500  0.94372900  0.95539900  1
  Cr  Cr0  1  0.87527900  0.12354200  0.36945100  1
  Cr  Cr1  1  0.12436400  0.12715800  0.62360200  1
  Cr  Cr2  1  0.62436400  0.37284200  0.37639800  1
  Cr  Cr3  1  0.37527900  0.37645800  0.63054900  1
  Cr  Cr4  1  0.12472100  0.62354200  0.13054900  1
  Cr  Cr5  1  0.87563600  0.62715800  0.87639800  1
  Cr  Cr6  1  0.37563600  0.87284200  0.12360200  1
  Cr  Cr7  1  0.62472100  0.87645800  0.86945100  1
  Cr  Cr8  1  0.62345200  0.12401300  0.12015500  1
  Cr  Cr9  1  0.37157700  0.12390700  0.87397200  1
  Cr  Cr10  1  0.87157700  0.37609300  0.12602800  1
  Cr  Cr11  1  0.12345200  0.37598700  0.87984500  1
  Cr  Cr12  1  0.37654800  0.62401300  0.37984500  1
  Cr  Cr13  1  0.62842300  0.62390700  0.62602800  1
  Cr  Cr14  1  0.12842300  0.87609300  0.37397200  1
  Cr  Cr15  1  0.87654800  0.87598700  0.62015500  1
  O  O0  1  0.87460600  0.11566100  0.60258400  1
  O  O1  1  0.11702800  0.11228800  0.35710800  1
  O  O2  1  0.61999800  0.11601300  0.88212400  1
  O  O3  1  0.38295100  0.12290200  0.10473000  1
  O  O4  1  0.86717400  0.13061900  0.13334300  1
  O  O5  1  0.37435800  0.13985800  0.64321000  1
  O  O6  1  0.62926900  0.12387300  0.35397500  1
  O  O7  1  0.13131900  0.14020200  0.89124900  1
  O  O8  1  0.63131900  0.35979800  0.10875100  1
  O  O9  1  0.12926900  0.37612700  0.64602500  1
  O  O10  1  0.87435800  0.36014200  0.35679000  1
  O  O11  1  0.36717400  0.36938100  0.86665700  1
  O  O12  1  0.88295100  0.37709800  0.89527000  1
  O  O13  1  0.11999800  0.38398700  0.11787600  1
  O  O14  1  0.61702800  0.38771200  0.64289200  1
  O  O15  1  0.37460600  0.38433900  0.39741600  1
  O  O16  1  0.12539400  0.61566100  0.89741600  1
  O  O17  1  0.88297200  0.61228800  0.14289200  1
  O  O18  1  0.38000200  0.61601300  0.61787600  1
  O  O19  1  0.61704900  0.62290200  0.39527000  1
  O  O20  1  0.13282600  0.63061900  0.36665700  1
  O  O21  1  0.62564200  0.63985800  0.85679000  1
  O  O22  1  0.37073100  0.62387300  0.14602500  1
  O  O23  1  0.86868100  0.64020200  0.60875100  1
  O  O24  1  0.36868100  0.85979800  0.39124900  1
  O  O25  1  0.87073100  0.87612700  0.85397500  1
  O  O26  1  0.12564200  0.86014200  0.14321000  1
  O  O27  1  0.63282600  0.86938100  0.63334300  1
  O  O28  1  0.11704900  0.87709800  0.60473000  1
  O  O29  1  0.88000200  0.88398700  0.38212400  1
  O  O30  1  0.38297200  0.88771200  0.85710800  1
  O  O31  1  0.62539400  0.88433900  0.10258400  1
loop_
_geom_bond_atom_site_label_1
_geom_bond_atom_site_label_2
_geom_bond_distance
_geom_bond_site_symmetry_2
Li0 O24 1.867222 1_545
Li0 O5 1.892409 1_555
Li0 O6 1.924469 1_555
Li1 O4 2.063834 1_556
Li1 O2 2.077199 1_555
Li1 O12 2.163337 1_555
Li1 O25 2.164336 1_545
Li1 O7 2.222488 1_655
Li2 O13 2.050740 1_555
Li2 O4 2.066935 1_455
Li2 O1 2.078316 1_555
Li2 O7 2.083238 1_554
Li2 O3 2.275460 1_555
Li2 O26 2.435946 1_545
Li3 O27 2.082710 1_545
Li3 O2 2.094554 1_555
Li3 O5 2.111986 1_555
Li3 O0 2.130124 1_555
Li3 O14 2.352928 1_555
Li4 O1 1.885712 1_555
Li4 O3 1.894266 1_555
Li4 O15 1.907392 1_555
Li5 O14 1.885712 1_555
Li5 O12 1.894266 1_555
Li5 O0 1.907392 1_555
Li6 O20 2.082710 1_555
Li6 O13 2.094554 1_555
Li6 O10 2.111986 1_455
Li6 O15 2.130124 1_555
Li6 O1 2.352928 1_555
Li7 O2 2.050740 1_555
Li7 O11 2.066935 1_555
Li7 O14 2.078316 1_555
Li7 O8 2.083238 1_556
Li7 O12 2.275460 1_555
Li7 O21 2.435946 1_555
Li8 O11 2.063834 1_554
Li8 O13 2.077199 1_555
Li8 O3 2.163337 1_555
Li8 O22 2.164336 1_555
Li8 O8 2.222488 1_555
Li9 O23 1.867222 1_555
Li9 O10 1.892409 1_555
Li9 O9 1.924469 1_655
Li10 O8 1.867222 1_555
Li10 O21 1.892409 1_554
Li10 O22 1.924469 1_555
Li11 O20 2.063834 1_555
Li11 O18 2.077199 1_555
Li11 O28 2.163337 1_555
Li11 O9 2.164336 1_555
Li11 O23 2.222488 1_455
Li12 O29 2.050740 1_555
Li12 O20 2.066935 1_655
Li12 O17 2.078316 1_555
Li12 O23 2.083238 1_555
Li12 O19 2.275460 1_555
Li12 O10 2.435946 1_555
Li13 O11 2.082710 1_555
Li13 O18 2.094554 1_555
Li13 O21 2.111986 1_555
Li13 O16 2.130124 1_555
Li13 O30 2.352928 1_555
Li14 O17 1.885712 1_555
Li14 O19 1.894266 1_555
Li14 O31 1.907392 1_555
Li15 O30 1.885712 1_555
Li15 O28 1.894266 1_555
Li15 O16 1.907392 1_555
Li16 O4 2.082710 1_565
Li16 O29 2.094554 1_555
Li16 O26 2.111986 1_655
Li16 O31 2.130124 1_555
Li16 O17 2.352928 1_555
Li17 O18 2.050740 1_555
Li17 O27 2.066935 1_555
Li17 O30 2.078316 1_555
Li17 O24 2.083238 1_555
Li17 O28 2.275460 1_555
Li17 O5 2.435946 1_565
Li18 O27 2.063834 1_555
Li18 O29 2.077199 1_555
Li18 O19 2.163337 1_555
Li18 O6 2.164336 1_565
Li18 O24 2.222488 1_555
Li19 O7 1.867222 1_565
Li19 O26 1.892409 1_556
Li19 O25 1.924469 1_455
Cr0 O10 2.025388 1_555
Cr0 O1 2.031569 1_655
Cr0 O29 2.050979 1_545
Cr0 O6 2.066620 1_555
Cr0 O0 2.071630 1_555
Cr0 O4 2.098920 1_555
Cr1 O0 2.104060 1_455
Cr1 O5 2.105460 1_555
Cr1 O9 2.137662 1_555
Cr1 O28 2.144732 1_545
Cr1 O1 2.371023 1_555
Cr1 O7 2.380383 1_555
Cr2 O15 2.104060 1_555
Cr2 O10 2.105460 1_555
Cr2 O6 2.137662 1_555
Cr2 O19 2.144732 1_555
Cr2 O14 2.371023 1_555
Cr2 O8 2.380383 1_555
Cr3 O5 2.025388 1_555
Cr3 O14 2.031569 1_555
Cr3 O18 2.050979 1_555
Cr3 O9 2.066620 1_555
Cr3 O15 2.071630 1_555
Cr3 O11 2.098920 1_555
Cr4 O26 2.025388 1_555
Cr4 O17 2.031569 1_455
Cr4 O13 2.050979 1_555
Cr4 O22 2.066620 1_555
Cr4 O16 2.071630 1_554
Cr4 O20 2.098920 1_555
Cr5 O16 2.104060 1_655
Cr5 O21 2.105460 1_555
Cr5 O25 2.137662 1_555
Cr5 O12 2.144732 1_555
Cr5 O17 2.371023 1_556
Cr5 O23 2.380383 1_555
Cr6 O31 2.104060 1_555
Cr6 O26 2.105460 1_555
Cr6 O22 2.137662 1_555
Cr6 O3 2.144732 1_565
Cr6 O30 2.371023 1_554
Cr6 O24 2.380383 1_555
Cr7 O21 2.025388 1_555
Cr7 O30 2.031569 1_555
Cr7 O2 2.050979 1_565
Cr7 O25 2.066620 1_555
Cr7 O31 2.071630 1_556
Cr7 O27 2.098920 1_555
Cr8 O8 2.018904 1_555
Cr8 O3 2.020538 1_555
Cr8 O4 2.046998 1_555
Cr8 O31 2.054523 1_545
Cr8 O6 2.077201 1_555
Cr8 O2 2.115331 1_554
Cr9 O7 2.024463 1_555
Cr9 O30 2.026588 1_545
Cr9 O3 2.051668 1_556
Cr9 O5 2.054131 1_555
Cr9 O2 2.084602 1_555
Cr9 O11 2.099426 1_555
Cr10 O8 2.024463 1_555
Cr10 O17 2.026588 1_555
Cr10 O12 2.051668 1_554
Cr10 O10 2.054131 1_555
Cr10 O13 2.084602 1_655
Cr10 O4 2.099426 1_555
Cr11 O7 2.018904 1_555
Cr11 O12 2.020538 1_455
Cr11 O11 2.046998 1_555
Cr11 O16 2.054523 1_555
Cr11 O9 2.077201 1_555
Cr11 O13 2.115331 1_556
Cr12 O24 2.018904 1_555
Cr12 O19 2.020538 1_555
Cr12 O20 2.046998 1_555
Cr12 O15 2.054523 1_555
Cr12 O22 2.077201 1_555
Cr12 O18 2.115331 1_555
Cr13 O23 2.024463 1_555
Cr13 O14 2.026588 1_555
Cr13 O19 2.051668 1_555
Cr13 O21 2.054131 1_555
Cr13 O18 2.084602 1_555
Cr13 O27 2.099426 1_555
Cr14 O24 2.024463 1_555
Cr14 O1 2.026588 1_565
Cr14 O28 2.051668 1_555
Cr14 O26 2.054131 1_555
Cr14 O29 2.084602 1_455
Cr14 O20 2.099426 1_555
Cr15 O23 2.018904 1_555
Cr15 O28 2.020538 1_655
Cr15 O27 2.046998 1_555
Cr15 O0 2.054523 1_565
Cr15 O25 2.077201 1_555
Cr15 O29 2.115331 1_555
