# generated using pymatgen
data_LiV2P4(HO8)2
_symmetry_space_group_name_H-M   'P 1'
_cell_length_a   7.73354700
_cell_length_b   7.88881046
_cell_length_c   9.74663591
_cell_angle_alpha   90.04667436
_cell_angle_beta   112.96657213
_cell_angle_gamma   90.06094315
_symmetry_Int_Tables_number   1
_chemical_formula_structural   LiV2P4(HO8)2
_chemical_formula_sum   'Li2 V4 P8 H4 O32'
_cell_volume   547.49216634
_cell_formula_units_Z   2
loop_
 _symmetry_equiv_pos_site_id
 _symmetry_equiv_pos_as_xyz
  1  'x, y, z'
loop_
 _atom_site_type_symbol
 _atom_site_label
 _atom_site_symmetry_multiplicity
 _atom_site_fract_x
 _atom_site_fract_y
 _atom_site_fract_z
 _atom_site_occupancy
  Li  Li0  1  0.84975200  0.86894700  0.72665400  1
  Li  Li1  1  0.35278700  0.63208400  0.22186700  1
  V  V0  1  0.00510000  0.49353100  0.75402700  1
  V  V1  1  0.48543100  0.00399800  0.74596300  1
  V  V2  1  0.99161800  0.49636800  0.24887300  1
  V  V3  1  0.50000800  0.00747400  0.25192400  1
  P  P0  1  0.23214900  0.84585000  0.93122000  1
  P  P1  1  0.73169300  0.64910300  0.92894600  1
  P  P2  1  0.27128900  0.35705200  0.56829900  1
  P  P3  1  0.22548600  0.85484700  0.42666100  1
  P  P4  1  0.76206500  0.15562400  0.56883400  1
  P  P5  1  0.73749100  0.65752500  0.43250600  1
  P  P6  1  0.26727500  0.34811600  0.06967200  1
  P  P7  1  0.76528800  0.14792000  0.06814800  1
  H  H0  1  0.50635700  0.50963200  0.99160500  1
  H  H1  1  0.51020900  0.50097100  0.49463300  1
  H  H2  1  0.98759200  0.00545200  0.51052100  1
  H  H3  1  0.99365400  0.01143700  0.01166800  1
  O  O0  1  0.05413700  0.94424900  0.90417700  1
  O  O1  1  0.13631000  0.32757000  0.90314500  1
  O  O2  1  0.18594100  0.67091100  0.85740800  1
  O  O3  1  0.35354700  0.94436700  0.85722100  1
  O  O4  1  0.55100700  0.55275400  0.90521500  1
  O  O5  1  0.63828600  0.16336100  0.90029100  1
  O  O6  1  0.68387900  0.82658700  0.85399600  1
  O  O7  1  0.85015900  0.55687700  0.85576300  1
  O  O8  1  0.15668400  0.44261400  0.64731300  1
  O  O9  1  0.32443900  0.17347200  0.63942000  1
  O  O10  1  0.35894200  0.84109200  0.59857000  1
  O  O11  1  0.45042000  0.44824300  0.58845400  1
  O  O12  1  0.65372100  0.05164900  0.64787700  1
  O  O13  1  0.81627000  0.33066800  0.63967700  1
  O  O14  1  0.04983900  0.94848500  0.40968800  1
  O  O15  1  0.13686200  0.33748900  0.40053600  1
  O  O16  1  0.86021300  0.67514600  0.60020300  1
  O  O17  1  0.93936300  0.04757500  0.59708400  1
  O  O18  1  0.18424000  0.67409300  0.35387500  1
  O  O19  1  0.34797700  0.94428600  0.35449300  1
  O  O20  1  0.55579100  0.55775500  0.40448600  1
  O  O21  1  0.63591100  0.17441000  0.40250200  1
  O  O22  1  0.68357700  0.82939100  0.35620000  1
  O  O23  1  0.85526100  0.55696200  0.35898400  1
  O  O24  1  0.15144000  0.44832100  0.14781900  1
  O  O25  1  0.31469000  0.17128700  0.13895400  1
  O  O26  1  0.35958600  0.82798400  0.09859700  1
  O  O27  1  0.43919100  0.45631000  0.09578600  1
  O  O28  1  0.65273100  0.05893000  0.14666500  1
  O  O29  1  0.82140500  0.32909600  0.13977700  1
  O  O30  1  0.85843200  0.66247800  0.09971800  1
  O  O31  1  0.94836300  0.05341300  0.09592100  1
loop_
_geom_bond_atom_site_label_1
_geom_bond_atom_site_label_2
_geom_bond_distance
_geom_bond_site_symmetry_2
Li0 O0 1.925380 1_655
Li0 O16 1.984426 1_555
Li0 O12 2.015752 1_565
Li0 O6 2.130711 1_555
Li0 O17 2.178222 1_565
Li1 O20 1.949263 1_555
Li1 O26 1.971486 1_555
Li1 O24 2.040479 1_555
Li1 O27 2.125890 1_555
Li1 O18 2.184783 1_555
H0 O4 1.082153 1_555
H0 O27 1.374648 1_556
H1 O20 1.157123 1_555
H1 O11 1.246271 1_555
H2 O17 1.098520 1_555
H2 O14 1.329851 1_645
H3 O31 1.063458 1_555
H3 O0 1.406911 1_644
O0 P0 1.512177 1_555
O1 P6 1.550101 1_556
O1 V0 1.926431 1_555
O2 P0 1.531841 1_555
O2 V0 1.955281 1_555
O3 P0 1.591666 1_555
O3 V1 1.816695 1_565
O4 P1 1.526112 1_555
O5 P7 1.550073 1_556
O5 V1 1.961275 1_555
O6 P1 1.556512 1_555
O6 V1 2.041739 1_565
O7 P1 1.545320 1_555
O7 V0 1.896429 1_655
O8 P2 1.538606 1_555
O8 V0 1.889244 1_555
O9 P2 1.589773 1_555
O9 V1 1.847362 1_555
O10 P3 1.592296 1_555
O10 V1 1.889417 1_565
O11 P2 1.503494 1_555
O12 P4 1.572157 1_555
O12 V1 1.928634 1_555
O13 P4 1.526656 1_555
O13 V0 1.936223 1_655
O14 P3 1.498393 1_555
O15 P2 1.565536 1_555
O15 V2 1.930795 1_455
O16 P5 1.542846 1_555
O16 V0 2.062022 1_655
O17 P4 1.546169 1_555
O18 P3 1.568152 1_555
O18 V2 2.008892 1_455
O19 P3 1.552199 1_555
O19 V3 1.883367 1_565
O20 P5 1.538318 1_555
O21 P4 1.538963 1_555
O21 V3 1.944998 1_555
O22 P5 1.525145 1_555
O22 V3 1.975490 1_565
O23 P5 1.575539 1_555
O23 V2 1.837314 1_555
O24 P6 1.593898 1_555
O24 V2 1.895218 1_455
O25 P6 1.531593 1_555
O25 V3 1.926430 1_555
O26 P0 1.548703 1_554
O26 V3 2.035770 1_565
O27 P6 1.514615 1_555
O28 P7 1.534804 1_555
O28 V3 1.886140 1_555
O29 P7 1.574531 1_555
O29 V2 1.872543 1_555
O30 P1 1.571172 1_554
O30 V2 1.931045 1_555
O31 P7 1.528774 1_555
