# generated using pymatgen
data_LuInAg2
_symmetry_space_group_name_H-M   'P 1'
_cell_length_a   4.84844155
_cell_length_b   4.84844094
_cell_length_c   4.84844230
_cell_angle_alpha   59.99994428
_cell_angle_beta   59.99993535
_cell_angle_gamma   59.99995036
_symmetry_Int_Tables_number   1
_chemical_formula_structural   LuInAg2
_chemical_formula_sum   'Lu1 In1 Ag2'
_cell_volume   80.59181749
_cell_formula_units_Z   1
loop_
 _symmetry_equiv_pos_site_id
 _symmetry_equiv_pos_as_xyz
  1  'x, y, z'
loop_
 _atom_site_type_symbol
 _atom_site_label
 _atom_site_symmetry_multiplicity
 _atom_site_fract_x
 _atom_site_fract_y
 _atom_site_fract_z
 _atom_site_occupancy
  Lu  Lu0  1  0.75000057  0.75000054  0.75000060  1
  In  In0  1  0.25000008  0.25000009  0.25000008  1
  Ag  Ag0  1  0.49999920  0.49999918  0.49999914  1
  Ag  Ag1  1  0.00000014  0.00000019  0.00000019  1
loop_
_geom_bond_atom_site_label_1
_geom_bond_atom_site_label_2
_geom_bond_distance
_geom_bond_site_symmetry_2
In0 Lu0 3.428361 1_445
In0 Lu0 3.428361 1_544
In0 Lu0 3.428362 1_454
In0 Lu0 3.428367 1_554
In0 Lu0 3.428368 1_455
In0 Lu0 3.428369 1_545
Ag0 In0 2.969042 1_555
Ag0 Lu0 2.969044 1_554
Ag0 Lu0 2.969044 1_545
Ag0 Lu0 2.969044 1_455
Ag0 In0 2.969053 1_655
Ag0 In0 2.969053 1_565
Ag0 In0 2.969054 1_556
Ag0 Lu0 2.969070 1_555
Ag1 Lu0 2.969049 1_444
Ag1 In0 2.969050 1_455
Ag1 In0 2.969050 1_545
Ag1 In0 2.969051 1_554
Ag1 Lu0 2.969051 1_454
Ag1 Lu0 2.969052 1_544
Ag1 Lu0 2.969052 1_445
Ag1 In0 2.969052 1_555
