# generated using pymatgen
data_ScTc2Mo
_symmetry_space_group_name_H-M   'P 1'
_cell_length_a   4.45547837
_cell_length_b   4.45547837
_cell_length_c   4.45547837
_cell_angle_alpha   60.00000000
_cell_angle_beta   60.00000000
_cell_angle_gamma   60.00000000
_symmetry_Int_Tables_number   1
_chemical_formula_structural   ScTc2Mo
_chemical_formula_sum   'Sc1 Tc2 Mo1'
_cell_volume   62.54146088
_cell_formula_units_Z   1
loop_
 _symmetry_equiv_pos_site_id
 _symmetry_equiv_pos_as_xyz
  1  'x, y, z'
loop_
 _atom_site_type_symbol
 _atom_site_label
 _atom_site_symmetry_multiplicity
 _atom_site_fract_x
 _atom_site_fract_y
 _atom_site_fract_z
 _atom_site_occupancy
  Sc  Sc0  1  0.74999900  0.74999900  0.74999900  1
  Tc  Tc0  1  -0.00000000  -0.00000000  0.00000000  1
  Tc  Tc1  1  0.50000000  0.50000000  0.50000000  1
  Mo  Mo0  1  0.25000000  0.25000000  0.25000000  1
loop_
_geom_bond_atom_site_label_1
_geom_bond_atom_site_label_2
_geom_bond_distance
_geom_bond_site_symmetry_2
Sc0 Tc1 2.728401 1_555
Sc0 Tc0 2.728409 1_566
Sc0 Tc0 2.728409 1_656
Sc0 Tc0 2.728409 1_665
Sc0 Tc1 2.728416 1_655
Sc0 Tc1 2.728416 1_556
Sc0 Tc1 2.728416 1_565
Sc0 Tc0 2.728423 1_666
Mo0 Tc1 2.728412 1_455
Mo0 Tc0 2.728412 1_655
Mo0 Tc1 2.728412 1_555
Mo0 Tc1 2.728412 1_545
Mo0 Tc0 2.728412 1_555
Mo0 Tc0 2.728412 1_556
Mo0 Tc1 2.728412 1_554
Mo0 Tc0 2.728412 1_565
