# generated using pymatgen
data_LuInNi2
_symmetry_space_group_name_H-M   'P 1'
_cell_length_a   4.51043900
_cell_length_b   4.51043900
_cell_length_c   4.51043900
_cell_angle_alpha   60.00000000
_cell_angle_beta   60.00000000
_cell_angle_gamma   60.00000000
_symmetry_Int_Tables_number   1
_chemical_formula_structural   LuInNi2
_chemical_formula_sum   'Lu1 In1 Ni2'
_cell_volume   64.88457168
_cell_formula_units_Z   1
loop_
 _symmetry_equiv_pos_site_id
 _symmetry_equiv_pos_as_xyz
  1  'x, y, z'
loop_
 _atom_site_type_symbol
 _atom_site_label
 _atom_site_symmetry_multiplicity
 _atom_site_fract_x
 _atom_site_fract_y
 _atom_site_fract_z
 _atom_site_occupancy
  Lu  Lu0  1  0.00000000  0.00000000  0.00000000  1
  In  In0  1  0.50000000  0.50000000  0.50000000  1
  Ni  Ni0  1  0.25000000  0.25000000  0.25000000  1
  Ni  Ni1  1  0.75000000  0.75000000  0.75000000  1
loop_
_geom_bond_atom_site_label_1
_geom_bond_atom_site_label_2
_geom_bond_distance
_geom_bond_site_symmetry_2
Lu0 Ni1 2.762069 1_445
Lu0 Ni0 2.762069 1_554
Lu0 Ni0 2.762069 1_555
Lu0 Ni1 2.762069 1_444
Lu0 Ni1 2.762069 1_454
Lu0 Ni0 2.762069 1_545
Lu0 Ni1 2.762069 1_544
Lu0 Ni0 2.762069 1_455
In0 Ni1 2.762069 1_545
In0 Ni0 2.762069 1_556
In0 Ni1 2.762069 1_554
In0 Ni0 2.762069 1_555
In0 Ni0 2.762069 1_565
In0 Ni1 2.762069 1_555
In0 Ni1 2.762069 1_455
In0 Ni0 2.762069 1_655
In0 Lu0 3.189362 1_655
In0 Lu0 3.189362 1_665
In0 Lu0 3.189362 1_656
In0 Lu0 3.189362 1_556
In0 Lu0 3.189362 1_566
In0 Lu0 3.189362 1_565
