# generated using pymatgen
data_Li2Mn3(BO3)3
_symmetry_space_group_name_H-M   'P 1'
_cell_length_a   8.89120431
_cell_length_b   8.89120431
_cell_length_c   14.31392780
_cell_angle_alpha   89.39127760
_cell_angle_beta   89.39127760
_cell_angle_gamma   41.82834587
_symmetry_Int_Tables_number   1
_chemical_formula_structural   Li2Mn3(BO3)3
_chemical_formula_sum   'Li8 Mn12 B12 O36'
_cell_volume   754.59410694
_cell_formula_units_Z   4
loop_
 _symmetry_equiv_pos_site_id
 _symmetry_equiv_pos_as_xyz
  1  'x, y, z'
loop_
 _atom_site_type_symbol
 _atom_site_label
 _atom_site_symmetry_multiplicity
 _atom_site_fract_x
 _atom_site_fract_y
 _atom_site_fract_z
 _atom_site_occupancy
  Li  Li0  1  0.66947400  0.66947400  0.14099500  1
  Li  Li1  1  0.68559800  0.68559800  0.85074300  1
  Li  Li2  1  0.14587100  0.14587100  0.51267000  1
  Li  Li3  1  0.16952400  0.16952400  0.14007600  1
  Li  Li4  1  0.92000100  0.92000100  0.63994300  1
  Li  Li5  1  0.39435500  0.39435500  0.00925100  1
  Li  Li6  1  0.41898200  0.41898200  0.64087400  1
  Li  Li7  1  0.43530200  0.43530200  0.35047300  1
  Mn  Mn0  1  0.34413000  0.84314100  0.32472200  1
  Mn  Mn1  1  0.34035500  0.84188300  0.68576900  1
  Mn  Mn2  1  0.09293100  0.59365000  0.82418100  1
  Mn  Mn3  1  0.08767700  0.59531200  0.18513700  1
  Mn  Mn4  1  0.06086600  0.57173600  0.48938200  1
  Mn  Mn5  1  0.31245800  0.82057500  0.98992200  1
  Mn  Mn6  1  0.82057500  0.31245800  0.98992200  1
  Mn  Mn7  1  0.57173600  0.06086600  0.48938200  1
  Mn  Mn8  1  0.59531200  0.08767700  0.18513700  1
  Mn  Mn9  1  0.59365000  0.09293100  0.82418100  1
  Mn  Mn10  1  0.84188300  0.34035500  0.68576900  1
  Mn  Mn11  1  0.84314100  0.34413000  0.32472200  1
  B  B0  1  0.74689200  0.74689200  0.32886400  1
  B  B1  1  0.50050800  0.50050800  0.16417800  1
  B  B2  1  0.50031000  0.50031000  0.83210000  1
  B  B3  1  0.24951800  0.74769200  0.50324800  1
  B  B4  1  0.49853300  0.99785700  0.00317200  1
  B  B5  1  0.75310000  0.75310000  0.66639100  1
  B  B6  1  0.99680400  0.99680400  0.83042500  1
  B  B7  1  0.00468400  0.00468400  0.16773300  1
  B  B8  1  0.99785700  0.49853300  0.00317200  1
  B  B9  1  0.74769200  0.24951800  0.50324800  1
  B  B10  1  0.25211700  0.25211700  0.66415100  1
  B  B11  1  0.25072400  0.25072400  0.33288000  1
  O  O0  1  0.97793500  0.51075300  0.90745200  1
  O  O1  1  0.51039100  0.51039100  0.73542000  1
  O  O2  1  0.50647900  0.50647900  0.06707800  1
  O  O3  1  0.56839700  0.56839700  0.88916300  1
  O  O4  1  0.56820300  0.56820300  0.21916800  1
  O  O5  1  0.66918700  0.66918700  0.36446800  1
  O  O6  1  0.67598200  0.67598200  0.70582300  1
  O  O7  1  0.09248200  0.55031400  0.04669900  1
  O  O8  1  0.26291100  0.72683000  0.40747500  1
  O  O9  1  0.51075300  0.97793500  0.90745200  1
  O  O10  1  0.43164200  0.92285300  0.05693700  1
  O  O11  1  0.17963400  0.67512700  0.55660500  1
  O  O12  1  0.30360100  0.84007800  0.54674300  1
  O  O13  1  0.76045400  0.76045400  0.23204800  1
  O  O14  1  0.81178500  0.81178500  0.38881400  1
  O  O15  1  0.81898100  0.81898100  0.72508100  1
  O  O16  1  0.06807500  0.06807500  0.23108800  1
  O  O17  1  0.76657100  0.76657100  0.57116900  1
  O  O18  1  0.91973400  0.91973400  0.86740800  1
  O  O19  1  0.92554100  0.92554100  0.19626000  1
  O  O20  1  0.00965200  0.00965200  0.73361500  1
  O  O21  1  0.17499500  0.17499500  0.37511300  1
  O  O22  1  0.02524200  0.02524200  0.07371100  1
  O  O23  1  0.06216600  0.06216600  0.88974100  1
  O  O24  1  0.17372100  0.17372100  0.69627800  1
  O  O25  1  0.84007800  0.30360100  0.54674300  1
  O  O26  1  0.67512700  0.17963400  0.55660500  1
  O  O27  1  0.92285300  0.43164200  0.05693700  1
  O  O28  1  0.72683000  0.26291100  0.40747500  1
  O  O29  1  0.55031400  0.09248200  0.04669900  1
  O  O30  1  0.26428300  0.26428300  0.56726100  1
  O  O31  1  0.31771100  0.31771100  0.72354900  1
  O  O32  1  0.31944900  0.31944900  0.38906200  1
  O  O33  1  0.42384000  0.42384000  0.87243600  1
  O  O34  1  0.25978100  0.25978100  0.23630800  1
  O  O35  1  0.42456900  0.42456900  0.20692400  1
loop_
_geom_bond_atom_site_label_1
_geom_bond_atom_site_label_2
_geom_bond_distance
_geom_bond_site_symmetry_2
Li0 O10 1.972678 1_555
Li0 O27 1.972678 1_555
Li0 O13 2.006826 1_555
Li0 O4 2.009737 1_555
Li1 O0 1.956473 1_555
Li1 O9 1.956473 1_555
Li1 O3 2.016963 1_555
Li1 O6 2.082326 1_555
Li2 O12 1.975041 1_545
Li2 O25 1.975041 1_455
Li2 O21 2.022191 1_555
Li2 O30 2.124700 1_555
Li3 O10 2.009203 1_545
Li3 O27 2.009203 1_455
Li3 O34 2.047462 1_555
Li3 O16 2.118238 1_555
Li4 O26 1.999672 1_565
Li4 O11 1.999672 1_655
Li4 O20 2.015156 1_665
Li4 O15 2.062617 1_555
Li5 O29 1.962833 1_555
Li5 O7 1.962833 1_555
Li5 O33 2.013264 1_554
Li5 O2 2.046708 1_555
Li6 O26 1.985898 1_555
Li6 O11 1.985898 1_555
Li6 O1 2.045411 1_555
Li6 O31 2.045714 1_555
Li7 O28 1.957347 1_555
Li7 O8 1.957347 1_555
Li7 O32 1.996070 1_555
Li7 O35 2.064489 1_555
Mn0 O8 2.015628 1_555
Mn0 O5 2.103165 1_555
Mn0 O16 2.125535 1_565
Mn0 O21 2.212964 1_565
Mn0 O4 2.232536 1_555
Mn1 O12 2.022249 1_555
Mn1 O24 2.100706 1_565
Mn1 O6 2.147674 1_555
Mn1 O20 2.186829 1_565
Mn1 O1 2.194400 1_555
Mn2 O0 2.021854 1_455
Mn2 O18 2.127026 1_455
Mn2 O15 2.167811 1_455
Mn2 O31 2.189739 1_555
Mn2 O33 2.194078 1_555
Mn3 O7 2.019449 1_555
Mn3 O19 2.102740 1_455
Mn3 O35 2.146428 1_555
Mn3 O13 2.164373 1_455
Mn3 O34 2.225333 1_555
Mn4 O11 2.091202 1_555
Mn4 O17 2.107362 1_455
Mn4 O14 2.119053 1_455
Mn4 O30 2.143933 1_555
Mn4 O32 2.166131 1_555
Mn5 O22 2.080161 1_566
Mn5 O10 2.084783 1_556
Mn5 O23 2.121596 1_565
Mn5 O3 2.163533 1_555
Mn5 O2 2.188613 1_556
Mn6 O22 2.080161 1_656
Mn6 O27 2.084783 1_556
Mn6 O23 2.121596 1_655
Mn6 O3 2.163533 1_555
Mn6 O2 2.188613 1_556
Mn7 O26 2.091202 1_555
Mn7 O17 2.107362 1_545
Mn7 O14 2.119053 1_545
Mn7 O30 2.143933 1_555
Mn7 O32 2.166131 1_555
Mn8 O29 2.019449 1_555
Mn8 O19 2.102740 1_545
Mn8 O35 2.146428 1_555
Mn8 O13 2.164373 1_545
Mn8 O34 2.225333 1_555
Mn9 O9 2.021854 1_545
Mn9 O18 2.127026 1_545
Mn9 O15 2.167811 1_545
Mn9 O31 2.189739 1_555
Mn9 O33 2.194078 1_555
Mn10 O25 2.022249 1_555
Mn10 O24 2.100706 1_655
Mn10 O6 2.147674 1_555
Mn10 O20 2.186829 1_655
Mn10 O1 2.194400 1_555
Mn11 O28 2.015628 1_555
Mn11 O5 2.103165 1_555
Mn11 O16 2.125535 1_655
Mn11 O21 2.212964 1_655
Mn11 O4 2.232536 1_555
B0 O5 1.382312 1_555
B0 O14 1.385401 1_555
B0 O13 1.401477 1_555
B1 O4 1.379902 1_555
B1 O2 1.392291 1_555
B1 O35 1.395699 1_555
B2 O33 1.389301 1_555
B2 O1 1.392073 1_555
B2 O3 1.402601 1_555
B3 O8 1.377293 1_555
B3 O12 1.378208 1_555
B3 O11 1.400911 1_555
B4 O9 1.376135 1_554
B4 O29 1.379301 1_565
B4 O10 1.400412 1_555
B5 O17 1.378733 1_555
B5 O15 1.387166 1_555
B5 O6 1.393943 1_555
B6 O18 1.379755 1_555
B6 O23 1.385867 1_665
B6 O20 1.399668 1_665
B7 O19 1.372145 1_445
B7 O22 1.384703 1_555
B7 O16 1.397453 1_555
B8 O0 1.376135 1_554
B8 O7 1.379301 1_655
B8 O27 1.400412 1_555
B9 O28 1.377293 1_555
B9 O25 1.378208 1_555
B9 O26 1.400911 1_555
B10 O24 1.376095 1_555
B10 O31 1.389644 1_555
B10 O30 1.399246 1_555
B11 O34 1.388785 1_555
B11 O21 1.389430 1_555
B11 O32 1.403852 1_555
