# generated using pymatgen
data_BeFe2Si
_symmetry_space_group_name_H-M   'P 1'
_cell_length_a   3.77990598
_cell_length_b   3.77990598
_cell_length_c   3.77990598
_cell_angle_alpha   60.00000000
_cell_angle_beta   60.00000000
_cell_angle_gamma   60.00000000
_symmetry_Int_Tables_number   1
_chemical_formula_structural   BeFe2Si
_chemical_formula_sum   'Be1 Fe2 Si1'
_cell_volume   38.18809500
_cell_formula_units_Z   1
loop_
 _symmetry_equiv_pos_site_id
 _symmetry_equiv_pos_as_xyz
  1  'x, y, z'
loop_
 _atom_site_type_symbol
 _atom_site_label
 _atom_site_symmetry_multiplicity
 _atom_site_fract_x
 _atom_site_fract_y
 _atom_site_fract_z
 _atom_site_occupancy
  Be  Be0  1  0.25000000  0.25000000  0.25000000  1
  Fe  Fe0  1  0.50000000  0.50000000  0.50000000  1
  Fe  Fe1  1  -0.00000000  -0.00000000  0.00000000  1
  Si  Si0  1  0.75000000  0.75000000  0.75000000  1
loop_
_geom_bond_atom_site_label_1
_geom_bond_atom_site_label_2
_geom_bond_distance
_geom_bond_site_symmetry_2
Be0 Fe1 2.314710 1_565
Be0 Fe0 2.314710 1_545
Be0 Fe1 2.314710 1_655
Be0 Fe0 2.314710 1_455
Be0 Fe1 2.314710 1_555
Be0 Fe1 2.314710 1_556
Be0 Fe0 2.314710 1_555
Be0 Fe0 2.314710 1_554
Be0 Si0 2.672797 1_554
Be0 Si0 2.672797 1_455
Be0 Si0 2.672797 1_445
Be0 Si0 2.672797 1_545
Be0 Si0 2.672797 1_454
Be0 Si0 2.672797 1_544
Fe0 Si0 2.314710 1_455
Fe0 Si0 2.314710 1_545
Fe0 Si0 2.314710 1_554
Fe0 Si0 2.314710 1_555
Fe1 Si0 2.314710 1_544
Fe1 Si0 2.314710 1_454
Fe1 Si0 2.314710 1_444
Fe1 Si0 2.314710 1_445
