# generated using pymatgen
data_Ti2TcRu
_symmetry_space_group_name_H-M   'P 1'
_cell_length_a   4.35478449
_cell_length_b   4.35478449
_cell_length_c   4.35478449
_cell_angle_alpha   60.00000000
_cell_angle_beta   60.00000000
_cell_angle_gamma   60.00000000
_symmetry_Int_Tables_number   1
_chemical_formula_structural   Ti2TcRu
_chemical_formula_sum   'Ti2 Tc1 Ru1'
_cell_volume   58.39625591
_cell_formula_units_Z   1
loop_
 _symmetry_equiv_pos_site_id
 _symmetry_equiv_pos_as_xyz
  1  'x, y, z'
loop_
 _atom_site_type_symbol
 _atom_site_label
 _atom_site_symmetry_multiplicity
 _atom_site_fract_x
 _atom_site_fract_y
 _atom_site_fract_z
 _atom_site_occupancy
  Ti  Ti0  1  0.50000000  0.50000000  0.50000000  1
  Ti  Ti1  1  0.00000000  -0.00000000  -0.00000000  1
  Tc  Tc0  1  0.75000100  0.75000100  0.75000100  1
  Ru  Ru0  1  0.25000000  0.25000000  0.25000000  1
loop_
_geom_bond_atom_site_label_1
_geom_bond_atom_site_label_2
_geom_bond_distance
_geom_bond_site_symmetry_2
Tc0 Ti1 2.666739 1_666
Tc0 Ti0 2.666746 1_556
Tc0 Ti0 2.666746 1_655
Tc0 Ti0 2.666746 1_565
Tc0 Ti1 2.666754 1_566
Tc0 Ti1 2.666754 1_665
Tc0 Ti1 2.666754 1_656
Tc0 Ti0 2.666761 1_555
Ru0 Ti0 2.666750 1_555
Ru0 Ti0 2.666750 1_545
Ru0 Ti0 2.666750 1_554
Ru0 Ti1 2.666750 1_555
Ru0 Ti1 2.666750 1_556
Ru0 Ti1 2.666750 1_565
Ru0 Ti1 2.666750 1_655
Ru0 Ti0 2.666750 1_455
