# generated using pymatgen
data_K2Mn3H10S4O21
_symmetry_space_group_name_H-M   'P 1'
_cell_length_a   10.03478415
_cell_length_b   9.94089923
_cell_length_c   19.40432356
_cell_angle_alpha   90.00000000
_cell_angle_beta   103.74134417
_cell_angle_gamma   90.00000000
_symmetry_Int_Tables_number   1
_chemical_formula_structural   K2Mn3H10S4O21
_chemical_formula_sum   'K8 Mn12 H40 S16 O84'
_cell_volume   1880.27106310
_cell_formula_units_Z   4
loop_
 _symmetry_equiv_pos_site_id
 _symmetry_equiv_pos_as_xyz
  1  'x, y, z'
loop_
 _atom_site_type_symbol
 _atom_site_label
 _atom_site_symmetry_multiplicity
 _atom_site_fract_x
 _atom_site_fract_y
 _atom_site_fract_z
 _atom_site_occupancy
  K  K0  1  0.29011661  0.98993970  0.76061245  1
  K  K1  1  0.13710373  0.14917684  0.38069881  1
  K  K2  1  0.36289627  0.64917684  0.61930119  1
  K  K3  1  0.20988339  0.48993970  0.23938755  1
  K  K4  1  0.79011661  0.51006030  0.76061245  1
  K  K5  1  0.63710373  0.35082316  0.38069881  1
  K  K6  1  0.86289627  0.85082316  0.61930119  1
  K  K7  1  0.70988339  0.01006030  0.23938755  1
  Mn  Mn0  1  0.19559135  0.34365943  0.82017074  1
  Mn  Mn1  1  0.05878610  0.78577567  0.44299539  1
  Mn  Mn2  1  0.03320816  0.13275043  0.16194972  1
  Mn  Mn3  1  0.46679184  0.63275043  0.83805028  1
  Mn  Mn4  1  0.44121390  0.28577567  0.55700461  1
  Mn  Mn5  1  0.30440865  0.84365943  0.17982926  1
  Mn  Mn6  1  0.69559135  0.15634057  0.82017074  1
  Mn  Mn7  1  0.55878610  0.71422433  0.44299539  1
  Mn  Mn8  1  0.53320816  0.36724957  0.16194972  1
  Mn  Mn9  1  0.96679184  0.86724957  0.83805028  1
  Mn  Mn10  1  0.94121390  0.21422433  0.55700461  1
  Mn  Mn11  1  0.80440865  0.65634057  0.17982926  1
  H  H0  1  0.07898255  0.46472691  0.91949632  1
  H  H1  1  0.05504210  0.42563632  0.64598715  1
  H  H2  1  0.04800901  0.67349502  0.58251520  1
  H  H3  1  0.08405582  0.36425970  0.47810748  1
  H  H4  1  0.18029757  0.35383922  0.62643165  1
  H  H5  1  0.30489918  0.51649454  0.92955316  1
  H  H6  1  0.02111939  0.65217649  0.11401403  1
  H  H7  1  0.39538413  0.82504845  0.91119991  1
  H  H8  1  0.43065902  0.42290170  0.91870984  1
  H  H9  1  0.02253181  0.23951020  0.02608163  1
  H  H10  1  0.47746819  0.73951020  0.97391837  1
  H  H11  1  0.06934098  0.92290170  0.08129016  1
  H  H12  1  0.10461587  0.32504845  0.08880009  1
  H  H13  1  0.47888061  0.15217649  0.88598597  1
  H  H14  1  0.57898255  0.03527309  0.91949632  1
  H  H15  1  0.19510082  0.01649454  0.07044684  1
  H  H16  1  0.31970243  0.85383922  0.37356835  1
  H  H17  1  0.41594418  0.86425970  0.52189252  1
  H  H18  1  0.55504210  0.07436368  0.64598715  1
  H  H19  1  0.45199099  0.17349502  0.41748480  1
  H  H20  1  0.54800901  0.82650498  0.58251520  1
  H  H21  1  0.44495790  0.92563632  0.35401285  1
  H  H22  1  0.58405582  0.13574030  0.47810748  1
  H  H23  1  0.68029757  0.14616078  0.62643165  1
  H  H24  1  0.80489918  0.98350546  0.92955316  1
  H  H25  1  0.42101745  0.96472691  0.08050368  1
  H  H26  1  0.52111939  0.84782351  0.11401403  1
  H  H27  1  0.89538413  0.67495155  0.91119991  1
  H  H28  1  0.93065902  0.07709830  0.91870984  1
  H  H29  1  0.52253181  0.26048980  0.02608163  1
  H  H30  1  0.97746819  0.76048980  0.97391837  1
  H  H31  1  0.56934098  0.57709830  0.08129016  1
  H  H32  1  0.60461587  0.17495155  0.08880009  1
  H  H33  1  0.97888061  0.34782351  0.88598597  1
  H  H34  1  0.69510082  0.48350546  0.07044684  1
  H  H35  1  0.81970243  0.64616078  0.37356835  1
  H  H36  1  0.91594418  0.63574030  0.52189252  1
  H  H37  1  0.95199099  0.32650498  0.41748480  1
  H  H38  1  0.94495790  0.57436368  0.35401285  1
  H  H39  1  0.92101745  0.53527309  0.08050368  1
  S  S0  1  0.19883718  0.08614305  0.93701861  1
  S  S1  1  0.13108228  0.65861258  0.74897275  1
  S  S2  1  0.05541710  0.85834064  0.26886573  1
  S  S3  1  0.22234414  0.02390134  0.56555433  1
  S  S4  1  0.27765586  0.52390134  0.43444567  1
  S  S5  1  0.44458290  0.35834064  0.73113427  1
  S  S6  1  0.36891772  0.15861258  0.25102725  1
  S  S7  1  0.69883718  0.41385695  0.93701861  1
  S  S8  1  0.30116282  0.58614305  0.06298139  1
  S  S9  1  0.63108228  0.84138742  0.74897275  1
  S  S10  1  0.55541710  0.64165936  0.26886573  1
  S  S11  1  0.72234414  0.47609866  0.56555433  1
  S  S12  1  0.77765586  0.97609866  0.43444567  1
  S  S13  1  0.94458290  0.14165936  0.73113427  1
  S  S14  1  0.86891772  0.34138742  0.25102725  1
  S  S15  1  0.80116282  0.91385695  0.06298139  1
  O  O0  1  0.03820052  0.41852992  0.87437593  1
  O  O1  1  0.07202552  0.15318592  0.94912024  1
  O  O2  1  0.00379916  0.70484625  0.76954443  1
  O  O3  1  0.08479390  0.19936896  0.74398155  1
  O  O4  1  0.21144941  0.54601938  0.99406290  1
  O  O5  1  0.15899632  0.96417431  0.89097460  1
  O  O6  1  0.13019393  0.50795275  0.74576399  1
  O  O7  1  0.00656200  0.30165100  0.46501630  1
  O  O8  1  0.08264039  0.37606371  0.60777074  1
  O  O9  1  0.08667464  0.04654202  0.58353731  1
  O  O10  1  0.13422267  0.71335068  0.67818414  1
  O  O11  1  0.27253949  0.18152594  0.89907610  1
  O  O12  1  0.25236149  0.70807076  0.80352198  1
  O  O13  1  0.04545651  0.00513202  0.25236616  1
  O  O14  1  0.34995550  0.47936716  0.89284867  1
  O  O15  1  0.12781178  0.84411875  0.34538169  1
  O  O16  1  0.20755060  0.91886856  0.50812734  1
  O  O17  1  0.02027432  0.27309465  0.07376663  1
  O  O18  1  0.17445438  0.47792622  0.37188993  1
  O  O19  1  0.36703653  0.28621172  0.77626942  1
  O  O20  1  0.26477404  0.15163296  0.53590693  1
  O  O21  1  0.23522596  0.65163296  0.46409307  1
  O  O22  1  0.13296347  0.78621172  0.22373058  1
  O  O23  1  0.32554562  0.97792622  0.62811007  1
  O  O24  1  0.47972568  0.77309565  0.92623337  1
  O  O25  1  0.29244940  0.41886856  0.49187266  1
  O  O26  1  0.37218822  0.34411875  0.65461831  1
  O  O27  1  0.15004450  0.97936716  0.10715133  1
  O  O28  1  0.45454349  0.50513202  0.74763384  1
  O  O29  1  0.53820052  0.08147008  0.87437593  1
  O  O30  1  0.57202552  0.34681408  0.94912024  1
  O  O31  1  0.50379916  0.79515375  0.76954443  1
  O  O32  1  0.24763851  0.20807076  0.19647802  1
  O  O33  1  0.22746051  0.68152594  0.10092390  1
  O  O34  1  0.36577733  0.21335068  0.32181586  1
  O  O35  1  0.41332536  0.54654202  0.41646269  1
  O  O36  1  0.41735961  0.87606371  0.39222926  1
  O  O37  1  0.58479390  0.30063104  0.74398155  1
  O  O38  1  0.71144941  0.95398062  0.99406290  1
  O  O39  1  0.65899632  0.53582569  0.89097460  1
  O  O40  1  0.49343800  0.80165100  0.53498370  1
  O  O41  1  0.36980607  0.00795275  0.25423601  1
  O  O42  1  0.63019393  0.99204725  0.74576399  1
  O  O43  1  0.50656200  0.19834900  0.46501630  1
  O  O44  1  0.34100368  0.46417431  0.10902540  1
  O  O45  1  0.28855059  0.04601938  0.00593710  1
  O  O46  1  0.41520610  0.69936896  0.25601845  1
  O  O47  1  0.58264039  0.12393629  0.60777074  1
  O  O48  1  0.58667464  0.45345798  0.58353731  1
  O  O49  1  0.63422267  0.78664932  0.67818414  1
  O  O50  1  0.77253949  0.31847406  0.89907610  1
  O  O51  1  0.75236149  0.79192924  0.80352198  1
  O  O52  1  0.49620084  0.20484625  0.23045557  1
  O  O53  1  0.42797448  0.65318592  0.05087976  1
  O  O54  1  0.46179948  0.91852992  0.12562407  1
  O  O55  1  0.54545651  0.49486798  0.25236616  1
  O  O56  1  0.84995550  0.02063284  0.89284867  1
  O  O57  1  0.62781178  0.65588125  0.34538169  1
  O  O58  1  0.70755060  0.58113144  0.50812734  1
  O  O59  1  0.52027432  0.22690435  0.07376663  1
  O  O60  1  0.67445438  0.02207378  0.37188993  1
  O  O61  1  0.86703653  0.21378828  0.77626942  1
  O  O62  1  0.76477404  0.34836704  0.53590693  1
  O  O63  1  0.73522596  0.84836704  0.46409307  1
  O  O64  1  0.63296347  0.71378828  0.22373058  1
  O  O65  1  0.82554562  0.52207378  0.62811007  1
  O  O66  1  0.97972568  0.72690435  0.92623337  1
  O  O67  1  0.79244940  0.08113144  0.49187266  1
  O  O68  1  0.87218822  0.15588125  0.65461831  1
  O  O69  1  0.65004450  0.52063284  0.10715133  1
  O  O70  1  0.95454349  0.99486798  0.74763384  1
  O  O71  1  0.74763851  0.29192924  0.19647802  1
  O  O72  1  0.72746051  0.81847406  0.10092390  1
  O  O73  1  0.86577733  0.28664932  0.32181586  1
  O  O74  1  0.91332536  0.95345798  0.41646269  1
  O  O75  1  0.91735961  0.62393629  0.39222926  1
  O  O76  1  0.99343800  0.69834900  0.53498370  1
  O  O77  1  0.86980607  0.49204725  0.25423601  1
  O  O78  1  0.84100368  0.03582569  0.10902540  1
  O  O79  1  0.78855059  0.45398062  0.00593710  1
  O  O80  1  0.91520610  0.80063104  0.25601845  1
  O  O81  1  0.99620084  0.29515375  0.23045557  1
  O  O82  1  0.92797448  0.84681408  0.05087976  1
  O  O83  1  0.96179948  0.58147008  0.12562407  1
loop_
_geom_bond_atom_site_label_1
_geom_bond_atom_site_label_2
_geom_bond_distance
_geom_bond_site_symmetry_2
K0 O23 2.680593 1_555
K0 O31 2.863698 1_555
K0 O3 2.892707 1_565
K0 O12 2.972886 1_555
K0 O19 3.041537 1_565
K0 O29 3.047562 1_565
K0 O5 3.126801 1_555
K1 O7 2.776426 1_555
K1 O13 2.830080 1_555
K1 O34 2.867695 1_555
K1 O20 2.979808 1_555
K1 O73 3.017991 1_455
K1 O15 3.105535 1_545
K1 O74 3.170168 1_445
K1 O81 3.262829 1_455
K1 O18 3.298542 1_555
K1 O16 3.320400 1_545
K2 O40 2.776426 1_555
K2 O28 2.830080 1_555
K2 O10 2.867695 1_555
K2 O21 2.979808 1_555
K2 O49 3.017991 1_555
K2 O26 3.105535 1_555
K2 O48 3.170168 1_555
K2 O31 3.262829 1_555
K2 O23 3.298542 1_555
K2 O25 3.320400 1_555
K3 O18 2.680593 1_555
K3 O81 2.863698 1_455
K3 O46 2.892707 1_555
K3 O32 2.972886 1_555
K3 O22 3.041537 1_555
K3 O83 3.047562 1_455
K3 O44 3.126801 1_555
K4 O65 2.680593 1_555
K4 O2 2.863698 1_655
K4 O37 2.892707 1_555
K4 O51 2.972886 1_555
K4 O61 3.041537 1_555
K4 O0 3.047562 1_655
K4 O39 3.126801 1_555
K5 O43 2.776426 1_555
K5 O55 2.830080 1_555
K5 O73 2.867695 1_555
K5 O62 2.979808 1_555
K5 O34 3.017991 1_555
K5 O57 3.105535 1_555
K5 O35 3.170168 1_555
K5 O52 3.262829 1_555
K5 O60 3.298542 1_555
K5 O58 3.320400 1_555
K6 O76 2.776426 1_555
K6 O70 2.830080 1_555
K6 O49 2.867695 1_555
K6 O63 2.979808 1_555
K6 O10 3.017991 1_655
K6 O68 3.105535 1_565
K6 O9 3.170168 1_665
K6 O2 3.262829 1_655
K6 O65 3.298542 1_555
K6 O67 3.320400 1_565
K7 O60 2.680593 1_555
K7 O52 2.863698 1_555
K7 O80 2.892707 1_545
K7 O71 2.972886 1_555
K7 O64 3.041537 1_545
K7 O54 3.047562 1_545
K7 O78 3.126801 1_555
Mn0 O3 2.167572 1_555
Mn0 O19 2.169774 1_555
Mn0 O6 2.175440 1_555
Mn0 O0 2.223494 1_555
Mn0 O11 2.230828 1_555
Mn0 O14 2.273856 1_555
Mn1 O16 2.163325 1_555
Mn1 O21 2.176295 1_555
Mn1 O74 2.194828 1_455
Mn1 O75 2.215544 1_455
Mn1 O76 2.219808 1_455
Mn1 O15 2.242135 1_555
Mn2 O13 2.144826 1_555
Mn2 O81 2.178508 1_455
Mn2 O78 2.182204 1_455
Mn2 O17 2.187636 1_555
Mn2 O32 2.225915 1_555
Mn2 O27 2.328611 1_545
Mn3 O28 2.144826 1_555
Mn3 O31 2.178508 1_555
Mn3 O39 2.182204 1_555
Mn3 O24 2.187642 1_555
Mn3 O12 2.225915 1_555
Mn3 O14 2.328611 1_555
Mn4 O25 2.163325 1_555
Mn4 O20 2.176295 1_555
Mn4 O48 2.194828 1_555
Mn4 O47 2.215544 1_555
Mn4 O43 2.219808 1_555
Mn4 O26 2.242135 1_555
Mn5 O46 2.167572 1_555
Mn5 O22 2.169774 1_555
Mn5 O41 2.175440 1_565
Mn5 O54 2.223494 1_555
Mn5 O33 2.230828 1_555
Mn5 O27 2.273856 1_555
Mn6 O37 2.167572 1_555
Mn6 O61 2.169774 1_555
Mn6 O42 2.175440 1_545
Mn6 O29 2.223494 1_555
Mn6 O50 2.230828 1_555
Mn6 O56 2.273856 1_555
Mn7 O58 2.163325 1_555
Mn7 O63 2.176295 1_555
Mn7 O35 2.194828 1_555
Mn7 O36 2.215544 1_555
Mn7 O40 2.219808 1_555
Mn7 O57 2.242135 1_555
Mn8 O55 2.144826 1_555
Mn8 O52 2.178508 1_555
Mn8 O44 2.182204 1_555
Mn8 O59 2.187642 1_555
Mn8 O71 2.225915 1_555
Mn8 O69 2.328611 1_555
Mn9 O70 2.144826 1_555
Mn9 O2 2.178508 1_655
Mn9 O5 2.182204 1_655
Mn9 O66 2.187642 1_555
Mn9 O51 2.225915 1_555
Mn9 O56 2.328611 1_565
Mn10 O67 2.163325 1_555
Mn10 O62 2.176295 1_555
Mn10 O9 2.194828 1_655
Mn10 O8 2.215544 1_655
Mn10 O7 2.219808 1_655
Mn10 O68 2.242135 1_555
Mn11 O80 2.167572 1_555
Mn11 O64 2.169774 1_555
Mn11 O77 2.175440 1_555
Mn11 O83 2.223494 1_555
Mn11 O72 2.230828 1_555
Mn11 O69 2.273856 1_555
H0 O0 0.987274 1_555
H1 O8 0.983376 1_555
H2 O76 0.985718 1_455
H2 K6 2.774431 1_455
H2 K2 3.079110 1_555
H3 O7 0.981204 1_555
H3 K1 2.984223 1_555
H4 O8 0.985742 1_555
H5 O14 1.000446 1_555
H6 O83 0.981248 1_455
H7 O24 0.975110 1_555
H8 O14 1.014729 1_555
H8 O30 1.592171 1_555
H9 O17 0.988992 1_555
H10 O24 0.988995 1_555
H11 O27 1.014729 1_555
H11 O82 1.592171 1_455
H12 O17 0.975115 1_555
H13 O29 0.981248 1_555
H14 O29 0.987274 1_555
H15 O27 1.000446 1_545
H16 O36 0.985742 1_555
H17 O40 0.981204 1_555
H17 K2 2.984223 1_555
H18 O47 0.983376 1_555
H19 O43 0.985718 1_555
H19 K5 2.774431 1_555
H19 K1 3.079110 1_555
H20 O40 0.985718 1_555
H20 K2 2.774431 1_555
H20 K6 3.079110 1_555
H21 O36 0.983376 1_555
H22 O43 0.981204 1_555
H22 K5 2.984223 1_555
H23 O47 0.985742 1_555
H24 O56 1.000446 1_565
H25 O54 0.987274 1_555
H26 O54 0.981248 1_555
H27 O66 0.975110 1_555
H28 O56 1.014729 1_555
H28 O1 1.592171 1_655
H29 O59 0.988995 1_555
H30 O66 0.988995 1_555
H31 O69 1.014729 1_555
H31 O53 1.592171 1_555
H32 O59 0.975110 1_555
H33 O0 0.981248 1_655
H34 O69 1.000446 1_555
H35 O75 0.985742 1_555
H36 O76 0.981204 1_555
H36 K6 2.984223 1_555
H37 O7 0.985718 1_655
H37 K1 2.774431 1_655
H37 K5 3.079110 1_555
H38 O75 0.983376 1_555
H39 O83 0.987274 1_555
O1 S0 1.503532 1_555
O2 S1 1.498063 1_555
O3 S13 1.484668 1_455
O4 S8 1.478516 1_556
O5 S0 1.502831 1_565
O6 S1 1.498926 1_555
O9 S3 1.500520 1_555
O10 S1 1.484737 1_555
O11 S0 1.498936 1_555
O12 S1 1.493738 1_555
O13 S2 1.492202 1_545
O15 S2 1.496586 1_555
O16 S3 1.508433 1_565
O18 S4 1.468872 1_555
O19 S5 1.486774 1_555
O20 S3 1.496969 1_555
O21 S4 1.496969 1_555
O22 S2 1.486774 1_555
O23 S3 1.468872 1_565
O25 S4 1.508433 1_555
O26 S5 1.496586 1_555
O28 S5 1.492202 1_555
O30 S7 1.503532 1_555
O31 S9 1.498063 1_555
O32 S6 1.493738 1_555
O33 S8 1.498936 1_555
O34 S6 1.484737 1_555
O35 S4 1.500520 1_555
O37 S5 1.484668 1_555
O38 S15 1.478516 1_556
O39 S7 1.502831 1_555
O41 S6 1.498926 1_555
O42 S9 1.498926 1_555
O44 S8 1.502831 1_555
O45 S0 1.478516 1_554
O46 S10 1.484668 1_555
O48 S11 1.500520 1_555
O49 S9 1.484737 1_555
O50 S7 1.498936 1_555
O51 S9 1.493738 1_555
O52 S6 1.498063 1_555
O53 S8 1.503532 1_555
O55 S10 1.492202 1_555
O57 S10 1.496586 1_555
O58 S11 1.508433 1_555
O60 S12 1.468872 1_545
O61 S13 1.486774 1_555
O62 S11 1.496969 1_555
O63 S12 1.496969 1_555
O64 S10 1.486774 1_555
O65 S11 1.468872 1_555
O67 S12 1.508433 1_545
O68 S13 1.496586 1_555
O70 S13 1.492202 1_565
O71 S14 1.493738 1_555
O72 S15 1.498936 1_555
O73 S14 1.484737 1_555
O74 S12 1.500520 1_555
O77 S14 1.498926 1_555
O78 S15 1.502831 1_545
O79 S7 1.478516 1_554
O80 S2 1.484668 1_655
O81 S14 1.498063 1_555
O82 S15 1.503532 1_555
