# generated using pymatgen
data_Ti13Si31Ni40
_symmetry_space_group_name_H-M   'P 1'
_cell_length_a   17.18306629
_cell_length_b   17.18306629
_cell_length_c   7.88108300
_cell_angle_alpha   90.00000000
_cell_angle_beta   90.00000000
_cell_angle_gamma   120.00000110
_symmetry_Int_Tables_number   1
_chemical_formula_structural   Ti13Si31Ni40
_chemical_formula_sum   'Ti26 Si62 Ni80'
_cell_volume   2015.19862916
_cell_formula_units_Z   2
loop_
 _symmetry_equiv_pos_site_id
 _symmetry_equiv_pos_as_xyz
  1  'x, y, z'
loop_
 _atom_site_type_symbol
 _atom_site_label
 _atom_site_symmetry_multiplicity
 _atom_site_fract_x
 _atom_site_fract_y
 _atom_site_fract_z
 _atom_site_occupancy
  Ti  Ti0  1  0.00000000  0.00000000  0.32848900  1
  Ti  Ti1  1  0.00000000  0.00000000  0.67151100  1
  Ti  Ti2  1  0.27016300  0.00000000  0.30547200  1
  Ti  Ti3  1  0.72983700  0.00000000  0.30547200  1
  Ti  Ti4  1  0.00000000  0.27016300  0.30547200  1
  Ti  Ti5  1  0.72983700  0.72983700  0.30547200  1
  Ti  Ti6  1  0.27016300  0.27016300  0.30547200  1
  Ti  Ti7  1  0.00000000  0.72983700  0.30547200  1
  Ti  Ti8  1  0.27016300  0.00000000  0.69452800  1
  Ti  Ti9  1  0.72983700  0.72983700  0.69452800  1
  Ti  Ti10  1  0.00000000  0.27016300  0.69452800  1
  Ti  Ti11  1  0.00000000  0.72983700  0.69452800  1
  Ti  Ti12  1  0.27016300  0.27016300  0.69452800  1
  Ti  Ti13  1  0.72983700  0.00000000  0.69452800  1
  Ti  Ti14  1  0.57688400  0.15376900  0.50000000  1
  Ti  Ti15  1  0.42311600  0.84623100  0.50000000  1
  Ti  Ti16  1  0.84623100  0.42311600  0.50000000  1
  Ti  Ti17  1  0.57688400  0.42311600  0.50000000  1
  Ti  Ti18  1  0.42311600  0.57688400  0.50000000  1
  Ti  Ti19  1  0.15376900  0.57688400  0.50000000  1
  Ti  Ti20  1  0.24378700  0.48757400  0.00000000  1
  Ti  Ti21  1  0.75621300  0.51242600  0.00000000  1
  Ti  Ti22  1  0.51242600  0.75621300  0.00000000  1
  Ti  Ti23  1  0.24378700  0.75621300  0.00000000  1
  Ti  Ti24  1  0.75621300  0.24378700  0.00000000  1
  Ti  Ti25  1  0.48757400  0.24378700  0.00000000  1
  Si  Si0  1  0.60562200  0.21124300  0.18226700  1
  Si  Si1  1  0.39437800  0.78875700  0.18226700  1
  Si  Si2  1  0.78875700  0.39437800  0.18226700  1
  Si  Si3  1  0.60562200  0.39437800  0.18226700  1
  Si  Si4  1  0.39437800  0.60562200  0.18226700  1
  Si  Si5  1  0.21124300  0.60562200  0.18226700  1
  Si  Si6  1  0.39437800  0.78875700  0.81773300  1
  Si  Si7  1  0.39437800  0.60562200  0.81773300  1
  Si  Si8  1  0.21124300  0.60562200  0.81773300  1
  Si  Si9  1  0.78875700  0.39437800  0.81773300  1
  Si  Si10  1  0.60562200  0.39437800  0.81773300  1
  Si  Si11  1  0.60562200  0.21124300  0.81773300  1
  Si  Si12  1  0.17784200  0.35568300  0.23437400  1
  Si  Si13  1  0.82215800  0.64431700  0.23437400  1
  Si  Si14  1  0.64431700  0.82215800  0.23437400  1
  Si  Si15  1  0.17784200  0.82215800  0.23437400  1
  Si  Si16  1  0.82215800  0.17784200  0.23437400  1
  Si  Si17  1  0.35568300  0.17784200  0.23437400  1
  Si  Si18  1  0.82215800  0.64431700  0.76562600  1
  Si  Si19  1  0.82215800  0.17784200  0.76562600  1
  Si  Si20  1  0.35568300  0.17784200  0.76562600  1
  Si  Si21  1  0.64431700  0.82215800  0.76562600  1
  Si  Si22  1  0.17784200  0.82215800  0.76562600  1
  Si  Si23  1  0.17784200  0.35568300  0.76562600  1
  Si  Si24  1  0.12799900  0.41216500  0.50000000  1
  Si  Si25  1  0.87200100  0.58783500  0.50000000  1
  Si  Si26  1  0.58783500  0.71583400  0.50000000  1
  Si  Si27  1  0.28416600  0.87200100  0.50000000  1
  Si  Si28  1  0.71583400  0.12799900  0.50000000  1
  Si  Si29  1  0.41216500  0.28416600  0.50000000  1
  Si  Si30  1  0.71583400  0.58783500  0.50000000  1
  Si  Si31  1  0.87200100  0.28416600  0.50000000  1
  Si  Si32  1  0.41216500  0.12799900  0.50000000  1
  Si  Si33  1  0.58783500  0.87200100  0.50000000  1
  Si  Si34  1  0.12799900  0.71583400  0.50000000  1
  Si  Si35  1  0.28416600  0.41216500  0.50000000  1
  Si  Si36  1  0.50000000  0.00000000  0.26031500  1
  Si  Si37  1  0.00000000  0.50000000  0.26031500  1
  Si  Si38  1  0.50000000  0.50000000  0.26031500  1
  Si  Si39  1  0.50000000  0.00000000  0.73968500  1
  Si  Si40  1  0.50000000  0.50000000  0.73968500  1
  Si  Si41  1  0.00000000  0.50000000  0.73968500  1
  Si  Si42  1  0.38567200  0.00000000  0.00000000  1
  Si  Si43  1  0.61432800  0.00000000  0.00000000  1
  Si  Si44  1  0.00000000  0.38567200  0.00000000  1
  Si  Si45  1  0.61432800  0.61432800  0.00000000  1
  Si  Si46  1  0.38567200  0.38567200  0.00000000  1
  Si  Si47  1  0.00000000  0.61432800  0.00000000  1
  Si  Si48  1  0.16002600  0.00000000  0.00000000  1
  Si  Si49  1  0.83997400  0.00000000  0.00000000  1
  Si  Si50  1  0.00000000  0.16002600  0.00000000  1
  Si  Si51  1  0.83997400  0.83997400  0.00000000  1
  Si  Si52  1  0.16002600  0.16002600  0.00000000  1
  Si  Si53  1  0.00000000  0.83997400  0.00000000  1
  Si  Si54  1  0.14462500  0.00000000  0.50000000  1
  Si  Si55  1  0.85537500  0.00000000  0.50000000  1
  Si  Si56  1  0.00000000  0.14462500  0.50000000  1
  Si  Si57  1  0.85537500  0.85537500  0.50000000  1
  Si  Si58  1  0.14462500  0.14462500  0.50000000  1
  Si  Si59  1  0.00000000  0.85537500  0.50000000  1
  Si  Si60  1  0.33333300  0.66666700  0.50000000  1
  Si  Si61  1  0.66666700  0.33333300  0.50000000  1
  Ni  Ni0  1  0.33333300  0.66666700  0.00000000  1
  Ni  Ni1  1  0.66666700  0.33333300  0.00000000  1
  Ni  Ni2  1  0.08458500  0.31879400  0.00000000  1
  Ni  Ni3  1  0.91541500  0.68120600  0.00000000  1
  Ni  Ni4  1  0.68120600  0.76579200  0.00000000  1
  Ni  Ni5  1  0.23420800  0.91541500  0.00000000  1
  Ni  Ni6  1  0.76579200  0.08458500  0.00000000  1
  Ni  Ni7  1  0.31879400  0.23420800  0.00000000  1
  Ni  Ni8  1  0.76579200  0.68120600  0.00000000  1
  Ni  Ni9  1  0.91541500  0.23420800  0.00000000  1
  Ni  Ni10  1  0.31879400  0.08458500  0.00000000  1
  Ni  Ni11  1  0.68120600  0.91541500  0.00000000  1
  Ni  Ni12  1  0.08458500  0.76579200  0.00000000  1
  Ni  Ni13  1  0.23420800  0.31879400  0.00000000  1
  Ni  Ni14  1  0.08930700  0.17861400  0.23868500  1
  Ni  Ni15  1  0.91069300  0.82138600  0.23868500  1
  Ni  Ni16  1  0.82138600  0.91069300  0.23868500  1
  Ni  Ni17  1  0.08930700  0.91069300  0.23868500  1
  Ni  Ni18  1  0.91069300  0.08930700  0.23868500  1
  Ni  Ni19  1  0.17861400  0.08930700  0.23868500  1
  Ni  Ni20  1  0.91069300  0.82138600  0.76131500  1
  Ni  Ni21  1  0.91069300  0.08930700  0.76131500  1
  Ni  Ni22  1  0.17861400  0.08930700  0.76131500  1
  Ni  Ni23  1  0.82138600  0.91069300  0.76131500  1
  Ni  Ni24  1  0.08930700  0.91069300  0.76131500  1
  Ni  Ni25  1  0.08930700  0.17861400  0.76131500  1
  Ni  Ni26  1  0.10544900  0.44664400  0.22442300  1
  Ni  Ni27  1  0.89455100  0.55335600  0.22442300  1
  Ni  Ni28  1  0.55335600  0.65880500  0.22442300  1
  Ni  Ni29  1  0.34119500  0.89455100  0.22442300  1
  Ni  Ni30  1  0.65880500  0.10544900  0.22442300  1
  Ni  Ni31  1  0.44664400  0.34119500  0.22442300  1
  Ni  Ni32  1  0.65880500  0.55335600  0.77557700  1
  Ni  Ni33  1  0.89455100  0.34119500  0.77557700  1
  Ni  Ni34  1  0.44664400  0.10544900  0.77557700  1
  Ni  Ni35  1  0.55335600  0.89455100  0.77557700  1
  Ni  Ni36  1  0.10544900  0.65880500  0.77557700  1
  Ni  Ni37  1  0.34119500  0.44664400  0.77557700  1
  Ni  Ni38  1  0.89455100  0.55335600  0.77557700  1
  Ni  Ni39  1  0.10544900  0.44664400  0.77557700  1
  Ni  Ni40  1  0.44664400  0.34119500  0.77557700  1
  Ni  Ni41  1  0.65880500  0.10544900  0.77557700  1
  Ni  Ni42  1  0.34119500  0.89455100  0.77557700  1
  Ni  Ni43  1  0.55335600  0.65880500  0.77557700  1
  Ni  Ni44  1  0.34119500  0.44664400  0.22442300  1
  Ni  Ni45  1  0.10544900  0.65880500  0.22442300  1
  Ni  Ni46  1  0.55335600  0.89455100  0.22442300  1
  Ni  Ni47  1  0.44664400  0.10544900  0.22442300  1
  Ni  Ni48  1  0.89455100  0.34119500  0.22442300  1
  Ni  Ni49  1  0.65880500  0.55335600  0.22442300  1
  Ni  Ni50  1  0.54339300  0.08678600  0.00000000  1
  Ni  Ni51  1  0.45660700  0.91321400  0.00000000  1
  Ni  Ni52  1  0.91321400  0.45660700  0.00000000  1
  Ni  Ni53  1  0.54339300  0.45660700  0.00000000  1
  Ni  Ni54  1  0.45660700  0.54339300  0.00000000  1
  Ni  Ni55  1  0.08678600  0.54339300  0.00000000  1
  Ni  Ni56  1  0.41940600  0.00000000  0.50000000  1
  Ni  Ni57  1  0.58059400  0.00000000  0.50000000  1
  Ni  Ni58  1  0.00000000  0.41940600  0.50000000  1
  Ni  Ni59  1  0.58059400  0.58059400  0.50000000  1
  Ni  Ni60  1  0.41940600  0.41940600  0.50000000  1
  Ni  Ni61  1  0.00000000  0.58059400  0.50000000  1
  Ni  Ni62  1  0.26229800  0.52459600  0.34478900  1
  Ni  Ni63  1  0.73770200  0.47540400  0.34478900  1
  Ni  Ni64  1  0.47540400  0.73770200  0.34478900  1
  Ni  Ni65  1  0.26229800  0.73770200  0.34478900  1
  Ni  Ni66  1  0.73770200  0.26229800  0.34478900  1
  Ni  Ni67  1  0.52459600  0.26229800  0.34478900  1
  Ni  Ni68  1  0.73770200  0.47540400  0.65521100  1
  Ni  Ni69  1  0.73770200  0.26229800  0.65521100  1
  Ni  Ni70  1  0.52459600  0.26229800  0.65521100  1
  Ni  Ni71  1  0.47540400  0.73770200  0.65521100  1
  Ni  Ni72  1  0.26229800  0.73770200  0.65521100  1
  Ni  Ni73  1  0.26229800  0.52459600  0.65521100  1
  Ni  Ni74  1  0.14229300  0.28458600  0.50000000  1
  Ni  Ni75  1  0.85770700  0.71541400  0.50000000  1
  Ni  Ni76  1  0.71541400  0.85770700  0.50000000  1
  Ni  Ni77  1  0.14229300  0.85770700  0.50000000  1
  Ni  Ni78  1  0.85770700  0.14229300  0.50000000  1
  Ni  Ni79  1  0.28458600  0.14229300  0.50000000  1
loop_
_geom_bond_atom_site_label_1
_geom_bond_atom_site_label_2
_geom_bond_distance
_geom_bond_site_symmetry_2
Ti0 Ti1 2.703385 1_555
Ti2 Ti8 3.066183 1_555
Ti5 Ti9 3.066183 1_555
Ti10 Ti4 3.066183 1_555
Ti11 Ti7 3.066183 1_555
Ti12 Ti6 3.066183 1_555
Ti13 Ti3 3.066183 1_555
Si0 Ti14 2.646111 1_555
Si0 Ti24 2.761318 1_555
Si0 Ti25 2.761332 1_555
Si1 Ti15 2.646111 1_555
Si1 Ti23 2.761318 1_555
Si1 Ti22 2.761332 1_555
Si2 Ti16 2.646111 1_555
Si2 Ti24 2.761318 1_555
Si2 Ti21 2.761332 1_555
Si3 Ti17 2.646120 1_555
Si3 Ti25 2.761322 1_555
Si3 Ti21 2.761322 1_555
Si4 Ti18 2.646120 1_555
Si4 Ti20 2.761322 1_555
Si4 Ti22 2.761322 1_555
Si5 Ti19 2.646111 1_555
Si5 Ti23 2.761318 1_555
Si5 Ti20 2.761332 1_555
Si6 Ti15 2.646111 1_555
Si6 Ti23 2.761318 1_556
Si6 Ti22 2.761332 1_556
Si7 Ti18 2.646120 1_555
Si7 Ti20 2.761322 1_556
Si7 Ti22 2.761322 1_556
Si8 Ti19 2.646111 1_555
Si8 Ti23 2.761318 1_556
Si8 Ti20 2.761332 1_556
Si9 Ti16 2.646111 1_555
Si9 Ti24 2.761318 1_556
Si9 Ti21 2.761332 1_556
Si10 Ti17 2.646120 1_555
Si10 Ti25 2.761322 1_556
Si10 Ti21 2.761322 1_556
Si11 Ti14 2.646111 1_555
Si11 Ti24 2.761318 1_556
Si11 Ti25 2.761332 1_556
Si12 Si35 2.624697 1_555
Si12 Si24 2.624706 1_555
Si12 Ti20 2.695165 1_555
Si12 Ti6 2.705747 1_555
Si12 Ti4 2.705761 1_555
Si13 Si30 2.624697 1_555
Si13 Si25 2.624706 1_555
Si13 Ti21 2.695165 1_555
Si13 Ti5 2.705747 1_555
Si13 Ti7 2.705761 1_655
Si14 Si26 2.624697 1_555
Si14 Si33 2.624706 1_555
Si14 Ti22 2.695165 1_555
Si14 Ti5 2.705747 1_555
Si14 Ti3 2.705761 1_565
Si15 Si27 2.624697 1_555
Si15 Si34 2.624697 1_555
Si15 Ti23 2.695154 1_555
Si15 Ti2 2.705761 1_565
Si15 Ti7 2.705761 1_555
Si16 Si31 2.624697 1_555
Si16 Si28 2.624697 1_555
Si16 Ti24 2.695154 1_555
Si16 Ti4 2.705761 1_655
Si16 Ti3 2.705761 1_555
Si17 Si29 2.624697 1_555
Si17 Si32 2.624706 1_555
Si17 Ti25 2.695165 1_555
Si17 Ti6 2.705747 1_555
Si17 Ti2 2.705761 1_555
Si18 Si30 2.624697 1_555
Si18 Si25 2.624706 1_555
Si18 Ti21 2.695165 1_556
Si18 Ti9 2.705747 1_555
Si18 Ti11 2.705761 1_655
Si19 Si31 2.624697 1_555
Si19 Si28 2.624697 1_555
Si19 Ti24 2.695154 1_556
Si19 Ti10 2.705761 1_655
Si19 Ti13 2.705761 1_555
Si20 Si29 2.624697 1_555
Si20 Si32 2.624706 1_555
Si20 Ti25 2.695165 1_556
Si20 Ti12 2.705747 1_555
Si20 Ti8 2.705761 1_555
Si21 Si26 2.624697 1_555
Si21 Si33 2.624706 1_555
Si21 Ti22 2.695165 1_556
Si21 Ti9 2.705747 1_555
Si21 Ti13 2.705761 1_565
Si22 Si27 2.624697 1_555
Si22 Si34 2.624697 1_555
Si22 Ti23 2.695154 1_556
Si22 Ti8 2.705761 1_565
Si22 Ti11 2.705761 1_555
Si23 Si35 2.624697 1_555
Si23 Si24 2.624706 1_555
Si23 Ti20 2.695165 1_556
Si23 Ti12 2.705747 1_555
Si23 Ti10 2.705761 1_555
Si24 Ti19 2.637006 1_555
Si24 Si35 2.683428 1_555
Si24 Ti4 2.788351 1_555
Si24 Ti10 2.788351 1_555
Si25 Ti16 2.637006 1_555
Si25 Si30 2.683428 1_555
Si25 Ti7 2.788351 1_655
Si25 Ti11 2.788351 1_655
Si26 Ti18 2.637013 1_555
Si26 Si33 2.683428 1_555
Si26 Ti5 2.788351 1_555
Si26 Ti9 2.788351 1_555
Si27 Ti15 2.637023 1_555
Si27 Si34 2.683428 1_555
Si27 Ti2 2.788351 1_565
Si27 Ti8 2.788351 1_565
Si28 Ti14 2.637023 1_555
Si28 Si31 2.683428 1_555
Si28 Ti13 2.788351 1_555
Si28 Ti3 2.788351 1_555
Si29 Ti17 2.637013 1_555
Si29 Si32 2.683428 1_555
Si29 Ti12 2.788351 1_555
Si29 Ti6 2.788351 1_555
Si30 Ti17 2.637013 1_555
Si30 Ti5 2.788351 1_555
Si30 Ti9 2.788351 1_555
Si31 Ti16 2.637023 1_555
Si31 Ti4 2.788351 1_655
Si31 Ti10 2.788351 1_655
Si32 Ti14 2.637006 1_555
Si32 Ti8 2.788351 1_555
Si32 Ti2 2.788351 1_555
Si33 Ti15 2.637006 1_555
Si33 Ti3 2.788351 1_565
Si33 Ti13 2.788351 1_565
Si34 Ti19 2.637023 1_555
Si34 Ti7 2.788351 1_555
Si34 Ti11 2.788351 1_555
Si35 Ti18 2.637013 1_555
Si35 Ti12 2.788351 1_555
Si35 Ti6 2.788351 1_555
Si36 Ti14 2.967194 1_555
Si36 Ti15 2.967194 1_545
Si37 Ti19 2.967194 1_555
Si37 Ti16 2.967194 1_455
Si38 Ti17 2.967183 1_555
Si38 Ti18 2.967183 1_555
Si39 Ti14 2.967194 1_555
Si39 Ti15 2.967194 1_545
Si40 Ti17 2.967183 1_555
Si40 Ti18 2.967183 1_555
Si41 Ti19 2.967194 1_555
Si41 Ti16 2.967194 1_455
Si42 Ti2 3.120135 1_555
Si42 Ti8 3.120135 1_554
Si43 Ti13 3.120135 1_554
Si43 Ti3 3.120135 1_555
Si44 Ti4 3.120135 1_555
Si44 Ti10 3.120135 1_554
Si45 Ti9 3.120135 1_554
Si45 Ti5 3.120135 1_555
Si46 Ti12 3.120135 1_554
Si46 Ti6 3.120135 1_555
Si47 Ti11 3.120135 1_554
Si47 Ti7 3.120135 1_555
Si48 Ti8 3.062244 1_554
Si48 Ti2 3.062244 1_555
Si49 Ti13 3.062244 1_554
Si49 Ti3 3.062244 1_555
Si50 Ti4 3.062244 1_555
Si50 Ti10 3.062244 1_554
Si51 Ti9 3.062244 1_554
Si51 Ti5 3.062244 1_555
Si52 Ti12 3.062244 1_554
Si52 Ti6 3.062244 1_555
Si53 Ti11 3.062244 1_554
Si53 Ti7 3.062244 1_555
Si54 Si59 2.485101 1_545
Si54 Si58 2.485101 1_555
Si54 Ti2 2.646426 1_555
Si54 Ti8 2.646426 1_555
Si54 Ti1 2.828922 1_555
Si54 Ti0 2.828922 1_555
Si55 Si56 2.485101 1_655
Si55 Si57 2.485101 1_545
Si55 Ti13 2.646426 1_555
Si55 Ti3 2.646426 1_555
Si55 Ti0 2.828922 1_655
Si55 Ti1 2.828922 1_655
Si56 Si58 2.485101 1_555
Si56 Ti4 2.646426 1_555
Si56 Ti10 2.646426 1_555
Si56 Ti1 2.828922 1_555
Si56 Ti0 2.828922 1_555
Si57 Si59 2.485101 1_655
Si57 Ti5 2.646426 1_555
Si57 Ti9 2.646426 1_555
Si57 Ti1 2.828922 1_665
Si57 Ti0 2.828922 1_665
Si58 Ti6 2.646426 1_555
Si58 Ti12 2.646426 1_555
Si58 Ti0 2.828922 1_555
Si58 Ti1 2.828922 1_555
Si59 Ti11 2.646426 1_555
Si59 Ti7 2.646426 1_555
Si59 Ti0 2.828922 1_565
Si59 Ti1 2.828922 1_565
Si60 Ti15 2.672087 1_555
Si60 Ti19 2.672087 1_555
Si60 Ti18 2.672117 1_555
Si61 Ti16 2.672087 1_555
Si61 Ti14 2.672087 1_555
Si61 Ti17 2.672117 1_555
Ni0 Si5 2.316085 1_555
Ni0 Si8 2.316085 1_554
Ni0 Si6 2.316085 1_554
Ni0 Si1 2.316085 1_555
Ni0 Si7 2.316085 1_554
Ni0 Si4 2.316085 1_555
Ni0 Ti23 2.665063 1_555
Ni0 Ti20 2.665078 1_555
Ni0 Ti22 2.665078 1_555
Ni1 Si0 2.316085 1_555
Ni1 Si11 2.316085 1_554
Ni1 Si2 2.316085 1_555
Ni1 Si9 2.316085 1_554
Ni1 Si10 2.316085 1_554
Ni1 Si3 2.316085 1_555
Ni1 Ti24 2.665063 1_555
Ni1 Ti25 2.665078 1_555
Ni1 Ti21 2.665078 1_555
Ni2 Si44 2.259045 1_555
Ni2 Si23 2.316404 1_554
Ni2 Si12 2.316404 1_555
Ni2 Si50 2.364312 1_555
Ni2 Ni9 2.517414 1_455
Ni2 Ni26 2.700999 1_555
Ni2 Ni39 2.700999 1_554
Ni2 Ti10 2.718827 1_554
Ni2 Ti4 2.718827 1_555
Ni2 Ti20 2.821471 1_555
Ni3 Si47 2.259045 1_655
Ni3 Si13 2.316404 1_555
Ni3 Si18 2.316404 1_554
Ni3 Si53 2.364312 1_655
Ni3 Ni8 2.570982 1_555
Ni3 Ni38 2.700999 1_554
Ni3 Ti11 2.718827 1_654
Ni3 Ti7 2.718827 1_655
Ni3 Ti21 2.821471 1_555
Ni4 Si45 2.259060 1_555
Ni4 Si21 2.316385 1_554
Ni4 Si14 2.316385 1_555
Ni4 Si51 2.364312 1_555
Ni4 Ni8 2.517444 1_555
Ni4 Ni43 2.701004 1_554
Ni4 Ti9 2.718834 1_554
Ni4 Ti5 2.718834 1_555
Ni4 Ti22 2.821463 1_555
Ni5 Si42 2.259059 1_565
Ni5 Si22 2.316401 1_554
Ni5 Si15 2.316401 1_555
Ni5 Si48 2.364297 1_565
Ni5 Ti8 2.718827 1_564
Ni5 Ti2 2.718827 1_565
Ni5 Ti23 2.821480 1_555
Ni6 Si43 2.259059 1_555
Ni6 Si16 2.316401 1_555
Ni6 Si19 2.316401 1_554
Ni6 Si49 2.364297 1_555
Ni6 Ni9 2.570982 1_555
Ni6 Ti13 2.718827 1_554
Ni6 Ti3 2.718827 1_555
Ni6 Ti24 2.821480 1_555
Ni7 Si46 2.259060 1_555
Ni7 Si20 2.316385 1_554
Ni7 Si17 2.316385 1_555
Ni7 Si52 2.364312 1_555
Ni7 Ti12 2.718834 1_554
Ni7 Ti6 2.718834 1_555
Ni7 Ti25 2.821463 1_555
Ni8 Si45 2.259060 1_555
Ni8 Si13 2.316385 1_555
Ni8 Si18 2.316385 1_554
Ni8 Si51 2.364312 1_555
Ni8 Ti9 2.718834 1_554
Ni8 Ti5 2.718834 1_555
Ni8 Ti21 2.821463 1_555
Ni9 Si44 2.259059 1_655
Ni9 Si19 2.316401 1_554
Ni9 Si16 2.316401 1_555
Ni9 Si50 2.364297 1_655
Ni9 Ti10 2.718827 1_654
Ni9 Ti4 2.718827 1_655
Ni9 Ti24 2.821480 1_555
Ni10 Si42 2.259045 1_555
Ni10 Si20 2.316404 1_554
Ni10 Si17 2.316404 1_555
Ni10 Si48 2.364312 1_555
Ni10 Ni5 2.517414 1_545
Ni10 Ni7 2.570982 1_555
Ni10 Ni47 2.700999 1_555
Ni10 Ni34 2.700999 1_554
Ni10 Ti8 2.718827 1_554
Ni10 Ti2 2.718827 1_555
Ni10 Ti25 2.821471 1_555
Ni11 Si43 2.259045 1_565
Ni11 Si21 2.316404 1_554
Ni11 Si14 2.316404 1_555
Ni11 Si49 2.364312 1_565
Ni11 Ni6 2.517414 1_565
Ni11 Ni4 2.570982 1_555
Ni11 Ni46 2.700999 1_555
Ni11 Ni35 2.700999 1_554
Ni11 Ti13 2.718827 1_564
Ni11 Ti3 2.718827 1_565
Ni11 Ti22 2.821471 1_555
Ni12 Si47 2.259059 1_555
Ni12 Si22 2.316401 1_554
Ni12 Si15 2.316401 1_555
Ni12 Si53 2.364297 1_555
Ni12 Ni3 2.517414 1_455
Ni12 Ni5 2.570982 1_555
Ni12 Ni45 2.701012 1_555
Ni12 Ni36 2.701012 1_554
Ni12 Ti11 2.718827 1_554
Ni12 Ti7 2.718827 1_555
Ni12 Ti23 2.821480 1_555
Ni13 Si46 2.259060 1_555
Ni13 Si23 2.316385 1_554
Ni13 Si12 2.316385 1_555
Ni13 Si52 2.364312 1_555
Ni13 Ni7 2.517444 1_555
Ni13 Ni2 2.570982 1_555
Ni13 Ni37 2.701004 1_554
Ni13 Ni44 2.701004 1_555
Ni13 Ti12 2.718834 1_554
Ni13 Ti6 2.718834 1_555
Ni13 Ti20 2.821463 1_555
Ni14 Si50 2.346337 1_555
Ni14 Si52 2.346337 1_555
Ni14 Si56 2.457859 1_555
Ni14 Si58 2.457859 1_555
Ni14 Ni74 2.593865 1_555
Ni14 Si12 2.635178 1_555
Ni14 Ni18 2.657950 1_455
Ni14 Ni19 2.657950 1_555
Ni14 Ti6 2.742369 1_555
Ni14 Ti4 2.742369 1_555
Ni14 Ti0 2.750566 1_555
Ni15 Si53 2.346337 1_655
Ni15 Si51 2.346337 1_555
Ni15 Si59 2.457859 1_655
Ni15 Si57 2.457859 1_555
Ni15 Ni75 2.593865 1_555
Ni15 Si13 2.635178 1_555
Ni15 Ni17 2.657950 1_655
Ni15 Ni16 2.657950 1_555
Ni15 Ti5 2.742369 1_555
Ni15 Ti7 2.742369 1_655
Ni15 Ti0 2.750566 1_665
Ni16 Si49 2.346337 1_565
Ni16 Si51 2.346337 1_555
Ni16 Si55 2.457859 1_565
Ni16 Si57 2.457859 1_555
Ni16 Ni76 2.593865 1_555
Ni16 Si14 2.635178 1_555
Ni16 Ni18 2.657950 1_565
Ni16 Ti5 2.742369 1_555
Ni16 Ti3 2.742369 1_565
Ni16 Ti0 2.750566 1_665
Ni17 Si53 2.346337 1_555
Ni17 Si48 2.346337 1_565
Ni17 Si59 2.457859 1_555
Ni17 Si54 2.457859 1_565
Ni17 Ni77 2.593865 1_555
Ni17 Si15 2.635193 1_555
Ni17 Ni19 2.657950 1_565
Ni17 Ti2 2.742369 1_565
Ni17 Ti7 2.742369 1_555
Ni17 Ti0 2.750566 1_565
Ni18 Si49 2.346337 1_555
Ni18 Si50 2.346337 1_655
Ni18 Si55 2.457859 1_555
Ni18 Si56 2.457859 1_655
Ni18 Ni78 2.593865 1_555
Ni18 Si16 2.635193 1_555
Ni18 Ti4 2.742369 1_655
Ni18 Ti3 2.742369 1_555
Ni18 Ti0 2.750566 1_655
Ni19 Si48 2.346337 1_555
Ni19 Si52 2.346337 1_555
Ni19 Si54 2.457859 1_555
Ni19 Si58 2.457859 1_555
Ni19 Ni79 2.593865 1_555
Ni19 Si17 2.635178 1_555
Ni19 Ti6 2.742369 1_555
Ni19 Ti2 2.742369 1_555
Ni19 Ti0 2.750566 1_555
Ni20 Si53 2.346337 1_656
Ni20 Si51 2.346337 1_556
Ni20 Si59 2.457859 1_655
Ni20 Si57 2.457859 1_555
Ni20 Ni75 2.593865 1_555
Ni20 Si18 2.635178 1_555
Ni20 Ni24 2.657950 1_655
Ni20 Ni23 2.657950 1_555
Ni20 Ti9 2.742369 1_555
Ni20 Ti11 2.742369 1_655
Ni20 Ti1 2.750566 1_665
Ni21 Si49 2.346337 1_556
Ni21 Si50 2.346337 1_656
Ni21 Si55 2.457859 1_555
Ni21 Si56 2.457859 1_655
Ni21 Ni78 2.593865 1_555
Ni21 Si19 2.635193 1_555
Ni21 Ni23 2.657950 1_545
Ni21 Ni25 2.657950 1_655
Ni21 Ti10 2.742369 1_655
Ni21 Ti13 2.742369 1_555
Ni21 Ti1 2.750566 1_655
Ni22 Si48 2.346337 1_556
Ni22 Si52 2.346337 1_556
Ni22 Si54 2.457859 1_555
Ni22 Si58 2.457859 1_555
Ni22 Ni79 2.593865 1_555
Ni22 Si20 2.635178 1_555
Ni22 Ni24 2.657950 1_545
Ni22 Ni25 2.657950 1_555
Ni22 Ti12 2.742369 1_555
Ni22 Ti8 2.742369 1_555
Ni22 Ti1 2.750566 1_555
Ni23 Si49 2.346337 1_566
Ni23 Si51 2.346337 1_556
Ni23 Si55 2.457859 1_565
Ni23 Si57 2.457859 1_555
Ni23 Ni76 2.593865 1_555
Ni23 Si21 2.635178 1_555
Ni23 Ti9 2.742369 1_555
Ni23 Ti13 2.742369 1_565
Ni23 Ti1 2.750566 1_665
Ni24 Si53 2.346337 1_556
Ni24 Si48 2.346337 1_566
Ni24 Si59 2.457859 1_555
Ni24 Si54 2.457859 1_565
Ni24 Ni77 2.593865 1_555
Ni24 Si22 2.635193 1_555
Ni24 Ti11 2.742369 1_555
Ni24 Ti8 2.742369 1_565
Ni24 Ti1 2.750566 1_565
Ni25 Si50 2.346337 1_556
Ni25 Si52 2.346337 1_556
Ni25 Si56 2.457859 1_555
Ni25 Si58 2.457859 1_555
Ni25 Ni74 2.593865 1_555
Ni25 Si23 2.635178 1_555
Ni25 Ti12 2.742369 1_555
Ni25 Ti10 2.742369 1_555
Ni25 Ti1 2.750566 1_555
Ni26 Si24 2.334013 1_555
Ni26 Si44 2.368693 1_555
Ni26 Si37 2.421757 1_555
Ni26 Si5 2.431346 1_555
Ni26 Si12 2.437357 1_555
Ni26 Ni62 2.519484 1_555
Ni26 Ni55 2.554990 1_555
Ni26 Ni58 2.714965 1_555
Ni26 Ti4 2.718899 1_555
Ni26 Ti20 2.757098 1_555
Ni26 Ti19 2.925144 1_555
Ni27 Si25 2.334013 1_555
Ni27 Si47 2.368693 1_655
Ni27 Si37 2.421757 1_655
Ni27 Si2 2.431346 1_555
Ni27 Si13 2.437357 1_555
Ni27 Ni63 2.519484 1_555
Ni27 Ni52 2.554990 1_555
Ni27 Ni3 2.700999 1_555
Ni27 Ni61 2.714965 1_655
Ni27 Ti7 2.718899 1_655
Ni27 Ti21 2.757098 1_555
Ni27 Ti16 2.925144 1_555
Ni28 Si26 2.334013 1_555
Ni28 Si45 2.368693 1_555
Ni28 Si38 2.421757 1_555
Ni28 Si4 2.431349 1_555
Ni28 Si14 2.437343 1_555
Ni28 Ni64 2.519484 1_555
Ni28 Ni54 2.554990 1_555
Ni28 Ni4 2.701004 1_555
Ni28 Ni59 2.714965 1_555
Ni28 Ti5 2.718900 1_555
Ni28 Ti22 2.757098 1_555
Ni28 Ti18 2.925146 1_555
Ni29 Si27 2.334013 1_555
Ni29 Si42 2.368693 1_565
Ni29 Si36 2.421757 1_565
Ni29 Si1 2.431333 1_555
Ni29 Si15 2.437342 1_555
Ni29 Ni65 2.519484 1_555
Ni29 Ni51 2.554990 1_555
Ni29 Ni5 2.701012 1_555
Ni29 Ni56 2.714965 1_565
Ni29 Ti2 2.718900 1_565
Ni29 Ti23 2.757098 1_555
Ni29 Ti15 2.925155 1_555
Ni30 Si28 2.334013 1_555
Ni30 Si43 2.368693 1_555
Ni30 Si36 2.421757 1_555
Ni30 Si0 2.431333 1_555
Ni30 Si16 2.437342 1_555
Ni30 Ni66 2.519484 1_555
Ni30 Ni50 2.554990 1_555
Ni30 Ni6 2.701012 1_555
Ni30 Ni57 2.714965 1_555
Ni30 Ti3 2.718900 1_555
Ni30 Ti24 2.757098 1_555
Ni30 Ti14 2.925155 1_555
Ni31 Si29 2.334013 1_555
Ni31 Si46 2.368693 1_555
Ni31 Si38 2.421757 1_555
Ni31 Si3 2.431349 1_555
Ni31 Si17 2.437343 1_555
Ni31 Ni67 2.519484 1_555
Ni31 Ni53 2.554990 1_555
Ni31 Ni7 2.701004 1_555
Ni31 Ni60 2.714965 1_555
Ni31 Ti6 2.718900 1_555
Ni31 Ti25 2.757098 1_555
Ni31 Ti17 2.925146 1_555
Ni32 Si30 2.334013 1_555
Ni32 Si45 2.368693 1_556
Ni32 Si40 2.421757 1_555
Ni32 Si10 2.431349 1_555
Ni32 Si18 2.437343 1_555
Ni32 Ni68 2.519484 1_555
Ni32 Ni53 2.554990 1_556
Ni32 Ni8 2.701004 1_556
Ni32 Ni59 2.714965 1_555
Ni32 Ti9 2.718900 1_555
Ni32 Ti21 2.757098 1_556
Ni32 Ti17 2.925146 1_555
Ni33 Si31 2.334013 1_555
Ni33 Si44 2.368693 1_656
Ni33 Si41 2.421757 1_655
Ni33 Si9 2.431333 1_555
Ni33 Si19 2.437342 1_555
Ni33 Ni69 2.519484 1_555
Ni33 Ni52 2.554990 1_556
Ni33 Ni9 2.701012 1_556
Ni33 Ni58 2.714965 1_655
Ni33 Ti10 2.718900 1_655
Ni33 Ti24 2.757098 1_556
Ni33 Ti16 2.925155 1_555
Ni34 Si32 2.334013 1_555
Ni34 Si42 2.368693 1_556
Ni34 Si39 2.421757 1_555
Ni34 Si11 2.431346 1_555
Ni34 Si20 2.437357 1_555
Ni34 Ni70 2.519484 1_555
Ni34 Ni50 2.554990 1_556
Ni34 Ni56 2.714965 1_555
Ni34 Ti8 2.718899 1_555
Ni34 Ti25 2.757098 1_556
Ni34 Ti14 2.925144 1_555
Ni35 Si33 2.334013 1_555
Ni35 Si43 2.368693 1_566
Ni35 Si39 2.421757 1_565
Ni35 Si6 2.431346 1_555
Ni35 Si21 2.437357 1_555
Ni35 Ni71 2.519484 1_555
Ni35 Ni51 2.554990 1_556
Ni35 Ni57 2.714965 1_565
Ni35 Ti13 2.718899 1_565
Ni35 Ti22 2.757098 1_556
Ni35 Ti15 2.925144 1_555
Ni36 Si34 2.334013 1_555
Ni36 Si47 2.368693 1_556
Ni36 Si41 2.421757 1_555
Ni36 Si8 2.431333 1_555
Ni36 Si22 2.437342 1_555
Ni36 Ni72 2.519484 1_555
Ni36 Ni55 2.554990 1_556
Ni36 Ni61 2.714965 1_555
Ni36 Ti11 2.718900 1_555
Ni36 Ti23 2.757098 1_556
Ni36 Ti19 2.925155 1_555
Ni37 Si35 2.334013 1_555
Ni37 Si46 2.368693 1_556
Ni37 Si40 2.421757 1_555
Ni37 Si7 2.431349 1_555
Ni37 Si23 2.437343 1_555
Ni37 Ni73 2.519484 1_555
Ni37 Ni54 2.554990 1_556
Ni37 Ni60 2.714965 1_555
Ni37 Ti12 2.718900 1_555
Ni37 Ti20 2.757098 1_556
Ni37 Ti18 2.925146 1_555
Ni38 Si25 2.334013 1_555
Ni38 Si47 2.368693 1_656
Ni38 Si41 2.421757 1_655
Ni38 Si9 2.431346 1_555
Ni38 Si18 2.437357 1_555
Ni38 Ni68 2.519484 1_555
Ni38 Ni52 2.554990 1_556
Ni38 Ni61 2.714965 1_655
Ni38 Ti11 2.718899 1_655
Ni38 Ti21 2.757098 1_556
Ni38 Ti16 2.925144 1_555
Ni39 Si24 2.334013 1_555
Ni39 Si44 2.368693 1_556
Ni39 Si41 2.421757 1_555
Ni39 Si8 2.431346 1_555
Ni39 Si23 2.437357 1_555
Ni39 Ni73 2.519484 1_555
Ni39 Ni55 2.554990 1_556
Ni39 Ni58 2.714965 1_555
Ni39 Ti10 2.718899 1_555
Ni39 Ti20 2.757098 1_556
Ni39 Ti19 2.925144 1_555
Ni40 Si29 2.334013 1_555
Ni40 Si46 2.368693 1_556
Ni40 Si40 2.421757 1_555
Ni40 Si10 2.431349 1_555
Ni40 Si20 2.437343 1_555
Ni40 Ni70 2.519484 1_555
Ni40 Ni53 2.554990 1_556
Ni40 Ni7 2.701004 1_556
Ni40 Ni60 2.714965 1_555
Ni40 Ti12 2.718900 1_555
Ni40 Ti25 2.757098 1_556
Ni40 Ti17 2.925146 1_555
Ni41 Si28 2.334013 1_555
Ni41 Si43 2.368693 1_556
Ni41 Si39 2.421757 1_555
Ni41 Si11 2.431333 1_555
Ni41 Si19 2.437342 1_555
Ni41 Ni69 2.519484 1_555
Ni41 Ni50 2.554990 1_556
Ni41 Ni6 2.701012 1_556
Ni41 Ni57 2.714965 1_555
Ni41 Ti13 2.718900 1_555
Ni41 Ti24 2.757098 1_556
Ni41 Ti14 2.925155 1_555
Ni42 Si27 2.334013 1_555
Ni42 Si42 2.368693 1_566
Ni42 Si39 2.421757 1_565
Ni42 Si6 2.431333 1_555
Ni42 Si22 2.437342 1_555
Ni42 Ni72 2.519484 1_555
Ni42 Ni51 2.554990 1_556
Ni42 Ni5 2.701012 1_556
Ni42 Ni56 2.714965 1_565
Ni42 Ti8 2.718900 1_565
Ni42 Ti23 2.757098 1_556
Ni42 Ti15 2.925155 1_555
Ni43 Si26 2.334013 1_555
Ni43 Si45 2.368693 1_556
Ni43 Si40 2.421757 1_555
Ni43 Si7 2.431349 1_555
Ni43 Si21 2.437343 1_555
Ni43 Ni71 2.519484 1_555
Ni43 Ni54 2.554990 1_556
Ni43 Ni59 2.714965 1_555
Ni43 Ti9 2.718900 1_555
Ni43 Ti22 2.757098 1_556
Ni43 Ti18 2.925146 1_555
Ni44 Si35 2.334013 1_555
Ni44 Si46 2.368693 1_555
Ni44 Si38 2.421757 1_555
Ni44 Si4 2.431349 1_555
Ni44 Si12 2.437343 1_555
Ni44 Ni62 2.519484 1_555
Ni44 Ni54 2.554990 1_555
Ni44 Ni60 2.714965 1_555
Ni44 Ti6 2.718900 1_555
Ni44 Ti20 2.757098 1_555
Ni44 Ti18 2.925146 1_555
Ni45 Si34 2.334013 1_555
Ni45 Si47 2.368693 1_555
Ni45 Si37 2.421757 1_555
Ni45 Si5 2.431333 1_555
Ni45 Si15 2.437342 1_555
Ni45 Ni65 2.519484 1_555
Ni45 Ni55 2.554990 1_555
Ni45 Ni61 2.714965 1_555
Ni45 Ti7 2.718900 1_555
Ni45 Ti23 2.757098 1_555
Ni45 Ti19 2.925155 1_555
Ni46 Si33 2.334013 1_555
Ni46 Si43 2.368693 1_565
Ni46 Si36 2.421757 1_565
Ni46 Si1 2.431346 1_555
Ni46 Si14 2.437357 1_555
Ni46 Ni64 2.519484 1_555
Ni46 Ni51 2.554990 1_555
Ni46 Ni57 2.714965 1_565
Ni46 Ti3 2.718899 1_565
Ni46 Ti22 2.757098 1_555
Ni46 Ti15 2.925144 1_555
Ni47 Si32 2.334013 1_555
Ni47 Si42 2.368693 1_555
Ni47 Si36 2.421757 1_555
Ni47 Si0 2.431346 1_555
Ni47 Si17 2.437357 1_555
Ni47 Ni67 2.519484 1_555
Ni47 Ni50 2.554990 1_555
Ni47 Ni56 2.714965 1_555
Ni47 Ti2 2.718899 1_555
Ni47 Ti25 2.757098 1_555
Ni47 Ti14 2.925144 1_555
Ni48 Si31 2.334013 1_555
Ni48 Si44 2.368693 1_655
Ni48 Si37 2.421757 1_655
Ni48 Si2 2.431333 1_555
Ni48 Si16 2.437342 1_555
Ni48 Ni66 2.519484 1_555
Ni48 Ni52 2.554990 1_555
Ni48 Ni9 2.701012 1_555
Ni48 Ni58 2.714965 1_655
Ni48 Ti4 2.718900 1_655
Ni48 Ti24 2.757098 1_555
Ni48 Ti16 2.925155 1_555
Ni49 Si30 2.334013 1_555
Ni49 Si45 2.368693 1_555
Ni49 Si38 2.421757 1_555
Ni49 Si3 2.431349 1_555
Ni49 Si13 2.437343 1_555
Ni49 Ni63 2.519484 1_555
Ni49 Ni53 2.554990 1_555
Ni49 Ni8 2.701004 1_555
Ni49 Ni59 2.714965 1_555
Ni49 Ti5 2.718900 1_555
Ni49 Ti21 2.757098 1_555
Ni49 Ti17 2.925146 1_555
Ni50 Si0 2.343817 1_555
Ni50 Si11 2.343817 1_554
Ni50 Si42 2.350989 1_555
Ni50 Si43 2.350989 1_555
Ni50 Si36 2.424208 1_555
Ni50 Si39 2.424208 1_554
Ni50 Ni51 2.582920 1_545
Ni51 Si6 2.343817 1_554
Ni51 Si1 2.343817 1_555
Ni51 Si43 2.350989 1_565
Ni51 Si42 2.350989 1_565
Ni51 Si39 2.424208 1_564
Ni51 Si36 2.424208 1_565
Ni52 Si9 2.343817 1_554
Ni52 Si2 2.343817 1_555
Ni52 Si47 2.350989 1_655
Ni52 Si44 2.350989 1_655
Ni52 Si41 2.424208 1_654
Ni52 Si37 2.424208 1_655
Ni52 Ni55 2.582920 1_655
Ni53 Si10 2.343829 1_554
Ni53 Si3 2.343829 1_555
Ni53 Si46 2.350989 1_555
Ni53 Si45 2.350989 1_555
Ni53 Si40 2.424208 1_554
Ni53 Si38 2.424208 1_555
Ni53 Ni54 2.582920 1_555
Ni54 Si7 2.343829 1_554
Ni54 Si4 2.343829 1_555
Ni54 Si45 2.350989 1_555
Ni54 Si46 2.350989 1_555
Ni54 Si40 2.424208 1_554
Ni54 Si38 2.424208 1_555
Ni55 Si8 2.343817 1_554
Ni55 Si5 2.343817 1_555
Ni55 Si44 2.350989 1_555
Ni55 Si47 2.350989 1_555
Ni55 Si41 2.424208 1_554
Ni55 Si37 2.424208 1_555
Ni56 Si27 2.264192 1_545
Ni56 Si32 2.264192 1_555
Ni56 Si36 2.342232 1_555
Ni56 Si39 2.342232 1_555
Ni56 Ti14 2.674658 1_555
Ni56 Ti15 2.674667 1_545
Ni56 Ti2 2.987773 1_555
Ni56 Ti8 2.987773 1_555
Ni57 Si28 2.264192 1_555
Ni57 Si33 2.264192 1_545
Ni57 Si39 2.342232 1_555
Ni57 Si36 2.342232 1_555
Ni57 Ti15 2.674658 1_545
Ni57 Ti14 2.674667 1_555
Ni57 Ti3 2.987773 1_555
Ni57 Ti13 2.987773 1_555
Ni58 Si31 2.264192 1_455
Ni58 Si24 2.264192 1_555
Ni58 Si37 2.342232 1_555
Ni58 Si41 2.342232 1_555
Ni58 Ti19 2.674658 1_555
Ni58 Ti16 2.674667 1_455
Ni58 Ti4 2.987773 1_555
Ni58 Ti10 2.987773 1_555
Ni59 Si30 2.264192 1_555
Ni59 Si26 2.264192 1_555
Ni59 Si38 2.342232 1_555
Ni59 Si40 2.342232 1_555
Ni59 Ti18 2.674650 1_555
Ni59 Ti17 2.674650 1_555
Ni59 Ti5 2.987773 1_555
Ni59 Ti9 2.987773 1_555
Ni60 Si35 2.264192 1_555
Ni60 Si29 2.264192 1_555
Ni60 Si38 2.342232 1_555
Ni60 Si40 2.342232 1_555
Ni60 Ti17 2.674650 1_555
Ni60 Ti18 2.674650 1_555
Ni60 Ti6 2.987773 1_555
Ni60 Ti12 2.987773 1_555
Ni61 Si34 2.264192 1_555
Ni61 Si25 2.264192 1_455
Ni61 Si37 2.342232 1_555
Ni61 Si41 2.342232 1_555
Ni61 Ti16 2.674658 1_455
Ni61 Ti19 2.674667 1_555
Ni61 Ti7 2.987773 1_555
Ni61 Ti11 2.987773 1_555
Ni62 Si4 2.360083 1_555
Ni62 Si5 2.360094 1_555
Ni62 Si60 2.442528 1_555
Ni62 Ni73 2.446462 1_555
Ni62 Si24 2.468946 1_555
Ni62 Si35 2.468946 1_555
Ni62 Si12 2.659955 1_555
Ni62 Ti19 2.730707 1_555
Ni62 Ti18 2.730722 1_555
Ni62 Ti20 2.772597 1_555
Ni63 Si3 2.360083 1_555
Ni63 Si2 2.360094 1_555
Ni63 Si61 2.442528 1_555
Ni63 Ni68 2.446462 1_555
Ni63 Si25 2.468946 1_555
Ni63 Si30 2.468946 1_555
Ni63 Si13 2.659955 1_555
Ni63 Ti16 2.730707 1_555
Ni63 Ti17 2.730722 1_555
Ni63 Ti21 2.772597 1_555
Ni64 Si4 2.360083 1_555
Ni64 Si1 2.360094 1_555
Ni64 Si60 2.442528 1_555
Ni64 Ni71 2.446462 1_555
Ni64 Si33 2.468946 1_555
Ni64 Si26 2.468946 1_555
Ni64 Si14 2.659955 1_555
Ni64 Ti15 2.730707 1_555
Ni64 Ti18 2.730722 1_555
Ni64 Ti22 2.772597 1_555
Ni65 Si5 2.360081 1_555
Ni65 Si1 2.360081 1_555
Ni65 Si60 2.442515 1_555
Ni65 Ni72 2.446462 1_555
Ni65 Si34 2.468946 1_555
Ni65 Si27 2.468946 1_555
Ni65 Si15 2.659941 1_555
Ni65 Ti15 2.730719 1_555
Ni65 Ti19 2.730719 1_555
Ni65 Ti23 2.772597 1_555
Ni66 Si0 2.360081 1_555
Ni66 Si2 2.360081 1_555
Ni66 Si61 2.442515 1_555
Ni66 Ni69 2.446462 1_555
Ni66 Si28 2.468946 1_555
Ni66 Si31 2.468946 1_555
Ni66 Si16 2.659941 1_555
Ni66 Ti14 2.730719 1_555
Ni66 Ti16 2.730719 1_555
Ni66 Ti24 2.772597 1_555
Ni67 Si3 2.360083 1_555
Ni67 Si0 2.360094 1_555
Ni67 Si61 2.442528 1_555
Ni67 Ni70 2.446462 1_555
Ni67 Si32 2.468946 1_555
Ni67 Si29 2.468946 1_555
Ni67 Si17 2.659955 1_555
Ni67 Ti14 2.730707 1_555
Ni67 Ti17 2.730722 1_555
Ni67 Ti25 2.772597 1_555
Ni68 Si10 2.360083 1_555
Ni68 Si9 2.360094 1_555
Ni68 Si61 2.442528 1_555
Ni68 Si25 2.468946 1_555
Ni68 Si30 2.468946 1_555
Ni68 Si18 2.659955 1_555
Ni68 Ti16 2.730707 1_555
Ni68 Ti17 2.730722 1_555
Ni68 Ti21 2.772597 1_556
Ni69 Si11 2.360081 1_555
Ni69 Si9 2.360081 1_555
Ni69 Si61 2.442515 1_555
Ni69 Si28 2.468946 1_555
Ni69 Si31 2.468946 1_555
Ni69 Si19 2.659941 1_555
Ni69 Ti14 2.730719 1_555
Ni69 Ti16 2.730719 1_555
Ni69 Ti24 2.772597 1_556
Ni70 Si10 2.360083 1_555
Ni70 Si11 2.360094 1_555
Ni70 Si61 2.442528 1_555
Ni70 Si32 2.468946 1_555
Ni70 Si29 2.468946 1_555
Ni70 Si20 2.659955 1_555
Ni70 Ti14 2.730707 1_555
Ni70 Ti17 2.730722 1_555
Ni70 Ti25 2.772597 1_556
Ni71 Si7 2.360083 1_555
Ni71 Si6 2.360094 1_555
Ni71 Si60 2.442528 1_555
Ni71 Si33 2.468946 1_555
Ni71 Si26 2.468946 1_555
Ni71 Si21 2.659955 1_555
Ni71 Ti15 2.730707 1_555
Ni71 Ti18 2.730722 1_555
Ni71 Ti22 2.772597 1_556
Ni72 Si8 2.360081 1_555
Ni72 Si6 2.360081 1_555
Ni72 Si60 2.442515 1_555
Ni72 Si34 2.468946 1_555
Ni72 Si27 2.468946 1_555
Ni72 Si22 2.659941 1_555
Ni72 Ti15 2.730719 1_555
Ni72 Ti19 2.730719 1_555
Ni72 Ti23 2.772597 1_556
Ni73 Si7 2.360083 1_555
Ni73 Si8 2.360094 1_555
Ni73 Si60 2.442528 1_555
Ni73 Si24 2.468946 1_555
Ni73 Si35 2.468946 1_555
Ni73 Si23 2.659955 1_555
Ni73 Ti19 2.730707 1_555
Ni73 Ti18 2.730722 1_555
Ni73 Ti20 2.772597 1_556
Ni74 Si35 2.324757 1_555
Ni74 Si24 2.324757 1_555
Ni74 Si23 2.345583 1_555
Ni74 Si12 2.345583 1_555
Ni74 Si56 2.425243 1_555
Ni74 Si58 2.425243 1_555
Ni74 Ti4 2.789983 1_555
Ni74 Ti10 2.789983 1_555
Ni74 Ti12 2.789983 1_555
Ni74 Ti6 2.789983 1_555
Ni75 Si30 2.324757 1_555
Ni75 Si25 2.324757 1_555
Ni75 Si13 2.345583 1_555
Ni75 Si18 2.345583 1_555
Ni75 Si59 2.425243 1_655
Ni75 Si57 2.425243 1_555
Ni75 Ti7 2.789983 1_655
Ni75 Ti11 2.789983 1_655
Ni75 Ti5 2.789983 1_555
Ni75 Ti9 2.789983 1_555
Ni76 Si26 2.324757 1_555
Ni76 Si33 2.324757 1_555
Ni76 Si21 2.345583 1_555
Ni76 Si14 2.345583 1_555
Ni76 Si55 2.425243 1_565
Ni76 Si57 2.425243 1_555
Ni76 Ti13 2.789983 1_565
Ni76 Ti3 2.789983 1_565
Ni76 Ti5 2.789983 1_555
Ni76 Ti9 2.789983 1_555
Ni77 Si27 2.324757 1_555
Ni77 Si34 2.324757 1_555
Ni77 Si22 2.345589 1_555
Ni77 Si15 2.345589 1_555
Ni77 Si54 2.425243 1_565
Ni77 Si59 2.425243 1_555
Ni77 Ti8 2.789983 1_565
Ni77 Ti2 2.789983 1_565
Ni77 Ti7 2.789983 1_555
Ni77 Ti11 2.789983 1_555
Ni78 Si31 2.324757 1_555
Ni78 Si28 2.324757 1_555
Ni78 Si19 2.345589 1_555
Ni78 Si16 2.345589 1_555
Ni78 Si55 2.425243 1_555
Ni78 Si56 2.425243 1_655
Ni78 Ti4 2.789983 1_655
Ni78 Ti10 2.789983 1_655
Ni78 Ti13 2.789983 1_555
Ni78 Ti3 2.789983 1_555
Ni79 Si29 2.324757 1_555
Ni79 Si32 2.324757 1_555
Ni79 Si20 2.345583 1_555
Ni79 Si17 2.345583 1_555
Ni79 Si54 2.425243 1_555
Ni79 Si58 2.425243 1_555
Ni79 Ti2 2.789983 1_555
Ni79 Ti8 2.789983 1_555
Ni79 Ti12 2.789983 1_555
Ni79 Ti6 2.789983 1_555
