# generated using pymatgen
data_Li7Sc9Fe(SiO3)20
_symmetry_space_group_name_H-M   'P 1'
_cell_length_a   9.04703500
_cell_length_b   11.17419429
_cell_length_c   12.89305146
_cell_angle_alpha   104.65034199
_cell_angle_beta   90.02144639
_cell_angle_gamma   113.87557878
_symmetry_Int_Tables_number   1
_chemical_formula_structural   Li7Sc9Fe(SiO3)20
_chemical_formula_sum   'Li7 Sc9 Fe1 Si20 O60'
_cell_volume   1145.31160577
_cell_formula_units_Z   1
loop_
 _symmetry_equiv_pos_site_id
 _symmetry_equiv_pos_as_xyz
  1  'x, y, z'
loop_
 _atom_site_type_symbol
 _atom_site_label
 _atom_site_symmetry_multiplicity
 _atom_site_fract_x
 _atom_site_fract_y
 _atom_site_fract_z
 _atom_site_occupancy
  Li  Li0  1  0.70109800  0.89967700  0.05107100  1
  Li  Li1  1  0.49932300  0.50042100  0.25066400  1
  Li  Li2  1  0.29878800  0.10154600  0.45057600  1
  Li  Li3  1  0.69352800  0.89960500  0.54973100  1
  Li  Li4  1  0.09679700  0.69837100  0.64803500  1
  Li  Li5  1  0.89980900  0.30090400  0.84992900  1
  Li  Li6  1  0.29974200  0.10118300  0.95113100  1
  Sc  Sc0  1  0.05823100  0.89494400  0.05207600  1
  Sc  Sc1  1  0.74895200  0.69875000  0.15169500  1
  Sc  Sc2  1  0.86176100  0.50026800  0.25083600  1
  Sc  Sc3  1  0.54989600  0.30255100  0.35058300  1
  Sc  Sc4  1  0.65985000  0.10319000  0.44835600  1
  Sc  Sc5  1  0.45571400  0.69702200  0.65142000  1
  Sc  Sc6  1  0.14651000  0.49978100  0.75010200  1
  Sc  Sc7  1  0.26202800  0.30441700  0.84780100  1
  Sc  Sc8  1  0.94570800  0.09892000  0.94879600  1
  Fe  Fe0  1  0.34878900  0.89975700  0.54937700  1
  Si  Si0  1  0.59798100  0.36963600  0.01669500  1
  Si  Si1  1  0.12766800  0.42639600  0.08075300  1
  Si  Si2  1  0.67289800  0.17167000  0.11676300  1
  Si  Si3  1  0.20004300  0.22750800  0.18301300  1
  Si  Si4  1  0.93244600  0.02590600  0.28277900  1
  Si  Si5  1  0.40096600  0.97380000  0.21946200  1
  Si  Si6  1  0.47037800  0.77240400  0.31797300  1
  Si  Si7  1  0.00458800  0.82702900  0.38601300  1
  Si  Si8  1  0.19948100  0.57722800  0.41812500  1
  Si  Si9  1  0.72818500  0.63085900  0.48449800  1
  Si  Si10  1  0.26839800  0.37232400  0.51620400  1
  Si  Si11  1  0.79632200  0.42821500  0.58396700  1
  Si  Si12  1  0.99799600  0.17022900  0.61618200  1
  Si  Si13  1  0.52288300  0.22251700  0.68131300  1
  Si  Si14  1  0.60055800  0.02749700  0.78104500  1
  Si  Si15  1  0.07996100  0.97325000  0.71470200  1
  Si  Si16  1  0.80618200  0.77383800  0.81721100  1
  Si  Si17  1  0.32780800  0.82962400  0.88245200  1
  Si  Si18  1  0.86754900  0.56922000  0.91523800  1
  Si  Si19  1  0.39870200  0.63026700  0.98454800  1
  O  O0  1  0.61931200  0.23267200  0.02611600  1
  O  O1  1  0.13952600  0.11049100  0.06510000  1
  O  O2  1  0.80562500  0.11424800  0.07013800  1
  O  O3  1  0.58800400  0.68534400  0.03184400  1
  O  O4  1  0.91797900  0.68774600  0.03111700  1
  O  O5  1  0.28537800  0.56375200  0.07384100  1
  O  O6  1  0.51616200  0.03527200  0.12952900  1
  O  O7  1  0.97937500  0.46426700  0.12260400  1
  O  O8  1  0.65809200  0.48761600  0.13429200  1
  O  O9  1  0.17984600  0.36364100  0.17017700  1
  O  O10  1  0.39005700  0.28566700  0.22958100  1
  O  O11  1  0.87588800  0.90886400  0.16497000  1
  O  O12  1  0.72065800  0.29048900  0.23225100  1
  O  O13  1  0.21482900  0.93417700  0.17831400  1
  O  O14  1  0.08574300  0.16322400  0.27183200  1
  O  O15  1  0.42328100  0.83867400  0.22986900  1
  O  O16  1  0.78233700  0.05972000  0.32651000  1
  O  O17  1  0.93226600  0.70980900  0.26991300  1
  O  O18  1  0.46376800  0.09114100  0.33735500  1
  O  O19  1  0.60823800  0.72019600  0.27421000  1
  O  O20  1  0.31428500  0.63412000  0.32643200  1
  O  O21  1  0.67042000  0.51402800  0.36662300  1
  O  O22  1  0.01268100  0.53785300  0.37901500  1
  O  O23  1  0.99403800  0.96749900  0.37261200  1
  O  O24  1  0.22522900  0.44390700  0.43009500  1
  O  O25  1  0.73025300  0.31036500  0.46752400  1
  O  O26  1  0.40142500  0.31514700  0.46993900  1
  O  O27  1  0.19531100  0.88406400  0.43268500  1
  O  O28  1  0.52128500  0.88822200  0.43730200  1
  O  O29  1  0.88860000  0.76774700  0.47643900  1
  O  O30  1  0.11109900  0.23601800  0.52746200  1
  O  O31  1  0.46779400  0.10262100  0.56424700  1
  O  O32  1  0.80753400  0.11101800  0.57072800  1
  O  O33  1  0.59565500  0.68870500  0.52988100  1
  O  O34  1  0.26471500  0.69699600  0.53545700  1
  O  O35  1  0.77532400  0.56461300  0.57303600  1
  O  O36  1  0.02336800  0.03515100  0.62684500  1
  O  O37  1  0.98662500  0.48541600  0.62991700  1
  O  O38  1  0.31945400  0.49026300  0.63282100  1
  O  O39  1  0.68201200  0.35615700  0.67013900  1
  O  O40  1  0.37525200  0.26279600  0.71963700  1
  O  O41  1  0.53421000  0.91136700  0.66209700  1
  O  O42  1  0.05730400  0.28768800  0.73389900  1
  O  O43  1  0.21178700  0.91491500  0.66659300  1
  O  O44  1  0.57910300  0.16485100  0.77326000  1
  O  O45  1  0.92737900  0.83431600  0.72854500  1
  O  O46  1  0.79078600  0.08027500  0.82466100  1
  O  O47  1  0.26957500  0.71164700  0.76476700  1
  O  O48  1  0.13386200  0.08899600  0.83303700  1
  O  O49  1  0.62239400  0.74108500  0.77379300  1
  O  O50  1  0.82208200  0.63525600  0.82521100  1
  O  O51  1  0.33056800  0.51186900  0.86836900  1
  O  O52  1  0.00278400  0.51421900  0.87019700  1
  O  O53  1  0.48585100  0.96375800  0.86966200  1
  O  O54  1  0.71201000  0.43297100  0.92733900  1
  O  O55  1  0.07378000  0.30925300  0.96259500  1
  O  O56  1  0.40838000  0.31435100  0.97081600  1
  O  O57  1  0.19538700  0.88630600  0.92870700  1
  O  O58  1  0.86669600  0.88998700  0.93558500  1
  O  O59  1  0.37990200  0.76645000  0.97135000  1
loop_
_geom_bond_atom_site_label_1
_geom_bond_atom_site_label_2
_geom_bond_distance
_geom_bond_site_symmetry_2
Li0 O11 2.111457 1_555
Li0 O58 2.127134 1_554
Li0 O3 2.135452 1_555
Li0 O2 2.137686 1_565
Li1 O21 2.084983 1_555
Li1 O8 2.096246 1_555
Li1 O10 2.135230 1_555
Li1 O19 2.181253 1_555
Li2 O18 2.104396 1_555
Li2 O31 2.111973 1_555
Li2 O26 2.127384 1_555
Li2 O27 2.170261 1_545
Li3 O41 2.062093 1_555
Li3 O28 2.071289 1_555
Li3 O33 2.099720 1_555
Li3 O32 2.102799 1_565
Li4 O34 2.103360 1_555
Li4 O47 2.104302 1_555
Li4 O37 2.123485 1_455
Li4 O43 2.159561 1_555
Li5 O42 2.085709 1_655
Li5 O55 2.099257 1_655
Li5 O52 2.122497 1_655
Li5 O46 2.186777 1_555
Li6 O48 2.077731 1_555
Li6 O1 2.077810 1_556
Li6 O56 2.122050 1_555
Li6 O57 2.133941 1_545
Fe0 O27 1.972356 1_555
Fe0 O43 1.972502 1_555
Fe0 O31 2.034414 1_565
Fe0 O34 2.035504 1_555
Fe0 O28 2.147164 1_555
Fe0 O41 2.160926 1_555
O0 Si0 1.651489 1_555
O0 Si2 1.653974 1_555
O1 Si3 1.653787 1_555
O1 Sc0 2.175233 1_545
O1 Sc8 2.248638 1_454
O2 Si2 1.626068 1_555
O2 Sc8 2.030934 1_554
O3 Si19 1.624757 1_554
O3 Sc1 2.057938 1_555
O4 Si18 1.644331 1_554
O4 Sc0 2.085343 1_655
O4 Sc1 2.197200 1_555
O5 Si1 1.641949 1_555
O5 Si19 1.657050 1_554
O6 Si5 1.651280 1_545
O6 Si2 1.654797 1_555
O7 Si1 1.617029 1_655
O7 Sc2 2.009690 1_555
O8 Si0 1.655441 1_555
O8 Sc1 2.110524 1_555
O8 Sc2 2.313566 1_555
O9 Si1 1.649358 1_555
O9 Si3 1.651387 1_555
O10 Si3 1.623421 1_555
O10 Sc3 2.046741 1_555
O11 Si4 1.652948 1_565
O11 Sc1 2.115295 1_555
O11 Sc0 2.226925 1_655
O12 Si2 1.643687 1_555
O12 Sc2 2.115460 1_555
O12 Sc3 2.190616 1_555
O13 Si5 1.609427 1_555
O13 Sc0 1.995742 1_555
O14 Si4 1.638545 1_455
O14 Si3 1.646920 1_555
O15 Si5 1.639468 1_555
O15 Si6 1.643411 1_555
O16 Si4 1.616518 1_555
O16 Sc4 1.995721 1_555
O17 Si7 1.642608 1_655
O17 Sc2 2.109340 1_555
O17 Sc1 2.196772 1_555
O18 Si5 1.655472 1_545
O18 Sc3 2.126709 1_555
O18 Sc4 2.218224 1_555
O19 Si6 1.623974 1_555
O19 Sc1 2.056737 1_555
O20 Si6 1.647044 1_555
O20 Si8 1.651391 1_555
O21 Si9 1.652462 1_555
O21 Sc3 2.117234 1_555
O21 Sc2 2.313033 1_555
O22 Si8 1.609074 1_555
O22 Sc2 1.988672 1_455
O23 Si4 1.659582 1_565
O23 Si7 1.661679 1_655
O24 Si8 1.641537 1_555
O24 Si10 1.651262 1_555
O25 Si11 1.645431 1_555
O25 Sc4 2.083964 1_555
O25 Sc3 2.181635 1_555
O26 Si10 1.625617 1_555
O26 Sc3 2.058442 1_555
O27 Si7 1.631129 1_555
O28 Si6 1.662474 1_555
O28 Sc4 2.179667 1_565
O29 Si7 1.651685 1_655
O29 Si9 1.655361 1_555
O30 Si12 1.647183 1_455
O30 Si10 1.650298 1_555
O31 Si13 1.660558 1_555
O31 Sc4 2.291175 1_555
O32 Si12 1.621896 1_555
O32 Sc4 2.028821 1_555
O33 Si9 1.623077 1_555
O33 Sc5 2.022401 1_555
O34 Si8 1.662440 1_555
O34 Sc5 2.284450 1_555
O35 Si9 1.647891 1_555
O35 Si11 1.649838 1_555
O36 Si15 1.645076 1_545
O36 Si12 1.653859 1_455
O37 Si11 1.624983 1_555
O37 Sc6 2.050303 1_655
O38 Si10 1.647787 1_555
O38 Sc5 2.080612 1_555
O38 Sc6 2.191115 1_555
O39 Si13 1.640733 1_555
O39 Si11 1.652724 1_555
O40 Si13 1.614076 1_555
O40 Sc7 1.998564 1_555
O41 Si14 1.660802 1_565
O41 Sc5 2.171676 1_555
O42 Si12 1.654008 1_455
O42 Sc6 2.124342 1_555
O42 Sc7 2.280534 1_555
O43 Si15 1.630144 1_555
O44 Si14 1.650000 1_555
O44 Si13 1.652432 1_555
O45 Si15 1.659249 1_655
O45 Si16 1.660630 1_555
O46 Si14 1.623508 1_555
O46 Sc8 2.040256 1_555
O47 Si17 1.656225 1_555
O47 Sc6 2.125978 1_555
O47 Sc5 2.258773 1_555
O48 Si15 1.651991 1_545
O48 Sc7 2.164194 1_555
O48 Sc8 2.282194 1_455
O49 Si16 1.617114 1_555
O49 Sc5 2.002481 1_555
O50 Si16 1.640249 1_555
O50 Si18 1.655166 1_555
O51 Si19 1.646426 1_555
O51 Sc7 2.086572 1_555
O51 Sc6 2.197269 1_555
O52 Si18 1.624974 1_455
O52 Sc6 2.039429 1_555
O53 Si14 1.644328 1_565
O53 Si17 1.645745 1_555
O54 Si18 1.645735 1_555
O54 Si0 1.647630 1_556
O55 Si1 1.657122 1_556
O55 Sc8 2.117064 1_455
O55 Sc7 2.264925 1_555
O56 Si0 1.621871 1_556
O56 Sc7 2.017758 1_555
O57 Si17 1.617337 1_555
O57 Sc0 2.024803 1_556
O58 Si16 1.653995 1_555
O58 Sc8 2.106754 1_565
O58 Sc0 2.267112 1_656
O59 Si17 1.646915 1_555
O59 Si19 1.647435 1_555
