# generated using pymatgen
data_Fe7S8
_symmetry_space_group_name_H-M   'P 1'
_cell_length_a   6.24971232
_cell_length_b   12.07402683
_cell_length_c   5.71834054
_cell_angle_alpha   89.93923913
_cell_angle_beta   89.92158309
_cell_angle_gamma   113.39735277
_symmetry_Int_Tables_number   1
_chemical_formula_structural   Fe7S8
_chemical_formula_sum   'Fe14 S16'
_cell_volume   396.01931911
_cell_formula_units_Z   2
loop_
 _symmetry_equiv_pos_site_id
 _symmetry_equiv_pos_as_xyz
  1  'x, y, z'
loop_
 _atom_site_type_symbol
 _atom_site_label
 _atom_site_symmetry_multiplicity
 _atom_site_fract_x
 _atom_site_fract_y
 _atom_site_fract_z
 _atom_site_occupancy
  Fe  Fe0  1  0.04533500  0.01090700  0.98581300  1
  Fe  Fe1  1  0.28349100  0.14547900  0.53960800  1
  Fe  Fe2  1  0.45098700  0.98201700  0.47676600  1
  Fe  Fe3  1  0.54483000  0.26748200  0.98012200  1
  Fe  Fe4  1  0.71536200  0.10316500  0.03769900  1
  Fe  Fe5  1  0.96057600  0.24080800  0.49038100  1
  Fe  Fe6  1  0.95135500  0.47920400  0.01709600  1
  Fe  Fe7  1  0.25117200  0.37464900  0.00160300  1
  Fe  Fe8  1  0.53869600  0.50852800  0.51118700  1
  Fe  Fe9  1  0.21296100  0.60349000  0.46298200  1
  Fe  Fe10  1  0.46550200  0.74299500  0.00833700  1
  Fe  Fe11  1  0.78757800  0.64561600  0.96402700  1
  Fe  Fe12  1  0.74910000  0.87571400  0.50006100  1
  Fe  Fe13  1  0.04610200  0.76961100  0.51752500  1
  S  S0  1  0.61516800  0.19279400  0.33761000  1
  S  S1  1  0.86857800  0.06314100  0.67778100  1
  S  S2  1  0.89015200  0.29748300  0.83845700  1
  S  S3  1  0.13346800  0.18724400  0.17677600  1
  S  S4  1  0.11077200  0.42188600  0.32612500  1
  S  S5  1  0.38650800  0.32746300  0.67447800  1
  S  S6  1  0.36569600  0.56323600  0.82347600  1
  S  S7  1  0.61007900  0.45212300  0.16190500  1
  S  S8  1  0.63357000  0.68726300  0.32514100  1
  S  S9  1  0.88352600  0.55621700  0.66388300  1
  S  S10  1  0.88484300  0.82804100  0.82800800  1
  S  S11  1  0.11874100  0.69399200  0.16392300  1
  S  S12  1  0.10888700  0.95251100  0.33755600  1
  S  S13  1  0.38908900  0.79888800  0.66105200  1
  S  S14  1  0.60980300  0.92206700  0.17542400  1
  S  S15  1  0.38807400  0.05598700  0.83519900  1
loop_
_geom_bond_atom_site_label_1
_geom_bond_atom_site_label_2
_geom_bond_distance
_geom_bond_site_symmetry_2
Fe0 S15 2.166627 1_555
Fe0 S12 2.218592 1_546
Fe0 S10 2.223318 1_445
Fe0 S3 2.259221 1_556
Fe0 S1 2.297173 1_455
Fe0 S14 2.721361 1_446
Fe1 S5 2.172271 1_555
Fe1 S0 2.238079 1_555
Fe1 S15 2.238726 1_555
Fe1 S3 2.411800 1_555
Fe1 S12 2.438050 1_545
Fe1 S1 2.506400 1_455
Fe2 S12 2.175338 1_555
Fe2 S14 2.246554 1_555
Fe2 S15 2.331064 1_565
Fe2 S13 2.337468 1_555
Fe2 S0 2.466221 1_565
Fe2 S1 2.659366 1_565
Fe3 S2 2.195185 1_555
Fe3 S5 2.264822 1_555
Fe3 S0 2.344943 1_556
Fe3 S7 2.345410 1_556
Fe3 S15 2.487414 1_555
Fe3 S3 2.612336 1_556
Fe4 S14 2.164688 1_545
Fe4 S15 2.220755 1_554
Fe4 S0 2.245800 1_555
Fe4 S1 2.398038 1_554
Fe4 S2 2.439558 1_554
Fe4 S3 2.528173 1_655
Fe5 S0 2.184390 1_555
Fe5 S2 2.205317 1_555
Fe5 S4 2.215114 1_655
Fe5 S1 2.257102 1_555
Fe5 S3 2.313846 1_655
Fe5 S5 2.662131 1_655
Fe6 S7 2.186888 1_555
Fe6 S4 2.268078 1_655
Fe6 S2 2.311533 1_554
Fe6 S9 2.331376 1_554
Fe6 S11 2.525304 1_655
Fe6 S6 2.619918 1_654
Fe7 S5 2.218066 1_554
Fe7 S4 2.221306 1_555
Fe7 S7 2.255582 1_555
Fe7 S2 2.273150 1_454
Fe7 S3 2.309914 1_555
Fe7 S6 2.330941 1_554
Fe8 S9 2.181526 1_555
Fe8 S7 2.212203 1_555
Fe8 S5 2.213085 1_555
Fe8 S8 2.262240 1_555
Fe8 S6 2.314894 1_555
Fe8 S4 2.674841 1_555
Fe9 S4 2.172797 1_555
Fe9 S9 2.223364 1_455
Fe9 S11 2.230499 1_555
Fe9 S6 2.401790 1_555
Fe9 S13 2.450936 1_555
Fe9 S8 2.536792 1_555
Fe10 S11 2.193954 1_555
Fe10 S14 2.204337 1_555
Fe10 S13 2.209746 1_554
Fe10 S6 2.269072 1_554
Fe10 S8 2.324209 1_555
Fe10 S10 2.615182 1_554
Fe11 S10 2.181204 1_555
Fe11 S11 2.231393 1_656
Fe11 S9 2.232855 1_555
Fe11 S8 2.413408 1_556
Fe11 S7 2.429326 1_556
Fe11 S6 2.551826 1_555
Fe12 S14 2.215053 1_555
Fe12 S10 2.226593 1_555
Fe12 S13 2.259478 1_555
Fe12 S12 2.261835 1_655
Fe12 S1 2.318712 1_565
Fe12 S8 2.324030 1_555
Fe13 S13 2.190225 1_555
Fe13 S10 2.286498 1_455
Fe13 S12 2.322864 1_555
Fe13 S11 2.336419 1_555
Fe13 S9 2.507037 1_455
Fe13 S8 2.611543 1_455
