# generated using pymatgen
data_HoTa7O19
_symmetry_space_group_name_H-M   'P 1'
_cell_length_a   6.26360967
_cell_length_b   6.26360967
_cell_length_c   20.09300400
_cell_angle_alpha   90.00000000
_cell_angle_beta   90.00000000
_cell_angle_gamma   119.99999653
_symmetry_Int_Tables_number   1
_chemical_formula_structural   HoTa7O19
_chemical_formula_sum   'Ho2 Ta14 O38'
_cell_volume   682.69211937
_cell_formula_units_Z   2
loop_
 _symmetry_equiv_pos_site_id
 _symmetry_equiv_pos_as_xyz
  1  'x, y, z'
loop_
 _atom_site_type_symbol
 _atom_site_label
 _atom_site_symmetry_multiplicity
 _atom_site_fract_x
 _atom_site_fract_y
 _atom_site_fract_z
 _atom_site_occupancy
  Ho  Ho0  1  0.66666700  0.33333300  0.00000000  1
  Ho  Ho1  1  0.66666700  0.33333300  0.50000000  1
  Ta  Ta0  1  0.69371200  0.02708000  0.15537700  1
  Ta  Ta1  1  0.69371200  0.02708000  0.34462300  1
  Ta  Ta2  1  0.97292000  0.30628800  0.65537700  1
  Ta  Ta3  1  0.97292000  0.30628800  0.84462300  1
  Ta  Ta4  1  0.69371200  0.66663100  0.84462300  1
  Ta  Ta5  1  0.69371200  0.66663100  0.65537700  1
  Ta  Ta6  1  0.00000000  0.00000000  0.50000000  1
  Ta  Ta7  1  0.00000000  0.00000000  0.00000000  1
  Ta  Ta8  1  0.97292000  0.66663100  0.15537700  1
  Ta  Ta9  1  0.97292000  0.66663100  0.34462300  1
  Ta  Ta10  1  0.33336900  0.30628800  0.15537700  1
  Ta  Ta11  1  0.33336900  0.30628800  0.34462300  1
  Ta  Ta12  1  0.33336900  0.02708000  0.84462300  1
  Ta  Ta13  1  0.33336900  0.02708000  0.65537700  1
  O  O0  1  0.33304200  0.41919900  0.65322500  1
  O  O1  1  0.33304200  0.41919900  0.84677500  1
  O  O2  1  0.37596400  0.29312100  0.25000000  1
  O  O3  1  0.58080100  0.66695800  0.34677500  1
  O  O4  1  0.58080100  0.66695800  0.15322500  1
  O  O5  1  0.37596400  0.08284300  0.75000000  1
  O  O6  1  0.33304200  0.91384300  0.15322500  1
  O  O7  1  0.33304200  0.91384300  0.34677500  1
  O  O8  1  0.70687900  0.62403600  0.75000000  1
  O  O9  1  0.66666700  0.33333300  0.13071800  1
  O  O10  1  0.66666700  0.33333300  0.86928200  1
  O  O11  1  0.66666700  0.33333300  0.63071800  1
  O  O12  1  0.66666700  0.33333300  0.36928200  1
  O  O13  1  0.91715700  0.62403600  0.25000000  1
  O  O14  1  0.58080100  0.91384300  0.65322500  1
  O  O15  1  0.58080100  0.91384300  0.84677500  1
  O  O16  1  0.70687900  0.08284300  0.25000000  1
  O  O17  1  0.76092800  0.05076900  0.05543000  1
  O  O18  1  0.76092800  0.05076900  0.44457000  1
  O  O19  1  0.08615700  0.66695800  0.84677500  1
  O  O20  1  0.08615700  0.66695800  0.65322500  1
  O  O21  1  0.91715700  0.29312100  0.75000000  1
  O  O22  1  0.94923100  0.23907200  0.94457000  1
  O  O23  1  0.94923100  0.23907200  0.55543000  1
  O  O24  1  0.08615700  0.41919900  0.15322500  1
  O  O25  1  0.08615700  0.41919900  0.34677500  1
  O  O26  1  0.76092800  0.71015900  0.55543000  1
  O  O27  1  0.76092800  0.71015900  0.94457000  1
  O  O28  1  0.00000000  0.00000000  0.33365900  1
  O  O29  1  0.00000000  0.00000000  0.83365900  1
  O  O30  1  0.00000000  0.00000000  0.66634100  1
  O  O31  1  0.00000000  0.00000000  0.16634100  1
  O  O32  1  0.94923100  0.71015900  0.05543000  1
  O  O33  1  0.94923100  0.71015900  0.44457000  1
  O  O34  1  0.28984100  0.23907200  0.05543000  1
  O  O35  1  0.28984100  0.23907200  0.44457000  1
  O  O36  1  0.28984100  0.05076900  0.55543000  1
  O  O37  1  0.28984100  0.05076900  0.94457000  1
loop_
_geom_bond_atom_site_label_1
_geom_bond_atom_site_label_2
_geom_bond_distance
_geom_bond_site_symmetry_2
Ho0 O22 2.401341 1_554
Ho0 O17 2.401341 1_555
Ho0 O32 2.401345 1_555
Ho0 O37 2.401345 1_554
Ho0 O27 2.401346 1_554
Ho0 O34 2.401346 1_555
Ho0 O9 2.626517 1_555
Ho0 O10 2.626517 1_554
Ho1 O23 2.401341 1_555
Ho1 O18 2.401341 1_555
Ho1 O33 2.401345 1_555
Ho1 O36 2.401345 1_555
Ho1 O26 2.401346 1_555
Ho1 O35 2.401346 1_555
Ho1 O11 2.626517 1_555
Ho1 O12 2.626517 1_555
O0 Ta2 1.998697 1_455
O0 Ta5 2.001533 1_555
O0 Ta13 2.457486 1_555
O1 Ta3 1.998697 1_455
O1 Ta4 2.001533 1_555
O1 Ta12 2.457486 1_555
O2 Ta11 1.927376 1_555
O2 Ta10 1.927376 1_555
O3 Ta1 1.998697 1_565
O3 Ta11 2.001533 1_555
O3 Ta9 2.457486 1_555
O4 Ta0 1.998697 1_565
O4 Ta10 2.001533 1_555
O4 Ta8 2.457486 1_555
O5 Ta12 1.927377 1_555
O5 Ta13 1.927377 1_555
O6 Ta8 1.998698 1_455
O6 Ta0 2.001534 1_565
O6 Ta10 2.457479 1_565
O7 Ta9 1.998698 1_455
O7 Ta1 2.001534 1_565
O7 Ta11 2.457479 1_565
O8 Ta5 1.927376 1_555
O8 Ta4 1.927376 1_555
O9 Ta0 2.068531 1_555
O9 Ta10 2.068531 1_555
O9 Ta8 2.068531 1_555
O10 Ta3 2.068531 1_555
O10 Ta4 2.068531 1_555
O10 Ta12 2.068531 1_555
O11 Ta2 2.068531 1_555
O11 Ta5 2.068531 1_555
O11 Ta13 2.068531 1_555
O12 Ta1 2.068531 1_555
O12 Ta11 2.068531 1_555
O12 Ta9 2.068531 1_555
O13 Ta9 1.927377 1_555
O13 Ta8 1.927377 1_555
O14 Ta5 1.998703 1_555
O14 Ta13 2.001528 1_565
O14 Ta2 2.457483 1_565
O15 Ta4 1.998703 1_555
O15 Ta12 2.001528 1_565
O15 Ta3 2.457483 1_565
O16 Ta1 1.927377 1_555
O16 Ta0 1.927377 1_555
O17 Ta7 2.014976 1_655
O17 Ta0 2.042011 1_555
O18 Ta6 2.014976 1_655
O18 Ta1 2.042011 1_555
O19 Ta12 1.998698 1_565
O19 Ta3 2.001534 1_455
O19 Ta4 2.457479 1_455
O20 Ta13 1.998698 1_565
O20 Ta2 2.001534 1_455
O20 Ta5 2.457479 1_455
O21 Ta3 1.927377 1_555
O21 Ta2 1.927377 1_555
O22 Ta7 2.014976 1_656
O22 Ta3 2.042011 1_555
O23 Ta6 2.014976 1_655
O23 Ta2 2.042011 1_555
O24 Ta10 1.998703 1_555
O24 Ta8 2.001528 1_455
O24 Ta0 2.457483 1_455
O25 Ta11 1.998703 1_555
O25 Ta9 2.001528 1_455
O25 Ta1 2.457483 1_455
O26 Ta6 2.014976 1_665
O26 Ta5 2.042011 1_555
O27 Ta7 2.014976 1_666
O27 Ta4 2.042011 1_555
O28 Ta1 2.020701 1_455
O28 Ta11 2.020704 1_555
O28 Ta9 2.020707 1_445
O29 Ta3 2.020701 1_455
O29 Ta4 2.020704 1_445
O29 Ta12 2.020707 1_555
O30 Ta2 2.020701 1_455
O30 Ta5 2.020704 1_445
O30 Ta13 2.020707 1_555
O31 Ta0 2.020701 1_455
O31 Ta10 2.020704 1_555
O31 Ta8 2.020707 1_445
O32 Ta7 2.014976 1_665
O32 Ta8 2.042012 1_555
O33 Ta6 2.014976 1_665
O33 Ta9 2.042012 1_555
O34 Ta7 2.014976 1_555
O34 Ta10 2.042011 1_555
O35 Ta6 2.014976 1_555
O35 Ta11 2.042011 1_555
O36 Ta6 2.014976 1_555
O36 Ta13 2.042012 1_555
O37 Ta7 2.014976 1_556
O37 Ta12 2.042012 1_555
