# generated using pymatgen
data_Li2TlBi
_symmetry_space_group_name_H-M   'P 1'
_cell_length_a   5.05822459
_cell_length_b   5.05822459
_cell_length_c   5.05822459
_cell_angle_alpha   60.00000000
_cell_angle_beta   60.00000000
_cell_angle_gamma   60.00000000
_symmetry_Int_Tables_number   1
_chemical_formula_structural   Li2TlBi
_chemical_formula_sum   'Li2 Tl1 Bi1'
_cell_volume   91.51227000
_cell_formula_units_Z   1
loop_
 _symmetry_equiv_pos_site_id
 _symmetry_equiv_pos_as_xyz
  1  'x, y, z'
loop_
 _atom_site_type_symbol
 _atom_site_label
 _atom_site_symmetry_multiplicity
 _atom_site_fract_x
 _atom_site_fract_y
 _atom_site_fract_z
 _atom_site_occupancy
  Li  Li0  1  0.00000000  0.00000000  0.00000000  1
  Li  Li1  1  0.49999900  0.49999900  0.49999900  1
  Tl  Tl0  1  0.75000000  0.75000000  0.75000000  1
  Bi  Bi0  1  0.24999900  0.24999900  0.24999900  1
loop_
_geom_bond_atom_site_label_1
_geom_bond_atom_site_label_2
_geom_bond_distance
_geom_bond_site_symmetry_2
Li0 Tl0 3.097517 1_454
Li0 Tl0 3.097517 1_544
Li0 Tl0 3.097517 1_445
Li0 Tl0 3.097517 1_444
Li1 Tl0 3.097513 1_554
Li1 Tl0 3.097513 1_455
Li1 Tl0 3.097513 1_545
Li1 Tl0 3.097530 1_555
Bi0 Li0 3.097505 1_555
Bi0 Li1 3.097517 1_555
Bi0 Li1 3.097517 1_455
Bi0 Li1 3.097517 1_554
Bi0 Li1 3.097517 1_545
Bi0 Li0 3.097521 1_565
Bi0 Li0 3.097521 1_655
Bi0 Li0 3.097521 1_556
