# generated using pymatgen
data_LiFeP2O7
_symmetry_space_group_name_H-M   'P 1'
_cell_length_a   9.70418800
_cell_length_b   9.70751544
_cell_length_c   11.09988243
_cell_angle_alpha   89.81947935
_cell_angle_beta   78.15618155
_cell_angle_gamma   89.93936070
_symmetry_Int_Tables_number   1
_chemical_formula_structural   LiFeP2O7
_chemical_formula_sum   'Li8 Fe8 P16 O56'
_cell_volume   1023.38209963
_cell_formula_units_Z   8
loop_
 _symmetry_equiv_pos_site_id
 _symmetry_equiv_pos_as_xyz
  1  'x, y, z'
loop_
 _atom_site_type_symbol
 _atom_site_label
 _atom_site_symmetry_multiplicity
 _atom_site_fract_x
 _atom_site_fract_y
 _atom_site_fract_z
 _atom_site_occupancy
  Li  Li0  1  0.17186900  0.57563800  0.45800700  1
  Li  Li1  1  0.41418600  0.40264000  0.02578300  1
  Li  Li2  1  0.35077900  0.06504500  0.52772100  1
  Li  Li3  1  0.84858700  0.41496100  0.04313500  1
  Li  Li4  1  0.64810500  0.89861500  0.95688800  1
  Li  Li5  1  0.91772500  0.09950100  0.02719200  1
  Li  Li6  1  0.82684100  0.41442400  0.54328800  1
  Li  Li7  1  0.87808100  0.72130200  0.45092800  1
  Fe  Fe0  1  0.20322800  0.07969400  0.32550100  1
  Fe  Fe1  1  0.25034200  0.79184900  0.17133000  1
  Fe  Fe2  1  0.24616100  0.28258700  0.82438500  1
  Fe  Fe3  1  0.29735500  0.58173800  0.67844300  1
  Fe  Fe4  1  0.69963200  0.41740800  0.32800200  1
  Fe  Fe5  1  0.74634400  0.71299200  0.17321700  1
  Fe  Fe6  1  0.74599500  0.21636900  0.82271500  1
  Fe  Fe7  1  0.79317400  0.92645200  0.66838400  1
  P  P0  1  0.02347100  0.55102600  0.24561200  1
  P  P1  1  0.11710400  0.28981700  0.11359400  1
  P  P2  1  0.06532300  0.07787500  0.75993700  1
  P  P3  1  0.12151300  0.85298700  0.57762400  1
  P  P4  1  0.37720100  0.35349900  0.42417700  1
  P  P5  1  0.43417300  0.57617900  0.23663100  1
  P  P6  1  0.52167300  0.94809800  0.25454400  1
  P  P7  1  0.38471700  0.79061500  0.88772400  1
  P  P8  1  0.61198100  0.20891100  0.11459400  1
  P  P9  1  0.47415300  0.05379500  0.75330600  1
  P  P10  1  0.56542400  0.42202900  0.75999000  1
  P  P11  1  0.61968400  0.64810700  0.57892300  1
  P  P12  1  0.87716900  0.14414100  0.42534900  1
  P  P13  1  0.93405400  0.92336000  0.23677700  1
  P  P14  1  0.89209800  0.71433700  0.88714800  1
  P  P15  1  0.97678100  0.45103000  0.75266000  1
  O  O0  1  0.01655200  0.58096400  0.38014900  1
  O  O1  1  0.03338900  0.15418000  0.42939100  1
  O  O2  1  0.08650800  0.91305900  0.26474300  1
  O  O3  1  0.10414100  0.40738900  0.21911100  1
  O  O4  1  0.10749800  0.65443300  0.15620200  1
  O  O5  1  0.17621900  0.16824700  0.17441500  1
  O  O6  1  0.22334700  0.34324500  0.99843600  1
  O  O7  1  0.03332400  0.73792400  0.91102300  1
  O  O8  1  0.11696800  0.92851600  0.70710500  1
  O  O9  1  0.07183900  0.08820700  0.89331800  1
  O  O10  1  0.13028300  0.45872000  0.77829300  1
  O  O11  1  0.17986800  0.70833700  0.59313400  1
  O  O12  1  0.17233400  0.18313800  0.68994200  1
  O  O13  1  0.21198700  0.94088500  0.47791300  1
  O  O14  1  0.28594300  0.44000900  0.52357600  1
  O  O15  1  0.32872100  0.68498900  0.30274100  1
  O  O16  1  0.32157000  0.20804700  0.40679900  1
  O  O17  1  0.36837100  0.96170100  0.22521800  1
  O  O18  1  0.37605800  0.42960200  0.29452900  1
  O  O19  1  0.43175800  0.57436300  0.10292700  1
  O  O20  1  0.47198600  0.23706800  0.08781100  1
  O  O21  1  0.27922900  0.84148000  0.00372100  1
  O  O22  1  0.32491300  0.66901400  0.82578900  1
  O  O23  1  0.39445600  0.90980900  0.78234700  1
  O  O24  1  0.41235500  0.41115600  0.73476600  1
  O  O25  1  0.39110400  0.15567600  0.84746200  1
  O  O26  1  0.46735200  0.65407900  0.56713900  1
  O  O27  1  0.52505300  0.91477200  0.38299700  1
  O  O28  1  0.47978000  0.08843000  0.62240200  1
  O  O29  1  0.53249300  0.34753900  0.43407300  1
  O  O30  1  0.60898300  0.85395400  0.15101800  1
  O  O31  1  0.58736200  0.58790000  0.26582400  1
  O  O32  1  0.59958000  0.09588900  0.22156000  1
  O  O33  1  0.68647400  0.33076600  0.16731300  1
  O  O34  1  0.72032000  0.15051100  0.99858800  1
  O  O35  1  0.52805600  0.77084200  0.91239200  1
  O  O36  1  0.57507100  0.40970300  0.89292600  1
  O  O37  1  0.62300700  0.56886300  0.70689300  1
  O  O38  1  0.62786400  0.03801700  0.78465600  1
  O  O39  1  0.68925300  0.78685600  0.59264100  1
  O  O40  1  0.67329800  0.31604600  0.68941100  1
  O  O41  1  0.71785200  0.56400700  0.47723100  1
  O  O42  1  0.79070900  0.06488500  0.53233700  1
  O  O43  1  0.84096600  0.80259800  0.29997000  1
  O  O44  1  0.81867000  0.28928700  0.40588700  1
  O  O45  1  0.87075700  0.53206100  0.21714500  1
  O  O46  1  0.92156300  0.92805200  0.10524000  1
  O  O47  1  0.86945000  0.06387200  0.29969700  1
  O  O48  1  0.97310300  0.27190000  0.08625900  1
  O  O49  1  0.78648900  0.65393200  0.00456400  1
  O  O50  1  0.81639900  0.83383800  0.83128900  1
  O  O51  1  0.88871300  0.35222700  0.85121000  1
  O  O52  1  0.89928000  0.59626500  0.78110000  1
  O  O53  1  0.91073600  0.09104400  0.73552000  1
  O  O54  1  0.96713500  0.84072100  0.56310000  1
  O  O55  1  0.97422100  0.41854900  0.62208400  1
loop_
_geom_bond_atom_site_label_1
_geom_bond_atom_site_label_2
_geom_bond_distance
_geom_bond_site_symmetry_2
Li0 O0 1.885606 1_555
Li0 O14 1.951982 1_555
Li0 O11 1.993812 1_555
Li0 O15 2.308459 1_555
Li1 O20 1.876614 1_555
Li1 O19 1.900196 1_555
Li1 O36 1.916102 1_554
Li1 O6 2.021974 1_554
Li2 O28 1.807017 1_555
Li2 O13 1.971220 1_545
Li2 O16 1.988109 1_555
Li2 O12 2.506793 1_555
Li2 O27 2.542258 1_545
Li3 O48 1.961514 1_555
Li3 O33 2.036736 1_555
Li3 O51 2.174402 1_554
Li3 O45 2.292176 1_555
Li3 O49 2.454519 1_555
Li4 O35 1.839214 1_555
Li4 O50 2.018654 1_555
Li4 O30 2.152672 1_556
Li4 O38 2.379484 1_565
Li4 O34 2.613173 1_565
Li5 O46 1.877757 1_545
Li5 O9 1.882888 1_654
Li5 O48 1.916489 1_555
Li5 O34 2.064562 1_554
Li6 O55 1.823698 1_555
Li6 O44 1.967107 1_555
Li6 O41 2.018204 1_555
Li6 O40 2.182681 1_555
Li7 O43 1.949107 1_555
Li7 O0 1.961723 1_655
Li7 O54 2.023337 1_555
Li7 O41 2.156468 1_555
Li7 O39 2.248934 1_555
Fe0 O5 1.947045 1_555
Fe0 O1 1.947200 1_555
Fe0 O16 2.030068 1_555
Fe0 O17 2.095516 1_545
Fe0 O2 2.163044 1_545
Fe0 O13 2.174721 1_545
Fe1 O21 1.884808 1_555
Fe1 O4 1.957051 1_555
Fe1 O15 2.055838 1_555
Fe1 O2 2.077101 1_555
Fe1 O17 2.163282 1_555
Fe2 O25 1.924590 1_555
Fe2 O6 1.989844 1_555
Fe2 O12 2.030184 1_555
Fe2 O24 2.118064 1_555
Fe2 O10 2.162475 1_555
Fe2 O9 2.544415 1_555
Fe3 O22 1.911285 1_555
Fe3 O26 1.975180 1_555
Fe3 O11 2.034633 1_555
Fe3 O10 2.131019 1_555
Fe3 O24 2.157387 1_555
Fe3 O14 2.225655 1_555
Fe4 O29 1.921033 1_555
Fe4 O33 2.002053 1_555
Fe4 O44 2.007187 1_555
Fe4 O45 2.160339 1_555
Fe4 O31 2.167987 1_555
Fe4 O41 2.221679 1_555
Fe5 O49 1.921428 1_555
Fe5 O30 1.959306 1_555
Fe5 O43 2.029529 1_555
Fe5 O31 2.063142 1_555
Fe5 O45 2.238763 1_555
Fe6 O51 1.985905 1_555
Fe6 O40 2.010317 1_555
Fe6 O34 2.018560 1_555
Fe6 O53 2.083452 1_555
Fe6 O38 2.167443 1_555
Fe6 O36 2.520502 1_555
Fe7 O39 1.979479 1_555
Fe7 O42 2.022096 1_565
Fe7 O54 2.025219 1_555
Fe7 O50 2.070118 1_555
Fe7 O38 2.137126 1_565
Fe7 O53 2.184054 1_565
O0 P0 1.510160 1_555
O1 P12 1.529049 1_455
O2 P13 1.575791 1_455
O3 P0 1.596667 1_555
O3 P1 1.624153 1_555
O4 P0 1.523407 1_555
O5 P1 1.526472 1_555
O6 P1 1.556229 1_556
O7 P14 1.466634 1_455
O8 P2 1.606385 1_565
O8 P3 1.608008 1_555
O9 P2 1.498451 1_555
O10 P15 1.574744 1_455
O11 P3 1.535868 1_555
O12 P2 1.546685 1_555
O13 P3 1.523361 1_555
O14 P4 1.519872 1_555
O15 P5 1.547818 1_555
O16 P4 1.538963 1_555
O17 P6 1.592062 1_555
O18 P5 1.613339 1_555
O18 P4 1.617617 1_555
O19 P5 1.489245 1_555
O20 P8 1.474180 1_555
O21 P7 1.552872 1_554
O22 P7 1.540522 1_555
O23 P9 1.597766 1_565
O23 P7 1.631631 1_555
O24 P10 1.570736 1_555
O25 P9 1.542404 1_555
O26 P11 1.511575 1_555
O27 P6 1.467974 1_555
O28 P9 1.480433 1_555
O29 P4 1.534319 1_555
O30 P6 1.574452 1_555
O31 P5 1.589396 1_555
O32 P8 1.600429 1_555
O32 P6 1.627666 1_545
O33 P8 1.563361 1_555
O34 P8 1.591352 1_556
O35 P7 1.483952 1_555
O36 P10 1.501988 1_555
O37 P10 1.597673 1_555
O37 P11 1.619368 1_555
O38 P9 1.606796 1_555
O39 P11 1.529227 1_555
O40 P10 1.560207 1_555
O41 P11 1.552712 1_555
O42 P12 1.514197 1_555
O43 P13 1.555405 1_555
O44 P12 1.549504 1_555
O45 P0 1.588434 1_655
O46 P13 1.490207 1_555
O47 P13 1.601820 1_545
O47 P12 1.614897 1_555
O48 P1 1.499989 1_655
O49 P14 1.594030 1_554
O50 P14 1.565386 1_555
O51 P15 1.567895 1_555
O52 P15 1.598788 1_555
O52 P14 1.636725 1_555
O53 P2 1.583191 1_655
O54 P3 1.544069 1_655
O55 P15 1.489433 1_555
