# generated using pymatgen
data_ThNb4O12
_symmetry_space_group_name_H-M   'P 1'
_cell_length_a   11.97588008
_cell_length_b   11.97588008
_cell_length_c   11.97588008
_cell_angle_alpha   152.94345047
_cell_angle_beta   96.08688022
_cell_angle_gamma   90.19512719
_symmetry_Int_Tables_number   1
_chemical_formula_structural   ThNb4O12
_chemical_formula_sum   'Th3 Nb12 O36'
_cell_volume   758.48752304
_cell_formula_units_Z   3
loop_
 _symmetry_equiv_pos_site_id
 _symmetry_equiv_pos_as_xyz
  1  'x, y, z'
loop_
 _atom_site_type_symbol
 _atom_site_label
 _atom_site_symmetry_multiplicity
 _atom_site_fract_x
 _atom_site_fract_y
 _atom_site_fract_z
 _atom_site_occupancy
  Th  Th0  1  0.00000000  0.00000000  0.00000000  1
  Th  Th1  1  0.82780200  0.32780200  0.50000000  1
  Th  Th2  1  0.17219800  0.67219800  0.50000000  1
  Nb  Nb0  1  0.96038400  0.82662900  0.13375500  1
  Nb  Nb1  1  0.69287400  0.82662900  0.86624500  1
  Nb  Nb2  1  0.53363600  0.15726300  0.37637400  1
  Nb  Nb3  1  0.78088900  0.15726300  0.62362600  1
  Nb  Nb4  1  0.61973000  0.50000000  0.11973000  1
  Nb  Nb5  1  0.13575800  0.50000000  0.63575800  1
  Nb  Nb6  1  0.38027000  0.50000000  0.88027000  1
  Nb  Nb7  1  0.86424200  0.50000000  0.36424200  1
  Nb  Nb8  1  0.21911100  0.84273700  0.37637400  1
  Nb  Nb9  1  0.46636400  0.84273700  0.62362600  1
  Nb  Nb10  1  0.30712600  0.17337100  0.13375500  1
  Nb  Nb11  1  0.03961600  0.17337100  0.86624500  1
  O  O0  1  0.00000000  0.50000000  0.50000000  1
  O  O1  1  0.84587300  0.84587300  0.00000000  1
  O  O2  1  0.64776600  0.49264700  0.61935100  1
  O  O3  1  0.87329600  0.02841500  0.38064900  1
  O  O4  1  0.64776600  0.02841500  0.15511900  1
  O  O5  1  0.87329600  0.49264700  0.84488100  1
  O  O6  1  0.68207000  0.18207000  0.50000000  1
  O  O7  1  0.42265300  0.17031500  0.25233800  1
  O  O8  1  0.91797600  0.17031500  0.74766200  1
  O  O9  1  0.18768300  0.32788500  0.35510000  1
  O  O10  1  0.97278500  0.32788500  0.14020200  1
  O  O11  1  0.70659500  0.33687300  0.87413900  1
  O  O12  1  0.46273400  0.33687300  0.63027800  1
  O  O13  1  0.18768300  0.83258300  0.85979800  1
  O  O14  1  0.97278500  0.83258300  0.64490000  1
  O  O15  1  0.46273400  0.83245600  0.12586100  1
  O  O16  1  0.70659500  0.83245600  0.36972200  1
  O  O17  1  0.50000000  0.50000000  0.00000000  1
  O  O18  1  0.25170000  0.50000000  0.75170000  1
  O  O19  1  0.74830000  0.50000000  0.24830000  1
  O  O20  1  0.29340500  0.16754400  0.63027800  1
  O  O21  1  0.02721500  0.16741700  0.35510000  1
  O  O22  1  0.53726600  0.66312700  0.36972200  1
  O  O23  1  0.29340500  0.66312700  0.12586100  1
  O  O24  1  0.53726600  0.16754400  0.87413900  1
  O  O25  1  0.02721500  0.67211500  0.85979800  1
  O  O26  1  0.81231700  0.16741700  0.14020200  1
  O  O27  1  0.81231700  0.67211500  0.64490000  1
  O  O28  1  0.57734700  0.82968500  0.74766200  1
  O  O29  1  0.08202400  0.82968500  0.25233800  1
  O  O30  1  0.31793000  0.81793000  0.50000000  1
  O  O31  1  0.12670400  0.50735300  0.15511900  1
  O  O32  1  0.35223400  0.50735300  0.38064900  1
  O  O33  1  0.35223400  0.97158500  0.84488100  1
  O  O34  1  0.12670400  0.97158500  0.61935100  1
  O  O35  1  0.15412700  0.15412700  0.00000000  1
loop_
_geom_bond_atom_site_label_1
_geom_bond_atom_site_label_2
_geom_bond_distance
_geom_bond_site_symmetry_2
Nb0 O29 1.899623 1_655
Nb0 O3 1.901239 1_565
Nb0 O5 1.901239 1_554
Nb0 O21 2.140688 1_665
Nb0 O25 2.140688 1_654
Nb0 O1 2.166439 1_555
Nb1 O28 1.899615 1_555
Nb1 O4 1.901239 1_566
Nb1 O2 1.901239 1_555
Nb1 O26 2.140688 1_566
Nb1 O27 2.140688 1_555
Nb1 O1 2.166439 1_556
Nb2 O12 1.871962 1_555
Nb2 O15 1.871967 1_545
Nb2 O7 1.998447 1_555
Nb2 O6 2.023620 1_555
Nb2 O2 2.184080 1_555
Nb2 O4 2.184083 1_555
Nb3 O11 1.871970 1_555
Nb3 O16 1.871970 1_545
Nb3 O8 1.998445 1_555
Nb3 O6 2.023611 1_555
Nb3 O5 2.184074 1_555
Nb3 O3 2.184074 1_555
Nb4 O17 1.917279 1_555
Nb4 O11 1.994464 1_554
Nb4 O24 1.994464 1_554
Nb4 O22 1.994464 1_555
Nb4 O16 1.994464 1_555
Nb4 O19 2.058837 1_555
Nb5 O18 1.856621 1_555
Nb5 O9 2.011182 1_555
Nb5 O13 2.011182 1_555
Nb5 O25 2.011182 1_555
Nb5 O21 2.011182 1_555
Nb5 O0 2.173941 1_555
Nb6 O17 1.917279 1_556
Nb6 O15 1.994464 1_556
Nb6 O12 1.994464 1_555
Nb6 O20 1.994464 1_555
Nb6 O23 1.994464 1_556
Nb6 O18 2.058837 1_555
Nb7 O19 1.856621 1_555
Nb7 O14 2.011182 1_555
Nb7 O27 2.011182 1_555
Nb7 O10 2.011182 1_555
Nb7 O26 2.011182 1_555
Nb7 O0 2.173941 1_655
Nb8 O23 1.871970 1_555
Nb8 O20 1.871970 1_565
Nb8 O29 1.998445 1_555
Nb8 O30 2.023611 1_555
Nb8 O31 2.184074 1_555
Nb8 O34 2.184074 1_555
Nb9 O22 1.871962 1_555
Nb9 O24 1.871967 1_565
Nb9 O28 1.998447 1_555
Nb9 O30 2.023620 1_555
Nb9 O32 2.184080 1_555
Nb9 O33 2.184083 1_555
Nb10 O7 1.899615 1_555
Nb10 O33 1.901239 1_544
Nb10 O32 1.901239 1_555
Nb10 O13 2.140688 1_544
Nb10 O9 2.140688 1_555
Nb10 O35 2.166439 1_555
Nb11 O8 1.899623 1_455
Nb11 O34 1.901239 1_545
Nb11 O31 1.901239 1_556
Nb11 O14 2.140688 1_445
Nb11 O10 2.140688 1_456
Nb11 O35 2.166439 1_556
O0 Th0 2.801460 1_566
O0 Th0 2.801460 1_555
O0 Th2 2.911453 1_555
O0 Th1 2.911453 1_455
O1 Th0 2.605916 1_665
O1 Th1 2.818072 1_554
O1 Th1 2.818072 1_565
O2 Th1 2.499149 1_555
O3 Th1 2.499149 1_555
O4 Th1 2.499149 1_555
O5 Th1 2.499149 1_555
O6 Th1 2.463977 1_555
O9 Th0 2.593481 1_555
O9 Th2 2.716118 1_555
O10 Th0 2.593481 1_655
O10 Th2 2.716118 1_655
O13 Th0 2.593481 1_566
O13 Th2 2.716118 1_555
O14 Th0 2.593481 1_666
O14 Th2 2.716118 1_655
O21 Th0 2.593481 1_555
O21 Th1 2.716118 1_455
O25 Th0 2.593481 1_566
O25 Th1 2.716118 1_455
O26 Th0 2.593481 1_655
O26 Th1 2.716118 1_555
O27 Th0 2.593481 1_666
O27 Th1 2.716118 1_555
O30 Th2 2.463977 1_555
O31 Th2 2.499149 1_555
O32 Th2 2.499149 1_555
O33 Th2 2.499149 1_555
O34 Th2 2.499149 1_555
O35 Th0 2.605916 1_555
O35 Th2 2.818072 1_555
O35 Th2 2.818072 1_544
