# generated using pymatgen
data_SrCaI4
_symmetry_space_group_name_H-M   'P 1'
_cell_length_a   16.32642800
_cell_length_b   8.10451800
_cell_length_c   8.37030057
_cell_angle_alpha   85.85845286
_cell_angle_beta   90.00000000
_cell_angle_gamma   90.00000000
_symmetry_Int_Tables_number   1
_chemical_formula_structural   SrCaI4
_chemical_formula_sum   'Sr4 Ca4 I16'
_cell_volume   1104.64785831
_cell_formula_units_Z   4
loop_
 _symmetry_equiv_pos_site_id
 _symmetry_equiv_pos_as_xyz
  1  'x, y, z'
loop_
 _atom_site_type_symbol
 _atom_site_label
 _atom_site_symmetry_multiplicity
 _atom_site_fract_x
 _atom_site_fract_y
 _atom_site_fract_z
 _atom_site_occupancy
  Sr  Sr0  1  0.86634600  0.34532200  0.89386700  1
  Sr  Sr1  1  0.63365400  0.34532200  0.39386700  1
  Sr  Sr2  1  0.36634600  0.65467800  0.60613300  1
  Sr  Sr3  1  0.13365400  0.65467800  0.10613300  1
  Ca  Ca0  1  0.13657600  0.22698700  0.74200300  1
  Ca  Ca1  1  0.36342400  0.22698700  0.24200300  1
  Ca  Ca2  1  0.63657600  0.77301300  0.75799700  1
  Ca  Ca3  1  0.86342400  0.77301300  0.25799700  1
  I  I0  1  0.70463500  0.12571600  0.72827200  1
  I  I1  1  0.44983900  0.26884200  0.56839400  1
  I  I2  1  0.27969900  0.40954000  0.92634000  1
  I  I3  1  0.79536500  0.12571600  0.22827200  1
  I  I4  1  0.97026500  0.23450400  0.59208700  1
  I  I5  1  0.05016100  0.26884200  0.06839400  1
  I  I6  1  0.22030100  0.40954000  0.42634000  1
  I  I7  1  0.52973500  0.23450400  0.09208700  1
  I  I8  1  0.47026500  0.76549600  0.90791300  1
  I  I9  1  0.77969900  0.59046000  0.57366000  1
  I  I10  1  0.94983900  0.73115800  0.93160600  1
  I  I11  1  0.02973500  0.76549600  0.40791300  1
  I  I12  1  0.20463500  0.87428400  0.77172800  1
  I  I13  1  0.72030100  0.59046000  0.07366000  1
  I  I14  1  0.55016100  0.73115800  0.43160600  1
  I  I15  1  0.29536500  0.87428400  0.27172800  1
loop_
_geom_bond_atom_site_label_1
_geom_bond_atom_site_label_2
_geom_bond_distance
_geom_bond_site_symmetry_2
Ca0 I4 2.989976 1_455
Ca0 I12 3.060197 1_545
Ca0 I5 3.114995 1_556
Ca0 I2 3.218616 1_555
Ca0 I6 3.236353 1_555
Ca1 I7 2.989976 1_555
Ca1 I15 3.060197 1_545
Ca1 I1 3.114995 1_555
Ca1 I6 3.218616 1_555
Ca1 I2 3.236353 1_554
Ca2 I8 2.989976 1_555
Ca2 I0 3.060197 1_565
Ca2 I14 3.114995 1_555
Ca2 I9 3.218616 1_555
Ca2 I13 3.236353 1_556
Ca3 I11 2.989976 1_655
Ca3 I3 3.060197 1_565
Ca3 I10 3.114995 1_554
Ca3 I13 3.218616 1_555
Ca3 I9 3.236353 1_555
I0 Sr1 3.409674 1_555
I0 Sr0 3.523592 1_555
I1 Sr1 3.375459 1_555
I1 Sr2 3.446569 1_555
I2 Sr3 3.511276 1_556
I2 Sr2 3.516073 1_555
I3 Sr0 3.409674 1_554
I3 Sr1 3.523592 1_555
I4 Sr0 3.223892 1_555
I5 Sr0 3.375459 1_454
I5 Sr3 3.446569 1_555
I6 Sr2 3.511276 1_555
I6 Sr3 3.516073 1_555
I7 Sr1 3.223892 1_555
I8 Sr2 3.223892 1_555
I9 Sr1 3.511276 1_555
I9 Sr0 3.516073 1_555
I10 Sr3 3.375459 1_656
I10 Sr0 3.446569 1_555
I11 Sr3 3.223892 1_555
I12 Sr3 3.409674 1_556
I12 Sr2 3.523592 1_555
I13 Sr0 3.511276 1_554
I13 Sr1 3.516073 1_555
I14 Sr2 3.375459 1_555
I14 Sr1 3.446569 1_555
I15 Sr2 3.409674 1_555
I15 Sr3 3.523592 1_555
