# generated using pymatgen
data_Sr
_symmetry_space_group_name_H-M   'P 1'
_cell_length_a   8.60240790
_cell_length_b   8.60240787
_cell_length_c   28.36964838
_cell_angle_alpha   90.00000000
_cell_angle_beta   90.00000000
_cell_angle_gamma   120.00000844
_symmetry_Int_Tables_number   1
_chemical_formula_structural   Sr
_chemical_formula_sum   Sr32
_cell_volume   1818.12864741
_cell_formula_units_Z   32
loop_
 _symmetry_equiv_pos_site_id
 _symmetry_equiv_pos_as_xyz
  1  'x, y, z'
loop_
 _atom_site_type_symbol
 _atom_site_label
 _atom_site_symmetry_multiplicity
 _atom_site_fract_x
 _atom_site_fract_y
 _atom_site_fract_z
 _atom_site_occupancy
  Sr  Sr0_0  1  0.00000000  0.00000000  0.00000000  1
  Sr  Sr0_1  1  0.00000000  0.00000000  0.50000000  1
  Sr  Sr0_2  1  1.00000000  0.50000000  0.00000000  1
  Sr  Sr0_3  1  1.00000000  0.50000000  0.50000000  1
  Sr  Sr0_4  1  0.50000000  0.00000000  0.00000000  1
  Sr  Sr0_5  1  0.50000000  0.00000000  0.50000000  1
  Sr  Sr0_6  1  0.50000000  0.50000000  0.00000000  1
  Sr  Sr0_7  1  0.50000000  0.50000000  0.50000000  1
  Sr  Sr1_0  1  0.16666700  0.33333400  0.12500000  1
  Sr  Sr1_1  1  0.16666700  0.33333400  0.62500000  1
  Sr  Sr1_2  1  0.16666700  0.83333400  0.12500000  1
  Sr  Sr1_3  1  0.16666700  0.83333400  0.62500000  1
  Sr  Sr1_4  1  0.66666700  0.33333400  0.12500000  1
  Sr  Sr1_5  1  0.66666700  0.33333400  0.62500000  1
  Sr  Sr1_6  1  0.66666700  0.83333400  0.12500000  1
  Sr  Sr1_7  1  0.66666700  0.83333400  0.62500000  1
  Sr  Sr2_0  1  0.00000000  0.00000000  0.25000000  1
  Sr  Sr2_1  1  0.00000000  0.00000000  0.75000000  1
  Sr  Sr2_2  1  1.00000000  0.50000000  0.25000000  1
  Sr  Sr2_3  1  1.00000000  0.50000000  0.75000000  1
  Sr  Sr2_4  1  0.50000000  0.00000000  0.25000000  1
  Sr  Sr2_5  1  0.50000000  0.00000000  0.75000000  1
  Sr  Sr2_6  1  0.50000000  0.50000000  0.25000000  1
  Sr  Sr2_7  1  0.50000000  0.50000000  0.75000000  1
  Sr  Sr3_0  1  0.33333300  0.16666650  0.37500000  1
  Sr  Sr3_1  1  0.33333300  0.16666650  0.87500000  1
  Sr  Sr3_2  1  0.33333300  0.66666650  0.37500000  1
  Sr  Sr3_3  1  0.33333300  0.66666650  0.87500000  1
  Sr  Sr3_4  1  0.83333300  0.16666650  0.37500000  1
  Sr  Sr3_5  1  0.83333300  0.16666650  0.87500000  1
  Sr  Sr3_6  1  0.83333300  0.66666650  0.37500000  1
  Sr  Sr3_7  1  0.83333300  0.66666650  0.87500000  1
loop_
_geom_bond_atom_site_label_1
_geom_bond_atom_site_label_2
_geom_bond_distance
_geom_bond_site_symmetry_2
Sr0_0 Sr0_6 4.301203 1_555
Sr0_0 Sr0_6 4.301203 1_445
Sr0_0 Sr0_2 4.301204 1_445
Sr0_0 Sr0_2 4.301204 1_455
Sr0_0 Sr0_4 4.301204 1_455
Sr0_0 Sr0_4 4.301204 1_555
Sr0_0 Sr3_1 4.329243 1_554
Sr0_0 Sr1_6 4.329243 1_445
Sr0_0 Sr1_2 4.329244 1_545
Sr0_0 Sr3_7 4.329246 1_444
Sr0_0 Sr3_5 4.329246 1_454
Sr0_0 Sr1_0 4.329248 1_555
Sr0_1 Sr0_7 4.301203 1_555
Sr0_1 Sr0_7 4.301203 1_445
Sr0_1 Sr0_3 4.301204 1_445
Sr0_1 Sr0_3 4.301204 1_455
Sr0_1 Sr0_5 4.301204 1_455
Sr0_1 Sr0_5 4.301204 1_555
Sr0_1 Sr3_0 4.329243 1_555
Sr0_1 Sr1_7 4.329243 1_445
Sr0_1 Sr1_3 4.329244 1_545
Sr0_1 Sr3_6 4.329246 1_445
Sr0_1 Sr3_4 4.329246 1_455
Sr0_1 Sr1_1 4.329248 1_555
Sr0_2 Sr0_4 4.301203 1_555
Sr0_2 Sr0_4 4.301203 1_665
Sr0_2 Sr0_6 4.301204 1_555
Sr0_2 Sr0_6 4.301204 1_655
Sr0_2 Sr3_3 4.329243 1_654
Sr0_2 Sr1_4 4.329243 1_555
Sr0_2 Sr1_0 4.329244 1_655
Sr0_2 Sr3_5 4.329246 1_554
Sr0_2 Sr3_7 4.329246 1_554
Sr0_2 Sr1_2 4.329248 1_655
Sr0_3 Sr0_5 4.301203 1_555
Sr0_3 Sr0_5 4.301203 1_665
Sr0_3 Sr0_7 4.301204 1_555
Sr0_3 Sr0_7 4.301204 1_655
Sr0_3 Sr3_2 4.329243 1_655
Sr0_3 Sr1_5 4.329243 1_555
Sr0_3 Sr1_1 4.329244 1_655
Sr0_3 Sr3_4 4.329246 1_555
Sr0_3 Sr3_6 4.329246 1_555
Sr0_3 Sr1_3 4.329248 1_655
Sr0_4 Sr0_6 4.301204 1_555
Sr0_4 Sr0_6 4.301204 1_545
Sr0_4 Sr3_5 4.329243 1_554
Sr0_4 Sr1_2 4.329243 1_545
Sr0_4 Sr1_6 4.329244 1_545
Sr0_4 Sr3_3 4.329246 1_544
Sr0_4 Sr3_1 4.329246 1_554
Sr0_4 Sr1_4 4.329248 1_555
Sr0_5 Sr0_7 4.301204 1_545
Sr0_5 Sr0_7 4.301204 1_555
Sr0_5 Sr3_4 4.329243 1_555
Sr0_5 Sr1_3 4.329243 1_545
Sr0_5 Sr1_7 4.329244 1_545
Sr0_5 Sr3_2 4.329246 1_545
Sr0_5 Sr3_0 4.329246 1_555
Sr0_5 Sr1_5 4.329248 1_555
Sr0_6 Sr3_7 4.329243 1_554
Sr0_6 Sr1_0 4.329243 1_555
Sr0_6 Sr1_4 4.329244 1_555
Sr0_6 Sr3_1 4.329246 1_554
Sr0_6 Sr3_3 4.329246 1_554
Sr0_6 Sr1_6 4.329248 1_555
Sr0_7 Sr3_6 4.329243 1_555
Sr0_7 Sr1_1 4.329243 1_555
Sr0_7 Sr1_5 4.329244 1_555
Sr0_7 Sr3_0 4.329246 1_555
Sr0_7 Sr3_2 4.329246 1_555
Sr0_7 Sr1_7 4.329248 1_555
Sr1_0 Sr1_6 4.301203 1_555
Sr1_0 Sr1_6 4.301203 1_445
Sr1_0 Sr1_2 4.301204 1_555
Sr1_0 Sr1_2 4.301204 1_545
Sr1_0 Sr1_4 4.301204 1_455
Sr1_0 Sr1_4 4.301204 1_555
Sr1_0 Sr2_6 4.329243 1_555
Sr1_0 Sr2_2 4.329244 1_455
Sr1_0 Sr2_0 4.329248 1_555
Sr1_1 Sr1_7 4.301203 1_555
Sr1_1 Sr1_7 4.301203 1_445
Sr1_1 Sr1_3 4.301204 1_555
Sr1_1 Sr1_3 4.301204 1_545
Sr1_1 Sr1_5 4.301204 1_455
Sr1_1 Sr1_5 4.301204 1_555
Sr1_1 Sr2_7 4.329243 1_555
Sr1_1 Sr2_3 4.329244 1_455
Sr1_1 Sr2_1 4.329248 1_555
Sr1_2 Sr1_4 4.301203 1_455
Sr1_2 Sr1_4 4.301203 1_565
Sr1_2 Sr1_6 4.301204 1_455
Sr1_2 Sr1_6 4.301204 1_555
Sr1_2 Sr2_4 4.329243 1_565
Sr1_2 Sr2_0 4.329244 1_565
Sr1_2 Sr2_2 4.329248 1_455
Sr1_3 Sr1_5 4.301203 1_455
Sr1_3 Sr1_5 4.301203 1_565
Sr1_3 Sr1_7 4.301204 1_455
Sr1_3 Sr1_7 4.301204 1_555
Sr1_3 Sr2_5 4.329243 1_565
Sr1_3 Sr2_1 4.329244 1_565
Sr1_3 Sr2_3 4.329248 1_455
Sr1_4 Sr1_6 4.301204 1_555
Sr1_4 Sr1_6 4.301204 1_545
Sr1_4 Sr2_2 4.329243 1_555
Sr1_4 Sr2_6 4.329244 1_555
Sr1_4 Sr2_4 4.329248 1_555
Sr1_5 Sr1_7 4.301204 1_555
Sr1_5 Sr1_7 4.301204 1_545
Sr1_5 Sr2_3 4.329243 1_555
Sr1_5 Sr2_7 4.329244 1_555
Sr1_5 Sr2_5 4.329248 1_555
Sr1_6 Sr2_0 4.329243 1_665
Sr1_6 Sr2_4 4.329244 1_565
Sr1_6 Sr2_6 4.329248 1_555
Sr1_7 Sr2_1 4.329243 1_665
Sr1_7 Sr2_5 4.329244 1_565
Sr1_7 Sr2_7 4.329248 1_555
Sr2_0 Sr2_6 4.301203 1_445
Sr2_0 Sr2_6 4.301203 1_555
Sr2_0 Sr2_2 4.301204 1_445
Sr2_0 Sr2_2 4.301204 1_455
Sr2_0 Sr2_4 4.301204 1_455
Sr2_0 Sr2_4 4.301204 1_555
Sr2_0 Sr3_0 4.329243 1_555
Sr2_0 Sr3_6 4.329246 1_445
Sr2_0 Sr3_4 4.329246 1_455
Sr2_1 Sr2_7 4.301203 1_555
Sr2_1 Sr2_7 4.301203 1_445
Sr2_1 Sr2_3 4.301204 1_445
Sr2_1 Sr2_3 4.301204 1_455
Sr2_1 Sr2_5 4.301204 1_555
Sr2_1 Sr2_5 4.301204 1_455
Sr2_1 Sr3_1 4.329243 1_555
Sr2_1 Sr3_7 4.329246 1_445
Sr2_1 Sr3_5 4.329246 1_455
Sr2_2 Sr2_4 4.301203 1_555
Sr2_2 Sr2_4 4.301203 1_665
Sr2_2 Sr2_6 4.301204 1_555
Sr2_2 Sr2_6 4.301204 1_655
Sr2_2 Sr3_2 4.329243 1_655
Sr2_2 Sr3_4 4.329246 1_555
Sr2_2 Sr3_6 4.329246 1_555
Sr2_3 Sr2_5 4.301203 1_555
Sr2_3 Sr2_5 4.301203 1_665
Sr2_3 Sr2_7 4.301204 1_555
Sr2_3 Sr2_7 4.301204 1_655
Sr2_3 Sr3_3 4.329243 1_655
Sr2_3 Sr3_5 4.329246 1_555
Sr2_3 Sr3_7 4.329246 1_555
Sr2_4 Sr2_6 4.301204 1_555
Sr2_4 Sr2_6 4.301204 1_545
Sr2_4 Sr3_4 4.329243 1_555
Sr2_4 Sr3_2 4.329246 1_545
Sr2_4 Sr3_0 4.329246 1_555
Sr2_5 Sr2_7 4.301204 1_555
Sr2_5 Sr2_7 4.301204 1_545
Sr2_5 Sr3_5 4.329243 1_555
Sr2_5 Sr3_3 4.329246 1_545
Sr2_5 Sr3_1 4.329246 1_555
Sr2_6 Sr3_6 4.329243 1_555
Sr2_6 Sr3_0 4.329246 1_555
Sr2_6 Sr3_2 4.329246 1_555
Sr2_7 Sr3_7 4.329243 1_555
Sr2_7 Sr3_1 4.329246 1_555
Sr2_7 Sr3_3 4.329246 1_555
Sr3_0 Sr3_6 4.301203 1_555
Sr3_0 Sr3_6 4.301203 1_445
Sr3_0 Sr3_2 4.301204 1_545
Sr3_0 Sr3_2 4.301204 1_555
Sr3_0 Sr3_4 4.301204 1_455
Sr3_0 Sr3_4 4.301204 1_555
Sr3_1 Sr3_7 4.301203 1_445
Sr3_1 Sr3_7 4.301203 1_555
Sr3_1 Sr3_3 4.301204 1_545
Sr3_1 Sr3_3 4.301204 1_555
Sr3_1 Sr3_5 4.301204 1_455
Sr3_1 Sr3_5 4.301204 1_555
Sr3_2 Sr3_4 4.301203 1_455
Sr3_2 Sr3_4 4.301203 1_565
Sr3_2 Sr3_6 4.301204 1_455
Sr3_2 Sr3_6 4.301204 1_555
Sr3_3 Sr3_5 4.301203 1_455
Sr3_3 Sr3_5 4.301203 1_565
Sr3_3 Sr3_7 4.301204 1_555
Sr3_3 Sr3_7 4.301204 1_455
Sr3_4 Sr3_6 4.301204 1_545
Sr3_4 Sr3_6 4.301204 1_555
Sr3_5 Sr3_7 4.301204 1_545
Sr3_5 Sr3_7 4.301204 1_555
