# generated using pymatgen
data_Ca2Fe2(SiO3)5
_symmetry_space_group_name_H-M   'P 1'
_cell_length_a   6.69466400
_cell_length_b   7.50116896
_cell_length_c   11.87358788
_cell_angle_alpha   103.47878065
_cell_angle_beta   93.13714106
_cell_angle_gamma   93.78977499
_symmetry_Int_Tables_number   1
_chemical_formula_structural   Ca2Fe2(SiO3)5
_chemical_formula_sum   'Ca4 Fe4 Si10 O30'
_cell_volume   577.06104049
_cell_formula_units_Z   2
loop_
 _symmetry_equiv_pos_site_id
 _symmetry_equiv_pos_as_xyz
  1  'x, y, z'
loop_
 _atom_site_type_symbol
 _atom_site_label
 _atom_site_symmetry_multiplicity
 _atom_site_fract_x
 _atom_site_fract_y
 _atom_site_fract_z
 _atom_site_occupancy
  Ca  Ca0  1  0.83865500  0.71678100  0.04445500  1
  Ca  Ca1  1  0.16134500  0.28321900  0.95554500  1
  Ca  Ca2  1  0.70280900  0.26995000  0.48246900  1
  Ca  Ca3  1  0.29719100  0.73005000  0.51753100  1
  Fe  Fe0  1  0.93335900  0.90892000  0.35004900  1
  Fe  Fe1  1  0.06664100  0.09108000  0.64995100  1
  Fe  Fe2  1  0.81470500  0.44909600  0.76935200  1
  Fe  Fe3  1  0.18529500  0.55090400  0.23064800  1
  Si  Si0  1  0.42289600  0.96480800  0.31302900  1
  Si  Si1  1  0.57710400  0.03519200  0.68697100  1
  Si  Si2  1  0.34615400  0.78629500  0.05344500  1
  Si  Si3  1  0.65384600  0.21370500  0.94655500  1
  Si  Si4  1  0.11758400  0.82007100  0.83590400  1
  Si  Si5  1  0.88241600  0.17992900  0.16409600  1
  Si  Si6  1  0.31658300  0.47845300  0.71149200  1
  Si  Si7  1  0.68341700  0.52154700  0.28850800  1
  Si  Si8  1  0.20940300  0.30582700  0.44273000  1
  Si  Si9  1  0.79059700  0.69417300  0.55727000  1
  O  O0  1  0.38196800  0.18297200  0.37642800  1
  O  O1  1  0.61803200  0.81702800  0.62357200  1
  O  O2  1  0.64409200  0.95299100  0.37771200  1
  O  O3  1  0.35590800  0.04700900  0.62228800  1
  O  O4  1  0.23519300  0.83471700  0.34667600  1
  O  O5  1  0.76480700  0.16528300  0.65332400  1
  O  O6  1  0.41970800  0.94342700  0.17512900  1
  O  O7  1  0.58029200  0.05657300  0.82487100  1
  O  O8  1  0.17207400  0.63998700  0.08520100  1
  O  O9  1  0.82792600  0.36001300  0.91479900  1
  O  O10  1  0.52822100  0.69793000  0.99089400  1
  O  O11  1  0.47177900  0.30207000  0.00910600  1
  O  O12  1  0.25936500  0.69551100  0.74013900  1
  O  O13  1  0.74063500  0.30448900  0.25986100  1
  O  O14  1  0.92340100  0.69046300  0.85302900  1
  O  O15  1  0.07659900  0.30953700  0.14697100  1
  O  O16  1  0.06582800  0.00016300  0.78820000  1
  O  O17  1  0.93417200  0.99983700  0.21180000  1
  O  O18  1  0.53043900  0.44129600  0.76109800  1
  O  O19  1  0.46956100  0.55870400  0.23890200  1
  O  O20  1  0.12717000  0.35098700  0.74345500  1
  O  O21  1  0.87283000  0.64901300  0.25654500  1
  O  O22  1  0.32872200  0.42808200  0.56640500  1
  O  O23  1  0.67127800  0.57191800  0.43359500  1
  O  O24  1  0.02948100  0.16384400  0.46948100  1
  O  O25  1  0.97051900  0.83615600  0.53051900  1
  O  O26  1  0.14780900  0.46788400  0.38274000  1
  O  O27  1  0.85219100  0.53211600  0.61726000  1
  O  O28  1  0.22227800  0.90094800  0.96834300  1
  O  O29  1  0.77772200  0.09905200  0.03165700  1
loop_
_geom_bond_atom_site_label_1
_geom_bond_atom_site_label_2
_geom_bond_distance
_geom_bond_site_symmetry_2
Ca0 O10 2.125592 1_554
Ca0 O14 2.339607 1_554
Ca0 O8 2.393738 1_655
Ca0 O17 2.565141 1_555
Ca0 O21 2.683563 1_555
Ca0 O9 2.752996 1_554
Ca0 O29 2.960220 1_565
Ca1 O11 2.125592 1_556
Ca1 O15 2.339607 1_556
Ca1 O9 2.393738 1_455
Ca1 O16 2.565141 1_555
Ca1 O20 2.683563 1_555
Ca1 O8 2.752996 1_556
Ca1 O28 2.960220 1_545
Ca2 O27 2.350856 1_555
Ca2 O5 2.365919 1_555
Ca2 O24 2.376942 1_655
Ca2 O0 2.400071 1_555
Ca2 O2 2.408069 1_545
Ca2 O23 2.484878 1_555
Ca2 O13 2.738858 1_555
Ca2 O22 2.964288 1_555
Ca3 O26 2.350856 1_555
Ca3 O4 2.365919 1_555
Ca3 O25 2.376942 1_455
Ca3 O1 2.400071 1_555
Ca3 O3 2.408069 1_565
Ca3 O22 2.484878 1_555
Ca3 O12 2.738858 1_555
Ca3 O23 2.964288 1_555
Fe0 O17 1.918867 1_555
Fe0 O21 2.008748 1_555
Fe0 O2 2.017674 1_555
Fe0 O4 2.131126 1_655
Fe0 O24 2.134249 1_665
Fe0 O25 2.335880 1_555
Fe1 O16 1.918867 1_555
Fe1 O20 2.008748 1_555
Fe1 O3 2.017674 1_555
Fe1 O5 2.131126 1_455
Fe1 O25 2.134249 1_445
Fe1 O24 2.335880 1_555
Fe2 O18 1.896544 1_555
Fe2 O14 1.924273 1_555
Fe2 O9 1.991449 1_555
Fe2 O27 2.065233 1_555
Fe2 O5 2.242824 1_555
Fe2 O20 2.276047 1_655
Fe3 O19 1.896544 1_555
Fe3 O15 1.924273 1_555
Fe3 O8 1.991449 1_555
Fe3 O26 2.065233 1_555
Fe3 O4 2.242824 1_555
Fe3 O21 2.276047 1_455
O0 Si8 1.644911 1_555
O0 Si0 1.681487 1_545
O1 Si9 1.644911 1_555
O1 Si1 1.681487 1_565
O2 Si0 1.647782 1_555
O3 Si1 1.647782 1_555
O4 Si0 1.662984 1_555
O5 Si1 1.662984 1_555
O6 Si0 1.606380 1_555
O6 Si2 1.664571 1_555
O7 Si1 1.606380 1_555
O7 Si3 1.664571 1_555
O8 Si2 1.666355 1_555
O9 Si3 1.666355 1_555
O10 Si2 1.566212 1_556
O11 Si3 1.566212 1_554
O12 Si6 1.658904 1_555
O12 Si4 1.675402 1_555
O13 Si7 1.658904 1_555
O13 Si5 1.675402 1_555
O14 Si4 1.621890 1_655
O15 Si5 1.621890 1_455
O16 Si4 1.631843 1_545
O17 Si5 1.631843 1_565
O18 Si6 1.584720 1_555
O19 Si7 1.584720 1_555
O20 Si6 1.651596 1_555
O21 Si7 1.651596 1_555
O22 Si8 1.668072 1_555
O22 Si6 1.683159 1_555
O23 Si9 1.668072 1_555
O23 Si7 1.683159 1_555
O24 Si8 1.648044 1_555
O25 Si9 1.648044 1_555
O26 Si8 1.610244 1_555
O27 Si9 1.610244 1_555
O28 Si4 1.646379 1_555
O28 Si2 1.690009 1_556
O29 Si5 1.646379 1_555
O29 Si3 1.690009 1_554
