# generated using pymatgen
data_Fe3OF9
_symmetry_space_group_name_H-M   'P 1'
_cell_length_a   7.47577266
_cell_length_b   7.47577266
_cell_length_c   7.60079600
_cell_angle_alpha   90.00000000
_cell_angle_beta   90.00000000
_cell_angle_gamma   119.72612612
_symmetry_Int_Tables_number   1
_chemical_formula_structural   Fe3OF9
_chemical_formula_sum   'Fe6 O2 F18'
_cell_volume   368.88739367
_cell_formula_units_Z   2
loop_
 _symmetry_equiv_pos_site_id
 _symmetry_equiv_pos_as_xyz
  1  'x, y, z'
loop_
 _atom_site_type_symbol
 _atom_site_label
 _atom_site_symmetry_multiplicity
 _atom_site_fract_x
 _atom_site_fract_y
 _atom_site_fract_z
 _atom_site_occupancy
  Fe  Fe0  1  0.50000000  0.50000000  0.00000000  1
  Fe  Fe1  1  0.50000000  0.50000000  0.50000000  1
  Fe  Fe2  1  0.50000000  0.00000000  0.00000000  1
  Fe  Fe3  1  0.00000000  0.50000000  0.00000000  1
  Fe  Fe4  1  0.50000000  0.00000000  0.50000000  1
  Fe  Fe5  1  0.00000000  0.50000000  0.50000000  1
  O  O0  1  0.99944800  0.00055200  0.75000000  1
  O  O1  1  0.00055200  0.99944800  0.25000000  1
  F  F0  1  0.78405500  0.21594500  0.44729300  1
  F  F1  1  0.21594500  0.78405500  0.55270700  1
  F  F2  1  0.78405500  0.21594500  0.05270700  1
  F  F3  1  0.21594500  0.78405500  0.94729300  1
  F  F4  1  0.41901500  0.21071000  0.95679800  1
  F  F5  1  0.21071000  0.41901500  0.04320200  1
  F  F6  1  0.41901500  0.21071000  0.54320200  1
  F  F7  1  0.21071000  0.41901500  0.45679800  1
  F  F8  1  0.58098500  0.78929000  0.04320200  1
  F  F9  1  0.78929000  0.58098500  0.95679800  1
  F  F10  1  0.58098500  0.78929000  0.45679800  1
  F  F11  1  0.78929000  0.58098500  0.54320200  1
  F  F12  1  0.46301700  0.53698300  0.75000000  1
  F  F13  1  0.53698300  0.46301700  0.25000000  1
  F  F14  1  0.57443900  0.00899500  0.75000000  1
  F  F15  1  0.00899500  0.57443900  0.25000000  1
  F  F16  1  0.42556100  0.99100500  0.25000000  1
  F  F17  1  0.99100500  0.42556100  0.75000000  1
loop_
_geom_bond_atom_site_label_1
_geom_bond_atom_site_label_2
_geom_bond_distance
_geom_bond_site_symmetry_2
F0 Fe4 1.968834 1_555
F0 Fe5 1.968834 1_655
F1 Fe5 1.968834 1_555
F1 Fe4 1.968834 1_565
F2 Fe2 1.968834 1_555
F2 Fe3 1.968834 1_655
F3 Fe3 1.968834 1_556
F3 Fe2 1.968834 1_566
F4 Fe0 1.962910 1_556
F4 Fe2 1.975211 1_556
F5 Fe0 1.962910 1_555
F5 Fe3 1.975211 1_555
F6 Fe1 1.962910 1_555
F6 Fe4 1.975211 1_555
F7 Fe1 1.962910 1_555
F7 Fe5 1.975211 1_555
F8 Fe0 1.962910 1_555
F8 Fe2 1.975211 1_565
F9 Fe0 1.962910 1_556
F9 Fe3 1.975211 1_656
F10 Fe1 1.962910 1_555
F10 Fe4 1.975211 1_565
F11 Fe1 1.962910 1_555
F11 Fe5 1.975211 1_655
F12 Fe1 1.959449 1_555
F12 Fe0 1.959449 1_556
F13 Fe1 1.959449 1_555
F13 Fe0 1.959449 1_555
F14 Fe2 1.971763 1_556
F14 Fe4 1.971763 1_555
F15 Fe3 1.971763 1_555
F15 Fe5 1.971763 1_555
F16 Fe4 1.971763 1_565
F16 Fe2 1.971763 1_565
F17 Fe3 1.971763 1_656
F17 Fe5 1.971763 1_655
