# generated using pymatgen
data_Dy2ZnGa
_symmetry_space_group_name_H-M   'P 1'
_cell_length_a   5.01215808
_cell_length_b   5.01215442
_cell_length_c   5.01215735
_cell_angle_alpha   59.99997107
_cell_angle_beta   59.99993723
_cell_angle_gamma   59.99995655
_symmetry_Int_Tables_number   1
_chemical_formula_structural   Dy2ZnGa
_chemical_formula_sum   'Dy2 Zn1 Ga1'
_cell_volume   89.03452739
_cell_formula_units_Z   1
loop_
 _symmetry_equiv_pos_site_id
 _symmetry_equiv_pos_as_xyz
  1  'x, y, z'
loop_
 _atom_site_type_symbol
 _atom_site_label
 _atom_site_symmetry_multiplicity
 _atom_site_fract_x
 _atom_site_fract_y
 _atom_site_fract_z
 _atom_site_occupancy
  Dy  Dy0  1  0.50000000  0.50000000  0.50000000  1
  Dy  Dy1  1  -0.00000000  0.00000000  -0.00000000  1
  Zn  Zn0  1  0.75000100  0.75000100  0.75000100  1
  Ga  Ga0  1  0.25000000  0.25000000  0.25000000  1
loop_
_geom_bond_atom_site_label_1
_geom_bond_atom_site_label_2
_geom_bond_distance
_geom_bond_site_symmetry_2
Dy0 Zn0 3.069300 1_545
Dy0 Zn0 3.069301 1_455
Dy0 Zn0 3.069301 1_554
Dy0 Ga0 3.069304 1_565
Dy0 Ga0 3.069305 1_655
Dy0 Ga0 3.069305 1_556
Dy0 Ga0 3.069308 1_555
Dy0 Zn0 3.069320 1_555
Dy1 Zn0 3.069295 1_444
Dy1 Ga0 3.069304 1_545
Dy1 Ga0 3.069305 1_455
Dy1 Ga0 3.069305 1_554
Dy1 Ga0 3.069308 1_555
Dy1 Zn0 3.069308 1_454
Dy1 Zn0 3.069309 1_544
Dy1 Zn0 3.069309 1_445
