# generated using pymatgen
data_Nb6Cd(Br8O9)2
_symmetry_space_group_name_H-M   'P 1'
_cell_length_a   15.22249862
_cell_length_b   15.22249862
_cell_length_c   15.22249862
_cell_angle_alpha   60.00000000
_cell_angle_beta   60.00000000
_cell_angle_gamma   60.00000000
_symmetry_Int_Tables_number   1
_chemical_formula_structural   Nb6Cd(Br8O9)2
_chemical_formula_sum   'Nb12 Cd2 Br32 O36'
_cell_volume   2494.26637540
_cell_formula_units_Z   2
loop_
 _symmetry_equiv_pos_site_id
 _symmetry_equiv_pos_as_xyz
  1  'x, y, z'
loop_
 _atom_site_type_symbol
 _atom_site_label
 _atom_site_symmetry_multiplicity
 _atom_site_fract_x
 _atom_site_fract_y
 _atom_site_fract_z
 _atom_site_occupancy
  Nb  Nb0  1  0.35198700  0.35198700  0.64801300  1
  Nb  Nb1  1  0.64801300  0.64801300  0.35198700  1
  Nb  Nb2  1  0.35198700  0.64801300  0.35198700  1
  Nb  Nb3  1  0.64801300  0.35198700  0.64801300  1
  Nb  Nb4  1  0.64801300  0.35198700  0.35198700  1
  Nb  Nb5  1  0.35198700  0.64801300  0.64801300  1
  Nb  Nb6  1  0.89801300  0.89801300  0.60198700  1
  Nb  Nb7  1  0.60198700  0.60198700  0.89801300  1
  Nb  Nb8  1  0.89801300  0.60198700  0.89801300  1
  Nb  Nb9  1  0.60198700  0.89801300  0.60198700  1
  Nb  Nb10  1  0.60198700  0.89801300  0.89801300  1
  Nb  Nb11  1  0.89801300  0.60198700  0.60198700  1
  Cd  Cd0  1  0.25000000  0.25000000  0.25000000  1
  Cd  Cd1  1  0.00000000  0.00000000  0.00000000  1
  Br  Br0  1  0.26112500  0.49779300  0.49779300  1
  Br  Br1  1  0.49779300  0.26112500  0.74328800  1
  Br  Br2  1  0.49779300  0.74328800  0.26112500  1
  Br  Br3  1  0.74328800  0.49779300  0.49779300  1
  Br  Br4  1  0.49779300  0.49779300  0.26112500  1
  Br  Br5  1  0.26112500  0.74328800  0.49779300  1
  Br  Br6  1  0.74328800  0.26112500  0.49779300  1
  Br  Br7  1  0.49779300  0.49779300  0.74328800  1
  Br  Br8  1  0.49779300  0.26112500  0.49779300  1
  Br  Br9  1  0.74328800  0.49779300  0.26112500  1
  Br  Br10  1  0.26112500  0.49779300  0.74328800  1
  Br  Br11  1  0.49779300  0.74328800  0.49779300  1
  Br  Br12  1  0.98887500  0.75220700  0.75220700  1
  Br  Br13  1  0.75220700  0.98887500  0.50671200  1
  Br  Br14  1  0.75220700  0.50671200  0.98887500  1
  Br  Br15  1  0.50671200  0.75220700  0.75220700  1
  Br  Br16  1  0.75220700  0.75220700  0.98887500  1
  Br  Br17  1  0.98887500  0.50671200  0.75220700  1
  Br  Br18  1  0.50671200  0.98887500  0.75220700  1
  Br  Br19  1  0.75220700  0.75220700  0.50671200  1
  Br  Br20  1  0.75220700  0.98887500  0.75220700  1
  Br  Br21  1  0.50671200  0.75220700  0.98887500  1
  Br  Br22  1  0.98887500  0.75220700  0.50671200  1
  Br  Br23  1  0.75220700  0.50671200  0.75220700  1
  Br  Br24  1  0.03707900  0.32097400  0.32097400  1
  Br  Br25  1  0.32097400  0.03707900  0.32097400  1
  Br  Br26  1  0.32097400  0.32097400  0.03707900  1
  Br  Br27  1  0.32097400  0.32097400  0.32097400  1
  Br  Br28  1  0.21292100  0.92902600  0.92902600  1
  Br  Br29  1  0.92902600  0.21292100  0.92902600  1
  Br  Br30  1  0.92902600  0.92902600  0.21292100  1
  Br  Br31  1  0.92902600  0.92902600  0.92902600  1
  O  O0  1  0.27244200  0.27244200  0.72755800  1
  O  O1  1  0.72755800  0.72755800  0.27244200  1
  O  O2  1  0.27244200  0.72755800  0.27244200  1
  O  O3  1  0.72755800  0.27244200  0.72755800  1
  O  O4  1  0.72755800  0.27244200  0.27244200  1
  O  O5  1  0.27244200  0.72755800  0.72755800  1
  O  O6  1  0.97755800  0.97755800  0.52244200  1
  O  O7  1  0.52244200  0.52244200  0.97755800  1
  O  O8  1  0.97755800  0.52244200  0.97755800  1
  O  O9  1  0.52244200  0.97755800  0.52244200  1
  O  O10  1  0.52244200  0.97755800  0.97755800  1
  O  O11  1  0.97755800  0.52244200  0.52244200  1
  O  O12  1  0.60039400  0.18323800  0.18323800  1
  O  O13  1  0.18323800  0.60039400  0.03313100  1
  O  O14  1  0.18323800  0.03313100  0.60039400  1
  O  O15  1  0.03313100  0.18323800  0.18323800  1
  O  O16  1  0.18323800  0.18323800  0.60039400  1
  O  O17  1  0.60039400  0.03313100  0.18323800  1
  O  O18  1  0.03313100  0.60039400  0.18323800  1
  O  O19  1  0.18323800  0.18323800  0.03313100  1
  O  O20  1  0.18323800  0.60039400  0.18323800  1
  O  O21  1  0.03313100  0.18323800  0.60039400  1
  O  O22  1  0.60039400  0.18323800  0.03313100  1
  O  O23  1  0.18323800  0.03313100  0.18323800  1
  O  O24  1  0.64960600  0.06676200  0.06676200  1
  O  O25  1  0.06676200  0.64960600  0.21686900  1
  O  O26  1  0.06676200  0.21686900  0.64960600  1
  O  O27  1  0.21686900  0.06676200  0.06676200  1
  O  O28  1  0.06676200  0.06676200  0.64960600  1
  O  O29  1  0.64960600  0.21686900  0.06676200  1
  O  O30  1  0.21686900  0.64960600  0.06676200  1
  O  O31  1  0.06676200  0.06676200  0.21686900  1
  O  O32  1  0.06676200  0.64960600  0.06676200  1
  O  O33  1  0.21686900  0.06676200  0.64960600  1
  O  O34  1  0.64960600  0.06676200  0.21686900  1
  O  O35  1  0.06676200  0.21686900  0.06676200  1
loop_
_geom_bond_atom_site_label_1
_geom_bond_atom_site_label_2
_geom_bond_distance
_geom_bond_site_symmetry_2
Nb0 O0 1.712434 1_555
Nb1 O1 1.712434 1_555
Nb2 O2 1.712434 1_555
Nb3 O3 1.712434 1_555
Nb4 O4 1.712434 1_555
Nb5 O5 1.712434 1_555
Nb6 O6 1.712434 1_555
Nb7 O7 1.712434 1_555
Nb8 O8 1.712434 1_555
Nb9 O9 1.712434 1_555
Nb10 O10 1.712434 1_555
Nb11 O11 1.712434 1_555
Br0 Nb2 2.661954 1_555
Br0 Nb0 2.661954 1_555
Br1 Nb0 2.661944 1_555
Br1 Nb3 2.661957 1_555
Br2 Nb2 2.661944 1_555
Br2 Nb1 2.661957 1_555
Br3 Nb3 2.661946 1_555
Br3 Nb1 2.661946 1_555
Br4 Nb2 2.661954 1_555
Br4 Nb4 2.661954 1_555
Br5 Nb2 2.661944 1_555
Br5 Nb5 2.661957 1_555
Br6 Nb4 2.661944 1_555
Br6 Nb3 2.661957 1_555
Br7 Nb5 2.661946 1_555
Br7 Nb3 2.661946 1_555
Br8 Nb0 2.661954 1_555
Br8 Nb4 2.661954 1_555
Br9 Nb4 2.661944 1_555
Br9 Nb1 2.661957 1_555
Br10 Nb0 2.661944 1_555
Br10 Nb5 2.661957 1_555
Br11 Nb5 2.661946 1_555
Br11 Nb1 2.661946 1_555
Br12 Nb8 2.661954 1_555
Br12 Nb6 2.661954 1_555
Br13 Nb6 2.661944 1_555
Br13 Nb9 2.661957 1_555
Br14 Nb8 2.661944 1_555
Br14 Nb7 2.661957 1_555
Br15 Nb9 2.661946 1_555
Br15 Nb7 2.661946 1_555
Br16 Nb10 2.661954 1_555
Br16 Nb8 2.661954 1_555
Br17 Nb8 2.661944 1_555
Br17 Nb11 2.661957 1_555
Br18 Nb10 2.661944 1_555
Br18 Nb9 2.661957 1_555
Br19 Nb9 2.661946 1_555
Br19 Nb11 2.661946 1_555
Br20 Nb10 2.661954 1_555
Br20 Nb6 2.661954 1_555
Br21 Nb10 2.661944 1_555
Br21 Nb7 2.661957 1_555
Br22 Nb6 2.661944 1_555
Br22 Nb11 2.661957 1_555
Br23 Nb11 2.661946 1_555
Br23 Nb7 2.661946 1_555
Br24 Cd0 2.646420 1_555
Br25 Cd0 2.646420 1_555
Br26 Cd0 2.646420 1_555
Br27 Cd0 2.646433 1_555
Br28 Cd1 2.646420 1_566
Br29 Cd1 2.646420 1_656
Br30 Cd1 2.646420 1_665
Br31 Cd1 2.646433 1_666
O12 O34 1.454155 1_555
O12 O29 1.454155 1_555
O13 O30 1.454131 1_555
O13 O32 1.454155 1_555
O14 O33 1.454131 1_555
O14 O28 1.454155 1_555
O15 O35 1.454158 1_555
O15 O31 1.454158 1_555
O16 O26 1.454155 1_555
O16 O33 1.454155 1_555
O17 O34 1.454131 1_555
O17 O24 1.454155 1_555
O18 O25 1.454131 1_555
O18 O32 1.454155 1_555
O19 O35 1.454158 1_555
O19 O27 1.454158 1_555
O20 O30 1.454155 1_555
O20 O25 1.454155 1_555
O21 O26 1.454131 1_555
O21 O28 1.454155 1_555
O22 O29 1.454131 1_555
O22 O24 1.454155 1_555
O23 O27 1.454158 1_555
O23 O31 1.454158 1_555
