# generated using pymatgen
data_Ca3Sn4S11
_symmetry_space_group_name_H-M   'P 1'
_cell_length_a   9.10138800
_cell_length_b   9.89385720
_cell_length_c   10.42408894
_cell_angle_alpha   99.04432235
_cell_angle_beta   100.28607208
_cell_angle_gamma   106.80523673
_symmetry_Int_Tables_number   1
_chemical_formula_structural   Ca3Sn4S11
_chemical_formula_sum   'Ca6 Sn8 S22'
_cell_volume   862.13494258
_cell_formula_units_Z   2
loop_
 _symmetry_equiv_pos_site_id
 _symmetry_equiv_pos_as_xyz
  1  'x, y, z'
loop_
 _atom_site_type_symbol
 _atom_site_label
 _atom_site_symmetry_multiplicity
 _atom_site_fract_x
 _atom_site_fract_y
 _atom_site_fract_z
 _atom_site_occupancy
  Ca  Ca0  1  0.68616000  0.84340800  0.97190700  1
  Ca  Ca1  1  0.31384000  0.15659200  0.02809300  1
  Ca  Ca2  1  0.12611600  0.71551000  0.87349500  1
  Ca  Ca3  1  0.87388400  0.28449000  0.12650500  1
  Ca  Ca4  1  0.69327800  0.39761200  0.51891800  1
  Ca  Ca5  1  0.30672200  0.60238800  0.48108200  1
  Sn  Sn0  1  0.16533100  0.14606800  0.36035600  1
  Sn  Sn1  1  0.83466900  0.85393200  0.63964400  1
  Sn  Sn2  1  0.07665000  0.24361500  0.72822900  1
  Sn  Sn3  1  0.92335000  0.75638500  0.27177100  1
  Sn  Sn4  1  0.57297300  0.95436400  0.34253200  1
  Sn  Sn5  1  0.42702700  0.04563600  0.65746800  1
  Sn  Sn6  1  0.41147000  0.57991700  0.15309200  1
  Sn  Sn7  1  0.58853000  0.42008300  0.84690800  1
  S  S0  1  0.42720700  0.82764800  0.09165300  1
  S  S1  1  0.57279300  0.17235200  0.90834700  1
  S  S2  1  0.05104400  0.93647300  0.05472600  1
  S  S3  1  0.94895600  0.06352700  0.94527400  1
  S  S4  1  0.79359300  0.64288400  0.75025900  1
  S  S5  1  0.20640700  0.35711600  0.24974100  1
  S  S6  1  0.30569800  0.88573700  0.41257400  1
  S  S7  1  0.69430200  0.11426300  0.58742600  1
  S  S8  1  0.46994100  0.16672900  0.29398900  1
  S  S9  1  0.53005900  0.83327100  0.70601100  1
  S  S10  1  0.06379800  0.57943900  0.08713900  1
  S  S11  1  0.93620200  0.42056100  0.91286100  1
  S  S12  1  0.39244400  0.65321600  0.76278300  1
  S  S13  1  0.60755600  0.34678400  0.23721700  1
  S  S14  1  0.68381400  0.60002400  0.08128300  1
  S  S15  1  0.31618600  0.39997600  0.91871700  1
  S  S16  1  0.81679200  0.02406200  0.25219000  1
  S  S17  1  0.18320800  0.97593800  0.74781000  1
  S  S18  1  0.37853900  0.28157900  0.60288600  1
  S  S19  1  0.62146100  0.71842100  0.39711400  1
  S  S20  1  0.00801400  0.60679100  0.48970500  1
  S  S21  1  0.99198600  0.39320900  0.51029500  1
loop_
_geom_bond_atom_site_label_1
_geom_bond_atom_site_label_2
_geom_bond_distance
_geom_bond_site_symmetry_2
Ca0 S14 2.817981 1_556
Ca0 S3 2.820633 1_565
Ca0 S0 2.834855 1_556
Ca0 S9 2.852172 1_555
Ca0 S16 3.005557 1_566
Ca0 S12 3.026486 1_555
Ca0 S2 3.095138 1_656
Ca0 S4 3.273810 1_555
Ca1 S15 2.817981 1_554
Ca1 S2 2.820633 1_545
Ca1 S1 2.834855 1_554
Ca1 S8 2.852172 1_555
Ca1 S17 3.005557 1_544
Ca1 S13 3.026486 1_555
Ca1 S3 3.095138 1_454
Ca1 S5 3.273810 1_555
Ca2 S10 2.836555 1_556
Ca2 S4 2.896496 1_455
Ca2 S2 2.973448 1_556
Ca2 S0 3.022437 1_556
Ca2 S17 3.025861 1_555
Ca2 S12 3.037526 1_555
Ca2 S11 3.063491 1_455
Ca3 S11 2.836555 1_554
Ca3 S5 2.896496 1_655
Ca3 S3 2.973448 1_554
Ca3 S1 3.022437 1_554
Ca3 S16 3.025861 1_555
Ca3 S13 3.037526 1_555
Ca3 S10 3.063491 1_655
Ca4 S21 2.748745 1_555
Ca4 S13 2.824033 1_555
Ca4 S4 2.937776 1_555
Ca4 S8 2.962522 1_555
Ca4 S7 3.001893 1_555
Ca4 S18 3.098316 1_555
Ca4 S20 3.108555 1_655
Ca5 S20 2.748745 1_555
Ca5 S12 2.824033 1_555
Ca5 S5 2.937776 1_555
Ca5 S9 2.962522 1_555
Ca5 S6 3.001893 1_555
Ca5 S19 3.098316 1_555
Ca5 S21 3.108555 1_455
S0 Sn6 2.600278 1_555
S0 Sn4 2.634279 1_555
S1 Sn7 2.600278 1_555
S1 Sn5 2.634279 1_555
S2 S3 2.119653 1_464
S4 Sn1 2.507770 1_555
S4 Sn7 2.889343 1_555
S5 Sn0 2.507770 1_555
S5 Sn6 2.889343 1_555
S6 Sn4 2.597421 1_555
S6 Sn5 2.636731 1_565
S7 Sn5 2.597421 1_555
S7 Sn4 2.636731 1_545
S8 Sn4 2.618044 1_545
S8 Sn0 2.933968 1_555
S9 Sn5 2.618044 1_565
S9 Sn1 2.933968 1_555
S10 S11 2.100735 1_454
S10 Sn3 3.084849 1_455
S10 Sn6 3.114301 1_555
S11 Sn2 3.084849 1_655
S11 Sn7 3.114301 1_555
S12 S9 2.097248 1_555
S13 S8 2.097248 1_555
S14 Sn3 2.574301 1_555
S14 Sn7 2.621762 1_554
S14 Sn6 2.677348 1_555
S15 Sn2 2.574301 1_555
S15 Sn6 2.621762 1_556
S15 Sn7 2.677348 1_555
S16 Sn4 2.520395 1_545
S16 Sn0 2.978554 1_655
S16 Sn3 3.095231 1_545
S17 Sn5 2.520395 1_565
S17 Sn1 2.978554 1_455
S17 Sn2 3.095231 1_565
S18 Sn5 2.625155 1_555
S18 Sn0 2.762707 1_555
S18 Sn7 2.766675 1_555
S19 Sn4 2.625155 1_555
S19 Sn1 2.762707 1_555
S19 Sn6 2.766675 1_555
S20 S21 2.123270 1_455
S20 Sn3 3.006106 1_455
S21 Sn2 3.006106 1_655
