# generated using pymatgen
data_AcSi3
_symmetry_space_group_name_H-M   'P 1'
_cell_length_a   6.51585849
_cell_length_b   6.51585860
_cell_length_c   4.68284922
_cell_angle_alpha   90.00000000
_cell_angle_beta   90.00000000
_cell_angle_gamma   119.99999423
_symmetry_Int_Tables_number   1
_chemical_formula_structural   AcSi3
_chemical_formula_sum   'Ac2 Si6'
_cell_volume   172.18056402
_cell_formula_units_Z   2
loop_
 _symmetry_equiv_pos_site_id
 _symmetry_equiv_pos_as_xyz
  1  'x, y, z'
loop_
 _atom_site_type_symbol
 _atom_site_label
 _atom_site_symmetry_multiplicity
 _atom_site_fract_x
 _atom_site_fract_y
 _atom_site_fract_z
 _atom_site_occupancy
  Ac  Ac0  1  0.33333300  0.66666600  0.75000000  1
  Ac  Ac1  1  0.66666700  0.33333400  0.25000100  1
  Si  Si0  1  0.12588054  0.25176209  0.25000100  1
  Si  Si1  1  0.74823591  0.87412046  0.25000100  1
  Si  Si2  1  0.12588254  0.87412046  0.25000100  1
  Si  Si3  1  0.87411946  0.74823691  0.75000000  1
  Si  Si4  1  0.25176509  0.12588154  0.75000000  1
  Si  Si5  1  0.87411846  0.12588154  0.75000000  1
loop_
_geom_bond_atom_site_label_1
_geom_bond_atom_site_label_2
_geom_bond_distance
_geom_bond_site_symmetry_2
Ac0 Si3 3.290279 1_455
Ac0 Si4 3.290279 1_565
Ac0 Si5 3.290281 1_455
Ac0 Si4 3.290286 1_555
Ac0 Si5 3.290288 1_565
Ac0 Si3 3.290292 1_555
Ac0 Si1 3.311151 1_555
Ac0 Si0 3.311155 1_555
Ac0 Si1 3.311158 1_556
Ac0 Si2 3.311159 1_555
Ac0 Si0 3.311162 1_556
Ac0 Si2 3.311166 1_556
Ac1 Si1 3.290271 1_545
Ac1 Si2 3.290279 1_545
Ac1 Si0 3.290283 1_655
Ac1 Si0 3.290289 1_555
Ac1 Si2 3.290292 1_655
Ac1 Si1 3.290297 1_555
Ac1 Si4 3.311147 1_555
Ac1 Si3 3.311151 1_555
Ac1 Si4 3.311154 1_554
Ac1 Si5 3.311155 1_555
Ac1 Si3 3.311158 1_554
Ac1 Si5 3.311162 1_554
Si0 Si2 2.460666 1_545
Si0 Si1 2.460669 1_445
Si0 Si5 2.738712 1_455
Si0 Si5 2.738720 1_454
Si0 Si4 2.738721 1_555
Si0 Si4 2.738729 1_554
Si1 Si2 2.460692 1_655
Si1 Si5 2.738709 1_565
Si1 Si5 2.738717 1_564
Si1 Si3 2.738727 1_555
Si1 Si3 2.738735 1_554
Si2 Si4 2.738709 1_565
Si2 Si3 2.738715 1_455
Si2 Si4 2.738717 1_564
Si2 Si3 2.738723 1_454
Si3 Si5 2.460682 1_565
Si3 Si4 2.460682 1_665
Si4 Si5 2.460692 1_455
