# generated using pymatgen
data_LiVSiO4
_symmetry_space_group_name_H-M   'P 1'
_cell_length_a   10.25953655
_cell_length_b   10.25953655
_cell_length_c   16.50960116
_cell_angle_alpha   82.14979853
_cell_angle_beta   82.14979853
_cell_angle_gamma   58.74946838
_symmetry_Int_Tables_number   1
_chemical_formula_structural   LiVSiO4
_chemical_formula_sum   'Li16 V16 Si16 O64'
_cell_volume   1467.26969394
_cell_formula_units_Z   16
loop_
 _symmetry_equiv_pos_site_id
 _symmetry_equiv_pos_as_xyz
  1  'x, y, z'
loop_
 _atom_site_type_symbol
 _atom_site_label
 _atom_site_symmetry_multiplicity
 _atom_site_fract_x
 _atom_site_fract_y
 _atom_site_fract_z
 _atom_site_occupancy
  Li  Li0  1  0.80893100  0.20284700  0.00241700  1
  Li  Li1  1  0.20284700  0.80893100  0.50241700  1
  Li  Li2  1  0.57593200  0.70294500  0.25339400  1
  Li  Li3  1  0.07565400  0.26108900  0.25079300  1
  Li  Li4  1  0.30994800  0.14077600  0.00123600  1
  Li  Li5  1  0.70294500  0.57593200  0.75339400  1
  Li  Li6  1  0.80784800  0.70500100  0.00312900  1
  Li  Li7  1  0.26108900  0.07565400  0.75079300  1
  Li  Li8  1  0.14077600  0.30994800  0.50123600  1
  Li  Li9  1  0.70500100  0.80784800  0.50312900  1
  Li  Li10  1  0.56788600  0.20446800  0.25204600  1
  Li  Li11  1  0.08186600  0.76199900  0.25382500  1
  Li  Li12  1  0.30923500  0.64023100  0.00230100  1
  Li  Li13  1  0.20446800  0.56788600  0.75204600  1
  Li  Li14  1  0.76199900  0.08186600  0.75382500  1
  Li  Li15  1  0.64023100  0.30923500  0.50230100  1
  V  V0  1  0.27044000  0.88106100  0.12960700  1
  V  V1  1  0.77174000  0.44622000  0.12962400  1
  V  V2  1  0.88106100  0.27044000  0.62960700  1
  V  V3  1  0.44622000  0.77174000  0.62962400  1
  V  V4  1  0.32166300  0.00410800  0.37950300  1
  V  V5  1  0.88235500  0.50750300  0.37939000  1
  V  V6  1  0.00410800  0.32166300  0.87950300  1
  V  V7  1  0.50750300  0.88235500  0.87939000  1
  V  V8  1  0.27341000  0.37887100  0.12880200  1
  V  V9  1  0.77024500  0.94671700  0.13149700  1
  V  V10  1  0.37887100  0.27341000  0.62880200  1
  V  V11  1  0.94671700  0.77024500  0.63149700  1
  V  V12  1  0.82212700  0.00840200  0.37984500  1
  V  V13  1  0.38370500  0.50270000  0.37995000  1
  V  V14  1  0.00840200  0.82212700  0.87984500  1
  V  V15  1  0.50270000  0.38370500  0.87995000  1
  Si  Si0  1  0.91642400  0.10129700  0.19044100  1
  Si  Si1  1  0.10129700  0.91642400  0.69044100  1
  Si  Si2  1  0.98052100  0.16746700  0.43990300  1
  Si  Si3  1  0.53789800  0.66581500  0.44107500  1
  Si  Si4  1  0.16746700  0.98052100  0.93990300  1
  Si  Si5  1  0.66581500  0.53789800  0.94107500  1
  Si  Si6  1  0.41861000  0.04132400  0.18869300  1
  Si  Si7  1  0.91976300  0.60267500  0.19033100  1
  Si  Si8  1  0.04132400  0.41861000  0.68869300  1
  Si  Si9  1  0.60267500  0.91976300  0.69033100  1
  Si  Si10  1  0.48023000  0.16493000  0.43974100  1
  Si  Si11  1  0.03911100  0.66711400  0.44183000  1
  Si  Si12  1  0.16493000  0.48023000  0.93974100  1
  Si  Si13  1  0.66711400  0.03911100  0.94183000  1
  Si  Si14  1  0.42014300  0.54353700  0.18877900  1
  Si  Si15  1  0.54353700  0.42014300  0.68877900  1
  O  O0  1  0.33563100  0.67089800  0.11263800  1
  O  O1  1  0.08731200  0.95033900  0.20260800  1
  O  O2  1  0.58621700  0.52446300  0.20032200  1
  O  O3  1  0.74763700  0.41779400  0.02025200  1
  O  O4  1  0.67089800  0.33563100  0.61263800  1
  O  O5  1  0.54767400  0.50596700  0.42446500  1
  O  O6  1  0.24214200  0.98403500  0.02140100  1
  O  O7  1  0.93012400  0.25562400  0.17851900  1
  O  O8  1  0.95033900  0.08731200  0.70260800  1
  O  O9  1  0.13797500  0.00231000  0.42455900  1
  O  O10  1  0.52446300  0.58621700  0.70032200  1
  O  O11  1  0.41779400  0.74763700  0.52025200  1
  O  O12  1  0.50596700  0.54767400  0.92446500  1
  O  O13  1  0.47002900  0.79056600  0.36116800  1
  O  O14  1  0.97014900  0.29289900  0.36305200  1
  O  O15  1  0.44045400  0.87659100  0.17161100  1
  O  O16  1  0.98403500  0.24214200  0.52140100  1
  O  O17  1  0.25562400  0.93012400  0.67851900  1
  O  O18  1  0.00231000  0.13797500  0.92455900  1
  O  O19  1  0.70987100  0.62843400  0.45524900  1
  O  O20  1  0.84055900  0.59348900  0.11222200  1
  O  O21  1  0.29823800  0.10712500  0.27020600  1
  O  O22  1  0.80801500  0.60490500  0.27278100  1
  O  O23  1  0.79056600  0.47002900  0.86116800  1
  O  O24  1  0.29289900  0.97014900  0.86305200  1
  O  O25  1  0.87659100  0.44045400  0.67161100  1
  O  O26  1  0.33989600  0.16894800  0.11128400  1
  O  O27  1  0.08932800  0.44837300  0.20103900  1
  O  O28  1  0.33753700  0.13259600  0.44979500  1
  O  O29  1  0.62843400  0.70987100  0.95524900  1
  O  O30  1  0.59348900  0.84055900  0.61222200  1
  O  O31  1  0.10712500  0.29823800  0.77020600  1
  O  O32  1  0.60490500  0.80801500  0.77278100  1
  O  O33  1  0.58313100  0.02365000  0.20214800  1
  O  O34  1  0.74512600  0.91976600  0.02187400  1
  O  O35  1  0.16894800  0.33989600  0.61128400  1
  O  O36  1  0.04715800  0.50901400  0.42350200  1
  O  O37  1  0.24477600  0.48051500  0.02000100  1
  O  O38  1  0.93488600  0.75597100  0.17727100  1
  O  O39  1  0.44837300  0.08932800  0.70103900  1
  O  O40  1  0.13259600  0.33753700  0.94979500  1
  O  O41  1  0.64046800  0.00206900  0.42558900  1
  O  O42  1  0.02365000  0.58313100  0.70214800  1
  O  O43  1  0.91976600  0.74512600  0.52187400  1
  O  O44  1  0.50901400  0.04715800  0.92350200  1
  O  O45  1  0.46687800  0.28880300  0.36126300  1
  O  O46  1  0.97215600  0.79605800  0.36361800  1
  O  O47  1  0.48051500  0.24477600  0.52000100  1
  O  O48  1  0.43970700  0.37964200  0.17179300  1
  O  O49  1  0.75597100  0.93488600  0.67727100  1
  O  O50  1  0.00206900  0.64046800  0.92558900  1
  O  O51  1  0.21228600  0.62678500  0.45548300  1
  O  O52  1  0.84315700  0.09056800  0.11012900  1
  O  O53  1  0.79718600  0.10232400  0.26870200  1
  O  O54  1  0.31033900  0.60769700  0.27380800  1
  O  O55  1  0.28880300  0.46687800  0.86126300  1
  O  O56  1  0.79605800  0.97215600  0.86361800  1
  O  O57  1  0.37964200  0.43970700  0.67179300  1
  O  O58  1  0.62678500  0.21228600  0.95548300  1
  O  O59  1  0.83530200  0.13953800  0.44900200  1
  O  O60  1  0.09056800  0.84315700  0.61012900  1
  O  O61  1  0.10232400  0.79718600  0.76870200  1
  O  O62  1  0.60769700  0.31033900  0.77380800  1
  O  O63  1  0.13953800  0.83530200  0.94900200  1
loop_
_geom_bond_atom_site_label_1
_geom_bond_atom_site_label_2
_geom_bond_distance
_geom_bond_site_symmetry_2
Li0 O52 1.950346 1_555
Li0 O3 2.008293 1_555
Li0 O18 2.049003 1_654
Li0 O58 2.071048 1_554
Li1 O60 1.950346 1_555
Li1 O11 2.008293 1_555
Li1 O9 2.049003 1_565
Li1 O51 2.071048 1_555
Li2 O13 2.012456 1_555
Li2 O15 2.053088 1_555
Li2 O2 2.084343 1_555
Li2 O22 2.102126 1_555
Li3 O14 1.990922 1_455
Li3 O21 2.032653 1_555
Li3 O27 2.050227 1_555
Li3 O7 2.061058 1_455
Li4 O26 1.966459 1_555
Li4 O6 2.032713 1_545
Li4 O40 2.061511 1_554
Li4 O44 2.079918 1_554
Li5 O23 2.012456 1_555
Li5 O25 2.053088 1_555
Li5 O10 2.084343 1_555
Li5 O32 2.102126 1_555
Li6 O20 1.967046 1_555
Li6 O34 2.006370 1_555
Li6 O50 2.052696 1_654
Li6 O29 2.075284 1_554
Li7 O24 1.990922 1_545
Li7 O31 2.032653 1_555
Li7 O39 2.050227 1_555
Li7 O17 2.061058 1_545
Li8 O35 1.966459 1_555
Li8 O16 2.032713 1_455
Li8 O28 2.061511 1_555
Li8 O36 2.079918 1_555
Li9 O30 1.967046 1_555
Li9 O43 2.006370 1_555
Li9 O41 2.052696 1_565
Li9 O19 2.075284 1_555
Li10 O45 2.014756 1_555
Li10 O48 2.021903 1_555
Li10 O33 2.055662 1_555
Li10 O53 2.061117 1_555
Li11 O46 1.970351 1_455
Li11 O1 2.025985 1_555
Li11 O54 2.080348 1_555
Li11 O38 2.124580 1_455
Li12 O0 1.967321 1_555
Li12 O63 2.032971 1_554
Li12 O37 2.036798 1_555
Li12 O12 2.064728 1_554
Li13 O55 2.014756 1_555
Li13 O57 2.021903 1_555
Li13 O42 2.055662 1_555
Li13 O61 2.061117 1_555
Li14 O56 1.970351 1_545
Li14 O8 2.025985 1_555
Li14 O62 2.080348 1_555
Li14 O49 2.124580 1_545
Li15 O4 1.967321 1_555
Li15 O59 2.032971 1_555
Li15 O47 2.036798 1_555
Li15 O5 2.064728 1_555
O0 Si14 1.647085 1_555
O0 V0 1.947421 1_555
O1 Si0 1.645211 1_465
O1 V0 1.928096 1_555
O2 Si14 1.646284 1_555
O2 V1 1.921810 1_555
O3 Si5 1.648717 1_554
O3 V1 1.935811 1_555
O4 Si15 1.647085 1_555
O4 V2 1.947421 1_555
O5 Si3 1.649067 1_555
O5 V13 1.942716 1_555
O6 Si4 1.649886 1_554
O6 V0 1.923449 1_555
O7 Si0 1.644271 1_555
O7 V1 1.935480 1_555
O8 Si1 1.645211 1_645
O8 V2 1.928096 1_555
O9 Si2 1.646290 1_455
O9 V4 1.937677 1_555
O10 Si15 1.646284 1_555
O10 V3 1.921810 1_555
O11 Si3 1.648717 1_555
O11 V3 1.935811 1_555
O12 Si5 1.649067 1_555
O12 V15 1.942716 1_555
O13 Si3 1.651773 1_555
O13 V4 1.950285 1_565
O14 Si2 1.651046 1_555
O14 V5 1.941628 1_555
O15 Si6 1.645019 1_565
O15 V0 1.940155 1_555
O16 Si2 1.649886 1_555
O16 V2 1.923449 1_555
O17 Si1 1.644271 1_555
O17 V3 1.935480 1_555
O18 Si4 1.646290 1_545
O18 V6 1.937677 1_555
O19 Si3 1.643477 1_555
O19 V5 1.944320 1_555
O20 Si7 1.652584 1_555
O20 V1 1.948529 1_555
O21 Si6 1.649566 1_555
O21 V4 1.940309 1_555
O22 Si7 1.650103 1_555
O22 V5 1.942578 1_555
O23 Si5 1.651773 1_555
O23 V6 1.950285 1_655
O24 Si4 1.651046 1_555
O24 V7 1.941628 1_555
O25 Si8 1.645019 1_655
O25 V2 1.940155 1_555
O26 Si6 1.651534 1_555
O26 V8 1.944069 1_555
O27 Si7 1.647387 1_455
O27 V8 1.928036 1_555
O28 Si10 1.644157 1_555
O28 V4 1.950194 1_555
O29 Si5 1.643477 1_555
O29 V7 1.944320 1_555
O30 Si9 1.652584 1_555
O30 V3 1.948529 1_555
O31 Si8 1.649566 1_555
O31 V6 1.940309 1_555
O32 Si9 1.650103 1_555
O32 V7 1.942578 1_555
O33 Si6 1.644725 1_555
O33 V9 1.932996 1_545
O34 Si13 1.648111 1_564
O34 V9 1.938144 1_555
O35 Si8 1.651534 1_555
O35 V10 1.944069 1_555
O36 Si11 1.648536 1_555
O36 V5 1.938061 1_455
O37 Si12 1.651337 1_554
O37 V8 1.927415 1_555
O38 Si7 1.641800 1_555
O38 V9 1.941382 1_555
O39 Si9 1.647387 1_545
O39 V10 1.928036 1_555
O40 Si12 1.644157 1_555
O40 V6 1.950194 1_555
O41 Si10 1.643387 1_555
O41 V12 1.943151 1_555
O42 Si8 1.644725 1_555
O42 V11 1.932996 1_455
O43 Si11 1.648111 1_655
O43 V11 1.938144 1_555
O44 Si13 1.648536 1_555
O44 V7 1.938061 1_545
O45 Si10 1.652464 1_555
O45 V13 1.951715 1_555
O46 Si11 1.649870 1_655
O46 V12 1.937684 1_565
O47 Si10 1.651337 1_555
O47 V10 1.927415 1_555
O48 Si14 1.646080 1_555
O48 V8 1.939339 1_555
O49 Si9 1.641800 1_555
O49 V11 1.941382 1_555
O50 Si12 1.643387 1_555
O50 V14 1.943151 1_555
O51 Si11 1.643118 1_555
O51 V13 1.944289 1_555
O52 Si0 1.653235 1_555
O52 V9 1.947638 1_545
O53 Si0 1.650644 1_555
O53 V12 1.936591 1_555
O54 Si14 1.650470 1_555
O54 V13 1.949644 1_555
O55 Si12 1.652464 1_555
O55 V15 1.951715 1_555
O56 Si13 1.649870 1_565
O56 V14 1.937684 1_655
O57 Si15 1.646080 1_555
O57 V10 1.939339 1_555
O58 Si13 1.643118 1_555
O58 V15 1.944289 1_555
O59 Si2 1.641481 1_555
O59 V12 1.944845 1_555
O60 Si1 1.653235 1_555
O60 V11 1.947638 1_455
O61 Si1 1.650644 1_555
O61 V14 1.936591 1_555
O62 Si15 1.650470 1_555
O62 V15 1.949644 1_555
O63 Si4 1.641481 1_555
O63 V14 1.944845 1_555
