# generated using pymatgen
data_AlFe2W
_symmetry_space_group_name_H-M   'P 1'
_cell_length_a   4.11494843
_cell_length_b   4.11494843
_cell_length_c   4.11494843
_cell_angle_alpha   60.00000000
_cell_angle_beta   60.00000000
_cell_angle_gamma   60.00000000
_symmetry_Int_Tables_number   1
_chemical_formula_structural   AlFe2W
_chemical_formula_sum   'Al1 Fe2 W1'
_cell_volume   49.26950433
_cell_formula_units_Z   1
loop_
 _symmetry_equiv_pos_site_id
 _symmetry_equiv_pos_as_xyz
  1  'x, y, z'
loop_
 _atom_site_type_symbol
 _atom_site_label
 _atom_site_symmetry_multiplicity
 _atom_site_fract_x
 _atom_site_fract_y
 _atom_site_fract_z
 _atom_site_occupancy
  Al  Al0  1  0.50000000  0.50000000  0.50000000  1
  Fe  Fe0  1  0.25000000  0.25000000  0.25000000  1
  Fe  Fe1  1  0.75000000  0.75000000  0.75000000  1
  W  W0  1  0.00000000  0.00000000  0.00000000  1
loop_
_geom_bond_atom_site_label_1
_geom_bond_atom_site_label_2
_geom_bond_distance
_geom_bond_site_symmetry_2
Al0 Fe0 2.519881 1_655
Al0 Fe1 2.519881 1_455
Al0 Fe0 2.519881 1_565
Al0 Fe1 2.519881 1_555
Al0 Fe1 2.519881 1_554
Al0 Fe0 2.519881 1_556
Al0 Fe1 2.519881 1_545
Al0 Fe0 2.519881 1_555
Fe0 W0 2.519881 1_655
Fe0 W0 2.519881 1_556
Fe0 W0 2.519881 1_555
Fe0 W0 2.519881 1_565
Fe1 W0 2.519881 1_566
Fe1 W0 2.519881 1_656
Fe1 W0 2.519881 1_666
Fe1 W0 2.519881 1_665
