# generated using pymatgen
data_Fe2Sb(PO4)3
_symmetry_space_group_name_H-M   'P 1'
_cell_length_a   8.85185899
_cell_length_b   8.85185899
_cell_length_c   8.85185909
_cell_angle_alpha   58.79418779
_cell_angle_beta   58.79418779
_cell_angle_gamma   58.79419307
_symmetry_Int_Tables_number   1
_chemical_formula_structural   Fe2Sb(PO4)3
_chemical_formula_sum   'Fe4 Sb2 P6 O24'
_cell_volume   476.93714690
_cell_formula_units_Z   2
loop_
 _symmetry_equiv_pos_site_id
 _symmetry_equiv_pos_as_xyz
  1  'x, y, z'
loop_
 _atom_site_type_symbol
 _atom_site_label
 _atom_site_symmetry_multiplicity
 _atom_site_fract_x
 _atom_site_fract_y
 _atom_site_fract_z
 _atom_site_occupancy
  Fe  Fe0  1  0.85084500  0.85084500  0.85084500  1
  Fe  Fe1  1  0.64915500  0.64915500  0.64915500  1
  Fe  Fe2  1  0.35084500  0.35084500  0.35084500  1
  Fe  Fe3  1  0.14915500  0.14915500  0.14915500  1
  Sb  Sb0  1  0.00000000  0.00000000  0.00000000  1
  Sb  Sb1  1  0.50000000  0.50000000  0.50000000  1
  P  P0  1  0.54073900  0.95926100  0.25000000  1
  P  P1  1  0.25000000  0.54073900  0.95926100  1
  P  P2  1  0.95926100  0.25000000  0.54073900  1
  P  P3  1  0.04073900  0.75000000  0.45926100  1
  P  P4  1  0.75000000  0.45926100  0.04073900  1
  P  P5  1  0.45926100  0.04073900  0.75000000  1
  O  O0  1  0.49293800  0.88377300  0.69727800  1
  O  O1  1  0.88377300  0.69727800  0.49293800  1
  O  O2  1  0.73322400  0.94000600  0.08292300  1
  O  O3  1  0.69727800  0.49293800  0.88377300  1
  O  O4  1  0.38377300  0.99293800  0.19727800  1
  O  O5  1  0.55999400  0.76677600  0.41707700  1
  O  O6  1  0.08292300  0.73322400  0.94000600  1
  O  O7  1  0.41707700  0.55999400  0.76677600  1
  O  O8  1  0.00706200  0.80272200  0.61622700  1
  O  O9  1  0.76677600  0.41707700  0.55999400  1
  O  O10  1  0.05999400  0.91707700  0.26677600  1
  O  O11  1  0.80272200  0.61622700  0.00706200  1
  O  O12  1  0.19727800  0.38377300  0.99293800  1
  O  O13  1  0.94000600  0.08292300  0.73322400  1
  O  O14  1  0.23322400  0.58292300  0.44000600  1
  O  O15  1  0.99293800  0.19727800  0.38377300  1
  O  O16  1  0.58292300  0.44000600  0.23322400  1
  O  O17  1  0.91707700  0.26677600  0.05999400  1
  O  O18  1  0.44000600  0.23322400  0.58292300  1
  O  O19  1  0.61622700  0.00706200  0.80272200  1
  O  O20  1  0.30272200  0.50706200  0.11622700  1
  O  O21  1  0.26677600  0.05999400  0.91707700  1
  O  O22  1  0.11622700  0.30272200  0.50706200  1
  O  O23  1  0.50706200  0.11622700  0.30272200  1
loop_
_geom_bond_atom_site_label_1
_geom_bond_atom_site_label_2
_geom_bond_distance
_geom_bond_site_symmetry_2
Fe0 O11 1.933187 1_556
Fe0 O8 1.933187 1_655
Fe0 O19 1.933187 1_565
Fe0 O13 2.130582 1_565
Fe0 O2 2.130583 1_556
Fe0 O6 2.130583 1_655
Fe1 O1 1.933187 1_555
Fe1 O3 1.933187 1_555
Fe1 O0 1.933187 1_555
Fe1 O7 2.130582 1_555
Fe1 O5 2.130583 1_555
Fe1 O9 2.130583 1_555
Fe2 O22 1.933187 1_555
Fe2 O20 1.933187 1_555
Fe2 O23 1.933187 1_555
Fe2 O16 2.130582 1_555
Fe2 O18 2.130583 1_555
Fe2 O14 2.130583 1_555
Fe3 O12 1.933187 1_554
Fe3 O15 1.933187 1_455
Fe3 O4 1.933187 1_545
Fe3 O10 2.130582 1_545
Fe3 O21 2.130583 1_554
Fe3 O17 2.130583 1_455
O0 P5 1.528323 1_565
O1 P3 1.528323 1_655
O2 P0 1.571152 1_555
O2 Sb0 2.344512 1_665
O3 P4 1.528323 1_556
O4 P0 1.528323 1_555
O5 P0 1.571152 1_555
O5 Sb1 2.344512 1_555
O6 P1 1.571152 1_555
O6 Sb0 2.344512 1_566
O7 P1 1.571152 1_555
O7 Sb1 2.344512 1_555
O8 P3 1.528323 1_555
O9 P2 1.571152 1_555
O9 Sb1 2.344512 1_555
O10 P3 1.571152 1_555
O10 Sb0 2.344512 1_565
O11 P4 1.528323 1_555
O12 P1 1.528323 1_555
O13 P2 1.571152 1_555
O13 Sb0 2.344512 1_656
O14 P3 1.571152 1_555
O14 Sb1 2.344512 1_555
O15 P2 1.528323 1_555
O16 P4 1.571152 1_555
O16 Sb1 2.344512 1_555
O17 P4 1.571152 1_555
O17 Sb0 2.344512 1_655
O18 P5 1.571152 1_555
O18 Sb1 2.344512 1_555
O19 P5 1.528323 1_555
O20 P1 1.528323 1_554
O21 P5 1.571152 1_555
O21 Sb0 2.344512 1_556
O22 P2 1.528323 1_455
O23 P0 1.528323 1_545
