# generated using pymatgen
data_YGa3
_symmetry_space_group_name_H-M   'P 1'
_cell_length_a   6.28500897
_cell_length_b   6.28500331
_cell_length_c   4.48438481
_cell_angle_alpha   90.00000000
_cell_angle_beta   90.00000000
_cell_angle_gamma   120.00006905
_symmetry_Int_Tables_number   1
_chemical_formula_structural   YGa3
_chemical_formula_sum   'Y2 Ga6'
_cell_volume   153.40680152
_cell_formula_units_Z   2
loop_
 _symmetry_equiv_pos_site_id
 _symmetry_equiv_pos_as_xyz
  1  'x, y, z'
loop_
 _atom_site_type_symbol
 _atom_site_label
 _atom_site_symmetry_multiplicity
 _atom_site_fract_x
 _atom_site_fract_y
 _atom_site_fract_z
 _atom_site_occupancy
  Y  Y0  1  0.33333400  0.66666700  0.75000000  1
  Y  Y1  1  0.66666700  0.33333300  0.24999900  1
  Ga  Ga0  1  0.14452862  0.28905624  0.24999900  1
  Ga  Ga1  1  0.71094376  0.85547238  0.25000000  1
  Ga  Ga2  1  0.14452762  0.85547238  0.24999900  1
  Ga  Ga3  1  0.85547138  0.71094376  0.75000000  1
  Ga  Ga4  1  0.28905624  0.14452762  0.75000000  1
  Ga  Ga5  1  0.85547238  0.14452762  0.75000000  1
loop_
_geom_bond_atom_site_label_1
_geom_bond_atom_site_label_2
_geom_bond_distance
_geom_bond_site_symmetry_2
Ga0 Ga2 2.725073 1_545
Ga0 Ga1 2.725078 1_445
Ga0 Ga5 2.739117 1_454
Ga0 Ga4 2.739117 1_554
Ga0 Ga5 2.739124 1_455
Ga0 Ga4 2.739124 1_555
Ga0 Y0 3.041671 1_554
Ga0 Y0 3.041677 1_555
Ga0 Y1 3.151732 1_555
Ga0 Y1 3.151732 1_455
Ga1 Ga2 2.725078 1_655
Ga1 Ga5 2.739116 1_565
Ga1 Ga5 2.739116 1_564
Ga1 Ga3 2.739121 1_555
Ga1 Ga3 2.739121 1_554
Ga1 Y0 3.041672 1_554
Ga1 Y0 3.041672 1_555
Ga1 Y1 3.151723 1_565
Ga1 Y1 3.151735 1_555
Ga2 Ga4 2.739113 1_564
Ga2 Ga3 2.739117 1_454
Ga2 Ga4 2.739120 1_565
Ga2 Ga3 2.739124 1_455
Ga2 Y0 3.041677 1_554
Ga2 Y0 3.041683 1_555
Ga2 Y1 3.151728 1_455
Ga2 Y1 3.151728 1_565
Ga3 Ga5 2.725073 1_565
Ga3 Ga4 2.725078 1_665
Ga3 Y1 3.041671 1_556
Ga3 Y1 3.041677 1_555
Ga3 Y0 3.151725 1_555
Ga3 Y0 3.151738 1_655
Ga4 Ga5 2.725078 1_455
Ga4 Y1 3.041672 1_556
Ga4 Y1 3.041679 1_555
Ga4 Y0 3.151727 1_545
Ga4 Y0 3.151732 1_555
Ga5 Y1 3.041673 1_556
Ga5 Y1 3.041680 1_555
Ga5 Y0 3.151725 1_545
Ga5 Y0 3.151731 1_655
