# generated using pymatgen
data_CsBa2Cr2F11
_symmetry_space_group_name_H-M   'P 1'
_cell_length_a   8.90124551
_cell_length_b   8.90124551
_cell_length_c   8.90124551
_cell_angle_alpha   139.84338897
_cell_angle_beta   139.84338897
_cell_angle_gamma   58.09116741
_symmetry_Int_Tables_number   1
_chemical_formula_structural   CsBa2Cr2F11
_chemical_formula_sum   'Cs1 Ba2 Cr2 F11'
_cell_volume   290.66841562
_cell_formula_units_Z   1
loop_
 _symmetry_equiv_pos_site_id
 _symmetry_equiv_pos_as_xyz
  1  'x, y, z'
loop_
 _atom_site_type_symbol
 _atom_site_label
 _atom_site_symmetry_multiplicity
 _atom_site_fract_x
 _atom_site_fract_y
 _atom_site_fract_z
 _atom_site_occupancy
  Cs  Cs0  1  0.00000000  0.00000000  0.00000000  1
  Ba  Ba0  1  0.25000000  0.75000000  0.50000000  1
  Ba  Ba1  1  0.75000000  0.25000000  0.50000000  1
  Cr  Cr0  1  0.37479600  0.37479600  0.00000000  1
  Cr  Cr1  1  0.62520400  0.62520400  0.00000000  1
  F  F0  1  0.50000000  0.50000000  0.00000000  1
  F  F1  1  0.14151100  0.14151100  0.55033800  1
  F  F2  1  0.59117300  0.14151100  0.00000000  1
  F  F3  1  0.14151100  0.59117300  0.00000000  1
  F  F4  1  0.59117300  0.59117300  0.44966200  1
  F  F5  1  0.74972400  0.74972400  0.00000000  1
  F  F6  1  0.25027600  0.25027600  0.00000000  1
  F  F7  1  0.40882700  0.40882700  0.55033800  1
  F  F8  1  0.85848900  0.40882700  0.00000000  1
  F  F9  1  0.40882700  0.85848900  0.00000000  1
  F  F10  1  0.85848900  0.85848900  0.44966200  1
loop_
_geom_bond_atom_site_label_1
_geom_bond_atom_site_label_2
_geom_bond_distance
_geom_bond_site_symmetry_2
Cs0 F10 3.159700 1_444
Cs0 F1 3.159700 1_555
Cs0 F8 3.159700 1_455
Cs0 F7 3.159700 1_555
Cs0 F9 3.159700 1_545
Cs0 F3 3.159700 1_545
Cs0 F4 3.159700 1_444
Cs0 F2 3.159700 1_455
Ba0 F4 2.827542 1_555
Ba0 F1 2.827542 1_565
Ba0 F3 2.827542 1_555
Ba0 F7 2.827542 1_555
Ba0 F2 2.827542 1_566
Ba0 F8 2.827542 1_455
Ba0 F9 2.827542 1_556
Ba0 F10 2.827542 1_455
Ba0 F6 3.055837 1_555
Ba0 F6 3.055837 1_566
Ba0 F5 3.055837 1_455
Ba0 F5 3.055837 1_556
Ba1 F3 2.827542 1_656
Ba1 F4 2.827542 1_555
Ba1 F1 2.827542 1_655
Ba1 F2 2.827542 1_555
Ba1 F9 2.827542 1_545
Ba1 F8 2.827542 1_556
Ba1 F7 2.827542 1_555
Ba1 F10 2.827542 1_545
Ba1 F6 3.055837 1_555
Ba1 F5 3.055837 1_545
Ba1 F6 3.055837 1_656
Ba1 F5 3.055837 1_556
Cr0 F6 1.937972 1_555
Cr0 F3 1.947709 1_555
Cr0 F1 1.947709 1_554
Cr0 F2 1.947709 1_555
Cr0 F4 1.947709 1_555
Cr0 F0 1.948617 1_555
Cr1 F5 1.937972 1_555
Cr1 F8 1.947709 1_555
Cr1 F9 1.947709 1_555
Cr1 F7 1.947709 1_554
Cr1 F10 1.947709 1_555
Cr1 F0 1.948617 1_555
