# generated using pymatgen
data_PaSi3
_symmetry_space_group_name_H-M   'P 1'
_cell_length_a   4.10481946
_cell_length_b   4.10481946
_cell_length_c   4.10481946
_cell_angle_alpha   90.00000000
_cell_angle_beta   90.00000000
_cell_angle_gamma   90.00000000
_symmetry_Int_Tables_number   1
_chemical_formula_structural   PaSi3
_chemical_formula_sum   'Pa1 Si3'
_cell_volume   69.16433117
_cell_formula_units_Z   1
loop_
 _symmetry_equiv_pos_site_id
 _symmetry_equiv_pos_as_xyz
  1  'x, y, z'
loop_
 _atom_site_type_symbol
 _atom_site_label
 _atom_site_symmetry_multiplicity
 _atom_site_fract_x
 _atom_site_fract_y
 _atom_site_fract_z
 _atom_site_occupancy
  Pa  Pa0  1  0.00000000  0.00000000  0.00000000  1
  Si  Si0  1  -0.00000000  0.50000200  0.50000200  1
  Si  Si1  1  0.50000200  -0.00000000  0.50000200  1
  Si  Si2  1  0.50000200  0.50000200  -0.00000000  1
loop_
_geom_bond_atom_site_label_1
_geom_bond_atom_site_label_2
_geom_bond_distance
_geom_bond_site_symmetry_2
Pa0 Si2 2.902534 1_445
Pa0 Si1 2.902534 1_454
Pa0 Si0 2.902534 1_544
Pa0 Si0 2.902546 1_545
Pa0 Si0 2.902546 1_554
Pa0 Si1 2.902546 1_554
Pa0 Si2 2.902546 1_455
Pa0 Si2 2.902546 1_545
Pa0 Si1 2.902546 1_455
Pa0 Si2 2.902557 1_555
Pa0 Si0 2.902557 1_555
Pa0 Si1 2.902557 1_555
