# generated using pymatgen
data_Li4Co3NiO8
_symmetry_space_group_name_H-M   'P 1'
_cell_length_a   5.77175117
_cell_length_b   5.77175117
_cell_length_c   5.77175139
_cell_angle_alpha   59.29588338
_cell_angle_beta   59.29588338
_cell_angle_gamma   59.29588940
_symmetry_Int_Tables_number   1
_chemical_formula_structural   Li4Co3NiO8
_chemical_formula_sum   'Li4 Co3 Ni1 O8'
_cell_volume   133.77910541
_cell_formula_units_Z   1
loop_
 _symmetry_equiv_pos_site_id
 _symmetry_equiv_pos_as_xyz
  1  'x, y, z'
loop_
 _atom_site_type_symbol
 _atom_site_label
 _atom_site_symmetry_multiplicity
 _atom_site_fract_x
 _atom_site_fract_y
 _atom_site_fract_z
 _atom_site_occupancy
  Li  Li0  1  0.50000000  0.00000000  0.00000000  1
  Li  Li1  1  0.00000000  0.50000000  0.00000000  1
  Li  Li2  1  0.50000000  0.50000000  0.50000000  1
  Li  Li3  1  0.00000000  0.00000000  0.50000000  1
  Co  Co0  1  0.50000000  0.50000000  0.00000000  1
  Co  Co1  1  0.50000000  0.00000000  0.50000000  1
  Co  Co2  1  0.00000000  0.50000000  0.50000000  1
  Ni  Ni0  1  0.00000000  0.00000000  0.00000000  1
  O  O0  1  0.73047600  0.24479700  0.24479700  1
  O  O1  1  0.75520300  0.75520300  0.26952400  1
  O  O2  1  0.26087600  0.26087600  0.26087600  1
  O  O3  1  0.75520300  0.26952400  0.75520300  1
  O  O4  1  0.24479700  0.73047600  0.24479700  1
  O  O5  1  0.73912400  0.73912400  0.73912400  1
  O  O6  1  0.24479700  0.24479700  0.73047600  1
  O  O7  1  0.26952400  0.75520300  0.75520300  1
loop_
_geom_bond_atom_site_label_1
_geom_bond_atom_site_label_2
_geom_bond_distance
_geom_bond_site_symmetry_2
Li0 O2 2.123683 1_555
Li0 O5 2.123683 1_544
Li0 O3 2.134483 1_554
Li0 O4 2.134483 1_545
Li0 O1 2.134483 1_545
Li0 O6 2.134483 1_554
Li1 O2 2.123683 1_555
Li1 O5 2.123683 1_454
Li1 O7 2.134483 1_554
Li1 O0 2.134483 1_455
Li1 O1 2.134483 1_455
Li1 O6 2.134483 1_554
Li2 O1 2.079072 1_555
Li2 O6 2.079072 1_555
Li2 O3 2.079072 1_555
Li2 O7 2.079072 1_555
Li2 O4 2.079072 1_555
Li2 O0 2.079072 1_555
Li3 O2 2.123683 1_555
Li3 O5 2.123683 1_445
Li3 O7 2.134483 1_545
Li3 O3 2.134483 1_455
Li3 O0 2.134483 1_455
Li3 O4 2.134483 1_545
Co0 O0 1.930961 1_555
Co0 O4 1.930961 1_555
Co0 O3 1.930961 1_554
Co0 O7 1.930961 1_554
Co0 O2 1.943635 1_555
Co0 O5 1.943635 1_554
Co1 O0 1.930961 1_555
Co1 O7 1.930961 1_545
Co1 O6 1.930961 1_555
Co1 O1 1.930961 1_545
Co1 O5 1.943635 1_545
Co1 O2 1.943635 1_555
Co2 O4 1.930961 1_555
Co2 O3 1.930961 1_455
Co2 O6 1.930961 1_555
Co2 O1 1.930961 1_455
Co2 O5 1.943635 1_455
Co2 O2 1.943635 1_555
Ni0 O6 1.990500 1_554
Ni0 O1 1.990500 1_445
Ni0 O4 1.990500 1_545
Ni0 O0 1.990500 1_455
Ni0 O3 1.990500 1_454
Ni0 O7 1.990500 1_544
