# generated using pymatgen
data_Li3Mn2(P2O7)2
_symmetry_space_group_name_H-M   'P 1'
_cell_length_a   9.84143000
_cell_length_b   9.85241734
_cell_length_c   11.38826353
_cell_angle_alpha   89.72576924
_cell_angle_beta   76.69694480
_cell_angle_gamma   89.63007963
_symmetry_Int_Tables_number   1
_chemical_formula_structural   Li3Mn2(P2O7)2
_chemical_formula_sum   'Li12 Mn8 P16 O56'
_cell_volume   1074.56864361
_cell_formula_units_Z   4
loop_
 _symmetry_equiv_pos_site_id
 _symmetry_equiv_pos_as_xyz
  1  'x, y, z'
loop_
 _atom_site_type_symbol
 _atom_site_label
 _atom_site_symmetry_multiplicity
 _atom_site_fract_x
 _atom_site_fract_y
 _atom_site_fract_z
 _atom_site_occupancy
  Li  Li0  1  0.83055600  0.57451300  0.54185700  1
  Li  Li1  1  0.91170900  0.89023800  0.02726800  1
  Li  Li2  1  0.65833300  0.09325500  0.95702400  1
  Li  Li3  1  0.58719600  0.39431500  0.97176600  1
  Li  Li4  1  0.66431800  0.07810300  0.45859900  1
  Li  Li5  1  0.34928900  0.93414200  0.53124500  1
  Li  Li6  1  0.41287400  0.60732200  0.03116400  1
  Li  Li7  1  0.14880800  0.41354700  0.95889100  1
  Li  Li8  1  0.34665000  0.90844200  0.04277800  1
  Li  Li9  1  0.08736800  0.10494200  0.97045900  1
  Li  Li10  1  0.17481300  0.41270400  0.45160500  1
  Li  Li11  1  0.11508300  0.71998700  0.55028600  1
  Mn  Mn0  1  0.80009900  0.07633700  0.66701500  1
  Mn  Mn1  1  0.74190300  0.78410700  0.82441800  1
  Mn  Mn2  1  0.75623100  0.28740300  0.17816400  1
  Mn  Mn3  1  0.70244200  0.57593000  0.32568000  1
  Mn  Mn4  1  0.29871100  0.42211400  0.67121100  1
  Mn  Mn5  1  0.24616600  0.71559800  0.82423500  1
  Mn  Mn6  1  0.25218700  0.21682500  0.17943900  1
  Mn  Mn7  1  0.20187200  0.92503300  0.32631900  1
  P  P0  1  0.97507800  0.54756000  0.75560700  1
  P  P1  1  0.88089700  0.29218100  0.89105300  1
  P  P2  1  0.93681500  0.06824500  0.24119900  1
  P  P3  1  0.87719000  0.84928300  0.42439700  1
  P  P4  1  0.62275000  0.35192800  0.57618700  1
  P  P5  1  0.56200800  0.56835000  0.75723300  1
  P  P6  1  0.47790600  0.95420400  0.75521900  1
  P  P7  1  0.61924300  0.79207800  0.11117000  1
  P  P8  1  0.38211100  0.20579900  0.89263000  1
  P  P9  1  0.52443900  0.04891700  0.24545700  1
  P  P10  1  0.43705800  0.42994900  0.24217000  1
  P  P11  1  0.38028400  0.64764600  0.42045600  1
  P  P12  1  0.12217000  0.14920900  0.57826200  1
  P  P13  1  0.06139000  0.93166300  0.75641700  1
  P  P14  1  0.11663600  0.70701300  0.10943600  1
  P  P15  1  0.02158700  0.45366600  0.24789800  1
  O  O0  1  0.98054000  0.58002800  0.62471800  1
  O  O1  1  0.96778300  0.15761300  0.56895700  1
  O  O2  1  0.91364100  0.91921700  0.72910300  1
  O  O3  1  0.89340500  0.65030800  0.84607300  1
  O  O4  1  0.89738300  0.40381400  0.78289400  1
  O  O5  1  0.82140500  0.16808800  0.83922700  1
  O  O6  1  0.77066600  0.34809700  0.00104900  1
  O  O7  1  0.98004000  0.73216600  0.07757300  1
  O  O8  1  0.88347800  0.92061900  0.29452500  1
  O  O9  1  0.93898000  0.06261600  0.10785300  1
  O  O10  1  0.86695900  0.46333600  0.22630300  1
  O  O11  1  0.81989000  0.70700200  0.41314200  1
  O  O12  1  0.82717400  0.17344500  0.30433500  1
  O  O13  1  0.78544600  0.94146400  0.51810900  1
  O  O14  1  0.71567100  0.44034700  0.47979400  1
  O  O15  1  0.66952800  0.67497400  0.69525400  1
  O  O16  1  0.67859900  0.20701200  0.58838200  1
  O  O17  1  0.63222000  0.96843500  0.77825200  1
  O  O18  1  0.62284200  0.42169900  0.70552100  1
  O  O19  1  0.55679300  0.56339100  0.89094900  1
  O  O20  1  0.52158000  0.22411800  0.92437100  1
  O  O21  1  0.72318800  0.86035000  0.00068700  1
  O  O22  1  0.67876600  0.66987700  0.16460500  1
  O  O23  1  0.59805500  0.90288000  0.21936200  1
  O  O24  1  0.58299300  0.41298400  0.27090800  1
  O  O25  1  0.61104200  0.14562000  0.14835700  1
  O  O26  1  0.47756700  0.91940200  0.62811500  1
  O  O27  1  0.53284200  0.65141600  0.43141000  1
  O  O28  1  0.47013200  0.34553000  0.56545900  1
  O  O29  1  0.52025700  0.07969100  0.37459800  1
  O  O30  1  0.39528000  0.86145000  0.85572600  1
  O  O31  1  0.41631600  0.58431500  0.72640400  1
  O  O32  1  0.40576500  0.10245300  0.77933300  1
  O  O33  1  0.31697100  0.33154700  0.84705500  1
  O  O34  1  0.27662600  0.13624000  0.99987100  1
  O  O35  1  0.48020700  0.77456600  0.07795300  1
  O  O36  1  0.43889000  0.43480500  0.10895000  1
  O  O37  1  0.37867500  0.57895900  0.29253200  1
  O  O38  1  0.37472500  0.03650900  0.21649200  1
  O  O39  1  0.31849300  0.79119700  0.41620500  1
  O  O40  1  0.32907300  0.32712900  0.30800000  1
  O  O41  1  0.27982500  0.56461100  0.51783800  1
  O  O42  1  0.21308200  0.05976300  0.48214400  1
  O  O43  1  0.16204400  0.82243100  0.68781900  1
  O  O44  1  0.17770800  0.29271700  0.58928500  1
  O  O45  1  0.12630900  0.52999000  0.78045400  1
  O  O46  1  0.06359200  0.93235500  0.88868800  1
  O  O47  1  0.12200800  0.07844700  0.70757800  1
  O  O48  1  0.02165900  0.27460200  0.92087300  1
  O  O49  1  0.22378600  0.63587100  0.00300300  1
  O  O50  1  0.18706300  0.82804100  0.15723500  1
  O  O51  1  0.09156900  0.60115200  0.22247900  1
  O  O52  1  0.10435700  0.36010100  0.14698100  1
  O  O53  1  0.08222300  0.08776400  0.26956900  1
  O  O54  1  0.02959000  0.83761600  0.43913900  1
  O  O55  1  0.02507800  0.41983600  0.37500500  1
loop_
_geom_bond_atom_site_label_1
_geom_bond_atom_site_label_2
_geom_bond_distance
_geom_bond_site_symmetry_2
Li0 O0 1.927353 1_555
Li0 O11 1.978468 1_555
Li0 O14 1.980200 1_555
Li0 O15 2.294580 1_555
Li1 O7 1.833336 1_555
Li1 O46 1.952754 1_654
Li1 O21 1.971526 1_555
Li1 O9 1.983119 1_565
Li2 O20 1.953264 1_555
Li2 O5 1.983388 1_555
Li2 O25 2.184393 1_556
Li2 O17 2.447882 1_545
Li2 O21 2.456909 1_546
Li3 O36 1.918132 1_556
Li3 O20 1.924372 1_555
Li3 O19 1.953748 1_555
Li3 O6 1.960565 1_556
Li4 O29 1.883924 1_555
Li4 O16 1.983225 1_555
Li4 O13 2.008729 1_545
Li4 O12 2.290270 1_555
Li5 O26 1.862491 1_555
Li5 O42 1.989540 1_565
Li5 O39 1.999399 1_555
Li5 O43 2.506362 1_555
Li5 O29 2.587504 1_565
Li6 O35 1.903454 1_555
Li6 O19 1.923825 1_554
Li6 O36 1.955412 1_555
Li6 O49 1.977860 1_555
Li7 O48 1.975956 1_555
Li7 O33 2.009050 1_555
Li7 O52 2.148916 1_556
Li7 O45 2.382446 1_555
Li7 O49 2.407659 1_556
Li8 O35 1.960286 1_555
Li8 O50 1.963989 1_555
Li8 O30 2.125688 1_554
Li8 O38 2.421161 1_565
Li8 O34 2.423908 1_564
Li9 O48 1.917353 1_555
Li9 O9 1.924787 1_456
Li9 O46 1.983399 1_545
Li9 O34 1.992977 1_555
Li10 O55 1.878056 1_555
Li10 O44 1.964465 1_555
Li10 O41 2.065545 1_555
Li10 O40 2.131726 1_555
Li11 O0 1.966995 1_455
Li11 O43 2.009921 1_555
Li11 O54 2.028961 1_555
Li11 O41 2.192315 1_555
Li11 O39 2.330742 1_555
Mn0 O1 1.942166 1_555
Mn0 O16 2.085932 1_555
Mn0 O2 2.115586 1_545
Mn0 O17 2.123961 1_545
Mn0 O13 2.190623 1_545
Mn0 O5 2.217224 1_555
Mn1 O3 2.040191 1_555
Mn1 O15 2.081907 1_555
Mn1 O21 2.114317 1_556
Mn1 O17 2.228554 1_555
Mn1 O2 2.231090 1_555
Mn2 O12 2.061250 1_555
Mn2 O6 2.074576 1_555
Mn2 O25 2.088482 1_555
Mn2 O24 2.170182 1_555
Mn2 O10 2.191121 1_555
Mn3 O27 1.963798 1_555
Mn3 O10 2.068431 1_555
Mn3 O22 2.110353 1_555
Mn3 O11 2.134751 1_555
Mn3 O24 2.172496 1_555
Mn3 O14 2.227595 1_555
Mn4 O28 1.980670 1_555
Mn4 O44 2.110968 1_555
Mn4 O45 2.138709 1_555
Mn4 O31 2.157958 1_555
Mn4 O33 2.232751 1_555
Mn4 O41 2.275730 1_555
Mn5 O49 2.142618 1_556
Mn5 O30 2.149760 1_555
Mn5 O43 2.184434 1_555
Mn5 O31 2.201267 1_555
Mn5 O45 2.300282 1_555
Mn6 O40 2.105426 1_555
Mn6 O52 2.112315 1_555
Mn6 O34 2.157970 1_554
Mn6 O53 2.166370 1_555
Mn6 O38 2.233348 1_555
Mn7 O54 2.067130 1_555
Mn7 O39 2.147567 1_555
Mn7 O53 2.165803 1_565
Mn7 O38 2.167086 1_565
Mn7 O50 2.188794 1_555
Mn7 O42 2.244518 1_565
O0 P0 1.511914 1_555
O1 P12 1.548875 1_655
O2 P13 1.561059 1_655
O3 P0 1.533182 1_555
O4 P0 1.608539 1_555
O4 P1 1.628055 1_555
O5 P1 1.536590 1_555
O6 P1 1.556608 1_554
O7 P14 1.489816 1_655
O8 P2 1.616950 1_565
O8 P3 1.622893 1_555
O9 P2 1.515095 1_555
O10 P15 1.598576 1_655
O11 P3 1.531240 1_555
O12 P2 1.546351 1_555
O13 P3 1.527825 1_555
O14 P4 1.529495 1_555
O15 P5 1.544339 1_555
O16 P4 1.543703 1_555
O17 P6 1.606627 1_555
O18 P5 1.620990 1_555
O18 P4 1.628575 1_555
O19 P5 1.512373 1_555
O20 P8 1.509753 1_555
O21 P7 1.578118 1_555
O22 P7 1.520180 1_555
O23 P9 1.604662 1_565
O23 P7 1.626357 1_555
O24 P10 1.552557 1_555
O25 P9 1.556800 1_555
O26 P6 1.489902 1_555
O27 P11 1.535600 1_555
O28 P4 1.536420 1_555
O29 P9 1.494259 1_555
O30 P6 1.541983 1_555
O31 P5 1.559507 1_555
O32 P6 1.616657 1_545
O32 P8 1.620799 1_555
O33 P8 1.533621 1_555
O34 P8 1.567362 1_555
O35 P7 1.512292 1_555
O36 P10 1.513628 1_555
O37 P11 1.612690 1_555
O37 P10 1.630930 1_555
O38 P9 1.587778 1_555
O39 P11 1.540858 1_555
O40 P10 1.535456 1_555
O41 P11 1.540718 1_555
O42 P12 1.524352 1_555
O43 P13 1.545282 1_555
O44 P12 1.535210 1_555
O45 P0 1.585930 1_455
O46 P13 1.511519 1_555
O47 P13 1.614749 1_545
O47 P12 1.626027 1_555
O48 P1 1.509045 1_455
O49 P14 1.575694 1_555
O50 P14 1.545665 1_555
O51 P15 1.608342 1_555
O51 P14 1.627974 1_555
O52 P15 1.550407 1_555
O53 P2 1.551165 1_455
O54 P3 1.550603 1_455
O55 P15 1.491889 1_555
