# generated using pymatgen
data_Li2Mn3(BO3)3
_symmetry_space_group_name_H-M   'P 1'
_cell_length_a   5.22572000
_cell_length_b   5.86676926
_cell_length_c   13.43652189
_cell_angle_alpha   96.58102948
_cell_angle_beta   91.28985781
_cell_angle_gamma   112.38580411
_symmetry_Int_Tables_number   1
_chemical_formula_structural   Li2Mn3(BO3)3
_chemical_formula_sum   'Li4 Mn6 B6 O18'
_cell_volume   377.40213876
_cell_formula_units_Z   2
loop_
 _symmetry_equiv_pos_site_id
 _symmetry_equiv_pos_as_xyz
  1  'x, y, z'
loop_
 _atom_site_type_symbol
 _atom_site_label
 _atom_site_symmetry_multiplicity
 _atom_site_fract_x
 _atom_site_fract_y
 _atom_site_fract_z
 _atom_site_occupancy
  Li  Li0  1  0.81481600  0.46924300  0.12780300  1
  Li  Li1  1  0.47502000  0.77661700  0.46094300  1
  Li  Li2  1  0.52498000  0.22338300  0.53905700  1
  Li  Li3  1  0.18518400  0.53075700  0.87219700  1
  Mn  Mn0  1  0.36410900  0.51027700  0.25608400  1
  Mn  Mn1  1  0.01274800  0.83720800  0.59118100  1
  Mn  Mn2  1  0.67663800  0.15534600  0.91703700  1
  Mn  Mn3  1  0.32336200  0.84465400  0.08296300  1
  Mn  Mn4  1  0.98725200  0.16279200  0.40881900  1
  Mn  Mn5  1  0.63589100  0.48972300  0.74391600  1
  B  B0  1  0.24371600  0.29130100  0.03418500  1
  B  B1  1  0.90787800  0.61741300  0.36147000  1
  B  B2  1  0.57428300  0.95214800  0.69048500  1
  B  B3  1  0.42571700  0.04785200  0.30951500  1
  B  B4  1  0.09212200  0.38258700  0.63853000  1
  B  B5  1  0.75628400  0.70869900  0.96581500  1
  O  O0  1  0.46948900  0.22012800  0.04885300  1
  O  O1  1  0.13654800  0.55194200  0.37908100  1
  O  O2  1  0.75849000  0.53921300  0.27064400  1
  O  O3  1  0.43678800  0.89928800  0.59714800  1
  O  O4  1  0.18724800  0.43823700  0.11457500  1
  O  O5  1  0.84491300  0.76484600  0.43821500  1
  O  O6  1  0.56003800  0.13642300  0.76294400  1
  O  O7  1  0.75509100  0.83563300  0.71265400  1
  O  O8  1  0.90313500  0.76145800  0.05566900  1
  O  O9  1  0.09686500  0.23854200  0.94433100  1
  O  O10  1  0.24490900  0.16436700  0.28734600  1
  O  O11  1  0.43996200  0.86357700  0.23705600  1
  O  O12  1  0.15508700  0.23515400  0.56178500  1
  O  O13  1  0.81275200  0.56176300  0.88542500  1
  O  O14  1  0.56321200  0.10071200  0.40285200  1
  O  O15  1  0.24151000  0.46078700  0.72935600  1
  O  O16  1  0.86345200  0.44805800  0.62091900  1
  O  O17  1  0.53051100  0.77987200  0.95114700  1
loop_
_geom_bond_atom_site_label_1
_geom_bond_atom_site_label_2
_geom_bond_distance
_geom_bond_site_symmetry_2
Li0 O2 1.968675 1_555
Li0 O8 1.972253 1_555
Li0 O0 2.016782 1_555
Li0 O4 2.032312 1_655
Li1 O3 1.931652 1_555
Li1 O1 1.969792 1_555
Li1 O5 1.989414 1_555
Li1 O14 2.031220 1_565
Li2 O14 1.931652 1_555
Li2 O16 1.969792 1_555
Li2 O12 1.989414 1_555
Li2 O3 2.031220 1_545
Li3 O15 1.968675 1_555
Li3 O9 1.972253 1_555
Li3 O17 2.016782 1_555
Li3 O13 2.032312 1_455
Mn0 O10 1.981701 1_555
Mn0 O11 2.004727 1_555
Mn0 O2 2.005555 1_555
Mn0 O4 2.021697 1_555
Mn0 O1 2.102955 1_555
Mn1 O3 2.102365 1_555
Mn1 O7 2.137734 1_455
Mn1 O5 2.146877 1_455
Mn1 O16 2.201615 1_455
Mn1 O12 2.249842 1_565
Mn2 O9 2.073982 1_655
Mn2 O6 2.123546 1_555
Mn2 O17 2.147445 1_545
Mn2 O0 2.167629 1_556
Mn2 O13 2.307694 1_555
Mn3 O8 2.073982 1_455
Mn3 O11 2.123546 1_555
Mn3 O0 2.147445 1_565
Mn3 O17 2.167629 1_554
Mn3 O4 2.307694 1_555
Mn4 O14 2.102365 1_555
Mn4 O10 2.137734 1_655
Mn4 O12 2.146877 1_655
Mn4 O1 2.201615 1_655
Mn4 O5 2.249842 1_545
Mn5 O7 1.981701 1_555
Mn5 O6 2.004727 1_555
Mn5 O15 2.005555 1_555
Mn5 O13 2.021697 1_555
Mn5 O16 2.102955 1_555
B0 O9 1.354273 1_554
B0 O0 1.410255 1_555
B0 O4 1.411244 1_555
B1 O2 1.365732 1_555
B1 O5 1.395480 1_555
B1 O1 1.410383 1_655
B2 O3 1.373252 1_555
B2 O6 1.394814 1_565
B2 O7 1.405235 1_555
B3 O14 1.373252 1_555
B3 O11 1.394814 1_545
B3 O10 1.405235 1_555
B4 O15 1.365732 1_555
B4 O12 1.395480 1_555
B4 O16 1.410383 1_455
B5 O8 1.354273 1_556
B5 O17 1.410255 1_555
B5 O13 1.411244 1_555
