# generated using pymatgen
data_LiAg3F8
_symmetry_space_group_name_H-M   'P 1'
_cell_length_a   5.38864863
_cell_length_b   6.89873027
_cell_length_c   9.97748086
_cell_angle_alpha   89.20606993
_cell_angle_beta   105.76484507
_cell_angle_gamma   67.02782564
_symmetry_Int_Tables_number   1
_chemical_formula_structural   LiAg3F8
_chemical_formula_sum   'Li2 Ag6 F16'
_cell_volume   325.62802027
_cell_formula_units_Z   2
loop_
 _symmetry_equiv_pos_site_id
 _symmetry_equiv_pos_as_xyz
  1  'x, y, z'
loop_
 _atom_site_type_symbol
 _atom_site_label
 _atom_site_symmetry_multiplicity
 _atom_site_fract_x
 _atom_site_fract_y
 _atom_site_fract_z
 _atom_site_occupancy
  Li  Li0  1  0.71946500  0.74919200  0.25065400  1
  Li  Li1  1  0.28293700  0.25053100  0.74946500  1
  Ag  Ag0  1  0.88576300  0.86936200  0.61170700  1
  Ag  Ag1  1  0.64374900  0.63029600  0.88878700  1
  Ag  Ag2  1  0.99967100  0.00031200  0.99983200  1
  Ag  Ag3  1  0.50036000  0.49983600  0.50010800  1
  Ag  Ag4  1  0.35497100  0.37012700  0.11116100  1
  Ag  Ag5  1  0.11359700  0.13007500  0.38845900  1
  F  F0  1  0.63221100  0.89824800  0.40959300  1
  F  F1  1  0.61998400  0.60235500  0.09048100  1
  F  F2  1  0.74468200  0.48546600  0.37397400  1
  F  F3  1  0.81921200  0.13935200  0.20167000  1
  F  F4  1  0.74193500  0.64042600  0.70241800  1
  F  F5  1  0.64404700  0.98611200  0.87320400  1
  F  F6  1  0.94073100  0.29031700  0.91449800  1
  F  F7  1  0.81617400  0.20997700  0.58574800  1
  F  F8  1  0.18430400  0.78954200  0.41403100  1
  F  F9  1  0.05898200  0.71015400  0.08545700  1
  F  F10  1  0.35550900  0.01445700  0.12652000  1
  F  F11  1  0.25719000  0.36115900  0.29765200  1
  F  F12  1  0.18157700  0.85926400  0.79825700  1
  F  F13  1  0.25651400  0.51415700  0.62615900  1
  F  F14  1  0.37932000  0.39725000  0.90976100  1
  F  F15  1  0.36711700  0.10203200  0.59040500  1
loop_
_geom_bond_atom_site_label_1
_geom_bond_atom_site_label_2
_geom_bond_distance
_geom_bond_site_symmetry_2
Ag0 F0 2.062111 1_555
Ag0 F12 2.075518 1_655
Ag0 F7 2.229769 1_565
Ag0 F4 2.282817 1_555
Ag0 F13 2.455451 1_655
Ag0 F15 2.568785 1_565
Ag1 F1 2.062002 1_556
Ag1 F4 2.074221 1_555
Ag1 F6 2.226725 1_555
Ag1 F12 2.276154 1_555
Ag1 F5 2.458101 1_555
Ag1 F14 2.569013 1_555
Ag2 F5 2.027940 1_545
Ag2 F10 2.028914 1_656
Ag2 F6 2.034285 1_555
Ag2 F9 2.035624 1_646
Ag2 F3 2.512126 1_556
Ag2 F12 2.516666 1_645
Ag3 F13 2.029331 1_555
Ag3 F2 2.031969 1_555
Ag3 F7 2.032512 1_555
Ag3 F8 2.033054 1_555
Ag3 F11 2.511276 1_555
Ag3 F4 2.514310 1_555
Ag4 F14 2.059657 1_554
Ag4 F11 2.073330 1_555
Ag4 F9 2.225515 1_555
Ag4 F3 2.287381 1_555
Ag4 F10 2.455154 1_555
Ag4 F1 2.566199 1_555
Ag5 F15 2.061743 1_555
Ag5 F3 2.074816 1_455
Ag5 F8 2.227354 1_545
Ag5 F11 2.294517 1_555
Ag5 F2 2.452247 1_455
Ag5 F0 2.567864 1_545
F0 Li0 1.966268 1_555
F1 Li0 1.967418 1_555
F2 Li0 2.120534 1_555
F5 Li1 2.121261 1_565
F10 Li0 2.131920 1_545
F13 Li1 2.117112 1_555
F14 Li1 1.963672 1_555
F15 Li1 1.961478 1_555
