# generated using pymatgen
data_Co3Ni3(TeO8)2
_symmetry_space_group_name_H-M   'P 1'
_cell_length_a   5.83472605
_cell_length_b   5.83472605
_cell_length_c   9.13350607
_cell_angle_alpha   87.42568713
_cell_angle_beta   87.42568713
_cell_angle_gamma   58.71712896
_symmetry_Int_Tables_number   1
_chemical_formula_structural   Co3Ni3(TeO8)2
_chemical_formula_sum   'Co3 Ni3 Te2 O16'
_cell_volume   265.38175935
_cell_formula_units_Z   1
loop_
 _symmetry_equiv_pos_site_id
 _symmetry_equiv_pos_as_xyz
  1  'x, y, z'
loop_
 _atom_site_type_symbol
 _atom_site_label
 _atom_site_symmetry_multiplicity
 _atom_site_fract_x
 _atom_site_fract_y
 _atom_site_fract_z
 _atom_site_occupancy
  Co  Co0  1  0.34333400  0.83597400  0.78488300  1
  Co  Co1  1  0.83597400  0.34333400  0.78488300  1
  Co  Co2  1  0.17060800  0.17060800  0.28170100  1
  Ni  Ni0  1  0.83345400  0.83345400  0.79053000  1
  Ni  Ni1  1  0.16819600  0.66571000  0.28873300  1
  Ni  Ni2  1  0.66571000  0.16819600  0.28873300  1
  Te  Te0  1  0.66835600  0.66835600  0.50875800  1
  Te  Te1  1  0.33382500  0.33382500  0.00874800  1
  O  O0  1  0.33804100  0.83852000  0.40522100  1
  O  O1  1  0.51922000  0.51922000  0.66656300  1
  O  O2  1  0.64986800  0.64986800  0.89071400  1
  O  O3  1  0.01522900  0.01522900  0.69773500  1
  O  O4  1  0.00989700  0.00989700  0.19795100  1
  O  O5  1  0.83852000  0.33804100  0.40522100  1
  O  O6  1  0.50005200  0.96541400  0.65462700  1
  O  O7  1  0.96541400  0.50005200  0.65462700  1
  O  O8  1  0.16689800  0.16689800  0.89975200  1
  O  O9  1  0.84116600  0.84116600  0.41013800  1
  O  O10  1  0.02682600  0.46796300  0.15387200  1
  O  O11  1  0.46796300  0.02682600  0.15387200  1
  O  O12  1  0.32467700  0.32467700  0.38132500  1
  O  O13  1  0.16881500  0.67549600  0.90858700  1
  O  O14  1  0.47806200  0.47806200  0.15828000  1
  O  O15  1  0.67549600  0.16881500  0.90858700  1
loop_
_geom_bond_atom_site_label_1
_geom_bond_atom_site_label_2
_geom_bond_distance
_geom_bond_site_symmetry_2
Co0 O2 1.832046 1_555
Co0 O6 1.833216 1_555
Co0 O3 1.837142 1_565
Co0 O1 1.935671 1_555
Co0 O8 1.977205 1_565
Co0 O13 1.995491 1_555
Co1 O2 1.832046 1_555
Co1 O7 1.833216 1_555
Co1 O3 1.837142 1_655
Co1 O1 1.935671 1_555
Co1 O8 1.977205 1_655
Co1 O15 1.995491 1_555
Co2 O4 1.840036 1_555
Co2 O12 1.852127 1_555
Co2 O10 1.863199 1_555
Co2 O11 1.863199 1_555
Co2 O0 1.979491 1_545
Co2 O5 1.979491 1_455
Ni0 O3 1.993699 1_665
Ni0 O15 2.017002 1_565
Ni0 O13 2.017002 1_655
Ni0 O2 2.036574 1_555
Ni0 O7 2.119756 1_555
Ni0 O6 2.119756 1_555
Ni1 O12 1.881403 1_555
Ni1 O4 1.888516 1_565
Ni1 O14 1.937809 1_555
Ni1 O9 1.949815 1_455
Ni1 O0 2.087948 1_555
Ni1 O10 2.176276 1_555
Ni2 O12 1.881403 1_555
Ni2 O4 1.888516 1_655
Ni2 O14 1.937809 1_555
Ni2 O9 1.949815 1_545
Ni2 O5 2.087948 1_555
Ni2 O11 2.176276 1_555
O0 Te0 1.920060 1_555
O1 Te0 2.037843 1_555
O5 Te0 1.920060 1_555
O6 Te0 2.016378 1_555
O7 Te0 2.016378 1_555
O8 Te1 2.011882 1_556
O9 Te0 1.933221 1_555
O10 Te1 2.000507 1_555
O11 Te1 2.000507 1_555
O13 Te1 1.913138 1_556
O14 Te1 2.055201 1_555
O15 Te1 1.913138 1_556
