# generated using pymatgen
data_Ba2YC2(O2F)3
_symmetry_space_group_name_H-M   'P 1'
_cell_length_a   7.08692200
_cell_length_b   9.60169000
_cell_length_c   11.91070300
_cell_angle_alpha   90.00000000
_cell_angle_beta   90.00000000
_cell_angle_gamma   90.00000000
_symmetry_Int_Tables_number   1
_chemical_formula_structural   Ba2YC2(O2F)3
_chemical_formula_sum   'Ba8 Y4 C8 O24 F12'
_cell_volume   810.48079529
_cell_formula_units_Z   4
loop_
 _symmetry_equiv_pos_site_id
 _symmetry_equiv_pos_as_xyz
  1  'x, y, z'
loop_
 _atom_site_type_symbol
 _atom_site_label
 _atom_site_symmetry_multiplicity
 _atom_site_fract_x
 _atom_site_fract_y
 _atom_site_fract_z
 _atom_site_occupancy
  Ba  Ba0  1  0.26255000  0.87980100  0.07121700  1
  Ba  Ba1  1  0.26255000  0.12019900  0.42878300  1
  Ba  Ba2  1  0.23745000  0.37980100  0.92878300  1
  Ba  Ba3  1  0.23745000  0.62019900  0.57121700  1
  Ba  Ba4  1  0.73745000  0.12019900  0.92878300  1
  Ba  Ba5  1  0.73745000  0.87980100  0.57121700  1
  Ba  Ba6  1  0.76255000  0.62019900  0.07121700  1
  Ba  Ba7  1  0.76255000  0.37980100  0.42878300  1
  Y  Y0  1  0.22817800  0.50000000  0.25000000  1
  Y  Y1  1  0.27182200  0.00000000  0.75000000  1
  Y  Y2  1  0.77182200  0.50000000  0.75000000  1
  Y  Y3  1  0.72817800  0.00000000  0.25000000  1
  C  C0  1  0.52053200  0.30590700  0.17982400  1
  C  C1  1  0.52053200  0.69409300  0.32017600  1
  C  C2  1  0.97946800  0.80590700  0.82017600  1
  C  C3  1  0.97946800  0.19409300  0.67982400  1
  C  C4  1  0.47946800  0.69409300  0.82017600  1
  C  C5  1  0.47946800  0.30590700  0.67982400  1
  C  C6  1  0.02053200  0.19409300  0.17982400  1
  C  C7  1  0.02053200  0.80590700  0.32017600  1
  O  O0  1  0.62005700  0.20253800  0.14631600  1
  O  O1  1  0.62005700  0.79746200  0.35368400  1
  O  O2  1  0.87994300  0.70253800  0.85368400  1
  O  O3  1  0.87994300  0.29746200  0.64631600  1
  O  O4  1  0.37994300  0.79746200  0.85368400  1
  O  O5  1  0.37994300  0.20253800  0.64631600  1
  O  O6  1  0.12005700  0.29746200  0.14631600  1
  O  O7  1  0.12005700  0.70253800  0.35368400  1
  O  O8  1  0.47830300  0.40866200  0.11267300  1
  O  O9  1  0.47830300  0.59133800  0.38732700  1
  O  O10  1  0.02169700  0.90866200  0.88732700  1
  O  O11  1  0.02169700  0.09133800  0.61267300  1
  O  O12  1  0.52169700  0.59133800  0.88732700  1
  O  O13  1  0.52169700  0.40866200  0.61267300  1
  O  O14  1  0.97830300  0.09133800  0.11267300  1
  O  O15  1  0.97830300  0.90866200  0.38732700  1
  O  O16  1  0.95737700  0.81493400  0.21701400  1
  O  O17  1  0.95737700  0.18506600  0.28298600  1
  O  O18  1  0.54262300  0.31493400  0.78298600  1
  O  O19  1  0.54262300  0.68506600  0.71701400  1
  O  O20  1  0.04262300  0.18506600  0.78298600  1
  O  O21  1  0.04262300  0.81493400  0.71701400  1
  O  O22  1  0.45737700  0.68506600  0.21701400  1
  O  O23  1  0.45737700  0.31493400  0.28298600  1
  F  F0  1  0.90181100  0.50000000  0.25000000  1
  F  F1  1  0.59818900  0.00000000  0.75000000  1
  F  F2  1  0.09818900  0.50000000  0.75000000  1
  F  F3  1  0.40181100  0.00000000  0.25000000  1
  F  F4  1  0.65031000  0.90606100  0.07793300  1
  F  F5  1  0.65031000  0.09393900  0.42206700  1
  F  F6  1  0.84969000  0.40606100  0.92206700  1
  F  F7  1  0.84969000  0.59393900  0.57793300  1
  F  F8  1  0.34969000  0.09393900  0.92206700  1
  F  F9  1  0.34969000  0.90606100  0.57793300  1
  F  F10  1  0.15031000  0.59393900  0.07793300  1
  F  F11  1  0.15031000  0.40606100  0.42206700  1
loop_
_geom_bond_atom_site_label_1
_geom_bond_atom_site_label_2
_geom_bond_distance
_geom_bond_site_symmetry_2
Ba0 F3 2.615433 1_565
Ba0 F4 2.760727 1_555
Ba0 F8 2.786530 1_564
Ba0 O10 2.790619 1_554
Ba0 O4 2.833782 1_554
Ba0 O16 2.842700 1_455
Ba0 F10 2.858814 1_555
Ba0 O22 2.901393 1_555
Ba0 O14 2.902961 1_465
Ba1 F3 2.615433 1_555
Ba1 F5 2.760727 1_555
Ba1 F9 2.786530 1_545
Ba1 O11 2.790619 1_555
Ba1 O5 2.833782 1_555
Ba1 O17 2.842700 1_455
Ba1 F11 2.858814 1_555
Ba1 O23 2.901393 1_555
Ba1 O15 2.902961 1_445
Ba2 F2 2.615433 1_555
Ba2 F6 2.760727 1_455
Ba2 F10 2.786530 1_556
Ba2 O8 2.790619 1_556
Ba2 O6 2.833782 1_556
Ba2 O18 2.842700 1_555
Ba2 F8 2.858814 1_555
Ba2 O20 2.901393 1_555
Ba2 O12 2.902961 1_555
Ba3 F2 2.615433 1_555
Ba3 F7 2.760727 1_455
Ba3 F11 2.786530 1_555
Ba3 O9 2.790619 1_555
Ba3 O7 2.833782 1_555
Ba3 O19 2.842700 1_555
Ba3 F9 2.858814 1_555
Ba3 O21 2.901393 1_555
Ba3 O13 2.902961 1_555
Ba4 F1 2.615433 1_555
Ba4 F8 2.760727 1_555
Ba4 F4 2.786530 1_546
Ba4 O14 2.790619 1_556
Ba4 O0 2.833782 1_556
Ba4 O20 2.842700 1_655
Ba4 F6 2.858814 1_555
Ba4 O18 2.901393 1_555
Ba4 O10 2.902961 1_645
Ba5 F1 2.615433 1_565
Ba5 F9 2.760727 1_555
Ba5 F5 2.786530 1_565
Ba5 O15 2.790619 1_555
Ba5 O1 2.833782 1_555
Ba5 O21 2.842700 1_655
Ba5 F7 2.858814 1_555
Ba5 O19 2.901393 1_555
Ba5 O11 2.902961 1_665
Ba6 F0 2.615433 1_555
Ba6 F10 2.760727 1_655
Ba6 F6 2.786530 1_554
Ba6 O12 2.790619 1_554
Ba6 O2 2.833782 1_554
Ba6 O22 2.842700 1_555
Ba6 F4 2.858814 1_555
Ba6 O16 2.901393 1_555
Ba6 O8 2.902961 1_555
Ba7 F0 2.615433 1_555
Ba7 F11 2.760727 1_655
Ba7 F7 2.786530 1_555
Ba7 O13 2.790619 1_555
Ba7 O3 2.833782 1_555
Ba7 O23 2.842700 1_555
Ba7 F5 2.858814 1_555
Ba7 O17 2.901393 1_555
Ba7 O9 2.902961 1_555
C0 O0 1.281350 1_555
C0 O8 1.304872 1_555
C0 O23 1.310579 1_555
C1 O1 1.281350 1_555
C1 O9 1.304872 1_555
C1 O22 1.310579 1_555
C2 O2 1.281350 1_555
C2 O10 1.304872 1_655
C2 O21 1.310579 1_655
C3 O3 1.281350 1_555
C3 O11 1.304872 1_655
C3 O20 1.310579 1_655
C4 O4 1.281350 1_555
C4 O12 1.304872 1_555
C4 O19 1.310579 1_555
C5 O5 1.281350 1_555
C5 O13 1.304872 1_555
C5 O18 1.310579 1_555
C6 O6 1.281350 1_555
C6 O14 1.304872 1_455
C6 O17 1.310579 1_455
C7 O7 1.281350 1_555
C7 O15 1.304872 1_455
C7 O16 1.310579 1_455
O0 Y3 2.427780 1_555
O1 Y3 2.427780 1_565
O2 Y2 2.427780 1_555
O3 Y2 2.427780 1_555
O4 Y1 2.427780 1_565
O5 Y1 2.427780 1_555
O6 Y0 2.427780 1_555
O7 Y0 2.427780 1_555
O8 Y0 2.566454 1_555
O9 Y0 2.566454 1_555
O10 Y1 2.566454 1_565
O11 Y1 2.566454 1_555
O12 Y2 2.566454 1_555
O13 Y2 2.566454 1_555
O14 Y3 2.566454 1_555
O15 Y3 2.566454 1_565
O16 Y3 2.439323 1_565
O17 Y3 2.439323 1_555
O18 Y2 2.439323 1_555
O19 Y2 2.439323 1_555
O20 Y1 2.439323 1_555
O21 Y1 2.439323 1_565
O22 Y0 2.439323 1_555
O23 Y0 2.439323 1_555
F0 Y0 2.312937 1_655
F1 Y1 2.312937 1_555
F2 Y2 2.312937 1_455
F3 Y3 2.312937 1_555
F4 Y3 2.306141 1_565
F5 Y3 2.306141 1_555
F6 Y2 2.306141 1_555
F7 Y2 2.306141 1_555
F8 Y1 2.306141 1_555
F9 Y1 2.306141 1_565
F10 Y0 2.306141 1_555
F11 Y0 2.306141 1_555
