# generated using pymatgen
data_Li35(FeO4)8
_symmetry_space_group_name_H-M   'P 1'
_cell_length_a   9.18812700
_cell_length_b   9.26759719
_cell_length_c   9.43769127
_cell_angle_alpha   89.74714746
_cell_angle_beta   89.82814928
_cell_angle_gamma   89.96065535
_symmetry_Int_Tables_number   1
_chemical_formula_structural   Li35(FeO4)8
_chemical_formula_sum   'Li35 Fe8 O32'
_cell_volume   803.62534219
_cell_formula_units_Z   1
loop_
 _symmetry_equiv_pos_site_id
 _symmetry_equiv_pos_as_xyz
  1  'x, y, z'
loop_
 _atom_site_type_symbol
 _atom_site_label
 _atom_site_symmetry_multiplicity
 _atom_site_fract_x
 _atom_site_fract_y
 _atom_site_fract_z
 _atom_site_occupancy
  Li  Li0  1  0.37339100  0.13614800  0.89946800  1
  Li  Li1  1  0.12396700  0.63824100  0.89845500  1
  Li  Li2  1  0.61485900  0.33202600  0.88411400  1
  Li  Li3  1  0.15299400  0.36227300  0.88630500  1
  Li  Li4  1  0.35234600  0.85474800  0.88503300  1
  Li  Li5  1  0.88125200  0.41263000  0.83977200  1
  Li  Li6  1  0.62984600  0.91596500  0.84269800  1
  Li  Li7  1  0.11707600  0.91632600  0.66460200  1
  Li  Li8  1  0.38144800  0.41551100  0.66242300  1
  Li  Li9  1  0.84589000  0.85728400  0.63169500  1
  Li  Li10  1  0.65568400  0.36056000  0.61589200  1
  Li  Li11  1  0.38920200  0.83252900  0.61755400  1
  Li  Li12  1  0.11062900  0.33106600  0.61772700  1
  Li  Li13  1  0.86875000  0.13662600  0.60038500  1
  Li  Li14  1  0.62290700  0.63106600  0.59722800  1
  Li  Li15  1  0.38392200  0.36083700  0.38706300  1
  Li  Li16  1  0.11502800  0.86486200  0.38865700  1
  Li  Li17  1  0.88600800  0.65542200  0.39121000  1
  Li  Li18  1  0.61382100  0.15418900  0.39182800  1
  Li  Li19  1  0.35057300  0.62772600  0.37852800  1
  Li  Li20  1  0.15231400  0.13058900  0.38022800  1
  Li  Li21  1  0.37964100  0.89721500  0.35124700  1
  Li  Li22  1  0.12168000  0.39323500  0.35127000  1
  Li  Li23  1  0.88349300  0.10217000  0.33698100  1
  Li  Li24  1  0.61457900  0.60425600  0.33721200  1
  Li  Li25  1  0.38845600  0.10775900  0.16470600  1
  Li  Li26  1  0.11751300  0.59849800  0.16324400  1
  Li  Li27  1  0.62191800  0.39606100  0.14960200  1
  Li  Li28  1  0.87449500  0.89512000  0.13287000  1
  Li  Li29  1  0.84716300  0.62866000  0.12226600  1
  Li  Li30  1  0.65040900  0.13179900  0.12247900  1
  Li  Li31  1  0.39087200  0.65267700  0.10537600  1
  Li  Li32  1  0.11096600  0.15818500  0.11054500  1
  Li  Li33  1  0.88314200  0.36039100  0.11178200  1
  Li  Li34  1  0.61627100  0.86414200  0.11182600  1
  Fe  Fe0  1  0.87104100  0.11888200  0.87563100  1
  Fe  Fe1  1  0.63050600  0.62190600  0.87282900  1
  Fe  Fe2  1  0.37004600  0.12090700  0.62383300  1
  Fe  Fe3  1  0.12976400  0.62146300  0.62378900  1
  Fe  Fe4  1  0.85155800  0.37829700  0.38207100  1
  Fe  Fe5  1  0.64944100  0.87811100  0.38275600  1
  Fe  Fe6  1  0.35052400  0.37978500  0.11704100  1
  Fe  Fe7  1  0.14873000  0.87772600  0.11758900  1
  O  O0  1  0.73509900  0.49637200  0.99397500  1
  O  O1  1  0.75787700  0.00512800  0.99665900  1
  O  O2  1  0.98257500  0.25240500  0.97422700  1
  O  O3  1  0.52127300  0.75220500  0.97432900  1
  O  O4  1  0.94395200  0.00224200  0.74333100  1
  O  O5  1  0.55751600  0.48802500  0.75000300  1
  O  O6  1  0.77587100  0.24864600  0.75856600  1
  O  O7  1  0.70363800  0.74587800  0.74636900  1
  O  O8  1  0.27557500  0.24698500  0.74121400  1
  O  O9  1  0.22375300  0.74759000  0.74130500  1
  O  O10  1  0.43949700  0.99154600  0.75345500  1
  O  O11  1  0.05849300  0.49076100  0.75131400  1
  O  O12  1  0.48100600  0.25274000  0.52638300  1
  O  O13  1  0.02026400  0.75280400  0.52566900  1
  O  O14  1  0.23388800  0.49572200  0.50370800  1
  O  O15  1  0.26488300  0.99524200  0.50422400  1
  O  O16  1  0.76378000  0.00543100  0.48192400  1
  O  O17  1  0.73625200  0.50743500  0.48022500  1
  O  O18  1  0.99356200  0.25063300  0.46449500  1
  O  O19  1  0.50374700  0.75172100  0.46258200  1
  O  O20  1  0.96327000  0.49831600  0.25654600  1
  O  O21  1  0.53782700  0.00076300  0.25862300  1
  O  O22  1  0.74892100  0.25897900  0.25315500  1
  O  O23  1  0.74994600  0.75954500  0.25116600  1
  O  O24  1  0.24975500  0.25779800  0.24761300  1
  O  O25  1  0.25451500  0.76197200  0.24082000  1
  O  O26  1  0.46128500  0.49965200  0.24300800  1
  O  O27  1  0.03688100  0.99869900  0.23604900  1
  O  O28  1  0.01635400  0.75085900  0.05261900  1
  O  O29  1  0.49100200  0.25264400  0.03388400  1
  O  O30  1  0.26676400  0.00298400  0.02731200  1
  O  O31  1  0.23718000  0.50934500  0.01695400  1
loop_
_geom_bond_atom_site_label_1
_geom_bond_atom_site_label_2
_geom_bond_distance
_geom_bond_site_symmetry_2
Li0 O30 1.979909 1_556
Li0 O29 1.991123 1_556
Li0 O10 2.018401 1_545
Li0 O8 2.021586 1_555
Li1 O31 1.937322 1_556
Li1 O9 2.011748 1_555
Li1 O11 2.044824 1_555
Li1 O28 2.046264 1_556
Li2 O29 1.953601 1_556
Li2 O5 1.989107 1_555
Li2 O6 2.045893 1_555
Li2 O0 2.153717 1_555
Li3 O11 1.945965 1_555
Li3 O31 1.999613 1_556
Li3 O2 2.040603 1_455
Li3 O8 2.070545 1_555
Li4 O10 1.942184 1_555
Li4 O3 2.005289 1_555
Li4 O9 2.060425 1_555
Li4 O30 2.077779 1_566
Li5 O6 1.962456 1_555
Li5 O11 1.965055 1_655
Li5 O0 2.126121 1_555
Li5 O2 2.161113 1_555
Li6 O7 1.943811 1_555
Li6 O1 2.049427 1_565
Li6 O10 2.064169 1_555
Li6 O3 2.195396 1_555
Li7 O4 1.926847 1_465
Li7 O9 1.980481 1_555
Li7 O15 2.156266 1_555
Li7 O13 2.198523 1_555
Li8 O5 1.940695 1_555
Li8 O8 1.981427 1_555
Li8 O14 2.153013 1_555
Li8 O12 2.183780 1_555
Li9 O4 1.935578 1_565
Li9 O7 1.982196 1_555
Li9 O16 2.107135 1_565
Li9 O13 2.121933 1_655
Li10 O5 1.953433 1_555
Li10 O17 2.005119 1_555
Li10 O6 2.025663 1_555
Li10 O12 2.075036 1_555
Li11 O19 1.951151 1_555
Li11 O10 2.012852 1_555
Li11 O9 2.068208 1_555
Li11 O15 2.171039 1_555
Li12 O18 1.955490 1_455
Li12 O11 2.005295 1_555
Li12 O8 2.064767 1_555
Li12 O14 2.179376 1_555
Li13 O16 1.917951 1_555
Li13 O4 1.959105 1_555
Li13 O6 2.009849 1_555
Li13 O18 2.014230 1_555
Li14 O17 1.902450 1_555
Li14 O7 1.919410 1_555
Li14 O19 2.014439 1_555
Li14 O5 2.043591 1_555
Li15 O12 1.876790 1_555
Li15 O26 1.997170 1_555
Li15 O24 2.045986 1_555
Li15 O14 2.162306 1_555
Li16 O13 1.868504 1_555
Li16 O27 2.029188 1_555
Li16 O25 2.120810 1_555
Li16 O15 2.137370 1_555
Li17 O13 1.991863 1_655
Li17 O23 2.058621 1_555
Li17 O20 2.061214 1_555
Li17 O17 2.113180 1_555
Li18 O12 1.983780 1_555
Li18 O21 2.027842 1_555
Li18 O22 2.043900 1_555
Li18 O16 2.125123 1_555
Li19 O19 1.986829 1_555
Li19 O25 2.001757 1_555
Li19 O14 2.005797 1_555
Li19 O26 2.020732 1_555
Li20 O24 1.933798 1_555
Li20 O18 1.999103 1_455
Li20 O15 2.001280 1_545
Li20 O27 2.120282 1_545
Li21 O21 1.945358 1_565
Li21 O25 1.999883 1_555
Li21 O15 2.005655 1_555
Li21 O19 2.053059 1_555
Li22 O20 1.965758 1_455
Li22 O24 1.979695 1_555
Li22 O14 2.014227 1_555
Li22 O18 2.063075 1_455
Li23 O27 1.952265 1_645
Li23 O16 1.966310 1_555
Li23 O22 2.063950 1_555
Li23 O18 2.094746 1_555
Li24 O26 1.931594 1_555
Li24 O17 1.968161 1_555
Li24 O23 2.064869 1_555
Li24 O19 2.076015 1_555
Li25 O21 1.910538 1_555
Li25 O30 1.973765 1_555
Li25 O24 2.042305 1_555
Li25 O29 2.048218 1_555
Li26 O20 1.906034 1_455
Li26 O31 1.948712 1_555
Li26 O28 1.984625 1_555
Li26 O25 2.105654 1_555
Li27 O26 1.968459 1_555
Li27 O22 1.981069 1_555
Li27 O0 2.020653 1_554
Li27 O29 2.104539 1_555
Li28 O1 1.958383 1_564
Li28 O28 2.015092 1_655
Li28 O27 2.028487 1_655
Li28 O23 2.028949 1_555
Li29 O23 1.937565 1_555
Li29 O0 2.012842 1_554
Li29 O28 2.030007 1_655
Li29 O20 2.048448 1_555
Li30 O22 1.936614 1_555
Li30 O1 1.940840 1_554
Li30 O29 2.023715 1_555
Li30 O21 2.043446 1_555
Li31 O3 1.948980 1_554
Li31 O26 2.025961 1_555
Li31 O25 2.056627 1_555
Li31 O31 2.115292 1_555
Li32 O2 1.951159 1_454
Li32 O27 2.007997 1_545
Li32 O24 2.043007 1_555
Li32 O30 2.176108 1_555
Li33 O2 1.877402 1_554
Li33 O20 2.016248 1_555
Li33 O22 2.040839 1_555
Li33 O0 2.160764 1_554
Li34 O3 1.881986 1_554
Li34 O21 2.012525 1_565
Li34 O23 2.043122 1_555
Li34 O1 2.136058 1_564
Fe0 O4 1.783874 1_555
Fe0 O6 1.850444 1_555
Fe0 O2 1.861433 1_555
Fe0 O1 1.865726 1_555
Fe1 O7 1.783284 1_555
Fe1 O5 1.830701 1_555
Fe1 O3 1.840083 1_555
Fe1 O0 1.891450 1_555
Fe2 O10 1.825298 1_545
Fe2 O8 1.830353 1_555
Fe2 O12 1.834166 1_555
Fe2 O15 1.893124 1_545
Fe3 O11 1.824298 1_555
Fe3 O13 1.829025 1_555
Fe3 O9 1.833227 1_555
Fe3 O14 1.887116 1_555
Fe4 O17 1.847980 1_555
Fe4 O22 1.900678 1_555
Fe4 O20 1.917500 1_555
Fe4 O18 1.924358 1_555
Fe5 O16 1.840992 1_565
Fe5 O23 1.899020 1_555
Fe5 O21 1.926160 1_565
Fe5 O19 1.928704 1_555
Fe6 O31 1.847345 1_555
Fe6 O24 1.906881 1_555
Fe6 O29 1.915797 1_555
Fe6 O26 1.924458 1_555
Fe7 O30 1.799191 1_565
Fe7 O28 1.802921 1_555
Fe7 O25 1.855392 1_555
Fe7 O27 1.888266 1_555
