# generated using pymatgen
data_Li7V(O2F)2
_symmetry_space_group_name_H-M   'P 1'
_cell_length_a   5.52666300
_cell_length_b   5.86610250
_cell_length_c   9.84367846
_cell_angle_alpha   105.56627397
_cell_angle_beta   89.62211448
_cell_angle_gamma   117.33389978
_symmetry_Int_Tables_number   1
_chemical_formula_structural   Li7V(O2F)2
_chemical_formula_sum   'Li14 V2 O8 F4'
_cell_volume   270.55274609
_cell_formula_units_Z   2
loop_
 _symmetry_equiv_pos_site_id
 _symmetry_equiv_pos_as_xyz
  1  'x, y, z'
loop_
 _atom_site_type_symbol
 _atom_site_label
 _atom_site_symmetry_multiplicity
 _atom_site_fract_x
 _atom_site_fract_y
 _atom_site_fract_z
 _atom_site_occupancy
  Li  Li0  1  0.03225700  0.17256400  0.76438700  1
  Li  Li1  1  0.49606600  0.14046800  0.25053100  1
  Li  Li2  1  0.54383900  0.42901000  0.61684100  1
  Li  Li3  1  0.96456000  0.57972100  0.87351000  1
  Li  Li4  1  0.03163800  0.20698200  0.54693400  1
  Li  Li5  1  0.52917100  0.26167600  0.04880900  1
  Li  Li6  1  0.97877300  0.33917500  0.31899000  1
  Li  Li7  1  0.45582700  0.75671700  0.94918200  1
  Li  Li8  1  0.95746000  0.75562800  0.45143600  1
  Li  Li9  1  0.01485500  0.40367900  0.12298400  1
  Li  Li10  1  0.49457100  0.60589500  0.38325800  1
  Li  Li11  1  0.42925100  0.79549500  0.73506200  1
  Li  Li12  1  0.02815900  0.85729900  0.25291800  1
  Li  Li13  1  0.51177000  0.64996200  0.19008500  1
  V  V0  1  0.02879100  0.97333600  0.00989900  1
  V  V1  1  0.49310100  0.05211300  0.47294800  1
  O  O0  1  0.29601900  0.85267800  0.19510400  1
  O  O1  1  0.15858500  0.82202500  0.95650900  1
  O  O2  1  0.68820900  0.88008700  0.44926400  1
  O  O3  1  0.73408800  0.54395100  0.11630000  1
  O  O4  1  0.24726600  0.44145100  0.89885100  1
  O  O5  1  0.34505800  0.16771000  0.54278400  1
  O  O6  1  0.21945600  0.15293200  0.30533500  1
  O  O7  1  0.78240200  0.49160700  0.38122300  1
  F  F0  1  0.22665900  0.51860900  0.60706400  1
  F  F1  1  0.79053700  0.88714100  0.69237700  1
  F  F2  1  0.81687900  0.14194300  0.06084400  1
  F  F3  1  0.70475600  0.12014900  0.80657100  1
loop_
_geom_bond_atom_site_label_1
_geom_bond_atom_site_label_2
_geom_bond_distance
_geom_bond_site_symmetry_2
Li0 O4 1.682523 1_555
Li1 O0 1.472952 1_545
Li1 O6 1.644382 1_555
Li1 O7 2.003321 1_555
Li2 O5 1.397231 1_555
Li3 O1 1.351391 1_655
Li4 O5 1.848140 1_555
Li4 O2 1.973860 1_445
Li5 O3 1.470765 1_555
Li6 O7 1.714964 1_555
Li6 O6 2.057776 1_655
Li7 O4 1.597626 1_555
Li7 O1 1.847210 1_555
Li8 O7 1.367721 1_555
Li8 O2 1.937606 1_555
Li9 O3 2.071755 1_455
Li9 O0 2.260150 1_555
Li10 O2 1.421978 1_555
Li10 O7 1.987992 1_555
Li10 O6 2.274160 1_555
Li12 O6 1.494874 1_565
Li12 O0 1.591720 1_555
Li12 O3 1.946098 1_455
Li13 O3 1.694523 1_555
Li13 O0 2.026856 1_555
O1 V0 1.381300 1_556
O2 V1 1.762131 1_565
O5 V1 1.361518 1_555
F0 Li4 1.572268 1_555
F0 Li11 1.652107 1_555
F0 Li2 2.057627 1_555
F1 Li0 1.553016 1_665
F1 Li11 1.891238 1_555
F1 Li2 2.282563 1_555
F2 Li9 1.375026 1_655
F2 V0 1.841520 1_645
F2 Li5 2.026925 1_555
F2 Li7 2.202552 1_544
F3 Li11 1.752844 1_545
F3 Li0 1.757997 1_655
F3 Li3 2.295199 1_555
