# generated using pymatgen
data_Li4Mn5(CuO6)2
_symmetry_space_group_name_H-M   'P 1'
_cell_length_a   8.80648000
_cell_length_b   5.35359500
_cell_length_c   9.75844796
_cell_angle_alpha   82.57122513
_cell_angle_beta   90.00000000
_cell_angle_gamma   90.00000000
_symmetry_Int_Tables_number   1
_chemical_formula_structural   Li4Mn5(CuO6)2
_chemical_formula_sum   'Li8 Mn10 Cu4 O24'
_cell_volume   456.21327478
_cell_formula_units_Z   2
loop_
 _symmetry_equiv_pos_site_id
 _symmetry_equiv_pos_as_xyz
  1  'x, y, z'
loop_
 _atom_site_type_symbol
 _atom_site_label
 _atom_site_symmetry_multiplicity
 _atom_site_fract_x
 _atom_site_fract_y
 _atom_site_fract_z
 _atom_site_occupancy
  Li  Li0  1  0.90291500  0.01248600  0.73797600  1
  Li  Li1  1  0.91509800  0.47711500  0.26114000  1
  Li  Li2  1  0.57882200  0.76026000  0.50629200  1
  Li  Li3  1  0.40291500  0.98751400  0.26202400  1
  Li  Li4  1  0.59387000  0.49127500  0.26368500  1
  Li  Li5  1  0.41509800  0.52288500  0.73886000  1
  Li  Li6  1  0.07882200  0.23974000  0.49370800  1
  Li  Li7  1  0.09387000  0.50872500  0.73631500  1
  Mn  Mn0  1  0.92593300  0.26419000  0.99619100  1
  Mn  Mn1  1  0.91596400  0.74269200  0.49765700  1
  Mn  Mn2  1  0.75399400  0.99128700  0.25513300  1
  Mn  Mn3  1  0.58848800  0.23173100  0.00718600  1
  Mn  Mn4  1  0.74481800  0.50778600  0.74485800  1
  Mn  Mn5  1  0.41596400  0.25730800  0.50234300  1
  Mn  Mn6  1  0.42593300  0.73581000  0.00380900  1
  Mn  Mn7  1  0.25399400  0.00871300  0.74486700  1
  Mn  Mn8  1  0.24481800  0.49221400  0.25514200  1
  Mn  Mn9  1  0.08848800  0.76826900  0.99281400  1
  Cu  Cu0  1  0.73800400  0.24394200  0.50690700  1
  Cu  Cu1  1  0.75237400  0.75316600  0.99493100  1
  Cu  Cu2  1  0.25237400  0.24683400  0.00506900  1
  Cu  Cu3  1  0.23800400  0.75605800  0.49309300  1
  O  O0  1  0.88922200  0.09560100  0.39680200  1
  O  O1  1  0.92349000  0.90545600  0.09305900  1
  O  O2  1  0.76592100  0.18485200  0.86996300  1
  O  O3  1  0.91866800  0.60472100  0.88479000  1
  O  O4  1  0.76230200  0.82376300  0.62889200  1
  O  O5  1  0.89783100  0.39773900  0.60853000  1
  O  O6  1  0.57592300  0.14106800  0.39077400  1
  O  O7  1  0.76221500  0.66438900  0.36364400  1
  O  O8  1  0.60065400  0.87818300  0.12966800  1
  O  O9  1  0.74361900  0.32122600  0.13917000  1
  O  O10  1  0.42349000  0.09454400  0.90694100  1
  O  O11  1  0.58428000  0.59857300  0.88827900  1
  O  O12  1  0.38922200  0.90439900  0.60319800  1
  O  O13  1  0.57860500  0.38392800  0.61076700  1
  O  O14  1  0.26230200  0.17623700  0.37110800  1
  O  O15  1  0.39783100  0.60226100  0.39147000  1
  O  O16  1  0.26592100  0.81514800  0.13003700  1
  O  O17  1  0.41866800  0.39527900  0.11521000  1
  O  O18  1  0.10065400  0.12181700  0.87033200  1
  O  O19  1  0.24361900  0.67877400  0.86083000  1
  O  O20  1  0.07592300  0.85893200  0.60922600  1
  O  O21  1  0.26221500  0.33561100  0.63635600  1
  O  O22  1  0.07860500  0.61607200  0.38923300  1
  O  O23  1  0.08428000  0.40142700  0.11172100  1
loop_
_geom_bond_atom_site_label_1
_geom_bond_atom_site_label_2
_geom_bond_distance
_geom_bond_site_symmetry_2
Li0 O4 1.991344 1_545
Li0 O2 2.067185 1_555
Li0 O20 2.200624 1_645
Li0 O5 2.275481 1_555
Li0 O18 2.288821 1_655
Li0 O3 2.455319 1_545
Li1 O7 2.019347 1_555
Li1 O22 2.104690 1_655
Li1 O9 2.156505 1_555
Li1 O23 2.159355 1_655
Li1 O0 2.297171 1_555
Li2 O4 2.064690 1_555
Li2 O12 2.113373 1_555
Li2 O13 2.137147 1_555
Li2 O15 2.180951 1_555
Li2 O6 2.198497 1_565
Li2 O7 2.234790 1_555
Li3 O14 1.991344 1_565
Li3 O16 2.067185 1_555
Li3 O6 2.200624 1_565
Li3 O15 2.275481 1_555
Li3 O8 2.288821 1_555
Li3 O17 2.455319 1_565
Li4 O7 2.059629 1_555
Li4 O9 2.080951 1_555
Li4 O6 2.115872 1_555
Li4 O17 2.221827 1_555
Li4 O15 2.253909 1_555
Li4 O8 2.303020 1_555
Li5 O21 2.019347 1_555
Li5 O13 2.104690 1_555
Li5 O19 2.156505 1_555
Li5 O11 2.159355 1_555
Li5 O12 2.297171 1_555
Li6 O14 2.064690 1_555
Li6 O0 2.113373 1_455
Li6 O22 2.137147 1_555
Li6 O5 2.180951 1_455
Li6 O20 2.198497 1_545
Li6 O21 2.234790 1_555
Li7 O21 2.059629 1_555
Li7 O19 2.080951 1_555
Li7 O20 2.115872 1_555
Li7 O3 2.221827 1_455
Li7 O5 2.253909 1_455
Li7 O18 2.303020 1_555
Mn0 O2 1.954146 1_555
Mn0 O23 1.992381 1_656
Mn0 O3 1.999241 1_555
Mn0 O1 2.028043 1_546
Mn0 O18 2.167719 1_655
Mn0 O9 2.174376 1_556
Mn1 O20 1.931886 1_655
Mn1 O4 1.950225 1_555
Mn1 O22 1.953436 1_655
Mn1 O7 1.964945 1_555
Mn1 O5 2.022345 1_555
Mn1 O0 2.028012 1_565
Mn2 O7 1.926158 1_555
Mn2 O0 1.959831 1_565
Mn2 O8 1.970003 1_555
Mn2 O9 1.972830 1_565
Mn2 O1 2.264629 1_555
Mn2 O6 2.264658 1_565
Mn3 O10 1.947690 1_554
Mn3 O9 1.978472 1_555
Mn3 O17 2.086405 1_555
Mn3 O2 2.093951 1_554
Mn3 O8 2.106556 1_545
Mn3 O11 2.148371 1_554
Mn4 O4 1.915952 1_555
Mn4 O2 1.992016 1_555
Mn4 O5 2.033561 1_555
Mn4 O11 2.090378 1_555
Mn4 O13 2.125757 1_555
Mn4 O3 2.158976 1_555
Mn5 O6 1.931886 1_555
Mn5 O14 1.950225 1_555
Mn5 O13 1.953436 1_555
Mn5 O21 1.964945 1_555
Mn5 O15 2.022345 1_555
Mn5 O12 2.028012 1_545
Mn6 O16 1.954146 1_555
Mn6 O11 1.992381 1_554
Mn6 O17 1.999241 1_555
Mn6 O10 2.028043 1_564
Mn6 O8 2.167719 1_555
Mn6 O19 2.174376 1_554
Mn7 O21 1.926158 1_555
Mn7 O12 1.959831 1_545
Mn7 O18 1.970003 1_555
Mn7 O19 1.972830 1_545
Mn7 O10 2.264629 1_555
Mn7 O20 2.264658 1_545
Mn8 O14 1.915952 1_555
Mn8 O16 1.992016 1_555
Mn8 O15 2.033561 1_555
Mn8 O23 2.090378 1_555
Mn8 O22 2.125757 1_555
Mn8 O17 2.158976 1_555
Mn9 O1 1.947690 1_456
Mn9 O19 1.978472 1_555
Mn9 O3 2.086405 1_455
Mn9 O16 2.093951 1_556
Mn9 O18 2.106556 1_565
Mn9 O23 2.148371 1_556
Cu0 O13 1.937978 1_555
Cu0 O0 1.944018 1_555
Cu0 O6 1.945868 1_555
Cu0 O5 1.963059 1_555
Cu0 O4 2.414639 1_545
Cu0 O7 2.500554 1_555
Cu1 O1 2.013550 1_556
Cu1 O3 2.037722 1_555
Cu1 O11 2.045048 1_555
Cu1 O8 2.046823 1_556
Cu1 O2 2.472583 1_565
Cu1 O9 2.548100 1_556
Cu2 O10 2.013550 1_554
Cu2 O17 2.037722 1_555
Cu2 O23 2.045048 1_555
Cu2 O18 2.046823 1_554
Cu2 O16 2.472583 1_545
Cu2 O19 2.548100 1_554
Cu3 O22 1.937978 1_555
Cu3 O12 1.944018 1_555
Cu3 O20 1.945868 1_555
Cu3 O15 1.963059 1_555
Cu3 O14 2.414639 1_565
Cu3 O21 2.500554 1_555
