# generated using pymatgen
data_Li2Co4O3F8
_symmetry_space_group_name_H-M   'P 1'
_cell_length_a   6.53874400
_cell_length_b   6.84121103
_cell_length_c   5.05438869
_cell_angle_alpha   104.14120492
_cell_angle_beta   96.74081455
_cell_angle_gamma   108.76494590
_symmetry_Int_Tables_number   1
_chemical_formula_structural   Li2Co4O3F8
_chemical_formula_sum   'Li2 Co4 O3 F8'
_cell_volume   202.80862175
_cell_formula_units_Z   1
loop_
 _symmetry_equiv_pos_site_id
 _symmetry_equiv_pos_as_xyz
  1  'x, y, z'
loop_
 _atom_site_type_symbol
 _atom_site_label
 _atom_site_symmetry_multiplicity
 _atom_site_fract_x
 _atom_site_fract_y
 _atom_site_fract_z
 _atom_site_occupancy
  Li  Li0  1  0.40518500  0.67786900  0.18400100  1
  Li  Li1  1  0.59481500  0.32213100  0.81599900  1
  Co  Co0  1  0.96938200  0.90153800  0.24847700  1
  Co  Co1  1  0.77208800  0.34564600  0.37679500  1
  Co  Co2  1  0.22791200  0.65435400  0.62320500  1
  Co  Co3  1  0.03061800  0.09846200  0.75152300  1
  O  O0  1  0.00000000  0.00000000  0.00000000  1
  O  O1  1  0.95621200  0.73815800  0.53604700  1
  O  O2  1  0.04378800  0.26184200  0.46395300  1
  F  F0  1  0.80725000  0.49251500  0.10966400  1
  F  F1  1  0.66728100  0.94571100  0.19904900  1
  F  F2  1  0.49924900  0.37923400  0.29347500  1
  F  F3  1  0.24864300  0.80520300  0.35049800  1
  F  F4  1  0.75135700  0.19479700  0.64950200  1
  F  F5  1  0.50075100  0.62076600  0.70652500  1
  F  F6  1  0.33271900  0.05428900  0.80095100  1
  F  F7  1  0.19275000  0.50748500  0.89033600  1
loop_
_geom_bond_atom_site_label_1
_geom_bond_atom_site_label_2
_geom_bond_distance
_geom_bond_site_symmetry_2
Co0 O0 1.567395 1_665
Co0 O1 2.032392 1_555
Co0 F1 2.088273 1_555
Co0 F3 2.180331 1_655
Co0 O2 2.300211 1_665
Co0 F0 2.530548 1_555
Co1 F0 1.863472 1_555
Co1 F2 1.883493 1_555
Co1 F4 1.905829 1_555
Co1 O2 2.067360 1_655
Co1 O1 2.438115 1_555
Co1 F1 2.492135 1_545
Co2 F7 1.863472 1_555
Co2 F5 1.883493 1_555
Co2 F3 1.905829 1_555
Co2 O1 2.067360 1_455
Co2 O2 2.438115 1_555
Co2 F6 2.492135 1_565
Co3 O0 1.567395 1_556
Co3 O2 2.032392 1_555
Co3 F6 2.088273 1_555
Co3 F4 2.180331 1_455
Co3 O1 2.300211 1_445
Co3 F7 2.530548 1_555
F0 Li1 1.766411 1_554
F1 Li0 2.044827 1_555
F3 Li0 1.712443 1_555
F4 Li1 1.712443 1_555
F6 Li1 2.044827 1_555
F7 Li0 1.766411 1_556
