# generated using pymatgen
data_TiFe2Si
_symmetry_space_group_name_H-M   'P 1'
_cell_length_a   3.99296333
_cell_length_b   3.99296333
_cell_length_c   3.99296333
_cell_angle_alpha   59.98995358
_cell_angle_beta   59.98995358
_cell_angle_gamma   59.98995358
_symmetry_Int_Tables_number   1
_chemical_formula_structural   TiFe2Si
_chemical_formula_sum   'Ti1 Fe2 Si1'
_cell_volume   45.00616696
_cell_formula_units_Z   1
loop_
 _symmetry_equiv_pos_site_id
 _symmetry_equiv_pos_as_xyz
  1  'x, y, z'
loop_
 _atom_site_type_symbol
 _atom_site_label
 _atom_site_symmetry_multiplicity
 _atom_site_fract_x
 _atom_site_fract_y
 _atom_site_fract_z
 _atom_site_occupancy
  Ti  Ti0  1  0.74999247  0.74999247  0.74999247  1
  Fe  Fe0  1  -0.00000001  -0.00000001  -0.00000001  1
  Fe  Fe1  1  0.49999974  0.49999974  0.49999974  1
  Si  Si0  1  0.25000479  0.25000479  0.25000479  1
loop_
_geom_bond_atom_site_label_1
_geom_bond_atom_site_label_2
_geom_bond_distance
_geom_bond_site_symmetry_2
Fe0 Ti0 2.444847 1_544
Fe0 Ti0 2.444847 1_445
Fe0 Ti0 2.444847 1_454
Fe0 Si0 2.444856 1_545
Fe0 Si0 2.444856 1_554
Fe0 Si0 2.444856 1_455
Fe0 Si0 2.445413 1_555
Fe0 Ti0 2.445440 1_444
Fe1 Si0 2.444888 1_565
Fe1 Si0 2.444888 1_655
Fe1 Si0 2.444888 1_556
Fe1 Ti0 2.444895 1_455
Fe1 Ti0 2.444895 1_545
Fe1 Ti0 2.444895 1_554
Fe1 Ti0 2.445295 1_555
Fe1 Si0 2.445317 1_555
Si0 Ti0 2.823167 1_455
Si0 Ti0 2.823167 1_545
Si0 Ti0 2.823167 1_554
Si0 Ti0 2.823307 1_544
Si0 Ti0 2.823307 1_445
Si0 Ti0 2.823307 1_454
