# generated using pymatgen
data_Ti2N
_symmetry_space_group_name_H-M   'P 1'
_cell_length_a   3.02970931
_cell_length_b   4.94232613
_cell_length_c   4.94232613
_cell_angle_alpha   90.00000000
_cell_angle_beta   90.00000000
_cell_angle_gamma   90.00000000
_symmetry_Int_Tables_number   1
_chemical_formula_structural   Ti2N
_chemical_formula_sum   'Ti4 N2'
_cell_volume   74.00545979
_cell_formula_units_Z   2
loop_
 _symmetry_equiv_pos_site_id
 _symmetry_equiv_pos_as_xyz
  1  'x, y, z'
loop_
 _atom_site_type_symbol
 _atom_site_label
 _atom_site_symmetry_multiplicity
 _atom_site_fract_x
 _atom_site_fract_y
 _atom_site_fract_z
 _atom_site_occupancy
  Ti  Ti0  1  0.50000000  0.79701263  0.20298737  1
  Ti  Ti1  1  0.00000000  0.70298737  0.70298737  1
  Ti  Ti2  1  0.50000000  0.20298737  0.79701263  1
  Ti  Ti3  1  -0.00000000  0.29701263  0.29701263  1
  N  N0  1  0.50000000  0.50000000  0.50000000  1
  N  N1  1  -0.00000000  -0.00000000  -0.00000000  1
loop_
_geom_bond_atom_site_label_1
_geom_bond_atom_site_label_2
_geom_bond_distance
_geom_bond_site_symmetry_2
N0 Ti3 2.075506 1_655
N0 Ti1 2.075506 1_555
N0 Ti1 2.075506 1_655
N0 Ti3 2.075506 1_555
N0 Ti2 2.075971 1_555
N0 Ti0 2.075971 1_555
N1 Ti2 2.075506 1_454
N1 Ti2 2.075506 1_554
N1 Ti0 2.075506 1_545
N1 Ti0 2.075506 1_445
N1 Ti1 2.075971 1_544
N1 Ti3 2.075971 1_555
