# generated using pymatgen
data_Sb2TeSe2
_symmetry_space_group_name_H-M   'P 1'
_cell_length_a   10.37335543
_cell_length_b   10.37335543
_cell_length_c   10.37335456
_cell_angle_alpha   22.98462657
_cell_angle_beta   22.98462657
_cell_angle_gamma   22.98462939
_symmetry_Int_Tables_number   1
_chemical_formula_structural   Sb2TeSe2
_chemical_formula_sum   'Sb2 Te1 Se2'
_cell_volume   149.37496419
_cell_formula_units_Z   1
loop_
 _symmetry_equiv_pos_site_id
 _symmetry_equiv_pos_as_xyz
  1  'x, y, z'
loop_
 _atom_site_type_symbol
 _atom_site_label
 _atom_site_symmetry_multiplicity
 _atom_site_fract_x
 _atom_site_fract_y
 _atom_site_fract_z
 _atom_site_occupancy
  Sb  Sb0  1  0.38983048  0.38983048  0.38983048  1
  Sb  Sb1  1  0.60184792  0.60184792  0.60184792  1
  Te  Te0  1  0.21011188  0.21011188  0.21011188  1
  Se  Se0  1  0.99645120  0.99645120  0.99645120  1
  Se  Se1  1  0.77265752  0.77265752  0.77265752  1
loop_
_geom_bond_atom_site_label_1
_geom_bond_atom_site_label_2
_geom_bond_distance
_geom_bond_site_symmetry_2
Sb0 Se1 2.818169 1_455
Sb0 Se1 2.818169 1_545
Sb0 Se1 2.818169 1_554
Sb0 Se0 3.000377 1_454
Sb0 Se0 3.000377 1_544
Sb0 Se0 3.000377 1_445
Sb1 Te0 2.970478 1_565
Sb1 Te0 2.970478 1_655
Sb1 Te0 2.970478 1_556
Sb1 Se0 3.022988 1_455
Sb1 Se0 3.022988 1_545
Sb1 Se0 3.022988 1_554
