# generated using pymatgen
data_MnAs3(PbO3)3
_symmetry_space_group_name_H-M   'P 1'
_cell_length_a   6.69882404
_cell_length_b   12.67223294
_cell_length_c   13.81038685
_cell_angle_alpha   67.90830783
_cell_angle_beta   89.98795900
_cell_angle_gamma   89.99403616
_symmetry_Int_Tables_number   1
_chemical_formula_structural   MnAs3(PbO3)3
_chemical_formula_sum   'Mn4 As12 Pb12 O36'
_cell_volume   1086.28044326
_cell_formula_units_Z   4
loop_
 _symmetry_equiv_pos_site_id
 _symmetry_equiv_pos_as_xyz
  1  'x, y, z'
loop_
 _atom_site_type_symbol
 _atom_site_label
 _atom_site_symmetry_multiplicity
 _atom_site_fract_x
 _atom_site_fract_y
 _atom_site_fract_z
 _atom_site_occupancy
  Mn  Mn0  1  0.01397200  0.77546000  0.76950800  1
  Mn  Mn1  1  0.98624200  0.27562100  0.76951600  1
  Mn  Mn2  1  0.01386500  0.27566300  0.26962900  1
  Mn  Mn3  1  0.98597300  0.77561800  0.26946200  1
  As  As0  1  0.79202400  0.53438200  0.24571900  1
  As  As1  1  0.79201100  0.03435000  0.74576600  1
  As  As2  1  0.20811200  0.53432400  0.74576500  1
  As  As3  1  0.20801400  0.03437500  0.24572400  1
  As  As4  1  0.88424100  0.27272500  0.03112700  1
  As  As5  1  0.88420200  0.77273100  0.53111600  1
  As  As6  1  0.11545900  0.77269700  0.03121900  1
  As  As7  1  0.11584600  0.27278200  0.53103700  1
  As  As8  1  0.47845100  0.30215100  0.18743700  1
  As  As9  1  0.47851600  0.80212300  0.68748000  1
  As  As10  1  0.52147000  0.80216000  0.18741900  1
  As  As11  1  0.52180700  0.30210300  0.68755400  1
  Pb  Pb0  1  0.14401900  0.50425900  0.00358400  1
  Pb  Pb1  1  0.14391800  0.00423400  0.50361800  1
  Pb  Pb2  1  0.85594000  0.00425100  0.00358700  1
  Pb  Pb3  1  0.85605200  0.50427500  0.50358400  1
  Pb  Pb4  1  0.36922300  0.25000600  0.94404300  1
  Pb  Pb5  1  0.36929500  0.75026400  0.44385400  1
  Pb  Pb6  1  0.63076800  0.75005300  0.94399700  1
  Pb  Pb7  1  0.63068200  0.25029000  0.44384200  1
  Pb  Pb8  1  0.28941800  0.50629700  0.28694900  1
  Pb  Pb9  1  0.28927100  0.00609100  0.78707900  1
  Pb  Pb10  1  0.71084300  0.50605300  0.78709500  1
  Pb  Pb11  1  0.71070700  0.00620200  0.28705000  1
  O  O0  1  0.98885200  0.44266700  0.22820000  1
  O  O1  1  0.98888300  0.94269300  0.72820500  1
  O  O2  1  0.01123500  0.44267900  0.72819700  1
  O  O3  1  0.01116100  0.94266500  0.22818800  1
  O  O4  1  0.68231400  0.44824900  0.37232300  1
  O  O5  1  0.68226900  0.94818600  0.87238100  1
  O  O6  1  0.31768600  0.44814600  0.87237900  1
  O  O7  1  0.31769000  0.94824300  0.37232700  1
  O  O8  1  0.96390100  0.61075200  0.29892100  1
  O  O9  1  0.96400000  0.11072600  0.79896600  1
  O  O10  1  0.03611100  0.61075200  0.79895700  1
  O  O11  1  0.03600300  0.11072800  0.29896000  1
  O  O12  1  0.03094700  0.22775300  0.94248600  1
  O  O13  1  0.03092700  0.72775200  0.44248000  1
  O  O14  1  0.96907600  0.72775200  0.94248200  1
  O  O15  1  0.96905900  0.22777700  0.44246700  1
  O  O16  1  0.83782800  0.41916900  0.95383800  1
  O  O17  1  0.83780300  0.91915700  0.45383200  1
  O  O18  1  0.16213600  0.91909400  0.95388900  1
  O  O19  1  0.16222400  0.41922000  0.45379900  1
  O  O20  1  0.08622300  0.30271100  0.10311800  1
  O  O21  1  0.08621200  0.80270400  0.60312000  1
  O  O22  1  0.91301900  0.80250500  0.10321400  1
  O  O23  1  0.91389000  0.30276900  0.60312800  1
  O  O24  1  0.30731500  0.29088700  0.29638700  1
  O  O25  1  0.30732600  0.79078900  0.79648000  1
  O  O26  1  0.69300400  0.29096700  0.79654200  1
  O  O27  1  0.69263300  0.79089100  0.29639800  1
  O  O28  1  0.29062400  0.26275600  0.77489200  1
  O  O29  1  0.29038700  0.76283200  0.27485300  1
  O  O30  1  0.70955900  0.76283900  0.77486200  1
  O  O31  1  0.70950100  0.26279900  0.27485600  1
  O  O32  1  0.47079500  0.45006500  0.12733700  1
  O  O33  1  0.47058200  0.95007400  0.62732900  1
  O  O34  1  0.52936600  0.45003900  0.62732500  1
  O  O35  1  0.52911800  0.95007100  0.12731700  1
loop_
_geom_bond_atom_site_label_1
_geom_bond_atom_site_label_2
_geom_bond_distance
_geom_bond_site_symmetry_2
Mn0 O10 1.976192 1_555
Mn0 O1 1.983785 1_455
Mn0 O25 2.023122 1_555
Mn0 O30 2.044634 1_455
Mn0 O21 2.244211 1_555
Mn0 O14 2.252982 1_455
Mn1 O9 1.978580 1_555
Mn1 O2 1.981593 1_655
Mn1 O26 2.022376 1_555
Mn1 O28 2.044629 1_655
Mn1 O23 2.244847 1_555
Mn1 O12 2.252612 1_655
Mn2 O11 1.979320 1_555
Mn2 O0 1.980759 1_455
Mn2 O24 2.022879 1_555
Mn2 O31 2.044499 1_455
Mn2 O20 2.246598 1_555
Mn2 O15 2.250807 1_455
Mn3 O8 1.978111 1_555
Mn3 O3 1.981641 1_655
Mn3 O27 2.022613 1_555
Mn3 O29 2.044778 1_655
Mn3 O22 2.244623 1_555
Mn3 O13 2.253473 1_655
As0 O8 1.826893 1_555
As0 O4 1.831040 1_555
As0 O0 1.832721 1_555
As1 O9 1.827401 1_555
As1 O5 1.831331 1_545
As1 O1 1.832645 1_545
As2 O10 1.827512 1_555
As2 O6 1.831115 1_555
As2 O2 1.832849 1_555
As3 O11 1.827272 1_555
As3 O7 1.831140 1_545
As3 O3 1.833132 1_545
As4 O16 1.786045 1_554
As4 O20 1.802342 1_655
As4 O12 1.820250 1_654
As5 O17 1.785829 1_555
As5 O21 1.802527 1_655
As5 O13 1.820315 1_655
As6 O18 1.785975 1_554
As6 O22 1.803367 1_455
As6 O14 1.820280 1_454
As7 O19 1.785786 1_555
As7 O23 1.802715 1_455
As7 O15 1.820347 1_455
As8 O32 1.742039 1_555
As8 O24 1.853736 1_555
As8 O31 1.910386 1_555
As9 O33 1.742566 1_555
As9 O25 1.854298 1_555
As9 O30 1.910056 1_555
As10 O35 1.742007 1_555
As10 O27 1.854520 1_555
As10 O29 1.910342 1_555
As11 O34 1.742400 1_555
As11 O26 1.855144 1_555
As11 O28 1.910183 1_555
O0 Pb8 2.419815 1_655
O1 Pb9 2.418269 1_665
O2 Pb10 2.417881 1_455
O3 Pb11 2.418946 1_465
O4 Pb7 2.350427 1_555
O4 Pb3 2.472617 1_555
O4 Pb8 2.864770 1_555
O5 Pb6 2.352328 1_555
O5 Pb2 2.472045 1_566
O5 Pb9 2.864900 1_565
O6 Pb4 2.352441 1_555
O6 Pb0 2.471935 1_556
O6 Pb10 2.865488 1_555
O7 Pb5 2.350617 1_555
O7 Pb1 2.472394 1_565
O7 Pb11 2.864663 1_565
O8 Pb8 2.588100 1_655
O8 Pb3 2.731709 1_555
O9 Pb9 2.587633 1_655
O9 Pb2 2.731588 1_556
O10 Pb10 2.588253 1_455
O10 Pb0 2.731653 1_556
O11 Pb11 2.587406 1_455
O11 Pb1 2.732030 1_555
O12 Pb4 2.284663 1_555
O12 Pb2 2.882843 1_456
O13 Pb5 2.285552 1_555
O13 Pb3 2.882204 1_455
O14 Pb6 2.284854 1_555
O14 Pb0 2.882473 1_656
O15 Pb7 2.285548 1_555
O15 Pb1 2.882745 1_655
O16 Pb10 2.309158 1_555
O16 Pb0 2.529827 1_656
O17 Pb11 2.310081 1_565
O17 Pb1 2.529566 1_665
O18 Pb9 2.310159 1_565
O18 Pb2 2.529601 1_466
O19 Pb8 2.310860 1_555
O19 Pb3 2.529306 1_455
O20 Pb0 2.433492 1_555
O21 Pb1 2.433130 1_565
O22 Pb2 2.435059 1_565
O23 Pb3 2.433122 1_555
O24 Pb8 2.686090 1_555
O25 Pb9 2.684942 1_565
O26 Pb10 2.681956 1_555
O27 Pb11 2.685329 1_565
O28 Pb4 2.340302 1_555
O29 Pb5 2.339463 1_555
O30 Pb6 2.340024 1_555
O31 Pb7 2.339143 1_555
O32 Pb0 2.702365 1_555
O32 Pb8 2.832520 1_555
O33 Pb1 2.701439 1_565
O33 Pb9 2.832512 1_565
O34 Pb3 2.701330 1_555
O34 Pb10 2.833671 1_555
O35 Pb2 2.701975 1_565
O35 Pb11 2.834353 1_565
