# generated using pymatgen
data_K2V4Zn5O20
_symmetry_space_group_name_H-M   'P 1'
_cell_length_a   6.05833100
_cell_length_b   10.19889900
_cell_length_c   14.67053000
_cell_angle_alpha   90.00000000
_cell_angle_beta   90.00000000
_cell_angle_gamma   90.00000000
_symmetry_Int_Tables_number   1
_chemical_formula_structural   K2V4Zn5O20
_chemical_formula_sum   'K4 V8 Zn10 O40'
_cell_volume   906.46719649
_cell_formula_units_Z   2
loop_
 _symmetry_equiv_pos_site_id
 _symmetry_equiv_pos_as_xyz
  1  'x, y, z'
loop_
 _atom_site_type_symbol
 _atom_site_label
 _atom_site_symmetry_multiplicity
 _atom_site_fract_x
 _atom_site_fract_y
 _atom_site_fract_z
 _atom_site_occupancy
  K  K0  1  0.00000000  0.82861100  0.24970300  1
  K  K1  1  0.00000000  0.17138900  0.75029700  1
  K  K2  1  0.50000000  0.67138900  0.74970300  1
  K  K3  1  0.50000000  0.32861100  0.25029700  1
  V  V0  1  0.00000000  0.49859700  0.36825300  1
  V  V1  1  0.00000000  0.50140300  0.63174700  1
  V  V2  1  0.50000000  0.00140300  0.86825300  1
  V  V3  1  0.50000000  0.99859700  0.13174700  1
  V  V4  1  0.50000000  0.00174600  0.37655600  1
  V  V5  1  0.50000000  0.99825400  0.62344400  1
  V  V6  1  0.00000000  0.49825400  0.87655600  1
  V  V7  1  0.00000000  0.50174600  0.12344400  1
  Zn  Zn0  1  0.75199200  0.73510000  0.50438500  1
  Zn  Zn1  1  0.75199200  0.26490000  0.49561500  1
  Zn  Zn2  1  0.74800800  0.76490000  0.00438500  1
  Zn  Zn3  1  0.74800800  0.23510000  0.99561500  1
  Zn  Zn4  1  0.24800800  0.26490000  0.49561500  1
  Zn  Zn5  1  0.24800800  0.73510000  0.50438500  1
  Zn  Zn6  1  0.25199200  0.23510000  0.99561500  1
  Zn  Zn7  1  0.25199200  0.76490000  0.00438500  1
  Zn  Zn8  1  0.00000000  0.00000000  0.50000000  1
  Zn  Zn9  1  0.50000000  0.50000000  0.00000000  1
  O  O0  1  0.00000000  0.65681700  0.41771900  1
  O  O1  1  0.00000000  0.34318300  0.58228100  1
  O  O2  1  0.50000000  0.84318300  0.91771900  1
  O  O3  1  0.50000000  0.15681700  0.08228100  1
  O  O4  1  0.22980300  0.41393200  0.40009600  1
  O  O5  1  0.22980300  0.58606800  0.59990400  1
  O  O6  1  0.27019700  0.08606800  0.90009600  1
  O  O7  1  0.27019700  0.91393200  0.09990400  1
  O  O8  1  0.77019700  0.58606800  0.59990400  1
  O  O9  1  0.77019700  0.41393200  0.40009600  1
  O  O10  1  0.72980300  0.91393200  0.09990400  1
  O  O11  1  0.72980300  0.08606800  0.90009600  1
  O  O12  1  0.50000000  0.67359800  0.43201900  1
  O  O13  1  0.50000000  0.32640200  0.56798100  1
  O  O14  1  0.00000000  0.82640200  0.93201900  1
  O  O15  1  0.00000000  0.17359800  0.06798100  1
  O  O16  1  0.00000000  0.51631400  0.24531200  1
  O  O17  1  0.00000000  0.48368600  0.75468800  1
  O  O18  1  0.50000000  0.98368600  0.74531200  1
  O  O19  1  0.50000000  0.01631400  0.25468800  1
  O  O20  1  0.00000000  0.83200900  0.55965500  1
  O  O21  1  0.00000000  0.16799100  0.44034500  1
  O  O22  1  0.50000000  0.66799100  0.05965500  1
  O  O23  1  0.50000000  0.33200900  0.94034500  1
  O  O24  1  0.73514400  0.91868100  0.41127500  1
  O  O25  1  0.73514400  0.08131900  0.58872500  1
  O  O26  1  0.76485600  0.58131900  0.91127500  1
  O  O27  1  0.76485600  0.41868100  0.08872500  1
  O  O28  1  0.26485600  0.08131900  0.58872500  1
  O  O29  1  0.26485600  0.91868100  0.41127500  1
  O  O30  1  0.23514400  0.41868100  0.08872500  1
  O  O31  1  0.23514400  0.58131900  0.91127500  1
  O  O32  1  0.50000000  0.16088200  0.41873200  1
  O  O33  1  0.50000000  0.83911800  0.58126800  1
  O  O34  1  0.00000000  0.33911800  0.91873200  1
  O  O35  1  0.00000000  0.66088200  0.08126800  1
  O  O36  1  0.50000000  0.68243400  0.24183300  1
  O  O37  1  0.50000000  0.31756600  0.75816700  1
  O  O38  1  0.00000000  0.81756600  0.74183300  1
  O  O39  1  0.00000000  0.18243400  0.25816700  1
loop_
_geom_bond_atom_site_label_1
_geom_bond_atom_site_label_2
_geom_bond_distance
_geom_bond_site_symmetry_2
K0 O10 2.875131 1_455
K0 O7 2.875131 1_555
K0 O35 3.005382 1_555
K0 O24 3.006176 1_455
K0 O29 3.006176 1_555
K0 O0 3.024159 1_555
K0 O16 3.185737 1_555
K0 O36 3.378134 1_555
K0 O36 3.378134 1_455
K1 O6 2.875131 1_555
K1 O11 2.875131 1_455
K1 O34 3.005382 1_555
K1 O25 3.006176 1_455
K1 O28 3.006176 1_555
K1 O1 3.024159 1_555
K1 O17 3.185737 1_555
K1 O37 3.378134 1_455
K1 O37 3.378134 1_555
K2 O5 2.875131 1_555
K2 O8 2.875131 1_555
K2 O33 3.005382 1_555
K2 O31 3.006176 1_555
K2 O26 3.006176 1_555
K2 O2 3.024159 1_555
K2 O18 3.185737 1_555
K2 O38 3.378134 1_555
K2 O38 3.378134 1_655
K3 O9 2.875131 1_555
K3 O4 2.875131 1_555
K3 O32 3.005382 1_555
K3 O27 3.006176 1_555
K3 O30 3.006176 1_555
K3 O3 3.024159 1_555
K3 O19 3.185737 1_555
K3 O39 3.378134 1_655
K3 O39 3.378134 1_555
O0 V0 1.769339 1_555
O0 Zn0 2.124039 1_455
O0 Zn5 2.124039 1_555
O1 V1 1.769339 1_555
O1 Zn4 2.124039 1_555
O1 Zn1 2.124039 1_455
O2 V2 1.769339 1_565
O2 Zn7 2.124039 1_556
O2 Zn2 2.124039 1_556
O3 V3 1.769339 1_545
O3 Zn3 2.124039 1_554
O3 Zn6 2.124039 1_554
O4 V0 1.703564 1_555
O4 Zn4 2.070297 1_555
O5 V1 1.703564 1_555
O5 Zn5 2.070297 1_555
O6 V2 1.703564 1_555
O6 Zn6 2.070297 1_555
O7 V3 1.703564 1_555
O7 Zn7 2.070297 1_555
O8 V1 1.703564 1_655
O8 Zn0 2.070297 1_555
O9 V0 1.703564 1_655
O9 Zn1 2.070297 1_555
O10 V3 1.703564 1_555
O10 Zn2 2.070297 1_555
O11 V2 1.703564 1_555
O11 Zn3 2.070297 1_555
O12 Zn0 1.962449 1_555
O12 Zn5 1.962449 1_555
O13 Zn1 1.962449 1_555
O13 Zn4 1.962449 1_555
O14 Zn7 1.962449 1_556
O14 Zn2 1.962449 1_456
O15 Zn6 1.962449 1_554
O15 Zn3 1.962449 1_454
O16 V7 1.794031 1_555
O16 V0 1.812638 1_555
O17 V6 1.794031 1_555
O17 V1 1.812638 1_555
O18 V5 1.794031 1_555
O18 V2 1.812638 1_565
O19 V4 1.794031 1_555
O19 V3 1.812638 1_545
O20 Zn8 1.923902 1_565
O20 Zn5 1.972784 1_555
O20 Zn0 1.972784 1_455
O21 Zn8 1.923902 1_555
O21 Zn1 1.972784 1_455
O21 Zn4 1.972784 1_555
O22 Zn9 1.923902 1_555
O22 Zn7 1.972784 1_555
O22 Zn2 1.972784 1_555
O23 Zn9 1.923902 1_556
O23 Zn6 1.972784 1_555
O23 Zn3 1.972784 1_555
O24 V4 1.733944 1_565
O24 Zn8 2.226390 1_665
O24 Zn0 2.319892 1_555
O25 V5 1.733944 1_545
O25 Zn8 2.226390 1_655
O25 Zn1 2.319892 1_555
O26 V6 1.733944 1_655
O26 Zn9 2.226390 1_556
O26 Zn2 2.319892 1_556
O27 V7 1.733944 1_655
O27 Zn9 2.226390 1_555
O27 Zn3 2.319892 1_554
O28 V5 1.733944 1_545
O28 Zn8 2.226390 1_555
O28 Zn4 2.319892 1_555
O29 V4 1.733944 1_565
O29 Zn8 2.226390 1_565
O29 Zn5 2.319892 1_555
O30 V7 1.733944 1_555
O30 Zn9 2.226390 1_555
O30 Zn6 2.319892 1_554
O31 V6 1.733944 1_555
O31 Zn9 2.226390 1_556
O31 Zn7 2.319892 1_556
O32 V4 1.736955 1_555
O32 Zn4 2.174465 1_555
O32 Zn1 2.174465 1_555
O33 V5 1.736955 1_555
O33 Zn0 2.174465 1_555
O33 Zn5 2.174465 1_555
O34 V6 1.736955 1_555
O34 Zn3 2.174465 1_455
O34 Zn6 2.174465 1_555
O35 V7 1.736955 1_555
O35 Zn2 2.174465 1_455
O35 Zn7 2.174465 1_555
