# generated using pymatgen
data_LiFe2OF5
_symmetry_space_group_name_H-M   'P 1'
_cell_length_a   4.56313800
_cell_length_b   8.68162937
_cell_length_c   8.70071489
_cell_angle_alpha   60.17225179
_cell_angle_beta   89.75177084
_cell_angle_gamma   89.54697500
_symmetry_Int_Tables_number   1
_chemical_formula_structural   LiFe2OF5
_chemical_formula_sum   'Li3 Fe6 O3 F15'
_cell_volume   299.01157022
_cell_formula_units_Z   3
loop_
 _symmetry_equiv_pos_site_id
 _symmetry_equiv_pos_as_xyz
  1  'x, y, z'
loop_
 _atom_site_type_symbol
 _atom_site_label
 _atom_site_symmetry_multiplicity
 _atom_site_fract_x
 _atom_site_fract_y
 _atom_site_fract_z
 _atom_site_occupancy
  Li  Li0  1  0.50719600  0.33567800  0.33187200  1
  Li  Li1  1  0.99215600  0.99926200  0.99888600  1
  Li  Li2  1  0.48538000  0.66956600  0.66507200  1
  Fe  Fe0  1  0.01863000  0.63683200  0.00664700  1
  Fe  Fe1  1  0.48309700  0.32415800  0.00510900  1
  Fe  Fe2  1  0.01860800  0.98618300  0.35527000  1
  Fe  Fe3  1  0.48219000  0.68993400  0.32271200  1
  Fe  Fe4  1  0.52056800  0.01247700  0.67839400  1
  Fe  Fe5  1  0.97948500  0.34075500  0.64525400  1
  O  O0  1  0.26177200  0.43902700  0.10155600  1
  O  O1  1  0.73641800  0.22186100  0.56677000  1
  O  O2  1  0.26258600  0.78772400  0.43453700  1
  F  F0  1  0.23527400  0.77340800  0.10641500  1
  F  F1  1  0.73712000  0.57002000  0.21354800  1
  F  F2  1  0.25627400  0.45708400  0.43861600  1
  F  F3  1  0.74014400  0.20602200  0.22283300  1
  F  F4  1  0.23518400  0.10647400  0.11665700  1
  F  F5  1  0.76437500  0.89319000  0.22339200  1
  F  F6  1  0.25741500  0.10399200  0.45885300  1
  F  F7  1  0.23399400  0.11633100  0.77828900  1
  F  F8  1  0.74325700  0.89346800  0.56226800  1
  F  F9  1  0.74349600  0.56407900  0.54193600  1
  F  F10  1  0.26602800  0.78470100  0.78457500  1
  F  F11  1  0.76714500  0.87547300  0.89372300  1
  F  F12  1  0.74474200  0.54697400  0.88913700  1
  F  F13  1  0.26346200  0.43191600  0.77416000  1
  F  F14  1  0.76400600  0.23351400  0.88341600  1
loop_
_geom_bond_atom_site_label_1
_geom_bond_atom_site_label_2
_geom_bond_distance
_geom_bond_site_symmetry_2
Li0 O1 2.059291 1_555
Li0 O0 2.071190 1_555
Li2 O2 2.015804 1_555
Fe0 O0 1.851759 1_555
Fe1 O0 1.878266 1_555
Fe2 O2 1.864909 1_555
Fe3 O2 1.863167 1_555
Fe4 O1 1.865884 1_555
Fe5 O1 1.867561 1_555
F0 Fe3 1.996270 1_555
F0 Li1 2.024941 1_454
F0 Fe0 2.046106 1_555
F1 Fe0 2.044565 1_655
F1 Li0 2.059255 1_555
F1 Fe3 2.072209 1_555
F2 Fe5 2.010432 1_455
F2 Fe3 2.040147 1_555
F2 Li0 2.056697 1_555
F3 Fe1 2.020825 1_555
F3 Li0 2.081270 1_555
F3 Fe2 2.090828 1_645
F4 Fe1 1.998228 1_555
F4 Li1 2.030051 1_444
F4 Fe2 2.054071 1_545
F5 Li1 1.987988 1_554
F5 Fe3 2.006975 1_555
F5 Fe2 2.064484 1_655
F6 Fe2 1.997218 1_545
F6 Fe4 2.053523 1_555
F6 Li0 2.092891 1_555
F7 Li1 1.998373 1_445
F7 Fe4 2.007349 1_555
F7 Fe5 2.053553 1_455
F8 Fe2 2.006132 1_655
F8 Fe4 2.033202 1_565
F8 Li2 2.064139 1_555
F9 Fe5 1.992055 1_555
F9 Fe3 2.044425 1_555
F9 Li2 2.078903 1_555
F10 Li2 2.022656 1_555
F10 Fe0 2.047509 1_556
F10 Fe4 2.079091 1_565
F11 Fe4 1.992761 1_565
F11 Li1 2.012511 1_555
F11 Fe0 2.126445 1_656
F12 Fe0 2.008938 1_656
F12 Fe1 2.066374 1_556
F12 Li2 2.066416 1_555
F13 Fe1 2.012460 1_556
F13 Li2 2.063909 1_555
F13 Fe5 2.115485 1_455
F14 Li1 2.042583 1_545
F14 Fe1 2.045632 1_556
F14 Fe5 2.050649 1_555
