# generated using pymatgen
data_LiNi(PO3)4
_symmetry_space_group_name_H-M   'P 1'
_cell_length_a   13.15096400
_cell_length_b   7.60728300
_cell_length_c   11.29212298
_cell_angle_alpha   57.44288421
_cell_angle_beta   90.00000000
_cell_angle_gamma   90.00000000
_symmetry_Int_Tables_number   1
_chemical_formula_structural   LiNi(PO3)4
_chemical_formula_sum   'Li4 Ni4 P16 O48'
_cell_volume   952.17295608
_cell_formula_units_Z   4
loop_
 _symmetry_equiv_pos_site_id
 _symmetry_equiv_pos_as_xyz
  1  'x, y, z'
loop_
 _atom_site_type_symbol
 _atom_site_label
 _atom_site_symmetry_multiplicity
 _atom_site_fract_x
 _atom_site_fract_y
 _atom_site_fract_z
 _atom_site_occupancy
  Li  Li0  1  0.20878400  0.69645200  0.91351400  1
  Li  Li1  1  0.70878400  0.30354800  0.58648600  1
  Li  Li2  1  0.29121600  0.69645200  0.41351400  1
  Li  Li3  1  0.79121600  0.30354800  0.08648600  1
  Ni  Ni0  1  0.29579700  0.10286400  0.49812400  1
  Ni  Ni1  1  0.79579700  0.89713600  0.00187600  1
  Ni  Ni2  1  0.20420300  0.10286400  0.99812400  1
  Ni  Ni3  1  0.70420300  0.89713600  0.50187600  1
  P  P0  1  0.88763700  0.64498100  0.76408300  1
  P  P1  1  0.36493500  0.17718900  0.21149300  1
  P  P2  1  0.58494800  0.06934600  0.21997400  1
  P  P3  1  0.60144700  0.48843200  0.73633600  1
  P  P4  1  0.10144700  0.51156800  0.76366400  1
  P  P5  1  0.08494800  0.93065400  0.28002600  1
  P  P6  1  0.86493500  0.82281100  0.28850700  1
  P  P7  1  0.38763700  0.35501900  0.73591700  1
  P  P8  1  0.61236300  0.64498100  0.26408300  1
  P  P9  1  0.13506500  0.17718900  0.71149300  1
  P  P10  1  0.91505200  0.06934600  0.71997400  1
  P  P11  1  0.89855300  0.48843200  0.23633600  1
  P  P12  1  0.39855300  0.51156800  0.26366400  1
  P  P13  1  0.41505200  0.93065400  0.78002600  1
  P  P14  1  0.63506500  0.82281100  0.78850700  1
  P  P15  1  0.11236300  0.35501900  0.23591700  1
  O  O0  1  0.63373900  0.58354100  0.82727500  1
  O  O1  1  0.60710300  0.08396100  0.34641900  1
  O  O2  1  0.06403100  0.17099100  0.22397200  1
  O  O3  1  0.16477100  0.69676300  0.73170000  1
  O  O4  1  0.81460400  0.73472700  0.64369200  1
  O  O5  1  0.35847500  0.02075900  0.36837800  1
  O  O6  1  0.85420700  0.46953900  0.90448500  1
  O  O7  1  0.60442200  0.65778300  0.57995500  1
  O  O8  1  0.98621200  0.57418700  0.71302900  1
  O  O9  1  0.47494900  0.16464500  0.15483100  1
  O  O10  1  0.28442000  0.16826400  0.12216600  1
  O  O11  1  0.15961900  0.82570600  0.39802400  1
  O  O12  1  0.65961900  0.17429400  0.10197600  1
  O  O13  1  0.48621200  0.42581300  0.78697100  1
  O  O14  1  0.78442000  0.83173600  0.37783400  1
  O  O15  1  0.10442200  0.34221700  0.92004500  1
  O  O16  1  0.97494900  0.83535500  0.34516900  1
  O  O17  1  0.35420700  0.53046100  0.59551500  1
  O  O18  1  0.85847500  0.97924100  0.13162200  1
  O  O19  1  0.31460400  0.26527300  0.85630800  1
  O  O20  1  0.66477100  0.30323700  0.76830000  1
  O  O21  1  0.56403100  0.82900900  0.27602800  1
  O  O22  1  0.13373900  0.41645900  0.67272500  1
  O  O23  1  0.10710300  0.91603900  0.15358100  1
  O  O24  1  0.89289700  0.08396100  0.84641900  1
  O  O25  1  0.86626100  0.58354100  0.32727500  1
  O  O26  1  0.43596900  0.17099100  0.72397200  1
  O  O27  1  0.33522900  0.69676300  0.23170000  1
  O  O28  1  0.68539600  0.73472700  0.14369200  1
  O  O29  1  0.14152500  0.02075900  0.86837800  1
  O  O30  1  0.64579300  0.46953900  0.40448500  1
  O  O31  1  0.02505100  0.16464500  0.65483100  1
  O  O32  1  0.89557800  0.65778300  0.07995500  1
  O  O33  1  0.21558000  0.16826400  0.62216600  1
  O  O34  1  0.51378800  0.57418700  0.21302900  1
  O  O35  1  0.34038100  0.82570600  0.89802400  1
  O  O36  1  0.84038100  0.17429400  0.60197600  1
  O  O37  1  0.71558000  0.83173600  0.87783400  1
  O  O38  1  0.52505100  0.83535500  0.84516900  1
  O  O39  1  0.01378800  0.42581300  0.28697100  1
  O  O40  1  0.39557800  0.34221700  0.42004500  1
  O  O41  1  0.14579300  0.53046100  0.09551500  1
  O  O42  1  0.64152500  0.97924100  0.63162200  1
  O  O43  1  0.18539600  0.26527300  0.35630800  1
  O  O44  1  0.83522900  0.30323700  0.26830000  1
  O  O45  1  0.93596900  0.82900900  0.77602800  1
  O  O46  1  0.39289700  0.91603900  0.65358100  1
  O  O47  1  0.36626100  0.41645900  0.17272500  1
loop_
_geom_bond_atom_site_label_1
_geom_bond_atom_site_label_2
_geom_bond_distance
_geom_bond_site_symmetry_2
Li0 O41 1.926496 1_556
Li0 O35 1.951251 1_555
Li0 O3 2.131873 1_555
Li0 O29 2.403198 1_565
Li1 O30 1.926496 1_555
Li1 O36 1.951251 1_555
Li1 O20 2.131873 1_555
Li1 O42 2.403198 1_545
Li2 O17 1.926496 1_555
Li2 O11 1.951251 1_555
Li2 O27 2.131873 1_555
Li2 O5 2.403198 1_565
Li3 O6 1.926496 1_554
Li3 O12 1.951251 1_555
Li3 O44 2.131873 1_555
Li3 O18 2.403198 1_545
Ni0 O46 2.011689 1_545
Ni0 O43 2.017286 1_555
Ni0 O33 2.018014 1_555
Ni0 O40 2.021592 1_555
Ni0 O5 2.049633 1_555
Ni1 O24 2.011689 1_564
Ni1 O28 2.017286 1_555
Ni1 O37 2.018014 1_554
Ni1 O32 2.021592 1_555
Ni1 O18 2.049633 1_555
Ni2 O23 2.011689 1_546
Ni2 O19 2.017286 1_555
Ni2 O10 2.018014 1_556
Ni2 O15 2.021592 1_555
Ni2 O29 2.049633 1_555
Ni3 O1 2.011689 1_565
Ni3 O4 2.017286 1_555
Ni3 O14 2.018014 1_555
Ni3 O7 2.021592 1_555
Ni3 O42 2.049633 1_555
O0 P3 1.599373 1_555
O0 P14 1.627097 1_555
O1 P2 1.518820 1_555
O2 P5 1.604213 1_545
O2 P15 1.607887 1_555
O3 P4 1.503761 1_555
O4 P0 1.495928 1_555
O5 P1 1.514196 1_555
O6 P0 1.486861 1_555
O7 P3 1.526777 1_555
O8 P4 1.599154 1_655
O8 P0 1.623915 1_555
O9 P1 1.605431 1_555
O9 P2 1.607903 1_555
O10 P1 1.488939 1_555
O11 P5 1.494053 1_555
O12 P2 1.494053 1_555
O13 P3 1.599154 1_555
O13 P7 1.623915 1_555
O14 P6 1.488939 1_555
O15 P4 1.526777 1_555
O16 P6 1.605431 1_555
O16 P5 1.607903 1_655
O17 P7 1.486861 1_555
O18 P6 1.514196 1_555
O19 P7 1.495928 1_555
O20 P3 1.503761 1_555
O21 P2 1.604213 1_565
O21 P8 1.607887 1_555
O22 P4 1.599373 1_555
O22 P9 1.627097 1_555
O23 P5 1.518820 1_555
O24 P10 1.518820 1_555
O25 P11 1.599373 1_555
O25 P6 1.627097 1_555
O26 P13 1.604213 1_545
O26 P7 1.607887 1_555
O27 P12 1.503761 1_555
O28 P8 1.495928 1_555
O29 P9 1.514196 1_555
O30 P8 1.486861 1_555
O31 P9 1.605431 1_555
O31 P10 1.607903 1_455
O32 P11 1.526777 1_555
O33 P9 1.488939 1_555
O34 P12 1.599154 1_555
O34 P8 1.623915 1_555
O35 P13 1.494053 1_555
O36 P10 1.494053 1_555
O37 P14 1.488939 1_555
O38 P14 1.605431 1_555
O38 P13 1.607903 1_555
O39 P11 1.599154 1_455
O39 P15 1.623915 1_555
O40 P12 1.526777 1_555
O41 P15 1.486861 1_555
O42 P14 1.514196 1_555
O43 P15 1.495928 1_555
O44 P11 1.503761 1_555
O45 P10 1.604213 1_565
O45 P0 1.607887 1_555
O46 P13 1.518820 1_555
O47 P12 1.599373 1_555
O47 P1 1.627097 1_555
