# generated using pymatgen
data_La3MnW(SO2)3
_symmetry_space_group_name_H-M   'P 1'
_cell_length_a   9.53212663
_cell_length_b   9.53212663
_cell_length_c   5.61762500
_cell_angle_alpha   90.00000000
_cell_angle_beta   90.00000000
_cell_angle_gamma   120.00000440
_symmetry_Int_Tables_number   1
_chemical_formula_structural   La3MnW(SO2)3
_chemical_formula_sum   'La6 Mn2 W2 S6 O12'
_cell_volume   442.04141851
_cell_formula_units_Z   2
loop_
 _symmetry_equiv_pos_site_id
 _symmetry_equiv_pos_as_xyz
  1  'x, y, z'
loop_
 _atom_site_type_symbol
 _atom_site_label
 _atom_site_symmetry_multiplicity
 _atom_site_fract_x
 _atom_site_fract_y
 _atom_site_fract_z
 _atom_site_occupancy
  La  La0  1  0.68108600  0.59254500  0.25000000  1
  La  La1  1  0.31891400  0.40745500  0.75000000  1
  La  La2  1  0.59254500  0.91145900  0.75000000  1
  La  La3  1  0.08854100  0.68108600  0.75000000  1
  La  La4  1  0.91145900  0.31891400  0.25000000  1
  La  La5  1  0.40745500  0.08854100  0.25000000  1
  Mn  Mn0  1  0.00000000  0.00000000  0.00000000  1
  Mn  Mn1  1  0.00000000  0.00000000  0.50000000  1
  W  W0  1  0.33333300  0.66666700  0.25000000  1
  W  W1  1  0.66666700  0.33333300  0.75000000  1
  S  S0  1  0.76877300  0.95397600  0.25000000  1
  S  S1  1  0.23122700  0.04602400  0.75000000  1
  S  S2  1  0.04602400  0.81479600  0.25000000  1
  S  S3  1  0.18520400  0.23122700  0.25000000  1
  S  S4  1  0.81479600  0.76877300  0.75000000  1
  S  S5  1  0.95397600  0.18520400  0.75000000  1
  O  O0  1  0.47296200  0.63406300  0.02441300  1
  O  O1  1  0.52703800  0.36593700  0.52441300  1
  O  O2  1  0.36593700  0.83889800  0.02441300  1
  O  O3  1  0.16110200  0.52703800  0.02441300  1
  O  O4  1  0.83889800  0.47296200  0.52441300  1
  O  O5  1  0.63406300  0.16110200  0.52441300  1
  O  O6  1  0.52703800  0.36593700  0.97558700  1
  O  O7  1  0.47296200  0.63406300  0.47558700  1
  O  O8  1  0.63406300  0.16110200  0.97558700  1
  O  O9  1  0.83889800  0.47296200  0.97558700  1
  O  O10  1  0.16110200  0.52703800  0.47558700  1
  O  O11  1  0.36593700  0.83889800  0.47558700  1
loop_
_geom_bond_atom_site_label_1
_geom_bond_atom_site_label_2
_geom_bond_distance
_geom_bond_site_symmetry_2
La0 O6 2.454912 1_554
La0 O1 2.454912 1_555
La0 O7 2.546256 1_555
La0 O0 2.546256 1_555
La0 O9 2.766455 1_554
La0 O4 2.766455 1_555
La0 S2 3.036359 1_655
La0 S0 3.112624 1_555
La0 S4 3.192913 1_555
La0 S4 3.192913 1_554
La1 O7 2.454912 1_555
La1 O0 2.454912 1_556
La1 O1 2.546256 1_555
La1 O6 2.546256 1_555
La1 O10 2.766455 1_555
La1 O3 2.766455 1_556
La1 S5 3.036359 1_455
La1 S1 3.112624 1_555
La1 S3 3.192913 1_555
La1 S3 3.192913 1_556
La2 O11 2.454910 1_555
La2 O2 2.454910 1_556
La2 O8 2.546264 1_565
La2 O5 2.546264 1_565
La2 O7 2.766462 1_555
La2 O0 2.766462 1_556
La2 S4 3.036351 1_555
La2 S5 3.112626 1_565
La2 S0 3.192914 1_555
La2 S0 3.192914 1_556
La3 O10 2.454918 1_555
La3 O3 2.454918 1_556
La3 O9 2.546261 1_455
La3 O4 2.546261 1_455
La3 O2 2.766462 1_556
La3 O11 2.766462 1_555
La3 S1 3.036360 1_565
La3 S4 3.112633 1_455
La3 S2 3.192910 1_555
La3 S2 3.192910 1_556
La4 O4 2.454918 1_555
La4 O9 2.454918 1_554
La4 O3 2.546261 1_655
La4 O10 2.546261 1_655
La4 O5 2.766462 1_555
La4 O8 2.766462 1_554
La4 S0 3.036360 1_545
La4 S3 3.112633 1_655
La4 S5 3.192910 1_555
La4 S5 3.192910 1_554
La5 O8 2.454910 1_554
La5 O5 2.454910 1_555
La5 O11 2.546264 1_545
La5 O2 2.546264 1_545
La5 O1 2.766462 1_555
La5 O6 2.766462 1_554
La5 S3 3.036351 1_555
La5 S2 3.112626 1_545
La5 S1 3.192914 1_554
La5 S1 3.192914 1_555
Mn0 S0 2.460867 1_445
Mn0 S1 2.460867 1_554
Mn0 S4 2.460869 1_444
Mn0 S3 2.460869 1_555
Mn0 S5 2.460874 1_454
Mn0 S2 2.460874 1_545
Mn1 S0 2.460867 1_445
Mn1 S1 2.460867 1_555
Mn1 S4 2.460869 1_445
Mn1 S3 2.460869 1_555
Mn1 S5 2.460874 1_455
Mn1 S2 2.460874 1_545
O0 W0 1.971711 1_555
O1 W1 1.971711 1_555
O2 W0 1.971697 1_555
O3 W0 1.971702 1_555
O4 W1 1.971702 1_555
O5 W1 1.971697 1_555
O6 W1 1.971711 1_555
O7 W0 1.971711 1_555
O8 W1 1.971697 1_555
O9 W1 1.971702 1_555
O10 W0 1.971702 1_555
O11 W0 1.971697 1_555
