# generated using pymatgen
data_Mn12O7F17
_symmetry_space_group_name_H-M   'P 1'
_cell_length_a   5.39463400
_cell_length_b   5.43547297
_cell_length_c   15.09591201
_cell_angle_alpha   84.56486768
_cell_angle_beta   84.40747039
_cell_angle_gamma   88.40084691
_symmetry_Int_Tables_number   1
_chemical_formula_structural   Mn12O7F17
_chemical_formula_sum   'Mn12 O7 F17'
_cell_volume   438.48265767
_cell_formula_units_Z   1
loop_
 _symmetry_equiv_pos_site_id
 _symmetry_equiv_pos_as_xyz
  1  'x, y, z'
loop_
 _atom_site_type_symbol
 _atom_site_label
 _atom_site_symmetry_multiplicity
 _atom_site_fract_x
 _atom_site_fract_y
 _atom_site_fract_z
 _atom_site_occupancy
  Mn  Mn0  1  0.01307000  0.09313900  0.00103400  1
  Mn  Mn1  1  0.53743500  0.90543600  0.16294200  1
  Mn  Mn2  1  0.98062900  0.10360800  0.32758400  1
  Mn  Mn3  1  0.52321000  0.98370800  0.50845800  1
  Mn  Mn4  1  0.06203700  0.02123000  0.66277200  1
  Mn  Mn5  1  0.56822600  0.95460400  0.82768600  1
  Mn  Mn6  1  0.98597800  0.59000900  0.16832700  1
  Mn  Mn7  1  0.48572200  0.42342700  0.99604000  1
  Mn  Mn8  1  0.40589900  0.48881400  0.65697300  1
  Mn  Mn9  1  0.03640100  0.51945100  0.51040100  1
  Mn  Mn10  1  0.44170700  0.45767100  0.32609900  1
  Mn  Mn11  1  0.03825500  0.57649000  0.83887100  1
  O  O0  1  0.84375300  0.84585800  0.08535500  1
  O  O1  1  0.22155100  0.75369900  0.59872700  1
  O  O2  1  0.89242700  0.82097100  0.75849400  1
  O  O3  1  0.67059000  0.64082200  0.23402900  1
  O  O4  1  0.18061000  0.35778800  0.92903700  1
  O  O5  1  0.28777200  0.25128900  0.58585200  1
  O  O6  1  0.12978900  0.37324100  0.25823300  1
  F  F0  1  0.21040600  0.87386900  0.24431200  1
  F  F1  1  0.87247000  0.82646800  0.41272500  1
  F  F2  1  0.20392500  0.86627500  0.91710600  1
  F  F3  1  0.31620600  0.62017200  0.09862400  1
  F  F4  1  0.70585400  0.65906600  0.58005300  1
  F  F5  1  0.71563300  0.65245700  0.91285700  1
  F  F6  1  0.37657000  0.68817400  0.76624000  1
  F  F7  1  0.35978700  0.70250200  0.42546700  1
  F  F8  1  0.82124900  0.33797500  0.07426700  1
  F  F9  1  0.70182300  0.28980400  0.40922800  1
  F  F10  1  0.57525300  0.24232200  0.73060300  1
  F  F11  1  0.20823600  0.21637500  0.41600600  1
  F  F12  1  0.34113100  0.11163900  0.07847200  1
  F  F13  1  0.07597900  0.30649100  0.74891500  1
  F  F14  1  0.81965400  0.15957900  0.57183000  1
  F  F15  1  0.70913000  0.15599800  0.92220800  1
  F  F16  1  0.68163800  0.12957900  0.25417500  1
loop_
_geom_bond_atom_site_label_1
_geom_bond_atom_site_label_2
_geom_bond_distance
_geom_bond_site_symmetry_2
Mn0 O4 1.911110 1_554
Mn0 O0 1.943956 1_445
Mn1 O3 1.880553 1_555
Mn1 O0 1.967767 1_555
Mn2 O6 1.871475 1_655
Mn3 O5 2.241228 1_565
Mn3 O1 2.329547 1_555
Mn4 O2 1.900004 1_445
Mn4 O1 1.955541 1_545
Mn4 O5 1.982243 1_555
Mn5 O2 2.096232 1_555
Mn6 O3 1.910902 1_555
Mn6 O6 1.919224 1_655
Mn6 O0 1.972117 1_555
Mn7 O4 2.070073 1_555
Mn8 O5 1.915066 1_555
Mn8 O1 1.919840 1_555
Mn9 O1 2.246956 1_555
Mn9 O5 2.266493 1_555
Mn10 O3 1.979748 1_555
Mn10 O6 2.135367 1_555
Mn11 O2 1.918144 1_455
Mn11 O4 1.924015 1_555
F0 Mn1 2.050682 1_555
F0 Mn2 2.140877 1_465
F0 Mn6 2.423294 1_455
F1 Mn2 1.948772 1_565
F1 Mn9 2.333823 1_655
F1 Mn3 2.445883 1_555
F2 Mn0 2.038797 1_566
F2 Mn11 2.304621 1_555
F2 Mn5 2.308200 1_555
F3 Mn6 1.981397 1_455
F3 Mn7 2.088341 1_554
F3 Mn1 2.320681 1_555
F4 Mn8 2.082522 1_555
F4 Mn9 2.138079 1_655
F4 Mn3 2.236494 1_555
F5 Mn11 2.028647 1_655
F5 Mn7 2.037493 1_555
F5 Mn5 2.170029 1_555
F6 Mn8 2.048957 1_555
F6 Mn11 2.108872 1_555
F6 Mn5 2.133438 1_555
F7 Mn10 2.105359 1_555
F7 Mn9 2.257563 1_555
F7 Mn3 2.310047 1_555
F8 Mn0 2.010694 1_655
F8 Mn7 2.269873 1_554
F8 Mn6 2.316235 1_555
F9 Mn10 2.105050 1_555
F9 Mn2 2.143717 1_555
F9 Mn3 2.297066 1_545
F10 Mn8 1.926834 1_555
F10 Mn5 2.037970 1_545
F11 Mn2 2.044869 1_455
F11 Mn10 2.137844 1_555
F11 Mn9 2.388655 1_555
F11 Mn3 2.538164 1_545
F12 Mn1 1.982395 1_545
F12 Mn7 2.124636 1_554
F12 Mn0 2.223552 1_555
F13 Mn11 2.084769 1_555
F13 Mn4 2.123298 1_555
F13 Mn8 2.330792 1_555
F14 Mn4 2.063825 1_655
F14 Mn3 2.223339 1_545
F14 Mn9 2.371930 1_655
F15 Mn5 2.089466 1_545
F15 Mn0 2.119705 1_656
F15 Mn7 2.180607 1_555
F16 Mn2 2.038533 1_555
F16 Mn1 2.136788 1_545
F16 Mn10 2.449190 1_555
