# generated using pymatgen
data_Ba2YI7
_symmetry_space_group_name_H-M   'P 1'
_cell_length_a   15.18447300
_cell_length_b   8.34697600
_cell_length_c   14.87646453
_cell_angle_alpha   78.63666424
_cell_angle_beta   90.00000000
_cell_angle_gamma   90.00000000
_symmetry_Int_Tables_number   1
_chemical_formula_structural   Ba2YI7
_chemical_formula_sum   'Ba8 Y4 I28'
_cell_volume   1848.54827124
_cell_formula_units_Z   4
loop_
 _symmetry_equiv_pos_site_id
 _symmetry_equiv_pos_as_xyz
  1  'x, y, z'
loop_
 _atom_site_type_symbol
 _atom_site_label
 _atom_site_symmetry_multiplicity
 _atom_site_fract_x
 _atom_site_fract_y
 _atom_site_fract_z
 _atom_site_occupancy
  Ba  Ba0  1  0.54463900  0.77118000  0.76626000  1
  Ba  Ba1  1  0.12934000  0.75420600  0.64157700  1
  Ba  Ba2  1  0.79465100  0.77014500  0.14376700  1
  Ba  Ba3  1  0.36130400  0.66635200  0.25044400  1
  Ba  Ba4  1  0.86130400  0.33364800  0.74955600  1
  Ba  Ba5  1  0.29465100  0.22985500  0.85623300  1
  Ba  Ba6  1  0.62934000  0.24579400  0.35842300  1
  Ba  Ba7  1  0.04463900  0.22882000  0.23374000  1
  Y  Y0  1  0.84430100  0.83350500  0.55193800  1
  Y  Y1  1  0.07746400  0.81668400  0.05235200  1
  Y  Y2  1  0.57746400  0.18331600  0.94764800  1
  Y  Y3  1  0.34430100  0.16649500  0.44806200  1
  I  I0  1  0.71345000  0.94898200  0.89475500  1
  I  I1  1  0.43825600  0.91738500  0.99326500  1
  I  I2  1  0.50049300  0.94872700  0.51367700  1
  I  I3  1  0.16019600  0.87262600  0.86508700  1
  I  I4  1  0.23991900  0.87348400  0.40921200  1
  I  I5  1  0.75720700  0.87335000  0.36648000  1
  I  I6  1  0.91582200  0.79083300  0.74641600  1
  I  I7  1  0.00855600  0.79838500  0.24958200  1
  I  I8  1  0.34036200  0.61471000  0.71286400  1
  I  I9  1  0.58517300  0.61641700  0.20681200  1
  I  I10  1  0.69322000  0.59791600  0.62143300  1
  I  I11  1  0.70548000  0.46808000  0.89399400  1
  I  I12  1  0.95569400  0.53527800  0.53730900  1
  I  I13  1  0.44752700  0.44417400  0.97027100  1
  I  I14  1  0.94752700  0.55582600  0.02972900  1
  I  I15  1  0.45569400  0.46472200  0.46269100  1
  I  I16  1  0.20548000  0.53192000  0.10600600  1
  I  I17  1  0.19322000  0.40208400  0.37856700  1
  I  I18  1  0.08517300  0.38358300  0.79318800  1
  I  I19  1  0.84036200  0.38529000  0.28713600  1
  I  I20  1  0.50855600  0.20161500  0.75041800  1
  I  I21  1  0.41582200  0.20916700  0.25358400  1
  I  I22  1  0.25720700  0.12665000  0.63352000  1
  I  I23  1  0.73991900  0.12651600  0.59078800  1
  I  I24  1  0.66019600  0.12737400  0.13491300  1
  I  I25  1  0.00049300  0.05127300  0.48632300  1
  I  I26  1  0.93825600  0.08261500  0.00673500  1
  I  I27  1  0.21345000  0.05101800  0.10524500  1
loop_
_geom_bond_atom_site_label_1
_geom_bond_atom_site_label_2
_geom_bond_distance
_geom_bond_site_symmetry_2
Ba0 I8 3.516671 1_555
Ba0 I20 3.595901 1_565
Ba0 I10 3.612682 1_555
Ba0 I0 3.680363 1_555
Ba0 I11 3.752589 1_555
Ba0 I2 3.817116 1_555
Ba0 I13 3.946046 1_555
Ba0 I1 4.138487 1_555
Ba1 I8 3.501584 1_555
Ba1 I18 3.515324 1_555
Ba1 I25 3.613015 1_565
Ba1 I6 3.636676 1_455
Ba1 I22 3.647168 1_565
Ba1 I3 3.680702 1_555
Ba1 I12 3.716808 1_455
Ba1 I4 3.795211 1_555
Ba2 I9 3.488478 1_555
Ba2 I19 3.556711 1_555
Ba2 I14 3.558485 1_555
Ba2 I24 3.594698 1_565
Ba2 I5 3.628669 1_555
Ba2 I7 3.637234 1_655
Ba2 I26 3.690255 1_565
Ba2 I0 3.910528 1_554
Ba3 I9 3.501017 1_555
Ba3 I16 3.524869 1_555
Ba3 I15 3.572449 1_555
Ba3 I17 3.654575 1_555
Ba3 I4 3.684321 1_555
Ba3 I21 3.896145 1_555
Ba3 I1 4.151440 1_554
Ba3 I27 4.157216 1_565
Ba4 I18 3.501017 1_655
Ba4 I11 3.524869 1_555
Ba4 I12 3.572449 1_555
Ba4 I10 3.654575 1_555
Ba4 I23 3.684321 1_555
Ba4 I6 3.896145 1_555
Ba4 I26 4.151440 1_556
Ba4 I0 4.157216 1_545
Ba5 I18 3.488478 1_555
Ba5 I8 3.556711 1_555
Ba5 I13 3.558485 1_555
Ba5 I3 3.594698 1_545
Ba5 I22 3.628669 1_555
Ba5 I20 3.637234 1_555
Ba5 I1 3.690255 1_545
Ba5 I27 3.910528 1_556
Ba6 I19 3.501584 1_555
Ba6 I9 3.515324 1_555
Ba6 I2 3.613015 1_545
Ba6 I21 3.636676 1_555
Ba6 I5 3.647168 1_545
Ba6 I24 3.680702 1_555
Ba6 I15 3.716808 1_555
Ba6 I23 3.795211 1_555
Ba7 I19 3.516671 1_455
Ba7 I7 3.595901 1_545
Ba7 I17 3.612682 1_555
Ba7 I27 3.680363 1_555
Ba7 I16 3.752589 1_555
Ba7 I25 3.817116 1_555
Ba7 I14 3.946046 1_455
Ba7 I26 4.138487 1_455
I0 Y2 3.052083 1_565
I1 Y2 3.043393 1_565
I2 Y3 3.030282 1_565
I3 Y1 3.007405 1_556
I4 Y3 3.063485 1_565
I5 Y0 3.018249 1_555
I6 Y0 3.044749 1_555
I7 Y1 3.090371 1_555
I10 Y0 3.065530 1_555
I11 Y2 3.052506 1_555
I12 Y0 3.052606 1_555
I13 Y2 3.005965 1_555
I14 Y1 3.005965 1_655
I15 Y3 3.052606 1_555
I16 Y1 3.052506 1_555
I17 Y3 3.065530 1_555
I20 Y2 3.090371 1_555
I21 Y3 3.044749 1_555
I22 Y3 3.018249 1_555
I23 Y0 3.063485 1_545
I24 Y2 3.007405 1_554
I25 Y0 3.030282 1_445
I26 Y1 3.043393 1_645
I27 Y1 3.052083 1_545
