# generated using pymatgen
data_Li9Cr19O48
_symmetry_space_group_name_H-M   'P 1'
_cell_length_a   5.05422000
_cell_length_b   10.18808744
_cell_length_c   17.26677268
_cell_angle_alpha   90.39306857
_cell_angle_beta   90.38267547
_cell_angle_gamma   90.01688265
_symmetry_Int_Tables_number   1
_chemical_formula_structural   Li9Cr19O48
_chemical_formula_sum   'Li9 Cr19 O48'
_cell_volume   889.07427755
_cell_formula_units_Z   1
loop_
 _symmetry_equiv_pos_site_id
 _symmetry_equiv_pos_as_xyz
  1  'x, y, z'
loop_
 _atom_site_type_symbol
 _atom_site_label
 _atom_site_symmetry_multiplicity
 _atom_site_fract_x
 _atom_site_fract_y
 _atom_site_fract_z
 _atom_site_occupancy
  Li  Li0  1  0.09134000  0.74958000  0.75060400  1
  Li  Li1  1  0.25041300  0.57918300  0.02583200  1
  Li  Li2  1  0.25079300  0.42493300  0.53118900  1
  Li  Li3  1  0.25090400  0.07549400  0.53217900  1
  Li  Li4  1  0.25130500  0.74716100  0.19539400  1
  Li  Li5  1  0.74649400  0.25229500  0.80431700  1
  Li  Li6  1  0.74855900  0.08168900  0.97157900  1
  Li  Li7  1  0.76116600  0.74809000  0.30085100  1
  Li  Li8  1  0.90619900  0.25124000  0.24875300  1
  Cr  Cr0  1  0.22355600  0.25138100  0.05639400  1
  Cr  Cr1  1  0.22843100  0.97101300  0.34542800  1
  Cr  Cr2  1  0.22847600  0.52926700  0.34598400  1
  Cr  Cr3  1  0.25441500  0.25767700  0.69772000  1
  Cr  Cr4  1  0.25186700  0.93031600  0.02318200  1
  Cr  Cr5  1  0.28576900  0.47318400  0.84479000  1
  Cr  Cr6  1  0.27708100  0.02536800  0.84419000  1
  Cr  Cr7  1  0.28904100  0.75059800  0.55751300  1
  Cr  Cr8  1  0.40564400  0.25057500  0.24716700  1
  Cr  Cr9  1  0.59224100  0.74872100  0.75216900  1
  Cr  Cr10  1  0.71796100  0.24966200  0.44168800  1
  Cr  Cr11  1  0.72232300  0.52553900  0.15612100  1
  Cr  Cr12  1  0.72104400  0.97316600  0.15354600  1
  Cr  Cr13  1  0.75816300  0.92677000  0.47806100  1
  Cr  Cr14  1  0.75773500  0.57324300  0.47815300  1
  Cr  Cr15  1  0.75111800  0.43031400  0.97305800  1
  Cr  Cr16  1  0.77746200  0.47251700  0.65661600  1
  Cr  Cr17  1  0.77640000  0.02902200  0.65752400  1
  Cr  Cr18  1  0.77909500  0.75020900  0.94371100  1
  O  O0  1  0.05369500  0.76023700  0.00593500  1
  O  O1  1  0.05407700  0.38221700  0.63025800  1
  O  O2  1  0.05441800  0.11835100  0.63320300  1
  O  O3  1  0.10925800  0.36852100  0.78259200  1
  O  O4  1  0.08810600  0.11954000  0.78904100  1
  O  O5  1  0.08912300  0.88383900  0.53232400  1
  O  O6  1  0.08897300  0.61649700  0.53244300  1
  O  O7  1  0.09208800  0.99049300  0.92373500  1
  O  O8  1  0.07534800  0.50140700  0.92193100  1
  O  O9  1  0.17059200  0.25027500  0.15735100  1
  O  O10  1  0.17123500  0.38526500  0.29839400  1
  O  O11  1  0.17098800  0.11410100  0.29817800  1
  O  O12  1  0.35119400  0.88524600  0.79600600  1
  O  O13  1  0.34926600  0.61667500  0.79606100  1
  O  O14  1  0.34785500  0.75046100  0.65408000  1
  O  O15  1  0.42123000  0.50189700  0.42340200  1
  O  O16  1  0.42180000  0.99773100  0.42304400  1
  O  O17  1  0.40280700  0.11066500  0.03427600  1
  O  O18  1  0.42719600  0.38053800  0.03400200  1
  O  O19  1  0.39791600  0.87462600  0.28927300  1
  O  O20  1  0.40051500  0.62571700  0.29151800  1
  O  O21  1  0.44314900  0.89110800  0.12509600  1
  O  O22  1  0.45512900  0.60738400  0.13123500  1
  O  O23  1  0.45627800  0.25021700  0.49750700  1
  O  O24  1  0.57500900  0.74998900  0.49141400  1
  O  O25  1  0.56026200  0.38335200  0.87665500  1
  O  O26  1  0.54434500  0.10603800  0.86956200  1
  O  O27  1  0.56685000  0.37566700  0.70897600  1
  O  O28  1  0.56152900  0.12956200  0.70747600  1
  O  O29  1  0.57255000  0.88044100  0.96680500  1
  O  O30  1  0.59738900  0.61058200  0.96574000  1
  O  O31  1  0.59575500  0.99014900  0.57262800  1
  O  O32  1  0.59498500  0.51086500  0.57266600  1
  O  O33  1  0.63952100  0.24901800  0.34630700  1
  O  O34  1  0.64622600  0.38505000  0.20548300  1
  O  O35  1  0.64674700  0.11358100  0.20234400  1
  O  O36  1  0.82659300  0.88388300  0.70566400  1
  O  O37  1  0.83126100  0.61768600  0.70513800  1
  O  O38  1  0.82683100  0.75047000  0.84425100  1
  O  O39  1  0.90515800  0.49051600  0.07726700  1
  O  O40  1  0.91695100  0.00450800  0.07797600  1
  O  O41  1  0.90118300  0.38381400  0.46264900  1
  O  O42  1  0.90137700  0.11618400  0.46284900  1
  O  O43  1  0.89398100  0.87805400  0.20994800  1
  O  O44  1  0.90993300  0.61990000  0.21112800  1
  O  O45  1  0.94515300  0.89402700  0.37313200  1
  O  O46  1  0.94472000  0.60602800  0.37408600  1
  O  O47  1  0.94846400  0.25942600  0.99526000  1
loop_
_geom_bond_atom_site_label_1
_geom_bond_atom_site_label_2
_geom_bond_distance
_geom_bond_site_symmetry_2
Li0 O37 2.029917 1_455
Li0 O13 2.037369 1_555
Li0 O12 2.054314 1_555
Li0 O36 2.065577 1_455
Li0 O38 2.104913 1_455
Li0 O14 2.118433 1_555
Li1 O30 2.069518 1_554
Li1 O22 2.105445 1_555
Li1 O0 2.124692 1_555
Li1 O8 2.142013 1_554
Li1 O39 2.163463 1_455
Li1 O18 2.217512 1_555
Li2 O1 2.033902 1_555
Li2 O32 2.068700 1_555
Li2 O6 2.116365 1_555
Li2 O23 2.140160 1_555
Li2 O41 2.159450 1_455
Li2 O15 2.204938 1_555
Li3 O2 2.057327 1_555
Li3 O31 2.067530 1_545
Li3 O5 2.116694 1_545
Li3 O23 2.150914 1_555
Li3 O42 2.169040 1_455
Li3 O16 2.219546 1_545
Li4 O22 2.076277 1_555
Li4 O21 2.145597 1_555
Li4 O44 2.177502 1_455
Li4 O19 2.194907 1_555
Li4 O20 2.205986 1_555
Li4 O43 2.259647 1_455
Li5 O25 2.054860 1_555
Li5 O26 2.137964 1_555
Li5 O4 2.209645 1_655
Li5 O3 2.217779 1_655
Li5 O27 2.263499 1_555
Li5 O28 2.276676 1_555
Li6 O26 2.052222 1_555
Li6 O17 2.081847 1_556
Li6 O47 2.109567 1_555
Li6 O7 2.137739 1_645
Li6 O40 2.171877 1_556
Li6 O29 2.235543 1_545
Li7 O46 2.136524 1_555
Li7 O45 2.142718 1_555
Li7 O44 2.158588 1_555
Li7 O43 2.170144 1_555
Li7 O20 2.212456 1_555
Li7 O19 2.252248 1_555
Li8 O34 2.035956 1_555
Li8 O35 2.073193 1_555
Li8 O9 2.074737 1_655
Li8 O10 2.088322 1_655
Li8 O11 2.115110 1_655
Li8 O33 2.164576 1_555
Cr0 O18 1.718086 1_555
Cr0 O17 1.737758 1_555
Cr0 O47 1.742348 1_454
Cr0 O9 1.765514 1_555
Cr1 O19 1.623820 1_555
Cr1 O16 1.674123 1_555
Cr1 O11 1.699551 1_565
Cr1 O45 1.705156 1_455
Cr2 O20 1.621482 1_555
Cr2 O15 1.673818 1_555
Cr2 O10 1.700401 1_555
Cr2 O46 1.705470 1_455
Cr3 O3 1.988284 1_555
Cr3 O27 1.991979 1_555
Cr3 O1 1.999334 1_555
Cr3 O28 2.035229 1_555
Cr3 O2 2.059143 1_555
Cr3 O4 2.284950 1_555
Cr4 O29 1.961523 1_554
Cr4 O7 1.993181 1_554
Cr4 O17 1.996787 1_565
Cr4 O0 2.020479 1_555
Cr4 O21 2.044019 1_555
Cr4 O40 2.084270 1_465
Cr5 O13 1.722873 1_555
Cr5 O8 1.732555 1_555
Cr5 O3 1.748495 1_555
Cr5 O25 1.750012 1_555
Cr6 O26 1.636640 1_555
Cr6 O4 1.655435 1_555
Cr6 O12 1.690757 1_545
Cr6 O7 1.706041 1_545
Cr7 O14 1.691745 1_555
Cr7 O5 1.748113 1_555
Cr7 O6 1.749771 1_555
Cr7 O24 1.847595 1_555
Cr8 O9 1.947246 1_555
Cr8 O34 1.974295 1_555
Cr8 O35 2.007668 1_555
Cr8 O10 2.016769 1_555
Cr8 O11 2.036032 1_555
Cr8 O33 2.073943 1_555
Cr9 O37 1.974909 1_555
Cr9 O38 1.976997 1_555
Cr9 O13 1.979330 1_555
Cr9 O36 1.992716 1_555
Cr9 O12 1.997687 1_555
Cr9 O14 2.089741 1_555
Cr10 O23 1.641708 1_555
Cr10 O41 1.686580 1_555
Cr10 O42 1.686773 1_555
Cr10 O33 1.691360 1_555
Cr11 O44 1.643273 1_555
Cr11 O22 1.643625 1_555
Cr11 O39 1.686838 1_555
Cr11 O34 1.715760 1_555
Cr12 O43 1.628951 1_555
Cr12 O40 1.675648 1_565
Cr12 O35 1.698666 1_565
Cr12 O21 1.702185 1_555
Cr13 O31 1.939261 1_555
Cr13 O5 1.962745 1_655
Cr13 O24 2.039967 1_555
Cr13 O45 2.074079 1_555
Cr13 O16 2.074574 1_555
Cr13 O42 2.079807 1_565
Cr14 O32 1.943082 1_555
Cr14 O6 1.961798 1_655
Cr14 O24 2.036181 1_555
Cr14 O46 2.065018 1_555
Cr14 O15 2.069558 1_555
Cr14 O41 2.078036 1_555
Cr15 O25 1.974225 1_555
Cr15 O30 1.998856 1_555
Cr15 O8 2.004190 1_655
Cr15 O18 2.018589 1_556
Cr15 O47 2.044030 1_555
Cr15 O39 2.045939 1_556
Cr16 O37 1.715523 1_555
Cr16 O27 1.717142 1_555
Cr16 O1 1.735403 1_655
Cr16 O32 1.759132 1_555
Cr17 O36 1.719324 1_545
Cr17 O28 1.724410 1_555
Cr17 O2 1.729589 1_655
Cr17 O31 1.764427 1_545
Cr18 O29 1.734457 1_555
Cr18 O38 1.735833 1_555
Cr18 O30 1.738685 1_555
Cr18 O0 1.752004 1_656
