# generated using pymatgen
data_PrSiRu
_symmetry_space_group_name_H-M   'P 1'
_cell_length_a   4.22542975
_cell_length_b   4.22542975
_cell_length_c   7.05115053
_cell_angle_alpha   90.00000000
_cell_angle_beta   90.00000000
_cell_angle_gamma   90.00000000
_symmetry_Int_Tables_number   1
_chemical_formula_structural   PrSiRu
_chemical_formula_sum   'Pr2 Si2 Ru2'
_cell_volume   125.89305069
_cell_formula_units_Z   2
loop_
 _symmetry_equiv_pos_site_id
 _symmetry_equiv_pos_as_xyz
  1  'x, y, z'
loop_
 _atom_site_type_symbol
 _atom_site_label
 _atom_site_symmetry_multiplicity
 _atom_site_fract_x
 _atom_site_fract_y
 _atom_site_fract_z
 _atom_site_occupancy
  Pr  Pr0  1  0.25000000  0.25000000  0.68213008  1
  Pr  Pr1  1  0.75000000  0.75000000  0.31786992  1
  Si  Si0  1  0.25000000  0.25000000  0.16773903  1
  Si  Si1  1  0.75000000  0.75000000  0.83226097  1
  Ru  Ru0  1  0.75000000  0.25000000  0.00000000  1
  Ru  Ru1  1  0.25000000  0.75000000  0.00000000  1
loop_
_geom_bond_atom_site_label_1
_geom_bond_atom_site_label_2
_geom_bond_distance
_geom_bond_site_symmetry_2
Pr0 Ru0 3.080131 1_556
Pr0 Ru1 3.080131 1_556
Pr0 Ru1 3.080131 1_546
Pr0 Ru0 3.080131 1_456
Pr0 Si1 3.169819 1_455
Pr0 Si1 3.169819 1_445
Pr0 Si1 3.169819 1_545
Pr0 Si1 3.169819 1_555
Pr0 Si0 3.627049 1_555
Pr1 Ru1 3.080131 1_555
Pr1 Ru0 3.080131 1_565
Pr1 Ru0 3.080131 1_555
Pr1 Ru1 3.080131 1_655
Pr1 Si0 3.169819 1_565
Pr1 Si0 3.169819 1_555
Pr1 Si0 3.169819 1_655
Pr1 Si0 3.169819 1_665
Pr1 Si1 3.627049 1_555
Ru0 Si0 2.421254 1_655
Ru0 Si1 2.421254 1_544
Ru0 Si0 2.421254 1_555
Ru0 Si1 2.421254 1_554
Ru1 Si1 2.421254 1_454
Ru1 Si0 2.421254 1_565
Ru1 Si0 2.421254 1_555
Ru1 Si1 2.421254 1_554
