# generated using pymatgen
data_LiTa3O8
_symmetry_space_group_name_H-M   'P 1'
_cell_length_a   7.77965500
_cell_length_b   8.99835100
_cell_length_c   16.98935053
_cell_angle_alpha   89.69511873
_cell_angle_beta   90.00000000
_cell_angle_gamma   90.00000000
_symmetry_Int_Tables_number   1
_chemical_formula_structural   LiTa3O8
_chemical_formula_sum   'Li8 Ta24 O64'
_cell_volume   1189.30678365
_cell_formula_units_Z   8
loop_
 _symmetry_equiv_pos_site_id
 _symmetry_equiv_pos_as_xyz
  1  'x, y, z'
loop_
 _atom_site_type_symbol
 _atom_site_label
 _atom_site_symmetry_multiplicity
 _atom_site_fract_x
 _atom_site_fract_y
 _atom_site_fract_z
 _atom_site_occupancy
  Li  Li0  1  0.00000000  0.68796200  0.75168000  1
  Li  Li1  1  0.50000000  0.91758900  0.59499900  1
  Li  Li2  1  0.00000000  0.47167200  0.50563800  1
  Li  Li3  1  0.50000000  0.52723700  0.49469500  1
  Li  Li4  1  0.00000000  0.08309200  0.40842200  1
  Li  Li5  1  0.50000000  0.32044100  0.24855100  1
  Li  Li6  1  0.00000000  0.07963400  0.08296900  1
  Li  Li7  1  0.50000000  0.53259400  0.00514400  1
  Ta  Ta0  1  0.74711900  0.18994600  0.94009500  1
  Ta  Ta1  1  0.25288100  0.18994600  0.94009500  1
  Ta  Ta2  1  0.25157300  0.60225500  0.87165600  1
  Ta  Ta3  1  0.74842700  0.60225500  0.87165600  1
  Ta  Ta4  1  0.75175100  0.31324600  0.74885800  1
  Ta  Ta5  1  0.25284200  0.94918200  0.75066300  1
  Ta  Ta6  1  0.74715800  0.94918200  0.75066300  1
  Ta  Ta7  1  0.24824900  0.31324600  0.74885800  1
  Ta  Ta8  1  0.25435100  0.60819300  0.63203200  1
  Ta  Ta9  1  0.74564900  0.60819300  0.63203200  1
  Ta  Ta10  1  0.74862600  0.19073000  0.55967900  1
  Ta  Ta11  1  0.25137400  0.19073000  0.55967900  1
  Ta  Ta12  1  0.24837500  0.80942800  0.44067500  1
  Ta  Ta13  1  0.75162500  0.80942800  0.44067500  1
  Ta  Ta14  1  0.75426100  0.39218400  0.36821700  1
  Ta  Ta15  1  0.24573900  0.39218400  0.36821700  1
  Ta  Ta16  1  0.25170600  0.68499600  0.25050800  1
  Ta  Ta17  1  0.74829400  0.68499600  0.25050800  1
  Ta  Ta18  1  0.75157300  0.05058000  0.24992200  1
  Ta  Ta19  1  0.24842700  0.05058000  0.24992200  1
  Ta  Ta20  1  0.75558200  0.39488100  0.12828300  1
  Ta  Ta21  1  0.24441800  0.39488100  0.12828300  1
  Ta  Ta22  1  0.25000800  0.81344000  0.06033400  1
  Ta  Ta23  1  0.74999200  0.81344000  0.06033400  1
  O  O0  1  0.24934300  0.00674600  0.00682200  1
  O  O1  1  0.75065700  0.00674600  0.00682200  1
  O  O2  1  0.22343600  0.66415300  0.97927200  1
  O  O3  1  0.77656400  0.66415300  0.97927200  1
  O  O4  1  0.00000000  0.19305200  0.95600500  1
  O  O5  1  0.50000000  0.16840500  0.92845000  1
  O  O6  1  0.50000000  0.57866600  0.89278600  1
  O  O7  1  0.24331200  0.37881400  0.86629500  1
  O  O8  1  0.75668800  0.37881400  0.86629500  1
  O  O9  1  0.00000000  0.60942200  0.85578400  1
  O  O10  1  0.72092400  0.80042300  0.83040300  1
  O  O11  1  0.27907600  0.80042300  0.83040300  1
  O  O12  1  0.22772500  0.12218200  0.82482600  1
  O  O13  1  0.77227500  0.12218200  0.82482600  1
  O  O14  1  0.26777300  0.54713500  0.74882700  1
  O  O15  1  0.00000000  0.32799700  0.74822600  1
  O  O16  1  0.73222700  0.54713500  0.74882700  1
  O  O17  1  0.50000000  0.98159500  0.74541000  1
  O  O18  1  0.50000000  0.30151500  0.74746400  1
  O  O19  1  0.00000000  0.90698700  0.74678500  1
  O  O20  1  0.22335500  0.12482900  0.67251500  1
  O  O21  1  0.77664500  0.12482900  0.67251500  1
  O  O22  1  0.70984900  0.81370100  0.66005400  1
  O  O23  1  0.29015100  0.81370100  0.66005400  1
  O  O24  1  0.00000000  0.61465300  0.64512700  1
  O  O25  1  0.24337500  0.38187700  0.63003100  1
  O  O26  1  0.75662500  0.38187700  0.63003100  1
  O  O27  1  0.50000000  0.58598100  0.60513000  1
  O  O28  1  0.50000000  0.15505900  0.57144400  1
  O  O29  1  0.00000000  0.20623400  0.53813000  1
  O  O30  1  0.20936400  0.65316300  0.51987500  1
  O  O31  1  0.79063600  0.65316300  0.51987500  1
  O  O32  1  0.24970300  0.99965800  0.49981500  1
  O  O33  1  0.75029700  0.99965800  0.49981500  1
  O  O34  1  0.70954500  0.34661000  0.47970600  1
  O  O35  1  0.29045500  0.34661000  0.47970600  1
  O  O36  1  0.50000000  0.79318500  0.46047500  1
  O  O37  1  0.00000000  0.84476300  0.42763900  1
  O  O38  1  0.00000000  0.41389200  0.39460800  1
  O  O39  1  0.74374500  0.61724100  0.36903900  1
  O  O40  1  0.25625500  0.61724100  0.36903900  1
  O  O41  1  0.50000000  0.38487100  0.35548900  1
  O  O42  1  0.20805200  0.18605800  0.33878100  1
  O  O43  1  0.79194800  0.18605800  0.33878100  1
  O  O44  1  0.72371200  0.87515600  0.32684200  1
  O  O45  1  0.27628800  0.87515600  0.32684200  1
  O  O46  1  0.00000000  0.69635500  0.25190000  1
  O  O47  1  0.00000000  0.01748900  0.25112500  1
  O  O48  1  0.76531600  0.44870400  0.25067100  1
  O  O49  1  0.50000000  0.67037500  0.25108100  1
  O  O50  1  0.50000000  0.09894000  0.25150900  1
  O  O51  1  0.23468400  0.44870400  0.25067100  1
  O  O52  1  0.72542500  0.87519400  0.17663900  1
  O  O53  1  0.27457500  0.87519400  0.17663900  1
  O  O54  1  0.21380800  0.18822300  0.16279100  1
  O  O55  1  0.78619200  0.18822300  0.16279100  1
  O  O56  1  0.50000000  0.39083300  0.14389600  1
  O  O57  1  0.74724200  0.61804600  0.13291800  1
  O  O58  1  0.25275800  0.61804600  0.13291800  1
  O  O59  1  0.00000000  0.40892200  0.11152500  1
  O  O60  1  0.00000000  0.84163600  0.07431200  1
  O  O61  1  0.50000000  0.79281500  0.05092900  1
  O  O62  1  0.70996500  0.34474400  0.01948600  1
  O  O63  1  0.29003500  0.34474400  0.01948600  1
loop_
_geom_bond_atom_site_label_1
_geom_bond_atom_site_label_2
_geom_bond_distance
_geom_bond_site_symmetry_2
Li0 O9 1.901137 1_555
Li0 O24 1.930006 1_555
Li0 O19 1.972175 1_555
Li0 O14 2.438949 1_555
Li0 O16 2.438949 1_455
Li1 O28 2.171894 1_565
Li1 O22 2.179377 1_555
Li1 O23 2.179377 1_555
Li1 O36 2.550245 1_555
Li1 O17 2.622475 1_555
Li1 O33 2.634273 1_555
Li1 O32 2.634273 1_555
Li2 O38 1.959334 1_555
Li2 O30 2.320067 1_555
Li2 O31 2.320067 1_455
Li2 O29 2.448601 1_555
Li2 O35 2.563545 1_555
Li2 O34 2.563545 1_455
Li3 O27 1.951965 1_555
Li3 O34 2.317005 1_555
Li3 O35 2.317005 1_555
Li3 O36 2.459693 1_555
Li3 O30 2.566024 1_555
Li3 O31 2.566024 1_555
Li4 O37 2.167559 1_545
Li4 O43 2.205995 1_455
Li4 O42 2.205995 1_555
Li4 O29 2.471823 1_555
Li4 O32 2.595353 1_545
Li4 O33 2.595353 1_445
Li5 O56 1.884299 1_555
Li5 O41 1.910006 1_555
Li5 O50 1.993510 1_555
Li5 O48 2.365203 1_555
Li5 O51 2.365203 1_555
Li6 O60 2.147415 1_545
Li6 O54 2.361077 1_555
Li6 O55 2.361077 1_455
Li6 O4 2.381375 1_554
Li6 O0 2.423976 1_555
Li6 O1 2.423976 1_455
Li7 O6 1.951232 1_554
Li7 O62 2.362290 1_555
Li7 O63 2.362290 1_555
Li7 O61 2.471305 1_555
Li7 O3 2.493661 1_554
Li7 O2 2.493661 1_554
O0 Ta22 1.958407 1_545
O0 Ta1 1.995889 1_554
O1 Ta23 1.958407 1_545
O1 Ta0 1.995889 1_554
O2 Ta2 1.926592 1_555
O2 Ta22 1.940008 1_556
O3 Ta3 1.926592 1_555
O3 Ta23 1.940008 1_556
O4 Ta1 1.986026 1_555
O4 Ta0 1.986026 1_455
O5 Ta0 1.942454 1_555
O5 Ta1 1.942454 1_555
O6 Ta3 1.976955 1_555
O6 Ta2 1.976955 1_555
O7 Ta2 2.014172 1_555
O7 Ta7 2.083949 1_555
O7 Ta1 2.107894 1_555
O8 Ta3 2.014172 1_555
O8 Ta4 2.083949 1_555
O8 Ta0 2.107894 1_555
O9 Ta2 1.976646 1_555
O9 Ta3 1.976646 1_455
O10 Ta6 1.910356 1_555
O10 Ta3 1.924432 1_555
O11 Ta5 1.910356 1_555
O11 Ta2 1.924432 1_555
O12 Ta5 2.017416 1_545
O12 Ta1 2.063477 1_555
O12 Ta7 2.150234 1_555
O13 Ta6 2.017416 1_545
O13 Ta0 2.063477 1_555
O13 Ta4 2.150234 1_555
O14 Ta8 2.058761 1_555
O14 Ta7 2.110086 1_555
O14 Ta2 2.151180 1_555
O15 Ta7 1.935873 1_555
O15 Ta4 1.935873 1_455
O16 Ta9 2.058761 1_555
O16 Ta4 2.110086 1_555
O16 Ta3 2.151180 1_555
O17 Ta6 1.946774 1_555
O17 Ta5 1.946774 1_555
O18 Ta4 1.961528 1_555
O18 Ta7 1.961528 1_555
O19 Ta6 2.004482 1_455
O19 Ta5 2.004482 1_555
O20 Ta11 2.015439 1_555
O20 Ta5 2.071502 1_545
O20 Ta7 2.148881 1_555
O21 Ta10 2.015439 1_555
O21 Ta6 2.071502 1_545
O21 Ta4 2.148881 1_555
O22 Ta9 1.932162 1_555
O22 Ta6 1.990013 1_555
O23 Ta8 1.932162 1_555
O23 Ta5 1.990013 1_555
O24 Ta9 1.992113 1_455
O24 Ta8 1.992113 1_555
O25 Ta8 2.038724 1_555
O25 Ta11 2.100658 1_555
O25 Ta7 2.108337 1_555
O26 Ta9 2.038724 1_555
O26 Ta10 2.100658 1_555
O26 Ta4 2.108337 1_555
O27 Ta8 1.975343 1_555
O27 Ta9 1.975343 1_555
O28 Ta11 1.970665 1_555
O28 Ta10 1.970665 1_555
O29 Ta10 1.994326 1_455
O29 Ta11 1.994326 1_555
O30 Ta12 1.964609 1_555
O30 Ta8 1.977084 1_555
O31 Ta13 1.964609 1_555
O31 Ta9 1.977084 1_555
O32 Ta12 1.989483 1_555
O32 Ta11 2.002318 1_565
O33 Ta13 1.989483 1_555
O33 Ta10 2.002318 1_565
O34 Ta14 1.966885 1_555
O34 Ta10 1.971207 1_555
O35 Ta15 1.966885 1_555
O35 Ta11 1.971207 1_555
O36 Ta13 1.991487 1_555
O36 Ta12 1.991487 1_555
O37 Ta12 1.970551 1_555
O37 Ta13 1.970551 1_455
O38 Ta15 1.973566 1_555
O38 Ta14 1.973566 1_455
O39 Ta14 2.026916 1_555
O39 Ta17 2.101225 1_555
O39 Ta13 2.120866 1_555
O40 Ta15 2.026916 1_555
O40 Ta16 2.101225 1_555
O40 Ta12 2.120866 1_555
O41 Ta14 1.990973 1_555
O41 Ta15 1.990973 1_555
O42 Ta15 1.945814 1_555
O42 Ta19 1.970650 1_555
O43 Ta14 1.945814 1_555
O43 Ta18 1.970650 1_555
O44 Ta13 2.030996 1_555
O44 Ta18 2.055372 1_565
O44 Ta17 2.161019 1_555
O45 Ta12 2.030996 1_555
O45 Ta19 2.055372 1_565
O45 Ta16 2.161019 1_555
O46 Ta17 1.961001 1_455
O46 Ta16 1.961001 1_555
O47 Ta19 1.955570 1_555
O47 Ta18 1.955570 1_455
O48 Ta14 2.059946 1_555
O48 Ta17 2.130345 1_555
O48 Ta20 2.138802 1_555
O49 Ta16 1.936138 1_555
O49 Ta17 1.936138 1_555
O50 Ta18 2.005158 1_555
O50 Ta19 2.005158 1_555
O51 Ta15 2.059946 1_555
O51 Ta16 2.130345 1_555
O51 Ta21 2.138802 1_555
O52 Ta18 2.025601 1_565
O52 Ta23 2.064307 1_555
O52 Ta17 2.124361 1_555
O53 Ta19 2.025601 1_565
O53 Ta22 2.064307 1_555
O53 Ta16 2.124361 1_555
O54 Ta19 1.943795 1_555
O54 Ta21 1.961341 1_555
O55 Ta18 1.943795 1_555
O55 Ta20 1.961341 1_555
O56 Ta21 2.006260 1_555
O56 Ta20 2.006260 1_555
O57 Ta20 2.011126 1_555
O57 Ta17 2.089719 1_555
O57 Ta23 2.142290 1_555
O58 Ta21 2.011126 1_555
O58 Ta16 2.089719 1_555
O58 Ta22 2.142290 1_555
O59 Ta21 1.926732 1_555
O59 Ta20 1.926732 1_455
O60 Ta22 1.975940 1_555
O60 Ta23 1.975940 1_455
O61 Ta23 1.960290 1_555
O61 Ta22 1.960290 1_555
O62 Ta20 1.937757 1_555
O62 Ta0 1.965465 1_554
O63 Ta21 1.937757 1_555
O63 Ta1 1.965465 1_554
