# generated using pymatgen
data_FeSi
_symmetry_space_group_name_H-M   'P 1'
_cell_length_a   4.40220979
_cell_length_b   4.40220979
_cell_length_c   4.40220979
_cell_angle_alpha   90.00000000
_cell_angle_beta   90.00000000
_cell_angle_gamma   90.00000000
_symmetry_Int_Tables_number   1
_chemical_formula_structural   FeSi
_chemical_formula_sum   'Fe4 Si4'
_cell_volume   85.31240907
_cell_formula_units_Z   4
loop_
 _symmetry_equiv_pos_site_id
 _symmetry_equiv_pos_as_xyz
  1  'x, y, z'
loop_
 _atom_site_type_symbol
 _atom_site_label
 _atom_site_symmetry_multiplicity
 _atom_site_fract_x
 _atom_site_fract_y
 _atom_site_fract_z
 _atom_site_occupancy
  Fe  Fe0  1  0.86308769  0.63691231  0.36308769  1
  Fe  Fe1  1  0.63691231  0.36308769  0.86308769  1
  Fe  Fe2  1  0.36308769  0.86308769  0.63691231  1
  Fe  Fe3  1  0.13691231  0.13691231  0.13691231  1
  Si  Si0  1  0.15869827  0.34130173  0.65869827  1
  Si  Si1  1  0.34130173  0.65869827  0.15869827  1
  Si  Si2  1  0.65869827  0.15869827  0.34130173  1
  Si  Si3  1  0.84130173  0.84130173  0.84130173  1
loop_
_geom_bond_atom_site_label_1
_geom_bond_atom_site_label_2
_geom_bond_distance
_geom_bond_site_symmetry_2
Fe0 Si0 2.253987 1_655
Fe0 Si2 2.291427 1_555
Fe0 Si3 2.291427 1_555
Fe0 Si1 2.291427 1_655
Fe0 Si1 2.468813 1_555
Fe0 Si2 2.468813 1_565
Fe0 Si3 2.468813 1_554
Fe1 Si1 2.253987 1_556
Fe1 Si3 2.291427 1_555
Fe1 Si0 2.291427 1_555
Fe1 Si2 2.291427 1_556
Fe1 Si0 2.468813 1_655
Fe1 Si2 2.468813 1_555
Fe1 Si3 2.468813 1_545
Fe2 Si2 2.253987 1_565
Fe2 Si1 2.291427 1_555
Fe2 Si3 2.291427 1_555
Fe2 Si0 2.291427 1_565
Fe2 Si0 2.468813 1_555
Fe2 Si1 2.468813 1_556
Fe2 Si3 2.468813 1_455
Fe3 Si3 2.253987 1_444
Fe3 Si1 2.291427 1_545
Fe3 Si2 2.291427 1_455
Fe3 Si0 2.291427 1_554
Fe3 Si0 2.468813 1_555
Fe3 Si1 2.468813 1_555
Fe3 Si2 2.468813 1_555
