# generated using pymatgen
data_Li3MnV(PO4)3
_symmetry_space_group_name_H-M   'P 1'
_cell_length_a   10.23395362
_cell_length_b   10.23395362
_cell_length_c   10.20655810
_cell_angle_alpha   71.19905604
_cell_angle_beta   71.19905604
_cell_angle_gamma   109.94483048
_symmetry_Int_Tables_number   1
_chemical_formula_structural   Li3MnV(PO4)3
_chemical_formula_sum   'Li12 Mn4 V4 P12 O48'
_cell_volume   831.49917729
_cell_formula_units_Z   4
loop_
 _symmetry_equiv_pos_site_id
 _symmetry_equiv_pos_as_xyz
  1  'x, y, z'
loop_
 _atom_site_type_symbol
 _atom_site_label
 _atom_site_symmetry_multiplicity
 _atom_site_fract_x
 _atom_site_fract_y
 _atom_site_fract_z
 _atom_site_occupancy
  Li  Li0  1  0.62110400  0.37889600  0.75000000  1
  Li  Li1  1  0.24692900  0.87769400  0.37791400  1
  Li  Li2  1  0.12230600  0.75307100  0.12208600  1
  Li  Li3  1  0.25320200  0.37493600  0.87088100  1
  Li  Li4  1  0.37493600  0.25320200  0.37088100  1
  Li  Li5  1  0.12398800  0.87601200  0.75000000  1
  Li  Li6  1  0.87601200  0.12398800  0.25000000  1
  Li  Li7  1  0.62506400  0.74679800  0.62911900  1
  Li  Li8  1  0.74679800  0.62506400  0.12911900  1
  Li  Li9  1  0.87769400  0.24692900  0.87791400  1
  Li  Li10  1  0.75307100  0.12230600  0.62208600  1
  Li  Li11  1  0.37889600  0.62110400  0.25000000  1
  Mn  Mn0  1  0.00000000  0.00000000  0.00000000  1
  Mn  Mn1  1  0.50000000  0.50000000  0.50000000  1
  Mn  Mn2  1  0.00000000  0.00000000  0.50000000  1
  Mn  Mn3  1  0.50000000  0.50000000  0.00000000  1
  V  V0  1  0.50000000  0.00000000  0.00000000  1
  V  V1  1  0.00000000  0.50000000  0.50000000  1
  V  V2  1  0.50000000  0.00000000  0.50000000  1
  V  V3  1  0.00000000  0.50000000  0.00000000  1
  P  P0  1  0.62558000  0.24805500  0.12856300  1
  P  P1  1  0.75194500  0.37442000  0.37143700  1
  P  P2  1  0.25524300  0.12772200  0.12221000  1
  P  P3  1  0.37390900  0.12175400  0.75292400  1
  P  P4  1  0.87824600  0.62609100  0.74707600  1
  P  P5  1  0.87227800  0.74475700  0.37779000  1
  P  P6  1  0.12772200  0.25524300  0.62221000  1
  P  P7  1  0.62609100  0.87824600  0.24707600  1
  P  P8  1  0.12175400  0.37390900  0.25292400  1
  P  P9  1  0.74475700  0.87227800  0.87779000  1
  P  P10  1  0.24805500  0.62558000  0.62856300  1
  P  P11  1  0.37442000  0.75194500  0.87143700  1
  O  O0  1  0.88769200  0.49329400  0.70074000  1
  O  O1  1  0.49697700  0.10866900  0.29698900  1
  O  O2  1  0.28994800  0.79949500  0.58985700  1
  O  O3  1  0.61333700  0.20059500  0.99732900  1
  O  O4  1  0.79940500  0.38666300  0.50267100  1
  O  O5  1  0.50670600  0.11230800  0.79926000  1
  O  O6  1  0.29958600  0.99554500  0.10915400  1
  O  O7  1  0.39248600  0.29838300  0.98993200  1
  O  O8  1  0.21980600  0.09331600  0.29172400  1
  O  O9  1  0.01016000  0.79573000  0.61300200  1
  O  O10  1  0.61310100  0.40545400  0.38104900  1
  O  O11  1  0.20050500  0.71005200  0.91014300  1
  O  O12  1  0.00445500  0.70041400  0.39084600  1
  O  O13  1  0.38665100  0.09044700  0.61049700  1
  O  O14  1  0.41019800  0.29269800  0.71410500  1
  O  O15  1  0.20427000  0.98984000  0.88699800  1
  O  O16  1  0.59454600  0.38689900  0.11895100  1
  O  O17  1  0.89133100  0.50302300  0.20301100  1
  O  O18  1  0.11341300  0.11556800  0.09192900  1
  O  O19  1  0.70730200  0.58980200  0.78589500  1
  O  O20  1  0.88443200  0.88658700  0.40807100  1
  O  O21  1  0.90668400  0.78019300  0.20827600  1
  O  O22  1  0.29838300  0.39248600  0.48993200  1
  O  O23  1  0.90955300  0.61334900  0.88950300  1
  O  O24  1  0.09044700  0.38665100  0.11049700  1
  O  O25  1  0.70161700  0.60751400  0.51006800  1
  O  O26  1  0.09331600  0.21980700  0.79172400  1
  O  O27  1  0.11556800  0.11341300  0.59192900  1
  O  O28  1  0.29269800  0.41019800  0.21410500  1
  O  O29  1  0.88658700  0.88443200  0.90807100  1
  O  O30  1  0.10866900  0.49697700  0.79698900  1
  O  O31  1  0.40545400  0.61310100  0.88104900  1
  O  O32  1  0.79573000  0.01016000  0.11300200  1
  O  O33  1  0.58980200  0.70730200  0.28589500  1
  O  O34  1  0.61334900  0.90955300  0.38950300  1
  O  O35  1  0.99554500  0.29958600  0.60915400  1
  O  O36  1  0.79949500  0.28994800  0.08985700  1
  O  O37  1  0.38689900  0.59454600  0.61895100  1
  O  O38  1  0.98984000  0.20427000  0.38699800  1
  O  O39  1  0.78019300  0.90668400  0.70827600  1
  O  O40  1  0.60751400  0.70161700  0.01006800  1
  O  O41  1  0.70041400  0.00445500  0.89084600  1
  O  O42  1  0.49329400  0.88769200  0.20074000  1
  O  O43  1  0.20059500  0.61333700  0.49732900  1
  O  O44  1  0.38666300  0.79940500  0.00267100  1
  O  O45  1  0.71005200  0.20050500  0.41014300  1
  O  O46  1  0.50302300  0.89133100  0.70301100  1
  O  O47  1  0.11230800  0.50670600  0.29926000  1
loop_
_geom_bond_atom_site_label_1
_geom_bond_atom_site_label_2
_geom_bond_distance
_geom_bond_site_symmetry_2
Li0 O19 2.233860 1_555
Li0 O14 2.233860 1_555
Li0 O0 2.371523 1_555
Li0 O5 2.371523 1_555
Li0 O7 2.416838 1_555
Li0 O25 2.416838 1_555
Li0 O3 2.551683 1_555
Li0 O4 2.551683 1_555
Li1 O8 2.245960 1_565
Li1 O2 2.291751 1_555
Li1 O43 2.378348 1_555
Li1 O6 2.396039 1_555
Li1 O9 2.429154 1_555
Li1 O12 2.455562 1_555
Li1 O1 2.463847 1_565
Li1 O42 2.530495 1_555
Li2 O21 2.245954 1_455
Li2 O11 2.291751 1_554
Li2 O44 2.378348 1_555
Li2 O12 2.396039 1_555
Li2 O15 2.429154 1_554
Li2 O6 2.455562 1_555
Li2 O17 2.463847 1_455
Li2 O47 2.530495 1_555
Li3 O7 2.320941 1_555
Li3 O37 2.333334 1_555
Li3 O18 2.377250 1_556
Li3 O30 2.385122 1_555
Li3 O26 2.399401 1_555
Li3 O14 2.446155 1_555
Li3 O31 2.460826 1_555
Li3 O24 2.543519 1_556
Li4 O22 2.320941 1_555
Li4 O16 2.333334 1_555
Li4 O27 2.377250 1_555
Li4 O1 2.385122 1_555
Li4 O8 2.399406 1_555
Li4 O28 2.446155 1_555
Li4 O10 2.460826 1_555
Li4 O13 2.543519 1_555
Li5 O15 2.263773 1_555
Li5 O9 2.263773 1_555
Li5 O13 2.358702 1_565
Li5 O23 2.358702 1_455
Li5 O11 2.472340 1_555
Li5 O2 2.472340 1_555
Li5 O29 2.493791 1_455
Li5 O27 2.493791 1_565
Li6 O38 2.263773 1_555
Li6 O32 2.263773 1_555
Li6 O24 2.358702 1_655
Li6 O34 2.358702 1_545
Li6 O45 2.472340 1_555
Li6 O36 2.472340 1_555
Li6 O20 2.493791 1_545
Li6 O18 2.493791 1_655
Li7 O25 2.320941 1_555
Li7 O31 2.333334 1_555
Li7 O20 2.377250 1_555
Li7 O46 2.385122 1_555
Li7 O39 2.399401 1_555
Li7 O19 2.446155 1_555
Li7 O37 2.460826 1_555
Li7 O34 2.543519 1_555
Li8 O40 2.320941 1_555
Li8 O10 2.333334 1_555
Li8 O29 2.377250 1_554
Li8 O17 2.385122 1_555
Li8 O21 2.399401 1_555
Li8 O33 2.446155 1_555
Li8 O16 2.460826 1_555
Li8 O23 2.543519 1_554
Li9 O26 2.245954 1_655
Li9 O36 2.291751 1_556
Li9 O3 2.378348 1_555
Li9 O35 2.396039 1_555
Li9 O32 2.429154 1_556
Li9 O41 2.455562 1_555
Li9 O30 2.463847 1_655
Li9 O0 2.530495 1_555
Li10 O39 2.245954 1_545
Li10 O45 2.291751 1_555
Li10 O4 2.378348 1_555
Li10 O41 2.396039 1_555
Li10 O38 2.429154 1_555
Li10 O35 2.455562 1_555
Li10 O46 2.463847 1_545
Li10 O5 2.530495 1_555
Li11 O33 2.233860 1_555
Li11 O28 2.233860 1_555
Li11 O42 2.371523 1_555
Li11 O47 2.371523 1_555
Li11 O22 2.416838 1_555
Li11 O40 2.416838 1_555
Li11 O43 2.551683 1_555
Li11 O44 2.551683 1_555
Mn0 O18 2.026582 1_555
Mn0 O29 2.026582 1_444
Mn0 O32 2.093488 1_455
Mn0 O15 2.093488 1_544
Mn0 O26 2.152858 1_554
Mn0 O21 2.152858 1_445
Mn1 O25 2.034518 1_555
Mn1 O22 2.034518 1_555
Mn1 O37 2.089354 1_555
Mn1 O10 2.089354 1_555
Mn1 O14 2.123196 1_555
Mn1 O33 2.123196 1_555
Mn2 O27 2.026582 1_555
Mn2 O20 2.026582 1_445
Mn2 O9 2.093488 1_545
Mn2 O38 2.093488 1_455
Mn2 O8 2.152852 1_555
Mn2 O39 2.152858 1_445
Mn3 O40 2.034518 1_555
Mn3 O7 2.034518 1_554
Mn3 O16 2.089354 1_555
Mn3 O31 2.089354 1_554
Mn3 O28 2.123196 1_555
Mn3 O19 2.123196 1_554
O0 P4 1.598261 1_555
O0 V1 1.965010 1_655
O1 P0 1.549971 1_555
O1 V2 2.027465 1_555
O2 P10 1.557153 1_555
O2 V2 2.044407 1_565
O3 P0 1.591137 1_556
O3 V0 1.969639 1_556
O4 P1 1.591137 1_555
O4 V1 1.969639 1_655
O5 P3 1.598261 1_555
O5 V0 1.965010 1_556
O6 P2 1.596708 1_565
O6 V0 1.969925 1_565
O7 P2 1.558905 1_556
O8 P2 1.537763 1_555
O9 P4 1.545343 1_455
O10 P1 1.538710 1_555
O11 P11 1.557153 1_555
O11 V3 2.044407 1_556
O12 P5 1.596708 1_455
O12 V1 1.969925 1_555
O13 P3 1.561857 1_555
O13 V2 2.009102 1_555
O14 P3 1.539661 1_555
O15 P3 1.545343 1_565
O16 P0 1.538710 1_555
O17 P1 1.549971 1_555
O17 V3 2.027465 1_655
O18 P2 1.551951 1_555
O19 P4 1.539661 1_555
O20 P5 1.551951 1_555
O21 P5 1.537765 1_555
O22 P6 1.558905 1_555
O23 P4 1.561857 1_555
O23 V3 2.009102 1_656
O24 P8 1.561857 1_555
O24 V3 2.009102 1_555
O25 P5 1.558905 1_555
O26 P6 1.537765 1_555
O27 P6 1.551951 1_555
O28 P8 1.539661 1_555
O29 P9 1.551951 1_555
O30 P10 1.549971 1_555
O30 V3 2.027465 1_556
O31 P11 1.538710 1_555
O32 P7 1.545343 1_545
O33 P7 1.539661 1_555
O34 P7 1.561857 1_555
O34 V2 2.009102 1_565
O35 P6 1.596708 1_655
O35 V1 1.969925 1_655
O36 P0 1.557153 1_555
O36 V3 2.044407 1_655
O37 P10 1.538710 1_555
O38 P8 1.545343 1_655
O39 P9 1.537765 1_555
O40 P9 1.558905 1_554
O41 P9 1.596708 1_545
O41 V0 1.969925 1_556
O42 P7 1.598261 1_555
O42 V0 1.965010 1_565
O43 P10 1.591137 1_555
O43 V1 1.969639 1_555
O44 P11 1.591137 1_554
O44 V0 1.969639 1_565
O45 P1 1.557153 1_555
O45 V2 2.044407 1_555
O46 P11 1.549971 1_555
O46 V2 2.027465 1_565
O47 P8 1.598261 1_555
O47 V1 1.965010 1_555
