# generated using pymatgen
data_Li2Si4Ni5O14
_symmetry_space_group_name_H-M   'P 1'
_cell_length_a   7.49245800
_cell_length_b   7.92382272
_cell_length_c   5.42059474
_cell_angle_alpha   91.01033180
_cell_angle_beta   105.24878810
_cell_angle_gamma   114.33913658
_symmetry_Int_Tables_number   1
_chemical_formula_structural   Li2Si4Ni5O14
_chemical_formula_sum   'Li2 Si4 Ni5 O14'
_cell_volume   279.96685186
_cell_formula_units_Z   1
loop_
 _symmetry_equiv_pos_site_id
 _symmetry_equiv_pos_as_xyz
  1  'x, y, z'
loop_
 _atom_site_type_symbol
 _atom_site_label
 _atom_site_symmetry_multiplicity
 _atom_site_fract_x
 _atom_site_fract_y
 _atom_site_fract_z
 _atom_site_occupancy
  Li  Li0  1  0.45297400  0.22881000  0.10397400  1
  Li  Li1  1  0.54702600  0.77119000  0.89602600  1
  Si  Si0  1  0.86065600  0.49823400  0.22548500  1
  Si  Si1  1  0.39223400  0.79099900  0.21242900  1
  Si  Si2  1  0.60776600  0.20900100  0.78757100  1
  Si  Si3  1  0.13934400  0.50176600  0.77451500  1
  Ni  Ni0  1  0.00000000  0.00000000  0.00000000  1
  Ni  Ni1  1  0.81013800  0.07753800  0.39862200  1
  Ni  Ni2  1  0.70372000  0.63272000  0.58338200  1
  Ni  Ni3  1  0.29628000  0.36728000  0.41661800  1
  Ni  Ni4  1  0.18986200  0.92246200  0.60137800  1
  O  O0  1  0.57315300  0.88481100  0.18372900  1
  O  O1  1  0.95888800  0.79754300  0.34270100  1
  O  O2  1  0.27623900  0.52710600  0.01702900  1
  O  O3  1  0.73261000  0.40322100  0.32905600  1
  O  O4  1  0.26730600  0.03066800  0.19238700  1
  O  O5  1  0.43449200  0.68933500  0.41166700  1
  O  O6  1  0.01777600  0.30571800  0.22630900  1
  O  O7  1  0.98222400  0.69428200  0.77369100  1
  O  O8  1  0.56550800  0.31066500  0.58833300  1
  O  O9  1  0.73269400  0.96933200  0.80761300  1
  O  O10  1  0.26739000  0.59677900  0.67094400  1
  O  O11  1  0.72376100  0.47289400  0.98297100  1
  O  O12  1  0.04111200  0.20245700  0.65729900  1
  O  O13  1  0.42684700  0.11518900  0.81627100  1
loop_
_geom_bond_atom_site_label_1
_geom_bond_atom_site_label_2
_geom_bond_distance
_geom_bond_site_symmetry_2
Li0 O13 1.710444 1_554
Li0 O4 1.790763 1_555
Li0 O3 1.999353 1_555
Li0 Ni3 2.738079 1_555
Li1 O0 1.710444 1_556
Li1 O9 1.790763 1_555
Li1 O10 1.999353 1_555
Li1 Ni2 2.738079 1_555
Ni0 O9 1.910226 1_444
Ni0 O4 1.910226 1_555
Ni0 O12 2.473471 1_554
Ni0 O1 2.473471 1_445
Ni1 O12 1.789807 1_655
Ni1 O0 1.859026 1_545
Ni1 O6 2.251031 1_655
Ni1 O9 2.514046 1_545
Ni2 O7 1.915014 1_555
Ni2 O5 2.215767 1_555
Ni2 O8 2.328969 1_555
Ni2 O3 2.376422 1_555
Ni2 O1 2.525247 1_555
Ni2 O11 2.529901 1_555
Ni3 O6 1.915014 1_555
Ni3 O8 2.215767 1_555
Ni3 O5 2.328969 1_555
Ni3 O10 2.376422 1_555
Ni3 O12 2.525247 1_555
Ni3 O2 2.529901 1_555
Ni4 O1 1.789807 1_455
Ni4 O13 1.859026 1_565
Ni4 O7 2.251031 1_455
Ni4 O4 2.514046 1_565
O0 Si1 1.303330 1_555
O1 Si0 2.198247 1_555
O2 Si3 1.390006 1_554
O3 Si0 1.226895 1_555
O5 Si1 1.405919 1_555
O6 Si0 2.278288 1_455
O7 Si3 2.278288 1_655
O8 Si2 1.405919 1_555
O10 Si3 1.226895 1_555
O11 Si0 1.390006 1_556
O12 Si3 2.198247 1_555
O13 Si2 1.303330 1_555
