# generated using pymatgen
data_Li2Fe2(SiO3)3
_symmetry_space_group_name_H-M   'P 1'
_cell_length_a   10.13087515
_cell_length_b   10.13087515
_cell_length_c   12.32763500
_cell_angle_alpha   90.00000000
_cell_angle_beta   90.00000000
_cell_angle_gamma   119.99999447
_symmetry_Int_Tables_number   1
_chemical_formula_structural   Li2Fe2(SiO3)3
_chemical_formula_sum   'Li12 Fe12 Si18 O54'
_cell_volume   1095.73201209
_cell_formula_units_Z   6
loop_
 _symmetry_equiv_pos_site_id
 _symmetry_equiv_pos_as_xyz
  1  'x, y, z'
loop_
 _atom_site_type_symbol
 _atom_site_label
 _atom_site_symmetry_multiplicity
 _atom_site_fract_x
 _atom_site_fract_y
 _atom_site_fract_z
 _atom_site_occupancy
  Li  Li0  1  0.13939100  0.96951600  0.18611000  1
  Li  Li1  1  0.29587000  0.82237500  0.01431700  1
  Li  Li2  1  0.17762500  0.47349500  0.68098400  1
  Li  Li3  1  0.03048400  0.16987500  0.85277700  1
  Li  Li4  1  0.52650500  0.70413000  0.34765100  1
  Li  Li5  1  0.17389200  0.04516400  0.68755800  1
  Li  Li6  1  0.34315200  0.32846400  0.76159600  1
  Li  Li7  1  0.83012500  0.86060900  0.51944300  1
  Li  Li8  1  0.87127100  0.82610800  0.02089100  1
  Li  Li9  1  0.67153600  0.01468800  0.42826200  1
  Li  Li10  1  0.98531200  0.65684800  0.09492900  1
  Li  Li11  1  0.95483600  0.12872900  0.35422400  1
  Fe  Fe0  1  0.34156500  0.83664800  0.49620900  1
  Fe  Fe1  1  0.16335200  0.50491700  0.16287600  1
  Fe  Fe2  1  0.49508300  0.65843500  0.82954200  1
  Fe  Fe3  1  0.33725500  0.32554300  0.23903400  1
  Fe  Fe4  1  0.36698000  0.33146600  0.00101800  1
  Fe  Fe5  1  0.49249800  0.15931300  0.83906400  1
  Fe  Fe6  1  0.66681500  0.50750200  0.17239800  1
  Fe  Fe7  1  0.98828700  0.66274500  0.57236800  1
  Fe  Fe8  1  0.96448500  0.63302000  0.33435200  1
  Fe  Fe9  1  0.66853400  0.03551500  0.66768500  1
  Fe  Fe10  1  0.67445700  0.01171300  0.90570100  1
  Fe  Fe11  1  0.84068700  0.33318500  0.50573100  1
  Si  Si0  1  0.13458100  0.95267000  0.91640200  1
  Si  Si1  1  0.28797100  0.81287500  0.75870000  1
  Si  Si2  1  0.17798400  0.51008800  0.90241900  1
  Si  Si3  1  0.33210400  0.82201600  0.23575300  1
  Si  Si4  1  0.04733000  0.18191100  0.58306800  1
  Si  Si5  1  0.18712500  0.47509600  0.42536700  1
  Si  Si6  1  0.17600300  0.01036300  0.43600500  1
  Si  Si7  1  0.48991200  0.66789600  0.56908600  1
  Si  Si8  1  0.52490400  0.71202900  0.09203300  1
  Si  Si9  1  0.61849900  0.49576500  0.44681300  1
  Si  Si10  1  0.47346500  0.19157300  0.57198100  1
  Si  Si11  1  0.81808900  0.86541900  0.24973500  1
  Si  Si12  1  0.83435900  0.82399700  0.76933900  1
  Si  Si13  1  0.71810800  0.52653500  0.90531400  1
  Si  Si14  1  0.50423500  0.12273400  0.11348000  1
  Si  Si15  1  0.87726600  0.38150100  0.78014700  1
  Si  Si16  1  0.80842700  0.28189200  0.23864800  1
  Si  Si17  1  0.98963700  0.16564100  0.10267200  1
  O  O0  1  0.08633000  0.82321000  0.43763300  1
  O  O1  1  0.09583800  0.87817300  0.03575000  1
  O  O2  1  0.18434400  0.85395800  0.83762300  1
  O  O3  1  0.15003700  0.69999800  0.23116000  1
  O  O4  1  0.06005300  0.52570800  0.44149800  1
  O  O5  1  0.02264300  0.37714200  0.84134500  1
  O  O6  1  0.21974600  0.77585400  0.63629500  1
  O  O7  1  0.14568100  0.57424400  0.01248900  1
  O  O8  1  0.35449900  0.97735700  0.17467900  1
  O  O9  1  0.25837500  0.64843100  0.80978500  1
  O  O10  1  0.14604200  0.33038600  0.50429000  1
  O  O11  1  0.42856300  0.85431900  0.34582300  1
  O  O12  1  0.12182700  0.21766500  0.70241700  1
  O  O13  1  0.22414600  0.44389200  0.30296200  1
  O  O14  1  0.46565500  0.93994700  0.77483100  1
  O  O15  1  0.39005600  0.74162500  0.14311900  1
  O  O16  1  0.30000200  0.45004000  0.89782700  1
  O  O17  1  0.17679000  0.26312000  0.10429900  1
  O  O18  1  0.08022800  0.05085200  0.52746600  1
  O  O19  1  0.35156900  0.60994400  0.47645200  1
  O  O20  1  0.20130900  0.10140500  0.32448200  1
  O  O21  1  0.42575600  0.57143700  0.67915600  1
  O  O22  1  0.54996000  0.84996300  0.56449400  1
  O  O23  1  0.55610800  0.78025400  0.96962900  1
  O  O24  1  0.25688100  0.13163800  0.90187500  1
  O  O25  1  0.47429200  0.53434500  0.10816500  1
  O  O26  1  0.66961400  0.81565600  0.17095700  1
  O  O27  1  0.62285800  0.64550100  0.50801200  1
  O  O28  1  0.34076600  0.04966200  0.49602400  1
  O  O29  1  0.73688000  0.91367000  0.77096600  1
  O  O30  1  0.55166400  0.48836200  0.32381500  1
  O  O31  1  0.40260400  0.17869700  0.69234300  1
  O  O32  1  0.78233500  0.90416200  0.36908300  1
  O  O33  1  0.49474500  0.34625900  0.51416600  1
  O  O34  1  0.47798600  0.26818800  0.12670000  1
  O  O35  1  0.55083200  0.37731400  0.89626500  1
  O  O36  1  0.70889600  0.65923400  0.82935800  1
  O  O37  1  0.51163800  0.06330200  0.99048200  1
  O  O38  1  0.77609300  0.59739600  0.02567600  1
  O  O39  1  0.90009600  0.79869100  0.65781600  1
  O  O40  1  0.87475700  0.74311900  0.23520800  1
  O  O41  1  0.62268600  0.17351800  0.56293200  1
  O  O42  1  0.79020200  0.52201400  0.46003300  1
  O  O43  1  0.97062400  0.91977200  0.86079900  1
  O  O44  1  0.65374100  0.14848600  0.18083300  1
  O  O45  1  0.85151400  0.50525500  0.84749900  1
  O  O46  1  0.82648200  0.44916800  0.22959800  1
  O  O47  1  0.73181200  0.20979800  0.79336700  1
  O  O48  1  0.82130300  0.22390700  0.35901000  1
  O  O49  1  0.93669800  0.44833600  0.65714900  1
  O  O50  1  0.86836200  0.12524300  0.56854100  1
  O  O51  1  0.95033800  0.29110400  0.16269100  1
  O  O52  1  0.89859500  0.09990400  0.99114900  1
  O  O53  1  0.94914800  0.02937600  0.19413200  1
loop_
_geom_bond_atom_site_label_1
_geom_bond_atom_site_label_2
_geom_bond_distance
_geom_bond_site_symmetry_2
Li0 O1 2.019526 1_555
Li0 O20 2.061648 1_565
Li0 O8 2.145253 1_555
Li0 O53 2.293672 1_465
Li0 O40 2.581760 1_455
Li1 O7 2.193145 1_555
Li1 O15 2.209408 1_555
Li1 O37 2.342370 1_564
Li1 O1 2.375205 1_555
Li1 O8 2.406970 1_555
Li1 O2 2.546586 1_554
Li2 O21 2.193145 1_555
Li2 O9 2.209399 1_555
Li2 O49 2.342369 1_455
Li2 O12 2.375205 1_555
Li2 O5 2.406960 1_555
Li2 O10 2.546586 1_555
Li3 O12 2.019526 1_555
Li3 O52 2.061648 1_455
Li3 O5 2.145254 1_555
Li3 O43 2.293672 1_445
Li3 O24 2.581760 1_555
Li4 O11 2.193144 1_555
Li4 O19 2.209399 1_555
Li4 O30 2.342371 1_555
Li4 O32 2.375204 1_555
Li4 O27 2.406960 1_555
Li4 O26 2.546586 1_555
Li5 O31 2.016873 1_555
Li5 O12 2.070656 1_555
Li5 O18 2.203028 1_555
Li6 O12 2.074337 1_555
Li6 O31 2.075470 1_555
Li6 O16 2.250986 1_555
Li6 O21 2.394234 1_555
Li6 O24 2.446983 1_555
Li6 O35 2.527154 1_555
Li7 O32 2.019526 1_555
Li7 O39 2.061658 1_555
Li7 O27 2.145253 1_555
Li7 O18 2.293673 1_665
Li7 O50 2.581760 1_565
Li8 O38 2.016873 1_555
Li8 O1 2.070666 1_655
Li8 O43 2.203030 1_554
Li9 O32 2.074337 1_545
Li9 O48 2.075466 1_555
Li9 O22 2.250991 1_545
Li9 O11 2.394229 1_545
Li9 O50 2.446983 1_555
Li9 O41 2.527162 1_555
Li10 O1 2.074337 1_655
Li10 O38 2.075471 1_555
Li10 O3 2.250980 1_655
Li10 O7 2.394234 1_655
Li10 O40 2.446983 1_555
Li10 O46 2.527154 1_555
Li11 O48 2.016864 1_555
Li11 O32 2.070663 1_545
Li11 O53 2.203032 1_555
Fe0 O11 2.021888 1_555
Fe0 O6 2.030911 1_555
Fe0 O28 2.162078 1_565
Fe0 O22 2.213434 1_555
Fe0 O19 2.361618 1_555
Fe0 O0 2.621845 1_555
Fe1 O7 2.021899 1_555
Fe1 O13 2.030911 1_555
Fe1 O51 2.162078 1_455
Fe1 O3 2.213438 1_555
Fe1 O15 2.361618 1_555
Fe1 O17 2.621848 1_555
Fe2 O21 2.021888 1_555
Fe2 O23 2.030921 1_555
Fe2 O36 2.162078 1_555
Fe2 O16 2.213438 1_555
Fe2 O9 2.361618 1_555
Fe2 O29 2.621845 1_555
Fe3 O13 2.178439 1_555
Fe3 O17 2.184814 1_555
Fe3 O30 2.224514 1_555
Fe3 O20 2.243928 1_555
Fe3 O34 2.261960 1_555
Fe3 O25 2.463350 1_555
Fe4 O16 2.082497 1_554
Fe4 O17 2.116340 1_555
Fe4 O35 2.118354 1_554
Fe4 O24 2.139664 1_554
Fe4 O34 2.190231 1_555
Fe4 O25 2.217331 1_555
Fe5 O31 2.078044 1_555
Fe5 O35 2.102131 1_555
Fe5 O37 2.157915 1_555
Fe5 O14 2.243999 1_545
Fe5 O47 2.284061 1_555
Fe5 O24 2.388873 1_555
Fe6 O38 2.078055 1_555
Fe6 O46 2.102126 1_555
Fe6 O30 2.157904 1_555
Fe6 O25 2.243999 1_555
Fe6 O34 2.284064 1_555
Fe6 O40 2.388870 1_555
Fe7 O6 2.178443 1_655
Fe7 O0 2.184814 1_655
Fe7 O49 2.224517 1_555
Fe7 O39 2.243921 1_555
Fe7 O42 2.261962 1_555
Fe7 O4 2.463363 1_655
Fe8 O3 2.082505 1_655
Fe8 O0 2.116341 1_655
Fe8 O46 2.118359 1_555
Fe8 O40 2.139664 1_555
Fe8 O42 2.190216 1_555
Fe8 O4 2.217331 1_655
Fe9 O22 2.082498 1_545
Fe9 O29 2.116347 1_545
Fe9 O41 2.118346 1_555
Fe9 O50 2.139672 1_555
Fe9 O47 2.190224 1_555
Fe9 O14 2.217324 1_545
Fe10 O23 2.178447 1_545
Fe10 O29 2.184820 1_545
Fe10 O37 2.224508 1_555
Fe10 O52 2.243929 1_555
Fe10 O47 2.261952 1_555
Fe10 O14 2.463356 1_545
Fe11 O48 2.078044 1_555
Fe11 O41 2.102131 1_555
Fe11 O49 2.157915 1_555
Fe11 O4 2.244000 1_655
Fe11 O42 2.284064 1_555
Fe11 O50 2.388869 1_555
O0 Si6 1.642604 1_565
O1 Si0 1.609997 1_554
O2 Si1 1.630621 1_555
O2 Si0 1.643639 1_555
O3 Si3 1.628917 1_555
O4 Si5 1.618581 1_555
O5 Si2 1.654671 1_555
O5 Si15 1.674896 1_455
O6 Si1 1.623619 1_555
O7 Si2 1.607305 1_554
O8 Si3 1.654671 1_555
O8 Si14 1.674902 1_565
O9 Si1 1.662050 1_555
O9 Si2 1.670394 1_555
O10 Si5 1.630621 1_555
O10 Si4 1.643632 1_555
O11 Si3 1.607305 1_555
O12 Si4 1.610009 1_555
O13 Si5 1.623619 1_555
O14 Si1 1.618581 1_555
O15 Si8 1.662055 1_555
O15 Si3 1.670393 1_555
O16 Si2 1.628908 1_555
O17 Si17 1.642603 1_455
O18 Si6 1.667021 1_555
O18 Si4 1.669229 1_555
O19 Si5 1.662051 1_555
O19 Si7 1.670394 1_555
O20 Si6 1.603148 1_555
O21 Si7 1.607305 1_555
O22 Si7 1.628918 1_555
O23 Si8 1.623607 1_556
O24 Si0 1.614962 1_545
O25 Si8 1.618582 1_555
O26 Si8 1.630628 1_555
O26 Si11 1.643632 1_555
O27 Si7 1.654671 1_555
O27 Si9 1.674902 1_555
O28 Si10 1.678767 1_555
O28 Si6 1.681546 1_555
O29 Si12 1.642594 1_555
O30 Si9 1.646934 1_555
O31 Si10 1.624909 1_555
O32 Si11 1.609997 1_555
O33 Si9 1.629850 1_555
O33 Si10 1.634755 1_555
O34 Si14 1.631124 1_555
O35 Si13 1.614860 1_555
O36 Si13 1.678760 1_555
O36 Si12 1.681543 1_555
O37 Si14 1.646934 1_556
O38 Si13 1.624909 1_554
O39 Si12 1.603153 1_555
O40 Si11 1.614962 1_555
O41 Si10 1.614860 1_555
O42 Si9 1.631124 1_555
O43 Si12 1.667018 1_555
O43 Si0 1.669234 1_655
O44 Si14 1.629850 1_555
O44 Si16 1.634755 1_555
O45 Si15 1.629843 1_555
O45 Si13 1.634754 1_555
O46 Si16 1.614861 1_555
O47 Si15 1.631124 1_555
O48 Si16 1.624909 1_555
O49 Si15 1.646934 1_555
O50 Si4 1.614962 1_655
O51 Si16 1.678767 1_555
O51 Si17 1.681537 1_555
O52 Si17 1.603149 1_556
O53 Si17 1.667020 1_555
O53 Si11 1.669234 1_545
