# generated using pymatgen
data_Ca7Sn3S13
_symmetry_space_group_name_H-M   'P 1'
_cell_length_a   8.71139100
_cell_length_b   11.59727000
_cell_length_c   22.16290200
_cell_angle_alpha   90.00000000
_cell_angle_beta   90.00000000
_cell_angle_gamma   90.00000000
_symmetry_Int_Tables_number   1
_chemical_formula_structural   Ca7Sn3S13
_chemical_formula_sum   'Ca28 Sn12 S52'
_cell_volume   2239.08149790
_cell_formula_units_Z   4
loop_
 _symmetry_equiv_pos_site_id
 _symmetry_equiv_pos_as_xyz
  1  'x, y, z'
loop_
 _atom_site_type_symbol
 _atom_site_label
 _atom_site_symmetry_multiplicity
 _atom_site_fract_x
 _atom_site_fract_y
 _atom_site_fract_z
 _atom_site_occupancy
  Ca  Ca0  1  0.88397500  0.31411600  0.46325100  1
  Ca  Ca1  1  0.61602500  0.81411600  0.03674900  1
  Ca  Ca2  1  0.11602500  0.68588400  0.96325100  1
  Ca  Ca3  1  0.38397500  0.18588400  0.53674900  1
  Ca  Ca4  1  0.11602500  0.68588400  0.53674900  1
  Ca  Ca5  1  0.38397500  0.18588400  0.96325100  1
  Ca  Ca6  1  0.88397500  0.31411600  0.03674900  1
  Ca  Ca7  1  0.61602500  0.81411600  0.46325100  1
  Ca  Ca8  1  0.37776100  0.15666200  0.34279400  1
  Ca  Ca9  1  0.12223900  0.65666200  0.15720600  1
  Ca  Ca10  1  0.62223900  0.84333800  0.84279400  1
  Ca  Ca11  1  0.87776100  0.34333800  0.65720600  1
  Ca  Ca12  1  0.62223900  0.84333800  0.65720600  1
  Ca  Ca13  1  0.87776100  0.34333800  0.84279400  1
  Ca  Ca14  1  0.37776100  0.15666200  0.15720600  1
  Ca  Ca15  1  0.12223900  0.65666200  0.34279400  1
  Ca  Ca16  1  0.09275500  0.34875100  0.25000000  1
  Ca  Ca17  1  0.40724500  0.84875100  0.25000000  1
  Ca  Ca18  1  0.90724500  0.65124900  0.75000000  1
  Ca  Ca19  1  0.59275500  0.15124900  0.75000000  1
  Ca  Ca20  1  0.58589100  0.53024100  0.34179000  1
  Ca  Ca21  1  0.91410900  0.03024100  0.15821000  1
  Ca  Ca22  1  0.41410900  0.46975900  0.84179000  1
  Ca  Ca23  1  0.08589100  0.96975900  0.65821000  1
  Ca  Ca24  1  0.41410900  0.46975900  0.65821000  1
  Ca  Ca25  1  0.08589100  0.96975900  0.84179000  1
  Ca  Ca26  1  0.58589100  0.53024100  0.15821000  1
  Ca  Ca27  1  0.91410900  0.03024100  0.34179000  1
  Sn  Sn0  1  0.68566500  0.24115200  0.25000000  1
  Sn  Sn1  1  0.81433500  0.74115200  0.25000000  1
  Sn  Sn2  1  0.31433500  0.75884800  0.75000000  1
  Sn  Sn3  1  0.18566500  0.25884800  0.75000000  1
  Sn  Sn4  1  0.30415200  0.45095300  0.44730800  1
  Sn  Sn5  1  0.19584800  0.95095300  0.05269200  1
  Sn  Sn6  1  0.69584800  0.54904700  0.94730800  1
  Sn  Sn7  1  0.80415200  0.04904700  0.55269200  1
  Sn  Sn8  1  0.69584800  0.54904700  0.55269200  1
  Sn  Sn9  1  0.80415200  0.04904700  0.94730800  1
  Sn  Sn10  1  0.30415200  0.45095300  0.05269200  1
  Sn  Sn11  1  0.19584800  0.95095300  0.44730800  1
  S  S0  1  0.85673800  0.53464300  0.25000000  1
  S  S1  1  0.64326200  0.03464300  0.25000000  1
  S  S2  1  0.14326200  0.46535700  0.75000000  1
  S  S3  1  0.35673800  0.96535700  0.75000000  1
  S  S4  1  0.63656300  0.34817400  0.57355500  1
  S  S5  1  0.86343700  0.84817400  0.92644500  1
  S  S6  1  0.36343700  0.65182600  0.07355500  1
  S  S7  1  0.13656300  0.15182600  0.42644500  1
  S  S8  1  0.36343700  0.65182600  0.42644500  1
  S  S9  1  0.13656300  0.15182600  0.07355500  1
  S  S10  1  0.63656300  0.34817400  0.92644500  1
  S  S11  1  0.86343700  0.84817400  0.57355500  1
  S  S12  1  0.51550100  0.32840600  0.42098100  1
  S  S13  1  0.98449900  0.82840600  0.07901900  1
  S  S14  1  0.48449900  0.67159400  0.92098100  1
  S  S15  1  0.01550100  0.17159400  0.57901900  1
  S  S16  1  0.48449900  0.67159400  0.57901900  1
  S  S17  1  0.01550100  0.17159400  0.92098100  1
  S  S18  1  0.51550100  0.32840600  0.07901900  1
  S  S19  1  0.98449900  0.82840600  0.42098100  1
  S  S20  1  0.45888800  0.35679400  0.25000000  1
  S  S21  1  0.04111200  0.85679400  0.25000000  1
  S  S22  1  0.54111200  0.64320600  0.75000000  1
  S  S23  1  0.95888800  0.14320600  0.75000000  1
  S  S24  1  0.84674100  0.27128900  0.33444300  1
  S  S25  1  0.65325900  0.77128900  0.16555700  1
  S  S26  1  0.15325900  0.72871100  0.83444300  1
  S  S27  1  0.34674100  0.22871100  0.66555700  1
  S  S28  1  0.15325900  0.72871100  0.66555700  1
  S  S29  1  0.34674100  0.22871100  0.83444300  1
  S  S30  1  0.84674100  0.27128900  0.16555700  1
  S  S31  1  0.65325900  0.77128900  0.33444300  1
  S  S32  1  0.10273100  0.42217800  0.37551200  1
  S  S33  1  0.39726900  0.92217800  0.12448800  1
  S  S34  1  0.89726900  0.57782200  0.87551200  1
  S  S35  1  0.60273100  0.07782200  0.62448800  1
  S  S36  1  0.89726900  0.57782200  0.62448800  1
  S  S37  1  0.60273100  0.07782200  0.87551200  1
  S  S38  1  0.10273100  0.42217800  0.12448800  1
  S  S39  1  0.39726900  0.92217800  0.37551200  1
  S  S40  1  0.19069800  0.42794000  0.54480300  1
  S  S41  1  0.30930200  0.92794000  0.95519700  1
  S  S42  1  0.80930200  0.57206000  0.04480300  1
  S  S43  1  0.69069800  0.07206000  0.45519700  1
  S  S44  1  0.80930200  0.57206000  0.45519700  1
  S  S45  1  0.69069800  0.07206000  0.04480300  1
  S  S46  1  0.19069800  0.42794000  0.95519700  1
  S  S47  1  0.30930200  0.92794000  0.54480300  1
  S  S48  1  0.32671000  0.61618600  0.25000000  1
  S  S49  1  0.17329000  0.11618600  0.25000000  1
  S  S50  1  0.67329000  0.38381400  0.75000000  1
  S  S51  1  0.82671000  0.88381400  0.75000000  1
loop_
_geom_bond_atom_site_label_1
_geom_bond_atom_site_label_2
_geom_bond_distance
_geom_bond_site_symmetry_2
Ca0 S24 2.915741 1_555
Ca0 S32 2.997236 1_655
Ca0 S7 3.008242 1_655
Ca0 S44 3.066557 1_555
Ca0 S15 3.260040 1_655
Ca0 S43 3.278270 1_555
Ca0 S4 3.282939 1_555
Ca0 S12 3.347940 1_555
Ca0 S40 3.485516 1_655
Ca1 S25 2.915741 1_555
Ca1 S33 2.997236 1_555
Ca1 S6 3.008242 1_555
Ca1 S45 3.066557 1_565
Ca1 S14 3.260040 1_554
Ca1 S42 3.278270 1_555
Ca1 S5 3.282939 1_554
Ca1 S13 3.347940 1_555
Ca1 S41 3.485516 1_554
Ca2 S26 2.915741 1_555
Ca2 S34 2.997236 1_455
Ca2 S5 3.008242 1_455
Ca2 S46 3.066557 1_555
Ca2 S13 3.260040 1_456
Ca2 S41 3.278270 1_555
Ca2 S6 3.282939 1_556
Ca2 S14 3.347940 1_555
Ca2 S42 3.485516 1_456
Ca3 S27 2.915741 1_555
Ca3 S35 2.997236 1_555
Ca3 S4 3.008242 1_555
Ca3 S47 3.066557 1_545
Ca3 S12 3.260040 1_555
Ca3 S40 3.278270 1_555
Ca3 S7 3.282939 1_555
Ca3 S15 3.347940 1_555
Ca3 S43 3.485516 1_555
Ca4 S28 2.915741 1_555
Ca4 S36 2.997236 1_455
Ca4 S11 3.008242 1_455
Ca4 S40 3.066557 1_555
Ca4 S19 3.260040 1_455
Ca4 S47 3.278270 1_555
Ca4 S8 3.282939 1_555
Ca4 S16 3.347940 1_555
Ca4 S44 3.485516 1_455
Ca5 S29 2.915741 1_555
Ca5 S37 2.997236 1_555
Ca5 S10 3.008242 1_555
Ca5 S41 3.066557 1_545
Ca5 S18 3.260040 1_556
Ca5 S46 3.278270 1_555
Ca5 S9 3.282939 1_556
Ca5 S17 3.347940 1_555
Ca5 S45 3.485516 1_556
Ca6 S30 2.915741 1_555
Ca6 S38 2.997236 1_655
Ca6 S9 3.008242 1_655
Ca6 S42 3.066557 1_555
Ca6 S17 3.260040 1_654
Ca6 S45 3.278270 1_555
Ca6 S10 3.282939 1_554
Ca6 S18 3.347940 1_555
Ca6 S46 3.485516 1_654
Ca7 S31 2.915741 1_555
Ca7 S39 2.997236 1_555
Ca7 S8 3.008242 1_555
Ca7 S43 3.066557 1_565
Ca7 S16 3.260040 1_555
Ca7 S44 3.278270 1_555
Ca7 S11 3.282939 1_555
Ca7 S19 3.347940 1_555
Ca7 S47 3.485516 1_555
Ca8 S49 2.760916 1_555
Ca8 S7 2.802711 1_555
Ca8 S39 2.819518 1_545
Ca8 S12 2.899942 1_555
Ca8 S20 3.180562 1_555
Ca8 S1 3.403151 1_555
Ca8 Sn0 3.519124 1_555
Ca9 S48 2.760916 1_555
Ca9 S6 2.802711 1_555
Ca9 S38 2.819518 1_555
Ca9 S13 2.899942 1_455
Ca9 S21 3.180562 1_555
Ca9 S0 3.403151 1_455
Ca9 Sn1 3.519124 1_455
Ca10 S51 2.760916 1_555
Ca10 S5 2.802711 1_555
Ca10 S37 2.819518 1_565
Ca10 S14 2.899942 1_555
Ca10 S22 3.180562 1_555
Ca10 S3 3.403151 1_555
Ca10 Sn2 3.519124 1_555
Ca11 S50 2.760916 1_555
Ca11 S4 2.802711 1_555
Ca11 S36 2.819518 1_555
Ca11 S15 2.899942 1_655
Ca11 S23 3.180562 1_555
Ca11 S2 3.403151 1_655
Ca11 Sn3 3.519124 1_655
Ca12 S51 2.760916 1_555
Ca12 S11 2.802711 1_555
Ca12 S35 2.819518 1_565
Ca12 S16 2.899942 1_555
Ca12 S22 3.180562 1_555
Ca12 S3 3.403151 1_555
Ca12 Sn2 3.519124 1_555
Ca13 S50 2.760916 1_555
Ca13 S10 2.802711 1_555
Ca13 S34 2.819518 1_555
Ca13 S17 2.899942 1_655
Ca13 S23 3.180562 1_555
Ca13 S2 3.403151 1_655
Ca13 Sn3 3.519124 1_655
Ca14 S49 2.760916 1_555
Ca14 S9 2.802711 1_555
Ca14 S33 2.819518 1_545
Ca14 S18 2.899942 1_555
Ca14 S20 3.180562 1_555
Ca14 S1 3.403151 1_555
Ca14 Sn0 3.519124 1_555
Ca15 S48 2.760916 1_555
Ca15 S8 2.802711 1_555
Ca15 S32 2.819518 1_555
Ca15 S19 2.899942 1_455
Ca15 S21 3.180562 1_555
Ca15 S0 3.403151 1_455
Ca15 Sn1 3.519124 1_455
Ca16 S49 2.786872 1_555
Ca16 S38 2.910431 1_555
Ca16 S32 2.910431 1_555
Ca16 S0 2.979082 1_455
Ca16 S30 2.983711 1_455
Ca16 S24 2.983711 1_455
Ca16 S20 3.190891 1_555
Ca17 S48 2.786872 1_555
Ca17 S39 2.910431 1_555
Ca17 S33 2.910431 1_555
Ca17 S1 2.979082 1_565
Ca17 S25 2.983711 1_555
Ca17 S31 2.983711 1_555
Ca17 S21 3.190891 1_555
Ca18 S51 2.786872 1_555
Ca18 S36 2.910431 1_555
Ca18 S34 2.910431 1_555
Ca18 S2 2.979082 1_655
Ca18 S26 2.983711 1_655
Ca18 S28 2.983711 1_655
Ca18 S22 3.190891 1_555
Ca19 S50 2.786872 1_555
Ca19 S37 2.910431 1_555
Ca19 S35 2.910431 1_555
Ca19 S3 2.979082 1_545
Ca19 S29 2.983711 1_555
Ca19 S27 2.983711 1_555
Ca19 S23 3.190891 1_555
Ca20 S31 2.861074 1_555
Ca20 S12 2.989219 1_555
Ca20 S8 3.043645 1_555
Ca20 S20 3.067369 1_555
Ca20 S0 3.115789 1_555
Ca20 S48 3.198399 1_555
Ca20 S44 3.215635 1_555
Ca21 S30 2.861074 1_555
Ca21 S13 2.989219 1_545
Ca21 S9 3.043645 1_655
Ca21 S21 3.067369 1_645
Ca21 S1 3.115789 1_555
Ca21 S49 3.198399 1_655
Ca21 S45 3.215635 1_555
Ca22 S29 2.861074 1_555
Ca22 S14 2.989219 1_555
Ca22 S10 3.043645 1_555
Ca22 S22 3.067369 1_555
Ca22 S2 3.115789 1_555
Ca22 S50 3.198399 1_555
Ca22 S46 3.215635 1_555
Ca23 S28 2.861074 1_555
Ca23 S15 2.989219 1_565
Ca23 S11 3.043645 1_455
Ca23 S23 3.067369 1_465
Ca23 S3 3.115789 1_555
Ca23 S51 3.198399 1_455
Ca23 S47 3.215635 1_555
Ca24 S27 2.861074 1_555
Ca24 S16 2.989219 1_555
Ca24 S4 3.043645 1_555
Ca24 S22 3.067369 1_555
Ca24 S2 3.115789 1_555
Ca24 S50 3.198399 1_555
Ca24 S40 3.215635 1_555
Ca25 S26 2.861074 1_555
Ca25 S17 2.989219 1_565
Ca25 S5 3.043645 1_455
Ca25 S23 3.067369 1_465
Ca25 S3 3.115789 1_555
Ca25 S51 3.198399 1_455
Ca25 S41 3.215635 1_555
Ca26 S25 2.861074 1_555
Ca26 S18 2.989219 1_555
Ca26 S6 3.043645 1_555
Ca26 S20 3.067369 1_555
Ca26 S0 3.115789 1_555
Ca26 S48 3.198399 1_555
Ca26 S42 3.215635 1_555
Ca27 S24 2.861074 1_555
Ca27 S19 2.989219 1_545
Ca27 S7 3.043645 1_655
Ca27 S21 3.067369 1_645
Ca27 S1 3.115789 1_555
Ca27 S49 3.198399 1_655
Ca27 S43 3.215635 1_555
S0 Sn1 2.423260 1_555
S1 Sn0 2.423260 1_555
S2 Sn3 2.423260 1_555
S3 Sn2 2.423260 1_555
S4 Sn8 2.430527 1_555
S5 Sn9 2.430527 1_565
S6 Sn10 2.430527 1_555
S7 Sn11 2.430527 1_545
S8 Sn4 2.430527 1_555
S9 Sn5 2.430527 1_545
S10 Sn6 2.430527 1_555
S11 Sn7 2.430527 1_565
S12 Sn4 2.397937 1_555
S13 Sn5 2.397937 1_655
S14 Sn6 2.397937 1_555
S15 Sn7 2.397937 1_455
S16 Sn8 2.397937 1_555
S17 Sn9 2.397937 1_455
S18 Sn10 2.397937 1_555
S19 Sn11 2.397937 1_655
S20 Sn0 2.387761 1_555
S21 Sn1 2.387761 1_455
S22 Sn2 2.387761 1_555
S23 Sn3 2.387761 1_655
S24 Sn0 2.365086 1_555
S25 Sn1 2.365086 1_555
S26 Sn2 2.365086 1_555
S27 Sn3 2.365086 1_555
S28 Sn2 2.365086 1_555
S29 Sn3 2.365086 1_555
S30 Sn0 2.365086 1_555
S31 Sn1 2.365086 1_555
S32 Sn4 2.392097 1_555
S33 Sn5 2.392097 1_555
S34 Sn6 2.392097 1_555
S35 Sn7 2.392097 1_555
S36 Sn8 2.392097 1_555
S37 Sn9 2.392097 1_555
S38 Sn10 2.392097 1_555
S39 Sn11 2.392097 1_555
S40 Sn4 2.391022 1_555
S41 Sn5 2.391022 1_556
S42 Sn6 2.391022 1_554
S43 Sn7 2.391022 1_555
S44 Sn8 2.391022 1_555
S45 Sn9 2.391022 1_554
S46 Sn10 2.391022 1_556
S47 Sn11 2.391022 1_555
