# generated using pymatgen
data_LiAlB14
_symmetry_space_group_name_H-M   'P 1'
_cell_length_a   7.18287629
_cell_length_b   7.18287044
_cell_length_c   7.18290350
_cell_angle_alpha   132.02188881
_cell_angle_beta   111.18722518
_cell_angle_gamma   88.23356125
_symmetry_Int_Tables_number   1
_chemical_formula_structural   LiAlB14
_chemical_formula_sum   'Li2 Al2 B28'
_cell_volume   244.48639068
_cell_formula_units_Z   2
loop_
 _symmetry_equiv_pos_site_id
 _symmetry_equiv_pos_as_xyz
  1  'x, y, z'
loop_
 _atom_site_type_symbol
 _atom_site_label
 _atom_site_symmetry_multiplicity
 _atom_site_fract_x
 _atom_site_fract_y
 _atom_site_fract_z
 _atom_site_occupancy
  Li  Li0  1  0.89979350  0.24998854  0.64979210  1
  Li  Li1  1  0.10020643  0.75001129  0.35020763  1
  Al  Al0  1  0.50000001  0.49999997  0.50000007  1
  Al  Al1  1  0.50000003  0.00000005  0.00000009  1
  B  B0  1  0.72674759  0.72117918  0.32317902  1
  B  B1  1  0.73037529  0.35004622  0.38032606  1
  B  B2  1  0.87650024  0.67124106  0.70753994  1
  B  B3  1  0.12350109  0.83103912  0.79474277  1
  B  B4  1  0.53629895  0.82875955  0.20525917  1
  B  B5  1  0.46370386  0.66896109  0.29246138  1
  B  B6  1  0.12349979  0.32875891  0.29246006  1
  B  B7  1  0.87649886  0.16896088  0.20525716  1
  B  B8  1  0.46370112  0.17124053  0.79474104  1
  B  B9  1  0.53629614  0.33103900  0.70753883  1
  B  B10  1  0.10199865  0.77882016  0.00556779  1
  B  B11  1  0.89800046  0.90356511  0.67681998  1
  B  B12  1  0.89800141  0.22117977  0.99443222  1
  B  B13  1  0.27325402  0.59643428  0.99443615  1
  B  B14  1  0.10199953  0.09643491  0.32318007  1
  B  B15  1  0.53028058  0.14995358  0.38032886  1
  B  B16  1  0.27325244  0.27882077  0.67682103  1
  B  B17  1  0.72674597  0.40356583  0.00556399  1
  B  B18  1  0.74461363  0.91445206  0.83016089  1
  B  B19  1  0.25538642  0.08554804  0.16983923  1
  B  B20  1  0.41570820  0.58554766  0.83016157  1
  B  B21  1  0.58429182  0.41445236  0.16983869  1
  B  B22  1  0.86539167  0.83344609  0.03194560  1
  B  B23  1  0.13460827  0.16655389  0.96805437  1
  B  B24  1  0.69850016  0.66655557  0.03194768  1
  B  B25  1  0.30149981  0.33344441  0.96805235  1
  B  B26  1  0.46971941  0.85004643  0.61967122  1
  B  B27  1  0.26962467  0.64995372  0.61967397  1
loop_
_geom_bond_atom_site_label_1
_geom_bond_atom_site_label_2
_geom_bond_distance
_geom_bond_site_symmetry_2
Al0 B15 2.077479 1_555
Al0 B26 2.077480 1_555
Al0 B1 2.077497 1_555
Al0 B27 2.077497 1_555
Al0 B19 2.330678 1_555
Al0 B18 2.330678 1_555
Al0 B21 2.330708 1_555
Al0 B20 2.330709 1_555
Al0 B6 2.425866 1_555
Al0 B2 2.425866 1_555
Al0 B9 2.425880 1_555
Al0 B5 2.425880 1_555
Al1 B1 2.077468 1_555
Al1 B27 2.077469 1_544
Al1 B15 2.077497 1_555
Al1 B26 2.077498 1_544
Al1 B21 2.330687 1_555
Al1 B20 2.330688 1_544
Al1 B19 2.330702 1_555
Al1 B18 2.330702 1_544
Al1 B7 2.425860 1_555
Al1 B3 2.425860 1_544
Al1 B8 2.425876 1_554
Al1 B4 2.425876 1_545
B0 B11 1.751364 1_555
B0 B4 1.777487 1_555
B0 B24 1.780548 1_555
B0 B21 1.785955 1_555
B0 B5 1.841410 1_555
B0 B17 1.855046 1_555
B0 Li1 2.623053 1_655
B0 Li0 2.780156 1_565
B1 B7 1.747804 1_555
B1 B2 1.747808 1_555
B1 B21 1.833218 1_555
B1 B15 2.063679 1_555
B1 Li0 2.418615 1_555
B2 B3 1.793661 1_655
B2 B22 1.813129 1_556
B2 Li0 2.773829 1_555
B3 Li1 2.773817 1_555
B4 B5 1.793667 1_555
B4 Li0 2.773708 1_565
B5 Li1 2.773785 1_555
B6 B7 1.793661 1_455
B6 Li1 2.773829 1_555
B7 Li0 2.773817 1_555
B8 B9 1.793667 1_555
B8 Li1 2.773709 1_545
B9 Li0 2.773786 1_555
B10 B13 1.751371 1_554
B10 B2 1.777475 1_454
B10 B22 1.780543 1_455
B10 B19 1.785964 1_565
B10 B3 1.841424 1_554
B10 B14 1.855044 1_565
B10 Li1 2.623011 1_555
B10 Li0 2.780276 1_454
B11 B3 1.777484 1_655
B11 B23 1.780543 1_665
B11 B18 1.785968 1_555
B11 B2 1.841409 1_555
B11 B12 1.855044 1_565
B11 Li0 2.622996 1_565
B11 Li1 2.780251 1_655
B12 B17 1.751372 1_556
B12 B6 1.777475 1_656
B12 B23 1.780542 1_655
B12 B18 1.785963 1_545
B12 B7 1.841423 1_556
B12 Li0 2.623012 1_555
B12 Li1 2.780276 1_656
B13 B5 1.777476 1_556
B13 B25 1.780549 1_555
B13 B20 1.785976 1_555
B13 B4 1.841409 1_556
B13 B16 1.855047 1_555
B13 Li0 2.623078 1_455
B13 Li1 2.780221 1_556
B14 B16 1.751365 1_555
B14 B7 1.777484 1_455
B14 B22 1.780544 1_445
B14 B19 1.785968 1_555
B14 B6 1.841409 1_555
B14 Li1 2.622996 1_545
B14 Li0 2.780250 1_455
B15 B4 1.747807 1_545
B15 B9 1.747814 1_555
B15 B19 1.833216 1_555
B15 Li0 2.418555 1_555
B16 B8 1.777487 1_555
B16 B25 1.780547 1_555
B16 B20 1.785955 1_555
B16 B9 1.841410 1_555
B16 Li0 2.623053 1_455
B16 Li1 2.780156 1_545
B17 B9 1.777476 1_554
B17 B24 1.780549 1_555
B17 B21 1.785977 1_555
B17 B8 1.841408 1_554
B17 Li1 2.623077 1_655
B17 Li0 2.780223 1_554
B18 B7 1.779346 1_566
B18 B2 1.779355 1_555
B18 B26 1.833216 1_555
B18 B22 1.838752 1_556
B19 B3 1.779346 1_544
B19 B6 1.779355 1_555
B19 B23 1.838752 1_554
B20 B9 1.779350 1_555
B20 B4 1.779352 1_556
B20 B27 1.833219 1_555
B20 B24 1.838751 1_556
B21 B5 1.779351 1_555
B21 B8 1.779353 1_554
B21 B25 1.838752 1_554
B22 B24 1.721240 1_555
B22 B7 1.813125 1_565
B22 Li1 2.723012 1_655
B23 B25 1.721240 1_555
B23 B3 1.813125 1_545
B23 B6 1.813128 1_556
B23 Li0 2.723012 1_455
B24 B4 1.813122 1_555
B24 B9 1.813129 1_554
B24 Li1 2.723031 1_655
B25 B8 1.813122 1_555
B25 B5 1.813130 1_556
B25 Li0 2.723032 1_455
B26 B8 1.747807 1_565
B26 B5 1.747813 1_555
B26 B27 2.063679 1_555
B26 Li1 2.418556 1_555
B27 B3 1.747804 1_555
B27 B6 1.747808 1_555
B27 Li1 2.418616 1_555
