# generated using pymatgen
data_Li6VFe5O12
_symmetry_space_group_name_H-M   'P 1'
_cell_length_a   5.08701037
_cell_length_b   5.07972958
_cell_length_c   10.09719521
_cell_angle_alpha   93.83074004
_cell_angle_beta   85.84380145
_cell_angle_gamma   59.97888594
_symmetry_Int_Tables_number   1
_chemical_formula_structural   Li6VFe5O12
_chemical_formula_sum   'Li6 V1 Fe5 O12'
_cell_volume   223.70872599
_cell_formula_units_Z   1
loop_
 _symmetry_equiv_pos_site_id
 _symmetry_equiv_pos_as_xyz
  1  'x, y, z'
loop_
 _atom_site_type_symbol
 _atom_site_label
 _atom_site_symmetry_multiplicity
 _atom_site_fract_x
 _atom_site_fract_y
 _atom_site_fract_z
 _atom_site_occupancy
  Li  Li0  1  0.28983700  0.04545400  0.24194300  1
  Li  Li1  1  0.94768600  0.71720900  0.24770900  1
  Li  Li2  1  0.39212700  0.60887000  0.75042700  1
  Li  Li3  1  0.60472200  0.39250100  0.25114700  1
  Li  Li4  1  0.71744100  0.94518500  0.75164300  1
  Li  Li5  1  0.04947500  0.28820700  0.75714800  1
  V  V0  1  0.99965200  0.00079700  0.00009100  1
  Fe  Fe0  1  0.49945600  0.49865000  0.50036800  1
  Fe  Fe1  1  0.66568800  0.66399600  0.99992500  1
  Fe  Fe2  1  0.33580000  0.33586000  0.99993400  1
  Fe  Fe3  1  0.83266200  0.83265700  0.49998300  1
  Fe  Fe4  1  0.16699300  0.17129200  0.49974600  1
  O  O0  1  0.13460600  0.85501600  0.60671300  1
  O  O1  1  0.30687800  0.69395700  0.11588400  1
  O  O2  1  0.54173300  0.79064600  0.39048200  1
  O  O3  1  0.20212600  0.47103300  0.38875300  1
  O  O4  1  0.97214300  0.35959900  0.11388600  1
  O  O5  1  0.63947800  0.02808600  0.11333200  1
  O  O6  1  0.35941200  0.97295700  0.88657200  1
  O  O7  1  0.02848900  0.64021900  0.88676000  1
  O  O8  1  0.79440800  0.54244400  0.61051600  1
  O  O9  1  0.47079600  0.20410800  0.61056500  1
  O  O10  1  0.69429400  0.30709400  0.88357300  1
  O  O11  1  0.85410100  0.13416100  0.39289800  1
loop_
_geom_bond_atom_site_label_1
_geom_bond_atom_site_label_2
_geom_bond_distance
_geom_bond_site_symmetry_2
Li0 O1 2.083541 1_545
Li0 O5 2.085799 1_555
Li0 O2 2.108352 1_545
Li0 O4 2.197319 1_455
Li0 O3 2.362357 1_555
Li0 O11 2.420461 1_455
Li1 O3 2.037848 1_655
Li1 O1 2.129526 1_655
Li1 O4 2.136053 1_555
Li1 O5 2.215877 1_565
Li1 O2 2.282047 1_555
Li1 O11 2.310137 1_565
Li2 O0 2.064993 1_555
Li2 O7 2.156164 1_555
Li2 O6 2.158032 1_555
Li2 O10 2.176504 1_555
Li2 O9 2.255820 1_555
Li2 O8 2.263557 1_555
Li3 O11 2.056299 1_555
Li3 O5 2.164945 1_555
Li3 O4 2.173295 1_555
Li3 O1 2.182587 1_555
Li3 O3 2.231583 1_555
Li3 O2 2.253529 1_555
Li4 O9 2.047302 1_565
Li4 O6 2.133240 1_555
Li4 O10 2.145124 1_565
Li4 O7 2.215263 1_655
Li4 O8 2.257726 1_555
Li4 O0 2.311356 1_655
Li5 O10 2.092646 1_455
Li5 O7 2.097040 1_555
Li5 O8 2.097788 1_455
Li5 O6 2.193146 1_545
Li5 O9 2.346534 1_555
Li5 O0 2.416911 1_545
Fe0 O9 1.978665 1_555
Fe0 O0 1.991020 1_555
Fe0 O11 1.991406 1_555
Fe0 O2 1.995471 1_555
Fe0 O3 2.003948 1_555
Fe0 O8 2.020036 1_555
Fe1 O1 2.028331 1_556
Fe1 O10 2.028516 1_555
Fe1 O7 2.044309 1_655
Fe1 O5 2.048835 1_566
Fe1 O4 2.056935 1_556
Fe1 O6 2.062108 1_555
Fe2 O1 2.030741 1_556
Fe2 O10 2.031591 1_555
Fe2 O6 2.049265 1_545
Fe2 O4 2.051914 1_456
Fe2 O7 2.053430 1_555
Fe2 O5 2.054408 1_556
Fe3 O11 1.974337 1_565
Fe3 O0 1.982852 1_655
Fe3 O8 1.982975 1_555
Fe3 O2 1.994989 1_555
Fe3 O3 2.032691 1_655
Fe3 O9 2.034838 1_565
Fe4 O3 2.019292 1_555
Fe4 O9 2.037597 1_555
Fe4 O8 2.057458 1_455
Fe4 O0 2.060526 1_545
Fe4 O11 2.062793 1_455
Fe4 O2 2.076457 1_545
O1 V0 2.076006 1_465
O4 V0 2.025683 1_555
O5 V0 2.025985 1_555
O6 V0 2.024451 1_466
O7 V0 2.027965 1_466
O10 V0 2.075814 1_556
