# generated using pymatgen
data_Li4MnFe3(PO4)4
_symmetry_space_group_name_H-M   'P 1'
_cell_length_a   10.51703300
_cell_length_b   7.74046351
_cell_length_c   7.72961666
_cell_angle_alpha   103.98916375
_cell_angle_beta   90.05412608
_cell_angle_gamma   90.07980220
_symmetry_Int_Tables_number   1
_chemical_formula_structural   Li4MnFe3(PO4)4
_chemical_formula_sum   'Li8 Mn2 Fe6 P8 O32'
_cell_volume   610.57912170
_cell_formula_units_Z   2
loop_
 _symmetry_equiv_pos_site_id
 _symmetry_equiv_pos_as_xyz
  1  'x, y, z'
loop_
 _atom_site_type_symbol
 _atom_site_label
 _atom_site_symmetry_multiplicity
 _atom_site_fract_x
 _atom_site_fract_y
 _atom_site_fract_z
 _atom_site_occupancy
  Li  Li0  1  0.75048500  0.50051100  0.74983900  1
  Li  Li1  1  0.50000000  0.50000000  0.00000000  1
  Li  Li2  1  0.24951500  0.49948900  0.25016100  1
  Li  Li3  1  0.00000000  0.50000000  0.50000000  1
  Li  Li4  1  0.75037200  0.99948500  0.25003100  1
  Li  Li5  1  0.50000000  0.00000000  0.50000000  1
  Li  Li6  1  0.24962800  0.00051500  0.74996900  1
  Li  Li7  1  0.00000000  0.00000000  0.00000000  1
  Mn  Mn0  1  0.38529000  0.71758100  0.63576100  1
  Mn  Mn1  1  0.61471000  0.28241900  0.36423900  1
  Fe  Fe0  1  0.38720700  0.78260700  0.13700000  1
  Fe  Fe1  1  0.88760300  0.78257300  0.63786300  1
  Fe  Fe2  1  0.88697800  0.71756300  0.13657100  1
  Fe  Fe3  1  0.11302200  0.28243700  0.86342900  1
  Fe  Fe4  1  0.61279300  0.21739300  0.86300000  1
  Fe  Fe5  1  0.11239700  0.21742700  0.36213700  1
  P  P0  1  0.66736400  0.90493000  0.91739600  1
  P  P1  1  0.16465800  0.90572100  0.41461300  1
  P  P2  1  0.66874600  0.59660600  0.41660700  1
  P  P3  1  0.16631700  0.59552500  0.91841400  1
  P  P4  1  0.83368300  0.40447500  0.08158600  1
  P  P5  1  0.33125400  0.40339400  0.58339300  1
  P  P6  1  0.83534200  0.09427900  0.58538700  1
  P  P7  1  0.33263600  0.09507000  0.08260400  1
  O  O0  1  0.27125900  0.95795300  0.02112400  1
  O  O1  1  0.77237200  0.95763000  0.52237000  1
  O  O2  1  0.00361300  0.90219100  0.25368700  1
  O  O3  1  0.50553700  0.90203900  0.75570100  1
  O  O4  1  0.63194100  0.83458100  0.08485200  1
  O  O5  1  0.33316900  0.83572100  0.37956900  1
  O  O6  1  0.83493000  0.83460600  0.88209500  1
  O  O7  1  0.12971100  0.83582900  0.58298700  1
  O  O8  1  0.33640600  0.66515600  0.88749600  1
  O  O9  1  0.13039300  0.66503200  0.08653900  1
  O  O10  1  0.63729100  0.66600500  0.58625600  1
  O  O11  1  0.83651100  0.66583000  0.38007500  1
  O  O12  1  0.50550200  0.59917500  0.25684200  1
  O  O13  1  0.00659400  0.59939900  0.75550100  1
  O  O14  1  0.27054400  0.54074200  0.52221800  1
  O  O15  1  0.77289300  0.54200000  0.02121300  1
  O  O16  1  0.72945600  0.45925800  0.47778200  1
  O  O17  1  0.22710700  0.45800000  0.97878700  1
  O  O18  1  0.49449800  0.40082500  0.74315800  1
  O  O19  1  0.99340600  0.40060100  0.24449900  1
  O  O20  1  0.86960700  0.33496800  0.91346100  1
  O  O21  1  0.66359400  0.33484400  0.11250400  1
  O  O22  1  0.36270900  0.33399500  0.41374400  1
  O  O23  1  0.16348900  0.33417000  0.61992500  1
  O  O24  1  0.66683100  0.16427900  0.62043100  1
  O  O25  1  0.36805900  0.16541900  0.91514800  1
  O  O26  1  0.87028900  0.16417100  0.41701300  1
  O  O27  1  0.16507000  0.16539400  0.11790500  1
  O  O28  1  0.99638700  0.09780900  0.74631300  1
  O  O29  1  0.49446300  0.09796100  0.24429900  1
  O  O30  1  0.72874100  0.04204700  0.97887600  1
  O  O31  1  0.22762800  0.04237000  0.47763000  1
loop_
_geom_bond_atom_site_label_1
_geom_bond_atom_site_label_2
_geom_bond_distance
_geom_bond_site_symmetry_2
Li0 O15 2.057143 1_556
Li0 O16 2.060904 1_555
Li0 O10 2.332696 1_555
Li0 O20 2.365592 1_555
Li1 O12 1.948552 1_555
Li1 O18 1.948552 1_554
Li1 O8 2.427236 1_554
Li1 O21 2.427236 1_555
Li2 O17 2.057143 1_554
Li2 O14 2.060904 1_555
Li2 O22 2.332696 1_555
Li2 O9 2.365592 1_555
Li3 O13 1.939602 1_555
Li3 O19 1.939602 1_455
Li3 O23 2.457992 1_555
Li3 O11 2.457992 1_455
Li4 O4 2.003856 1_555
Li4 O26 2.019511 1_565
Li4 O30 2.210506 1_564
Li4 O1 2.217850 1_555
Li5 O24 2.231684 1_555
Li5 O5 2.231684 1_545
Li5 O3 2.282384 1_545
Li5 O29 2.282384 1_555
Li6 O25 2.003856 1_555
Li6 O7 2.019511 1_545
Li6 O0 2.210506 1_546
Li6 O31 2.217850 1_555
Li7 O27 2.215883 1_555
Li7 O6 2.215883 1_444
Li7 O28 2.266597 1_454
Li7 O2 2.266597 1_545
Mn0 O14 1.874255 1_555
Mn0 O3 1.962188 1_555
Mn0 O8 2.144351 1_555
Mn0 O5 2.435780 1_555
Mn1 O16 1.874255 1_555
Mn1 O29 1.962188 1_555
Mn1 O21 2.144351 1_555
Mn1 O24 2.435780 1_555
Fe0 O5 1.907219 1_555
Fe0 O8 1.995083 1_554
Fe0 O0 2.172945 1_555
Fe0 O12 2.249559 1_555
Fe1 O6 1.915188 1_555
Fe1 O11 2.049840 1_555
Fe1 O1 2.165426 1_555
Fe1 O13 2.242615 1_655
Fe2 O15 1.867885 1_555
Fe2 O2 1.932372 1_655
Fe2 O11 2.085761 1_555
Fe2 O6 2.418766 1_554
Fe3 O17 1.867885 1_555
Fe3 O28 1.932372 1_455
Fe3 O23 2.085761 1_555
Fe3 O27 2.418766 1_556
Fe4 O24 1.907219 1_555
Fe4 O21 1.995083 1_556
Fe4 O30 2.172945 1_555
Fe4 O18 2.249559 1_555
Fe5 O27 1.915188 1_555
Fe5 O23 2.049840 1_555
Fe5 O31 2.165426 1_555
Fe5 O19 2.242615 1_455
O0 P7 1.233948 1_565
O1 P6 1.242167 1_565
O2 P1 2.096701 1_555
O3 P0 2.107499 1_555
O4 P0 1.565828 1_554
O5 P1 1.854831 1_555
O6 P0 1.846137 1_555
O7 P1 1.569184 1_555
O8 P3 1.899454 1_555
O9 P3 1.335842 1_554
O10 P2 1.333533 1_555
O11 P2 1.884510 1_555
O12 P2 2.116823 1_555
O13 P3 2.103043 1_555
O14 P5 1.416297 1_555
O15 P4 1.414636 1_555
O16 P2 1.416297 1_555
O17 P3 1.414636 1_555
O18 P5 2.116823 1_555
O19 P4 2.103043 1_555
O20 P4 1.335842 1_556
O21 P4 1.899454 1_555
O22 P5 1.333533 1_555
O23 P5 1.884510 1_555
O24 P6 1.854831 1_555
O25 P7 1.565828 1_556
O26 P6 1.569184 1_555
O27 P7 1.846137 1_555
O28 P6 2.096701 1_555
O29 P7 2.107499 1_555
O30 P0 1.233948 1_545
O31 P1 1.242167 1_545
