# generated using pymatgen
data_Mn6O7F5
_symmetry_space_group_name_H-M   'P 1'
_cell_length_a   4.62997793
_cell_length_b   7.76447193
_cell_length_c   5.59810970
_cell_angle_alpha   92.92582650
_cell_angle_beta   89.03637382
_cell_angle_gamma   90.59324605
_symmetry_Int_Tables_number   1
_chemical_formula_structural   Mn6O7F5
_chemical_formula_sum   'Mn6 O7 F5'
_cell_volume   200.94846578
_cell_formula_units_Z   1
loop_
 _symmetry_equiv_pos_site_id
 _symmetry_equiv_pos_as_xyz
  1  'x, y, z'
loop_
 _atom_site_type_symbol
 _atom_site_label
 _atom_site_symmetry_multiplicity
 _atom_site_fract_x
 _atom_site_fract_y
 _atom_site_fract_z
 _atom_site_occupancy
  Mn  Mn0  1  0.46590600  0.01113000  0.48360500  1
  Mn  Mn1  1  0.51626500  0.66615600  0.16009000  1
  Mn  Mn2  1  0.52343000  0.33549800  0.82709100  1
  Mn  Mn3  1  0.99346300  0.67604400  0.67311200  1
  Mn  Mn4  1  0.96687500  0.32441800  0.34708900  1
  Mn  Mn5  1  0.00918200  0.98267800  0.00923700  1
  O  O0  1  0.80598600  0.45082300  0.63363800  1
  O  O1  1  0.81222400  0.76724700  0.96705800  1
  O  O2  1  0.80188500  0.09142100  0.29027900  1
  O  O3  1  0.69459400  0.43312900  0.12887300  1
  O  O4  1  0.30742400  0.23808700  0.53548700  1
  O  O5  1  0.30517900  0.89059200  0.19889700  1
  O  O6  1  0.19965200  0.89785500  0.70889100  1
  F  F0  1  0.71243200  0.09094800  0.79754500  1
  F  F1  1  0.68734800  0.77997000  0.47138800  1
  F  F2  1  0.29658200  0.56584200  0.86866400  1
  F  F3  1  0.19738900  0.57311000  0.37121500  1
  F  F4  1  0.20418200  0.22505400  0.02784100  1
loop_
_geom_bond_atom_site_label_1
_geom_bond_atom_site_label_2
_geom_bond_distance
_geom_bond_site_symmetry_2
Mn0 O4 1.922364 1_555
Mn0 O5 1.960405 1_545
Mn0 O6 1.980476 1_545
Mn0 O2 1.992968 1_555
Mn1 O1 1.917293 1_554
Mn1 O3 1.994928 1_555
Mn1 O5 2.007133 1_555
Mn2 O0 1.926962 1_555
Mn2 O3 1.989632 1_556
Mn2 O4 2.037229 1_555
Mn3 O1 1.939154 1_555
Mn3 O0 1.948302 1_555
Mn3 O6 1.963358 1_655
Mn4 O2 1.969351 1_555
Mn4 O0 1.976269 1_555
Mn4 O3 1.993270 1_555
Mn4 O4 2.048838 1_655
Mn5 O1 1.902793 1_454
Mn5 O5 1.914001 1_555
Mn5 O6 1.971693 1_554
Mn5 O2 1.984878 1_465
F0 Mn5 2.044315 1_646
F0 Mn2 2.096673 1_555
F0 Mn0 2.171920 1_555
F1 Mn3 2.026251 1_555
F1 Mn0 2.073767 1_565
F1 Mn1 2.078468 1_555
F2 Mn3 2.018010 1_455
F2 Mn1 2.052432 1_556
F2 Mn2 2.084277 1_555
F3 Mn1 2.026065 1_555
F3 Mn3 2.051967 1_455
F3 Mn4 2.195787 1_455
F4 Mn2 2.049249 1_554
F4 Mn5 2.077396 1_545
F4 Mn4 2.192534 1_455
