# generated using pymatgen
data_BaLa2PtO5
_symmetry_space_group_name_H-M   'P 1'
_cell_length_a   6.94666000
_cell_length_b   6.94666000
_cell_length_c   6.00320900
_cell_angle_alpha   90.00000000
_cell_angle_beta   90.00000000
_cell_angle_gamma   90.00000000
_symmetry_Int_Tables_number   1
_chemical_formula_structural   BaLa2PtO5
_chemical_formula_sum   'Ba2 La4 Pt2 O10'
_cell_volume   289.69136471
_cell_formula_units_Z   2
loop_
 _symmetry_equiv_pos_site_id
 _symmetry_equiv_pos_as_xyz
  1  'x, y, z'
loop_
 _atom_site_type_symbol
 _atom_site_label
 _atom_site_symmetry_multiplicity
 _atom_site_fract_x
 _atom_site_fract_y
 _atom_site_fract_z
 _atom_site_occupancy
  Ba  Ba0  1  0.00000000  0.00000000  0.00000000  1
  Ba  Ba1  1  0.50000000  0.50000000  0.00000000  1
  La  La0  1  0.82316600  0.67683400  0.50000000  1
  La  La1  1  0.67683400  0.17683400  0.50000000  1
  La  La2  1  0.32316600  0.82316600  0.50000000  1
  La  La3  1  0.17683400  0.32316600  0.50000000  1
  Pt  Pt0  1  0.50000000  0.00000000  0.00000000  1
  Pt  Pt1  1  0.00000000  0.50000000  0.00000000  1
  O  O0  1  0.50000000  0.50000000  0.50000000  1
  O  O1  1  0.00000000  0.00000000  0.50000000  1
  O  O2  1  0.14112800  0.64112800  0.24823100  1
  O  O3  1  0.85887200  0.35887200  0.24823100  1
  O  O4  1  0.35887200  0.14112800  0.24823100  1
  O  O5  1  0.64112800  0.85887200  0.24823100  1
  O  O6  1  0.14112800  0.64112800  0.75176900  1
  O  O7  1  0.64112800  0.85887200  0.75176900  1
  O  O8  1  0.85887200  0.35887200  0.75176900  1
  O  O9  1  0.35887200  0.14112800  0.75176900  1
loop_
_geom_bond_atom_site_label_1
_geom_bond_atom_site_label_2
_geom_bond_distance
_geom_bond_site_symmetry_2
Ba0 O1 3.001605 1_555
Ba0 O1 3.001605 1_554
Ba0 O4 3.065391 1_555
Ba0 O3 3.065391 1_455
Ba0 O9 3.065391 1_554
Ba0 O8 3.065391 1_454
Ba0 O2 3.065391 1_545
Ba0 O5 3.065391 1_445
Ba0 O7 3.065391 1_444
Ba0 O6 3.065391 1_544
Ba1 O0 3.001605 1_554
Ba1 O0 3.001605 1_555
Ba1 O5 3.065391 1_555
Ba1 O2 3.065391 1_555
Ba1 O7 3.065391 1_554
Ba1 O6 3.065391 1_554
Ba1 O3 3.065391 1_555
Ba1 O4 3.065391 1_555
Ba1 O9 3.065391 1_554
Ba1 O8 3.065391 1_554
La0 O7 2.341495 1_555
La0 O5 2.341495 1_555
La0 O0 2.559036 1_555
La0 O1 2.559036 1_665
La0 O6 2.687862 1_655
La0 O8 2.687862 1_555
La0 O2 2.687862 1_655
La0 O3 2.687862 1_555
La1 O8 2.341495 1_555
La1 O3 2.341495 1_555
La1 O0 2.559036 1_555
La1 O1 2.559036 1_655
La1 O7 2.687862 1_545
La1 O9 2.687862 1_555
La1 O4 2.687862 1_555
La1 O5 2.687862 1_545
La2 O6 2.341495 1_555
La2 O2 2.341495 1_555
La2 O0 2.559036 1_555
La2 O1 2.559036 1_565
La2 O7 2.687862 1_555
La2 O5 2.687862 1_555
La2 O9 2.687862 1_565
La2 O4 2.687862 1_565
La3 O9 2.341495 1_555
La3 O4 2.341495 1_555
La3 O0 2.559036 1_555
La3 O1 2.559036 1_555
La3 O6 2.687862 1_555
La3 O2 2.687862 1_555
La3 O8 2.687862 1_455
La3 O3 2.687862 1_455
O2 Pt1 2.035409 1_555
O3 Pt1 2.035409 1_655
O4 Pt0 2.035409 1_555
O5 Pt0 2.035409 1_565
O6 Pt1 2.035409 1_556
O7 Pt0 2.035409 1_566
O8 Pt1 2.035409 1_656
O9 Pt0 2.035409 1_556
