# generated using pymatgen
data_LiFeRh2
_symmetry_space_group_name_H-M   'P 1'
_cell_length_a   4.16279425
_cell_length_b   4.16152291
_cell_length_c   4.16123858
_cell_angle_alpha   59.96674978
_cell_angle_beta   59.98242560
_cell_angle_gamma   59.97616663
_symmetry_Int_Tables_number   1
_chemical_formula_structural   LiFeRh2
_chemical_formula_sum   'Li1 Fe1 Rh2'
_cell_volume   50.94477972
_cell_formula_units_Z   1
loop_
 _symmetry_equiv_pos_site_id
 _symmetry_equiv_pos_as_xyz
  1  'x, y, z'
loop_
 _atom_site_type_symbol
 _atom_site_label
 _atom_site_symmetry_multiplicity
 _atom_site_fract_x
 _atom_site_fract_y
 _atom_site_fract_z
 _atom_site_occupancy
  Li  Li0  1  0.75000000  0.75000000  0.75000000  1
  Fe  Fe0  1  0.25000000  0.24999900  0.25000000  1
  Rh  Rh0  1  0.99992620  0.00008516  0.00009340  1
  Rh  Rh1  1  0.50007280  0.49991584  0.49990660  1
loop_
_geom_bond_atom_site_label_1
_geom_bond_atom_site_label_2
_geom_bond_distance
_geom_bond_site_symmetry_2
Li0 Rh0 2.547085 1_565
Li0 Rh1 2.547085 1_556
Li0 Rh0 2.547126 1_556
Li0 Rh1 2.547129 1_565
Li0 Rh1 2.548844 1_655
Li0 Rh0 2.548847 1_466
Li0 Rh0 2.549439 1_566
Li0 Rh1 2.549439 1_555
Fe0 Rh1 2.547698 1_545
Fe0 Rh0 2.547708 1_465
Fe0 Rh1 2.547719 1_554
Fe0 Rh0 2.547719 1_456
Fe0 Rh0 2.548346 1_555
Fe0 Rh1 2.548349 1_455
Fe0 Rh0 2.548723 1_455
Fe0 Rh1 2.548730 1_555
