# generated using pymatgen
data_Li4MnFe3(BO3)4
_symmetry_space_group_name_H-M   'P 1'
_cell_length_a   5.22415100
_cell_length_b   5.99803614
_cell_length_c   8.21985937
_cell_angle_alpha   103.04925504
_cell_angle_beta   90.52374289
_cell_angle_gamma   91.11324257
_symmetry_Int_Tables_number   1
_chemical_formula_structural   Li4MnFe3(BO3)4
_chemical_formula_sum   'Li4 Mn1 Fe3 B4 O12'
_cell_volume   250.84351818
_cell_formula_units_Z   1
loop_
 _symmetry_equiv_pos_site_id
 _symmetry_equiv_pos_as_xyz
  1  'x, y, z'
loop_
 _atom_site_type_symbol
 _atom_site_label
 _atom_site_symmetry_multiplicity
 _atom_site_fract_x
 _atom_site_fract_y
 _atom_site_fract_z
 _atom_site_occupancy
  Li  Li0  1  0.65376600  0.95728100  0.27724500  1
  Li  Li1  1  0.84437000  0.54677500  0.21913800  1
  Li  Li2  1  0.15332700  0.45425600  0.78181500  1
  Li  Li3  1  0.34658100  0.04238400  0.72367100  1
  Mn  Mn0  1  0.16946900  0.18454300  0.41884800  1
  Fe  Fe0  1  0.83632100  0.81804200  0.58090700  1
  Fe  Fe1  1  0.66489400  0.68066300  0.91384500  1
  Fe  Fe2  1  0.33335600  0.32028400  0.08358100  1
  B  B0  1  0.17044000  0.83526800  0.09255100  1
  B  B1  1  0.32949200  0.66667400  0.40607800  1
  B  B2  1  0.67008500  0.33334300  0.59610800  1
  B  B3  1  0.82807000  0.16367700  0.90573300  1
  O  O0  1  0.91119800  0.82163300  0.11627200  1
  O  O1  1  0.68222300  0.98281100  0.80843200  1
  O  O2  1  0.20646900  0.83365000  0.52295000  1
  O  O3  1  0.58974900  0.68069600  0.38455300  1
  O  O4  1  0.18289500  0.48793300  0.30620500  1
  O  O5  1  0.70584800  0.33462300  0.01830800  1
  O  O6  1  0.29588900  0.66294200  0.98019700  1
  O  O7  1  0.81916700  0.51409700  0.69152900  1
  O  O8  1  0.40995300  0.32293800  0.62191600  1
  O  O9  1  0.78786700  0.16224400  0.48016600  1
  O  O10  1  0.31870600  0.01653700  0.18760000  1
  O  O11  1  0.08986500  0.17670600  0.88235200  1
loop_
_geom_bond_atom_site_label_1
_geom_bond_atom_site_label_2
_geom_bond_distance
_geom_bond_site_symmetry_2
Li0 O9 1.950255 1_565
Li0 O0 1.952007 1_555
Li0 O10 1.962670 1_565
Li0 O3 2.070427 1_555
Li1 O3 1.960799 1_555
Li1 O5 1.965155 1_555
Li1 O4 1.969657 1_655
Li1 O0 2.041386 1_555
Li2 O8 1.936751 1_555
Li2 O6 1.949458 1_555
Li2 O7 1.961639 1_455
Li2 O11 2.041833 1_555
Li3 O11 1.936085 1_555
Li3 O1 1.949898 1_545
Li3 O2 1.958299 1_545
Li3 O8 2.063957 1_555
Mn0 O9 2.069930 1_455
Mn0 O8 2.085437 1_555
Mn0 O10 2.104538 1_555
Mn0 O4 2.220539 1_555
Mn0 O2 2.454646 1_545
Fe0 O2 2.001224 1_655
Fe0 O3 2.064768 1_555
Fe0 O1 2.084780 1_555
Fe0 O7 2.214086 1_555
Fe0 O9 2.408440 1_565
Fe1 O6 2.015533 1_555
Fe1 O7 2.054475 1_555
Fe1 O0 2.102974 1_556
Fe1 O1 2.178893 1_555
Fe1 O5 2.430998 1_556
Fe2 O5 2.028652 1_555
Fe2 O4 2.050300 1_555
Fe2 O11 2.090786 1_554
Fe2 O10 2.180690 1_555
Fe2 O6 2.405397 1_554
B0 O0 1.373540 1_455
B0 O6 1.398965 1_554
B0 O10 1.401823 1_565
B1 O3 1.376090 1_555
B1 O2 1.393132 1_555
B1 O4 1.403214 1_555
B2 O8 1.379727 1_555
B2 O9 1.390563 1_555
B2 O7 1.403286 1_555
B3 O11 1.385988 1_655
B3 O5 1.386749 1_556
B3 O1 1.400721 1_545
