# generated using pymatgen
data_Li2Mn3(BO3)3
_symmetry_space_group_name_H-M   'P 1'
_cell_length_a   5.27339200
_cell_length_b   5.85756331
_cell_length_c   12.45507113
_cell_angle_alpha   91.82096465
_cell_angle_beta   101.74651129
_cell_angle_gamma   90.53074222
_symmetry_Int_Tables_number   1
_chemical_formula_structural   Li2Mn3(BO3)3
_chemical_formula_sum   'Li4 Mn6 B6 O18'
_cell_volume   376.43163682
_cell_formula_units_Z   2
loop_
 _symmetry_equiv_pos_site_id
 _symmetry_equiv_pos_as_xyz
  1  'x, y, z'
loop_
 _atom_site_type_symbol
 _atom_site_label
 _atom_site_symmetry_multiplicity
 _atom_site_fract_x
 _atom_site_fract_y
 _atom_site_fract_z
 _atom_site_occupancy
  Li  Li0  1  0.91215100  0.18057700  0.48146200  1
  Li  Li1  1  0.76824900  0.46105600  0.84710400  1
  Li  Li2  1  0.23697700  0.51335500  0.15193900  1
  Li  Li3  1  0.56677000  0.86684300  0.81322100  1
  Mn  Mn0  1  0.04327500  0.02721100  0.71593200  1
  Mn  Mn1  1  0.29756400  0.28680600  0.95247000  1
  Mn  Mn2  1  0.38490900  0.36134900  0.38294600  1
  Mn  Mn3  1  0.61964700  0.63822900  0.60636800  1
  Mn  Mn4  1  0.70039000  0.70436500  0.05211900  1
  Mn  Mn5  1  0.94910600  0.97116700  0.27687400  1
  B  B0  1  0.47264000  0.14559400  0.60364300  1
  B  B1  1  0.85617300  0.19648300  0.05868300  1
  B  B2  1  0.81399600  0.47561800  0.27325500  1
  B  B3  1  0.19177800  0.52895000  0.73407300  1
  B  B4  1  0.13916900  0.79587700  0.93640600  1
  B  B5  1  0.51855100  0.86385000  0.39448700  1
  O  O0  1  0.34297800  0.02847400  0.34580400  1
  O  O1  1  0.74864400  0.03749800  0.11726800  1
  O  O2  1  0.21187200  0.14935300  0.59526500  1
  O  O3  1  0.11932800  0.22068800  0.07536400  1
  O  O4  1  0.59243500  0.28657400  0.53788300  1
  O  O5  1  0.97526400  0.33436400  0.34425700  1
  O  O6  1  0.69490100  0.33870400  0.98579300  1
  O  O7  1  0.08524100  0.36063200  0.79170100  1
  O  O8  1  0.54864700  0.46536200  0.26108700  1
  O  O9  1  0.45637400  0.55343900  0.74503700  1
  O  O10  1  0.92580300  0.62201600  0.20785900  1
  O  O11  1  0.29684900  0.64903600  0.00670700  1
  O  O12  1  0.01965600  0.68002100  0.67561200  1
  O  O13  1  0.41151100  0.67754100  0.44140200  1
  O  O14  1  0.87410400  0.77948700  0.91795100  1
  O  O15  1  0.77613600  0.89174600  0.40595100  1
  O  O16  1  0.25967700  0.95310300  0.87870600  1
  O  O17  1  0.63141100  0.00184100  0.67518900  1
loop_
_geom_bond_atom_site_label_1
_geom_bond_atom_site_label_2
_geom_bond_distance
_geom_bond_site_symmetry_2
Li0 O2 1.910583 1_655
Li0 O15 1.965468 1_545
Li0 O5 2.041183 1_555
Li0 O4 2.048401 1_555
Li1 O9 1.955167 1_555
Li1 O6 1.998168 1_555
Li1 O7 2.019555 1_655
Li1 O14 2.060310 1_555
Li2 O8 1.936883 1_555
Li2 O3 1.966947 1_555
Li2 O10 2.009833 1_455
Li2 O11 2.079089 1_555
Li3 O14 1.946021 1_555
Li3 O17 2.004285 1_565
Li3 O16 2.017382 1_555
Li3 O9 2.027323 1_555
Mn0 O2 2.040025 1_555
Mn0 O12 2.075699 1_545
Mn0 O17 2.130095 1_455
Mn0 O7 2.131602 1_555
Mn0 O16 2.173479 1_545
Mn1 O3 1.998257 1_556
Mn1 O6 2.069083 1_555
Mn1 O16 2.123367 1_545
Mn1 O7 2.145076 1_555
Mn1 O11 2.206448 1_556
Mn2 O13 1.961632 1_555
Mn2 O0 1.989422 1_555
Mn2 O8 2.000744 1_555
Mn2 O4 2.077534 1_555
Mn2 O5 2.118662 1_455
Mn3 O12 2.118868 1_655
Mn3 O13 2.143801 1_555
Mn3 O9 2.150130 1_555
Mn3 O4 2.196394 1_555
Mn3 O17 2.266022 1_565
Mn4 O1 2.082555 1_565
Mn4 O11 2.106883 1_555
Mn4 O14 2.118451 1_554
Mn4 O10 2.130625 1_555
Mn4 O6 2.268831 1_554
Mn5 O15 2.066335 1_555
Mn5 O0 2.099182 1_665
Mn5 O1 2.102684 1_565
Mn5 O10 2.185712 1_555
Mn5 O5 2.254635 1_565
B0 O2 1.358176 1_555
B0 O17 1.400388 1_555
B0 O4 1.412746 1_555
B1 O3 1.366061 1_655
B1 O1 1.386757 1_555
B1 O6 1.410067 1_554
B2 O8 1.376992 1_555
B2 O5 1.393987 1_555
B2 O10 1.406053 1_555
B3 O9 1.379711 1_555
B3 O12 1.387024 1_555
B3 O7 1.414842 1_555
B4 O14 1.371556 1_455
B4 O11 1.400922 1_556
B4 O16 1.409132 1_555
B5 O15 1.344481 1_555
B5 O0 1.407079 1_565
B5 O13 1.419311 1_555
