# generated using pymatgen
data_Li5Co4(Si3O10)2
_symmetry_space_group_name_H-M   'P 1'
_cell_length_a   5.34127200
_cell_length_b   5.41299181
_cell_length_c   17.05125609
_cell_angle_alpha   94.03529946
_cell_angle_beta   90.19008400
_cell_angle_gamma   119.25346027
_symmetry_Int_Tables_number   1
_chemical_formula_structural   Li5Co4(Si3O10)2
_chemical_formula_sum   'Li5 Co4 Si6 O20'
_cell_volume   428.64840586
_cell_formula_units_Z   1
loop_
 _symmetry_equiv_pos_site_id
 _symmetry_equiv_pos_as_xyz
  1  'x, y, z'
loop_
 _atom_site_type_symbol
 _atom_site_label
 _atom_site_symmetry_multiplicity
 _atom_site_fract_x
 _atom_site_fract_y
 _atom_site_fract_z
 _atom_site_occupancy
  Li  Li0  1  0.15780100  0.59395400  0.76126100  1
  Li  Li1  1  0.17203200  0.50814400  0.44624200  1
  Li  Li2  1  0.81940900  0.49418000  0.55177700  1
  Li  Li3  1  0.83691900  0.39463500  0.24957100  1
  Li  Li4  1  0.66396700  0.49872100  0.04595200  1
  Co  Co0  1  0.17311000  0.17565400  0.58141700  1
  Co  Co1  1  0.01323100  0.18561000  0.08267300  1
  Co  Co2  1  0.00936100  0.82494800  0.91191000  1
  Co  Co3  1  0.81274800  0.80867000  0.40877800  1
  Si  Si0  1  0.86207500  0.00171500  0.74877700  1
  Si  Si1  1  0.51050100  0.84188600  0.60201500  1
  Si  Si2  1  0.70029200  0.17341700  0.90196500  1
  Si  Si3  1  0.32864400  0.83994100  0.09829500  1
  Si  Si4  1  0.47133500  0.15421700  0.40381400  1
  Si  Si5  1  0.14212400  0.99905100  0.24992200  1
  O  O0  1  0.09984900  0.21549800  0.69164600  1
  O  O1  1  0.04596400  0.18742100  0.19868700  1
  O  O2  1  0.54357700  0.82108600  0.69860400  1
  O  O3  1  0.79603200  0.85499200  0.56119800  1
  O  O4  1  0.21906000  0.55680300  0.56687200  1
  O  O5  1  0.37642100  0.90177300  0.89730800  1
  O  O6  1  0.91139700  0.09934700  0.95448400  1
  O  O7  1  0.32912800  0.54373200  0.06950500  1
  O  O8  1  0.47447000  0.85907200  0.41308800  1
  O  O9  1  0.83348400  0.22787100  0.81354500  1
  O  O10  1  0.23977300  0.80910700  0.19012100  1
  O  O11  1  0.49606800  0.13397500  0.58851200  1
  O  O12  1  0.71252700  0.46715700  0.93552400  1
  O  O13  1  0.06965600  0.86263000  0.05165600  1
  O  O14  1  0.63260200  0.13181100  0.08866900  1
  O  O15  1  0.77099100  0.43442600  0.43740300  1
  O  O16  1  0.19283500  0.14890300  0.44948600  1
  O  O17  1  0.43600000  0.20020700  0.30811300  1
  O  O18  1  0.93545400  0.79262500  0.79510000  1
  O  O19  1  0.89208200  0.76611100  0.29816200  1
loop_
_geom_bond_atom_site_label_1
_geom_bond_atom_site_label_2
_geom_bond_distance
_geom_bond_site_symmetry_2
Li0 O18 2.016260 1_455
Li0 O2 2.149961 1_555
Li0 O9 2.150875 1_455
Li0 O0 2.176484 1_555
Li1 O8 1.922398 1_555
Li1 O15 1.981010 1_455
Li1 O16 2.005748 1_555
Li1 O4 2.054006 1_555
Li2 O15 1.949610 1_555
Li2 O4 2.003680 1_655
Li2 O3 2.012512 1_555
Li2 O11 2.016107 1_555
Li3 O19 2.000362 1_555
Li3 O1 2.085927 1_655
Li3 O17 2.156180 1_555
Li3 O10 2.511463 1_655
Li4 O12 1.908714 1_554
Li4 O7 1.958606 1_555
Li4 O14 2.093404 1_555
Li4 O13 2.094050 1_655
Co0 O11 1.850405 1_555
Co0 O3 1.919011 1_445
Co0 O0 1.939750 1_555
Co0 O4 1.988941 1_555
Co0 O16 2.250190 1_555
Co1 O7 1.876759 1_555
Co1 O14 1.911924 1_455
Co1 O13 1.952676 1_545
Co1 O1 1.984232 1_555
Co1 O6 2.211736 1_454
Co2 O5 1.816514 1_555
Co2 O12 1.881398 1_455
Co2 O6 1.901923 1_465
Co2 O18 2.007928 1_455
Co2 O13 2.384444 1_556
Co3 O8 1.955590 1_555
Co3 O19 1.956966 1_555
Co3 O15 2.022390 1_555
Co3 O16 2.037556 1_665
O0 Si0 1.622200 1_455
O1 Si5 1.643451 1_545
O2 Si1 1.673316 1_555
O2 Si0 1.681929 1_565
O3 Si1 1.650332 1_555
O4 Si1 1.636922 1_555
O5 Si2 1.630196 1_565
O6 Si2 1.649179 1_555
O7 Si3 1.644717 1_555
O8 Si4 1.624609 1_565
O9 Si2 1.652509 1_555
O9 Si0 1.653826 1_555
O10 Si3 1.633717 1_555
O10 Si5 1.658010 1_555
O11 Si1 1.651967 1_545
O12 Si2 1.621725 1_555
O13 Si3 1.653358 1_555
O14 Si3 1.640182 1_545
O15 Si4 1.639922 1_555
O16 Si4 1.670063 1_555
O17 Si5 1.673671 1_545
O17 Si4 1.691593 1_555
O18 Si0 1.617341 1_565
O19 Si5 1.599237 1_655
