# generated using pymatgen
data_LiVP2(HO4)2
_symmetry_space_group_name_H-M   'P 1'
_cell_length_a   9.50690259
_cell_length_b   9.50690259
_cell_length_c   8.85238161
_cell_angle_alpha   73.08860518
_cell_angle_beta   73.08860518
_cell_angle_gamma   115.23734387
_symmetry_Int_Tables_number   1
_chemical_formula_structural   LiVP2(HO4)2
_chemical_formula_sum   'Li4 V4 P8 H8 O32'
_cell_volume   607.65434385
_cell_formula_units_Z   4
loop_
 _symmetry_equiv_pos_site_id
 _symmetry_equiv_pos_as_xyz
  1  'x, y, z'
loop_
 _atom_site_type_symbol
 _atom_site_label
 _atom_site_symmetry_multiplicity
 _atom_site_fract_x
 _atom_site_fract_y
 _atom_site_fract_z
 _atom_site_occupancy
  Li  Li0  1  0.86827600  0.21637400  0.35444400  1
  Li  Li1  1  0.40266700  0.78849200  0.30892500  1
  Li  Li2  1  0.21637400  0.86827600  0.85444400  1
  Li  Li3  1  0.78849200  0.40266700  0.80892500  1
  V  V0  1  0.36371400  0.58411000  0.04035200  1
  V  V1  1  0.58411000  0.36371400  0.54035200  1
  V  V2  1  0.13681900  0.85741600  0.50760800  1
  V  V3  1  0.85741600  0.13681900  0.00760800  1
  P  P0  1  0.15779400  0.15238200  0.15522800  1
  P  P1  1  0.03521900  0.58029500  0.31860600  1
  P  P2  1  0.15238200  0.15779400  0.65522800  1
  P  P3  1  0.56646600  0.18369300  0.25507300  1
  P  P4  1  0.58029500  0.03521900  0.81860600  1
  P  P5  1  0.18369300  0.56646600  0.75507300  1
  P  P6  1  0.65251100  0.69491300  0.18496500  1
  P  P7  1  0.69491300  0.65251100  0.68496500  1
  H  H0  1  0.49002600  0.33092000  0.09337900  1
  H  H1  1  0.21971900  0.34907600  0.39706100  1
  H  H2  1  0.33092000  0.49002600  0.59337900  1
  H  H3  1  0.34907600  0.21971900  0.89706100  1
  H  H4  1  0.91256200  0.68261500  0.19092500  1
  H  H5  1  0.85938000  0.87583700  0.41616000  1
  H  H6  1  0.68261500  0.91256200  0.69092500  1
  H  H7  1  0.87583700  0.85938000  0.91616000  1
  O  O0  1  0.00357000  0.16311200  0.14533700  1
  O  O1  1  0.24416200  0.11159100  0.00587600  1
  O  O2  1  0.08035700  0.99198400  0.33656000  1
  O  O3  1  0.39994800  0.99836700  0.32827800  1
  O  O4  1  0.30606600  0.32618300  0.12939900  1
  O  O5  1  0.16311200  0.00357000  0.64533700  1
  O  O6  1  0.11159100  0.24416200  0.50587600  1
  O  O7  1  0.03242600  0.70433400  0.15115800  1
  O  O8  1  0.99198400  0.08035700  0.83656000  1
  O  O9  1  0.12412500  0.49527500  0.24395200  1
  O  O10  1  0.59463700  0.32007200  0.07471000  1
  O  O11  1  0.73258800  0.17898100  0.20146700  1
  O  O12  1  0.55058200  0.24956400  0.39113300  1
  O  O13  1  0.99836700  0.39994800  0.82827800  1
  O  O14  1  0.14088600  0.69600800  0.38616400  1
  O  O15  1  0.32618300  0.30606600  0.62939900  1
  O  O16  1  0.46370400  0.58089900  0.21278200  1
  O  O17  1  0.70433400  0.03242600  0.65115800  1
  O  O18  1  0.49527500  0.12412500  0.74395200  1
  O  O19  1  0.32007200  0.59463700  0.57471000  1
  O  O20  1  0.79960700  0.73152800  0.00894400  1
  O  O21  1  0.17898100  0.73258800  0.70146700  1
  O  O22  1  0.67937500  0.59805000  0.33401800  1
  O  O23  1  0.24956400  0.55058200  0.89113300  1
  O  O24  1  0.69600800  0.14088600  0.88616400  1
  O  O25  1  0.84233800  0.43284900  0.46390200  1
  O  O26  1  0.58089900  0.46370400  0.71278200  1
  O  O27  1  0.67986100  0.87188600  0.17070400  1
  O  O28  1  0.73152800  0.79960700  0.50894400  1
  O  O29  1  0.59805000  0.67937500  0.83401800  1
  O  O30  1  0.43284900  0.84233800  0.96390200  1
  O  O31  1  0.87188600  0.67986100  0.67070400  1
loop_
_geom_bond_atom_site_label_1
_geom_bond_atom_site_label_2
_geom_bond_distance
_geom_bond_site_symmetry_2
Li0 O11 2.128295 1_555
Li0 O17 2.237912 1_555
Li0 O0 2.247851 1_655
Li0 O9 2.347510 1_655
Li0 O25 2.586308 1_555
Li1 O14 2.056363 1_555
Li1 O3 2.061883 1_555
Li1 O19 2.171934 1_555
Li1 O27 2.201901 1_555
Li1 O16 2.573422 1_555
Li2 O21 2.128295 1_555
Li2 O7 2.237912 1_556
Li2 O5 2.247851 1_565
Li2 O18 2.347510 1_565
Li2 O30 2.586308 1_555
Li3 O24 2.056363 1_555
Li3 O13 2.061883 1_555
Li3 O10 2.171934 1_556
Li3 O31 2.201901 1_555
Li3 O26 2.573422 1_555
H0 O10 1.014292 1_555
H0 O4 1.662037 1_555
H1 O6 0.984916 1_555
H2 O19 1.014292 1_555
H2 O15 1.662037 1_555
H3 O1 0.984916 1_556
H4 O7 0.994377 1_655
H5 O28 0.999471 1_555
H5 O2 1.684389 1_655
H6 O17 0.994377 1_565
H7 O20 0.999471 1_556
H7 O8 1.684389 1_565
O0 P0 1.537799 1_555
O0 V3 2.084794 1_455
O1 P0 1.584557 1_555
O2 P0 1.541136 1_565
O2 V2 2.036912 1_555
O3 P3 1.546199 1_565
O3 V2 2.041334 1_555
O4 P0 1.541419 1_555
O4 V0 2.100622 1_555
O5 P2 1.537799 1_555
O5 V2 2.084794 1_545
O6 P2 1.584557 1_555
O7 P1 1.619007 1_555
O8 P2 1.541136 1_655
O8 V3 2.036912 1_556
O9 P1 1.540395 1_555
O9 V0 2.058033 1_555
O10 P3 1.597740 1_555
O11 P3 1.535605 1_555
O11 V3 2.033473 1_555
O12 P3 1.509742 1_555
O12 V1 1.951451 1_555
O13 P5 1.546199 1_655
O13 V3 2.041334 1_556
O14 P1 1.538472 1_555
O14 V2 2.120872 1_555
O15 P2 1.541419 1_555
O15 V1 2.100622 1_555
O16 P6 1.544639 1_555
O16 V0 2.018989 1_555
O17 P4 1.619007 1_555
O18 P4 1.540395 1_555
O18 V1 2.058033 1_555
O19 P5 1.597740 1_555
O20 P6 1.583155 1_555
O21 P5 1.535605 1_555
O21 V2 2.033473 1_555
O22 P6 1.530991 1_555
O22 V1 2.017248 1_555
O23 P5 1.509742 1_555
O23 V0 1.951451 1_556
O24 P4 1.538472 1_555
O24 V3 2.120872 1_556
O25 P1 1.539076 1_655
O25 V1 2.077372 1_555
O26 P7 1.544639 1_555
O26 V1 2.018989 1_555
O27 P6 1.548716 1_555
O27 V3 2.029459 1_565
O28 P7 1.583155 1_555
O29 P7 1.530991 1_555
O29 V0 2.017248 1_556
O30 P4 1.539076 1_565
O30 V0 2.077372 1_556
O31 P7 1.548716 1_555
O31 V2 2.029459 1_655
