# generated using pymatgen
data_PaZnAu2
_symmetry_space_group_name_H-M   'P 1'
_cell_length_a   4.83872565
_cell_length_b   4.83872565
_cell_length_c   4.83872565
_cell_angle_alpha   60.00000000
_cell_angle_beta   60.00000000
_cell_angle_gamma   60.00000000
_symmetry_Int_Tables_number   1
_chemical_formula_structural   PaZnAu2
_chemical_formula_sum   'Pa1 Zn1 Au2'
_cell_volume   80.10838915
_cell_formula_units_Z   1
loop_
 _symmetry_equiv_pos_site_id
 _symmetry_equiv_pos_as_xyz
  1  'x, y, z'
loop_
 _atom_site_type_symbol
 _atom_site_label
 _atom_site_symmetry_multiplicity
 _atom_site_fract_x
 _atom_site_fract_y
 _atom_site_fract_z
 _atom_site_occupancy
  Pa  Pa0  1  0.25000000  0.25000000  0.25000000  1
  Zn  Zn0  1  0.74999900  0.74999900  0.74999900  1
  Au  Au0  1  0.00000000  0.00000000  -0.00000000  1
  Au  Au1  1  0.49999900  0.49999900  0.49999900  1
loop_
_geom_bond_atom_site_label_1
_geom_bond_atom_site_label_2
_geom_bond_distance
_geom_bond_site_symmetry_2
Au0 Zn0 2.963098 1_544
Au0 Zn0 2.963098 1_445
Au0 Zn0 2.963098 1_454
Au0 Pa0 2.963102 1_545
Au0 Pa0 2.963102 1_555
Au0 Pa0 2.963102 1_455
Au0 Pa0 2.963102 1_554
Au0 Zn0 2.963114 1_444
Au1 Pa0 2.963090 1_555
Au1 Zn0 2.963102 1_555
Au1 Zn0 2.963102 1_455
Au1 Zn0 2.963102 1_545
Au1 Zn0 2.963102 1_554
Au1 Pa0 2.963106 1_565
Au1 Pa0 2.963106 1_556
Au1 Pa0 2.963106 1_655
