# generated using pymatgen
data_MgSb2H2F14
_symmetry_space_group_name_H-M   'P 1'
_cell_length_a   7.06448100
_cell_length_b   12.54958700
_cell_length_c   12.67159900
_cell_angle_alpha   90.00000000
_cell_angle_beta   90.00000000
_cell_angle_gamma   90.00000000
_symmetry_Int_Tables_number   1
_chemical_formula_structural   MgSb2H2F14
_chemical_formula_sum   'Mg4 Sb8 H8 F56'
_cell_volume   1123.41732216
_cell_formula_units_Z   4
loop_
 _symmetry_equiv_pos_site_id
 _symmetry_equiv_pos_as_xyz
  1  'x, y, z'
loop_
 _atom_site_type_symbol
 _atom_site_label
 _atom_site_symmetry_multiplicity
 _atom_site_fract_x
 _atom_site_fract_y
 _atom_site_fract_z
 _atom_site_occupancy
  Mg  Mg0  1  0.28021900  0.25000000  0.09121600  1
  Mg  Mg1  1  0.78021900  0.75000000  0.40878400  1
  Mg  Mg2  1  0.21978100  0.25000000  0.59121600  1
  Mg  Mg3  1  0.71978100  0.75000000  0.90878400  1
  Sb  Sb0  1  0.00000000  0.00000000  0.00000000  1
  Sb  Sb1  1  0.00000000  0.50000000  0.00000000  1
  Sb  Sb2  1  0.45274600  0.75000000  0.17239600  1
  Sb  Sb3  1  0.95274600  0.25000000  0.32760400  1
  Sb  Sb4  1  0.50000000  0.50000000  0.50000000  1
  Sb  Sb5  1  0.50000000  0.00000000  0.50000000  1
  Sb  Sb6  1  0.04725400  0.75000000  0.67239600  1
  Sb  Sb7  1  0.54725400  0.25000000  0.82760400  1
  H  H0  1  0.59493800  0.11481800  0.11453500  1
  H  H1  1  0.59493800  0.38518200  0.11453500  1
  H  H2  1  0.09493800  0.61481800  0.38546500  1
  H  H3  1  0.09493800  0.88518200  0.38546500  1
  H  H4  1  0.90506200  0.11481800  0.61453500  1
  H  H5  1  0.90506200  0.38518200  0.61453500  1
  H  H6  1  0.40506200  0.61481800  0.88546500  1
  H  H7  1  0.40506200  0.88518200  0.88546500  1
  F  F0  1  0.74721500  0.03931000  0.04277800  1
  F  F1  1  0.74721500  0.46069000  0.04277800  1
  F  F2  1  0.09073300  0.13720400  0.05290600  1
  F  F3  1  0.09073300  0.36279600  0.05290600  1
  F  F4  1  0.64092600  0.75000000  0.05738000  1
  F  F5  1  0.26077100  0.75000000  0.06739600  1
  F  F6  1  0.46761200  0.13678400  0.13356600  1
  F  F7  1  0.46761200  0.36321600  0.13356600  1
  F  F8  1  0.03813100  0.55982000  0.13499200  1
  F  F9  1  0.03813100  0.94018000  0.13499200  1
  F  F10  1  0.46984500  0.59940100  0.17353800  1
  F  F11  1  0.46984500  0.90059900  0.17353800  1
  F  F12  1  0.78987200  0.25000000  0.20762600  1
  F  F13  1  0.17836400  0.25000000  0.23558600  1
  F  F14  1  0.67836400  0.75000000  0.26441400  1
  F  F15  1  0.28987200  0.75000000  0.29237400  1
  F  F16  1  0.96984500  0.09940100  0.32646200  1
  F  F17  1  0.96984500  0.40059900  0.32646200  1
  F  F18  1  0.53813100  0.05982000  0.36500800  1
  F  F19  1  0.53813100  0.44018000  0.36500800  1
  F  F20  1  0.96761200  0.63678400  0.36643400  1
  F  F21  1  0.96761200  0.86321600  0.36643400  1
  F  F22  1  0.76077100  0.25000000  0.43260400  1
  F  F23  1  0.14092600  0.25000000  0.44262000  1
  F  F24  1  0.59073300  0.63720400  0.44709400  1
  F  F25  1  0.59073300  0.86279600  0.44709400  1
  F  F26  1  0.24721500  0.53931000  0.45722200  1
  F  F27  1  0.24721500  0.96069000  0.45722200  1
  F  F28  1  0.75278500  0.03931000  0.54277800  1
  F  F29  1  0.75278500  0.46069000  0.54277800  1
  F  F30  1  0.40926700  0.13720400  0.55290600  1
  F  F31  1  0.40926700  0.36279600  0.55290600  1
  F  F32  1  0.85907400  0.75000000  0.55738000  1
  F  F33  1  0.23922900  0.75000000  0.56739600  1
  F  F34  1  0.03238800  0.13678400  0.63356600  1
  F  F35  1  0.03238800  0.36321600  0.63356600  1
  F  F36  1  0.46186900  0.55982000  0.63499200  1
  F  F37  1  0.46186900  0.94018000  0.63499200  1
  F  F38  1  0.03015500  0.59940100  0.67353800  1
  F  F39  1  0.03015500  0.90059900  0.67353800  1
  F  F40  1  0.71012800  0.25000000  0.70762600  1
  F  F41  1  0.32163600  0.25000000  0.73558600  1
  F  F42  1  0.82163600  0.75000000  0.76441400  1
  F  F43  1  0.21012800  0.75000000  0.79237400  1
  F  F44  1  0.53015500  0.09940100  0.82646200  1
  F  F45  1  0.53015500  0.40059900  0.82646200  1
  F  F46  1  0.96186900  0.05982000  0.86500800  1
  F  F47  1  0.96186900  0.44018000  0.86500800  1
  F  F48  1  0.53238800  0.63678400  0.86643400  1
  F  F49  1  0.53238800  0.86321600  0.86643400  1
  F  F50  1  0.73922900  0.25000000  0.93260400  1
  F  F51  1  0.35907400  0.25000000  0.94262000  1
  F  F52  1  0.90926700  0.63720400  0.94709400  1
  F  F53  1  0.90926700  0.86279600  0.94709400  1
  F  F54  1  0.25278500  0.96069000  0.95722200  1
  F  F55  1  0.25278500  0.53931000  0.95722200  1
loop_
_geom_bond_atom_site_label_1
_geom_bond_atom_site_label_2
_geom_bond_distance
_geom_bond_site_symmetry_2
F0 Sb0 1.930354 1_655
F1 Sb1 1.930354 1_655
F2 Sb0 1.955781 1_555
F2 Mg0 2.007817 1_555
F3 Sb1 1.955781 1_555
F3 Mg0 2.007817 1_555
F4 Mg3 1.963625 1_554
F4 Sb2 1.972666 1_555
F5 Sb2 1.899886 1_555
F6 H0 0.971201 1_555
F6 Mg0 2.014754 1_555
F7 H1 0.971201 1_555
F7 Mg0 2.014754 1_555
F8 Sb1 1.887371 1_555
F9 Sb0 1.887371 1_565
F10 Sb2 1.893867 1_555
F11 Sb2 1.893867 1_555
F12 Sb3 1.906641 1_555
F13 Mg0 1.965822 1_555
F13 Sb3 1.974848 1_455
F14 Mg1 1.965822 1_555
F14 Sb2 1.974848 1_555
F15 Sb2 1.906641 1_555
F16 Sb3 1.893867 1_555
F17 Sb3 1.893867 1_555
F18 Sb5 1.887371 1_555
F19 Sb4 1.887371 1_555
F20 H2 0.971201 1_655
F20 Mg1 2.014754 1_555
F21 H3 0.971201 1_655
F21 Mg1 2.014754 1_555
F22 Sb3 1.899886 1_555
F23 Mg2 1.963625 1_555
F23 Sb3 1.972666 1_455
F24 Sb4 1.955781 1_555
F24 Mg1 2.007817 1_555
F25 Sb5 1.955781 1_565
F25 Mg1 2.007817 1_555
F26 Sb4 1.930354 1_555
F27 Sb5 1.930354 1_565
F28 Sb5 1.930354 1_555
F29 Sb4 1.930354 1_555
F30 Sb5 1.955781 1_555
F30 Mg2 2.007817 1_555
F31 Sb4 1.955781 1_555
F31 Mg2 2.007817 1_555
F32 Mg1 1.963625 1_555
F32 Sb6 1.972666 1_655
F33 Sb6 1.899886 1_555
F34 H4 0.971201 1_455
F34 Mg2 2.014754 1_555
F35 H5 0.971201 1_455
F35 Mg2 2.014754 1_555
F36 Sb4 1.887371 1_555
F37 Sb5 1.887371 1_565
F38 Sb6 1.893867 1_555
F39 Sb6 1.893867 1_555
F40 Sb7 1.906641 1_555
F41 Mg2 1.965822 1_555
F41 Sb7 1.974848 1_555
F42 Mg3 1.965822 1_555
F42 Sb6 1.974848 1_655
F43 Sb6 1.906641 1_555
F44 Sb7 1.893867 1_555
F45 Sb7 1.893867 1_555
F46 Sb0 1.887371 1_656
F47 Sb1 1.887371 1_656
F48 H6 0.971201 1_555
F48 Mg3 2.014754 1_555
F49 H7 0.971201 1_555
F49 Mg3 2.014754 1_555
F50 Sb7 1.899886 1_555
F51 Mg0 1.963625 1_556
F51 Sb7 1.972666 1_555
F52 Sb1 1.955781 1_656
F52 Mg3 2.007817 1_555
F53 Sb0 1.955781 1_666
F53 Mg3 2.007817 1_555
F54 Sb0 1.930354 1_566
F55 Sb1 1.930354 1_556
