# generated using pymatgen
data_Pr2CuIr
_symmetry_space_group_name_H-M   'P 1'
_cell_length_a   5.08397896
_cell_length_b   5.08397896
_cell_length_c   5.08397896
_cell_angle_alpha   60.00000000
_cell_angle_beta   60.00000000
_cell_angle_gamma   60.00000000
_symmetry_Int_Tables_number   1
_chemical_formula_structural   Pr2CuIr
_chemical_formula_sum   'Pr2 Cu1 Ir1'
_cell_volume   92.91722619
_cell_formula_units_Z   1
loop_
 _symmetry_equiv_pos_site_id
 _symmetry_equiv_pos_as_xyz
  1  'x, y, z'
loop_
 _atom_site_type_symbol
 _atom_site_label
 _atom_site_symmetry_multiplicity
 _atom_site_fract_x
 _atom_site_fract_y
 _atom_site_fract_z
 _atom_site_occupancy
  Pr  Pr0  1  0.25000000  0.25000000  0.25000000  1
  Pr  Pr1  1  0.75000000  0.75000000  0.75000000  1
  Cu  Cu0  1  0.50000000  0.50000000  0.50000000  1
  Ir  Ir0  1  0.00000000  0.00000000  0.00000000  1
loop_
_geom_bond_atom_site_label_1
_geom_bond_atom_site_label_2
_geom_bond_distance
_geom_bond_site_symmetry_2
Cu0 Pr1 3.113289 1_545
Cu0 Pr1 3.113289 1_555
Cu0 Pr1 3.113289 1_554
Cu0 Pr0 3.113289 1_555
Cu0 Pr0 3.113289 1_556
Cu0 Pr0 3.113289 1_565
Cu0 Pr1 3.113289 1_455
Cu0 Pr0 3.113289 1_655
Ir0 Pr0 3.113289 1_545
Ir0 Pr1 3.113289 1_445
Ir0 Pr0 3.113289 1_554
Ir0 Pr0 3.113289 1_555
Ir0 Pr1 3.113289 1_454
Ir0 Pr1 3.113289 1_444
Ir0 Pr0 3.113289 1_455
Ir0 Pr1 3.113289 1_544
