# generated using pymatgen
data_BaCaI4
_symmetry_space_group_name_H-M   'P 1'
_cell_length_a   9.09102600
_cell_length_b   11.11802100
_cell_length_c   11.47795300
_cell_angle_alpha   90.00000000
_cell_angle_beta   90.00000000
_cell_angle_gamma   90.00000000
_symmetry_Int_Tables_number   1
_chemical_formula_structural   BaCaI4
_chemical_formula_sum   'Ba4 Ca4 I16'
_cell_volume   1160.12512348
_cell_formula_units_Z   4
loop_
 _symmetry_equiv_pos_site_id
 _symmetry_equiv_pos_as_xyz
  1  'x, y, z'
loop_
 _atom_site_type_symbol
 _atom_site_label
 _atom_site_symmetry_multiplicity
 _atom_site_fract_x
 _atom_site_fract_y
 _atom_site_fract_z
 _atom_site_occupancy
  Ba  Ba0  1  0.18071200  0.75000000  0.75000000  1
  Ba  Ba1  1  0.31928800  0.75000000  0.25000000  1
  Ba  Ba2  1  0.68071200  0.25000000  0.75000000  1
  Ba  Ba3  1  0.81928800  0.25000000  0.25000000  1
  Ca  Ca0  1  0.25000000  0.18342700  0.00000000  1
  Ca  Ca1  1  0.25000000  0.31657300  0.50000000  1
  Ca  Ca2  1  0.75000000  0.68342700  0.50000000  1
  Ca  Ca3  1  0.75000000  0.81657300  0.00000000  1
  I  I0  1  0.03699200  0.68988600  0.03285400  1
  I  I1  1  0.03699200  0.81011400  0.46714600  1
  I  I2  1  0.14520500  0.04445300  0.20799600  1
  I  I3  1  0.14520500  0.45554700  0.29200400  1
  I  I4  1  0.35479500  0.04445300  0.79200400  1
  I  I5  1  0.35479500  0.45554700  0.70799600  1
  I  I6  1  0.46300800  0.81011400  0.53285400  1
  I  I7  1  0.46300800  0.68988600  0.96714600  1
  I  I8  1  0.53699200  0.31011400  0.03285400  1
  I  I9  1  0.53699200  0.18988600  0.46714600  1
  I  I10  1  0.64520500  0.54445300  0.29200400  1
  I  I11  1  0.64520500  0.95554700  0.20799600  1
  I  I12  1  0.85479500  0.54445300  0.70799600  1
  I  I13  1  0.85479500  0.95554700  0.79200400  1
  I  I14  1  0.96300800  0.18988600  0.53285400  1
  I  I15  1  0.96300800  0.31011400  0.96714600  1
loop_
_geom_bond_atom_site_label_1
_geom_bond_atom_site_label_2
_geom_bond_distance
_geom_bond_site_symmetry_2
Ba0 I0 3.562879 1_556
Ba0 I1 3.562879 1_555
Ba0 I6 3.639356 1_555
Ba0 I7 3.639356 1_555
Ba0 I5 3.668021 1_555
Ba0 I4 3.668021 1_565
Ba0 I12 3.772773 1_455
Ba0 I13 3.772773 1_455
Ba1 I6 3.562879 1_555
Ba1 I7 3.562879 1_554
Ba1 I0 3.639356 1_555
Ba1 I1 3.639356 1_555
Ba1 I3 3.668021 1_555
Ba1 I2 3.668021 1_565
Ba1 I10 3.772773 1_555
Ba1 I11 3.772773 1_555
Ba2 I8 3.562879 1_556
Ba2 I9 3.562879 1_555
Ba2 I15 3.639356 1_555
Ba2 I14 3.639356 1_555
Ba2 I13 3.668021 1_545
Ba2 I12 3.668021 1_555
Ba2 I4 3.772773 1_555
Ba2 I5 3.772773 1_555
Ba3 I15 3.562879 1_554
Ba3 I14 3.562879 1_555
Ba3 I8 3.639356 1_555
Ba3 I9 3.639356 1_555
Ba3 I11 3.668021 1_545
Ba3 I10 3.668021 1_555
Ba3 I3 3.772773 1_655
Ba3 I2 3.772773 1_655
Ca0 I15 2.988854 1_454
Ca0 I8 2.988854 1_555
Ca0 I4 2.999089 1_554
Ca0 I2 2.999089 1_555
Ca1 I9 2.988854 1_555
Ca1 I14 2.988854 1_455
Ca1 I5 2.999089 1_555
Ca1 I3 2.999089 1_555
Ca2 I1 2.988854 1_655
Ca2 I6 2.988854 1_555
Ca2 I12 2.999089 1_555
Ca2 I10 2.999089 1_555
Ca3 I0 2.988854 1_655
Ca3 I7 2.988854 1_554
Ca3 I13 2.999089 1_554
Ca3 I11 2.999089 1_555
