# generated using pymatgen
data_Ca4SnS6
_symmetry_space_group_name_H-M   'P 1'
_cell_length_a   7.67673417
_cell_length_b   7.67673417
_cell_length_c   13.50416230
_cell_angle_alpha   70.45471271
_cell_angle_beta   70.45471271
_cell_angle_gamma   58.65871955
_symmetry_Int_Tables_number   1
_chemical_formula_structural   Ca4SnS6
_chemical_formula_sum   'Ca8 Sn2 S12'
_cell_volume   627.66885292
_cell_formula_units_Z   2
loop_
 _symmetry_equiv_pos_site_id
 _symmetry_equiv_pos_as_xyz
  1  'x, y, z'
loop_
 _atom_site_type_symbol
 _atom_site_label
 _atom_site_symmetry_multiplicity
 _atom_site_fract_x
 _atom_site_fract_y
 _atom_site_fract_z
 _atom_site_occupancy
  Ca  Ca0  1  0.69299300  0.91640000  0.86194800  1
  Ca  Ca1  1  0.91640000  0.69299300  0.36194800  1
  Ca  Ca2  1  0.22907300  0.48782700  0.04334100  1
  Ca  Ca3  1  0.48782700  0.22907300  0.54334100  1
  Ca  Ca4  1  0.05127400  0.26816300  0.85589800  1
  Ca  Ca5  1  0.26816300  0.05127400  0.35589800  1
  Ca  Ca6  1  0.35203700  0.71397700  0.70490500  1
  Ca  Ca7  1  0.71397700  0.35203700  0.20490500  1
  Sn  Sn0  1  0.31977700  0.87675100  0.10922600  1
  Sn  Sn1  1  0.87675100  0.31977700  0.60922600  1
  S  S0  1  0.59874600  0.08303300  0.36422800  1
  S  S1  1  0.08303300  0.59874600  0.86422800  1
  S  S2  1  0.54860800  0.58658000  0.01706500  1
  S  S3  1  0.58658000  0.54860800  0.51706500  1
  S  S4  1  0.51129500  0.07096200  0.05282200  1
  S  S5  1  0.07096200  0.51129500  0.55282200  1
  S  S6  1  0.04442200  0.98349100  0.56680700  1
  S  S7  1  0.98349100  0.04442200  0.06680700  1
  S  S8  1  0.00535900  0.41527900  0.24361000  1
  S  S9  1  0.41527900  0.00535900  0.74361000  1
  S  S10  1  0.71297300  0.30878000  0.79594900  1
  S  S11  1  0.30878000  0.71297300  0.29594900  1
loop_
_geom_bond_atom_site_label_1
_geom_bond_atom_site_label_2
_geom_bond_distance
_geom_bond_site_symmetry_2
Ca0 S1 2.707163 1_655
Ca0 S9 2.756834 1_565
Ca0 S4 2.813626 1_566
Ca0 S10 2.912738 1_565
Ca0 S2 3.137566 1_556
Ca1 S0 2.707163 1_565
Ca1 S8 2.756834 1_655
Ca1 S5 2.813626 1_655
Ca1 S11 2.912738 1_655
Ca1 S3 3.137566 1_555
Ca2 S1 2.697345 1_554
Ca2 S8 2.730052 1_555
Ca2 S4 2.765918 1_555
Ca2 S2 2.808892 1_555
Ca3 S0 2.697345 1_555
Ca3 S9 2.730052 1_555
Ca3 S5 2.765918 1_555
Ca3 S3 2.808892 1_555
Ca4 S1 2.713949 1_555
Ca4 S9 2.743213 1_555
Ca4 S10 2.809404 1_455
Ca4 S7 2.828027 1_456
Ca5 S0 2.713949 1_555
Ca5 S8 2.743213 1_555
Ca5 S11 2.809404 1_545
Ca5 S6 2.828027 1_545
Ca6 S1 2.707414 1_555
Ca6 S9 2.755764 1_565
Ca6 S3 2.829992 1_555
Ca6 S6 2.935556 1_555
Ca6 S10 3.101502 1_555
Ca7 S0 2.707414 1_555
Ca7 S8 2.755764 1_655
Ca7 S2 2.829992 1_555
Ca7 S7 2.935556 1_555
Ca7 S11 3.101502 1_555
S2 Sn0 2.432760 1_555
S3 Sn1 2.432760 1_555
S4 Sn0 2.394924 1_545
S5 Sn1 2.394924 1_455
S6 Sn1 2.385137 1_465
S7 Sn0 2.385137 1_645
S10 Sn1 2.406817 1_555
S11 Sn0 2.406817 1_555
