# generated using pymatgen
data_Li9Nb10Cr6(PO4)24
_symmetry_space_group_name_H-M   'P 1'
_cell_length_a   8.76177740
_cell_length_b   8.84414090
_cell_length_c   24.52532467
_cell_angle_alpha   89.95293101
_cell_angle_beta   90.04225667
_cell_angle_gamma   89.99422967
_symmetry_Int_Tables_number   1
_chemical_formula_structural   Li9Nb10Cr6(PO4)24
_chemical_formula_sum   'Li9 Nb10 Cr6 P24 O96'
_cell_volume   1900.47590021
_cell_formula_units_Z   1
loop_
 _symmetry_equiv_pos_site_id
 _symmetry_equiv_pos_as_xyz
  1  'x, y, z'
loop_
 _atom_site_type_symbol
 _atom_site_label
 _atom_site_symmetry_multiplicity
 _atom_site_fract_x
 _atom_site_fract_y
 _atom_site_fract_z
 _atom_site_occupancy
  Li  Li0  1  0.99910519  0.97434348  0.99350392  1
  Li  Li1  1  0.99872079  0.52615077  0.49444417  1
  Li  Li2  1  0.46761462  0.96691244  0.71374464  1
  Li  Li3  1  0.49938440  0.50385384  0.99833813  1
  Li  Li4  1  0.49973848  0.99645889  0.49763278  1
  Li  Li5  1  0.53516061  0.03502245  0.28723193  1
  Li  Li6  1  0.53374305  0.46711443  0.78681091  1
  Li  Li7  1  0.96466427  0.53406956  0.28760109  1
  Li  Li8  1  0.96345430  0.96222217  0.78741529  1
  Nb  Nb0  1  0.00495212  0.21008748  0.32007305  1
  Nb  Nb1  1  0.00483152  0.28891499  0.81998781  1
  Nb  Nb2  1  0.49597347  0.78526961  0.82343741  1
  Nb  Nb3  1  0.49529153  0.71093684  0.32110522  1
  Nb  Nb4  1  0.50090788  0.22286623  0.17905468  1
  Nb  Nb5  1  0.50127803  0.28622138  0.67822139  1
  Nb  Nb6  1  0.00204633  0.72570506  0.17988603  1
  Nb  Nb7  1  0.00093659  0.77424751  0.67912074  1
  Nb  Nb8  1  0.00043584  0.21201649  0.56612940  1
  Nb  Nb9  1  0.00136184  0.28823065  0.06568515  1
  Cr  Cr0  1  0.99882547  0.78708908  0.43191257  1
  Cr  Cr1  1  0.99926485  0.71376912  0.93225747  1
  Cr  Cr2  1  0.50033435  0.28652984  0.43260691  1
  Cr  Cr3  1  0.50028307  0.21172178  0.93286644  1
  Cr  Cr4  1  0.50040220  0.71440309  0.56545246  1
  Cr  Cr5  1  0.49974174  0.78539247  0.06625122  1
  P  P0  1  0.13940845  0.35385091  0.19923915  1
  P  P1  1  0.14029533  0.14241819  0.69977692  1
  P  P2  1  0.15720255  0.64349424  0.05027079  1
  P  P3  1  0.15767111  0.85736673  0.55002561  1
  P  P4  1  0.20891539  0.50142459  0.38110033  1
  P  P5  1  0.20811716  0.99804153  0.88068882  1
  P  P6  1  0.29175585  0.00262536  0.38100535  1
  P  P7  1  0.28968954  0.49683014  0.88153846  1
  P  P8  1  0.35333993  0.13031205  0.05018830  1
  P  P9  1  0.35144909  0.36852379  0.54949976  1
  P  P10  1  0.36539733  0.65148685  0.69749544  1
  P  P11  1  0.36579134  0.85369318  0.19697984  1
  P  P12  1  0.64084406  0.14885460  0.80231667  1
  P  P13  1  0.64154969  0.35434003  0.30325673  1
  P  P14  1  0.65412485  0.63194848  0.44980292  1
  P  P15  1  0.65579273  0.86692783  0.95101945  1
  P  P16  1  0.70921296  0.50984297  0.12090081  1
  P  P17  1  0.70751222  0.99017131  0.62093869  1
  P  P18  1  0.78281121  -0.00000989  0.12037351  1
  P  P19  1  0.78523019  0.49947686  0.61992644  1
  P  P20  1  0.84091856  0.12978514  0.44731189  1
  P  P21  1  0.84199053  0.37126261  0.94717534  1
  P  P22  1  0.85752688  0.64539890  0.80366936  1
  P  P23  1  0.85694422  0.85282279  0.30300577  1
  O  O0  1  0.07197269  0.74375967  0.00961818  1
  O  O1  1  0.07121623  0.75707359  0.50962291  1
  O  O2  1  0.07665203  0.24289937  0.24229412  1
  O  O3  1  0.08013870  0.25378595  0.74344286  1
  O  O4  1  0.08323484  0.30514016  0.14265353  1
  O  O5  1  0.08498126  0.19642507  0.64375721  1
  O  O6  1  0.08654247  0.51716546  0.21322996  1
  O  O7  1  0.07873018  0.98170947  0.71397105  1
  O  O8  1  0.10380471  0.69289032  0.10834481  1
  O  O9  1  0.10596321  0.80774224  0.60832539  1
  O  O10  1  0.10062153  0.42101365  0.33888267  1
  O  O11  1  0.09623194  0.08507744  0.84033717  1
  O  O12  1  0.10982474  0.58924878  0.42139264  1
  O  O13  1  0.10601475  0.91364682  0.92101990  1
  O  O14  1  0.10916297  0.47351643  0.04400599  1
  O  O15  1  0.10919746  0.02702355  0.54417803  1
  O  O16  1  0.17579804  0.15189746  0.04658537  1
  O  O17  1  0.17428986  0.34892417  0.54542396  1
  O  O18  1  0.18824058  0.84691045  0.20090065  1
  O  O19  1  0.18834041  0.65706850  0.70158186  1
  O  O20  1  0.18718061  0.60688580  0.91055228  1
  O  O21  1  0.18708830  0.89379031  0.41043676  1
  O  O22  1  0.20184507  0.11199488  0.34229409  1
  O  O23  1  0.19276818  0.38628276  0.84462727  1
  O  O24  1  0.30569849  0.61282828  0.34438023  1
  O  O25  1  0.29682003  0.88936748  0.84220856  1
  O  O26  1  0.31104557  0.10714518  0.91070377  1
  O  O27  1  0.31176438  0.39233216  0.41058555  1
  O  O28  1  0.31564242  0.34390412  0.20073750  1
  O  O29  1  0.31701849  0.13820240  0.70201580  1
  O  O30  1  0.33079321  0.64400993  0.04457637  1
  O  O31  1  0.33128490  0.85657082  0.54415259  1
  O  O32  1  0.38244598  0.53583031  0.54345083  1
  O  O33  1  0.38202661  0.96330032  0.04336678  1
  O  O34  1  0.39230888  0.08710356  0.42156428  1
  O  O35  1  0.38873284  0.40929050  0.92185869  1
  O  O36  1  0.39837203  0.57651915  0.83904943  1
  O  O37  1  0.40284769  0.91583059  0.34066311  1
  O  O38  1  0.40202938  0.18346864  0.10915749  1
  O  O39  1  0.39806104  0.31288302  0.60881292  1
  O  O40  1  0.41797037  0.01952810  0.21136134  1
  O  O41  1  0.41840906  0.48981998  0.71411386  1
  O  O42  1  0.42361800  0.70481551  0.64279362  1
  O  O43  1  0.42443681  0.80016763  0.14292496  1
  O  O44  1  0.42597673  0.75284468  0.24441413  1
  O  O45  1  0.42486576  0.76429313  0.74219310  1
  O  O46  1  0.43117617  0.23887030  0.01044369  1
  O  O47  1  0.42984533  0.26064353  0.51000854  1
  O  O48  1  0.57078370  0.74068118  0.48858142  1
  O  O49  1  0.57211382  0.75804742  0.98955158  1
  O  O50  1  0.57936614  0.24471065  0.25773354  1
  O  O51  1  0.58232478  0.26440913  0.75820168  1
  O  O52  1  0.58479935  0.20356042  0.85705167  1
  O  O53  1  0.58332124  0.29050469  0.35641862  1
  O  O54  1  0.58556386  0.51793005  0.29142057  1
  O  O55  1  0.58452254  0.98833213  0.78599451  1
  O  O56  1  0.59722614  0.68349262  0.39043097  1
  O  O57  1  0.60108366  0.81320653  0.89140756  1
  O  O58  1  0.60537078  0.41101592  0.15861565  1
  O  O59  1  0.59954532  0.07663487  0.66101581  1
  O  O60  1  0.61017569  0.58943131  0.07921650  1
  O  O61  1  0.61275390  0.91006310  0.57782646  1
  O  O62  1  0.61484243  0.46571302  0.45621438  1
  O  O63  1  0.61480983  0.03309878  0.95695972  1
  O  O64  1  0.66888027  0.14561798  0.45417485  1
  O  O65  1  0.66960834  0.35354497  0.95350080  1
  O  O66  1  0.68061186  0.63856069  0.79932524  1
  O  O67  1  0.67893800  0.85140775  0.29887706  1
  O  O68  1  0.68449923  0.60176535  0.58645697  1
  O  O69  1  0.68494217  0.89785465  0.08618590  1
  O  O70  1  0.68695564  0.11000715  0.15631283  1
  O  O71  1  0.69743809  0.38765126  0.65670976  1
  O  O72  1  0.80563175  0.61259654  0.15823642  1
  O  O73  1  0.80573113  0.88427593  0.65693308  1
  O  O74  1  0.81346532  0.10375901  0.59130632  1
  O  O75  1  0.81652944  0.40032302  0.08980795  1
  O  O76  1  0.81918411  0.14696051  0.79822815  1
  O  O77  1  0.81839692  0.35787624  0.29802444  1
  O  O78  1  0.82901934  0.64675406  0.45358540  1
  O  O79  1  0.83018171  0.85346746  0.95497179  1
  O  O80  1  0.88589739  0.96592595  0.45573304  1
  O  O81  1  0.88598960  0.53450478  0.95608466  1
  O  O82  1  0.88733632  0.09316450  0.08200693  1
  O  O83  1  0.89062416  0.41055136  0.58059361  1
  O  O84  1  0.89440189  0.58656999  0.65892687  1
  O  O85  1  0.89016414  0.91475111  0.16033322  1
  O  O86  1  0.89964269  0.18893862  0.39043663  1
  O  O87  1  0.90098511  0.31507627  0.89016181  1
  O  O88  1  0.90510529  0.01673557  0.28964312  1
  O  O89  1  0.91413995  0.48163990  0.79183771  1
  O  O90  1  0.91413517  0.70668812  0.85740752  1
  O  O91  1  0.91436066  0.79269375  0.35706849  1
  O  O92  1  0.91712960  0.73890283  0.25881123  1
  O  O93  1  0.91795664  0.75640323  0.75889954  1
  O  O94  1  0.92373665  0.23539616  0.48936232  1
  O  O95  1  0.92560161  0.26412200  0.98877075  1
loop_
_geom_bond_atom_site_label_1
_geom_bond_atom_site_label_2
_geom_bond_distance
_geom_bond_site_symmetry_2
Li0 O79 2.055828 1_555
Li0 O13 2.080799 1_655
Li0 O0 2.172707 1_656
Li0 O16 2.560916 1_666
Li0 O82 2.604107 1_566
Li0 O95 2.644895 1_565
Li1 O78 2.085286 1_555
Li1 O12 2.114231 1_655
Li1 O1 2.171233 1_655
Li1 O17 2.525837 1_655
Li1 O83 2.531006 1_555
Li1 O94 2.657142 1_555
Li2 O45 1.958774 1_555
Li2 O59 1.987613 1_565
Li2 O29 2.029059 1_565
Li2 O55 2.054957 1_555
Li3 O30 2.238055 1_556
Li3 O35 2.271043 1_555
Li3 O65 2.281512 1_555
Li3 O60 2.334409 1_556
Li3 O49 2.346544 1_555
Li3 O46 2.436583 1_556
Li4 O34 2.236953 1_565
Li4 O31 2.238591 1_555
Li4 O64 2.252311 1_565
Li4 O61 2.329610 1_555
Li4 O48 2.356854 1_555
Li4 O47 2.434638 1_565
Li5 O50 2.027554 1_555
Li5 O37 2.042697 1_545
Li5 O67 2.074589 1_545
Li5 O40 2.129110 1_555
Li6 O51 1.972264 1_555
Li6 O36 1.997117 1_555
Li6 O66 2.012426 1_555
Li6 O41 2.058400 1_555
Li7 O92 1.987744 1_555
Li7 O10 1.999018 1_655
Li7 O77 2.033768 1_555
Li7 O6 2.119640 1_655
Li8 O93 1.990805 1_555
Li8 O11 2.054014 1_665
Li8 O7 2.072809 1_655
Li8 O76 2.082893 1_565
Nb0 O86 1.966269 1_455
Nb0 O22 2.005804 1_555
Nb0 O2 2.029415 1_555
Nb0 O88 2.061056 1_455
Nb0 O10 2.096795 1_555
Nb0 O77 2.160950 1_455
Nb1 O23 1.953939 1_555
Nb1 O87 1.961202 1_455
Nb1 O89 2.002578 1_455
Nb1 O3 2.014660 1_555
Nb1 O11 2.034212 1_555
Nb1 O76 2.122982 1_455
Nb2 O57 1.920030 1_555
Nb2 O25 2.026305 1_555
Nb2 O36 2.070282 1_555
Nb2 O45 2.095617 1_555
Nb2 O66 2.156999 1_555
Nb2 O55 2.160819 1_555
Nb3 O56 1.935054 1_555
Nb3 O24 1.959360 1_555
Nb3 O44 2.010230 1_555
Nb3 O54 2.017923 1_555
Nb3 O37 2.042444 1_555
Nb3 O67 2.104828 1_555
Nb4 O38 1.951790 1_555
Nb4 O58 1.964077 1_555
Nb4 O70 1.991622 1_555
Nb4 O28 2.016314 1_555
Nb4 O50 2.057188 1_555
Nb4 O40 2.094920 1_555
Nb5 O39 1.941188 1_555
Nb5 O71 2.009451 1_555
Nb5 O59 2.087284 1_555
Nb5 O51 2.094378 1_555
Nb5 O41 2.132537 1_555
Nb5 O29 2.158998 1_555
Nb6 O8 1.990167 1_555
Nb6 O85 1.995995 1_455
Nb6 O18 2.018956 1_555
Nb6 O72 2.060128 1_455
Nb6 O92 2.077613 1_455
Nb6 O6 2.148218 1_555
Nb7 O84 1.967906 1_455
Nb7 O9 1.987659 1_555
Nb7 O19 2.017669 1_555
Nb7 O73 2.041018 1_455
Nb7 O93 2.093660 1_455
Nb7 O7 2.136276 1_555
Nb8 O15 1.968925 1_555
Nb8 O74 1.995617 1_455
Nb8 O94 2.009113 1_455
Nb8 O17 2.011177 1_555
Nb8 O83 2.033674 1_455
Nb8 O5 2.046913 1_555
Nb9 O14 1.964629 1_555
Nb9 O75 1.989350 1_455
Nb9 O16 2.002695 1_555
Nb9 O95 2.010783 1_454
Nb9 O4 2.024540 1_555
Nb9 O82 2.033338 1_455
Cr0 O80 1.955507 1_555
Cr0 O21 1.972215 1_655
Cr0 O91 1.979223 1_555
Cr0 O78 2.009223 1_555
Cr0 O12 2.018598 1_655
Cr0 O1 2.025455 1_655
Cr1 O81 1.959540 1_555
Cr1 O20 1.972216 1_655
Cr1 O90 1.981997 1_555
Cr1 O79 2.008371 1_555
Cr1 O0 2.018662 1_656
Cr1 O13 2.018817 1_655
Cr2 O62 1.963194 1_555
Cr2 O27 1.973477 1_555
Cr2 O64 2.002784 1_555
Cr2 O53 2.005812 1_555
Cr2 O47 2.009588 1_555
Cr2 O34 2.020092 1_555
Cr3 O63 1.961892 1_555
Cr3 O26 1.974797 1_555
Cr3 O52 2.003275 1_555
Cr3 O65 2.007668 1_555
Cr3 O46 2.011620 1_556
Cr3 O35 2.019849 1_555
Cr4 O32 1.963280 1_555
Cr4 O68 1.963972 1_555
Cr4 O48 1.997404 1_555
Cr4 O31 2.011681 1_555
Cr4 O61 2.014037 1_555
Cr4 O42 2.014783 1_555
Cr5 O33 1.962616 1_555
Cr5 O69 1.965039 1_555
Cr5 O43 1.997679 1_555
Cr5 O49 2.000383 1_554
Cr5 O30 2.009393 1_555
Cr5 O60 2.009806 1_555
O0 P2 1.528190 1_555
O1 P3 1.530660 1_555
O2 P0 1.542564 1_555
O3 P1 1.548314 1_555
O4 P0 1.534206 1_555
O5 P1 1.532491 1_555
O6 P0 1.555452 1_555
O7 P1 1.559474 1_565
O8 P2 1.562144 1_555
O9 P3 1.562764 1_555
O10 P4 1.574173 1_555
O11 P5 1.590625 1_545
O12 P4 1.528395 1_555
O13 P5 1.528407 1_555
O14 P2 1.568796 1_555
O15 P3 1.565818 1_545
O16 P8 1.569649 1_555
O17 P9 1.565027 1_555
O18 P11 1.559857 1_555
O19 P10 1.555422 1_555
O20 P7 1.504107 1_555
O21 P6 1.512799 1_565
O22 P6 1.566790 1_555
O23 P7 1.580196 1_555
O24 P4 1.581365 1_555
O25 P5 1.555914 1_555
O26 P5 1.512164 1_545
O27 P4 1.504523 1_555
O28 P0 1.547026 1_555
O29 P1 1.549786 1_555
O30 P2 1.527471 1_555
O31 P3 1.528091 1_555
O32 P9 1.511624 1_555
O33 P8 1.507750 1_565
O34 P6 1.524450 1_555
O35 P7 1.525671 1_555
O36 P7 1.577902 1_555
O37 P6 1.586860 1_565
O38 P8 1.579514 1_555
O39 P9 1.588375 1_555
O40 P11 1.576477 1_545
O41 P10 1.557185 1_555
O42 P10 1.510802 1_555
O43 P11 1.499209 1_555
O44 P11 1.557002 1_555
O45 P10 1.571501 1_555
O46 P8 1.528599 1_555
O47 P9 1.523998 1_555
O48 P14 1.537815 1_555
O49 P15 1.535430 1_555
O50 P13 1.576206 1_555
O51 P12 1.573271 1_555
O52 P12 1.509712 1_555
O53 P13 1.509564 1_555
O54 P13 1.554708 1_555
O55 P12 1.555651 1_565
O56 P14 1.604498 1_555
O57 P15 1.610315 1_555
O58 P16 1.564417 1_555
O59 P17 1.564674 1_545
O60 P16 1.513594 1_555
O61 P17 1.519638 1_555
O62 P14 1.518060 1_555
O63 P15 1.519976 1_545
O64 P20 1.523301 1_555
O65 P21 1.526501 1_555
O66 P22 1.554855 1_555
O67 P23 1.562912 1_555
O68 P19 1.506219 1_555
O69 P18 1.501542 1_565
O70 P18 1.559281 1_555
O71 P19 1.543811 1_555
O72 P16 1.542198 1_555
O73 P17 1.547374 1_555
O74 P17 1.548916 1_545
O75 P16 1.551105 1_555
O76 P12 1.565952 1_555
O77 P13 1.555210 1_555
O78 P14 1.540718 1_555
O79 P15 1.535561 1_555
O80 P20 1.515718 1_565
O81 P21 1.510379 1_555
O82 P18 1.550268 1_555
O83 P19 1.550560 1_555
O84 P19 1.556653 1_555
O85 P18 1.552668 1_565
O86 P20 1.576088 1_555
O87 P21 1.572082 1_555
O88 P23 1.544846 1_545
O89 P22 1.558397 1_555
O90 P22 1.508996 1_555
O91 P23 1.513839 1_555
O92 P23 1.571789 1_555
O93 P22 1.564907 1_555
O94 P20 1.569448 1_555
O95 P21 1.572392 1_555
