# generated using pymatgen
data_Li4CoNi3O8
_symmetry_space_group_name_H-M   'P 1'
_cell_length_a   5.79486038
_cell_length_b   5.82533180
_cell_length_c   5.78361683
_cell_angle_alpha   59.78889904
_cell_angle_beta   60.45124960
_cell_angle_gamma   59.83457854
_symmetry_Int_Tables_number   1
_chemical_formula_structural   Li4CoNi3O8
_chemical_formula_sum   'Li4 Co1 Ni3 O8'
_cell_volume   138.12013129
_cell_formula_units_Z   1
loop_
 _symmetry_equiv_pos_site_id
 _symmetry_equiv_pos_as_xyz
  1  'x, y, z'
loop_
 _atom_site_type_symbol
 _atom_site_label
 _atom_site_symmetry_multiplicity
 _atom_site_fract_x
 _atom_site_fract_y
 _atom_site_fract_z
 _atom_site_occupancy
  Li  Li0  1  0.49998200  0.50000600  0.49999900  1
  Li  Li1  1  0.00001700  0.49999500  0.49999700  1
  Li  Li2  1  0.49999000  0.00000700  0.50001100  1
  Li  Li3  1  0.99999900  0.99999300  0.49999300  1
  Co  Co0  1  0.99999800  0.00000500  0.99999400  1
  Ni  Ni0  1  0.00001000  0.49998700  0.99999600  1
  Ni  Ni1  1  0.50000000  0.49999400  0.00000100  1
  Ni  Ni2  1  0.49999700  0.99999800  0.00001300  1
  O  O0  1  0.75888500  0.77961100  0.21934100  1
  O  O1  1  0.23105800  0.76075600  0.24536500  1
  O  O2  1  0.76093300  0.24092400  0.22040400  1
  O  O3  1  0.28267600  0.25353600  0.21123000  1
  O  O4  1  0.71733600  0.74646600  0.78876500  1
  O  O5  1  0.23906500  0.75908400  0.77958200  1
  O  O6  1  0.76895300  0.23924400  0.75461900  1
  O  O7  1  0.24111700  0.22038900  0.78067000  1
loop_
_geom_bond_atom_site_label_1
_geom_bond_atom_site_label_2
_geom_bond_distance
_geom_bond_site_symmetry_2
Li0 O1 2.130284 1_555
Li0 O6 2.130423 1_555
Li0 O5 2.220296 1_555
Li0 O2 2.220360 1_555
Li0 O7 2.220678 1_555
Li0 O0 2.220777 1_555
Li1 O1 2.028940 1_555
Li1 O6 2.028988 1_455
Li1 O7 2.128182 1_555
Li1 O0 2.128237 1_455
Li1 O3 2.210199 1_555
Li1 O4 2.210254 1_455
Li2 O3 2.068714 1_555
Li2 O4 2.068717 1_545
Li2 O7 2.072033 1_555
Li2 O0 2.072136 1_545
Li2 O5 2.075540 1_545
Li2 O2 2.075605 1_555
Li3 O1 2.036911 1_655
Li3 O6 2.036965 1_565
Li3 O2 2.115496 1_565
Li3 O5 2.115503 1_655
Li3 O4 2.214536 1_555
Li3 O3 2.214652 1_665
Co0 O2 1.902233 1_556
Co0 O5 1.902250 1_645
Co0 O7 1.904013 1_655
Co0 O0 1.904024 1_546
Co0 O6 1.938370 1_555
Co0 O1 1.938413 1_646
Ni0 O3 2.020404 1_556
Ni0 O4 2.020428 1_455
Ni0 O2 2.060368 1_456
Ni0 O5 2.060421 1_555
Ni0 O7 2.063528 1_555
Ni0 O0 2.063715 1_456
Ni1 O3 1.916816 1_555
Ni1 O4 1.916925 1_554
Ni1 O2 1.964837 1_555
Ni1 O5 1.964911 1_554
Ni1 O1 2.087800 1_555
Ni1 O6 2.087825 1_554
Ni2 O3 1.920596 1_565
Ni2 O4 1.920691 1_554
Ni2 O0 1.952034 1_555
Ni2 O7 1.952058 1_564
Ni2 O1 2.096677 1_555
Ni2 O6 2.096761 1_564
