# generated using pymatgen
data_Li3V3P8O29
_symmetry_space_group_name_H-M   'P 1'
_cell_length_a   9.78247963
_cell_length_b   9.78247963
_cell_length_c   13.97302043
_cell_angle_alpha   89.98762452
_cell_angle_beta   89.98762452
_cell_angle_gamma   59.88756466
_symmetry_Int_Tables_number   1
_chemical_formula_structural   Li3V3P8O29
_chemical_formula_sum   'Li6 V6 P16 O58'
_cell_volume   1156.71310920
_cell_formula_units_Z   2
loop_
 _symmetry_equiv_pos_site_id
 _symmetry_equiv_pos_as_xyz
  1  'x, y, z'
loop_
 _atom_site_type_symbol
 _atom_site_label
 _atom_site_symmetry_multiplicity
 _atom_site_fract_x
 _atom_site_fract_y
 _atom_site_fract_z
 _atom_site_occupancy
  Li  Li0  1  0.77284200  0.90584500  0.19503100  1
  Li  Li1  1  0.77276600  0.31726500  0.68842100  1
  Li  Li2  1  0.68273500  0.22723400  0.31157900  1
  Li  Li3  1  0.31297400  0.77787400  0.19636200  1
  Li  Li4  1  0.22212600  0.68702600  0.80363800  1
  Li  Li5  1  0.09415500  0.22715800  0.80496900  1
  V  V0  1  0.56486200  0.43513800  0.50000000  1
  V  V1  1  0.43593000  0.56407000  0.00000000  1
  V  V2  1  0.56388800  0.00305200  0.99235100  1
  V  V3  1  0.43181400  0.00232200  0.50264300  1
  V  V4  1  0.99767800  0.56818600  0.49735700  1
  V  V5  1  0.99694800  0.43611200  0.00764900  1
  P  P0  1  0.91591600  0.76769900  0.90669100  1
  P  P1  1  0.76861800  0.91370000  0.40973600  1
  P  P2  1  0.91547200  0.31282200  0.40475300  1
  P  P3  1  0.66749700  0.66606000  0.62108500  1
  P  P4  1  0.66338300  0.67167200  0.12173700  1
  P  P5  1  0.77323200  0.31631400  0.90794500  1
  P  P6  1  0.68368600  0.22676800  0.09205500  1
  P  P7  1  0.31273500  0.91492100  0.90657500  1
  P  P8  1  0.68717800  0.08452800  0.59524700  1
  P  P9  1  0.31660900  0.77402200  0.40942100  1
  P  P10  1  0.22597800  0.68339100  0.59057900  1
  P  P11  1  0.33394000  0.33250300  0.37891500  1
  P  P12  1  0.32832800  0.33661700  0.87826300  1
  P  P13  1  0.08507900  0.68726500  0.09342500  1
  P  P14  1  0.23230100  0.08408400  0.09330900  1
  P  P15  1  0.08630000  0.23138200  0.59026400  1
  O  O0  1  0.99425300  0.76645000  0.18008900  1
  O  O1  1  0.91313300  0.74500800  0.41334700  1
  O  O2  1  0.76793800  0.00046900  0.68339500  1
  O  O3  1  0.74435300  0.91044300  0.91518400  1
  O  O4  1  0.90856800  0.61501500  0.92865800  1
  O  O5  1  0.81587300  0.66326300  0.57475200  1
  O  O6  1  0.90805200  0.47375900  0.42550000  1
  O  O7  1  0.00001100  0.24364600  0.68186400  1
  O  O8  1  0.91890200  0.33898100  0.91344700  1
  O  O9  1  0.66815100  0.81745500  0.07970900  1
  O  O10  1  0.61682300  0.90557800  0.42710600  1
  O  O11  1  0.81261400  0.51961800  0.07652500  1
  O  O12  1  0.67090500  0.65691000  0.72739000  1
  O  O13  1  0.66321200  0.66878200  0.22769200  1
  O  O14  1  0.66987000  0.51141400  0.57974600  1
  O  O15  1  0.47635200  0.90439800  0.92506400  1
  O  O16  1  0.52016400  0.81402000  0.57723700  1
  O  O17  1  0.74306300  0.34019200  0.41122600  1
  O  O18  1  0.79246100  0.20753900  0.00000000  1
  O  O19  1  0.75061500  0.24082800  0.18321600  1
  O  O20  1  0.75917200  0.24938500  0.81678400  1
  O  O21  1  0.61908000  0.47863400  0.93029700  1
  O  O22  1  0.51232300  0.67040200  0.07930400  1
  O  O23  1  0.65980800  0.25693700  0.58877400  1
  O  O24  1  0.47780700  0.61872800  0.42971400  1
  O  O25  1  0.34338300  0.91585700  0.41736000  1
  O  O26  1  0.79001800  0.00597000  0.49775400  1
  O  O27  1  0.75635400  0.99998900  0.31813600  1
  O  O28  1  0.24047300  0.99556700  0.17999300  1
  O  O29  1  0.66101900  0.08109800  0.08655300  1
  O  O30  1  0.52136600  0.38092000  0.06970300  1
  O  O31  1  0.33866000  0.74414500  0.91025600  1
  O  O32  1  0.48858600  0.33013000  0.42025400  1
  O  O33  1  0.38127200  0.52219300  0.57028600  1
  O  O34  1  0.24036300  0.75178000  0.68166700  1
  O  O35  1  0.24822000  0.75963700  0.31833300  1
  O  O36  1  0.20578200  0.79421800  0.50000000  1
  O  O37  1  0.25585500  0.66134000  0.08974400  1
  O  O38  1  0.48038200  0.18738600  0.92347500  1
  O  O39  1  0.52624100  0.09194800  0.57450000  1
  O  O40  1  0.32959800  0.48767700  0.92069600  1
  O  O41  1  0.33121800  0.33678800  0.77230800  1
  O  O42  1  0.34309000  0.32909500  0.27261000  1
  O  O43  1  0.18598000  0.47983600  0.42276300  1
  O  O44  1  0.38498500  0.09143200  0.07134200  1
  O  O45  1  0.33673700  0.18412700  0.42524800  1
  O  O46  1  0.08414300  0.65661700  0.58264000  1
  O  O47  1  0.00200000  0.79171100  0.99944100  1
  O  O48  1  0.00443300  0.75952700  0.82000700  1
  O  O49  1  0.09560200  0.52364800  0.07493600  1
  O  O50  1  0.18254500  0.33184900  0.92029100  1
  O  O51  1  0.09442200  0.38317700  0.57289400  1
  O  O52  1  0.25499200  0.08686700  0.58665300  1
  O  O53  1  0.23355000  0.00574700  0.81991100  1
  O  O54  1  0.20828900  0.99800000  0.00055900  1
  O  O55  1  0.08955700  0.25564700  0.08481600  1
  O  O56  1  0.99953100  0.23206200  0.31660500  1
  O  O57  1  0.99403000  0.20998200  0.50224600  1
loop_
_geom_bond_atom_site_label_1
_geom_bond_atom_site_label_2
_geom_bond_distance
_geom_bond_site_symmetry_2
Li0 O0 1.905453 1_555
Li0 O27 1.919534 1_555
Li0 O29 2.133353 1_565
Li0 O9 2.298474 1_555
Li1 O20 1.940021 1_555
Li1 O7 1.965299 1_655
Li1 O23 2.040438 1_555
Li1 O14 2.237733 1_555
Li2 O19 1.940021 1_555
Li2 O27 1.965299 1_545
Li2 O17 2.040438 1_555
Li2 O32 2.237733 1_555
Li3 O35 1.857563 1_555
Li3 O28 1.890710 1_555
Li3 O37 2.114586 1_555
Li3 O22 2.350708 1_555
Li4 O34 1.857563 1_555
Li4 O48 1.890710 1_555
Li4 O31 2.114586 1_555
Li4 O40 2.350708 1_555
Li5 O53 1.905453 1_555
Li5 O7 1.919534 1_555
Li5 O8 2.133353 1_455
Li5 O50 2.298474 1_555
O0 P13 1.471478 1_655
O1 P1 1.543860 1_555
O1 V4 1.902140 1_555
O2 P8 1.471576 1_555
O3 P0 1.558578 1_555
O3 V2 1.869441 1_565
O4 P0 1.561355 1_555
O4 V5 1.873492 1_556
O5 P3 1.576849 1_555
O5 V4 1.880818 1_555
O6 P2 1.566350 1_555
O6 V4 1.855682 1_555
O7 P15 1.504372 1_555
O8 P5 1.550114 1_555
O8 V5 1.986769 1_556
O9 P4 1.564364 1_555
O9 V2 1.992026 1_564
O10 P1 1.545465 1_555
O10 V3 1.888440 1_565
O11 P4 1.601241 1_555
O11 V5 1.834872 1_555
O12 P3 1.487452 1_555
O13 P4 1.480792 1_555
O14 P3 1.608713 1_555
O14 V0 1.903572 1_555
O15 P7 1.572908 1_555
O15 V2 1.838099 1_565
O16 P3 1.566675 1_555
O16 V3 1.904904 1_565
O17 P2 1.572030 1_555
O17 V0 1.953257 1_555
O18 P6 1.618911 1_555
O18 P5 1.618911 1_554
O19 P6 1.470013 1_555
O20 P5 1.470013 1_555
O21 P5 1.578078 1_555
O21 V1 1.831463 1_556
O22 P4 1.598195 1_555
O22 V1 1.910298 1_555
O23 P8 1.572030 1_555
O23 V0 1.953257 1_555
O24 P9 1.572004 1_555
O24 V0 1.838534 1_555
O25 P9 1.539733 1_555
O25 V3 1.902352 1_565
O26 P1 1.600424 1_545
O26 P8 1.637855 1_555
O27 P1 1.504372 1_555
O28 P14 1.467456 1_565
O29 P6 1.550114 1_555
O29 V2 1.986769 1_554
O30 P6 1.578078 1_555
O30 V1 1.831463 1_555
O31 P7 1.559729 1_555
O31 V1 1.974525 1_556
O32 P11 1.608713 1_555
O32 V0 1.903572 1_555
O33 P10 1.572004 1_555
O33 V0 1.838534 1_555
O34 P10 1.477243 1_555
O35 P9 1.477243 1_555
O36 P10 1.612742 1_555
O36 P9 1.612742 1_555
O37 P13 1.559729 1_555
O37 V1 1.974525 1_555
O38 P12 1.601241 1_555
O38 V2 1.834872 1_555
O39 P8 1.566350 1_555
O39 V3 1.855682 1_555
O40 P12 1.598195 1_555
O40 V1 1.910298 1_556
O41 P12 1.480792 1_555
O42 P11 1.487452 1_555
O43 P11 1.566675 1_555
O43 V4 1.904904 1_455
O44 P14 1.561355 1_555
O44 V2 1.873492 1_554
O45 P11 1.576849 1_555
O45 V3 1.880818 1_555
O46 P10 1.539733 1_555
O46 V4 1.902352 1_455
O47 P13 1.611130 1_556
O47 P0 1.625740 1_455
O48 P0 1.467456 1_455
O49 P13 1.572908 1_555
O49 V5 1.838099 1_455
O50 P12 1.564364 1_555
O50 V5 1.992026 1_456
O51 P15 1.545465 1_555
O51 V4 1.888440 1_455
O52 P15 1.543860 1_555
O52 V3 1.902140 1_555
O53 P7 1.471478 1_545
O54 P7 1.611130 1_554
O54 P14 1.625740 1_565
O55 P14 1.558578 1_555
O55 V5 1.869441 1_455
O56 P2 1.471576 1_555
O57 P15 1.600424 1_655
O57 P2 1.637855 1_555
