# generated using pymatgen
data_HfPd5
_symmetry_space_group_name_H-M   'P 1'
_cell_length_a   3.99430556
_cell_length_b   6.19301232
_cell_length_c   3.98859924
_cell_angle_alpha   90.00000000
_cell_angle_beta   90.00000000
_cell_angle_gamma   108.81327620
_symmetry_Int_Tables_number   1
_chemical_formula_structural   HfPd5
_chemical_formula_sum   'Hf1 Pd5'
_cell_volume   93.39388901
_cell_formula_units_Z   1
loop_
 _symmetry_equiv_pos_site_id
 _symmetry_equiv_pos_as_xyz
  1  'x, y, z'
loop_
 _atom_site_type_symbol
 _atom_site_label
 _atom_site_symmetry_multiplicity
 _atom_site_fract_x
 _atom_site_fract_y
 _atom_site_fract_z
 _atom_site_occupancy
  Hf  Hf0  1  0.00000000  0.00000000  0.00000000  1
  Pd  Pd0  1  0.66341868  0.32683636  0.00000000  1
  Pd  Pd1  1  0.33658232  0.67316464  0.00000000  1
  Pd  Pd2  1  0.50000000  -0.00000000  0.49999800  1
  Pd  Pd3  1  0.16583394  0.33166887  0.49999800  1
  Pd  Pd4  1  0.83416606  0.66833113  0.49999800  1
loop_
_geom_bond_atom_site_label_1
_geom_bond_atom_site_label_2
_geom_bond_distance
_geom_bond_site_symmetry_2
Hf0 Pd1 2.767582 1_445
Hf0 Pd1 2.767582 1_545
Hf0 Pd0 2.767585 1_455
Hf0 Pd0 2.767587 1_555
Hf0 Pd3 2.785224 1_555
Hf0 Pd4 2.785224 1_445
Hf0 Pd3 2.785235 1_554
Hf0 Pd4 2.785235 1_444
Hf0 Pd2 2.822378 1_555
Hf0 Pd2 2.822378 1_455
Hf0 Pd2 2.822389 1_554
Hf0 Pd2 2.822389 1_454
Pd0 Pd2 2.765522 1_555
Pd0 Pd2 2.765534 1_554
Pd0 Pd3 2.822517 1_655
Pd0 Pd3 2.822523 1_555
Pd0 Pd3 2.822529 1_654
Pd0 Pd3 2.822534 1_554
Pd0 Pd4 2.825734 1_555
Pd0 Pd4 2.825746 1_554
Pd0 Pd1 2.847882 1_655
Pd0 Pd1 2.847886 1_555
Pd1 Pd2 2.765518 1_565
Pd1 Pd2 2.765530 1_564
Pd1 Pd4 2.822519 1_455
Pd1 Pd4 2.822522 1_555
Pd1 Pd4 2.822530 1_454
Pd1 Pd4 2.822533 1_554
Pd1 Pd3 2.825738 1_555
Pd1 Pd3 2.825750 1_554
Pd2 Pd3 2.787271 1_655
Pd2 Pd4 2.787271 1_445
Pd2 Pd3 2.787275 1_555
Pd2 Pd4 2.787275 1_545
Pd3 Pd4 2.807768 1_455
Pd3 Pd4 2.807773 1_555
