# generated using pymatgen
data_Mg2AgIr
_symmetry_space_group_name_H-M   'P 1'
_cell_length_a   4.49201199
_cell_length_b   4.49201199
_cell_length_c   4.49201199
_cell_angle_alpha   60.00000000
_cell_angle_beta   60.00000000
_cell_angle_gamma   60.00000000
_symmetry_Int_Tables_number   1
_chemical_formula_structural   Mg2AgIr
_chemical_formula_sum   'Mg2 Ag1 Ir1'
_cell_volume   64.09257538
_cell_formula_units_Z   1
loop_
 _symmetry_equiv_pos_site_id
 _symmetry_equiv_pos_as_xyz
  1  'x, y, z'
loop_
 _atom_site_type_symbol
 _atom_site_label
 _atom_site_symmetry_multiplicity
 _atom_site_fract_x
 _atom_site_fract_y
 _atom_site_fract_z
 _atom_site_occupancy
  Mg  Mg0  1  0.49999900  0.49999900  0.49999900  1
  Mg  Mg1  1  -0.00000000  -0.00000000  0.00000000  1
  Ag  Ag0  1  0.25000000  0.25000000  0.25000000  1
  Ir  Ir0  1  0.74999900  0.74999900  0.74999900  1
loop_
_geom_bond_atom_site_label_1
_geom_bond_atom_site_label_2
_geom_bond_distance
_geom_bond_site_symmetry_2
Ag0 Mg0 2.750773 1_555
Ag0 Mg1 2.750784 1_556
Ag0 Mg1 2.750784 1_565
Ag0 Mg1 2.750784 1_555
Ag0 Mg1 2.750784 1_655
Ag0 Mg0 2.750788 1_545
Ag0 Mg0 2.750788 1_554
Ag0 Mg0 2.750788 1_455
Ir0 Mg1 2.750781 1_566
Ir0 Mg1 2.750781 1_665
Ir0 Mg1 2.750781 1_656
Ir0 Mg0 2.750784 1_655
Ir0 Mg0 2.750784 1_556
Ir0 Mg0 2.750784 1_565
Ir0 Mg0 2.750784 1_555
Ir0 Mg1 2.750795 1_666
