# generated using pymatgen
data_LiZn2Ni
_symmetry_space_group_name_H-M   'P 1'
_cell_length_a   4.09890804
_cell_length_b   4.09890804
_cell_length_c   4.09890804
_cell_angle_alpha   60.00000000
_cell_angle_beta   60.00000000
_cell_angle_gamma   60.00000000
_symmetry_Int_Tables_number   1
_chemical_formula_structural   LiZn2Ni
_chemical_formula_sum   'Li1 Zn2 Ni1'
_cell_volume   48.69557818
_cell_formula_units_Z   1
loop_
 _symmetry_equiv_pos_site_id
 _symmetry_equiv_pos_as_xyz
  1  'x, y, z'
loop_
 _atom_site_type_symbol
 _atom_site_label
 _atom_site_symmetry_multiplicity
 _atom_site_fract_x
 _atom_site_fract_y
 _atom_site_fract_z
 _atom_site_occupancy
  Li  Li0  1  0.25000000  0.25000000  0.25000000  1
  Zn  Zn0  1  0.49999900  0.49999900  0.49999900  1
  Zn  Zn1  1  -0.00000000  -0.00000000  -0.00000000  1
  Ni  Ni0  1  0.75000100  0.75000100  0.75000100  1
loop_
_geom_bond_atom_site_label_1
_geom_bond_atom_site_label_2
_geom_bond_distance
_geom_bond_site_symmetry_2
Li0 Zn0 2.510048 1_555
Li0 Zn1 2.510058 1_655
Li0 Zn1 2.510058 1_555
Li0 Zn1 2.510058 1_556
Li0 Zn1 2.510058 1_565
Li0 Zn0 2.510062 1_554
Li0 Zn0 2.510062 1_455
Li0 Zn0 2.510062 1_545
Li0 Ni0 2.898360 1_544
Li0 Ni0 2.898360 1_454
Li0 Ni0 2.898360 1_445
Li0 Ni0 2.898371 1_455
Li0 Ni0 2.898371 1_554
Li0 Ni0 2.898371 1_545
Ni0 Zn1 2.510048 1_666
Ni0 Zn0 2.510052 1_556
Ni0 Zn0 2.510052 1_655
Ni0 Zn0 2.510052 1_565
Ni0 Zn1 2.510062 1_656
Ni0 Zn1 2.510062 1_566
Ni0 Zn1 2.510062 1_665
Ni0 Zn0 2.510078 1_555
