# generated using pymatgen
data_Li5NiP3O11
_symmetry_space_group_name_H-M   'P 1'
_cell_length_a   5.33976600
_cell_length_b   8.40437476
_cell_length_c   9.56395684
_cell_angle_alpha   84.04275155
_cell_angle_beta   88.55218640
_cell_angle_gamma   85.91479268
_symmetry_Int_Tables_number   1
_chemical_formula_structural   Li5NiP3O11
_chemical_formula_sum   'Li10 Ni2 P6 O22'
_cell_volume   425.73385279
_cell_formula_units_Z   2
loop_
 _symmetry_equiv_pos_site_id
 _symmetry_equiv_pos_as_xyz
  1  'x, y, z'
loop_
 _atom_site_type_symbol
 _atom_site_label
 _atom_site_symmetry_multiplicity
 _atom_site_fract_x
 _atom_site_fract_y
 _atom_site_fract_z
 _atom_site_occupancy
  Li  Li0  1  0.77654400  0.67319700  0.65661600  1
  Li  Li1  1  0.72091000  0.36624200  0.17215600  1
  Li  Li2  1  0.67939200  0.61776600  0.31719400  1
  Li  Li3  1  0.82060400  0.37939900  0.84570500  1
  Li  Li4  1  0.48650200  0.99843700  0.15996000  1
  Li  Li5  1  0.51349800  0.00156300  0.84004000  1
  Li  Li6  1  0.17939600  0.62060100  0.15429500  1
  Li  Li7  1  0.32060800  0.38223400  0.68280600  1
  Li  Li8  1  0.27909000  0.63375800  0.82784400  1
  Li  Li9  1  0.22345600  0.32680300  0.34338400  1
  Ni  Ni0  1  0.00000000  0.00000000  0.00000000  1
  Ni  Ni1  1  0.50000000  0.00000000  0.50000000  1
  P  P0  1  0.97010200  0.04331100  0.68605100  1
  P  P1  1  0.77547500  0.70395300  0.98425500  1
  P  P2  1  0.73203800  0.32688400  0.52321800  1
  P  P3  1  0.26796200  0.67311600  0.47678200  1
  P  P4  1  0.22452500  0.29604700  0.01574500  1
  P  P5  1  0.02989800  0.95668900  0.31394900  1
  O  O0  1  0.03991400  0.76191500  0.93353000  1
  O  O1  1  0.96057900  0.19430800  0.56600800  1
  O  O2  1  0.88650200  0.11852500  0.82159700  1
  O  O3  1  0.80792900  0.59327700  0.12443400  1
  O  O4  1  0.82316600  0.40251900  0.38113000  1
  O  O5  1  0.75522500  0.02220500  0.31649500  1
  O  O6  1  0.76970500  0.93177200  0.65300800  1
  O  O7  1  0.69971300  0.43533300  0.64250300  1
  O  O8  1  0.65739600  0.61704500  0.86962800  1
  O  O9  1  0.61805800  0.86090200  0.01287400  1
  O  O10  1  0.51291500  0.75944000  0.48179400  1
  O  O11  1  0.48708500  0.24056000  0.51820600  1
  O  O12  1  0.38194200  0.13909800  0.98712600  1
  O  O13  1  0.34260400  0.38295500  0.13037200  1
  O  O14  1  0.30028700  0.56466700  0.35749700  1
  O  O15  1  0.23029500  0.06822800  0.34699200  1
  O  O16  1  0.24477500  0.97779500  0.68350500  1
  O  O17  1  0.17683400  0.59748100  0.61887000  1
  O  O18  1  0.19207100  0.40672300  0.87556600  1
  O  O19  1  0.11349800  0.88147500  0.17840300  1
  O  O20  1  0.03942100  0.80569200  0.43399200  1
  O  O21  1  0.96008600  0.23808500  0.06647000  1
loop_
_geom_bond_atom_site_label_1
_geom_bond_atom_site_label_2
_geom_bond_distance
_geom_bond_site_symmetry_2
Li0 O7 2.087723 1_555
Li0 O8 2.134372 1_555
Li0 O6 2.167567 1_555
Li0 O17 2.217852 1_655
Li0 O10 2.241559 1_555
Li1 O21 1.943610 1_555
Li1 O3 1.999964 1_555
Li1 O13 2.061263 1_555
Li1 O4 2.142644 1_555
Li2 O4 1.957568 1_555
Li2 O3 1.976565 1_555
Li2 O14 2.121138 1_555
Li2 O10 2.203110 1_555
Li3 O18 2.043500 1_655
Li3 O7 2.060359 1_555
Li3 O8 2.153531 1_555
Li3 O2 2.230442 1_555
Li3 O21 2.419945 1_556
Li4 O9 1.995077 1_555
Li4 O12 1.997138 1_564
Li4 O5 2.133460 1_565
Li4 O19 2.278088 1_555
Li4 O15 2.322751 1_565
Li5 O12 1.995077 1_555
Li5 O9 1.997138 1_546
Li5 O16 2.133460 1_545
Li5 O2 2.278088 1_555
Li5 O6 2.322751 1_545
Li6 O3 2.043500 1_455
Li6 O14 2.060359 1_555
Li6 O13 2.153531 1_555
Li6 O19 2.230442 1_555
Li6 O0 2.419945 1_554
Li7 O17 1.957568 1_555
Li7 O18 1.976565 1_555
Li7 O7 2.121138 1_555
Li7 O11 2.203110 1_555
Li8 O0 1.943610 1_555
Li8 O18 1.999964 1_555
Li8 O8 2.061263 1_555
Li8 O17 2.142644 1_555
Li9 O14 2.087723 1_555
Li9 O13 2.134372 1_555
Li9 O15 2.167567 1_555
Li9 O4 2.217852 1_455
Li9 O11 2.241559 1_555
Ni0 O2 1.970853 1_454
Ni0 O19 1.970853 1_545
Ni0 O0 2.156343 1_544
Ni0 O21 2.156343 1_455
Ni0 O12 2.416281 1_554
Ni0 O9 2.416281 1_445
Ni1 O10 2.043324 1_545
Ni1 O11 2.043324 1_555
Ni1 O15 2.087811 1_555
Ni1 O6 2.087811 1_545
Ni1 O5 2.195380 1_555
Ni1 O16 2.195380 1_545
O0 P1 1.575072 1_455
O1 P0 1.619404 1_555
O1 P2 1.623293 1_555
O2 P0 1.542741 1_555
O3 P1 1.556452 1_554
O4 P2 1.522785 1_555
O5 P5 1.529989 1_645
O6 P0 1.531397 1_565
O7 P2 1.531504 1_555
O8 P1 1.549079 1_555
O9 P1 1.557796 1_554
O10 P3 1.544371 1_555
O11 P2 1.544371 1_555
O12 P4 1.557796 1_556
O13 P4 1.549079 1_555
O14 P3 1.531504 1_555
O15 P5 1.531397 1_545
O16 P0 1.529989 1_465
O17 P3 1.522785 1_555
O18 P4 1.556452 1_556
O19 P5 1.542741 1_555
O20 P5 1.619404 1_555
O20 P3 1.623293 1_555
O21 P4 1.575072 1_655
