# generated using pymatgen
data_YBr3
_symmetry_space_group_name_H-M   'P 1'
_cell_length_a   9.99024733
_cell_length_b   9.99024723
_cell_length_c   3.74723543
_cell_angle_alpha   90.00000000
_cell_angle_beta   90.00000000
_cell_angle_gamma   120.00000028
_symmetry_Int_Tables_number   1
_chemical_formula_structural   YBr3
_chemical_formula_sum   'Y2 Br6'
_cell_volume   323.88742476
_cell_formula_units_Z   2
loop_
 _symmetry_equiv_pos_site_id
 _symmetry_equiv_pos_as_xyz
  1  'x, y, z'
loop_
 _atom_site_type_symbol
 _atom_site_label
 _atom_site_symmetry_multiplicity
 _atom_site_fract_x
 _atom_site_fract_y
 _atom_site_fract_z
 _atom_site_occupancy
  Y  Y0  1  0.33333400  0.66666700  0.75000100  1
  Y  Y1  1  0.66666700  0.33333200  0.25000000  1
  Br  Br0  1  0.21158153  0.42316107  0.25000000  1
  Br  Br1  1  0.57683893  0.78841847  0.25000000  1
  Br  Br2  1  0.21158053  0.78841847  0.25000000  1
  Br  Br3  1  0.78841847  0.57683993  0.75000100  1
  Br  Br4  1  0.42316007  0.21158053  0.75000100  1
  Br  Br5  1  0.78841947  0.21158053  0.75000100  1
loop_
_geom_bond_atom_site_label_1
_geom_bond_atom_site_label_2
_geom_bond_distance
_geom_bond_site_symmetry_2
Br0 Y0 2.819378 1_554
Br0 Y0 2.819383 1_555
Br1 Y0 2.819372 1_554
Br1 Y0 2.819377 1_555
Br2 Y0 2.819372 1_554
Br2 Y0 2.819377 1_555
Br3 Y1 2.819391 1_556
Br3 Y1 2.819396 1_555
Br4 Y1 2.819385 1_556
Br4 Y1 2.819390 1_555
Br5 Y1 2.819366 1_556
Br5 Y1 2.819371 1_555
