# generated using pymatgen
data_KFePbOF6
_symmetry_space_group_name_H-M   'P 1'
_cell_length_a   8.63131169
_cell_length_b   8.97092001
_cell_length_c   8.85472427
_cell_angle_alpha   88.47102137
_cell_angle_beta   90.04235423
_cell_angle_gamma   90.97177636
_symmetry_Int_Tables_number   1
_chemical_formula_structural   KFePbOF6
_chemical_formula_sum   'K4 Fe4 Pb4 O4 F24'
_cell_volume   685.28572410
_cell_formula_units_Z   4
loop_
 _symmetry_equiv_pos_site_id
 _symmetry_equiv_pos_as_xyz
  1  'x, y, z'
loop_
 _atom_site_type_symbol
 _atom_site_label
 _atom_site_symmetry_multiplicity
 _atom_site_fract_x
 _atom_site_fract_y
 _atom_site_fract_z
 _atom_site_occupancy
  K  K0  1  0.25811400  0.00065300  0.49222200  1
  K  K1  1  0.75829800  0.00073000  0.99227900  1
  K  K2  1  0.74189100  0.99935200  0.50776300  1
  K  K3  1  0.24169700  0.99930100  0.00770200  1
  Fe  Fe0  1  0.50653100  0.22149300  0.24099800  1
  Fe  Fe1  1  0.49348800  0.77851100  0.75899600  1
  Fe  Fe2  1  0.00651600  0.22124700  0.74081700  1
  Fe  Fe3  1  0.99335700  0.77870200  0.25932600  1
  Pb  Pb0  1  0.99863900  0.72350100  0.74220900  1
  Pb  Pb1  1  0.49813000  0.72397600  0.24096200  1
  Pb  Pb2  1  0.00161700  0.27642200  0.25808100  1
  Pb  Pb3  1  0.50177400  0.27580200  0.75874400  1
  O  O0  1  0.57111400  0.50158300  0.50692400  1
  O  O1  1  0.07113100  0.50165700  0.00724700  1
  O  O2  1  0.42887600  0.49846400  0.49303600  1
  O  O3  1  0.92884500  0.49834200  0.99278800  1
  F  F0  1  0.97176900  0.56840100  0.28971200  1
  F  F1  1  0.47200900  0.56845600  0.79069500  1
  F  F2  1  0.02820600  0.43158200  0.71030700  1
  F  F3  1  0.52804700  0.43158200  0.20925900  1
  F  F4  1  0.98995300  0.79647000  0.03745700  1
  F  F5  1  0.49004300  0.79684500  0.53732200  1
  F  F6  1  0.01004200  0.20354000  0.96257500  1
  F  F7  1  0.50996900  0.20319500  0.46265800  1
  F  F8  1  0.01771200  0.00453500  0.25273800  1
  F  F9  1  0.51784100  0.00465900  0.75266200  1
  F  F10  1  0.98229900  0.99548300  0.74729700  1
  F  F11  1  0.48216200  0.99537400  0.24727000  1
  F  F12  1  0.76713700  0.80985500  0.26052600  1
  F  F13  1  0.26727100  0.80981700  0.76046500  1
  F  F14  1  0.23281400  0.19015000  0.73947500  1
  F  F15  1  0.73274900  0.19021500  0.23949100  1
  F  F16  1  0.00098700  0.19718900  0.51648300  1
  F  F17  1  0.50089900  0.19649200  0.01663300  1
  F  F18  1  0.99900000  0.80280400  0.48358400  1
  F  F19  1  0.49909400  0.80355300  0.98331300  1
  F  F20  1  0.22143100  0.77584100  0.25352000  1
  F  F21  1  0.72156600  0.77598000  0.75348400  1
  F  F22  1  0.77853400  0.22418400  0.74648900  1
  F  F23  1  0.27845000  0.22406100  0.24649400  1
loop_
_geom_bond_atom_site_label_1
_geom_bond_atom_site_label_2
_geom_bond_distance
_geom_bond_site_symmetry_2
O0 O2 1.233673 1_555
O1 O3 1.234615 1_454
F0 Fe3 1.904576 1_555
F0 Pb2 2.658534 1_655
F1 Fe1 1.903699 1_555
F1 Pb3 2.664820 1_555
F2 Fe2 1.905075 1_555
F2 Pb0 2.658044 1_455
F3 Fe0 1.904068 1_555
F3 Pb1 2.662370 1_555
F4 Fe3 1.967039 1_555
F4 Pb0 2.713332 1_554
F4 K1 2.756745 1_564
F4 K3 2.818307 1_655
F5 Fe1 1.965608 1_555
F5 Pb1 2.722483 1_555
F5 K0 2.755674 1_565
F5 K2 2.817027 1_555
F6 Fe2 1.966046 1_555
F6 Pb2 2.715268 1_556
F6 K3 2.756561 1_546
F6 K1 2.818154 1_455
F7 Fe0 1.965465 1_555
F7 Pb3 2.719532 1_555
F7 K2 2.755846 1_545
F7 K0 2.817274 1_555
F8 Fe3 2.032548 1_445
F8 Pb2 2.447099 1_555
F8 K3 2.908990 1_545
F8 K0 2.965733 1_555
F9 Fe1 2.035352 1_545
F9 Pb3 2.440729 1_555
F9 K2 2.908489 1_545
F9 K1 2.966908 1_555
F10 Fe2 2.031828 1_665
F10 Pb0 2.448004 1_555
F10 K1 2.908730 1_565
F10 K2 2.966085 1_555
F11 Fe0 2.035105 1_565
F11 Pb1 2.443047 1_555
F11 K0 2.908816 1_565
F11 K3 2.966647 1_555
F12 Fe3 1.977237 1_555
F12 Pb1 2.441422 1_555
F12 K2 2.818136 1_555
F12 K1 2.892546 1_564
F13 Fe1 1.977454 1_555
F13 Pb0 2.438662 1_455
F13 K3 2.818314 1_556
F13 K0 2.892417 1_565
F14 Fe2 1.977837 1_555
F14 Pb3 2.440221 1_555
F14 K0 2.818290 1_555
F14 K3 2.892283 1_546
F15 Fe0 1.977426 1_555
F15 Pb2 2.440512 1_655
F15 K1 2.818125 1_554
F15 K2 2.892757 1_545
F16 Fe2 2.004269 1_555
F16 Pb2 2.377742 1_555
F16 K2 2.833627 1_445
F16 K0 2.869465 1_555
F17 Fe0 2.005709 1_555
F17 Pb3 2.373593 1_554
F17 K3 2.830870 1_545
F17 K1 2.867018 1_554
F18 Fe3 2.003674 1_555
F18 Pb0 2.379804 1_555
F18 K0 2.833783 1_665
F18 K2 2.869345 1_555
F19 Fe1 2.005333 1_555
F19 Pb1 2.372223 1_556
F19 K1 2.830820 1_565
F19 K3 2.866954 1_556
F20 Fe3 1.969907 1_455
F20 Pb1 2.444085 1_555
F20 K3 2.922809 1_555
F20 K0 2.973200 1_565
F21 Fe1 1.969784 1_555
F21 Pb0 2.447845 1_555
F21 K2 2.921684 1_555
F21 K1 2.973454 1_565
F22 Fe2 1.969103 1_655
F22 Pb3 2.444005 1_555
F22 K1 2.922580 1_555
F22 K2 2.973447 1_545
F23 Fe0 1.969816 1_555
F23 Pb2 2.445723 1_555
F23 K0 2.921949 1_555
F23 K3 2.973514 1_545
