# generated using pymatgen
data_WN2
_symmetry_space_group_name_H-M   'P 1'
_cell_length_a   3.67768148
_cell_length_b   3.67768148
_cell_length_c   3.67768194
_cell_angle_alpha   53.65354859
_cell_angle_beta   53.65354859
_cell_angle_gamma   53.65355623
_symmetry_Int_Tables_number   1
_chemical_formula_structural   WN2
_chemical_formula_sum   'W1 N2'
_cell_volume   29.95238948
_cell_formula_units_Z   1
loop_
 _symmetry_equiv_pos_site_id
 _symmetry_equiv_pos_as_xyz
  1  'x, y, z'
loop_
 _atom_site_type_symbol
 _atom_site_label
 _atom_site_symmetry_multiplicity
 _atom_site_fract_x
 _atom_site_fract_y
 _atom_site_fract_z
 _atom_site_occupancy
  W  W0  1  0.00000000  0.00000000  0.00000000  1
  N  N0  1  0.75951600  0.75951600  0.75951600  1
  N  N1  1  0.24048400  0.24048400  0.24048400  1
loop_
_geom_bond_atom_site_label_1
_geom_bond_atom_site_label_2
_geom_bond_distance
_geom_bond_site_symmetry_2
N0 W0 2.106496 1_566
N0 W0 2.106496 1_656
N0 W0 2.106496 1_665
N0 W0 2.264539 1_666
N1 W0 2.106496 1_565
N1 W0 2.106496 1_655
N1 W0 2.106496 1_556
N1 W0 2.264539 1_555
