# generated using pymatgen
data_Li6Mn3Cr2Fe3O16
_symmetry_space_group_name_H-M   'P 1'
_cell_length_a   5.86448800
_cell_length_b   5.87123287
_cell_length_c   9.56081743
_cell_angle_alpha   89.41621255
_cell_angle_beta   89.19893832
_cell_angle_gamma   60.51278564
_symmetry_Int_Tables_number   1
_chemical_formula_structural   Li6Mn3Cr2Fe3O16
_chemical_formula_sum   'Li6 Mn3 Cr2 Fe3 O16'
_cell_volume   286.52362879
_cell_formula_units_Z   1
loop_
 _symmetry_equiv_pos_site_id
 _symmetry_equiv_pos_as_xyz
  1  'x, y, z'
loop_
 _atom_site_type_symbol
 _atom_site_label
 _atom_site_symmetry_multiplicity
 _atom_site_fract_x
 _atom_site_fract_y
 _atom_site_fract_z
 _atom_site_occupancy
  Li  Li0  1  0.34515000  0.83131400  0.94321800  1
  Li  Li1  1  0.83454700  0.34341800  0.94254000  1
  Li  Li2  1  0.82851100  0.82788600  0.94477300  1
  Li  Li3  1  0.17481100  0.17363600  0.44115000  1
  Li  Li4  1  0.17551800  0.65534700  0.44432400  1
  Li  Li5  1  0.65435300  0.17389300  0.44547800  1
  Mn  Mn0  1  0.83091900  0.83092000  0.21482200  1
  Mn  Mn1  1  0.17122900  0.66282700  0.71458600  1
  Mn  Mn2  1  0.66325100  0.16709200  0.71420600  1
  Cr  Cr0  1  0.66019200  0.66924300  0.48824100  1
  Cr  Cr1  1  0.33443300  0.33071200  0.98746100  1
  Fe  Fe0  1  0.33361700  0.83096100  0.21246700  1
  Fe  Fe1  1  0.83087400  0.33357500  0.21268300  1
  Fe  Fe2  1  0.16498000  0.16845100  0.71131900  1
  O  O0  1  0.31619200  0.83502800  0.59539500  1
  O  O1  1  0.51747300  0.51724600  0.34603400  1
  O  O2  1  0.67402200  0.67319600  0.09878300  1
  O  O3  1  0.83376500  0.32169200  0.59529600  1
  O  O4  1  0.52441100  0.96506100  0.34151400  1
  O  O5  1  0.96474900  0.52637300  0.34332300  1
  O  O6  1  0.15986400  0.15950800  0.09216100  1
  O  O7  1  0.82315000  0.85135700  0.59885000  1
  O  O8  1  0.04177000  0.48896300  0.84233600  1
  O  O9  1  0.15349900  0.67768300  0.09722000  1
  O  O10  1  0.99304300  0.99268100  0.32395500  1
  O  O11  1  0.48817900  0.03643800  0.84249800  1
  O  O12  1  0.98073900  0.01618200  0.82460300  1
  O  O13  1  0.35207600  0.31737900  0.59714300  1
  O  O14  1  0.49947000  0.47345900  0.84479500  1
  O  O15  1  0.67734700  0.15108500  0.09954700  1
loop_
_geom_bond_atom_site_label_1
_geom_bond_atom_site_label_2
_geom_bond_distance
_geom_bond_site_symmetry_2
Li0 O11 2.007375 1_565
Li0 O14 2.064825 1_555
Li0 O12 2.188709 1_465
Li0 O6 2.207464 1_566
Li0 O2 2.254585 1_556
Li0 O9 2.273644 1_556
Li1 O14 1.969140 1_555
Li1 O12 2.023189 1_555
Li1 O8 2.024349 1_655
Li1 O6 2.206546 1_656
Li1 O2 2.256500 1_556
Li1 O15 2.308685 1_556
Li2 O8 2.009597 1_655
Li2 O11 2.015751 1_565
Li2 O12 2.063069 1_565
Li2 O2 2.135263 1_556
Li2 O9 2.220657 1_656
Li2 O15 2.222806 1_566
Li3 O4 2.026818 1_545
Li3 O5 2.040233 1_455
Li3 O10 2.166360 1_445
Li3 O13 2.224859 1_555
Li3 O3 2.271554 1_455
Li3 O0 2.272942 1_545
Li4 O1 1.980962 1_555
Li4 O5 2.000857 1_455
Li4 O10 2.072121 1_455
Li4 O0 2.191084 1_555
Li4 O13 2.259384 1_555
Li4 O7 2.320657 1_455
Li5 O1 2.000353 1_555
Li5 O4 2.009445 1_545
Li5 O10 2.075406 1_545
Li5 O13 2.106567 1_555
Li5 O7 2.203347 1_545
Li5 O3 2.208636 1_555
Mn0 O2 1.955324 1_555
Mn0 O10 1.957432 1_555
Mn0 O15 1.969314 1_565
Mn0 O4 1.970636 1_555
Mn0 O5 1.980709 1_555
Mn0 O9 1.984444 1_655
Mn1 O8 1.954955 1_555
Mn1 O0 1.959364 1_555
Mn1 O12 2.094865 1_465
Mn1 O13 2.096356 1_555
Mn1 O14 2.103158 1_555
Mn1 O7 2.104842 1_455
Mn2 O12 1.943609 1_555
Mn2 O13 1.952744 1_555
Mn2 O7 1.957949 1_545
Mn2 O11 1.966729 1_555
Mn2 O3 1.989246 1_555
Mn2 O14 2.007062 1_555
Cr0 O0 2.023915 1_555
Cr0 O1 2.034044 1_555
Cr0 O3 2.046795 1_555
Cr0 O7 2.057216 1_555
Cr0 O4 2.058789 1_555
Cr0 O5 2.071945 1_555
Cr1 O6 2.006093 1_556
Cr1 O11 2.049203 1_555
Cr1 O8 2.050523 1_555
Cr1 O14 2.058644 1_555
Cr1 O15 2.062556 1_556
Cr1 O9 2.064344 1_556
Fe0 O10 2.030035 1_455
Fe0 O9 2.031823 1_555
Fe0 O6 2.033421 1_565
Fe0 O2 2.040598 1_555
Fe0 O1 2.054593 1_555
Fe0 O4 2.078403 1_555
Fe1 O6 2.028632 1_655
Fe1 O15 2.032039 1_555
Fe1 O10 2.037925 1_545
Fe1 O1 2.043942 1_555
Fe1 O2 2.045995 1_555
Fe1 O5 2.094977 1_555
Fe2 O12 2.009540 1_455
Fe2 O13 2.012866 1_555
Fe2 O3 2.032825 1_455
Fe2 O0 2.038315 1_545
Fe2 O8 2.077616 1_555
Fe2 O11 2.089653 1_555
