# generated using pymatgen
data_Li5Mn6(BO3)6
_symmetry_space_group_name_H-M   'P 1'
_cell_length_a   10.48286100
_cell_length_b   8.85557528
_cell_length_c   8.79945347
_cell_angle_alpha   107.65539006
_cell_angle_beta   98.55014378
_cell_angle_gamma   98.92468044
_symmetry_Int_Tables_number   1
_chemical_formula_structural   Li5Mn6(BO3)6
_chemical_formula_sum   'Li10 Mn12 B12 O36'
_cell_volume   752.16377171
_cell_formula_units_Z   2
loop_
 _symmetry_equiv_pos_site_id
 _symmetry_equiv_pos_as_xyz
  1  'x, y, z'
loop_
 _atom_site_type_symbol
 _atom_site_label
 _atom_site_symmetry_multiplicity
 _atom_site_fract_x
 _atom_site_fract_y
 _atom_site_fract_z
 _atom_site_occupancy
  Li  Li0  1  0.90332800  0.18530100  0.20698500  1
  Li  Li1  1  0.18595200  0.19907200  0.89772600  1
  Li  Li2  1  0.77638200  0.48247300  0.76542800  1
  Li  Li3  1  0.15285800  0.44640600  0.45598700  1
  Li  Li4  1  0.43629000  0.45144800  0.14986700  1
  Li  Li5  1  0.40685000  0.69256000  0.70823200  1
  Li  Li6  1  0.03062600  0.73337000  0.01614800  1
  Li  Li7  1  0.66693200  0.94285700  0.96380800  1
  Li  Li8  1  0.93776600  0.96119600  0.66347300  1
  Li  Li9  1  0.27653900  0.97380000  0.25122600  1
  Mn  Mn0  1  0.79957600  0.19039600  0.81428600  1
  Mn  Mn1  1  0.18695500  0.16029400  0.51045700  1
  Mn  Mn2  1  0.51900200  0.16273600  0.16182300  1
  Mn  Mn3  1  0.41850100  0.40479900  0.76884300  1
  Mn  Mn4  1  0.76211600  0.41795500  0.40967600  1
  Mn  Mn5  1  0.06435100  0.43204000  0.07099300  1
  Mn  Mn6  1  0.66310900  0.65469400  0.03429600  1
  Mn  Mn7  1  0.00744300  0.66700000  0.65153900  1
  Mn  Mn8  1  0.31682000  0.68289000  0.31644300  1
  Mn  Mn9  1  0.91827300  0.89619100  0.29274800  1
  Mn  Mn10  1  0.27560400  0.91080400  0.89709100  1
  Mn  Mn11  1  0.57123400  0.92687800  0.56995400  1
  B  B0  1  0.99993800  0.00048600  0.00421200  1
  B  B1  1  0.46358800  0.12838700  0.79458800  1
  B  B2  1  0.80515900  0.12314200  0.46181700  1
  B  B3  1  0.23993900  0.24867600  0.23648400  1
  B  B4  1  0.03590100  0.36687400  0.70148000  1
  B  B5  1  0.70597700  0.37022400  0.04052500  1
  B  B6  1  0.49077100  0.50185100  0.49942900  1
  B  B7  1  0.96049400  0.62693400  0.29693900  1
  B  B8  1  0.28716000  0.62463100  0.95153500  1
  B  B9  1  0.75214900  0.75268900  0.76554000  1
  B  B10  1  0.20685100  0.87315000  0.53760100  1
  B  B11  1  0.55144500  0.88395200  0.20941000  1
  O  O0  1  0.98333300  0.07659600  0.88594500  1
  O  O1  1  0.60001900  0.06667800  0.81005500  1
  O  O2  1  0.92645300  0.05013500  0.45804100  1
  O  O3  1  0.90116300  0.00223700  0.10147100  1
  O  O4  1  0.73807900  0.10912400  0.58364800  1
  O  O5  1  0.37293500  0.11184700  0.89588700  1
  O  O6  1  0.42727900  0.20338600  0.67990500  1
  O  O7  1  0.75912500  0.19902500  0.35048700  1
  O  O8  1  0.34150600  0.16112000  0.26931600  1
  O  O9  1  0.94004800  0.35519000  0.80473100  1
  O  O10  1  0.15852100  0.29714000  0.71407000  1
  O  O11  1  0.82170900  0.29011500  0.03543100  1
  O  O12  1  0.13592200  0.26730700  0.32720300  1
  O  O13  1  0.67995100  0.45574500  0.93586900  1
  O  O14  1  0.62260000  0.36113000  0.14898400  1
  O  O15  1  0.23682300  0.31610700  0.11162300  1
  O  O16  1  0.62102300  0.44254400  0.55250600  1
  O  O17  1  0.00379700  0.45011800  0.59550200  1
  O  O18  1  0.41186700  0.55440600  0.97049800  1
  O  O19  1  0.38442900  0.51313800  0.59017700  1
  O  O20  1  0.46104600  0.54994300  0.35907500  1
  O  O21  1  0.87276500  0.61485300  0.39856800  1
  O  O22  1  0.86644300  0.67257500  0.80276800  1
  O  O23  1  0.07968200  0.55513400  0.29291700  1
  O  O24  1  0.25607100  0.70038600  0.83460300  1
  O  O25  1  0.93100700  0.71639600  0.18993500  1
  O  O26  1  0.63886900  0.75712200  0.84740800  1
  O  O27  1  0.19353100  0.61917200  0.05248900  1
  O  O28  1  0.75419500  0.82963200  0.65385000  1
  O  O29  1  0.33849400  0.81263600  0.55365400  1
  O  O30  1  0.68483100  0.82348900  0.22522800  1
  O  O31  1  0.45841900  0.87133300  0.30918600  1
  O  O32  1  0.11826700  0.87014400  0.64198700  1
  O  O33  1  0.16063000  0.93960700  0.40788100  1
  O  O34  1  0.51139900  0.95446000  0.08889700  1
  O  O35  1  0.11512300  0.92066700  0.02679800  1
loop_
_geom_bond_atom_site_label_1
_geom_bond_atom_site_label_2
_geom_bond_distance
_geom_bond_site_symmetry_2
Li0 O3 1.599987 1_555
Li0 O7 2.103782 1_555
Li0 O11 2.141191 1_555
Li0 O12 2.410220 1_655
Li1 O15 1.802197 1_556
Li1 O10 2.058933 1_555
Li1 O0 2.202302 1_455
Li1 O5 2.215983 1_555
Li2 O22 1.706584 1_555
Li2 O13 1.979685 1_555
Li2 O16 2.190868 1_555
Li2 O9 2.234668 1_555
Li3 O12 1.610523 1_555
Li3 O23 2.077127 1_555
Li3 O17 2.124091 1_555
Li3 O19 2.432220 1_555
Li4 O20 1.740926 1_555
Li4 O18 2.052610 1_554
Li4 O15 2.165747 1_555
Li4 O14 2.222529 1_555
Li5 O19 1.571391 1_555
Li5 O24 2.061428 1_555
Li5 O29 2.078038 1_555
Li5 O26 2.449596 1_555
Li6 O35 1.723251 1_555
Li6 O25 2.004313 1_455
Li6 O27 2.147291 1_555
Li6 O22 2.217195 1_454
Li7 O26 1.606036 1_555
Li7 O1 2.093113 1_565
Li7 O34 2.097009 1_556
Li7 O3 2.470125 1_566
Li8 O0 1.860596 1_565
Li8 O28 2.064888 1_555
Li8 O2 2.175082 1_565
Li8 O32 2.180246 1_655
Li9 O8 1.642538 1_565
Li9 O33 2.026161 1_555
Li9 O35 2.276027 1_555
Li9 O31 2.290650 1_555
Mn0 O11 1.838533 1_556
Mn0 O4 1.906149 1_555
Mn0 O9 1.936399 1_555
Mn0 O1 2.195191 1_555
Mn0 O0 2.398004 1_555
Mn1 O33 1.843581 1_545
Mn1 O10 1.929089 1_555
Mn1 O12 2.147616 1_555
Mn2 O34 1.743908 1_545
Mn2 O14 1.960542 1_555
Mn2 O8 2.209128 1_555
Mn2 O5 2.470720 1_554
Mn2 O7 2.716308 1_555
Mn3 O6 1.740083 1_555
Mn3 O18 1.883623 1_555
Mn3 O19 2.091413 1_555
Mn4 O7 1.842494 1_555
Mn4 O21 1.976065 1_555
Mn4 O16 2.073960 1_555
Mn4 O14 2.393376 1_555
Mn4 O17 2.726780 1_655
Mn5 O23 1.894370 1_555
Mn5 O27 2.034563 1_555
Mn5 O15 2.248792 1_555
Mn5 O9 2.345293 1_454
Mn5 O11 2.584611 1_455
Mn6 O13 1.761154 1_554
Mn6 O30 1.834725 1_555
Mn6 O26 2.108038 1_554
Mn6 O18 2.563716 1_554
Mn7 O17 1.824972 1_555
Mn7 O32 2.016255 1_555
Mn7 O22 2.127363 1_455
Mn7 O21 2.324062 1_455
Mn8 O29 2.012940 1_555
Mn8 O31 2.077612 1_555
Mn8 O20 2.112865 1_555
Mn8 O27 2.338719 1_555
Mn8 O23 2.516890 1_555
Mn9 O25 1.612286 1_555
Mn9 O2 1.644766 1_565
Mn9 O3 2.160622 1_565
Mn9 O30 2.367024 1_555
Mn9 O33 2.514784 1_655
Mn10 O24 1.744439 1_555
Mn10 O5 1.913592 1_565
Mn10 O35 2.167142 1_556
Mn10 O32 2.472558 1_555
Mn10 O34 2.678641 1_556
Mn11 O1 2.048269 1_565
Mn11 O4 2.149831 1_565
Mn11 O31 2.287744 1_555
Mn11 O28 2.332862 1_555
Mn11 O29 2.457374 1_555
B0 O0 1.405562 1_554
B0 O3 1.437100 1_555
B0 O35 1.508568 1_645
B1 O6 1.405395 1_555
B1 O5 1.416675 1_555
B1 O1 1.610067 1_555
B2 O4 1.391750 1_555
B2 O7 1.415451 1_555
B2 O2 1.513412 1_555
B3 O15 1.399340 1_555
B3 O12 1.445055 1_555
B3 O8 1.455614 1_555
B4 O17 1.388158 1_555
B4 O9 1.463573 1_455
B4 O10 1.513718 1_555
B5 O13 1.381498 1_554
B5 O14 1.397881 1_555
B5 O11 1.497015 1_555
B6 O20 1.431637 1_555
B6 O19 1.463286 1_555
B6 O16 1.593734 1_555
B7 O21 1.388882 1_555
B7 O25 1.432367 1_555
B7 O23 1.487480 1_655
B8 O24 1.414849 1_555
B8 O27 1.423171 1_556
B8 O18 1.540748 1_555
B9 O28 1.355945 1_555
B9 O26 1.477276 1_555
B9 O22 1.527794 1_555
B10 O32 1.402690 1_555
B10 O33 1.488477 1_555
B10 O29 1.558499 1_555
B11 O31 1.419361 1_555
B11 O34 1.428718 1_555
B11 O30 1.575070 1_555
