# generated using pymatgen
data_Dy2Mg
_symmetry_space_group_name_H-M   'P 1'
_cell_length_a   7.37778856
_cell_length_b   17.52360151
_cell_length_c   10.86781714
_cell_angle_alpha   90.00000000
_cell_angle_beta   90.00000000
_cell_angle_gamma   77.84775569
_symmetry_Int_Tables_number   1
_chemical_formula_structural   Dy2Mg
_chemical_formula_sum   'Dy32 Mg16'
_cell_volume   1373.56557599
_cell_formula_units_Z   16
loop_
 _symmetry_equiv_pos_site_id
 _symmetry_equiv_pos_as_xyz
  1  'x, y, z'
loop_
 _atom_site_type_symbol
 _atom_site_label
 _atom_site_symmetry_multiplicity
 _atom_site_fract_x
 _atom_site_fract_y
 _atom_site_fract_z
 _atom_site_occupancy
  Dy  Dy0_0  1  0.49006190  0.01987720  0.00000000  1
  Dy  Dy0_1  1  0.49006190  0.01987720  0.50000000  1
  Dy  Dy0_2  1  0.49006190  0.51987720  0.00000000  1
  Dy  Dy0_3  1  0.49006190  0.51987720  0.50000000  1
  Dy  Dy0_4  1  0.99006190  0.01987720  0.00000000  1
  Dy  Dy0_5  1  0.99006190  0.01987720  0.50000000  1
  Dy  Dy0_6  1  0.99006190  0.51987720  0.00000000  1
  Dy  Dy0_7  1  0.99006190  0.51987720  0.50000000  1
  Dy  Dy1_0  1  0.33080331  0.33839439  0.00000000  1
  Dy  Dy1_1  1  0.33080331  0.33839439  0.50000000  1
  Dy  Dy1_2  1  0.33080330  0.83839439  0.00000000  1
  Dy  Dy1_3  1  0.33080330  0.83839439  0.50000000  1
  Dy  Dy1_4  1  0.83080331  0.33839439  0.00000000  1
  Dy  Dy1_5  1  0.83080331  0.33839439  0.50000000  1
  Dy  Dy1_6  1  0.83080331  0.83839439  0.00000000  1
  Dy  Dy1_7  1  0.83080331  0.83839439  0.50000000  1
  Dy  Dy2_0  1  0.39882810  0.20234531  0.24999950  1
  Dy  Dy2_1  1  0.39882810  0.20234531  0.74999950  1
  Dy  Dy2_2  1  0.39882810  0.70234531  0.24999950  1
  Dy  Dy2_3  1  0.39882810  0.70234531  0.74999950  1
  Dy  Dy2_4  1  0.89882810  0.20234531  0.24999950  1
  Dy  Dy2_5  1  0.89882810  0.20234531  0.74999950  1
  Dy  Dy2_6  1  0.89882810  0.70234531  0.24999950  1
  Dy  Dy2_7  1  0.89882810  0.70234531  0.74999950  1
  Dy  Dy3_0  1  0.05808619  0.38382712  0.24999950  1
  Dy  Dy3_1  1  0.05808619  0.38382712  0.74999950  1
  Dy  Dy3_2  1  0.05808620  0.88382712  0.24999950  1
  Dy  Dy3_3  1  0.05808620  0.88382712  0.74999950  1
  Dy  Dy3_4  1  0.55808620  0.38382712  0.24999950  1
  Dy  Dy3_5  1  0.55808620  0.38382712  0.74999950  1
  Dy  Dy3_6  1  0.55808620  0.88382712  0.24999950  1
  Dy  Dy3_7  1  0.55808620  0.88382712  0.74999950  1
  Mg  Mg0_0  1  0.16120516  0.17758969  0.00000000  1
  Mg  Mg0_1  1  0.16120516  0.17758969  0.50000000  1
  Mg  Mg0_2  1  0.16120516  0.67758969  0.00000000  1
  Mg  Mg0_3  1  0.16120516  0.67758969  0.50000000  1
  Mg  Mg0_4  1  0.66120516  0.17758969  0.00000000  1
  Mg  Mg0_5  1  0.66120516  0.17758969  0.50000000  1
  Mg  Mg0_6  1  0.66120516  0.67758969  0.00000000  1
  Mg  Mg0_7  1  0.66120516  0.67758969  0.50000000  1
  Mg  Mg1_0  1  0.22768435  0.04463181  0.24999950  1
  Mg  Mg1_1  1  0.22768435  0.04463181  0.74999950  1
  Mg  Mg1_2  1  0.22768435  0.54463181  0.24999950  1
  Mg  Mg1_3  1  0.22768435  0.54463181  0.74999950  1
  Mg  Mg1_4  1  0.72768435  0.04463181  0.24999950  1
  Mg  Mg1_5  1  0.72768435  0.04463181  0.74999950  1
  Mg  Mg1_6  1  0.72768435  0.54463181  0.24999950  1
  Mg  Mg1_7  1  0.72768435  0.54463181  0.74999950  1
loop_
_geom_bond_atom_site_label_1
_geom_bond_atom_site_label_2
_geom_bond_distance
_geom_bond_site_symmetry_2
Dy0_0 Mg0_4 3.271313 1_555
Dy0_0 Mg0_0 3.271317 1_555
Dy0_0 Mg1_4 3.311136 1_555
Dy0_0 Mg1_0 3.311138 1_555
Dy0_0 Mg1_5 3.311145 1_554
Dy0_0 Mg1_1 3.311147 1_554
Dy0_0 Dy3_6 3.579638 1_545
Dy0_0 Dy3_7 3.579646 1_544
Dy0_0 Dy1_2 3.614924 1_545
Dy0_0 Dy1_6 3.614924 1_545
Dy0_0 Dy0_4 3.688894 1_555
Dy0_0 Dy0_4 3.688894 1_455
Dy0_1 Mg0_5 3.271313 1_555
Dy0_1 Mg0_1 3.271317 1_555
Dy0_1 Mg1_5 3.311136 1_555
Dy0_1 Mg1_1 3.311138 1_555
Dy0_1 Mg1_4 3.311145 1_555
Dy0_1 Mg1_0 3.311147 1_555
Dy0_1 Dy3_7 3.579638 1_545
Dy0_1 Dy3_6 3.579646 1_545
Dy0_1 Dy1_3 3.614924 1_545
Dy0_1 Dy1_7 3.614924 1_545
Dy0_1 Dy0_5 3.688894 1_555
Dy0_1 Dy0_5 3.688894 1_455
Dy0_2 Mg0_6 3.271313 1_555
Dy0_2 Mg0_2 3.271317 1_555
Dy0_2 Mg1_6 3.311136 1_555
Dy0_2 Mg1_2 3.311138 1_555
Dy0_2 Mg1_7 3.311145 1_554
Dy0_2 Mg1_3 3.311147 1_554
Dy0_2 Dy3_4 3.579638 1_555
Dy0_2 Dy3_5 3.579646 1_554
Dy0_2 Dy1_4 3.614924 1_555
Dy0_2 Dy1_0 3.614924 1_555
Dy0_2 Dy0_6 3.688894 1_455
Dy0_2 Dy0_6 3.688894 1_555
Dy0_3 Mg0_7 3.271313 1_555
Dy0_3 Mg0_3 3.271317 1_555
Dy0_3 Mg1_7 3.311136 1_555
Dy0_3 Mg1_3 3.311138 1_555
Dy0_3 Mg1_6 3.311145 1_555
Dy0_3 Mg1_2 3.311147 1_555
Dy0_3 Dy3_5 3.579638 1_555
Dy0_3 Dy3_4 3.579646 1_555
Dy0_3 Dy1_5 3.614924 1_555
Dy0_3 Dy1_1 3.614924 1_555
Dy0_3 Dy0_7 3.688894 1_455
Dy0_3 Dy0_7 3.688894 1_555
Dy0_4 Mg0_0 3.271313 1_655
Dy0_4 Mg0_4 3.271317 1_555
Dy0_4 Mg1_0 3.311136 1_655
Dy0_4 Mg1_4 3.311138 1_555
Dy0_4 Mg1_1 3.311145 1_654
Dy0_4 Mg1_5 3.311147 1_554
Dy0_4 Dy3_2 3.579638 1_645
Dy0_4 Dy3_3 3.579646 1_644
Dy0_4 Dy1_2 3.614924 1_645
Dy0_4 Dy1_6 3.614924 1_545
Dy0_5 Mg0_1 3.271313 1_655
Dy0_5 Mg0_5 3.271317 1_555
Dy0_5 Mg1_1 3.311136 1_655
Dy0_5 Mg1_5 3.311138 1_555
Dy0_5 Mg1_0 3.311145 1_655
Dy0_5 Mg1_4 3.311147 1_555
Dy0_5 Dy3_3 3.579638 1_645
Dy0_5 Dy3_2 3.579646 1_645
Dy0_5 Dy1_7 3.614924 1_545
Dy0_5 Dy1_3 3.614924 1_645
Dy0_6 Mg0_2 3.271313 1_655
Dy0_6 Mg0_6 3.271317 1_555
Dy0_6 Mg1_2 3.311136 1_655
Dy0_6 Mg1_6 3.311138 1_555
Dy0_6 Mg1_3 3.311145 1_654
Dy0_6 Mg1_7 3.311147 1_554
Dy0_6 Dy3_0 3.579638 1_655
Dy0_6 Dy3_1 3.579646 1_654
Dy0_6 Dy1_0 3.614924 1_655
Dy0_6 Dy1_4 3.614924 1_555
Dy0_7 Mg0_3 3.271313 1_655
Dy0_7 Mg0_7 3.271317 1_555
Dy0_7 Mg1_3 3.311136 1_655
Dy0_7 Mg1_7 3.311138 1_555
Dy0_7 Mg1_2 3.311145 1_655
Dy0_7 Mg1_6 3.311147 1_555
Dy0_7 Dy3_1 3.579638 1_655
Dy0_7 Dy3_0 3.579646 1_655
Dy0_7 Dy1_1 3.614924 1_655
Dy0_7 Dy1_5 3.614924 1_555
Dy1_0 Mg0_4 3.315197 1_555
Dy1_0 Mg0_0 3.315201 1_555
Dy1_0 Dy3_4 3.374838 1_555
Dy1_0 Dy3_0 3.374844 1_555
Dy1_0 Dy3_5 3.374847 1_554
Dy1_0 Dy3_1 3.374853 1_554
Dy1_0 Dy2_0 3.579627 1_555
Dy1_0 Dy2_1 3.579635 1_554
Dy1_0 Dy1_4 3.688894 1_455
Dy1_0 Dy1_4 3.688894 1_555
Dy1_1 Mg0_5 3.315197 1_555
Dy1_1 Mg0_1 3.315201 1_555
Dy1_1 Dy3_5 3.374838 1_555
Dy1_1 Dy3_1 3.374844 1_555
Dy1_1 Dy3_4 3.374847 1_555
Dy1_1 Dy3_0 3.374853 1_555
Dy1_1 Dy2_1 3.579627 1_555
Dy1_1 Dy2_0 3.579635 1_555
Dy1_1 Dy1_5 3.688894 1_455
Dy1_1 Dy1_5 3.688894 1_555
Dy1_2 Mg0_6 3.315197 1_555
Dy1_2 Mg0_2 3.315201 1_555
Dy1_2 Dy3_6 3.374838 1_555
Dy1_2 Dy3_2 3.374844 1_555
Dy1_2 Dy3_7 3.374847 1_554
Dy1_2 Dy3_3 3.374853 1_554
Dy1_2 Dy2_2 3.579627 1_555
Dy1_2 Dy2_3 3.579635 1_554
Dy1_2 Dy1_6 3.688894 1_455
Dy1_2 Dy1_6 3.688894 1_555
Dy1_3 Mg0_7 3.315197 1_555
Dy1_3 Mg0_3 3.315201 1_555
Dy1_3 Dy3_7 3.374838 1_555
Dy1_3 Dy3_3 3.374844 1_555
Dy1_3 Dy3_6 3.374847 1_555
Dy1_3 Dy3_2 3.374853 1_555
Dy1_3 Dy2_3 3.579627 1_555
Dy1_3 Dy2_2 3.579635 1_555
Dy1_3 Dy1_7 3.688894 1_455
Dy1_3 Dy1_7 3.688894 1_555
Dy1_4 Mg0_0 3.315197 1_655
Dy1_4 Mg0_4 3.315201 1_555
Dy1_4 Dy3_0 3.374838 1_655
Dy1_4 Dy3_4 3.374844 1_555
Dy1_4 Dy3_1 3.374847 1_654
Dy1_4 Dy3_5 3.374853 1_554
Dy1_4 Dy2_4 3.579627 1_555
Dy1_4 Dy2_5 3.579635 1_554
Dy1_5 Mg0_1 3.315197 1_655
Dy1_5 Mg0_5 3.315201 1_555
Dy1_5 Dy3_1 3.374838 1_655
Dy1_5 Dy3_5 3.374844 1_555
Dy1_5 Dy3_0 3.374847 1_655
Dy1_5 Dy3_4 3.374853 1_555
Dy1_5 Dy2_5 3.579627 1_555
Dy1_5 Dy2_4 3.579635 1_555
Dy1_6 Mg0_2 3.315197 1_655
Dy1_6 Mg0_6 3.315201 1_555
Dy1_6 Dy3_2 3.374838 1_655
Dy1_6 Dy3_6 3.374844 1_555
Dy1_6 Dy3_3 3.374847 1_654
Dy1_6 Dy3_7 3.374853 1_554
Dy1_6 Dy2_6 3.579627 1_555
Dy1_6 Dy2_7 3.579635 1_554
Dy1_7 Mg0_3 3.315197 1_655
Dy1_7 Mg0_7 3.315201 1_555
Dy1_7 Dy3_3 3.374838 1_655
Dy1_7 Dy3_7 3.374844 1_555
Dy1_7 Dy3_2 3.374847 1_655
Dy1_7 Dy3_6 3.374853 1_555
Dy1_7 Dy2_7 3.579627 1_555
Dy1_7 Dy2_6 3.579635 1_555
Dy2_0 Mg1_4 3.271327 1_555
Dy2_0 Mg1_0 3.271331 1_555
Dy2_0 Mg0_4 3.311137 1_555
Dy2_0 Mg0_0 3.311143 1_555
Dy2_0 Mg0_5 3.311145 1_555
Dy2_0 Mg0_1 3.311152 1_555
Dy2_0 Dy3_4 3.614905 1_555
Dy2_0 Dy3_0 3.614913 1_555
Dy2_0 Dy2_4 3.688894 1_455
Dy2_0 Dy2_4 3.688894 1_555
Dy2_1 Mg1_5 3.271327 1_555
Dy2_1 Mg1_1 3.271331 1_555
Dy2_1 Mg0_5 3.311137 1_555
Dy2_1 Mg0_1 3.311143 1_555
Dy2_1 Mg0_4 3.311145 1_556
Dy2_1 Mg0_0 3.311152 1_556
Dy2_1 Dy3_5 3.614905 1_555
Dy2_1 Dy3_1 3.614913 1_555
Dy2_1 Dy2_5 3.688894 1_455
Dy2_1 Dy2_5 3.688894 1_555
Dy2_2 Mg1_6 3.271327 1_555
Dy2_2 Mg1_2 3.271331 1_555
Dy2_2 Mg0_6 3.311137 1_555
Dy2_2 Mg0_2 3.311143 1_555
Dy2_2 Mg0_7 3.311145 1_555
Dy2_2 Mg0_3 3.311152 1_555
Dy2_2 Dy3_6 3.614905 1_555
Dy2_2 Dy3_2 3.614913 1_555
Dy2_2 Dy2_6 3.688894 1_455
Dy2_2 Dy2_6 3.688894 1_555
Dy2_3 Mg1_7 3.271327 1_555
Dy2_3 Mg1_3 3.271331 1_555
Dy2_3 Mg0_7 3.311137 1_555
Dy2_3 Mg0_3 3.311143 1_555
Dy2_3 Mg0_6 3.311145 1_556
Dy2_3 Mg0_2 3.311152 1_556
Dy2_3 Dy3_7 3.614905 1_555
Dy2_3 Dy3_3 3.614913 1_555
Dy2_3 Dy2_7 3.688894 1_455
Dy2_3 Dy2_7 3.688894 1_555
Dy2_4 Mg1_0 3.271327 1_655
Dy2_4 Mg1_4 3.271331 1_555
Dy2_4 Mg0_0 3.311137 1_655
Dy2_4 Mg0_4 3.311143 1_555
Dy2_4 Mg0_1 3.311145 1_655
Dy2_4 Mg0_5 3.311152 1_555
Dy2_4 Dy3_0 3.614905 1_655
Dy2_4 Dy3_4 3.614913 1_555
Dy2_5 Mg1_1 3.271327 1_655
Dy2_5 Mg1_5 3.271331 1_555
Dy2_5 Mg0_1 3.311137 1_655
Dy2_5 Mg0_5 3.311143 1_555
Dy2_5 Mg0_0 3.311145 1_656
Dy2_5 Mg0_4 3.311152 1_556
Dy2_5 Dy3_1 3.614905 1_655
Dy2_5 Dy3_5 3.614913 1_555
Dy2_6 Mg1_2 3.271327 1_655
Dy2_6 Mg1_6 3.271331 1_555
Dy2_6 Mg0_2 3.311137 1_655
Dy2_6 Mg0_6 3.311143 1_555
Dy2_6 Mg0_3 3.311145 1_655
Dy2_6 Mg0_7 3.311152 1_555
Dy2_6 Dy3_2 3.614905 1_655
Dy2_6 Dy3_6 3.614913 1_555
Dy2_7 Mg1_3 3.271327 1_655
Dy2_7 Mg1_7 3.271331 1_555
Dy2_7 Mg0_3 3.311137 1_655
Dy2_7 Mg0_7 3.311143 1_555
Dy2_7 Mg0_2 3.311145 1_656
Dy2_7 Mg0_6 3.311152 1_556
Dy2_7 Dy3_3 3.614905 1_655
Dy2_7 Dy3_7 3.614913 1_555
Dy3_0 Mg1_6 3.315197 1_455
Dy3_0 Mg1_2 3.315201 1_555
Dy3_0 Dy3_4 3.688894 1_555
Dy3_0 Dy3_4 3.688894 1_455
Dy3_1 Mg1_7 3.315197 1_455
Dy3_1 Mg1_3 3.315201 1_555
Dy3_1 Dy3_5 3.688894 1_555
Dy3_1 Dy3_5 3.688894 1_455
Dy3_2 Mg1_4 3.315197 1_465
Dy3_2 Mg1_0 3.315201 1_565
Dy3_2 Dy3_6 3.688894 1_455
Dy3_2 Dy3_6 3.688894 1_555
Dy3_3 Mg1_5 3.315197 1_465
Dy3_3 Mg1_1 3.315201 1_565
Dy3_3 Dy3_7 3.688894 1_455
Dy3_3 Dy3_7 3.688894 1_555
Dy3_4 Mg1_2 3.315197 1_555
Dy3_4 Mg1_6 3.315201 1_555
Dy3_5 Mg1_3 3.315197 1_555
Dy3_5 Mg1_7 3.315201 1_555
Dy3_6 Mg1_0 3.315197 1_565
Dy3_6 Mg1_4 3.315201 1_565
Dy3_7 Mg1_1 3.315197 1_565
Dy3_7 Mg1_5 3.315201 1_565
