# generated using pymatgen
data_CoP3NO9
_symmetry_space_group_name_H-M   'P 1'
_cell_length_a   4.96064200
_cell_length_b   11.68620100
_cell_length_c   12.84735300
_cell_angle_alpha   90.00000000
_cell_angle_beta   90.00000000
_cell_angle_gamma   90.00000000
_symmetry_Int_Tables_number   1
_chemical_formula_structural   CoP3NO9
_chemical_formula_sum   'Co4 P12 N4 O36'
_cell_volume   744.77466519
_cell_formula_units_Z   4
loop_
 _symmetry_equiv_pos_site_id
 _symmetry_equiv_pos_as_xyz
  1  'x, y, z'
loop_
 _atom_site_type_symbol
 _atom_site_label
 _atom_site_symmetry_multiplicity
 _atom_site_fract_x
 _atom_site_fract_y
 _atom_site_fract_z
 _atom_site_occupancy
  Co  Co0  1  0.00000000  0.50000000  0.50000000  1
  Co  Co1  1  0.00000000  0.50000000  0.00000000  1
  Co  Co2  1  0.00000000  0.00000000  0.50000000  1
  Co  Co3  1  0.00000000  0.00000000  0.00000000  1
  P  P0  1  0.76010200  0.25000000  0.50000000  1
  P  P1  1  0.23989800  0.75000000  0.00000000  1
  P  P2  1  0.23989800  0.75000000  0.50000000  1
  P  P3  1  0.76010200  0.25000000  0.00000000  1
  P  P4  1  0.49086000  0.07758700  0.62990200  1
  P  P5  1  0.50914000  0.92241300  0.12990200  1
  P  P6  1  0.49086000  0.42241300  0.37009800  1
  P  P7  1  0.50914000  0.57758700  0.87009800  1
  P  P8  1  0.50914000  0.92241300  0.37009800  1
  P  P9  1  0.49086000  0.07758700  0.87009800  1
  P  P10  1  0.50914000  0.57758700  0.62990200  1
  P  P11  1  0.49086000  0.42241300  0.12990200  1
  N  N0  1  0.02327100  0.26383600  0.75000000  1
  N  N1  1  0.97672900  0.73616400  0.25000000  1
  N  N2  1  0.02327100  0.23616400  0.25000000  1
  N  N3  1  0.97672900  0.76383600  0.75000000  1
  O  O0  1  0.55739900  0.20458200  0.58833100  1
  O  O1  1  0.44260100  0.79541800  0.08833100  1
  O  O2  1  0.55739900  0.29541800  0.41166900  1
  O  O3  1  0.44260100  0.70458200  0.91166900  1
  O  O4  1  0.44260100  0.79541800  0.41166900  1
  O  O5  1  0.55739900  0.20458200  0.91166900  1
  O  O6  1  0.44260100  0.70458200  0.58833100  1
  O  O7  1  0.55739900  0.29541800  0.08833100  1
  O  O8  1  0.91712600  0.34827000  0.54576600  1
  O  O9  1  0.08287400  0.65173000  0.04576600  1
  O  O10  1  0.91712600  0.15173000  0.45423400  1
  O  O11  1  0.08287400  0.84827000  0.95423400  1
  O  O12  1  0.08287400  0.65173000  0.45423400  1
  O  O13  1  0.91712600  0.34827000  0.95423400  1
  O  O14  1  0.08287400  0.84827000  0.54576600  1
  O  O15  1  0.91712600  0.15173000  0.04576600  1
  O  O16  1  0.19155900  0.05604000  0.61989900  1
  O  O17  1  0.80844100  0.94396000  0.11989900  1
  O  O18  1  0.19155900  0.44396000  0.38010100  1
  O  O19  1  0.80844100  0.55604000  0.88010100  1
  O  O20  1  0.80844100  0.94396000  0.38010100  1
  O  O21  1  0.19155900  0.05604000  0.88010100  1
  O  O22  1  0.80844100  0.55604000  0.61989900  1
  O  O23  1  0.19155900  0.44396000  0.11989900  1
  O  O24  1  0.68171700  0.98941000  0.58519600  1
  O  O25  1  0.31828300  0.01059000  0.08519600  1
  O  O26  1  0.68171700  0.51059000  0.41480400  1
  O  O27  1  0.31828300  0.48941000  0.91480400  1
  O  O28  1  0.31828300  0.01059000  0.41480400  1
  O  O29  1  0.68171700  0.98941000  0.91480400  1
  O  O30  1  0.31828300  0.48941000  0.58519600  1
  O  O31  1  0.68171700  0.51059000  0.08519600  1
  O  O32  1  0.55659500  0.09356200  0.75000000  1
  O  O33  1  0.44340500  0.90643800  0.25000000  1
  O  O34  1  0.55659500  0.40643800  0.25000000  1
  O  O35  1  0.44340500  0.59356200  0.75000000  1
loop_
_geom_bond_atom_site_label_1
_geom_bond_atom_site_label_2
_geom_bond_distance
_geom_bond_site_symmetry_2
Co0 O8 1.912792 1_455
Co0 O12 1.912792 1_555
Co0 O18 1.924749 1_555
Co0 O22 1.924749 1_455
Co0 O26 1.925157 1_455
Co0 O30 1.925157 1_555
Co1 O13 1.912792 1_454
Co1 O9 1.912792 1_555
Co1 O19 1.924749 1_454
Co1 O23 1.924749 1_555
Co1 O31 1.925157 1_455
Co1 O27 1.925157 1_554
Co2 O10 1.912792 1_455
Co2 O14 1.912792 1_545
Co2 O16 1.924749 1_555
Co2 O20 1.924749 1_445
Co2 O28 1.925157 1_555
Co2 O24 1.925157 1_445
Co3 O15 1.912792 1_455
Co3 O11 1.912792 1_544
Co3 O21 1.924749 1_554
Co3 O17 1.924749 1_445
Co3 O25 1.925157 1_555
Co3 O29 1.925157 1_444
O0 P0 1.606434 1_555
O0 P4 1.611431 1_555
O1 P1 1.606434 1_555
O1 P5 1.611431 1_555
O2 P0 1.606434 1_555
O2 P6 1.611431 1_555
O3 P1 1.606434 1_556
O3 P7 1.611431 1_555
O4 P2 1.606434 1_555
O4 P8 1.611431 1_555
O5 P3 1.606434 1_556
O5 P9 1.611431 1_555
O6 P2 1.606434 1_555
O6 P10 1.611431 1_555
O7 P3 1.606434 1_555
O7 P11 1.611431 1_555
O8 P0 1.507079 1_555
O9 P1 1.507079 1_555
O10 P0 1.507079 1_555
O11 P1 1.507079 1_556
O12 P2 1.507079 1_555
O13 P3 1.507079 1_556
O14 P2 1.507079 1_555
O15 P3 1.507079 1_555
O16 P4 1.511400 1_555
O17 P5 1.511400 1_555
O18 P6 1.511400 1_555
O19 P7 1.511400 1_555
O20 P8 1.511400 1_555
O21 P9 1.511400 1_555
O22 P10 1.511400 1_555
O23 P11 1.511400 1_555
O24 P4 1.512646 1_565
O25 P5 1.512646 1_545
O26 P6 1.512646 1_555
O27 P7 1.512646 1_555
O28 P8 1.512646 1_545
O29 P9 1.512646 1_565
O30 P10 1.512646 1_555
O31 P11 1.512646 1_555
O32 P9 1.588034 1_555
O32 P4 1.588034 1_555
O33 P8 1.588034 1_555
O33 P5 1.588034 1_555
O34 P6 1.588034 1_555
O34 P11 1.588034 1_555
O35 P10 1.588034 1_555
O35 P7 1.588034 1_555
