# generated using pymatgen
data_ErAl3
_symmetry_space_group_name_H-M   'P 1'
_cell_length_a   12.36137364
_cell_length_b   12.36137364
_cell_length_c   12.36137266
_cell_angle_alpha   28.21641778
_cell_angle_beta   28.21641778
_cell_angle_gamma   28.21641792
_symmetry_Int_Tables_number   1
_chemical_formula_structural   ErAl3
_chemical_formula_sum   'Er5 Al15'
_cell_volume   373.05408013
_cell_formula_units_Z   5
loop_
 _symmetry_equiv_pos_site_id
 _symmetry_equiv_pos_as_xyz
  1  'x, y, z'
loop_
 _atom_site_type_symbol
 _atom_site_label
 _atom_site_symmetry_multiplicity
 _atom_site_fract_x
 _atom_site_fract_y
 _atom_site_fract_z
 _atom_site_occupancy
  Er  Er0  1  -0.00000000  -0.00000000  0.00000000  1
  Er  Er1  1  0.13126877  0.13126877  0.13126877  1
  Er  Er2  1  0.86873123  0.86873123  0.86873123  1
  Er  Er3  1  0.40000105  0.40000105  0.40000105  1
  Er  Er4  1  0.59999895  0.59999895  0.59999895  1
  Al  Al0  1  0.12894616  0.63573676  0.63573676  1
  Al  Al1  1  0.63573676  0.63573676  0.12894616  1
  Al  Al2  1  0.63573676  0.12894616  0.63573676  1
  Al  Al3  1  0.36426324  0.87105384  0.36426324  1
  Al  Al4  1  0.36426324  0.36426324  0.87105384  1
  Al  Al5  1  0.87105384  0.36426324  0.36426324  1
  Al  Al6  1  0.43229601  0.88319148  0.88319148  1
  Al  Al7  1  0.88319148  0.88319148  0.43229601  1
  Al  Al8  1  0.88319148  0.43229601  0.88319148  1
  Al  Al9  1  0.11680852  0.56770399  0.11680852  1
  Al  Al10  1  0.11680852  0.11680852  0.56770399  1
  Al  Al11  1  0.56770399  0.11680852  0.11680852  1
  Al  Al12  1  0.50000000  0.50000000  0.00000000  1
  Al  Al13  1  0.50000000  -0.00000000  0.50000000  1
  Al  Al14  1  -0.00000000  0.50000000  0.50000000  1
loop_
_geom_bond_atom_site_label_1
_geom_bond_atom_site_label_2
_geom_bond_distance
_geom_bond_site_symmetry_2
Al0 Al7 2.905175 1_455
Al0 Al8 2.905176 1_455
Al0 Al4 2.947859 1_555
Al0 Al3 2.947860 1_555
Al0 Er3 2.959811 1_555
Al0 Al1 2.972212 1_456
Al0 Al2 2.972212 1_465
Al0 Er2 2.983665 1_455
Al0 Er1 3.014247 1_565
Al0 Er1 3.014247 1_556
Al0 Al1 3.054056 1_555
Al0 Al2 3.054056 1_555
Al1 Al8 2.905175 1_554
Al1 Al6 2.905175 1_554
Al1 Al5 2.947859 1_555
Al1 Al3 2.947859 1_555
Al1 Er3 2.959811 1_555
Al1 Al2 2.972212 1_564
Al1 Er2 2.983666 1_554
Al1 Er1 3.014247 1_565
Al1 Er1 3.014247 1_655
Al1 Al2 3.054056 1_555
Al2 Al7 2.905175 1_545
Al2 Al6 2.905176 1_545
Al2 Al4 2.947859 1_555
Al2 Al5 2.947860 1_555
Al2 Er3 2.959811 1_555
Al2 Er2 2.983665 1_545
Al2 Er1 3.014247 1_655
Al2 Er1 3.014247 1_556
Al3 Er4 2.959811 1_555
Al3 Al4 2.972212 1_564
Al3 Al5 2.972212 1_465
Al3 Er1 2.983665 1_565
Al3 Er2 3.014247 1_455
Al3 Er2 3.014247 1_554
Al3 Al4 3.054056 1_555
Al3 Al5 3.054056 1_555
Al4 Al9 2.905175 1_556
Al4 Er4 2.959811 1_555
Al4 Al5 2.972212 1_456
Al4 Er1 2.983666 1_556
Al4 Er2 3.014247 1_455
Al4 Er2 3.014247 1_545
Al4 Al5 3.054056 1_555
Al5 Al9 2.905176 1_655
Al5 Er4 2.959811 1_555
Al5 Er1 2.983665 1_655
Al5 Er2 3.014247 1_545
Al5 Er2 3.014247 1_554
Al6 Al7 2.717217 1_555
Al6 Al8 2.717217 1_555
Al6 Er1 3.001163 1_566
Al6 Er3 3.018014 1_556
Al6 Er3 3.018014 1_565
Al6 Er0 3.033771 1_566
Al7 Al8 2.717217 1_555
Al7 Er1 3.001163 1_665
Al7 Er3 3.018014 1_655
Al7 Er3 3.018014 1_565
Al7 Er0 3.033771 1_665
Al8 Er1 3.001163 1_656
Al8 Er3 3.018014 1_556
Al8 Er3 3.018014 1_655
Al8 Er0 3.033771 1_656
Al9 Er2 3.001163 1_454
Al9 Er4 3.018014 1_554
Al9 Er4 3.018014 1_455
Al9 Er0 3.033771 1_565
Al10 Al9 2.717217 1_555
Al10 Al11 2.717217 1_555
Al10 Al14 2.883077 1_555
Al10 Al13 2.883077 1_555
Al10 Al5 2.905175 1_455
Al10 Al3 2.905175 1_545
Al10 Er2 3.001163 1_445
Al10 Er4 3.018014 1_545
Al10 Er4 3.018014 1_455
Al10 Er0 3.033771 1_556
Al11 Al9 2.717217 1_555
Al11 Al13 2.883076 1_555
Al11 Al12 2.883077 1_555
Al11 Al4 2.905175 1_554
Al11 Al3 2.905176 1_545
Al11 Er2 3.001163 1_544
Al11 Er4 3.018014 1_554
Al11 Er4 3.018014 1_545
Al11 Er0 3.033771 1_655
Al12 Al9 2.883077 1_555
Al12 Al6 2.883077 1_554
Al12 Al8 2.883077 1_554
Al12 Er4 2.941841 1_554
Al12 Er3 2.941841 1_555
Al12 Al13 3.013134 1_555
Al12 Al14 3.013134 1_654
Al12 Al13 3.013134 1_564
Al12 Al14 3.013134 1_555
Al12 Er0 3.013134 1_655
Al12 Er0 3.013134 1_565
Al13 Al6 2.883076 1_545
Al13 Al7 2.883077 1_545
Al13 Er4 2.941842 1_545
Al13 Er3 2.941842 1_555
Al13 Er0 3.013134 1_655
Al13 Er0 3.013134 1_556
Al13 Al14 3.013134 1_645
Al13 Al14 3.013134 1_555
Al14 Al9 2.883076 1_555
Al14 Al8 2.883076 1_455
Al14 Al7 2.883077 1_455
Al14 Er4 2.941842 1_455
Al14 Er3 2.941842 1_555
Al14 Er0 3.013134 1_565
Al14 Er0 3.013134 1_556
