# generated using pymatgen
data_Li3Mn3NiO8
_symmetry_space_group_name_H-M   'P 1'
_cell_length_a   5.97147690
_cell_length_b   5.97147690
_cell_length_c   5.81025916
_cell_angle_alpha   61.36760431
_cell_angle_beta   61.36760431
_cell_angle_gamma   57.99680876
_symmetry_Int_Tables_number   1
_chemical_formula_structural   Li3Mn3NiO8
_chemical_formula_sum   'Li3 Mn3 Ni1 O8'
_cell_volume   146.98132525
_cell_formula_units_Z   1
loop_
 _symmetry_equiv_pos_site_id
 _symmetry_equiv_pos_as_xyz
  1  'x, y, z'
loop_
 _atom_site_type_symbol
 _atom_site_label
 _atom_site_symmetry_multiplicity
 _atom_site_fract_x
 _atom_site_fract_y
 _atom_site_fract_z
 _atom_site_occupancy
  Li  Li0  1  0.50000000  0.00000000  0.00000000  1
  Li  Li1  1  0.00000000  0.00000000  0.00000000  1
  Li  Li2  1  0.00000000  0.50000000  0.00000000  1
  Mn  Mn0  1  0.00000000  0.50000000  0.50000000  1
  Mn  Mn1  1  0.50000000  0.50000000  0.50000000  1
  Mn  Mn2  1  0.50000000  0.00000000  0.50000000  1
  Ni  Ni0  1  0.00000000  0.00000000  0.50000000  1
  O  O0  1  0.24096000  0.24096000  0.73888400  1
  O  O1  1  0.28593700  0.77033900  0.70338100  1
  O  O2  1  0.75885300  0.75885300  0.71933700  1
  O  O3  1  0.75904000  0.75904000  0.26111600  1
  O  O4  1  0.77033900  0.28593700  0.70338100  1
  O  O5  1  0.71406300  0.22966100  0.29661900  1
  O  O6  1  0.24114700  0.24114700  0.28066300  1
  O  O7  1  0.22966100  0.71406300  0.29661900  1
loop_
_geom_bond_atom_site_label_1
_geom_bond_atom_site_label_2
_geom_bond_distance
_geom_bond_site_symmetry_2
Li0 O3 2.136056 1_545
Li0 O0 2.136056 1_554
Li0 O2 2.144216 1_544
Li0 O6 2.144216 1_555
Li0 O4 2.434484 1_554
Li0 O7 2.434484 1_545
Li1 O3 2.110150 1_445
Li1 O0 2.110150 1_554
Li1 O4 2.174719 1_454
Li1 O1 2.174719 1_544
Li1 O7 2.174719 1_545
Li1 O5 2.174719 1_455
Li2 O3 2.136056 1_455
Li2 O0 2.136056 1_554
Li2 O2 2.144216 1_454
Li2 O6 2.144216 1_555
Li2 O1 2.434484 1_554
Li2 O5 2.434484 1_455
Mn0 O7 1.941256 1_555
Mn0 O4 1.941256 1_455
Mn0 O2 1.963895 1_455
Mn0 O6 1.963895 1_555
Mn0 O3 1.971515 1_455
Mn0 O0 1.971515 1_555
Mn1 O7 1.956984 1_555
Mn1 O5 1.956984 1_555
Mn1 O1 1.956984 1_555
Mn1 O4 1.956984 1_555
Mn1 O0 2.265585 1_555
Mn1 O3 2.265585 1_555
Mn2 O5 1.941256 1_555
Mn2 O1 1.941256 1_545
Mn2 O2 1.963895 1_545
Mn2 O6 1.963895 1_555
Mn2 O3 1.971515 1_545
Mn2 O0 1.971515 1_555
Ni0 O5 2.022677 1_455
Ni0 O7 2.022677 1_545
Ni0 O1 2.022677 1_545
Ni0 O4 2.022677 1_455
Ni0 O6 2.109904 1_555
Ni0 O2 2.109904 1_445
