# generated using pymatgen
data_Ti2TcRh
_symmetry_space_group_name_H-M   'P 1'
_cell_length_a   4.36261623
_cell_length_b   4.36261623
_cell_length_c   4.36261623
_cell_angle_alpha   60.00000000
_cell_angle_beta   60.00000000
_cell_angle_gamma   60.00000000
_symmetry_Int_Tables_number   1
_chemical_formula_structural   Ti2TcRh
_chemical_formula_sum   'Ti2 Tc1 Rh1'
_cell_volume   58.71188639
_cell_formula_units_Z   1
loop_
 _symmetry_equiv_pos_site_id
 _symmetry_equiv_pos_as_xyz
  1  'x, y, z'
loop_
 _atom_site_type_symbol
 _atom_site_label
 _atom_site_symmetry_multiplicity
 _atom_site_fract_x
 _atom_site_fract_y
 _atom_site_fract_z
 _atom_site_occupancy
  Ti  Ti0  1  0.00000000  0.00000000  -0.00000000  1
  Ti  Ti1  1  0.49999900  0.49999900  0.49999900  1
  Tc  Tc0  1  0.74999900  0.74999900  0.74999900  1
  Rh  Rh0  1  0.25000000  0.25000000  0.25000000  1
loop_
_geom_bond_atom_site_label_1
_geom_bond_atom_site_label_2
_geom_bond_distance
_geom_bond_site_symmetry_2
Tc0 Ti0 2.671542 1_665
Tc0 Ti0 2.671542 1_656
Tc0 Ti0 2.671542 1_566
Tc0 Ti1 2.671546 1_555
Tc0 Ti1 2.671546 1_556
Tc0 Ti1 2.671546 1_565
Tc0 Ti1 2.671546 1_655
Tc0 Ti0 2.671557 1_666
Rh0 Ti1 2.671535 1_555
Rh0 Ti0 2.671546 1_655
Rh0 Ti0 2.671546 1_555
Rh0 Ti0 2.671546 1_565
Rh0 Ti0 2.671546 1_556
Rh0 Ti1 2.671549 1_554
Rh0 Ti1 2.671549 1_545
Rh0 Ti1 2.671549 1_455
