# generated using pymatgen
data_Li5Mn4(P2O7)4
_symmetry_space_group_name_H-M   'P 1'
_cell_length_a   9.80000800
_cell_length_b   9.80618302
_cell_length_c   11.27269177
_cell_angle_alpha   89.96189933
_cell_angle_beta   76.96283504
_cell_angle_gamma   89.88423025
_symmetry_Int_Tables_number   1
_chemical_formula_structural   Li5Mn4(P2O7)4
_chemical_formula_sum   'Li10 Mn8 P16 O56'
_cell_volume   1055.38753444
_cell_formula_units_Z   2
loop_
 _symmetry_equiv_pos_site_id
 _symmetry_equiv_pos_as_xyz
  1  'x, y, z'
loop_
 _atom_site_type_symbol
 _atom_site_label
 _atom_site_symmetry_multiplicity
 _atom_site_fract_x
 _atom_site_fract_y
 _atom_site_fract_z
 _atom_site_occupancy
  Li  Li0  1  0.91196500  0.89178900  0.02650500  1
  Li  Li1  1  0.59054300  0.39174600  0.97296500  1
  Li  Li2  1  0.66320900  0.07799700  0.46112700  1
  Li  Li3  1  0.34989100  0.93632400  0.52931300  1
  Li  Li4  1  0.41133800  0.60524100  0.02950500  1
  Li  Li5  1  0.14796200  0.41390200  0.95508300  1
  Li  Li6  1  0.35297900  0.90967100  0.04320500  1
  Li  Li7  1  0.08831700  0.10508100  0.96969000  1
  Li  Li8  1  0.16016100  0.42038300  0.46264000  1
  Li  Li9  1  0.10918900  0.71984500  0.54816800  1
  Mn  Mn0  1  0.80122600  0.07605500  0.67071700  1
  Mn  Mn1  1  0.74277500  0.78723800  0.82394100  1
  Mn  Mn2  1  0.75986600  0.28766700  0.17707600  1
  Mn  Mn3  1  0.69915400  0.57561100  0.33446200  1
  Mn  Mn4  1  0.29707000  0.42461800  0.67251100  1
  Mn  Mn5  1  0.24330500  0.71535700  0.82501500  1
  Mn  Mn6  1  0.26040700  0.21642800  0.17516500  1
  Mn  Mn7  1  0.20033400  0.92508000  0.32654200  1
  P  P0  1  0.97271200  0.55016800  0.75237400  1
  P  P1  1  0.87984900  0.28942600  0.88664400  1
  P  P2  1  0.93781400  0.07105500  0.24086400  1
  P  P3  1  0.87439000  0.84943100  0.42842600  1
  P  P4  1  0.62276900  0.35832900  0.56967000  1
  P  P5  1  0.56326100  0.57191900  0.75755400  1
  P  P6  1  0.47924500  0.94896100  0.75618600  1
  P  P7  1  0.62115900  0.78814500  0.11567800  1
  P  P8  1  0.38519600  0.20780300  0.89157000  1
  P  P9  1  0.52720900  0.05554600  0.24596200  1
  P  P10  1  0.43705800  0.42984100  0.24131300  1
  P  P11  1  0.37695400  0.64886100  0.42429300  1
  P  P12  1  0.12188300  0.14937800  0.57986200  1
  P  P13  1  0.06461600  0.92855500  0.75749400  1
  P  P14  1  0.11533700  0.70576400  0.10949700  1
  P  P15  1  0.02590400  0.44486700  0.24395200  1
  O  O0  1  0.98435400  0.57936100  0.62105900  1
  O  O1  1  0.96711900  0.15595600  0.56968700  1
  O  O2  1  0.91689800  0.91175600  0.73204700  1
  O  O3  1  0.88467200  0.65251300  0.84389200  1
  O  O4  1  0.89567500  0.40668500  0.78353200  1
  O  O5  1  0.82233100  0.16885900  0.82653100  1
  O  O6  1  0.77175900  0.34292700  0.00054700  1
  O  O7  1  0.97859000  0.73176300  0.07796800  1
  O  O8  1  0.87995500  0.92788900  0.29876500  1
  O  O9  1  0.93893800  0.06410500  0.10665600  1
  O  O10  1  0.87491400  0.44852100  0.21460700  1
  O  O11  1  0.81147200  0.71360900  0.41060000  1
  O  O12  1  0.82642300  0.17906500  0.30169900  1
  O  O13  1  0.78426600  0.94564900  0.52535100  1
  O  O14  1  0.71067100  0.43848900  0.46231700  1
  O  O15  1  0.66242600  0.69055100  0.70418900  1
  O  O16  1  0.67942000  0.21573200  0.58228000  1
  O  O17  1  0.63407200  0.95876600  0.78043400  1
  O  O18  1  0.63187500  0.43384200  0.69495000  1
  O  O19  1  0.55850200  0.55891600  0.89174700  1
  O  O20  1  0.52199500  0.23211200  0.92335700  1
  O  O21  1  0.72977100  0.83936000  0.00131800  1
  O  O22  1  0.67808500  0.67040400  0.18074200  1
  O  O23  1  0.60142400  0.90990100  0.21465000  1
  O  O24  1  0.58253300  0.41208500  0.26983800  1
  O  O25  1  0.61697700  0.15771900  0.15701700  1
  O  O26  1  0.47806800  0.91769400  0.62745700  1
  O  O27  1  0.52646600  0.65362100  0.43946700  1
  O  O28  1  0.46500400  0.35168400  0.56785000  1
  O  O29  1  0.51570200  0.07528800  0.37902300  1
  O  O30  1  0.39389500  0.85658400  0.85661600  1
  O  O31  1  0.41622100  0.58449900  0.72715400  1
  O  O32  1  0.40836200  0.09803400  0.78157900  1
  O  O33  1  0.31260600  0.32787300  0.84268300  1
  O  O34  1  0.27689000  0.13890100  0.00218000  1
  O  O35  1  0.48105700  0.76758900  0.08363800  1
  O  O36  1  0.43684000  0.43389600  0.10750900  1
  O  O37  1  0.37666900  0.57578700  0.29489000  1
  O  O38  1  0.37863100  0.04822900  0.20980200  1
  O  O39  1  0.31593500  0.79061300  0.41548900  1
  O  O40  1  0.32842100  0.32162600  0.30369500  1
  O  O41  1  0.27500700  0.56424800  0.52063800  1
  O  O42  1  0.21294900  0.06289100  0.48224100  1
  O  O43  1  0.16690800  0.82136800  0.68713500  1
  O  O44  1  0.17590200  0.29442500  0.59334100  1
  O  O45  1  0.12382400  0.53444200  0.78501200  1
  O  O46  1  0.06943200  0.92966100  0.89059000  1
  O  O47  1  0.12280900  0.07691200  0.70903500  1
  O  O48  1  0.02065100  0.27101300  0.91810200  1
  O  O49  1  0.22240400  0.63388300  0.00231200  1
  O  O50  1  0.18800200  0.82616800  0.15720900  1
  O  O51  1  0.08960900  0.59585200  0.22143800  1
  O  O52  1  0.12015800  0.35402600  0.14219800  1
  O  O53  1  0.08346900  0.09325500  0.26827500  1
  O  O54  1  0.02531000  0.83761400  0.44226500  1
  O  O55  1  0.02767800  0.40692900  0.37047300  1
loop_
_geom_bond_atom_site_label_1
_geom_bond_atom_site_label_2
_geom_bond_distance
_geom_bond_site_symmetry_2
Li0 O7 1.841447 1_555
Li0 O21 1.940511 1_555
Li0 O46 1.949765 1_654
Li0 O9 1.962932 1_565
Li1 O20 1.841026 1_555
Li1 O36 1.925528 1_556
Li1 O6 1.930085 1_556
Li1 O19 1.936427 1_555
Li2 O29 1.884357 1_555
Li2 O16 1.953435 1_555
Li2 O13 1.998996 1_545
Li2 O12 2.340436 1_555
Li3 O26 1.860391 1_555
Li3 O42 1.984117 1_565
Li3 O39 1.998938 1_555
Li3 O29 2.476185 1_565
Li3 O43 2.493535 1_555
Li4 O35 1.888784 1_555
Li4 O19 1.919815 1_554
Li4 O36 1.937614 1_555
Li4 O49 1.963406 1_555
Li5 O48 1.984001 1_555
Li5 O33 1.998520 1_555
Li5 O52 2.146578 1_556
Li5 O45 2.308490 1_555
Li5 O49 2.377432 1_556
Li6 O35 1.993644 1_555
Li6 O50 2.000642 1_555
Li6 O30 2.115659 1_554
Li6 O38 2.377809 1_565
Li6 O34 2.443410 1_565
Li7 O48 1.895768 1_555
Li7 O9 1.915769 1_456
Li7 O46 1.966265 1_545
Li7 O34 1.991808 1_556
Li8 O55 1.841739 1_555
Li8 O44 1.954368 1_555
Li8 O41 2.006008 1_555
Li8 O40 2.351618 1_555
Li9 O0 1.903002 1_455
Li9 O54 1.967659 1_555
Li9 O43 2.041870 1_555
Li9 O41 2.197312 1_555
Li9 O39 2.336834 1_555
Mn0 O1 1.929414 1_555
Mn0 O5 2.030482 1_555
Mn0 O13 2.115341 1_545
Mn0 O17 2.151187 1_545
Mn0 O2 2.168756 1_545
Mn0 O16 2.196207 1_555
Mn1 O15 1.955908 1_555
Mn1 O3 1.965455 1_555
Mn1 O21 2.040019 1_556
Mn1 O17 2.105231 1_555
Mn1 O2 2.164506 1_555
Mn2 O25 1.945837 1_555
Mn2 O12 1.985393 1_555
Mn2 O6 2.039936 1_555
Mn2 O10 2.039986 1_555
Mn2 O24 2.185274 1_555
Mn3 O27 1.985582 1_555
Mn3 O14 1.992050 1_555
Mn3 O22 2.016914 1_555
Mn3 O11 2.052622 1_555
Mn3 O24 2.189269 1_555
Mn3 O10 2.299799 1_555
Mn4 O28 1.931923 1_555
Mn4 O44 2.078998 1_555
Mn4 O31 2.129356 1_555
Mn4 O45 2.161874 1_555
Mn4 O33 2.175279 1_555
Mn4 O41 2.239477 1_555
Mn5 O30 2.113972 1_555
Mn5 O49 2.118626 1_556
Mn5 O43 2.139329 1_555
Mn5 O31 2.210179 1_555
Mn5 O45 2.229226 1_555
Mn5 O46 2.699173 1_555
Mn6 O40 2.012008 1_555
Mn6 O52 2.017454 1_555
Mn6 O34 2.065418 1_555
Mn6 O38 2.100191 1_555
Mn6 O53 2.180131 1_555
Mn7 O54 2.091506 1_555
Mn7 O39 2.128899 1_555
Mn7 O50 2.169352 1_555
Mn7 O53 2.189317 1_565
Mn7 O42 2.241390 1_565
Mn7 O38 2.283031 1_565
O0 P0 1.486456 1_555
O1 P12 1.547818 1_655
O2 P13 1.547080 1_655
O3 P0 1.553144 1_555
O4 P0 1.599075 1_555
O4 P1 1.617067 1_555
O5 P1 1.533248 1_555
O6 P1 1.559160 1_554
O7 P14 1.483454 1_655
O8 P2 1.597974 1_565
O8 P3 1.641334 1_555
O9 P2 1.512020 1_555
O10 P15 1.587715 1_655
O11 P3 1.501364 1_555
O12 P2 1.562794 1_555
O13 P3 1.557798 1_555
O14 P4 1.534795 1_555
O15 P5 1.549039 1_555
O16 P4 1.521831 1_555
O17 P6 1.604344 1_555
O18 P5 1.602191 1_555
O18 P4 1.615315 1_555
O19 P5 1.508205 1_555
O20 P8 1.483459 1_555
O21 P7 1.558619 1_555
O22 P7 1.537245 1_555
O23 P9 1.604379 1_565
O23 P7 1.615915 1_555
O24 P10 1.540116 1_555
O25 P9 1.545107 1_555
O26 P6 1.485953 1_555
O27 P11 1.513825 1_555
O28 P4 1.552355 1_555
O29 P9 1.491324 1_555
O30 P6 1.541548 1_555
O31 P5 1.559209 1_555
O32 P6 1.614990 1_545
O32 P8 1.619055 1_555
O33 P8 1.539067 1_555
O34 P8 1.594514 1_554
O35 P7 1.510351 1_555
O36 P10 1.509312 1_555
O37 P10 1.612368 1_555
O37 P11 1.626220 1_555
O38 P9 1.599896 1_555
O39 P11 1.524106 1_555
O40 P10 1.555592 1_555
O41 P11 1.542324 1_555
O42 P12 1.510575 1_555
O43 P13 1.541729 1_555
O44 P12 1.538200 1_555
O45 P0 1.611529 1_455
O46 P13 1.511743 1_555
O47 P13 1.613031 1_545
O47 P12 1.621704 1_555
O48 P1 1.510644 1_455
O49 P14 1.576027 1_555
O50 P14 1.538665 1_555
O51 P15 1.605634 1_555
O51 P14 1.635035 1_555
O52 P15 1.575581 1_555
O53 P2 1.542964 1_455
O54 P3 1.525988 1_455
O55 P15 1.477599 1_555
