# generated using pymatgen
data_LiCoPO4
_symmetry_space_group_name_H-M   'P 1'
_cell_length_a   10.85827389
_cell_length_b   10.85827389
_cell_length_c   11.58032200
_cell_angle_alpha   90.00000000
_cell_angle_beta   90.00000000
_cell_angle_gamma   119.99999934
_symmetry_Int_Tables_number   1
_chemical_formula_structural   LiCoPO4
_chemical_formula_sum   'Li12 Co12 P12 O48'
_cell_volume   1182.42296079
_cell_formula_units_Z   12
loop_
 _symmetry_equiv_pos_site_id
 _symmetry_equiv_pos_as_xyz
  1  'x, y, z'
loop_
 _atom_site_type_symbol
 _atom_site_label
 _atom_site_symmetry_multiplicity
 _atom_site_fract_x
 _atom_site_fract_y
 _atom_site_fract_z
 _atom_site_occupancy
  Li  Li0  1  0.00000000  0.50000000  0.01043300  1
  Li  Li1  1  0.00000000  0.50000000  0.65623400  1
  Li  Li2  1  0.00000000  0.50000000  0.33333300  1
  Li  Li3  1  0.00000000  0.00000000  0.16666700  1
  Li  Li4  1  0.00000000  0.00000000  0.50000000  1
  Li  Li5  1  0.00000000  0.00000000  0.83333300  1
  Li  Li6  1  0.50000000  0.50000000  0.34376600  1
  Li  Li7  1  0.50000000  0.50000000  0.66666700  1
  Li  Li8  1  0.50000000  0.50000000  0.98956700  1
  Li  Li9  1  0.50000000  0.00000000  0.32290100  1
  Li  Li10  1  0.50000000  0.00000000  0.00000000  1
  Li  Li11  1  0.50000000  0.00000000  0.67709900  1
  Co  Co0  1  0.00000000  0.75195100  0.33333300  1
  Co  Co1  1  0.24622600  0.75377400  0.66666700  1
  Co  Co2  1  0.00000000  0.24804900  0.33333300  1
  Co  Co3  1  0.24622600  0.49245200  0.00000000  1
  Co  Co4  1  0.24804900  0.24804900  0.66666700  1
  Co  Co5  1  0.50754800  0.75377400  0.33333300  1
  Co  Co6  1  0.24804900  0.00000000  0.00000000  1
  Co  Co7  1  0.49245200  0.24622600  0.33333300  1
  Co  Co8  1  0.75195100  0.75195100  0.66666700  1
  Co  Co9  1  0.75377400  0.50754800  0.00000000  1
  Co  Co10  1  0.75377400  0.24622600  0.66666700  1
  Co  Co11  1  0.75195100  0.00000000  0.00000000  1
  P  P0  1  0.00000000  0.74651100  0.83333300  1
  P  P1  1  0.00000000  0.25348900  0.83333300  1
  P  P2  1  0.25250100  0.74749900  0.16666700  1
  P  P3  1  0.25250100  0.50500200  0.50000000  1
  P  P4  1  0.49499800  0.74749900  0.83333300  1
  P  P5  1  0.25348900  0.25348900  0.16666700  1
  P  P6  1  0.25348900  0.00000000  0.50000000  1
  P  P7  1  0.74651100  0.74651100  0.16666700  1
  P  P8  1  0.50500200  0.25250100  0.83333300  1
  P  P9  1  0.74749900  0.49499800  0.50000000  1
  P  P10  1  0.74749900  0.25250100  0.16666700  1
  P  P11  1  0.74651100  0.00000000  0.50000000  1
  O  O0  1  0.10597800  0.89273100  0.44778500  1
  O  O1  1  0.10726900  0.89402200  0.88554900  1
  O  O2  1  0.06244900  0.69062300  0.74024400  1
  O  O3  1  0.12531000  0.70437000  0.24990900  1
  O  O4  1  0.29563000  0.87469000  0.08342500  1
  O  O5  1  0.30937700  0.93755100  0.59309000  1
  O  O6  1  0.19970700  0.59036700  0.57217300  1
  O  O7  1  0.06244900  0.37182500  0.92642300  1
  O  O8  1  0.19970700  0.60933900  0.09449400  1
  O  O9  1  0.12531000  0.42094000  0.41675800  1
  O  O10  1  0.10597800  0.21324800  0.21888200  1
  O  O11  1  0.40963300  0.80029300  0.76116100  1
  O  O12  1  0.39066100  0.80029300  0.23883900  1
  O  O13  1  0.10726900  0.21324800  0.78111800  1
  O  O14  1  0.29563000  0.42094000  0.58324200  1
  O  O15  1  0.40963300  0.60933900  0.90550600  1
  O  O16  1  0.30937700  0.37182500  0.07357700  1
  O  O17  1  0.39066100  0.59036700  0.42782700  1
  O  O18  1  0.21324800  0.10726900  0.55221500  1
  O  O19  1  0.21324800  0.10597800  0.11445100  1
  O  O20  1  0.62817500  0.93755100  0.40691000  1
  O  O21  1  0.57906000  0.87469000  0.91657500  1
  O  O22  1  0.57906000  0.70437000  0.75009100  1
  O  O23  1  0.37182500  0.30937700  0.25975600  1
  O  O24  1  0.62817500  0.69062300  0.25975600  1
  O  O25  1  0.42094000  0.29563000  0.75009100  1
  O  O26  1  0.42094000  0.12531000  0.91657500  1
  O  O27  1  0.37182500  0.06244900  0.40691000  1
  O  O28  1  0.78675200  0.89402200  0.11445100  1
  O  O29  1  0.78675200  0.89273100  0.55221500  1
  O  O30  1  0.60933900  0.40963300  0.42782700  1
  O  O31  1  0.69062300  0.62817500  0.07357700  1
  O  O32  1  0.59036700  0.39066100  0.90550600  1
  O  O33  1  0.70437000  0.57906000  0.58324200  1
  O  O34  1  0.89273100  0.78675200  0.78111800  1
  O  O35  1  0.60933900  0.19970700  0.23883900  1
  O  O36  1  0.59036700  0.19970700  0.76116100  1
  O  O37  1  0.89402200  0.78675200  0.21888200  1
  O  O38  1  0.87469000  0.57906000  0.41675800  1
  O  O39  1  0.80029300  0.39066100  0.09449400  1
  O  O40  1  0.93755100  0.62817500  0.92642300  1
  O  O41  1  0.80029300  0.40963300  0.57217300  1
  O  O42  1  0.69062300  0.06244900  0.59309000  1
  O  O43  1  0.70437000  0.12531000  0.08342500  1
  O  O44  1  0.87469000  0.29563000  0.24990900  1
  O  O45  1  0.93755100  0.30937700  0.74024400  1
  O  O46  1  0.89273100  0.10597800  0.88554900  1
  O  O47  1  0.89402200  0.10726900  0.44778500  1
loop_
_geom_bond_atom_site_label_1
_geom_bond_atom_site_label_2
_geom_bond_distance
_geom_bond_site_symmetry_2
Li0 O7 2.070506 1_554
Li0 O40 2.070506 1_454
Li0 O8 2.117765 1_555
Li0 O39 2.117765 1_455
Li1 O45 2.070497 1_455
Li1 O2 2.070497 1_555
Li1 O41 2.117765 1_455
Li1 O6 2.117765 1_555
Li2 O44 2.165566 1_455
Li2 O3 2.165566 1_555
Li2 O38 2.165571 1_455
Li2 O9 2.165571 1_555
Li3 O37 2.094479 1_445
Li3 O10 2.094479 1_555
Li3 O28 2.094483 1_445
Li3 O19 2.094483 1_555
Li4 O0 2.094470 1_545
Li4 O47 2.094470 1_455
Li4 O29 2.094479 1_445
Li4 O18 2.094479 1_555
Li5 O46 2.094474 1_455
Li5 O1 2.094474 1_545
Li5 O34 2.094479 1_445
Li5 O13 2.094479 1_555
Li6 O23 2.070499 1_555
Li6 O24 2.070499 1_555
Li6 O30 2.117757 1_555
Li6 O17 2.117757 1_555
Li7 O25 2.165566 1_555
Li7 O22 2.165566 1_555
Li7 O14 2.165571 1_555
Li7 O33 2.165571 1_555
Li8 O16 2.070499 1_556
Li8 O31 2.070499 1_556
Li8 O15 2.117757 1_555
Li8 O32 2.117757 1_555
Li9 O27 2.070501 1_555
Li9 O20 2.070501 1_545
Li9 O12 2.117770 1_545
Li9 O35 2.117770 1_555
Li10 O26 2.165571 1_554
Li10 O21 2.165571 1_544
Li10 O4 2.165571 1_545
Li10 O43 2.165571 1_555
Li11 O42 2.070492 1_555
Li11 O5 2.070492 1_545
Li11 O11 2.117771 1_545
Li11 O36 2.117771 1_555
Co0 O37 1.912710 1_455
Co0 O0 1.912724 1_555
Co0 O3 1.937673 1_555
Co0 O38 1.937678 1_455
Co1 O11 1.924718 1_555
Co1 O6 1.924718 1_555
Co1 O5 1.951888 1_555
Co1 O2 1.951888 1_555
Co2 O10 1.912710 1_555
Co2 O47 1.912724 1_455
Co2 O44 1.937673 1_455
Co2 O9 1.937678 1_555
Co3 O8 1.924709 1_555
Co3 O15 1.924716 1_554
Co3 O7 1.951890 1_554
Co3 O16 1.951898 1_555
Co4 O13 1.912718 1_555
Co4 O18 1.912726 1_555
Co4 O25 1.937673 1_555
Co4 O14 1.937678 1_555
Co5 O12 1.924709 1_555
Co5 O17 1.924716 1_555
Co5 O20 1.951890 1_555
Co5 O24 1.951898 1_555
Co6 O19 1.912710 1_555
Co6 O1 1.912716 1_544
Co6 O4 1.937678 1_545
Co6 O26 1.937678 1_554
Co7 O35 1.924709 1_555
Co7 O30 1.924716 1_555
Co7 O27 1.951890 1_555
Co7 O23 1.951898 1_555
Co8 O34 1.912718 1_555
Co8 O29 1.912726 1_555
Co8 O22 1.937673 1_555
Co8 O33 1.937678 1_555
Co9 O39 1.924709 1_555
Co9 O32 1.924716 1_554
Co9 O40 1.951890 1_554
Co9 O31 1.951898 1_555
Co10 O41 1.924718 1_555
Co10 O36 1.924718 1_555
Co10 O45 1.951888 1_555
Co10 O42 1.951888 1_555
Co11 O28 1.912710 1_545
Co11 O46 1.912716 1_554
Co11 O43 1.937678 1_555
Co11 O21 1.937678 1_544
O0 P6 1.556330 1_565
O1 P0 1.556334 1_555
O2 P0 1.549725 1_555
O3 P2 1.552143 1_555
O4 P2 1.552143 1_555
O5 P6 1.549733 1_565
O6 P3 1.554891 1_555
O7 P1 1.549727 1_555
O8 P2 1.554900 1_555
O9 P3 1.552143 1_555
O10 P5 1.556332 1_555
O11 P4 1.554885 1_555
O12 P2 1.554894 1_555
O13 P1 1.556322 1_555
O14 P3 1.552143 1_555
O15 P4 1.554899 1_555
O16 P5 1.549727 1_555
O17 P3 1.554899 1_555
O18 P6 1.556322 1_555
O19 P5 1.556337 1_555
O20 P11 1.549727 1_565
O21 P4 1.552143 1_555
O22 P4 1.552143 1_555
O23 P5 1.549718 1_555
O24 P7 1.549718 1_555
O25 P8 1.552143 1_555
O26 P8 1.552143 1_555
O27 P6 1.549727 1_555
O28 P7 1.556337 1_555
O29 P11 1.556322 1_565
O30 P9 1.554899 1_555
O31 P7 1.549727 1_555
O32 P8 1.554899 1_555
O33 P9 1.552143 1_555
O34 P0 1.556322 1_655
O35 P10 1.554894 1_555
O36 P8 1.554885 1_555
O37 P7 1.556332 1_555
O38 P9 1.552143 1_555
O39 P10 1.554900 1_555
O40 P0 1.549727 1_655
O41 P9 1.554891 1_555
O42 P11 1.549733 1_555
O43 P10 1.552143 1_555
O44 P10 1.552143 1_555
O45 P1 1.549725 1_655
O46 P1 1.556334 1_655
O47 P11 1.556330 1_555
