# generated using pymatgen
data_ScCdRh2
_symmetry_space_group_name_H-M   'P 1'
_cell_length_a   4.52844546
_cell_length_b   4.52844546
_cell_length_c   4.52844546
_cell_angle_alpha   60.00000000
_cell_angle_beta   60.00000000
_cell_angle_gamma   60.00000000
_symmetry_Int_Tables_number   1
_chemical_formula_structural   ScCdRh2
_chemical_formula_sum   'Sc1 Cd1 Rh2'
_cell_volume   65.66476971
_cell_formula_units_Z   1
loop_
 _symmetry_equiv_pos_site_id
 _symmetry_equiv_pos_as_xyz
  1  'x, y, z'
loop_
 _atom_site_type_symbol
 _atom_site_label
 _atom_site_symmetry_multiplicity
 _atom_site_fract_x
 _atom_site_fract_y
 _atom_site_fract_z
 _atom_site_occupancy
  Sc  Sc0  1  0.74999900  0.74999900  0.74999900  1
  Cd  Cd0  1  0.24999900  0.24999900  0.24999900  1
  Rh  Rh0  1  0.00000000  0.00000000  -0.00000000  1
  Rh  Rh1  1  0.50000000  0.50000000  0.50000000  1
loop_
_geom_bond_atom_site_label_1
_geom_bond_atom_site_label_2
_geom_bond_distance
_geom_bond_site_symmetry_2
Cd0 Rh0 2.773084 1_555
Cd0 Rh1 2.773091 1_554
Cd0 Rh1 2.773091 1_545
Cd0 Rh1 2.773091 1_455
Cd0 Rh0 2.773099 1_655
Cd0 Rh0 2.773099 1_556
Cd0 Rh0 2.773099 1_565
Cd0 Rh1 2.773106 1_555
Rh0 Sc0 2.773091 1_445
Rh0 Sc0 2.773091 1_544
Rh0 Sc0 2.773091 1_454
Rh0 Sc0 2.773106 1_444
Rh1 Sc0 2.773084 1_555
Rh1 Sc0 2.773099 1_455
Rh1 Sc0 2.773099 1_554
Rh1 Sc0 2.773099 1_545
