# generated using pymatgen
data_LiFe4(BO3)4
_symmetry_space_group_name_H-M   'P 1'
_cell_length_a   5.23758600
_cell_length_b   9.13939355
_cell_length_c   11.34319612
_cell_angle_alpha   113.52688743
_cell_angle_beta   103.30452970
_cell_angle_gamma   88.98199493
_symmetry_Int_Tables_number   1
_chemical_formula_structural   LiFe4(BO3)4
_chemical_formula_sum   'Li2 Fe8 B8 O24'
_cell_volume   482.80864147
_cell_formula_units_Z   2
loop_
 _symmetry_equiv_pos_site_id
 _symmetry_equiv_pos_as_xyz
  1  'x, y, z'
loop_
 _atom_site_type_symbol
 _atom_site_label
 _atom_site_symmetry_multiplicity
 _atom_site_fract_x
 _atom_site_fract_y
 _atom_site_fract_z
 _atom_site_occupancy
  Li  Li0  1  0.28652100  0.27380300  0.90394200  1
  Li  Li1  1  0.76484200  0.75094500  0.15839500  1
  Fe  Fe0  1  0.01670200  0.34971800  0.37089600  1
  Fe  Fe1  1  0.26722600  0.93161800  0.88128200  1
  Fe  Fe2  1  0.48003800  0.15196800  0.62375200  1
  Fe  Fe3  1  0.25105700  0.55769600  0.13714600  1
  Fe  Fe4  1  0.77012500  0.44556000  0.87950000  1
  Fe  Fe5  1  0.51075300  0.85079700  0.37914900  1
  Fe  Fe6  1  0.97586600  0.64741800  0.62815900  1
  Fe  Fe7  1  0.74765800  0.06901700  0.12594600  1
  B  B0  1  0.02308200  0.68512300  0.37968500  1
  B  B1  1  0.26699100  0.60037600  0.87341100  1
  B  B2  1  0.47196000  0.81616800  0.63175200  1
  B  B3  1  0.23368500  0.88803500  0.12545600  1
  B  B4  1  0.52966900  0.18965000  0.37793400  1
  B  B5  1  0.76855800  0.10941600  0.87627000  1
  B  B6  1  0.97572000  0.31635600  0.63003200  1
  B  B7  1  0.73099100  0.39725000  0.12190100  1
  O  O0  1  0.02930200  0.09668900  0.87615700  1
  O  O1  1  0.11988600  0.70652200  0.83057000  1
  O  O2  1  0.14306400  0.49678100  0.91069100  1
  O  O3  1  0.14185400  0.20489700  0.64423900  1
  O  O4  1  0.03384000  0.42050900  0.57651200  1
  O  O5  1  0.24149100  0.83097100  0.67753900  1
  O  O6  1  0.26111200  0.67609600  0.34433900  1
  O  O7  1  0.52950400  0.59766600  0.88173800  1
  O  O8  1  0.62564100  0.22370100  0.83773100  1
  O  O9  1  0.46973900  0.07979300  0.42975100  1
  O  O10  1  0.36481300  0.30323800  0.37319200  1
  O  O11  1  0.63100300  0.01802200  0.91622900  1
  O  O12  1  0.35223200  0.97131800  0.06997400  1
  O  O13  1  0.63329700  0.70047200  0.63475700  1
  O  O14  1  0.53167100  0.92605200  0.58120200  1
  O  O15  1  0.39802400  0.79252100  0.17834800  1
  O  O16  1  0.46526400  0.37798700  0.09716700  1
  O  O17  1  0.74346300  0.33154300  0.67470400  1
  O  O18  1  0.76068200  0.17516800  0.33580300  1
  O  O19  1  0.96156100  0.58128400  0.43315100  1
  O  O20  1  0.84915600  0.78873000  0.35566300  1
  O  O21  1  0.84704200  0.50455000  0.08246800  1
  O  O22  1  0.89221000  0.30853800  0.17842600  1
  O  O23  1  0.97777900  0.89355100  0.12896600  1
loop_
_geom_bond_atom_site_label_1
_geom_bond_atom_site_label_2
_geom_bond_distance
_geom_bond_site_symmetry_2
Li0 O16 2.002034 1_556
Li0 O0 2.002324 1_555
Li0 O8 2.058891 1_555
Li0 O2 2.137966 1_555
Li1 O23 1.903760 1_555
Li1 O15 1.998077 1_555
Li1 O20 2.062776 1_555
Li1 O21 2.141494 1_555
Fe0 O10 1.861416 1_555
Fe0 O18 1.955715 1_455
Fe0 O19 1.984970 1_455
Fe0 O22 2.007687 1_455
Fe0 O4 2.137161 1_555
Fe1 O0 1.949912 1_565
Fe1 O12 1.964230 1_556
Fe1 O11 1.966438 1_565
Fe1 O1 2.016430 1_555
Fe1 O5 2.090285 1_555
Fe2 O3 1.869399 1_555
Fe2 O14 1.952908 1_545
Fe2 O17 1.971640 1_555
Fe2 O9 2.017021 1_555
Fe2 O8 2.190465 1_555
Fe3 O16 1.932876 1_555
Fe3 O21 2.071301 1_455
Fe3 O15 2.123507 1_555
Fe3 O6 2.147553 1_555
Fe3 O2 2.330016 1_554
Fe4 O7 1.856277 1_555
Fe4 O2 1.934397 1_655
Fe4 O8 2.007751 1_555
Fe4 O21 2.084092 1_556
Fe4 O17 2.103603 1_555
Fe5 O20 1.896089 1_555
Fe5 O6 1.935994 1_555
Fe5 O9 1.958950 1_565
Fe5 O15 2.060098 1_555
Fe5 O14 2.089639 1_555
Fe6 O13 1.860620 1_555
Fe6 O4 1.955928 1_655
Fe6 O5 2.009374 1_655
Fe6 O19 2.030241 1_555
Fe6 O1 2.087955 1_655
Fe7 O23 1.995432 1_545
Fe7 O12 2.120769 1_545
Fe7 O22 2.128549 1_555
Fe7 O18 2.167089 1_555
Fe7 O11 2.169222 1_554
B0 O20 1.364481 1_455
B0 O6 1.386297 1_555
B0 O19 1.390180 1_455
B1 O7 1.356785 1_555
B1 O1 1.395844 1_555
B1 O2 1.401555 1_555
B2 O13 1.347984 1_555
B2 O5 1.404205 1_555
B2 O14 1.410173 1_555
B3 O23 1.349507 1_455
B3 O12 1.392848 1_555
B3 O15 1.420071 1_555
B4 O10 1.348144 1_555
B4 O18 1.385580 1_555
B4 O9 1.421029 1_555
B5 O0 1.368804 1_655
B5 O11 1.377008 1_555
B5 O8 1.424266 1_555
B6 O3 1.362286 1_655
B6 O4 1.387096 1_655
B6 O17 1.406193 1_555
B7 O16 1.355095 1_555
B7 O22 1.386716 1_555
B7 O21 1.423982 1_555
