# generated using pymatgen
data_LiBe2Ir
_symmetry_space_group_name_H-M   'P 1'
_cell_length_a   3.87248672
_cell_length_b   3.87248672
_cell_length_c   3.87248672
_cell_angle_alpha   60.00000000
_cell_angle_beta   60.00000000
_cell_angle_gamma   60.00000000
_symmetry_Int_Tables_number   1
_chemical_formula_structural   LiBe2Ir
_chemical_formula_sum   'Li1 Be2 Ir1'
_cell_volume   41.06339130
_cell_formula_units_Z   1
loop_
 _symmetry_equiv_pos_site_id
 _symmetry_equiv_pos_as_xyz
  1  'x, y, z'
loop_
 _atom_site_type_symbol
 _atom_site_label
 _atom_site_symmetry_multiplicity
 _atom_site_fract_x
 _atom_site_fract_y
 _atom_site_fract_z
 _atom_site_occupancy
  Li  Li0  1  0.75000000  0.75000000  0.75000000  1
  Be  Be0  1  0.50000100  0.50000100  0.50000100  1
  Be  Be1  1  0.00000000  0.00000000  -0.00000000  1
  Ir  Ir0  1  0.25000000  0.25000000  0.25000000  1
loop_
_geom_bond_atom_site_label_1
_geom_bond_atom_site_label_2
_geom_bond_distance
_geom_bond_site_symmetry_2
Be0 Li0 2.371395 1_555
Be0 Ir0 2.371401 1_556
Be0 Ir0 2.371401 1_565
Be0 Ir0 2.371401 1_655
Be0 Li0 2.371407 1_545
Be0 Li0 2.371407 1_455
Be0 Li0 2.371407 1_554
Be0 Ir0 2.371414 1_555
Be1 Ir0 2.371404 1_555
Be1 Ir0 2.371404 1_554
Be1 Li0 2.371404 1_444
Be1 Li0 2.371404 1_445
Be1 Li0 2.371404 1_544
Be1 Ir0 2.371404 1_545
Be1 Li0 2.371404 1_454
Be1 Ir0 2.371404 1_455
Ir0 Li0 2.738262 1_554
Ir0 Li0 2.738262 1_445
Ir0 Li0 2.738262 1_544
Ir0 Li0 2.738262 1_545
Ir0 Li0 2.738262 1_455
Ir0 Li0 2.738262 1_454
