# generated using pymatgen
data_Gd2TlCd
_symmetry_space_group_name_H-M   'P 1'
_cell_length_a   5.78732959
_cell_length_b   5.78732959
_cell_length_c   5.78732959
_cell_angle_alpha   60.00000000
_cell_angle_beta   60.00000000
_cell_angle_gamma   60.00000000
_symmetry_Int_Tables_number   1
_chemical_formula_structural   Gd2TlCd
_chemical_formula_sum   'Gd2 Tl1 Cd1'
_cell_volume   137.06281640
_cell_formula_units_Z   1
loop_
 _symmetry_equiv_pos_site_id
 _symmetry_equiv_pos_as_xyz
  1  'x, y, z'
loop_
 _atom_site_type_symbol
 _atom_site_label
 _atom_site_symmetry_multiplicity
 _atom_site_fract_x
 _atom_site_fract_y
 _atom_site_fract_z
 _atom_site_occupancy
  Gd  Gd0  1  0.75000000  0.75000000  0.75000000  1
  Gd  Gd1  1  0.25000000  0.25000000  0.25000000  1
  Tl  Tl0  1  0.00000000  0.00000000  0.00000000  1
  Cd  Cd0  1  0.50000000  0.50000000  0.50000000  1
loop_
_geom_bond_atom_site_label_1
_geom_bond_atom_site_label_2
_geom_bond_distance
_geom_bond_site_symmetry_2
Gd0 Tl0 3.544001 1_566
Gd0 Tl0 3.544001 1_666
Gd0 Tl0 3.544001 1_665
Gd0 Tl0 3.544001 1_656
Gd1 Tl0 3.544001 1_556
Gd1 Tl0 3.544001 1_555
Gd1 Tl0 3.544001 1_565
Gd1 Tl0 3.544001 1_655
Cd0 Gd1 3.544001 1_565
Cd0 Gd0 3.544001 1_545
Cd0 Gd1 3.544001 1_556
Cd0 Gd1 3.544001 1_655
Cd0 Gd1 3.544001 1_555
Cd0 Gd0 3.544001 1_455
Cd0 Gd0 3.544001 1_555
Cd0 Gd0 3.544001 1_554
