# generated using pymatgen
data_Li8Mn7Fe(BO3)8
_symmetry_space_group_name_H-M   'P 1'
_cell_length_a   6.06063400
_cell_length_b   9.75859372
_cell_length_c   9.90854014
_cell_angle_alpha   64.07586816
_cell_angle_beta   78.77325948
_cell_angle_gamma   78.09653704
_symmetry_Int_Tables_number   1
_chemical_formula_structural   Li8Mn7Fe(BO3)8
_chemical_formula_sum   'Li8 Mn7 Fe1 B8 O24'
_cell_volume   512.07045694
_cell_formula_units_Z   1
loop_
 _symmetry_equiv_pos_site_id
 _symmetry_equiv_pos_as_xyz
  1  'x, y, z'
loop_
 _atom_site_type_symbol
 _atom_site_label
 _atom_site_symmetry_multiplicity
 _atom_site_fract_x
 _atom_site_fract_y
 _atom_site_fract_z
 _atom_site_occupancy
  Li  Li0  1  0.04613400  0.46637600  0.81579900  1
  Li  Li1  1  0.04738100  0.96769700  0.31643500  1
  Li  Li2  1  0.45324000  0.03361000  0.18539600  1
  Li  Li3  1  0.54578600  0.46623300  0.31547900  1
  Li  Li4  1  0.45361300  0.53320000  0.68459800  1
  Li  Li5  1  0.54633300  0.96656000  0.81565000  1
  Li  Li6  1  0.95306800  0.03314000  0.68341600  1
  Li  Li7  1  0.95403700  0.53274000  0.18471800  1
  Mn  Mn0  1  0.31432200  0.29318000  0.62493400  1
  Mn  Mn1  1  0.31391200  0.79376100  0.12599800  1
  Mn  Mn2  1  0.18582700  0.70674000  0.87402100  1
  Mn  Mn3  1  0.81423600  0.29272600  0.12691900  1
  Mn  Mn4  1  0.68625500  0.20582700  0.87430600  1
  Mn  Mn5  1  0.68601700  0.70668900  0.37401900  1
  Mn  Mn6  1  0.81337500  0.79427400  0.62556900  1
  Fe  Fe0  1  0.18497000  0.21002300  0.37301600  1
  B  B0  1  0.33508500  0.36593700  0.03792800  1
  B  B1  1  0.16643400  0.13271100  0.96366600  1
  B  B2  1  0.16658100  0.63242800  0.46385000  1
  B  B3  1  0.33281100  0.86937000  0.53573200  1
  B  B4  1  0.66454200  0.13258100  0.46309600  1
  B  B5  1  0.83489500  0.36668500  0.53474200  1
  B  B6  1  0.83368100  0.86739400  0.03625600  1
  B  B7  1  0.66664400  0.63249400  0.96361300  1
  O  O0  1  0.17487100  0.01621600  0.10690700  1
  O  O1  1  0.01543600  0.24559400  0.56129900  1
  O  O2  1  0.01444300  0.74640800  0.06526600  1
  O  O3  1  0.16329600  0.36149000  0.15580300  1
  O  O4  1  0.17511300  0.51551000  0.60696700  1
  O  O5  1  0.51604700  0.24609000  0.06480900  1
  O  O6  1  0.15886100  0.86500000  0.65168900  1
  O  O7  1  0.34001200  0.13550000  0.84817500  1
  O  O8  1  0.34057100  0.63500200  0.34862400  1
  O  O9  1  0.48333500  0.25335500  0.43394900  1
  O  O10  1  0.32321400  0.48299400  0.89538700  1
  O  O11  1  0.32384400  0.98739900  0.39390800  1
  O  O12  1  0.67297500  0.01667500  0.60687800  1
  O  O13  1  0.67568000  0.51581800  0.10686500  1
  O  O14  1  0.51324200  0.74785600  0.56393700  1
  O  O15  1  0.66292800  0.36373600  0.65117900  1
  O  O16  1  0.65948100  0.86521300  0.15123100  1
  O  O17  1  0.83933700  0.13467200  0.34889400  1
  O  O18  1  0.48547100  0.75304100  0.93517000  1
  O  O19  1  0.82543300  0.48454700  0.39233400  1
  O  O20  1  0.84019900  0.63515300  0.84827800  1
  O  O21  1  0.98535600  0.25343100  0.93528700  1
  O  O22  1  0.98574500  0.75324100  0.43519600  1
  O  O23  1  0.82593300  0.98368500  0.89280800  1
loop_
_geom_bond_atom_site_label_1
_geom_bond_atom_site_label_2
_geom_bond_distance
_geom_bond_site_symmetry_2
Li0 O4 1.944200 1_555
Li0 O20 1.957817 1_455
Li0 O21 1.962257 1_455
Li0 O10 2.051338 1_555
Li1 O0 1.948911 1_565
Li1 O17 1.949641 1_465
Li1 O22 1.975374 1_455
Li1 O11 2.048525 1_555
Li2 O11 1.946094 1_545
Li2 O16 1.962590 1_545
Li2 O5 1.963219 1_555
Li2 O0 2.055331 1_555
Li3 O13 1.943088 1_555
Li3 O8 1.958583 1_555
Li3 O9 1.963651 1_555
Li3 O19 2.056902 1_555
Li4 O10 1.961934 1_555
Li4 O14 1.975404 1_555
Li4 O15 1.975746 1_555
Li4 O4 2.052390 1_555
Li5 O12 1.938952 1_565
Li5 O7 1.960257 1_565
Li5 O18 1.967110 1_555
Li5 O23 2.053515 1_555
Li6 O23 1.945942 1_545
Li6 O6 1.949562 1_645
Li6 O1 1.963948 1_655
Li6 O12 2.050110 1_555
Li7 O19 1.934316 1_555
Li7 O2 1.967459 1_655
Li7 O3 1.971327 1_655
Li7 O13 2.049737 1_555
Mn0 O7 2.084249 1_555
Mn0 O4 2.101531 1_555
Mn0 O9 2.122600 1_555
Mn0 O1 2.223125 1_555
Mn0 O15 2.444607 1_555
Mn1 O8 2.083191 1_555
Mn1 O0 2.099247 1_565
Mn1 O18 2.129603 1_554
Mn1 O2 2.210019 1_555
Mn1 O16 2.427721 1_555
Mn2 O6 2.079966 1_555
Mn2 O10 2.102389 1_555
Mn2 O2 2.128075 1_556
Mn2 O18 2.208066 1_555
Mn2 O20 2.430739 1_455
Mn3 O17 2.075326 1_555
Mn3 O13 2.101622 1_555
Mn3 O21 2.129277 1_554
Mn3 O5 2.206611 1_555
Mn3 O3 2.448867 1_655
Mn4 O15 2.082183 1_555
Mn4 O23 2.098922 1_545
Mn4 O5 2.122414 1_556
Mn4 O21 2.210487 1_555
Mn4 O7 2.429521 1_555
Mn5 O16 2.083691 1_555
Mn5 O19 2.099124 1_555
Mn5 O14 2.125855 1_555
Mn5 O22 2.209890 1_555
Mn5 O8 2.428827 1_555
Mn6 O20 2.084874 1_555
Mn6 O12 2.101601 1_565
Mn6 O22 2.128480 1_555
Mn6 O14 2.213861 1_555
Mn6 O6 2.427132 1_655
Fe0 O3 2.020568 1_555
Fe0 O1 2.080724 1_555
Fe0 O11 2.095544 1_545
Fe0 O9 2.185634 1_555
Fe0 O17 2.443331 1_455
B0 O10 1.378349 1_554
B0 O3 1.396727 1_555
B0 O5 1.397800 1_555
B1 O0 1.379463 1_556
B1 O7 1.390245 1_555
B1 O21 1.403019 1_455
B2 O4 1.380193 1_555
B2 O8 1.390383 1_555
B2 O22 1.402568 1_455
B3 O11 1.375884 1_555
B3 O6 1.391913 1_555
B3 O14 1.405115 1_555
B4 O12 1.381008 1_555
B4 O17 1.387477 1_555
B4 O9 1.403748 1_555
B5 O19 1.379313 1_555
B5 O15 1.390421 1_555
B5 O1 1.403463 1_655
B6 O23 1.379846 1_554
B6 O16 1.390207 1_555
B6 O2 1.403233 1_655
B7 O13 1.380434 1_556
B7 O20 1.389364 1_555
B7 O18 1.402387 1_555
