# generated using pymatgen
data_V2Si4O11
_symmetry_space_group_name_H-M   'P 1'
_cell_length_a   8.61889200
_cell_length_b   7.36345651
_cell_length_c   6.99444941
_cell_angle_alpha   104.63618457
_cell_angle_beta   101.29035689
_cell_angle_gamma   99.46959705
_symmetry_Int_Tables_number   1
_chemical_formula_structural   V2Si4O11
_chemical_formula_sum   'V4 Si8 O22'
_cell_volume   410.33319650
_cell_formula_units_Z   2
loop_
 _symmetry_equiv_pos_site_id
 _symmetry_equiv_pos_as_xyz
  1  'x, y, z'
loop_
 _atom_site_type_symbol
 _atom_site_label
 _atom_site_symmetry_multiplicity
 _atom_site_fract_x
 _atom_site_fract_y
 _atom_site_fract_z
 _atom_site_occupancy
  V  V0  1  0.88398600  0.38634200  0.62261500  1
  V  V1  1  0.38727500  0.38555600  0.62492400  1
  V  V2  1  0.61272500  0.61444400  0.37507600  1
  V  V3  1  0.11601400  0.61365800  0.37738500  1
  Si  Si0  1  0.23060600  0.02280900  0.38062700  1
  Si  Si1  1  0.95761300  0.22402300  0.21852100  1
  Si  Si2  1  0.51962900  0.22114800  0.22081300  1
  Si  Si3  1  0.77128300  0.60356100  0.98209000  1
  Si  Si4  1  0.22871700  0.39643900  0.01791000  1
  Si  Si5  1  0.48037100  0.77885200  0.77918700  1
  Si  Si6  1  0.04238700  0.77597700  0.78147900  1
  Si  Si7  1  0.76939400  0.97719100  0.61937300  1
  O  O0  1  0.81102100  0.16076300  0.59309800  1
  O  O1  1  0.39648900  0.05662600  0.25857000  1
  O  O2  1  0.30589500  0.16035900  0.58185700  1
  O  O3  1  0.02338500  0.05839200  0.24646400  1
  O  O4  1  0.71420400  0.18490700  0.16318500  1
  O  O5  1  0.39307600  0.28473500  0.04161100  1
  O  O6  1  0.58681800  0.37384000  0.41855400  1
  O  O7  1  0.67957200  0.44525900  0.79618300  1
  O  O8  1  0.18112900  0.42901700  0.79973500  1
  O  O9  1  0.01591100  0.29665800  0.04241200  1
  O  O10  1  0.06828400  0.37348200  0.41834400  1
  O  O11  1  0.93171600  0.62651800  0.58165600  1
  O  O12  1  0.98408900  0.70334200  0.95758800  1
  O  O13  1  0.81887100  0.57098300  0.20026500  1
  O  O14  1  0.32042800  0.55474100  0.20381700  1
  O  O15  1  0.41318200  0.62616000  0.58144600  1
  O  O16  1  0.60692400  0.71526500  0.95838900  1
  O  O17  1  0.28579600  0.81509300  0.83681500  1
  O  O18  1  0.97661500  0.94160800  0.75353600  1
  O  O19  1  0.69410500  0.83964100  0.41814300  1
  O  O20  1  0.60351100  0.94337400  0.74143000  1
  O  O21  1  0.18897900  0.83923700  0.40690200  1
loop_
_geom_bond_atom_site_label_1
_geom_bond_atom_site_label_2
_geom_bond_distance
_geom_bond_site_symmetry_2
O0 Si7 1.407635 1_545
O0 V0 1.621513 1_555
O1 Si2 1.584971 1_555
O1 Si0 1.817468 1_555
O2 Si0 1.460702 1_555
O2 V1 1.616958 1_555
O3 Si1 1.466832 1_455
O3 Si0 1.939348 1_555
O4 Si2 1.844903 1_555
O4 Si1 2.015168 1_555
O5 Si2 1.705673 1_555
O5 Si4 1.752463 1_555
O6 Si2 1.482801 1_555
O6 V2 1.857383 1_555
O7 Si3 1.484166 1_555
O7 V0 2.364085 1_555
O7 V1 2.482479 1_555
O8 Si4 1.589586 1_556
O8 V1 2.365220 1_555
O8 V0 2.547268 1_455
O9 Si1 1.594579 1_455
O9 Si4 1.917447 1_555
O10 Si1 1.558747 1_455
O10 V3 1.855206 1_555
O11 Si6 1.558747 1_655
O11 V0 1.855206 1_555
O12 Si6 1.594579 1_655
O12 Si3 1.917447 1_555
O13 Si3 1.589586 1_554
O13 V2 2.365220 1_555
O13 V3 2.547268 1_655
O14 Si4 1.484166 1_555
O14 V3 2.364085 1_555
O14 V2 2.482479 1_555
O15 Si5 1.482801 1_555
O15 V1 1.857383 1_555
O16 Si5 1.705673 1_555
O16 Si3 1.752463 1_555
O17 Si5 1.844903 1_555
O17 Si6 2.015168 1_555
O18 Si6 1.466832 1_655
O18 Si7 1.939348 1_555
O19 Si7 1.460702 1_555
O19 V2 1.616958 1_555
O20 Si5 1.584971 1_555
O20 Si7 1.817468 1_555
O21 Si0 1.407635 1_565
O21 V3 1.621513 1_555
