# generated using pymatgen
data_Cs2SiP2
_symmetry_space_group_name_H-M   'P 1'
_cell_length_a   6.19892461
_cell_length_b   7.53701268
_cell_length_c   8.66507158
_cell_angle_alpha   115.77941666
_cell_angle_beta   110.95877760
_cell_angle_gamma   89.99999807
_symmetry_Int_Tables_number   1
_chemical_formula_structural   Cs2SiP2
_chemical_formula_sum   'Cs4 Si2 P4'
_cell_volume   334.55622186
_cell_formula_units_Z   2
loop_
 _symmetry_equiv_pos_site_id
 _symmetry_equiv_pos_as_xyz
  1  'x, y, z'
loop_
 _atom_site_type_symbol
 _atom_site_label
 _atom_site_symmetry_multiplicity
 _atom_site_fract_x
 _atom_site_fract_y
 _atom_site_fract_z
 _atom_site_occupancy
  Cs  Cs0  1  0.14861126  0.98211566  0.29722252  1
  Cs  Cs1  1  0.85138874  0.01788434  0.70277748  1
  Cs  Cs2  1  0.35138874  0.68489414  0.70277748  1
  Cs  Cs3  1  0.64861126  0.31510586  0.29722252  1
  Si  Si0  1  0.75000000  0.50000000  0.00000000  1
  Si  Si1  1  0.25000000  0.50000000  0.00000000  1
  P  P0  1  0.58599155  0.73606915  0.17198409  1
  P  P1  1  0.91400845  0.56408706  0.82801591  1
  P  P2  1  0.08599155  0.43591294  0.17198409  1
  P  P3  1  0.41400845  0.26393085  0.82801591  1
loop_
_geom_bond_atom_site_label_1
_geom_bond_atom_site_label_2
_geom_bond_distance
_geom_bond_site_symmetry_2
Cs0 P0 3.510295 1_555
Cs0 P0 3.510300 1_455
Cs0 P1 3.633142 1_454
Cs0 Si0 3.640013 1_455
Cs0 Si1 3.640014 1_555
Cs0 P2 3.753481 1_555
Cs0 P3 3.802849 1_565
Cs0 P2 3.994214 1_565
Cs1 P3 3.510295 1_555
Cs1 P3 3.510300 1_655
Cs1 P2 3.633142 1_656
Cs1 Si1 3.640013 1_656
Cs1 Si0 3.640014 1_556
Cs1 P1 3.753481 1_555
Cs1 P0 3.802849 1_545
Cs1 P1 3.994214 1_545
Cs2 P1 3.510292 1_455
Cs2 P1 3.510297 1_555
Cs2 P0 3.633151 1_556
Cs2 Si0 3.640018 1_556
Cs2 Si1 3.640019 1_556
Cs2 P3 3.753473 1_555
Cs2 P2 3.802848 1_555
Cs2 P3 3.994222 1_565
Cs3 P2 3.510292 1_655
Cs3 P2 3.510297 1_555
Cs3 P3 3.633151 1_554
Cs3 Si1 3.640018 1_555
Cs3 Si0 3.640019 1_555
Cs3 P0 3.753473 1_555
Cs3 P1 3.802848 1_555
Cs3 P0 3.994222 1_545
P0 Si1 2.279860 1_555
P0 Si0 2.279865 1_555
P1 Si1 2.279868 1_656
P1 Si0 2.279872 1_556
P2 Si0 2.279868 1_455
P2 Si1 2.279872 1_555
P3 Si0 2.279860 1_556
P3 Si1 2.279865 1_556
