# generated using pymatgen
data_Fe3(O2F)2
_symmetry_space_group_name_H-M   'P 1'
_cell_length_a   5.62529770
_cell_length_b   5.62529770
_cell_length_c   7.51987324
_cell_angle_alpha   69.64746106
_cell_angle_beta   69.64746106
_cell_angle_gamma   69.38085308
_symmetry_Int_Tables_number   1
_chemical_formula_structural   Fe3(O2F)2
_chemical_formula_sum   'Fe6 O8 F4'
_cell_volume   201.81059218
_cell_formula_units_Z   2
loop_
 _symmetry_equiv_pos_site_id
 _symmetry_equiv_pos_as_xyz
  1  'x, y, z'
loop_
 _atom_site_type_symbol
 _atom_site_label
 _atom_site_symmetry_multiplicity
 _atom_site_fract_x
 _atom_site_fract_y
 _atom_site_fract_z
 _atom_site_occupancy
  Fe  Fe0  1  0.83521500  0.83521500  0.67133800  1
  Fe  Fe1  1  0.50000000  0.50000000  0.50000000  1
  Fe  Fe2  1  0.81534800  0.81534800  0.16229900  1
  Fe  Fe3  1  0.50000000  0.50000000  0.00000000  1
  Fe  Fe4  1  0.16478500  0.16478500  0.32866200  1
  Fe  Fe5  1  0.18465200  0.18465200  0.83770100  1
  O  O0  1  0.80696700  0.19303300  0.50000000  1
  O  O1  1  0.13329400  0.52403400  0.16261600  1
  O  O2  1  0.40578800  0.40578800  0.78355700  1
  O  O3  1  0.59421200  0.59421200  0.21644300  1
  O  O4  1  0.52403400  0.13329400  0.16261600  1
  O  O5  1  0.19303300  0.80696700  0.50000000  1
  O  O6  1  0.86670600  0.47596600  0.83738400  1
  O  O7  1  0.47596600  0.86670600  0.83738400  1
  F  F0  1  0.05495200  0.05495200  0.13296100  1
  F  F1  1  0.73489400  0.73489400  0.46383900  1
  F  F2  1  0.94504800  0.94504800  0.86703900  1
  F  F3  1  0.26510600  0.26510600  0.53616100  1
loop_
_geom_bond_atom_site_label_1
_geom_bond_atom_site_label_2
_geom_bond_distance
_geom_bond_site_symmetry_2
Fe0 O7 1.954726 1_555
Fe0 O6 1.954726 1_555
Fe0 O0 1.962145 1_565
Fe0 O5 1.962145 1_655
Fe1 O2 1.932405 1_555
Fe1 O3 1.932405 1_555
Fe1 O0 1.965567 1_555
Fe1 O5 1.965567 1_555
Fe2 O3 1.909419 1_555
Fe2 O4 1.954554 1_565
Fe2 O1 1.954554 1_655
Fe3 O7 1.983138 1_554
Fe3 O4 1.983138 1_555
Fe3 O6 1.983138 1_554
Fe3 O1 1.983138 1_555
Fe3 O3 2.146797 1_555
Fe3 O2 2.146797 1_554
Fe4 O1 1.954726 1_555
Fe4 O4 1.954726 1_555
Fe4 O0 1.962145 1_455
Fe4 O5 1.962145 1_545
Fe5 O2 1.909419 1_555
Fe5 O7 1.954554 1_545
Fe5 O6 1.954554 1_455
F0 Fe5 2.028724 1_554
F0 Fe4 2.112579 1_555
F0 Fe2 2.132572 1_445
F1 Fe2 2.065909 1_555
F1 Fe1 2.072607 1_555
F1 Fe0 2.126271 1_555
F2 Fe2 2.028724 1_556
F2 Fe0 2.112579 1_555
F2 Fe5 2.132572 1_665
F3 Fe5 2.065909 1_555
F3 Fe1 2.072607 1_555
F3 Fe4 2.126271 1_555
