# generated using pymatgen
data_Na6Ti2O7
_symmetry_space_group_name_H-M   'P 1'
_cell_length_a   8.58790300
_cell_length_b   6.00809900
_cell_length_c   10.78516155
_cell_angle_alpha   57.13112570
_cell_angle_beta   90.00000000
_cell_angle_gamma   90.00000000
_symmetry_Int_Tables_number   1
_chemical_formula_structural   Na6Ti2O7
_chemical_formula_sum   'Na12 Ti4 O14'
_cell_volume   467.39720251
_cell_formula_units_Z   2
loop_
 _symmetry_equiv_pos_site_id
 _symmetry_equiv_pos_as_xyz
  1  'x, y, z'
loop_
 _atom_site_type_symbol
 _atom_site_label
 _atom_site_symmetry_multiplicity
 _atom_site_fract_x
 _atom_site_fract_y
 _atom_site_fract_z
 _atom_site_occupancy
  Na  Na0  1  0.57514300  0.77190800  0.40793300  1
  Na  Na1  1  0.43972200  0.09878400  0.08630500  1
  Na  Na2  1  0.72489400  0.48381600  0.82114600  1
  Na  Na3  1  0.21654000  0.91263800  0.38869800  1
  Na  Na4  1  0.07337500  0.60584600  0.81612000  1
  Na  Na5  1  0.94680800  0.27753300  0.12870300  1
  Na  Na6  1  0.42485700  0.77190800  0.90793300  1
  Na  Na7  1  0.56027800  0.09878400  0.58630500  1
  Na  Na8  1  0.78346000  0.91263800  0.88869800  1
  Na  Na9  1  0.27510600  0.48381600  0.32114600  1
  Na  Na10  1  0.05319200  0.27753300  0.62870300  1
  Na  Na11  1  0.92662500  0.60584600  0.31612000  1
  Ti  Ti0  1  0.10164400  0.97408300  0.00182100  1
  Ti  Ti1  1  0.40655400  0.40116300  0.71857600  1
  Ti  Ti2  1  0.89835600  0.97408300  0.50182100  1
  Ti  Ti3  1  0.59344600  0.40116300  0.21857600  1
  O  O0  1  0.33995100  0.48458500  0.53787700  1
  O  O1  1  0.27764400  0.15678300  0.88122600  1
  O  O2  1  0.93933200  0.20157200  0.92145400  1
  O  O3  1  0.13027000  0.89887100  0.18751600  1
  O  O4  1  0.93110200  0.67802700  0.50202300  1
  O  O5  1  0.43788500  0.69515500  0.72263700  1
  O  O6  1  0.41562300  0.21469700  0.26004700  1
  O  O7  1  0.66004900  0.48458500  0.03787700  1
  O  O8  1  0.72235600  0.15678300  0.38122600  1
  O  O9  1  0.86973000  0.89887100  0.68751600  1
  O  O10  1  0.06066800  0.20157200  0.42145400  1
  O  O11  1  0.06889800  0.67802700  0.00202300  1
  O  O12  1  0.58437700  0.21469700  0.76004700  1
  O  O13  1  0.56211500  0.69515500  0.22263700  1
loop_
_geom_bond_atom_site_label_1
_geom_bond_atom_site_label_2
_geom_bond_distance
_geom_bond_site_symmetry_2
Na0 O13 2.284569 1_555
Na0 O8 2.511052 1_565
Na0 O0 2.529371 1_555
Na0 O6 2.625324 1_565
Na1 O13 2.297232 1_545
Na1 O6 2.335712 1_555
Na1 O1 2.472723 1_554
Na1 O7 2.812779 1_555
Na1 O3 2.876388 1_545
Na2 O2 2.333681 1_555
Na2 O12 2.379352 1_555
Na2 O7 2.405342 1_556
Na2 O9 2.437567 1_555
Na2 O5 2.711459 1_555
Na3 O6 2.325640 1_565
Na3 O3 2.336342 1_555
Na3 O10 2.365557 1_565
Na3 O0 2.415502 1_555
Na3 O4 2.760372 1_455
Na4 O11 2.270098 1_556
Na4 O9 2.330525 1_455
Na4 O2 2.349526 1_455
Na5 O11 2.277602 1_655
Na5 O2 2.513136 1_554
Na5 O3 2.548363 1_645
Na5 O7 2.692410 1_555
Na6 O5 2.284569 1_555
Na6 O1 2.511052 1_565
Na6 O7 2.529371 1_556
Na6 O12 2.625324 1_565
Na7 O5 2.297232 1_545
Na7 O12 2.335712 1_555
Na7 O8 2.472723 1_555
Na7 O0 2.812779 1_555
Na7 O9 2.876388 1_545
Na8 O12 2.325640 1_565
Na8 O9 2.336342 1_555
Na8 O2 2.365557 1_565
Na8 O7 2.415502 1_556
Na8 O11 2.760372 1_656
Na9 O10 2.333681 1_555
Na9 O6 2.379352 1_555
Na9 O0 2.405342 1_555
Na9 O3 2.437567 1_555
Na9 O13 2.711459 1_555
Na10 O4 2.277602 1_455
Na10 O10 2.513136 1_555
Na10 O9 2.548363 1_445
Na10 O0 2.692410 1_555
Na11 O4 2.270098 1_555
Na11 O3 2.330525 1_655
Na11 O10 2.349526 1_655
O0 Ti1 1.821048 1_555
O1 Ti0 1.905634 1_546
O1 Ti1 1.913881 1_555
O2 Ti0 1.810106 1_646
O3 Ti0 1.814750 1_555
O4 Ti2 1.799660 1_555
O5 Ti1 1.810586 1_555
O6 Ti3 1.800934 1_555
O7 Ti3 1.821048 1_555
O8 Ti2 1.905634 1_545
O8 Ti3 1.913881 1_555
O9 Ti2 1.814750 1_555
O10 Ti2 1.810106 1_445
O11 Ti0 1.799660 1_555
O12 Ti1 1.800934 1_555
O13 Ti3 1.810586 1_555
