# generated using pymatgen
data_NaSc(GeO3)2
_symmetry_space_group_name_H-M   'P 1'
_cell_length_a   6.94901379
_cell_length_b   6.94901379
_cell_length_c   5.66480864
_cell_angle_alpha   76.91081461
_cell_angle_beta   76.91081461
_cell_angle_gamma   83.47498423
_symmetry_Int_Tables_number   1
_chemical_formula_structural   NaSc(GeO3)2
_chemical_formula_sum   'Na2 Sc2 Ge4 O12'
_cell_volume   258.95618469
_cell_formula_units_Z   2
loop_
 _symmetry_equiv_pos_site_id
 _symmetry_equiv_pos_as_xyz
  1  'x, y, z'
loop_
 _atom_site_type_symbol
 _atom_site_label
 _atom_site_symmetry_multiplicity
 _atom_site_fract_x
 _atom_site_fract_y
 _atom_site_fract_z
 _atom_site_occupancy
  Na  Na0  1  0.30195200  0.69804800  0.25000000  1
  Na  Na1  1  0.69804800  0.30195200  0.75000000  1
  Sc  Sc0  1  0.89959700  0.10040300  0.25000000  1
  Sc  Sc1  1  0.10040300  0.89959700  0.75000000  1
  Ge  Ge0  1  0.37936300  0.19695300  0.26205700  1
  Ge  Ge1  1  0.80304700  0.62063700  0.23794300  1
  Ge  Ge2  1  0.62063700  0.80304700  0.73794300  1
  Ge  Ge3  1  0.19695300  0.37936300  0.76205700  1
  O  O0  1  0.35442100  0.36460300  0.97620800  1
  O  O1  1  0.63539700  0.64557900  0.52379200  1
  O  O2  1  0.64557900  0.63539700  0.02379200  1
  O  O3  1  0.36460300  0.35442100  0.47620800  1
  O  O4  1  0.09760800  0.62177900  0.69496800  1
  O  O5  1  0.37822100  0.90239200  0.80503200  1
  O  O6  1  0.90239200  0.37822100  0.30503200  1
  O  O7  1  0.62177900  0.09760800  0.19496800  1
  O  O8  1  0.19021500  0.02901500  0.36355100  1
  O  O9  1  0.97098500  0.80978500  0.13644900  1
  O  O10  1  0.80978500  0.97098500  0.63644900  1
  O  O11  1  0.02901500  0.19021500  0.86355100  1
loop_
_geom_bond_atom_site_label_1
_geom_bond_atom_site_label_2
_geom_bond_distance
_geom_bond_site_symmetry_2
Na0 O3 2.482740 1_555
Na0 O2 2.482740 1_555
Na0 O9 2.518761 1_455
Na0 O8 2.518761 1_565
Na0 O4 2.568218 1_555
Na0 O5 2.568218 1_554
Na1 O0 2.482740 1_555
Na1 O1 2.482740 1_555
Na1 O11 2.518761 1_655
Na1 O10 2.518761 1_545
Na1 O6 2.568218 1_555
Na1 O7 2.568218 1_556
Ge0 O7 1.738762 1_555
Ge0 O8 1.767064 1_555
Ge0 O3 1.788562 1_555
Ge0 O0 1.798922 1_554
Ge1 O6 1.738762 1_555
Ge1 O9 1.767064 1_555
Ge1 O2 1.788562 1_555
Ge1 O1 1.798922 1_555
Ge2 O5 1.738762 1_555
Ge2 O10 1.767064 1_555
Ge2 O1 1.788562 1_555
Ge2 O2 1.798922 1_556
Ge3 O4 1.738762 1_555
Ge3 O11 1.767064 1_555
Ge3 O0 1.788562 1_555
Ge3 O3 1.798922 1_555
O4 Sc1 2.026941 1_555
O5 Sc1 2.026941 1_555
O6 Sc0 2.026941 1_555
O7 Sc0 2.026941 1_555
O8 Sc1 2.146561 1_545
O8 Sc0 2.225855 1_455
O9 Sc1 2.146561 1_654
O9 Sc0 2.225855 1_565
O10 Sc0 2.146561 1_565
O10 Sc1 2.225855 1_655
O11 Sc0 2.146561 1_456
O11 Sc1 2.225855 1_545
