# generated using pymatgen
data_Na3SbO3
_symmetry_space_group_name_H-M   'P 1'
_cell_length_a   8.17706382
_cell_length_b   8.17707041
_cell_length_c   8.17704941
_cell_angle_alpha   109.47319480
_cell_angle_beta   109.47317028
_cell_angle_gamma   109.47332387
_symmetry_Int_Tables_number   1
_chemical_formula_structural   Na3SbO3
_chemical_formula_sum   'Na12 Sb4 O12'
_cell_volume   420.85990018
_cell_formula_units_Z   4
loop_
 _symmetry_equiv_pos_site_id
 _symmetry_equiv_pos_as_xyz
  1  'x, y, z'
loop_
 _atom_site_type_symbol
 _atom_site_label
 _atom_site_symmetry_multiplicity
 _atom_site_fract_x
 _atom_site_fract_y
 _atom_site_fract_z
 _atom_site_occupancy
  Na  Na0  1  0.24317768  0.72283365  0.72283378  1
  Na  Na1  1  0.72283351  0.72283319  0.24317772  1
  Na  Na2  1  0.72283402  0.24317753  0.72283398  1
  Na  Na3  1  -0.00006277  0.52024884  0.27715896  1
  Na  Na4  1  -0.00006283  0.27715856  0.52024923  1
  Na  Na5  1  0.75694516  0.47976675  0.47976692  1
  Na  Na6  1  0.47976705  0.47976690  0.75694521  1
  Na  Na7  1  0.52024953  0.27715866  -0.00006266  1
  Na  Na8  1  0.27715848  -0.00006296  0.52024942  1
  Na  Na9  1  0.52024988  -0.00006278  0.27715927  1
  Na  Na10  1  0.47976723  0.75694489  0.47976742  1
  Na  Na11  1  0.27715860  0.52024865  -0.00006324  1
  Sb  Sb0  1  0.00003766  0.71030418  0.00003957  1
  Sb  Sb1  1  0.00003936  0.00003956  0.71030114  1
  Sb  Sb2  1  0.28964029  0.28964057  0.28964056  1
  Sb  Sb3  1  0.71030147  0.00003926  0.00003974  1
  O  O0  1  0.48189878  0.26021895  0.48189885  1
  O  O1  1  0.26021928  0.48189872  0.48189900  1
  O  O2  1  0.48189854  0.48189833  0.26021901  1
  O  O3  1  0.51802971  0.77830813  0.00002595  1
  O  O4  1  0.77830840  0.00002562  0.51802936  1
  O  O5  1  0.51802966  0.00002558  0.77830852  1
  O  O6  1  0.22174391  0.73973439  0.22174402  1
  O  O7  1  0.77830841  0.51802899  0.00002552  1
  O  O8  1  0.00002528  0.51803067  0.77830615  1
  O  O9  1  0.22174391  0.22174378  0.73973497  1
  O  O10  1  0.73973518  0.22174396  0.22174408  1
  O  O11  1  0.00002561  0.77830841  0.51802953  1
loop_
_geom_bond_atom_site_label_1
_geom_bond_atom_site_label_2
_geom_bond_distance
_geom_bond_site_symmetry_2
Na0 O1 2.358075 1_555
Na0 O5 2.373346 1_565
Na0 O3 2.373349 1_556
Na0 O8 2.418945 1_555
Na0 O11 2.418965 1_555
Na1 O2 2.358072 1_555
Na1 O11 2.373345 1_655
Na1 O4 2.373348 1_565
Na1 O3 2.418962 1_555
Na1 O7 2.418965 1_555
Na2 O0 2.358077 1_555
Na2 O7 2.373344 1_556
Na2 O8 2.373358 1_655
Na2 O5 2.418961 1_555
Na2 O4 2.418963 1_555
Na3 O11 2.357783 1_555
Na3 O7 2.373289 1_455
Na3 O6 2.374003 1_555
Na3 O10 2.418149 1_455
Na3 O1 2.418753 1_555
Na4 O8 2.357778 1_555
Na4 O4 2.373286 1_455
Na4 O9 2.374005 1_555
Na4 O10 2.418151 1_455
Na4 O1 2.418751 1_555
Na5 O10 2.357749 1_555
Na5 O0 2.374138 1_555
Na5 O2 2.374140 1_555
Na5 O8 2.418474 1_655
Na5 O11 2.418495 1_655
Na6 O9 2.357749 1_555
Na6 O1 2.374137 1_555
Na6 O0 2.374138 1_555
Na6 O3 2.418495 1_556
Na6 O7 2.418496 1_556
Na7 O7 2.357778 1_555
Na7 O5 2.373289 1_554
Na7 O10 2.374005 1_555
Na7 O9 2.418155 1_554
Na7 O2 2.418752 1_555
Na8 O5 2.357782 1_555
Na8 O11 2.373284 1_545
Na8 O9 2.374003 1_555
Na8 O6 2.418155 1_545
Na8 O0 2.418753 1_555
Na9 O4 2.357776 1_555
Na9 O3 2.373288 1_545
Na9 O10 2.374003 1_555
Na9 O6 2.418156 1_545
Na9 O0 2.418755 1_555
Na10 O6 2.357751 1_555
Na10 O1 2.374136 1_555
Na10 O2 2.374141 1_555
Na10 O5 2.418493 1_565
Na10 O4 2.418495 1_565
Na11 O3 2.357780 1_555
Na11 O8 2.373305 1_554
Na11 O6 2.374007 1_555
Na11 O9 2.418150 1_554
Na11 O2 2.418753 1_555
O0 Sb2 1.964035 1_555
O1 Sb2 1.964030 1_555
O2 Sb2 1.964029 1_555
O3 Sb3 1.964278 1_565
O4 Sb1 1.964277 1_655
O5 Sb3 1.964279 1_556
O6 Sb0 1.964196 1_555
O7 Sb0 1.964280 1_655
O8 Sb0 1.964304 1_556
O9 Sb1 1.964172 1_555
O10 Sb3 1.964175 1_555
O11 Sb1 1.964279 1_565
