# generated using pymatgen
data_Li4Ti2Mn3Co3O16
_symmetry_space_group_name_H-M   'P 1'
_cell_length_a   5.86541422
_cell_length_b   5.92019949
_cell_length_c   9.49435023
_cell_angle_alpha   88.14984634
_cell_angle_beta   89.31315398
_cell_angle_gamma   59.94581535
_symmetry_Int_Tables_number   1
_chemical_formula_structural   Li4Ti2Mn3Co3O16
_chemical_formula_sum   'Li4 Ti2 Mn3 Co3 O16'
_cell_volume   285.20818590
_cell_formula_units_Z   1
loop_
 _symmetry_equiv_pos_site_id
 _symmetry_equiv_pos_as_xyz
  1  'x, y, z'
loop_
 _atom_site_type_symbol
 _atom_site_label
 _atom_site_symmetry_multiplicity
 _atom_site_fract_x
 _atom_site_fract_y
 _atom_site_fract_z
 _atom_site_occupancy
  Li  Li0  1  0.66196000  0.67535100  0.89814000  1
  Li  Li1  1  0.99765400  0.00327000  0.99423700  1
  Li  Li2  1  0.00928100  0.99675900  0.49275000  1
  Li  Li3  1  0.33690900  0.33397000  0.39541900  1
  Ti  Ti0  1  0.67514600  0.66313600  0.49669900  1
  Ti  Ti1  1  0.32388200  0.34676800  0.99819600  1
  Mn  Mn0  1  0.82539900  0.82860200  0.21561200  1
  Mn  Mn1  1  0.16944000  0.65530000  0.71609400  1
  Mn  Mn2  1  0.66189100  0.17219100  0.71231500  1
  Co  Co0  1  0.33899600  0.82583900  0.21739300  1
  Co  Co1  1  0.82644100  0.34115300  0.21458300  1
  Co  Co2  1  0.18344300  0.15904500  0.71918600  1
  O  O0  1  0.34194200  0.82001600  0.59652600  1
  O  O1  1  0.52404100  0.51843100  0.33967200  1
  O  O2  1  0.66967200  0.68058000  0.10634600  1
  O  O3  1  0.99093400  0.99037600  0.30491000  1
  O  O4  1  0.99722100  0.98430100  0.80502400  1
  O  O5  1  0.84219700  0.32693400  0.59329600  1
  O  O6  1  0.53010200  0.95808000  0.34145000  1
  O  O7  1  0.96215100  0.52649900  0.33850500  1
  O  O8  1  0.15949600  0.17225700  0.09425800  1
  O  O9  1  0.85269700  0.80878300  0.59208300  1
  O  O10  1  0.03503300  0.48898200  0.83839800  1
  O  O11  1  0.47626000  0.04456700  0.83954400  1
  O  O12  1  0.33722700  0.34641300  0.60816400  1
  O  O13  1  0.15348600  0.66701700  0.09820800  1
  O  O14  1  0.45834000  0.50222000  0.84642600  1
  O  O15  1  0.65845900  0.16346500  0.09440600  1
loop_
_geom_bond_atom_site_label_1
_geom_bond_atom_site_label_2
_geom_bond_distance
_geom_bond_site_symmetry_2
Li0 O11 1.955767 1_565
Li0 O2 1.979435 1_556
Li0 O10 1.979841 1_655
Li0 O14 1.997679 1_555
Li1 O4 1.803687 1_545
Li1 O8 1.959079 1_656
Li1 O13 1.960851 1_646
Li1 O15 1.971054 1_556
Li2 O3 1.790703 1_455
Li2 O0 1.951241 1_555
Li2 O5 1.967707 1_465
Li2 O9 1.976517 1_455
Li3 O1 1.956219 1_555
Li3 O7 1.975354 1_455
Li3 O6 2.008151 1_545
Li3 O12 2.023651 1_555
Mn0 O2 1.887227 1_555
Mn0 O3 1.892711 1_555
Mn0 O7 1.911624 1_555
Mn0 O6 1.922146 1_555
Mn0 O13 2.008564 1_655
Mn0 O15 2.036798 1_565
Mn1 O10 1.902925 1_555
Mn1 O4 1.908412 1_455
Mn1 O12 1.912287 1_555
Mn1 O14 1.914046 1_555
Mn1 O9 1.988953 1_455
Mn1 O0 2.037800 1_555
Mn2 O4 1.915063 1_545
Mn2 O12 1.918309 1_555
Mn2 O11 1.987224 1_555
Mn2 O5 2.027207 1_555
Mn2 O14 2.156816 1_555
Mn2 O9 2.213712 1_545
Co0 O1 1.937321 1_555
Co0 O3 1.956225 1_455
Co0 O2 1.987921 1_555
Co0 O6 2.055936 1_555
Co0 O8 2.095997 1_565
Co0 O13 2.114592 1_555
Co1 O1 1.955350 1_555
Co1 O3 1.968972 1_545
Co1 O2 1.994515 1_555
Co1 O8 2.045684 1_655
Co1 O7 2.050028 1_555
Co1 O15 2.126473 1_555
Co2 O11 1.883097 1_555
Co2 O4 1.995873 1_445
Co2 O12 2.014709 1_555
Co2 O10 2.066446 1_555
Co2 O5 2.100165 1_455
Co2 O0 2.122502 1_545
O0 Ti0 1.942888 1_555
O1 Ti0 2.148669 1_555
O5 Ti0 1.926929 1_555
O6 Ti0 2.078774 1_555
O7 Ti0 2.097121 1_555
O8 Ti1 1.935128 1_554
O9 Ti0 1.902793 1_555
O10 Ti1 2.105101 1_555
O11 Ti1 2.192871 1_555
O13 Ti1 1.921099 1_554
O14 Ti1 2.039463 1_555
O15 Ti1 1.925888 1_554
