# generated using pymatgen
data_LiY2Al
_symmetry_space_group_name_H-M   'P 1'
_cell_length_a   5.17044863
_cell_length_b   5.17044349
_cell_length_c   5.17045011
_cell_angle_alpha   59.99992943
_cell_angle_beta   59.99997173
_cell_angle_gamma   59.99996711
_symmetry_Int_Tables_number   1
_chemical_formula_structural   LiY2Al
_chemical_formula_sum   'Li1 Y2 Al1'
_cell_volume   97.73923730
_cell_formula_units_Z   1
loop_
 _symmetry_equiv_pos_site_id
 _symmetry_equiv_pos_as_xyz
  1  'x, y, z'
loop_
 _atom_site_type_symbol
 _atom_site_label
 _atom_site_symmetry_multiplicity
 _atom_site_fract_x
 _atom_site_fract_y
 _atom_site_fract_z
 _atom_site_occupancy
  Li  Li0  1  0.75000000  0.75000000  0.75000000  1
  Y  Y0  1  0.00000000  -0.00000000  -0.00000000  1
  Y  Y1  1  0.50000000  0.50000000  0.50000000  1
  Al  Al0  1  0.25000000  0.25000000  0.25000000  1
loop_
_geom_bond_atom_site_label_1
_geom_bond_atom_site_label_2
_geom_bond_distance
_geom_bond_site_symmetry_2
Li0 Y1 3.166235 1_565
Li0 Y0 3.166235 1_656
Li0 Y1 3.166239 1_556
Li0 Y0 3.166239 1_665
Li0 Y0 3.166239 1_566
Li0 Y1 3.166239 1_655
Li0 Y0 3.166241 1_666
Li0 Y1 3.166241 1_555
Al0 Y0 3.166235 1_565
Al0 Y1 3.166235 1_545
Al0 Y1 3.166239 1_554
Al0 Y0 3.166239 1_556
Al0 Y0 3.166239 1_655
Al0 Y1 3.166239 1_455
Al0 Y0 3.166241 1_555
Al0 Y1 3.166241 1_555
