# generated using pymatgen
data_PmRh3
_symmetry_space_group_name_H-M   'P 1'
_cell_length_a   4.07151722
_cell_length_b   4.07167263
_cell_length_c   4.07302778
_cell_angle_alpha   89.99997102
_cell_angle_beta   90.00008695
_cell_angle_gamma   90.00028960
_symmetry_Int_Tables_number   1
_chemical_formula_structural   PmRh3
_chemical_formula_sum   'Pm1 Rh3'
_cell_volume   67.52218706
_cell_formula_units_Z   1
loop_
 _symmetry_equiv_pos_site_id
 _symmetry_equiv_pos_as_xyz
  1  'x, y, z'
loop_
 _atom_site_type_symbol
 _atom_site_label
 _atom_site_symmetry_multiplicity
 _atom_site_fract_x
 _atom_site_fract_y
 _atom_site_fract_z
 _atom_site_occupancy
  Pm  Pm0  1  0.00000000  0.00000160  0.00000100  1
  Rh  Rh0  1  0.00000000  0.49999783  0.50000100  1
  Rh  Rh1  1  0.50000000  -0.00000039  0.50000000  1
  Rh  Rh2  1  0.50000200  0.50000297  0.00000000  1
loop_
_geom_bond_atom_site_label_1
_geom_bond_atom_site_label_2
_geom_bond_distance
_geom_bond_site_symmetry_2
Pm0 Rh2 2.879035 1_445
Pm0 Rh2 2.879055 1_555
Pm0 Rh2 2.879058 1_455
Pm0 Rh2 2.879061 1_545
Pm0 Rh1 2.879526 1_555
Pm0 Rh1 2.879531 1_455
Pm0 Rh1 2.879532 1_454
Pm0 Rh1 2.879537 1_554
Pm0 Rh0 2.879575 1_554
Pm0 Rh0 2.879576 1_555
Pm0 Rh0 2.879597 1_545
Pm0 Rh0 2.879598 1_544
