# generated using pymatgen
data_YLu3
_symmetry_space_group_name_H-M   'P 1'
_cell_length_a   7.04179562
_cell_length_b   7.04193022
_cell_length_c   5.68920180
_cell_angle_alpha   90.00000000
_cell_angle_beta   90.00000000
_cell_angle_gamma   119.99500791
_symmetry_Int_Tables_number   1
_chemical_formula_structural   YLu3
_chemical_formula_sum   'Y2 Lu6'
_cell_volume   244.33121103
_cell_formula_units_Z   2
loop_
 _symmetry_equiv_pos_site_id
 _symmetry_equiv_pos_as_xyz
  1  'x, y, z'
loop_
 _atom_site_type_symbol
 _atom_site_label
 _atom_site_symmetry_multiplicity
 _atom_site_fract_x
 _atom_site_fract_y
 _atom_site_fract_z
 _atom_site_occupancy
  Y  Y0  1  0.33337104  0.66663584  0.74999900  1
  Y  Y1  1  0.66661809  0.33338098  0.25000000  1
  Lu  Lu0  1  0.16467493  0.32944797  0.25000000  1
  Lu  Lu1  1  0.67058931  0.83533050  0.25000000  1
  Lu  Lu2  1  0.16475912  0.83526688  0.25000000  1
  Lu  Lu3  1  0.83539007  0.67063999  0.74999900  1
  Lu  Lu4  1  0.32932653  0.16460214  0.74999900  1
  Lu  Lu5  1  0.83526991  0.16469570  0.74999900  1
loop_
_geom_bond_atom_site_label_1
_geom_bond_atom_site_label_2
_geom_bond_distance
_geom_bond_site_symmetry_2
Lu0 Lu1 3.479658 1_445
Lu0 Lu2 3.480285 1_545
Lu0 Lu5 3.482463 1_455
Lu0 Lu5 3.482472 1_454
Lu0 Lu4 3.482711 1_555
Lu0 Lu4 3.482721 1_554
Lu0 Y0 3.510081 1_555
Lu0 Y0 3.510090 1_554
Lu0 Y1 3.520817 1_555
Lu0 Y1 3.521142 1_455
Lu0 Lu2 3.561645 1_555
Lu0 Lu1 3.562736 1_555
Lu1 Lu2 3.480067 1_655
Lu1 Lu5 3.482345 1_565
Lu1 Lu5 3.482354 1_564
Lu1 Lu3 3.482690 1_555
Lu1 Lu3 3.482699 1_554
Lu1 Y0 3.510167 1_555
Lu1 Y0 3.510176 1_554
Lu1 Y1 3.520797 1_555
Lu1 Y1 3.521300 1_565
Lu1 Lu2 3.561729 1_555
Lu2 Lu4 3.482239 1_565
Lu2 Lu4 3.482249 1_564
Lu2 Lu3 3.482336 1_455
Lu2 Lu3 3.482345 1_454
Lu2 Y0 3.510175 1_555
Lu2 Y0 3.510185 1_554
Lu2 Y1 3.521176 1_565
Lu2 Y1 3.521367 1_455
Lu3 Lu4 3.478586 1_665
Lu3 Lu5 3.479529 1_565
Lu3 Y1 3.510335 1_555
Lu3 Y1 3.510345 1_556
Lu3 Y0 3.520861 1_655
Lu3 Y0 3.521104 1_555
Lu3 Lu5 3.562401 1_555
Lu3 Lu4 3.563809 1_555
Lu4 Lu5 3.479375 1_455
Lu4 Y1 3.510429 1_555
Lu4 Y1 3.510438 1_556
Lu4 Y0 3.520968 1_545
Lu4 Y0 3.521135 1_555
Lu4 Lu5 3.562421 1_555
Lu5 Y1 3.510512 1_555
Lu5 Y1 3.510521 1_556
Lu5 Y0 3.521129 1_545
Lu5 Y0 3.521421 1_655
