# generated using pymatgen
data_MgGeIr2
_symmetry_space_group_name_H-M   'P 1'
_cell_length_a   4.30584370
_cell_length_b   4.30584370
_cell_length_c   4.30584370
_cell_angle_alpha   60.00000000
_cell_angle_beta   60.00000000
_cell_angle_gamma   60.00000000
_symmetry_Int_Tables_number   1
_chemical_formula_structural   MgGeIr2
_chemical_formula_sum   'Mg1 Ge1 Ir2'
_cell_volume   56.44945923
_cell_formula_units_Z   1
loop_
 _symmetry_equiv_pos_site_id
 _symmetry_equiv_pos_as_xyz
  1  'x, y, z'
loop_
 _atom_site_type_symbol
 _atom_site_label
 _atom_site_symmetry_multiplicity
 _atom_site_fract_x
 _atom_site_fract_y
 _atom_site_fract_z
 _atom_site_occupancy
  Mg  Mg0  1  0.75000100  0.75000100  0.75000100  1
  Ge  Ge0  1  0.25000100  0.25000100  0.25000100  1
  Ir  Ir0  1  0.50000000  0.50000000  0.50000000  1
  Ir  Ir1  1  0.00000000  0.00000000  -0.00000000  1
loop_
_geom_bond_atom_site_label_1
_geom_bond_atom_site_label_2
_geom_bond_distance
_geom_bond_site_symmetry_2
Ge0 Ir0 2.636769 1_555
Ge0 Ir1 2.636776 1_655
Ge0 Ir1 2.636776 1_556
Ge0 Ir1 2.636776 1_565
Ge0 Ir0 2.636784 1_545
Ge0 Ir0 2.636784 1_554
Ge0 Ir0 2.636784 1_455
Ge0 Ir1 2.636791 1_555
Ge0 Mg0 3.044691 1_544
Ge0 Mg0 3.044691 1_454
Ge0 Mg0 3.044691 1_445
Ge0 Mg0 3.044691 1_545
Ge0 Mg0 3.044691 1_554
Ge0 Mg0 3.044691 1_455
Ir0 Mg0 2.636776 1_545
Ir0 Mg0 2.636776 1_554
Ir0 Mg0 2.636776 1_455
Ir0 Mg0 2.636791 1_555
Ir1 Mg0 2.636769 1_444
Ir1 Mg0 2.636784 1_454
Ir1 Mg0 2.636784 1_544
Ir1 Mg0 2.636784 1_445
