# generated using pymatgen
data_Na2FePO5
_symmetry_space_group_name_H-M   'P 1'
_cell_length_a   5.31887600
_cell_length_b   11.82666700
_cell_length_c   14.08115600
_cell_angle_alpha   90.00000000
_cell_angle_beta   90.00000000
_cell_angle_gamma   90.00000000
_symmetry_Int_Tables_number   1
_chemical_formula_structural   Na2FePO5
_chemical_formula_sum   'Na16 Fe8 P8 O40'
_cell_volume   885.76913744
_cell_formula_units_Z   8
loop_
 _symmetry_equiv_pos_site_id
 _symmetry_equiv_pos_as_xyz
  1  'x, y, z'
loop_
 _atom_site_type_symbol
 _atom_site_label
 _atom_site_symmetry_multiplicity
 _atom_site_fract_x
 _atom_site_fract_y
 _atom_site_fract_z
 _atom_site_occupancy
  Na  Na0  1  0.26198500  0.17492800  0.75638900  1
  Na  Na1  1  0.23801500  0.67492800  0.74361100  1
  Na  Na2  1  0.76198500  0.82507200  0.74361100  1
  Na  Na3  1  0.73801500  0.32507200  0.75638900  1
  Na  Na4  1  0.73801500  0.82507200  0.24361100  1
  Na  Na5  1  0.76198500  0.32507200  0.25638900  1
  Na  Na6  1  0.23801500  0.17492800  0.25638900  1
  Na  Na7  1  0.26198500  0.67492800  0.24361100  1
  Na  Na8  1  0.24357000  0.41616100  0.87519300  1
  Na  Na9  1  0.25643000  0.91616100  0.62480700  1
  Na  Na10  1  0.74357000  0.58383900  0.62480700  1
  Na  Na11  1  0.75643000  0.08383900  0.87519300  1
  Na  Na12  1  0.75643000  0.58383900  0.12480700  1
  Na  Na13  1  0.74357000  0.08383900  0.37519300  1
  Na  Na14  1  0.25643000  0.41616100  0.37519300  1
  Na  Na15  1  0.24357000  0.91616100  0.12480700  1
  Fe  Fe0  1  0.22651800  0.18312600  0.97645400  1
  Fe  Fe1  1  0.27348200  0.68312600  0.52354600  1
  Fe  Fe2  1  0.72651800  0.81687400  0.52354600  1
  Fe  Fe3  1  0.77348200  0.31687400  0.97645400  1
  Fe  Fe4  1  0.77348200  0.81687400  0.02354600  1
  Fe  Fe5  1  0.72651800  0.31687400  0.47645400  1
  Fe  Fe6  1  0.27348200  0.18312600  0.47645400  1
  Fe  Fe7  1  0.22651800  0.68312600  0.02354600  1
  P  P0  1  0.20298600  0.41073700  0.61697900  1
  P  P1  1  0.29701400  0.91073700  0.88302100  1
  P  P2  1  0.70298600  0.58926300  0.88302100  1
  P  P3  1  0.79701400  0.08926300  0.61697900  1
  P  P4  1  0.79701400  0.58926300  0.38302100  1
  P  P5  1  0.70298600  0.08926300  0.11697900  1
  P  P6  1  0.29701400  0.41073700  0.11697900  1
  P  P7  1  0.20298600  0.91073700  0.38302100  1
  O  O0  1  0.35823500  0.34629900  0.53982900  1
  O  O1  1  0.14176500  0.84629900  0.96017100  1
  O  O2  1  0.85823500  0.65370100  0.96017100  1
  O  O3  1  0.64176500  0.15370100  0.53982900  1
  O  O4  1  0.64176500  0.65370100  0.46017100  1
  O  O5  1  0.85823500  0.15370100  0.03982900  1
  O  O6  1  0.14176500  0.34629900  0.03982900  1
  O  O7  1  0.35823500  0.84629900  0.46017100  1
  O  O8  1  0.27764900  0.37012800  0.71650900  1
  O  O9  1  0.22235100  0.87012800  0.78349100  1
  O  O10  1  0.77764900  0.62987200  0.78349100  1
  O  O11  1  0.72235100  0.12987200  0.71650900  1
  O  O12  1  0.72235100  0.62987200  0.28349100  1
  O  O13  1  0.77764900  0.12987200  0.21650900  1
  O  O14  1  0.22235100  0.37012800  0.21650900  1
  O  O15  1  0.27764900  0.87012800  0.28349100  1
  O  O16  1  0.08549500  0.10922800  0.59730500  1
  O  O17  1  0.41450500  0.60922800  0.90269500  1
  O  O18  1  0.58549500  0.89077200  0.90269500  1
  O  O19  1  0.91450500  0.39077200  0.59730500  1
  O  O20  1  0.91450500  0.89077200  0.40269500  1
  O  O21  1  0.58549500  0.39077200  0.09730500  1
  O  O22  1  0.41450500  0.10922800  0.09730500  1
  O  O23  1  0.08549500  0.60922800  0.40269500  1
  O  O24  1  0.23654100  0.03963900  0.89223200  1
  O  O25  1  0.26345900  0.53963900  0.60776800  1
  O  O26  1  0.73654100  0.96036100  0.60776800  1
  O  O27  1  0.76345900  0.46036100  0.89223200  1
  O  O28  1  0.76345900  0.96036100  0.10776800  1
  O  O29  1  0.73654100  0.46036100  0.39223200  1
  O  O30  1  0.26345900  0.03963900  0.39223200  1
  O  O31  1  0.23654100  0.53963900  0.10776800  1
  O  O32  1  0.00000000  0.25000000  0.88326800  1
  O  O33  1  0.50000000  0.75000000  0.61673200  1
  O  O34  1  0.00000000  0.75000000  0.11673200  1
  O  O35  1  0.50000000  0.25000000  0.38326800  1
  O  O36  1  0.50000000  0.25000000  0.91215200  1
  O  O37  1  0.00000000  0.75000000  0.58784800  1
  O  O38  1  0.50000000  0.75000000  0.08784800  1
  O  O39  1  0.00000000  0.25000000  0.41215200  1
loop_
_geom_bond_atom_site_label_1
_geom_bond_atom_site_label_2
_geom_bond_distance
_geom_bond_site_symmetry_2
Na0 O8 2.377343 1_555
Na0 O32 2.433511 1_555
Na0 O24 2.497454 1_555
Na0 O16 2.550088 1_555
Na0 O11 2.568088 1_555
Na0 O36 2.683586 1_555
Na0 O11 2.972810 1_455
Na1 O9 2.377343 1_555
Na1 O33 2.433511 1_555
Na1 O25 2.497454 1_555
Na1 O17 2.550088 1_555
Na1 O10 2.568088 1_455
Na1 O37 2.683586 1_555
Na1 O10 2.972810 1_555
Na2 O10 2.377343 1_555
Na2 O33 2.433511 1_555
Na2 O26 2.497454 1_555
Na2 O18 2.550088 1_555
Na2 O9 2.568088 1_655
Na2 O37 2.683586 1_655
Na2 O9 2.972810 1_555
Na3 O11 2.377343 1_555
Na3 O32 2.433511 1_655
Na3 O27 2.497454 1_555
Na3 O19 2.550088 1_555
Na3 O8 2.568088 1_555
Na3 O36 2.683586 1_555
Na3 O8 2.972810 1_655
Na4 O12 2.377343 1_555
Na4 O34 2.433511 1_655
Na4 O28 2.497454 1_555
Na4 O20 2.550088 1_555
Na4 O15 2.568088 1_555
Na4 O38 2.683586 1_555
Na4 O15 2.972810 1_655
Na5 O13 2.377343 1_555
Na5 O35 2.433511 1_555
Na5 O29 2.497454 1_555
Na5 O21 2.550088 1_555
Na5 O14 2.568088 1_655
Na5 O39 2.683586 1_655
Na5 O14 2.972810 1_555
Na6 O14 2.377343 1_555
Na6 O35 2.433511 1_555
Na6 O30 2.497454 1_555
Na6 O22 2.550088 1_555
Na6 O13 2.568088 1_455
Na6 O39 2.683586 1_555
Na6 O13 2.972810 1_555
Na7 O15 2.377343 1_555
Na7 O34 2.433511 1_555
Na7 O31 2.497454 1_555
Na7 O23 2.550088 1_555
Na7 O12 2.568088 1_555
Na7 O38 2.683586 1_555
Na7 O12 2.972810 1_455
Na8 O8 2.306953 1_555
Na8 O32 2.356488 1_555
Na8 O36 2.448031 1_555
Na8 O17 2.488015 1_555
Na8 O6 2.519966 1_556
Na8 O27 2.617624 1_455
Na8 O27 2.824410 1_555
Na9 O9 2.306953 1_555
Na9 O33 2.356488 1_555
Na9 O37 2.448031 1_555
Na9 O16 2.488015 1_565
Na9 O7 2.519966 1_555
Na9 O26 2.617624 1_555
Na9 O26 2.824410 1_455
Na10 O10 2.306953 1_555
Na10 O33 2.356488 1_555
Na10 O37 2.448031 1_655
Na10 O19 2.488015 1_555
Na10 O4 2.519966 1_555
Na10 O25 2.617624 1_555
Na10 O25 2.824410 1_655
Na11 O11 2.306953 1_555
Na11 O32 2.356488 1_655
Na11 O36 2.448031 1_555
Na11 O18 2.488015 1_545
Na11 O5 2.519966 1_556
Na11 O24 2.617624 1_655
Na11 O24 2.824410 1_555
Na12 O12 2.306953 1_555
Na12 O34 2.356488 1_655
Na12 O38 2.448031 1_555
Na12 O21 2.488015 1_555
Na12 O2 2.519966 1_554
Na12 O31 2.617624 1_655
Na12 O31 2.824410 1_555
Na13 O13 2.306953 1_555
Na13 O35 2.356488 1_555
Na13 O39 2.448031 1_655
Na13 O20 2.488015 1_545
Na13 O3 2.519966 1_555
Na13 O30 2.617624 1_555
Na13 O30 2.824410 1_655
Na14 O14 2.306953 1_555
Na14 O35 2.356488 1_555
Na14 O39 2.448031 1_555
Na14 O23 2.488015 1_555
Na14 O0 2.519966 1_555
Na14 O29 2.617624 1_555
Na14 O29 2.824410 1_455
Na15 O15 2.306953 1_555
Na15 O34 2.356488 1_555
Na15 O38 2.448031 1_555
Na15 O22 2.488015 1_565
Na15 O1 2.519966 1_554
Na15 O28 2.617624 1_455
Na15 O28 2.824410 1_555
Fe0 O36 1.887130 1_555
Fe0 O32 1.949075 1_555
Fe0 O24 2.070995 1_555
Fe0 O22 2.158572 1_556
Fe0 O6 2.173402 1_556
Fe0 O5 2.180497 1_456
Fe1 O37 1.887130 1_555
Fe1 O33 1.949075 1_555
Fe1 O25 2.070995 1_555
Fe1 O23 2.158572 1_555
Fe1 O7 2.173402 1_555
Fe1 O4 2.180497 1_555
Fe2 O37 1.887130 1_655
Fe2 O33 1.949075 1_555
Fe2 O26 2.070995 1_555
Fe2 O20 2.158572 1_555
Fe2 O4 2.173402 1_555
Fe2 O7 2.180497 1_555
Fe3 O36 1.887130 1_555
Fe3 O32 1.949075 1_655
Fe3 O27 2.070995 1_555
Fe3 O21 2.158572 1_556
Fe3 O5 2.173402 1_556
Fe3 O6 2.180497 1_656
Fe4 O38 1.887130 1_555
Fe4 O34 1.949075 1_655
Fe4 O28 2.070995 1_555
Fe4 O18 2.158572 1_554
Fe4 O2 2.173402 1_554
Fe4 O1 2.180497 1_654
Fe5 O39 1.887130 1_655
Fe5 O35 1.949075 1_555
Fe5 O29 2.070995 1_555
Fe5 O19 2.158572 1_555
Fe5 O3 2.173402 1_555
Fe5 O0 2.180497 1_555
Fe6 O39 1.887130 1_555
Fe6 O35 1.949075 1_555
Fe6 O30 2.070995 1_555
Fe6 O16 2.158572 1_555
Fe6 O0 2.173402 1_555
Fe6 O3 2.180497 1_555
Fe7 O38 1.887130 1_555
Fe7 O34 1.949075 1_555
Fe7 O31 2.070995 1_555
Fe7 O17 2.158572 1_554
Fe7 O1 2.173402 1_554
Fe7 O2 2.180497 1_454
O0 P0 1.562952 1_555
O1 P1 1.562952 1_555
O2 P2 1.562952 1_555
O3 P3 1.562952 1_555
O4 P4 1.562952 1_555
O5 P5 1.562952 1_555
O6 P6 1.562952 1_555
O7 P7 1.562952 1_555
O8 P0 1.533806 1_555
O9 P1 1.533806 1_555
O10 P2 1.533806 1_555
O11 P3 1.533806 1_555
O12 P4 1.533806 1_555
O13 P5 1.533806 1_555
O14 P6 1.533806 1_555
O15 P7 1.533806 1_555
O16 P3 1.576980 1_455
O17 P2 1.576980 1_555
O18 P1 1.576980 1_555
O19 P0 1.576980 1_655
O20 P7 1.576980 1_655
O21 P6 1.576980 1_555
O22 P5 1.576980 1_555
O23 P4 1.576980 1_455
O24 P1 1.563433 1_545
O25 P0 1.563433 1_555
O26 P3 1.563433 1_565
O27 P2 1.563433 1_555
O28 P5 1.563433 1_565
O29 P4 1.563433 1_555
O30 P7 1.563433 1_545
O31 P6 1.563433 1_555
