# generated using pymatgen
data_MnSnRu2
_symmetry_space_group_name_H-M   'P 1'
_cell_length_a   4.39198116
_cell_length_b   4.39198116
_cell_length_c   4.39198116
_cell_angle_alpha   60.00000000
_cell_angle_beta   60.00000000
_cell_angle_gamma   60.00000000
_symmetry_Int_Tables_number   1
_chemical_formula_structural   MnSnRu2
_chemical_formula_sum   'Mn1 Sn1 Ru2'
_cell_volume   59.90545997
_cell_formula_units_Z   1
loop_
 _symmetry_equiv_pos_site_id
 _symmetry_equiv_pos_as_xyz
  1  'x, y, z'
loop_
 _atom_site_type_symbol
 _atom_site_label
 _atom_site_symmetry_multiplicity
 _atom_site_fract_x
 _atom_site_fract_y
 _atom_site_fract_z
 _atom_site_occupancy
  Mn  Mn0  1  0.25000100  0.25000100  0.25000100  1
  Sn  Sn0  1  0.75000100  0.75000100  0.75000100  1
  Ru  Ru0  1  -0.00000000  0.00000000  -0.00000000  1
  Ru  Ru1  1  0.50000000  0.50000000  0.50000000  1
loop_
_geom_bond_atom_site_label_1
_geom_bond_atom_site_label_2
_geom_bond_distance
_geom_bond_site_symmetry_2
Mn0 Ru1 2.689517 1_555
Mn0 Ru0 2.689525 1_655
Mn0 Ru0 2.689525 1_556
Mn0 Ru0 2.689525 1_565
Mn0 Ru1 2.689532 1_554
Mn0 Ru1 2.689532 1_545
Mn0 Ru1 2.689532 1_455
Mn0 Ru0 2.689539 1_555
Ru0 Sn0 2.689517 1_444
Ru0 Sn0 2.689532 1_544
Ru0 Sn0 2.689532 1_454
Ru0 Sn0 2.689532 1_445
Ru1 Sn0 2.689525 1_545
Ru1 Sn0 2.689525 1_455
Ru1 Sn0 2.689525 1_554
Ru1 Sn0 2.689539 1_555
