# generated using pymatgen
data_Mo
_symmetry_space_group_name_H-M   'P 1'
_cell_length_a   5.62509581
_cell_length_b   5.62509398
_cell_length_c   5.62509346
_cell_angle_alpha   59.99999143
_cell_angle_beta   60.00000219
_cell_angle_gamma   60.00001093
_symmetry_Int_Tables_number   1
_chemical_formula_structural   Mo
_chemical_formula_sum   Mo8
_cell_volume   125.85615707
_cell_formula_units_Z   8
loop_
 _symmetry_equiv_pos_site_id
 _symmetry_equiv_pos_as_xyz
  1  'x, y, z'
loop_
 _atom_site_type_symbol
 _atom_site_label
 _atom_site_symmetry_multiplicity
 _atom_site_fract_x
 _atom_site_fract_y
 _atom_site_fract_z
 _atom_site_occupancy
  Mo  Mo0_0  1  0.00000000  0.00000000  0.00000000  1
  Mo  Mo0_1  1  0.00000000  0.00000000  0.50000000  1
  Mo  Mo0_2  1  0.00000000  0.50000000  0.00000000  1
  Mo  Mo0_3  1  0.00000000  0.50000000  0.50000000  1
  Mo  Mo0_4  1  0.50000000  0.00000000  0.00000000  1
  Mo  Mo0_5  1  0.50000000  0.00000000  0.50000000  1
  Mo  Mo0_6  1  0.50000000  0.50000000  0.00000000  1
  Mo  Mo0_7  1  0.50000000  0.50000000  0.50000000  1
loop_
_geom_bond_atom_site_label_1
_geom_bond_atom_site_label_2
_geom_bond_distance
_geom_bond_site_symmetry_2
Mo0_0 Mo0_3 2.812546 1_554
Mo0_0 Mo0_3 2.812546 1_545
Mo0_0 Mo0_1 2.812547 1_554
Mo0_0 Mo0_1 2.812547 1_555
Mo0_0 Mo0_2 2.812547 1_545
Mo0_0 Mo0_2 2.812547 1_555
Mo0_0 Mo0_5 2.812547 1_554
Mo0_0 Mo0_5 2.812547 1_455
Mo0_0 Mo0_4 2.812548 1_455
Mo0_0 Mo0_4 2.812548 1_555
Mo0_0 Mo0_6 2.812548 1_455
Mo0_0 Mo0_6 2.812548 1_545
Mo0_1 Mo0_2 2.812546 1_555
Mo0_1 Mo0_2 2.812546 1_546
Mo0_1 Mo0_3 2.812547 1_545
Mo0_1 Mo0_3 2.812547 1_555
Mo0_1 Mo0_4 2.812547 1_555
Mo0_1 Mo0_4 2.812547 1_456
Mo0_1 Mo0_5 2.812548 1_555
Mo0_1 Mo0_5 2.812548 1_455
Mo0_1 Mo0_7 2.812548 1_455
Mo0_1 Mo0_7 2.812548 1_545
Mo0_2 Mo0_3 2.812547 1_555
Mo0_2 Mo0_3 2.812547 1_554
Mo0_2 Mo0_7 2.812547 1_554
Mo0_2 Mo0_7 2.812547 1_455
Mo0_2 Mo0_6 2.812548 1_455
Mo0_2 Mo0_6 2.812548 1_555
Mo0_2 Mo0_4 2.812548 1_555
Mo0_2 Mo0_4 2.812548 1_465
Mo0_3 Mo0_6 2.812547 1_555
Mo0_3 Mo0_6 2.812547 1_456
Mo0_3 Mo0_7 2.812548 1_455
Mo0_3 Mo0_7 2.812548 1_555
Mo0_3 Mo0_5 2.812548 1_555
Mo0_3 Mo0_5 2.812548 1_465
Mo0_4 Mo0_7 2.812546 1_554
Mo0_4 Mo0_7 2.812546 1_545
Mo0_4 Mo0_5 2.812547 1_555
Mo0_4 Mo0_5 2.812547 1_554
Mo0_4 Mo0_6 2.812547 1_545
Mo0_4 Mo0_6 2.812547 1_555
Mo0_5 Mo0_6 2.812546 1_555
Mo0_5 Mo0_6 2.812546 1_546
Mo0_5 Mo0_7 2.812547 1_545
Mo0_5 Mo0_7 2.812547 1_555
Mo0_6 Mo0_7 2.812547 1_555
Mo0_6 Mo0_7 2.812547 1_554
