# generated using pymatgen
data_MgMoN2
_symmetry_space_group_name_H-M   'P 1'
_cell_length_a   2.91087386
_cell_length_b   2.91087386
_cell_length_c   10.52584666
_cell_angle_alpha   90.00000000
_cell_angle_beta   90.00000000
_cell_angle_gamma   120.00002312
_symmetry_Int_Tables_number   1
_chemical_formula_structural   MgMoN2
_chemical_formula_sum   'Mg2 Mo2 N4'
_cell_volume   77.23859089
_cell_formula_units_Z   2
loop_
 _symmetry_equiv_pos_site_id
 _symmetry_equiv_pos_as_xyz
  1  'x, y, z'
loop_
 _atom_site_type_symbol
 _atom_site_label
 _atom_site_symmetry_multiplicity
 _atom_site_fract_x
 _atom_site_fract_y
 _atom_site_fract_z
 _atom_site_occupancy
  Mg  Mg0  1  -0.00000000  -0.00000000  -0.00000000  1
  Mg  Mg1  1  -0.00000000  -0.00000000  0.50000000  1
  Mo  Mo0  1  0.66666600  0.33333100  0.25000000  1
  Mo  Mo1  1  0.33333500  0.66667000  0.75000000  1
  N  N0  1  0.33333300  0.66666600  0.12743637  1
  N  N1  1  0.33333300  0.66666600  0.37256363  1
  N  N2  1  0.66666800  0.33333500  0.62743637  1
  N  N3  1  0.66666800  0.33333500  0.87256363  1
loop_
_geom_bond_atom_site_label_1
_geom_bond_atom_site_label_2
_geom_bond_distance
_geom_bond_site_symmetry_2
Mg0 N3 2.150272 1_444
Mg0 N0 2.150274 1_555
Mg0 N0 2.150276 1_445
Mg0 N0 2.150276 1_545
Mg0 N3 2.150276 1_454
Mg0 N3 2.150278 1_554
Mg1 N2 2.150272 1_445
Mg1 N1 2.150274 1_555
Mg1 N1 2.150276 1_445
Mg1 N1 2.150276 1_545
Mg1 N2 2.150276 1_455
Mg1 N2 2.150278 1_555
Mo0 N0 2.118656 1_545
Mo0 N1 2.118656 1_545
Mo0 N0 2.118660 1_655
Mo0 N1 2.118660 1_655
Mo0 N0 2.118662 1_555
Mo0 N1 2.118662 1_555
Mo1 N3 2.118656 1_565
Mo1 N2 2.118656 1_565
Mo1 N2 2.118660 1_455
Mo1 N3 2.118660 1_455
Mo1 N3 2.118662 1_555
Mo1 N2 2.118662 1_555
