# generated using pymatgen
data_LuNbRu2
_symmetry_space_group_name_H-M   'P 1'
_cell_length_a   4.56585930
_cell_length_b   4.56585930
_cell_length_c   4.56585930
_cell_angle_alpha   60.00000000
_cell_angle_beta   60.00000000
_cell_angle_gamma   60.00000000
_symmetry_Int_Tables_number   1
_chemical_formula_structural   LuNbRu2
_chemical_formula_sum   'Lu1 Nb1 Ru2'
_cell_volume   67.30581289
_cell_formula_units_Z   1
loop_
 _symmetry_equiv_pos_site_id
 _symmetry_equiv_pos_as_xyz
  1  'x, y, z'
loop_
 _atom_site_type_symbol
 _atom_site_label
 _atom_site_symmetry_multiplicity
 _atom_site_fract_x
 _atom_site_fract_y
 _atom_site_fract_z
 _atom_site_occupancy
  Lu  Lu0  1  0.24999900  0.24999900  0.24999900  1
  Nb  Nb0  1  0.75000100  0.75000100  0.75000100  1
  Ru  Ru0  1  0.00000000  -0.00000000  0.00000000  1
  Ru  Ru1  1  0.49999900  0.49999900  0.49999900  1
loop_
_geom_bond_atom_site_label_1
_geom_bond_atom_site_label_2
_geom_bond_distance
_geom_bond_site_symmetry_2
Lu0 Ru0 2.795995 1_555
Lu0 Ru1 2.796006 1_545
Lu0 Ru1 2.796006 1_554
Lu0 Ru1 2.796006 1_455
Lu0 Ru1 2.796006 1_555
Lu0 Ru0 2.796010 1_655
Lu0 Ru0 2.796010 1_556
Lu0 Ru0 2.796010 1_565
Nb0 Ru0 2.795995 1_666
Nb0 Ru1 2.795999 1_556
Nb0 Ru1 2.795999 1_565
Nb0 Ru1 2.795999 1_655
Nb0 Ru0 2.796010 1_566
Nb0 Ru0 2.796010 1_656
Nb0 Ru0 2.796010 1_665
Nb0 Ru1 2.796029 1_555
