# generated using pymatgen
data_Rb5SiHO5
_symmetry_space_group_name_H-M   'P 1'
_cell_length_a   6.66392411
_cell_length_b   6.66392411
_cell_length_c   12.17947290
_cell_angle_alpha   80.62224341
_cell_angle_beta   80.62224341
_cell_angle_gamma   111.58274203
_symmetry_Int_Tables_number   1
_chemical_formula_structural   Rb5SiHO5
_chemical_formula_sum   'Rb10 Si2 H2 O10'
_cell_volume   481.35638918
_cell_formula_units_Z   2
loop_
 _symmetry_equiv_pos_site_id
 _symmetry_equiv_pos_as_xyz
  1  'x, y, z'
loop_
 _atom_site_type_symbol
 _atom_site_label
 _atom_site_symmetry_multiplicity
 _atom_site_fract_x
 _atom_site_fract_y
 _atom_site_fract_z
 _atom_site_occupancy
  Rb  Rb0  1  0.26703800  0.26703800  0.96830200  1
  Rb  Rb1  1  0.61434400  0.09311900  0.80215300  1
  Rb  Rb2  1  0.09311900  0.61434400  0.80215300  1
  Rb  Rb3  1  0.78685000  0.78685000  0.60233800  1
  Rb  Rb4  1  0.69358100  0.30641900  0.50000000  1
  Rb  Rb5  1  0.30641900  0.69358100  0.50000000  1
  Rb  Rb6  1  0.21315000  0.21315000  0.39766200  1
  Rb  Rb7  1  0.90688100  0.38565600  0.19784700  1
  Rb  Rb8  1  0.38565600  0.90688100  0.19784700  1
  Rb  Rb9  1  0.73296200  0.73296200  0.03169800  1
  Si  Si0  1  0.16975500  0.16975500  0.69529900  1
  Si  Si1  1  0.83024500  0.83024500  0.30470100  1
  H  H0  1  0.78305500  0.21694500  0.00000000  1
  H  H1  1  0.21694500  0.78305500  0.00000000  1
  O  O0  1  0.69466100  0.30533900  0.00000000  1
  O  O1  1  0.30533900  0.69466100  0.00000000  1
  O  O2  1  0.02101800  0.02101800  0.82739200  1
  O  O3  1  0.39026300  0.39026300  0.70045900  1
  O  O4  1  0.25284300  0.00597900  0.62505600  1
  O  O5  1  0.00597900  0.25284300  0.62505600  1
  O  O6  1  0.99402100  0.74715700  0.37494400  1
  O  O7  1  0.74715700  0.99402100  0.37494400  1
  O  O8  1  0.60973700  0.60973700  0.29954100  1
  O  O9  1  0.97898200  0.97898200  0.17260800  1
loop_
_geom_bond_atom_site_label_1
_geom_bond_atom_site_label_2
_geom_bond_distance
_geom_bond_site_symmetry_2
H0 O0 0.974285 1_555
H0 Rb1 2.932536 1_554
H0 Rb7 2.932536 1_555
H0 Rb8 3.059615 1_545
H0 Rb2 3.059615 1_654
H0 Rb0 3.069645 1_654
H0 Rb9 3.069645 1_545
H1 O1 0.974285 1_555
H1 Rb2 2.932536 1_554
H1 Rb8 2.932536 1_555
H1 Rb7 3.059615 1_455
H1 Rb1 3.059615 1_564
H1 Rb0 3.069645 1_564
H1 Rb9 3.069645 1_455
O0 Rb0 2.861857 1_554
O0 Rb9 2.861857 1_555
O0 Rb7 3.011145 1_555
O0 Rb1 3.011145 1_554
O0 Rb2 3.061473 1_654
O0 Rb8 3.061473 1_545
O1 Rb0 2.861857 1_554
O1 Rb9 2.861857 1_555
O1 Rb8 3.011145 1_555
O1 Rb2 3.011145 1_554
O1 Rb7 3.061473 1_455
O1 Rb1 3.061473 1_564
O2 Si0 1.670650 1_555
O2 Rb9 2.781606 1_446
O2 Rb0 2.859630 1_555
O2 Rb1 2.975062 1_455
O2 Rb2 2.975062 1_545
O3 Si0 1.671568 1_555
O3 Rb3 2.863612 1_555
O3 Rb2 3.108647 1_555
O3 Rb1 3.108647 1_555
O3 Rb0 3.122249 1_555
O3 Rb4 3.166356 1_555
O3 Rb5 3.166356 1_555
O4 Si0 1.680510 1_555
O4 Rb2 2.823157 1_545
O4 Rb4 2.859526 1_555
O4 Rb5 2.860794 1_545
O4 Rb6 2.984567 1_555
O4 Rb3 2.987924 1_445
O4 Rb1 3.444612 1_555
O5 Si0 1.680510 1_555
O5 Rb1 2.823157 1_455
O5 Rb5 2.859526 1_555
O5 Rb4 2.860794 1_455
O5 Rb6 2.984567 1_555
O5 Rb3 2.987924 1_445
O5 Rb2 3.444612 1_555
O6 Si1 1.680510 1_555
O6 Rb8 2.823157 1_655
O6 Rb4 2.859526 1_555
O6 Rb5 2.860794 1_655
O6 Rb3 2.984567 1_555
O6 Rb6 2.987924 1_665
O6 Rb7 3.444612 1_555
O7 Si1 1.680510 1_555
O7 Rb7 2.823157 1_565
O7 Rb5 2.859526 1_555
O7 Rb4 2.860794 1_565
O7 Rb3 2.984567 1_555
O7 Rb6 2.987924 1_665
O7 Rb8 3.444612 1_555
O8 Si1 1.671568 1_555
O8 Rb6 2.863612 1_555
O8 Rb8 3.108647 1_555
O8 Rb7 3.108647 1_555
O8 Rb9 3.122249 1_555
O8 Rb5 3.166356 1_555
O8 Rb4 3.166356 1_555
O9 Si1 1.670650 1_555
O9 Rb0 2.781606 1_664
O9 Rb9 2.859630 1_555
O9 Rb7 2.975062 1_565
O9 Rb8 2.975062 1_655
