# generated using pymatgen
data_Dy2ZnRu
_symmetry_space_group_name_H-M   'P 1'
_cell_length_a   4.87807875
_cell_length_b   4.87807874
_cell_length_c   4.87808019
_cell_angle_alpha   60.00001976
_cell_angle_beta   59.99999995
_cell_angle_gamma   59.99996034
_symmetry_Int_Tables_number   1
_chemical_formula_structural   Dy2ZnRu
_chemical_formula_sum   'Dy2 Zn1 Ru1'
_cell_volume   82.07889202
_cell_formula_units_Z   1
loop_
 _symmetry_equiv_pos_site_id
 _symmetry_equiv_pos_as_xyz
  1  'x, y, z'
loop_
 _atom_site_type_symbol
 _atom_site_label
 _atom_site_symmetry_multiplicity
 _atom_site_fract_x
 _atom_site_fract_y
 _atom_site_fract_z
 _atom_site_occupancy
  Dy  Dy0  1  0.49999900  0.49999900  0.49999900  1
  Dy  Dy1  1  0.00000000  0.00000000  0.00000000  1
  Zn  Zn0  1  0.75000000  0.75000000  0.75000000  1
  Ru  Ru0  1  0.25000000  0.25000000  0.25000000  1
loop_
_geom_bond_atom_site_label_1
_geom_bond_atom_site_label_2
_geom_bond_distance
_geom_bond_site_symmetry_2
Dy0 Ru0 2.987189 1_555
Dy0 Zn0 2.987196 1_455
Dy0 Zn0 2.987197 1_545
Dy0 Zn0 2.987199 1_554
Dy0 Ru0 2.987204 1_655
Dy0 Ru0 2.987204 1_565
Dy0 Ru0 2.987207 1_556
Dy0 Zn0 2.987213 1_555
Dy1 Ru0 2.987200 1_455
Dy1 Zn0 2.987200 1_544
Dy1 Zn0 2.987201 1_454
Dy1 Ru0 2.987201 1_545
Dy1 Zn0 2.987201 1_444
Dy1 Ru0 2.987201 1_555
Dy1 Ru0 2.987203 1_554
Dy1 Zn0 2.987203 1_445
