# generated using pymatgen
data_Pm
_symmetry_space_group_name_H-M   'P 1'
_cell_length_a   7.35236204
_cell_length_b   7.35236221
_cell_length_c   23.59822292
_cell_angle_alpha   90.00000000
_cell_angle_beta   90.00000000
_cell_angle_gamma   120.00000875
_symmetry_Int_Tables_number   1
_chemical_formula_structural   Pm
_chemical_formula_sum   Pm32
_cell_volume   1104.74913723
_cell_formula_units_Z   32
loop_
 _symmetry_equiv_pos_site_id
 _symmetry_equiv_pos_as_xyz
  1  'x, y, z'
loop_
 _atom_site_type_symbol
 _atom_site_label
 _atom_site_symmetry_multiplicity
 _atom_site_fract_x
 _atom_site_fract_y
 _atom_site_fract_z
 _atom_site_occupancy
  Pm  Pm0_0  1  0.00000000  0.00000000  0.00000000  1
  Pm  Pm0_1  1  0.00000000  0.00000000  0.50000000  1
  Pm  Pm0_2  1  0.00000000  0.50000000  0.00000000  1
  Pm  Pm0_3  1  0.00000000  0.50000000  0.50000000  1
  Pm  Pm0_4  1  0.50000000  0.00000000  0.00000000  1
  Pm  Pm0_5  1  0.50000000  0.00000000  0.50000000  1
  Pm  Pm0_6  1  0.50000000  0.50000000  0.00000000  1
  Pm  Pm0_7  1  0.50000000  0.50000000  0.50000000  1
  Pm  Pm1_0  1  0.16666700  0.33333350  0.12500000  1
  Pm  Pm1_1  1  0.16666700  0.33333350  0.62500000  1
  Pm  Pm1_2  1  0.16666700  0.83333350  0.12500000  1
  Pm  Pm1_3  1  0.16666700  0.83333350  0.62500000  1
  Pm  Pm1_4  1  0.66666700  0.33333350  0.12500000  1
  Pm  Pm1_5  1  0.66666700  0.33333350  0.62500000  1
  Pm  Pm1_6  1  0.66666700  0.83333350  0.12500000  1
  Pm  Pm1_7  1  0.66666700  0.83333350  0.62500000  1
  Pm  Pm2_0  1  0.00000000  0.00000000  0.25000000  1
  Pm  Pm2_1  1  0.00000000  0.00000000  0.75000000  1
  Pm  Pm2_2  1  0.00000000  0.50000000  0.25000000  1
  Pm  Pm2_3  1  0.00000000  0.50000000  0.75000000  1
  Pm  Pm2_4  1  0.50000000  0.00000000  0.25000000  1
  Pm  Pm2_5  1  0.50000000  0.00000000  0.75000000  1
  Pm  Pm2_6  1  0.50000000  0.50000000  0.25000000  1
  Pm  Pm2_7  1  0.50000000  0.50000000  0.75000000  1
  Pm  Pm3_0  1  0.33333300  0.16666600  0.37500000  1
  Pm  Pm3_1  1  0.33333300  0.16666600  0.87500000  1
  Pm  Pm3_2  1  0.33333300  0.66666600  0.37500000  1
  Pm  Pm3_3  1  0.33333300  0.66666600  0.87500000  1
  Pm  Pm3_4  1  0.83333300  0.16666600  0.37500000  1
  Pm  Pm3_5  1  0.83333300  0.16666600  0.87500000  1
  Pm  Pm3_6  1  0.83333300  0.66666600  0.37500000  1
  Pm  Pm3_7  1  0.83333300  0.66666600  0.87500000  1
loop_
_geom_bond_atom_site_label_1
_geom_bond_atom_site_label_2
_geom_bond_distance
_geom_bond_site_symmetry_2
Pm0_0 Pm1_6 3.633999 1_445
Pm0_0 Pm3_1 3.633999 1_554
Pm0_0 Pm3_5 3.633999 1_454
Pm0_0 Pm1_0 3.634001 1_555
Pm0_0 Pm1_2 3.634001 1_545
Pm0_0 Pm3_7 3.634003 1_444
Pm0_0 Pm0_6 3.676181 1_445
Pm0_0 Pm0_6 3.676181 1_555
Pm0_0 Pm0_4 3.676181 1_555
Pm0_0 Pm0_4 3.676181 1_455
Pm0_0 Pm0_2 3.676181 1_555
Pm0_0 Pm0_2 3.676181 1_545
Pm0_1 Pm1_7 3.633999 1_445
Pm0_1 Pm3_0 3.633999 1_555
Pm0_1 Pm3_4 3.633999 1_455
Pm0_1 Pm1_1 3.634001 1_555
Pm0_1 Pm1_3 3.634001 1_545
Pm0_1 Pm3_6 3.634003 1_445
Pm0_1 Pm0_7 3.676181 1_445
Pm0_1 Pm0_7 3.676181 1_555
Pm0_1 Pm0_5 3.676181 1_555
Pm0_1 Pm0_5 3.676181 1_455
Pm0_1 Pm0_3 3.676181 1_555
Pm0_1 Pm0_3 3.676181 1_545
Pm0_2 Pm1_4 3.633999 1_455
Pm0_2 Pm3_3 3.633999 1_554
Pm0_2 Pm3_7 3.633999 1_454
Pm0_2 Pm1_2 3.634001 1_555
Pm0_2 Pm1_0 3.634001 1_555
Pm0_2 Pm3_5 3.634003 1_454
Pm0_2 Pm0_4 3.676181 1_455
Pm0_2 Pm0_4 3.676181 1_565
Pm0_2 Pm0_6 3.676181 1_455
Pm0_2 Pm0_6 3.676181 1_555
Pm0_3 Pm1_5 3.633999 1_455
Pm0_3 Pm3_2 3.633999 1_555
Pm0_3 Pm3_6 3.633999 1_455
Pm0_3 Pm1_3 3.634001 1_555
Pm0_3 Pm1_1 3.634001 1_555
Pm0_3 Pm3_4 3.634003 1_455
Pm0_3 Pm0_5 3.676181 1_565
Pm0_3 Pm0_5 3.676181 1_455
Pm0_3 Pm0_7 3.676181 1_455
Pm0_3 Pm0_7 3.676181 1_555
Pm0_4 Pm1_2 3.633999 1_545
Pm0_4 Pm3_5 3.633999 1_554
Pm0_4 Pm3_1 3.633999 1_554
Pm0_4 Pm1_4 3.634001 1_555
Pm0_4 Pm1_6 3.634001 1_545
Pm0_4 Pm3_3 3.634003 1_544
Pm0_4 Pm0_6 3.676181 1_555
Pm0_4 Pm0_6 3.676181 1_545
Pm0_5 Pm1_3 3.633999 1_545
Pm0_5 Pm3_4 3.633999 1_555
Pm0_5 Pm3_0 3.633999 1_555
Pm0_5 Pm1_5 3.634001 1_555
Pm0_5 Pm1_7 3.634001 1_545
Pm0_5 Pm3_2 3.634003 1_545
Pm0_5 Pm0_7 3.676181 1_555
Pm0_5 Pm0_7 3.676181 1_545
Pm0_6 Pm1_0 3.633999 1_555
Pm0_6 Pm3_7 3.633999 1_554
Pm0_6 Pm3_3 3.633999 1_554
Pm0_6 Pm1_6 3.634001 1_555
Pm0_6 Pm1_4 3.634001 1_555
Pm0_6 Pm3_1 3.634003 1_554
Pm0_7 Pm1_1 3.633999 1_555
Pm0_7 Pm3_6 3.633999 1_555
Pm0_7 Pm3_2 3.633999 1_555
Pm0_7 Pm1_7 3.634001 1_555
Pm0_7 Pm1_5 3.634001 1_555
Pm0_7 Pm3_0 3.634003 1_555
Pm1_0 Pm2_6 3.633999 1_555
Pm1_0 Pm2_0 3.634001 1_555
Pm1_0 Pm2_2 3.634001 1_555
Pm1_0 Pm1_6 3.676181 1_445
Pm1_0 Pm1_6 3.676181 1_555
Pm1_0 Pm1_4 3.676181 1_455
Pm1_0 Pm1_4 3.676181 1_555
Pm1_0 Pm1_2 3.676181 1_555
Pm1_0 Pm1_2 3.676181 1_545
Pm1_1 Pm2_7 3.633999 1_555
Pm1_1 Pm2_1 3.634001 1_555
Pm1_1 Pm2_3 3.634001 1_555
Pm1_1 Pm1_7 3.676181 1_445
Pm1_1 Pm1_7 3.676181 1_555
Pm1_1 Pm1_5 3.676181 1_455
Pm1_1 Pm1_5 3.676181 1_555
Pm1_1 Pm1_3 3.676181 1_555
Pm1_1 Pm1_3 3.676181 1_545
Pm1_2 Pm2_4 3.633999 1_565
Pm1_2 Pm2_2 3.634001 1_555
Pm1_2 Pm2_0 3.634001 1_565
Pm1_2 Pm1_4 3.676181 1_455
Pm1_2 Pm1_4 3.676181 1_565
Pm1_2 Pm1_6 3.676181 1_455
Pm1_2 Pm1_6 3.676181 1_555
Pm1_3 Pm2_5 3.633999 1_565
Pm1_3 Pm2_3 3.634001 1_555
Pm1_3 Pm2_1 3.634001 1_565
Pm1_3 Pm1_5 3.676181 1_455
Pm1_3 Pm1_5 3.676181 1_565
Pm1_3 Pm1_7 3.676181 1_455
Pm1_3 Pm1_7 3.676181 1_555
Pm1_4 Pm2_2 3.633999 1_655
Pm1_4 Pm2_4 3.634001 1_555
Pm1_4 Pm2_6 3.634001 1_555
Pm1_4 Pm1_6 3.676181 1_555
Pm1_4 Pm1_6 3.676181 1_545
Pm1_5 Pm2_3 3.633999 1_655
Pm1_5 Pm2_5 3.634001 1_555
Pm1_5 Pm2_7 3.634001 1_555
Pm1_5 Pm1_7 3.676181 1_555
Pm1_5 Pm1_7 3.676181 1_545
Pm1_6 Pm2_0 3.633999 1_665
Pm1_6 Pm2_6 3.634001 1_555
Pm1_6 Pm2_4 3.634001 1_565
Pm1_7 Pm2_1 3.633999 1_665
Pm1_7 Pm2_7 3.634001 1_555
Pm1_7 Pm2_5 3.634001 1_565
Pm2_0 Pm3_0 3.633999 1_555
Pm2_0 Pm3_4 3.633999 1_455
Pm2_0 Pm3_6 3.634003 1_445
Pm2_0 Pm2_6 3.676181 1_445
Pm2_0 Pm2_6 3.676181 1_555
Pm2_0 Pm2_4 3.676181 1_555
Pm2_0 Pm2_4 3.676181 1_455
Pm2_0 Pm2_2 3.676181 1_545
Pm2_0 Pm2_2 3.676181 1_555
Pm2_1 Pm3_1 3.633999 1_555
Pm2_1 Pm3_5 3.633999 1_455
Pm2_1 Pm3_7 3.634003 1_445
Pm2_1 Pm2_7 3.676181 1_445
Pm2_1 Pm2_7 3.676181 1_555
Pm2_1 Pm2_5 3.676181 1_555
Pm2_1 Pm2_5 3.676181 1_455
Pm2_1 Pm2_3 3.676181 1_545
Pm2_1 Pm2_3 3.676181 1_555
Pm2_2 Pm3_2 3.633999 1_555
Pm2_2 Pm3_6 3.633999 1_455
Pm2_2 Pm3_4 3.634003 1_455
Pm2_2 Pm2_4 3.676181 1_455
Pm2_2 Pm2_4 3.676181 1_565
Pm2_2 Pm2_6 3.676181 1_455
Pm2_2 Pm2_6 3.676181 1_555
Pm2_3 Pm3_3 3.633999 1_555
Pm2_3 Pm3_7 3.633999 1_455
Pm2_3 Pm3_5 3.634003 1_455
Pm2_3 Pm2_5 3.676181 1_565
Pm2_3 Pm2_5 3.676181 1_455
Pm2_3 Pm2_7 3.676181 1_455
Pm2_3 Pm2_7 3.676181 1_555
Pm2_4 Pm3_4 3.633999 1_555
Pm2_4 Pm3_0 3.633999 1_555
Pm2_4 Pm3_2 3.634003 1_545
Pm2_4 Pm2_6 3.676181 1_555
Pm2_4 Pm2_6 3.676181 1_545
Pm2_5 Pm3_5 3.633999 1_555
Pm2_5 Pm3_1 3.633999 1_555
Pm2_5 Pm3_3 3.634003 1_545
Pm2_5 Pm2_7 3.676181 1_555
Pm2_5 Pm2_7 3.676181 1_545
Pm2_6 Pm3_6 3.633999 1_555
Pm2_6 Pm3_2 3.633999 1_555
Pm2_6 Pm3_0 3.634003 1_555
Pm2_7 Pm3_7 3.633999 1_555
Pm2_7 Pm3_3 3.633999 1_555
Pm2_7 Pm3_1 3.634003 1_555
Pm3_0 Pm3_6 3.676181 1_445
Pm3_0 Pm3_6 3.676181 1_555
Pm3_0 Pm3_4 3.676181 1_455
Pm3_0 Pm3_4 3.676181 1_555
Pm3_0 Pm3_2 3.676181 1_545
Pm3_0 Pm3_2 3.676181 1_555
Pm3_1 Pm3_7 3.676181 1_555
Pm3_1 Pm3_7 3.676181 1_445
Pm3_1 Pm3_5 3.676181 1_555
Pm3_1 Pm3_5 3.676181 1_455
Pm3_1 Pm3_3 3.676181 1_545
Pm3_1 Pm3_3 3.676181 1_555
Pm3_2 Pm3_4 3.676181 1_455
Pm3_2 Pm3_4 3.676181 1_565
Pm3_2 Pm3_6 3.676181 1_455
Pm3_2 Pm3_6 3.676181 1_555
Pm3_3 Pm3_5 3.676181 1_455
Pm3_3 Pm3_5 3.676181 1_565
Pm3_3 Pm3_7 3.676181 1_455
Pm3_3 Pm3_7 3.676181 1_555
Pm3_4 Pm3_6 3.676181 1_555
Pm3_4 Pm3_6 3.676181 1_545
Pm3_5 Pm3_7 3.676181 1_555
Pm3_5 Pm3_7 3.676181 1_545
