# generated using pymatgen
data_BaGa12O19
_symmetry_space_group_name_H-M   'P 1'
_cell_length_a   5.88939502
_cell_length_b   5.88939502
_cell_length_c   23.29760500
_cell_angle_alpha   90.00000000
_cell_angle_beta   90.00000000
_cell_angle_gamma   120.00001151
_symmetry_Int_Tables_number   1
_chemical_formula_structural   BaGa12O19
_chemical_formula_sum   'Ba2 Ga24 O38'
_cell_volume   699.81497143
_cell_formula_units_Z   2
loop_
 _symmetry_equiv_pos_site_id
 _symmetry_equiv_pos_as_xyz
  1  'x, y, z'
loop_
 _atom_site_type_symbol
 _atom_site_label
 _atom_site_symmetry_multiplicity
 _atom_site_fract_x
 _atom_site_fract_y
 _atom_site_fract_z
 _atom_site_occupancy
  Ba  Ba0  1  0.33333300  0.66666700  0.74918700  1
  Ba  Ba1  1  0.66666700  0.33333300  0.24918700  1
  Ga  Ga0  1  0.16906500  0.83093500  0.89191600  1
  Ga  Ga1  1  0.16743600  0.83256400  0.60892400  1
  Ga  Ga2  1  0.33333300  0.66666700  0.31054000  1
  Ga  Ga3  1  0.16743600  0.33487300  0.60892400  1
  Ga  Ga4  1  0.33333300  0.66666700  0.47288200  1
  Ga  Ga5  1  0.16906500  0.33813000  0.89191600  1
  Ga  Ga6  1  0.00000000  0.00000000  0.00033500  1
  Ga  Ga7  1  0.00000000  0.00000000  0.50033500  1
  Ga  Ga8  1  0.33333300  0.66666700  0.02756800  1
  Ga  Ga9  1  0.00000000  0.00000000  0.25895000  1
  Ga  Ga10  1  0.33333300  0.66666700  0.18879600  1
  Ga  Ga11  1  0.00000000  0.00000000  0.75895000  1
  Ga  Ga12  1  0.66512700  0.83256400  0.60892400  1
  Ga  Ga13  1  0.66187000  0.83093500  0.89191600  1
  Ga  Ga14  1  0.33487300  0.16743600  0.10892400  1
  Ga  Ga15  1  0.33813000  0.16906500  0.39191600  1
  Ga  Ga16  1  0.66666700  0.33333300  0.81054000  1
  Ga  Ga17  1  0.66666700  0.33333300  0.97288200  1
  Ga  Ga18  1  0.66666700  0.33333300  0.68879600  1
  Ga  Ga19  1  0.66666700  0.33333300  0.52756800  1
  Ga  Ga20  1  0.83256400  0.66512700  0.10892400  1
  Ga  Ga21  1  0.83093500  0.66187000  0.39191600  1
  Ga  Ga22  1  0.83256400  0.16743600  0.10892400  1
  Ga  Ga23  1  0.83093500  0.16906500  0.39191600  1
  O  O0  1  0.15559900  0.84440100  0.05172500  1
  O  O1  1  0.15484000  0.84516000  0.44754000  1
  O  O2  1  0.00617000  0.50308500  0.64860800  1
  O  O3  1  0.00686200  0.50343100  0.85160600  1
  O  O4  1  0.18210800  0.81789200  0.25078100  1
  O  O5  1  0.33333300  0.66666700  0.55482700  1
  O  O6  1  0.00000000  0.00000000  0.85032100  1
  O  O7  1  0.15559900  0.31119800  0.05172500  1
  O  O8  1  0.00000000  0.00000000  0.14764000  1
  O  O9  1  0.00000000  0.00000000  0.35032100  1
  O  O10  1  0.15484000  0.30967900  0.44754000  1
  O  O11  1  0.00000000  0.00000000  0.64764000  1
  O  O12  1  0.33333300  0.66666700  0.94522200  1
  O  O13  1  0.18210800  0.36421500  0.25078100  1
  O  O14  1  0.49691500  0.99383000  0.64860800  1
  O  O15  1  0.49656900  0.99313800  0.85160600  1
  O  O16  1  0.63578500  0.81789200  0.25078100  1
  O  O17  1  0.31119800  0.15559900  0.55172500  1
  O  O18  1  0.30967900  0.15484000  0.94754000  1
  O  O19  1  0.49691500  0.50308500  0.64860800  1
  O  O20  1  0.49656900  0.50343100  0.85160600  1
  O  O21  1  0.50308500  0.49691500  0.14860800  1
  O  O22  1  0.50343100  0.49656900  0.35160600  1
  O  O23  1  0.68880200  0.84440100  0.05172500  1
  O  O24  1  0.69032100  0.84516000  0.44754000  1
  O  O25  1  0.36421500  0.18210800  0.75078100  1
  O  O26  1  0.50308500  0.00617000  0.14860800  1
  O  O27  1  0.66666700  0.33333300  0.44522200  1
  O  O28  1  0.84440100  0.68880200  0.55172500  1
  O  O29  1  0.66666700  0.33333300  0.05482700  1
  O  O30  1  0.84516000  0.69032100  0.94754000  1
  O  O31  1  0.81789200  0.63578500  0.75078100  1
  O  O32  1  0.50343100  0.00686200  0.35160600  1
  O  O33  1  0.81789200  0.18210800  0.75078100  1
  O  O34  1  0.99383000  0.49691500  0.14860800  1
  O  O35  1  0.99313800  0.49656900  0.35160600  1
  O  O36  1  0.84440100  0.15559900  0.55172500  1
  O  O37  1  0.84516000  0.15484000  0.94754000  1
loop_
_geom_bond_atom_site_label_1
_geom_bond_atom_site_label_2
_geom_bond_distance
_geom_bond_site_symmetry_2
Ba0 O14 2.876667 1_555
Ba0 O2 2.876667 1_555
Ba0 O19 2.876670 1_555
Ba0 O15 2.909671 1_555
Ba0 O3 2.909671 1_555
Ba0 O20 2.909674 1_555
Ba0 O33 2.949140 1_565
Ba0 O33 2.949140 1_455
Ba0 O25 2.949141 1_565
Ba0 O31 2.949141 1_455
Ba0 O25 2.949141 1_555
Ba0 O31 2.949141 1_555
Ba1 O34 2.876667 1_555
Ba1 O26 2.876667 1_555
Ba1 O21 2.876670 1_555
Ba1 O32 2.909671 1_555
Ba1 O35 2.909671 1_555
Ba1 O22 2.909674 1_555
Ba1 O4 2.949140 1_655
Ba1 O4 2.949140 1_545
Ba1 O13 2.949141 1_655
Ba1 O16 2.949141 1_545
Ba1 O16 2.949141 1_555
Ba1 O13 2.949141 1_555
Ga0 O3 1.916310 1_555
Ga0 O15 1.916310 1_555
Ga0 O6 1.978202 1_565
Ga0 O12 2.085698 1_555
Ga0 O30 2.103421 1_455
Ga0 O18 2.103421 1_565
Ga1 O14 1.918112 1_555
Ga1 O2 1.918112 1_555
Ga1 O11 1.931514 1_565
Ga1 O5 2.110027 1_555
Ga1 O28 2.121634 1_455
Ga1 O17 2.121634 1_565
Ga2 O32 1.981410 1_565
Ga2 O35 1.981410 1_455
Ga2 O22 1.981415 1_555
Ga2 O4 2.077972 1_555
Ga2 O16 2.077980 1_555
Ga2 O13 2.077980 1_555
Ga3 O2 1.918108 1_555
Ga3 O19 1.918112 1_555
Ga3 O11 1.931518 1_555
Ga3 O5 2.110027 1_555
Ga3 O36 2.121634 1_455
Ga3 O17 2.121638 1_555
Ga4 O5 1.909122 1_555
Ga4 O1 1.914091 1_555
Ga4 O24 1.914101 1_555
Ga4 O10 1.914101 1_555
Ga5 O20 1.916310 1_555
Ga5 O3 1.916310 1_555
Ga5 O6 1.978202 1_555
Ga5 O12 2.085702 1_555
Ga5 O18 2.103417 1_555
Ga5 O37 2.103421 1_455
Ga6 O23 1.988145 1_445
Ga6 O7 1.988145 1_555
Ga6 O0 1.988145 1_545
Ga6 O18 2.001908 1_554
Ga6 O30 2.001908 1_444
Ga6 O37 2.001913 1_454
Ga7 O28 1.988145 1_445
Ga7 O17 1.988145 1_555
Ga7 O36 1.988145 1_455
Ga7 O24 2.001908 1_445
Ga7 O10 2.001908 1_555
Ga7 O1 2.001913 1_545
Ga8 O0 1.898361 1_555
Ga8 O23 1.898366 1_555
Ga8 O7 1.898366 1_555
Ga8 O12 1.918465 1_554
Ga9 O16 1.867353 1_445
Ga9 O13 1.867353 1_555
Ga9 O4 1.867359 1_545
Ga9 O9 2.128725 1_555
Ga10 O34 1.968509 1_455
Ga10 O26 1.968509 1_565
Ga10 O21 1.968514 1_555
Ga10 O4 2.113070 1_555
Ga10 O13 2.113077 1_555
Ga10 O16 2.113077 1_555
Ga11 O25 1.867353 1_555
Ga11 O31 1.867353 1_445
Ga11 O33 1.867359 1_455
Ga11 O6 2.128725 1_555
Ga12 O14 1.918108 1_555
Ga12 O19 1.918112 1_555
Ga12 O11 1.931518 1_665
Ga12 O5 2.110027 1_555
Ga12 O36 2.121634 1_565
Ga12 O28 2.121638 1_555
Ga13 O20 1.916310 1_555
Ga13 O15 1.916310 1_555
Ga13 O6 1.978202 1_665
Ga13 O12 2.085702 1_555
Ga13 O30 2.103417 1_555
Ga13 O37 2.103421 1_565
Ga14 O26 1.918108 1_555
Ga14 O21 1.918112 1_555
Ga14 O8 1.931518 1_555
Ga14 O29 2.110027 1_555
Ga14 O0 2.121634 1_545
Ga14 O7 2.121638 1_555
Ga15 O22 1.916310 1_555
Ga15 O32 1.916310 1_555
Ga15 O9 1.978202 1_555
Ga15 O27 2.085702 1_555
Ga15 O10 2.103417 1_555
Ga15 O1 2.103421 1_545
Ga16 O3 1.981410 1_655
Ga16 O15 1.981410 1_545
Ga16 O20 1.981415 1_555
Ga16 O33 2.077972 1_555
Ga16 O31 2.077980 1_555
Ga16 O25 2.077980 1_555
Ga17 O29 1.909122 1_556
Ga17 O37 1.914091 1_555
Ga17 O30 1.914101 1_555
Ga17 O18 1.914101 1_555
Ga18 O2 1.968509 1_655
Ga18 O14 1.968509 1_545
Ga18 O19 1.968514 1_555
Ga18 O33 2.113070 1_555
Ga18 O31 2.113077 1_555
Ga18 O25 2.113077 1_555
Ga19 O36 1.898361 1_555
Ga19 O17 1.898366 1_555
Ga19 O28 1.898366 1_555
Ga19 O27 1.918465 1_555
Ga20 O34 1.918108 1_555
Ga20 O21 1.918112 1_555
Ga20 O8 1.931518 1_665
Ga20 O29 2.110027 1_555
Ga20 O0 2.121634 1_655
Ga20 O23 2.121638 1_555
Ga21 O22 1.916310 1_555
Ga21 O35 1.916310 1_555
Ga21 O9 1.978202 1_665
Ga21 O27 2.085702 1_555
Ga21 O24 2.103417 1_555
Ga21 O1 2.103421 1_655
Ga22 O26 1.918112 1_555
Ga22 O34 1.918112 1_555
Ga22 O8 1.931514 1_655
Ga22 O29 2.110027 1_555
Ga22 O7 2.121634 1_655
Ga22 O23 2.121634 1_545
Ga23 O35 1.916310 1_555
Ga23 O32 1.916310 1_555
Ga23 O9 1.978202 1_655
Ga23 O27 2.085698 1_555
Ga23 O24 2.103421 1_545
Ga23 O10 2.103421 1_655
