# generated using pymatgen
data_Li5Mn(Ni2O5)2
_symmetry_space_group_name_H-M   'P 1'
_cell_length_a   2.90774700
_cell_length_b   6.51884774
_cell_length_c   9.73264126
_cell_angle_alpha   101.36937877
_cell_angle_beta   88.49091237
_cell_angle_gamma   102.61078441
_symmetry_Int_Tables_number   1
_chemical_formula_structural   Li5Mn(Ni2O5)2
_chemical_formula_sum   'Li5 Mn1 Ni4 O10'
_cell_volume   176.47347190
_cell_formula_units_Z   1
loop_
 _symmetry_equiv_pos_site_id
 _symmetry_equiv_pos_as_xyz
  1  'x, y, z'
loop_
 _atom_site_type_symbol
 _atom_site_label
 _atom_site_symmetry_multiplicity
 _atom_site_fract_x
 _atom_site_fract_y
 _atom_site_fract_z
 _atom_site_occupancy
  Li  Li0  1  0.70149400  0.40693100  0.60272700  1
  Li  Li1  1  0.50000000  0.00000000  0.00000000  1
  Li  Li2  1  0.29850600  0.59306900  0.39727300  1
  Li  Li3  1  0.10158200  0.20509400  0.80664900  1
  Li  Li4  1  0.89841800  0.79490600  0.19335100  1
  Mn  Mn0  1  0.00000000  0.00000000  0.50000000  1
  Ni  Ni0  1  0.39269700  0.79504800  0.70282400  1
  Ni  Ni1  1  0.60730300  0.20495200  0.29717600  1
  Ni  Ni2  1  0.78741200  0.59633600  0.90046900  1
  Ni  Ni3  1  0.21258800  0.40366400  0.09953100  1
  O  O0  1  0.53272900  0.08914500  0.63365500  1
  O  O1  1  0.35976300  0.67915700  0.04345200  1
  O  O2  1  0.64023700  0.32084300  0.95654800  1
  O  O3  1  0.78673500  0.49589200  0.23936300  1
  O  O4  1  0.46727100  0.91085500  0.36634500  1
  O  O5  1  0.86338200  0.72224000  0.55243400  1
  O  O6  1  0.92538100  0.87622700  0.84780100  1
  O  O7  1  0.13661800  0.27776000  0.44756600  1
  O  O8  1  0.21326500  0.50410800  0.76063700  1
  O  O9  1  0.07461900  0.12377300  0.15219900  1
loop_
_geom_bond_atom_site_label_1
_geom_bond_atom_site_label_2
_geom_bond_distance
_geom_bond_site_symmetry_2
Li0 O8 2.074302 1_655
Li0 O0 2.101694 1_555
Li0 O7 2.110344 1_655
Li0 O5 2.155948 1_555
Li0 O8 2.161624 1_555
Li0 O7 2.170888 1_555
Li1 O9 2.059912 1_555
Li1 O6 2.059912 1_544
Li1 O2 2.164914 1_554
Li1 O1 2.164914 1_545
Li1 O6 2.169668 1_444
Li1 O9 2.169668 1_655
Li2 O3 2.074302 1_455
Li2 O4 2.101694 1_555
Li2 O5 2.110344 1_455
Li2 O7 2.155948 1_555
Li2 O3 2.161624 1_555
Li2 O5 2.170888 1_555
Li3 O8 2.040975 1_555
Li3 O2 2.078766 1_555
Li3 O2 2.098145 1_455
Li3 O0 2.186010 1_555
Li3 O6 2.206139 1_445
Li3 O0 2.289348 1_455
Li4 O3 2.040975 1_555
Li4 O1 2.078766 1_555
Li4 O1 2.098145 1_655
Li4 O4 2.186010 1_555
Li4 O9 2.206139 1_665
Li4 O4 2.289348 1_655
Mn0 O5 1.932960 1_445
Mn0 O7 1.932960 1_555
Mn0 O0 1.956923 1_455
Mn0 O4 1.956923 1_545
Mn0 O0 1.960709 1_555
Mn0 O4 1.960709 1_445
Ni0 O6 2.008989 1_455
Ni0 O6 2.032958 1_555
Ni0 O5 2.035940 1_555
Ni0 O8 2.039383 1_555
Ni0 O5 2.064538 1_455
Ni0 O0 2.109051 1_565
Ni1 O9 2.008989 1_655
Ni1 O9 2.032958 1_555
Ni1 O7 2.035940 1_555
Ni1 O3 2.039383 1_555
Ni1 O7 2.064538 1_655
Ni1 O4 2.109051 1_545
Ni2 O8 1.913282 1_655
Ni2 O1 1.918362 1_556
Ni2 O2 1.935160 1_555
Ni2 O6 1.947059 1_555
Ni2 O8 2.087953 1_555
Ni2 O1 2.105041 1_656
Ni3 O3 1.913282 1_455
Ni3 O2 1.918362 1_554
Ni3 O1 1.935160 1_555
Ni3 O9 1.947059 1_555
Ni3 O3 2.087953 1_555
Ni3 O2 2.105041 1_454
