# generated using pymatgen
data_La3Te4
_symmetry_space_group_name_H-M   'P 1'
_cell_length_a   8.40537671
_cell_length_b   8.40537623
_cell_length_c   8.40537677
_cell_angle_alpha   109.47122197
_cell_angle_beta   109.47122081
_cell_angle_gamma   109.47122519
_symmetry_Int_Tables_number   1
_chemical_formula_structural   La3Te4
_chemical_formula_sum   'La6 Te8'
_cell_volume   457.14039768
_cell_formula_units_Z   2
loop_
 _symmetry_equiv_pos_site_id
 _symmetry_equiv_pos_as_xyz
  1  'x, y, z'
loop_
 _atom_site_type_symbol
 _atom_site_label
 _atom_site_symmetry_multiplicity
 _atom_site_fract_x
 _atom_site_fract_y
 _atom_site_fract_z
 _atom_site_occupancy
  La  La0  1  0.75000000  0.87500000  0.12500000  1
  La  La1  1  0.62500000  0.37500000  0.25000000  1
  La  La2  1  0.87500000  0.12500000  0.75000000  1
  La  La3  1  0.12500000  0.75000000  0.87500000  1
  La  La4  1  0.37500000  0.25000000  0.62500000  1
  La  La5  1  0.25000000  0.62500000  0.37500000  1
  Te  Te0  1  0.65001932  0.65001932  0.65001932  1
  Te  Te1  1  0.34998068  0.50000000  -0.00000000  1
  Te  Te2  1  0.50000000  0.00000000  0.34998068  1
  Te  Te3  1  -0.00000000  0.34998068  0.50000000  1
  Te  Te4  1  0.50000000  0.00000000  0.84998068  1
  Te  Te5  1  -0.00000000  0.84998068  0.50000000  1
  Te  Te6  1  0.15001932  0.15001932  0.15001932  1
  Te  Te7  1  0.84998068  0.50000000  -0.00000000  1
loop_
_geom_bond_atom_site_label_1
_geom_bond_atom_site_label_2
_geom_bond_distance
_geom_bond_site_symmetry_2
La0 Te1 3.273521 1_555
La0 Te6 3.273521 1_665
La0 Te5 3.273521 1_655
La0 Te4 3.273521 1_564
La0 Te3 3.448489 1_665
La0 Te7 3.448490 1_555
La0 Te0 3.448490 1_554
La0 Te2 3.448490 1_565
La1 Te4 3.273521 1_554
La1 Te0 3.273521 1_555
La1 Te3 3.273521 1_655
La1 Te1 3.273521 1_555
La1 Te5 3.448489 1_655
La1 Te2 3.448490 1_555
La1 Te6 3.448490 1_555
La1 Te7 3.448490 1_555
La2 Te7 3.273521 1_556
La2 Te2 3.273521 1_555
La2 Te5 3.273521 1_645
La2 Te6 3.273521 1_656
La2 Te0 3.448489 1_545
La2 Te1 3.448489 1_656
La2 Te3 3.448490 1_655
La2 Te4 3.448490 1_555
La3 Te3 3.273521 1_555
La3 Te6 3.273521 1_566
La3 Te4 3.273521 1_565
La3 Te7 3.273521 1_456
La3 Te2 3.448490 1_566
La3 Te0 3.448490 1_455
La3 Te1 3.448490 1_556
La3 Te5 3.448490 1_555
La4 Te5 3.273521 1_545
La4 Te0 3.273521 1_555
La4 Te1 3.273521 1_556
La4 Te2 3.273521 1_555
La4 Te7 3.448490 1_556
La4 Te4 3.448490 1_555
La4 Te6 3.448490 1_555
La4 Te3 3.448490 1_555
La5 Te2 3.273521 1_565
La5 Te3 3.273521 1_555
La5 Te7 3.273521 1_455
La5 Te0 3.273521 1_555
La5 Te6 3.448490 1_555
La5 Te4 3.448490 1_565
La5 Te5 3.448490 1_555
La5 Te1 3.448490 1_555
