# generated using pymatgen
data_Cs2SnAs2
_symmetry_space_group_name_H-M   'P 1'
_cell_length_a   6.98560874
_cell_length_b   7.80642877
_cell_length_c   9.10733475
_cell_angle_alpha   115.37741887
_cell_angle_beta   112.55160950
_cell_angle_gamma   90.00001230
_symmetry_Int_Tables_number   1
_chemical_formula_structural   Cs2SnAs2
_chemical_formula_sum   'Cs4 Sn2 As4'
_cell_volume   406.29131282
_cell_formula_units_Z   2
loop_
 _symmetry_equiv_pos_site_id
 _symmetry_equiv_pos_as_xyz
  1  'x, y, z'
loop_
 _atom_site_type_symbol
 _atom_site_label
 _atom_site_symmetry_multiplicity
 _atom_site_fract_x
 _atom_site_fract_y
 _atom_site_fract_z
 _atom_site_occupancy
  Cs  Cs0  1  0.14693961  0.98389465  0.29388023  1
  Cs  Cs1  1  0.85306039  0.01610535  0.70611977  1
  Cs  Cs2  1  0.35306039  0.69001542  0.70611977  1
  Cs  Cs3  1  0.64693961  0.30998458  0.29388023  1
  Sn  Sn0  1  0.25000000  0.50000000  -0.00000000  1
  Sn  Sn1  1  0.75000000  0.50000000  -0.00000000  1
  As  As0  1  0.40261362  0.22818235  0.80522824  1
  As  As1  1  0.59738638  0.77181765  0.19477176  1
  As  As2  1  0.09738638  0.42295410  0.19477176  1
  As  As3  1  0.90261362  0.57704590  0.80522824  1
loop_
_geom_bond_atom_site_label_1
_geom_bond_atom_site_label_2
_geom_bond_distance
_geom_bond_site_symmetry_2
Cs0 Sn1 3.842268 1_455
Cs0 Sn0 3.842271 1_555
Cs1 Sn0 3.842268 1_656
Cs1 Sn1 3.842271 1_556
Cs2 Sn1 3.842273 1_556
Cs2 Sn0 3.842276 1_556
Cs3 Sn0 3.842273 1_555
Cs3 Sn1 3.842276 1_555
As0 Sn0 2.647620 1_556
As0 Sn1 2.647624 1_556
As0 Cs1 3.788736 1_455
As0 Cs1 3.788750 1_555
As0 Cs0 3.810795 1_545
As0 Cs3 3.855400 1_556
As0 Cs2 3.885135 1_545
As0 Cs2 4.059823 1_555
As1 Sn1 2.647620 1_555
As1 Sn0 2.647624 1_555
As1 Cs0 3.788736 1_655
As1 Cs0 3.788750 1_555
As1 Cs1 3.810795 1_565
As1 Cs2 3.855400 1_554
As1 Cs3 3.885135 1_565
As1 Cs3 4.059823 1_555
As2 Sn0 2.647619 1_555
As2 Sn1 2.647624 1_455
As2 Cs3 3.788739 1_555
As2 Cs3 3.788752 1_455
As2 Cs2 3.810795 1_555
As2 Cs1 3.855397 1_454
As2 Cs0 3.885142 1_545
As2 Cs0 4.059816 1_555
As3 Sn1 2.647619 1_556
As3 Sn0 2.647624 1_656
As3 Cs2 3.788739 1_555
As3 Cs2 3.788752 1_655
As3 Cs3 3.810795 1_555
As3 Cs0 3.855397 1_656
As3 Cs1 3.885142 1_565
As3 Cs1 4.059816 1_555
