# generated using pymatgen
data_Fe4O3F5
_symmetry_space_group_name_H-M   'P 1'
_cell_length_a   10.07937357
_cell_length_b   10.07937357
_cell_length_c   4.80012502
_cell_angle_alpha   86.09769322
_cell_angle_beta   86.09769322
_cell_angle_gamma   35.73693416
_symmetry_Int_Tables_number   1
_chemical_formula_structural   Fe4O3F5
_chemical_formula_sum   'Fe8 O6 F10'
_cell_volume   284.09749092
_cell_formula_units_Z   2
loop_
 _symmetry_equiv_pos_site_id
 _symmetry_equiv_pos_as_xyz
  1  'x, y, z'
loop_
 _atom_site_type_symbol
 _atom_site_label
 _atom_site_symmetry_multiplicity
 _atom_site_fract_x
 _atom_site_fract_y
 _atom_site_fract_z
 _atom_site_occupancy
  Fe  Fe0  1  0.88010500  0.36435700  0.51122100  1
  Fe  Fe1  1  0.60841700  0.13578400  0.51053400  1
  Fe  Fe2  1  0.13578400  0.60841700  0.51053400  1
  Fe  Fe3  1  0.36435700  0.88010500  0.51122100  1
  Fe  Fe4  1  0.49988800  0.49988800  0.99945400  1
  Fe  Fe5  1  0.24726300  0.24726300  0.00889800  1
  Fe  Fe6  1  0.00255600  0.00255600  0.98960600  1
  Fe  Fe7  1  0.75669600  0.75669600  0.97599800  1
  O  O0  1  0.57640600  0.57640600  0.69829300  1
  O  O1  1  0.83180300  0.83180300  0.67479500  1
  O  O2  1  0.07603900  0.07603900  0.68865700  1
  O  O3  1  0.32229000  0.32229000  0.70857300  1
  O  O4  1  0.42426300  0.42426300  0.30158500  1
  O  O5  1  0.17385300  0.17385300  0.30052900  1
  F  F0  1  0.95594100  0.44199700  0.80161300  1
  F  F1  1  0.44199700  0.95594100  0.80161300  1
  F  F2  1  0.68722400  0.21163900  0.80008700  1
  F  F3  1  0.21163900  0.68722400  0.80008700  1
  F  F4  1  0.92599900  0.92599900  0.29591500  1
  F  F5  1  0.67642800  0.67642800  0.30005200  1
  F  F6  1  0.53940600  0.05891400  0.20438300  1
  F  F7  1  0.31420800  0.78695300  0.20103800  1
  F  F8  1  0.05891400  0.53940600  0.20438300  1
  F  F9  1  0.78695300  0.31420800  0.20103800  1
loop_
_geom_bond_atom_site_label_1
_geom_bond_atom_site_label_2
_geom_bond_distance
_geom_bond_site_symmetry_2
Fe0 O2 1.909408 1_655
Fe0 O0 2.002655 1_555
Fe0 O5 2.025701 1_655
Fe1 O1 1.947404 1_545
Fe1 O3 1.955415 1_555
Fe1 O4 2.000154 1_555
Fe2 O1 1.947404 1_455
Fe2 O3 1.955415 1_555
Fe2 O4 2.000154 1_555
Fe3 O2 1.909408 1_565
Fe3 O0 2.002655 1_555
Fe3 O5 2.025701 1_565
Fe4 O4 1.976777 1_556
Fe4 O0 1.985347 1_555
Fe5 O5 1.913490 1_555
Fe5 O3 1.963054 1_554
Fe6 O2 1.945076 1_555
Fe7 O1 1.966974 1_555
F0 Fe5 2.059146 1_656
F0 Fe0 2.098635 1_555
F0 Fe7 2.141585 1_555
F1 Fe5 2.059146 1_566
F1 Fe3 2.098635 1_555
F1 Fe7 2.141585 1_555
F2 Fe4 2.036869 1_555
F2 Fe1 2.104319 1_555
F2 Fe6 2.151623 1_655
F3 Fe4 2.036869 1_555
F3 Fe2 2.104319 1_555
F3 Fe6 2.151623 1_565
F4 Fe6 2.002626 1_664
F4 Fe2 2.153704 1_655
F4 Fe1 2.153704 1_565
F5 Fe7 2.109206 1_554
F5 Fe0 2.121831 1_555
F5 Fe3 2.121831 1_555
F6 Fe5 2.052753 1_555
F6 Fe1 2.100670 1_555
F6 Fe7 2.138864 1_544
F7 Fe4 2.038245 1_554
F7 Fe3 2.101692 1_555
F7 Fe6 2.161417 1_564
F8 Fe5 2.052753 1_555
F8 Fe2 2.100670 1_555
F8 Fe7 2.138864 1_454
F9 Fe4 2.038245 1_554
F9 Fe0 2.101692 1_555
F9 Fe6 2.161417 1_654
