# generated using pymatgen
data_Li4TiV3O8
_symmetry_space_group_name_H-M   'P 1'
_cell_length_a   5.96509200
_cell_length_b   5.96665937
_cell_length_c   5.99890620
_cell_angle_alpha   119.75611724
_cell_angle_beta   90.41650532
_cell_angle_gamma   119.53017264
_symmetry_Int_Tables_number   1
_chemical_formula_structural   Li4TiV3O8
_chemical_formula_sum   'Li4 Ti1 V3 O8'
_cell_volume   152.04859577
_cell_formula_units_Z   1
loop_
 _symmetry_equiv_pos_site_id
 _symmetry_equiv_pos_as_xyz
  1  'x, y, z'
loop_
 _atom_site_type_symbol
 _atom_site_label
 _atom_site_symmetry_multiplicity
 _atom_site_fract_x
 _atom_site_fract_y
 _atom_site_fract_z
 _atom_site_occupancy
  Li  Li0  1  0.49715500  0.49217600  0.50098000  1
  Li  Li1  1  0.00280900  0.99256600  0.49786600  1
  Li  Li2  1  0.99630000  0.48907600  0.50234400  1
  Li  Li3  1  0.50085300  0.99379200  0.50037300  1
  Ti  Ti0  1  0.99907300  0.99475200  0.00054900  1
  V  V0  1  0.00025100  0.49547600  0.00041400  1
  V  V1  1  0.49847700  0.99481300  0.00062500  1
  V  V2  1  0.49975400  0.49550800  0.99996200  1
  O  O0  1  0.29462900  0.53455400  0.23034800  1
  O  O1  1  0.76822400  0.00781100  0.23121100  1
  O  O2  1  0.77051100  0.52514100  0.23306800  1
  O  O3  1  0.70753800  0.97386300  0.77172600  1
  O  O4  1  0.29054700  0.01582900  0.22978600  1
  O  O5  1  0.22874000  0.46519800  0.76729300  1
  O  O6  1  0.22785000  0.97953200  0.77125900  1
  O  O7  1  0.70341400  0.45523500  0.77050800  1
loop_
_geom_bond_atom_site_label_1
_geom_bond_atom_site_label_2
_geom_bond_distance
_geom_bond_site_symmetry_2
Li0 O4 2.042507 1_555
Li0 O3 2.062635 1_555
Li0 O7 2.183756 1_555
Li0 O0 2.199826 1_555
Li0 O5 2.275999 1_555
Li0 O2 2.305705 1_555
Li1 O2 1.995646 1_455
Li1 O5 2.019604 1_565
Li1 O6 2.166878 1_555
Li1 O1 2.182333 1_465
Li1 O4 2.361855 1_565
Li1 O3 2.417433 1_455
Li2 O1 2.054957 1_555
Li2 O6 2.090712 1_655
Li2 O5 2.203729 1_655
Li2 O2 2.251403 1_555
Li2 O7 2.386740 1_555
Li2 O0 2.430748 1_655
Li3 O0 1.971769 1_555
Li3 O7 1.982398 1_565
Li3 O3 2.119303 1_555
Li3 O4 2.137934 1_565
Li3 O1 2.279882 1_565
Li3 O6 2.310635 1_555
O0 V2 1.856753 1_554
O0 V0 2.069401 1_555
O0 Ti0 2.311310 1_445
O1 Ti0 1.960466 1_545
O1 V1 2.060744 1_545
O1 V2 2.183065 1_544
O2 V0 1.969513 1_655
O2 V2 2.008853 1_554
O2 V1 2.261862 1_545
O3 V1 1.861320 1_556
O3 Ti0 2.122698 1_556
O3 V0 2.233214 1_666
O4 V1 1.857676 1_545
O4 Ti0 2.123185 1_445
O4 V0 2.226315 1_545
O5 V0 1.966130 1_556
O5 V2 2.005681 1_555
O5 V1 2.257994 1_556
O6 Ti0 1.946285 1_456
O6 V1 2.050765 1_556
O6 V2 2.200863 1_565
O7 V2 1.847171 1_555
O7 V0 2.076473 1_656
O7 Ti0 2.309982 1_556
