# generated using pymatgen
data_K4UO5
_symmetry_space_group_name_H-M   'P 1'
_cell_length_a   6.47448246
_cell_length_b   6.45042262
_cell_length_c   9.71084660
_cell_angle_alpha   101.46247799
_cell_angle_beta   108.88568641
_cell_angle_gamma   102.29389438
_symmetry_Int_Tables_number   1
_chemical_formula_structural   K4UO5
_chemical_formula_sum   'K8 U2 O10'
_cell_volume   358.86700688
_cell_formula_units_Z   2
loop_
 _symmetry_equiv_pos_site_id
 _symmetry_equiv_pos_as_xyz
  1  'x, y, z'
loop_
 _atom_site_type_symbol
 _atom_site_label
 _atom_site_symmetry_multiplicity
 _atom_site_fract_x
 _atom_site_fract_y
 _atom_site_fract_z
 _atom_site_occupancy
  K  K0  1  0.69455767  0.48105426  0.90310471  1
  K  K1  1  0.88922632  0.50362840  0.30226400  1
  K  K2  1  0.69853004  0.00148444  0.40320965  1
  K  K3  1  0.30146996  0.99851556  0.59679035  1
  K  K4  1  0.30544233  0.51894574  0.09689529  1
  K  K5  1  0.50000000  0.50000000  0.50000000  1
  K  K6  1  0.50000000  0.00000000  -0.00000000  1
  K  K7  1  0.11077368  0.49637160  0.69773600  1
  U  U0  1  0.90470518  0.99434290  0.80377203  1
  U  U1  1  0.09529482  0.00565710  0.19622797  1
  O  O0  1  0.21545458  0.19819043  0.84140730  1
  O  O1  1  0.78454542  0.80180957  0.15859270  1
  O  O2  1  0.90736629  0.78900523  0.61034880  1
  O  O3  1  0.09263371  0.21099477  0.38965120  1
  O  O4  1  0.40823118  0.20694520  0.23626653  1
  O  O5  1  0.59176882  0.79305480  0.76373347  1
  O  O6  1  0.06933035  0.81855215  0.96457821  1
  O  O7  1  0.93066965  0.18144785  0.03542179  1
  O  O8  1  0.24551500  0.80265584  0.30692004  1
  O  O9  1  0.75448500  0.19734416  0.69307996  1
loop_
_geom_bond_atom_site_label_1
_geom_bond_atom_site_label_2
_geom_bond_distance
_geom_bond_site_symmetry_2
K0 O9 2.643947 1_555
K0 O6 2.698084 1_655
K0 O1 2.699317 1_556
K0 O5 2.719335 1_555
K0 O7 2.948952 1_556
K0 O0 3.043407 1_555
K1 O3 2.643744 1_655
K1 O8 2.654578 1_655
K1 O1 2.667367 1_555
K1 O4 3.074709 1_555
K1 O7 3.106895 1_555
K1 O2 3.137610 1_555
K2 O3 2.678465 1_655
K2 O8 2.695909 1_545
K2 O9 2.717063 1_555
K2 O1 2.749107 1_545
K2 O4 2.803470 1_555
K2 O2 2.806609 1_545
K3 O2 2.678465 1_455
K3 O9 2.695909 1_565
K3 O8 2.717063 1_555
K3 O0 2.749107 1_565
K3 O5 2.803470 1_555
K3 O3 2.806609 1_565
K4 O8 2.643947 1_555
K4 O7 2.698084 1_455
K4 O0 2.699317 1_554
K4 O4 2.719335 1_555
K4 O6 2.948952 1_554
K4 O1 3.043407 1_555
K5 O2 2.619627 1_555
K5 O3 2.619627 1_555
K5 O5 2.664192 1_555
K5 O4 2.664192 1_555
K5 O9 3.296417 1_555
K5 O8 3.296417 1_555
K6 O7 2.663167 1_555
K6 O6 2.663167 1_544
K6 O0 2.710890 1_554
K6 O1 2.710890 1_545
K6 O4 2.720650 1_555
K6 O5 2.720650 1_544
K7 O2 2.643744 1_455
K7 O9 2.654578 1_455
K7 O0 2.667367 1_555
K7 O5 3.074709 1_555
K7 O6 3.106895 1_555
K7 O3 3.137610 1_555
O0 U0 2.029000 1_445
O1 U1 2.029000 1_665
O2 U0 2.079550 1_555
O3 U1 2.079550 1_555
O4 U1 2.027607 1_555
O5 U0 2.027607 1_555
O6 U0 2.236361 1_455
O6 U1 2.266038 1_566
O7 U1 2.236361 1_655
O7 U0 2.266038 1_544
O8 U1 2.059373 1_565
O9 U0 2.059373 1_545
