# generated using pymatgen
data_CaGeO3
_symmetry_space_group_name_H-M   'P 1'
_cell_length_a   5.33181000
_cell_length_b   5.37445300
_cell_length_c   7.55271200
_cell_angle_alpha   90.00000000
_cell_angle_beta   90.00000000
_cell_angle_gamma   90.00000000
_symmetry_Int_Tables_number   1
_chemical_formula_structural   CaGeO3
_chemical_formula_sum   'Ca4 Ge4 O12'
_cell_volume   216.42720887
_cell_formula_units_Z   4
loop_
 _symmetry_equiv_pos_site_id
 _symmetry_equiv_pos_as_xyz
  1  'x, y, z'
loop_
 _atom_site_type_symbol
 _atom_site_label
 _atom_site_symmetry_multiplicity
 _atom_site_fract_x
 _atom_site_fract_y
 _atom_site_fract_z
 _atom_site_occupancy
  Ca  Ca0  1  0.99165100  0.03987800  0.25000000  1
  Ca  Ca1  1  0.49165100  0.46012200  0.75000000  1
  Ca  Ca2  1  0.50834900  0.53987800  0.25000000  1
  Ca  Ca3  1  0.00834900  0.96012200  0.75000000  1
  Ge  Ge0  1  0.00000000  0.50000000  0.00000000  1
  Ge  Ge1  1  0.50000000  0.00000000  0.00000000  1
  Ge  Ge2  1  0.50000000  0.00000000  0.50000000  1
  Ge  Ge3  1  0.00000000  0.50000000  0.50000000  1
  O  O0  1  0.71043900  0.28787000  0.46159200  1
  O  O1  1  0.21043900  0.21213000  0.53840800  1
  O  O2  1  0.78956100  0.78787000  0.03840800  1
  O  O3  1  0.28956100  0.71213000  0.96159200  1
  O  O4  1  0.28956100  0.71213000  0.53840800  1
  O  O5  1  0.78956100  0.78787000  0.46159200  1
  O  O6  1  0.21043900  0.21213000  0.96159200  1
  O  O7  1  0.71043900  0.28787000  0.03840800  1
  O  O8  1  0.07374100  0.48398700  0.25000000  1
  O  O9  1  0.57374000  0.01601300  0.75000000  1
  O  O10  1  0.42626000  0.98398700  0.25000000  1
  O  O11  1  0.92626000  0.51601300  0.75000000  1
loop_
_geom_bond_atom_site_label_1
_geom_bond_atom_site_label_2
_geom_bond_distance
_geom_bond_site_symmetry_2
Ca0 O10 2.336641 1_645
Ca0 O2 2.355702 1_545
Ca0 O5 2.355702 1_545
Ca0 O8 2.426642 1_655
Ca0 O0 2.564844 1_555
Ca0 O7 2.564844 1_555
Ca0 O1 2.638686 1_655
Ca0 O6 2.638686 1_654
Ca1 O11 2.336641 1_555
Ca1 O4 2.355702 1_555
Ca1 O3 2.355702 1_555
Ca1 O9 2.426641 1_555
Ca1 O1 2.564844 1_555
Ca1 O6 2.564844 1_555
Ca1 O0 2.638686 1_555
Ca1 O7 2.638686 1_556
Ca2 O8 2.336635 1_555
Ca2 O0 2.355702 1_555
Ca2 O7 2.355702 1_555
Ca2 O10 2.426641 1_555
Ca2 O5 2.564844 1_555
Ca2 O2 2.564844 1_555
Ca2 O4 2.638686 1_555
Ca2 O3 2.638686 1_554
Ca3 O9 2.336641 1_465
Ca3 O1 2.355702 1_565
Ca3 O6 2.355702 1_565
Ca3 O11 2.426641 1_455
Ca3 O3 2.564844 1_555
Ca3 O4 2.564844 1_555
Ca3 O2 2.638686 1_456
Ca3 O5 2.638686 1_455
Ge0 O11 1.930597 1_454
Ge0 O8 1.930598 1_555
Ge0 O6 1.933063 1_554
Ge0 O2 1.933063 1_455
Ge0 O3 1.941009 1_554
Ge0 O7 1.941009 1_455
Ge1 O10 1.930597 1_545
Ge1 O9 1.930597 1_554
Ge1 O7 1.933063 1_555
Ge1 O3 1.933063 1_544
Ge1 O2 1.941009 1_545
Ge1 O6 1.941009 1_554
Ge2 O10 1.930597 1_545
Ge2 O9 1.930597 1_555
Ge2 O0 1.933063 1_555
Ge2 O4 1.933063 1_545
Ge2 O5 1.941009 1_545
Ge2 O1 1.941009 1_555
Ge3 O11 1.930597 1_455
Ge3 O8 1.930598 1_555
Ge3 O1 1.933063 1_555
Ge3 O5 1.933063 1_455
Ge3 O4 1.941009 1_555
Ge3 O0 1.941009 1_455
