# generated using pymatgen
data_Ca3Ni7B2
_symmetry_space_group_name_H-M   'P 1'
_cell_length_a   7.62919679
_cell_length_b   7.62919752
_cell_length_c   7.62919669
_cell_angle_alpha   39.09696772
_cell_angle_beta   39.09695376
_cell_angle_gamma   39.09696616
_symmetry_Int_Tables_number   1
_chemical_formula_structural   Ca3Ni7B2
_chemical_formula_sum   'Ca3 Ni7 B2'
_cell_volume   158.84867784
_cell_formula_units_Z   1
loop_
 _symmetry_equiv_pos_site_id
 _symmetry_equiv_pos_as_xyz
  1  'x, y, z'
loop_
 _atom_site_type_symbol
 _atom_site_label
 _atom_site_symmetry_multiplicity
 _atom_site_fract_x
 _atom_site_fract_y
 _atom_site_fract_z
 _atom_site_occupancy
  Ca  Ca0  1  0.64502013  0.64502013  0.64502013  1
  Ca  Ca1  1  0.35497987  0.35497987  0.35497987  1
  Ca  Ca2  1  0.50000000  0.50000000  0.50000000  1
  Ni  Ni0  1  0.06028201  0.57309481  0.06028201  1
  Ni  Ni1  1  0.06028201  0.06028201  0.57309481  1
  Ni  Ni2  1  0.57309481  0.06028201  0.06028201  1
  Ni  Ni3  1  0.42690519  0.93971799  0.93971799  1
  Ni  Ni4  1  0.93971799  0.93971799  0.42690519  1
  Ni  Ni5  1  0.93971799  0.42690519  0.93971799  1
  Ni  Ni6  1  0.00000000  0.00000000  -0.00000000  1
  B  B0  1  0.83048755  0.83048755  0.83048755  1
  B  B1  1  0.16951245  0.16951245  0.16951245  1
loop_
_geom_bond_atom_site_label_1
_geom_bond_atom_site_label_2
_geom_bond_distance
_geom_bond_site_symmetry_2
Ca0 Ni6 2.982886 1_566
Ca0 Ni6 2.982886 1_665
Ca0 Ni6 2.982887 1_656
Ca0 Ni3 3.018391 1_555
Ca0 Ni4 3.018391 1_555
Ca0 Ni5 3.018391 1_555
Ca0 Ca2 3.061411 1_555
Ca0 Ni0 3.066519 1_655
Ca0 Ni0 3.066520 1_556
Ca0 Ni1 3.066520 1_565
Ca0 Ni2 3.066520 1_565
Ca0 Ni1 3.066520 1_655
Ca0 Ni2 3.066521 1_556
Ca1 Ni6 2.982886 1_655
Ca1 Ni6 2.982886 1_556
Ca1 Ni6 2.982887 1_565
Ca1 Ni2 3.018391 1_555
Ca1 Ni1 3.018391 1_555
Ca1 Ni0 3.018391 1_555
Ca1 Ca2 3.061411 1_555
Ca1 Ni5 3.066519 1_455
Ca1 Ni5 3.066520 1_554
Ca1 Ni4 3.066520 1_545
Ca1 Ni3 3.066520 1_545
Ca1 Ni4 3.066520 1_455
Ca1 Ni3 3.066521 1_554
Ca2 Ni5 2.893968 1_554
Ca2 Ni0 2.893968 1_556
Ca2 Ni5 2.893968 1_455
Ca2 Ni0 2.893968 1_655
Ca2 Ni4 2.893969 1_455
Ca2 Ni1 2.893969 1_655
Ca2 Ni3 2.893969 1_554
Ca2 Ni2 2.893969 1_556
Ca2 Ni4 2.893969 1_545
Ca2 Ni1 2.893969 1_565
Ca2 Ni3 2.893969 1_545
Ca2 Ni2 2.893969 1_565
Ni0 Ni6 2.590195 1_565
Ni1 Ni6 2.590194 1_556
Ni2 Ni6 2.590195 1_655
Ni3 Ni6 2.590195 1_566
Ni4 Ni6 2.590194 1_665
Ni5 Ni6 2.590195 1_656
B0 Ni4 1.995460 1_555
B0 Ni3 1.995460 1_555
B0 Ni5 1.995460 1_555
B0 Ni2 2.021551 1_566
B0 Ni1 2.021551 1_665
B0 Ni0 2.021551 1_656
B0 Ca2 2.948288 1_655
B0 Ca2 2.948288 1_556
B0 Ca2 2.948289 1_565
B1 Ni1 1.995460 1_555
B1 Ni2 1.995460 1_555
B1 Ni0 1.995460 1_555
B1 Ni3 2.021551 1_544
B1 Ni4 2.021551 1_445
B1 Ni5 2.021551 1_454
B1 Ca2 2.948288 1_455
B1 Ca2 2.948288 1_554
B1 Ca2 2.948289 1_545
