# generated using pymatgen
data_LiMnPO4
_symmetry_space_group_name_H-M   'P 1'
_cell_length_a   4.98018100
_cell_length_b   7.63015800
_cell_length_c   18.89728787
_cell_angle_alpha   88.76414184
_cell_angle_beta   90.00000000
_cell_angle_gamma   90.00000000
_symmetry_Int_Tables_number   1
_chemical_formula_structural   LiMnPO4
_chemical_formula_sum   'Li8 Mn8 P8 O32'
_cell_volume   717.92173235
_cell_formula_units_Z   8
loop_
 _symmetry_equiv_pos_site_id
 _symmetry_equiv_pos_as_xyz
  1  'x, y, z'
loop_
 _atom_site_type_symbol
 _atom_site_label
 _atom_site_symmetry_multiplicity
 _atom_site_fract_x
 _atom_site_fract_y
 _atom_site_fract_z
 _atom_site_occupancy
  Li  Li0  1  0.75875800  0.02409000  0.58846500  1
  Li  Li1  1  0.74124200  0.02409000  0.08846500  1
  Li  Li2  1  0.32925900  0.50232600  0.81817800  1
  Li  Li3  1  0.17074100  0.50232600  0.31817800  1
  Li  Li4  1  0.82925900  0.49767400  0.68182200  1
  Li  Li5  1  0.67074100  0.49767400  0.18182200  1
  Li  Li6  1  0.25875800  0.97591000  0.91153500  1
  Li  Li7  1  0.24124200  0.97591000  0.41153500  1
  Mn  Mn0  1  0.77109300  0.17557200  0.77318600  1
  Mn  Mn1  1  0.72890700  0.17557200  0.27318600  1
  Mn  Mn2  1  0.22268900  0.32669000  0.51935400  1
  Mn  Mn3  1  0.27731100  0.32669000  0.01935400  1
  Mn  Mn4  1  0.72268900  0.67331000  0.98064600  1
  Mn  Mn5  1  0.77731100  0.67331000  0.48064600  1
  Mn  Mn6  1  0.27109300  0.82442800  0.72681400  1
  Mn  Mn7  1  0.22890700  0.82442800  0.22681400  1
  P  P0  1  0.32411000  0.24845200  0.68372100  1
  P  P1  1  0.17589000  0.24845200  0.18372100  1
  P  P2  1  0.72961500  0.24989400  0.93566400  1
  P  P3  1  0.77038500  0.24989400  0.43566400  1
  P  P4  1  0.22961500  0.75010600  0.56433600  1
  P  P5  1  0.27038500  0.75010600  0.06433600  1
  P  P6  1  0.82411000  0.75154800  0.81627900  1
  P  P7  1  0.67589000  0.75154800  0.31627900  1
  O  O0  1  0.41334500  0.08139500  0.72709400  1
  O  O1  1  0.08665500  0.08139500  0.22709400  1
  O  O2  1  0.62653900  0.17060700  0.00702300  1
  O  O3  1  0.60849700  0.14782700  0.87326900  1
  O  O4  1  0.42096200  0.22327200  0.60695800  1
  O  O5  1  0.01368300  0.26899700  0.68875300  1
  O  O6  1  0.87346100  0.17060700  0.50702300  1
  O  O7  1  0.89150300  0.14782700  0.37326900  1
  O  O8  1  0.07903800  0.22327200  0.10695800  1
  O  O9  1  0.48631700  0.26899700  0.18875300  1
  O  O10  1  0.04193400  0.24642200  0.93218000  1
  O  O11  1  0.45806600  0.24642200  0.43218000  1
  O  O12  1  0.47095200  0.40287000  0.72034400  1
  O  O13  1  0.02904800  0.40287000  0.22034400  1
  O  O14  1  0.61352500  0.44114900  0.93039800  1
  O  O15  1  0.88647500  0.44114900  0.43039800  1
  O  O16  1  0.11352500  0.55885100  0.56960200  1
  O  O17  1  0.38647500  0.55885100  0.06960200  1
  O  O18  1  0.97095200  0.59713000  0.77965600  1
  O  O19  1  0.52904800  0.59713000  0.27965600  1
  O  O20  1  0.54193400  0.75357800  0.56782000  1
  O  O21  1  0.95806600  0.75357800  0.06782000  1
  O  O22  1  0.51368300  0.73100300  0.81124700  1
  O  O23  1  0.92096200  0.77672800  0.89304200  1
  O  O24  1  0.10849700  0.85217300  0.62673100  1
  O  O25  1  0.12653900  0.82939300  0.49297700  1
  O  O26  1  0.98631700  0.73100300  0.31124700  1
  O  O27  1  0.57903800  0.77672800  0.39304200  1
  O  O28  1  0.39150300  0.85217300  0.12673100  1
  O  O29  1  0.37346100  0.82939300  0.99297700  1
  O  O30  1  0.91334500  0.91860500  0.77290600  1
  O  O31  1  0.58665500  0.91860500  0.27290600  1
loop_
_geom_bond_atom_site_label_1
_geom_bond_atom_site_label_2
_geom_bond_distance
_geom_bond_site_symmetry_2
Li0 O6 1.967366 1_555
Li0 O24 2.288324 1_645
Li0 O4 2.298887 1_555
Li0 O20 2.369231 1_545
Li1 O2 1.967366 1_555
Li1 O28 2.288324 1_545
Li1 O8 2.298887 1_655
Li1 O21 2.369231 1_545
Li2 O22 1.973663 1_555
Li2 O18 2.052969 1_455
Li2 O12 2.133635 1_555
Li2 O14 2.583904 1_555
Li3 O26 1.973663 1_455
Li3 O19 2.052969 1_555
Li3 O13 2.133635 1_555
Li3 O15 2.583904 1_455
Li4 O5 1.973663 1_655
Li4 O12 2.052969 1_555
Li4 O18 2.133635 1_555
Li4 O16 2.583904 1_655
Li5 O9 1.973663 1_555
Li5 O13 2.052969 1_655
Li5 O19 2.133635 1_555
Li5 O17 2.583904 1_555
Li6 O29 1.967366 1_555
Li6 O3 2.288324 1_565
Li6 O23 2.298887 1_455
Li6 O10 2.369231 1_565
Li7 O25 1.967366 1_555
Li7 O7 2.288324 1_465
Li7 O27 2.298887 1_555
Li7 O11 2.369231 1_565
Mn0 O3 2.064039 1_555
Mn0 O30 2.084875 1_545
Mn0 O5 2.112934 1_655
Mn0 O0 2.115728 1_555
Mn0 O12 2.482861 1_555
Mn1 O7 2.064039 1_555
Mn1 O31 2.084875 1_545
Mn1 O9 2.112934 1_555
Mn1 O1 2.115728 1_655
Mn1 O13 2.482861 1_655
Mn2 O4 2.069289 1_555
Mn2 O16 2.099456 1_555
Mn2 O11 2.122851 1_555
Mn2 O6 2.123555 1_455
Mn2 O15 2.515727 1_455
Mn3 O8 2.069289 1_555
Mn3 O17 2.099456 1_555
Mn3 O10 2.122851 1_554
Mn3 O2 2.123555 1_555
Mn3 O14 2.515727 1_554
Mn4 O23 2.069289 1_555
Mn4 O14 2.099456 1_555
Mn4 O21 2.122851 1_556
Mn4 O29 2.123555 1_555
Mn4 O17 2.515727 1_556
Mn5 O27 2.069289 1_555
Mn5 O15 2.099456 1_555
Mn5 O20 2.122851 1_555
Mn5 O25 2.123555 1_655
Mn5 O16 2.515727 1_655
Mn6 O24 2.064039 1_555
Mn6 O0 2.084875 1_565
Mn6 O22 2.112934 1_555
Mn6 O30 2.115728 1_455
Mn6 O18 2.482861 1_455
Mn7 O28 2.064039 1_555
Mn7 O1 2.084875 1_565
Mn7 O26 2.112934 1_455
Mn7 O31 2.115728 1_555
Mn7 O19 2.482861 1_555
O0 P0 1.564932 1_555
O1 P1 1.564932 1_555
O2 P2 1.553301 1_554
O3 P2 1.549266 1_555
O4 P0 1.544624 1_555
O5 P0 1.557023 1_555
O6 P3 1.553301 1_555
O7 P3 1.549266 1_555
O8 P1 1.544624 1_555
O9 P1 1.557023 1_555
O10 P2 1.557047 1_455
O11 P3 1.557047 1_555
O12 P0 1.561146 1_555
O13 P1 1.561146 1_555
O14 P2 1.570818 1_555
O15 P3 1.570818 1_555
O16 P4 1.570818 1_555
O17 P5 1.570818 1_555
O18 P6 1.561146 1_555
O19 P7 1.561146 1_555
O20 P4 1.557047 1_555
O21 P5 1.557047 1_655
O22 P6 1.557023 1_555
O23 P6 1.544624 1_555
O24 P4 1.549266 1_555
O25 P4 1.553301 1_555
O26 P7 1.557023 1_555
O27 P7 1.544624 1_555
O28 P5 1.549266 1_555
O29 P5 1.553301 1_556
O30 P6 1.564932 1_555
O31 P7 1.564932 1_555
