# generated using pymatgen
data_YNiGe3
_symmetry_space_group_name_H-M   'P 1'
_cell_length_a   4.06618076
_cell_length_b   4.08783135
_cell_length_c   10.94461726
_cell_angle_alpha   90.00000000
_cell_angle_beta   100.70554156
_cell_angle_gamma   90.00000000
_symmetry_Int_Tables_number   1
_chemical_formula_structural   YNiGe3
_chemical_formula_sum   'Y2 Ni2 Ge6'
_cell_volume   178.75356276
_cell_formula_units_Z   2
loop_
 _symmetry_equiv_pos_site_id
 _symmetry_equiv_pos_as_xyz
  1  'x, y, z'
loop_
 _atom_site_type_symbol
 _atom_site_label
 _atom_site_symmetry_multiplicity
 _atom_site_fract_x
 _atom_site_fract_y
 _atom_site_fract_z
 _atom_site_occupancy
  Y  Y0  1  0.16872172  0.50000000  0.33744445  1
  Y  Y1  1  0.83127828  0.50000000  0.66255555  1
  Ni  Ni0  1  0.39001074  -0.00000000  0.78002248  1
  Ni  Ni1  1  0.60998926  0.00000000  0.21997752  1
  Ge  Ge0  1  0.94268223  -0.00000000  0.88536547  1
  Ge  Ge1  1  0.05731777  -0.00000000  0.11463453  1
  Ge  Ge2  1  0.71614465  0.00000000  0.43229130  1
  Ge  Ge3  1  0.28385535  0.00000000  0.56770870  1
  Ge  Ge4  1  0.55729213  0.50000000  0.11458527  1
  Ge  Ge5  1  0.44270787  0.50000000  0.88541473  1
loop_
_geom_bond_atom_site_label_1
_geom_bond_atom_site_label_2
_geom_bond_distance
_geom_bond_site_symmetry_2
Ni0 Y1 3.147514 1_455
Ni0 Y1 3.147514 1_445
Ni0 Y1 3.147519 1_545
Ni0 Y1 3.147519 1_555
Ni1 Y0 3.147514 1_655
Ni1 Y0 3.147514 1_645
Ni1 Y0 3.147519 1_545
Ni1 Y0 3.147519 1_555
Ge0 Ni0 2.327414 1_655
Ge0 Ni0 2.327414 1_555
Ge0 Ge1 2.465588 1_656
Ge0 Ge5 2.882886 1_555
Ge0 Ge5 2.882886 1_545
Ge0 Ge5 2.882892 1_655
Ge0 Ge5 2.882892 1_645
Ge0 Y1 3.149446 1_545
Ge0 Y1 3.149446 1_555
Ge1 Ni1 2.327414 1_455
Ge1 Ni1 2.327414 1_555
Ge1 Ge4 2.882886 1_545
Ge1 Ge4 2.882886 1_555
Ge1 Ge4 2.882892 1_455
Ge1 Ge4 2.882892 1_445
Ge1 Y0 3.149446 1_555
Ge1 Y0 3.149446 1_545
Ge2 Ni1 2.283249 1_555
Ge2 Ge3 2.500844 1_555
Ge2 Ge3 2.500857 1_655
Ge2 Y0 3.058011 1_555
Ge2 Y0 3.058011 1_545
Ge2 Y0 3.058013 1_645
Ge2 Y0 3.058013 1_655
Ge2 Y1 3.210857 1_545
Ge2 Y1 3.210857 1_555
Ge3 Ni0 2.283249 1_555
Ge3 Y1 3.058011 1_545
Ge3 Y1 3.058011 1_555
Ge3 Y1 3.058013 1_455
Ge3 Y1 3.058013 1_445
Ge3 Y0 3.210857 1_545
Ge3 Y0 3.210857 1_555
Ge4 Ni1 2.337133 1_555
Ge4 Ni1 2.337133 1_565
Ge4 Ge5 2.464528 1_554
Ge4 Y0 3.142835 1_555
Ge4 Y0 3.142835 1_655
Ge5 Ni0 2.337133 1_555
Ge5 Ni0 2.337133 1_565
Ge5 Y1 3.142835 1_555
Ge5 Y1 3.142835 1_455
