# generated using pymatgen
data_PaAlTc2
_symmetry_space_group_name_H-M   'P 1'
_cell_length_a   4.58382944
_cell_length_b   4.58382944
_cell_length_c   4.58382944
_cell_angle_alpha   60.00000000
_cell_angle_beta   60.00000000
_cell_angle_gamma   60.00000000
_symmetry_Int_Tables_number   1
_chemical_formula_structural   PaAlTc2
_chemical_formula_sum   'Pa1 Al1 Tc2'
_cell_volume   68.10364406
_cell_formula_units_Z   1
loop_
 _symmetry_equiv_pos_site_id
 _symmetry_equiv_pos_as_xyz
  1  'x, y, z'
loop_
 _atom_site_type_symbol
 _atom_site_label
 _atom_site_symmetry_multiplicity
 _atom_site_fract_x
 _atom_site_fract_y
 _atom_site_fract_z
 _atom_site_occupancy
  Pa  Pa0  1  0.75000000  0.75000000  0.75000000  1
  Al  Al0  1  0.24999900  0.24999900  0.24999900  1
  Tc  Tc0  1  0.00000000  0.00000000  0.00000000  1
  Tc  Tc1  1  0.50000000  0.50000000  0.50000000  1
loop_
_geom_bond_atom_site_label_1
_geom_bond_atom_site_label_2
_geom_bond_distance
_geom_bond_site_symmetry_2
Pa0 Tc0 2.807011 1_656
Pa0 Tc1 2.807011 1_556
Pa0 Tc1 2.807011 1_555
Pa0 Tc0 2.807011 1_566
Pa0 Tc1 2.807011 1_565
Pa0 Tc0 2.807011 1_665
Pa0 Tc1 2.807011 1_655
Pa0 Tc0 2.807011 1_666
Al0 Tc0 2.807000 1_555
Al0 Tc1 2.807007 1_554
Al0 Tc1 2.807007 1_545
Al0 Tc1 2.807007 1_455
Al0 Tc0 2.807015 1_565
Al0 Tc0 2.807015 1_655
Al0 Tc0 2.807015 1_556
Al0 Tc1 2.807022 1_555
