# generated using pymatgen
data_MoPNO7
_symmetry_space_group_name_H-M   'P 1'
_cell_length_a   9.24674800
_cell_length_b   6.51016500
_cell_length_c   12.88145241
_cell_angle_alpha   75.18538985
_cell_angle_beta   90.00000000
_cell_angle_gamma   90.00000000
_symmetry_Int_Tables_number   1
_chemical_formula_structural   MoPNO7
_chemical_formula_sum   'Mo4 P4 N4 O28'
_cell_volume   749.65894019
_cell_formula_units_Z   4
loop_
 _symmetry_equiv_pos_site_id
 _symmetry_equiv_pos_as_xyz
  1  'x, y, z'
loop_
 _atom_site_type_symbol
 _atom_site_label
 _atom_site_symmetry_multiplicity
 _atom_site_fract_x
 _atom_site_fract_y
 _atom_site_fract_z
 _atom_site_occupancy
  Mo  Mo0  1  0.23853800  0.14138000  0.11800200  1
  Mo  Mo1  1  0.26146200  0.14138000  0.61800200  1
  Mo  Mo2  1  0.76146200  0.85862000  0.88199800  1
  Mo  Mo3  1  0.73853800  0.85862000  0.38199800  1
  P  P0  1  0.15069000  0.08229300  0.37385500  1
  P  P1  1  0.34931000  0.08229300  0.87385500  1
  P  P2  1  0.84931000  0.91770700  0.62614500  1
  P  P3  1  0.65069000  0.91770700  0.12614500  1
  N  N0  1  0.29687300  0.66997900  0.27191500  1
  N  N1  1  0.20312700  0.66997900  0.77191500  1
  N  N2  1  0.70312700  0.33002100  0.72808500  1
  N  N3  1  0.79687300  0.33002100  0.22808500  1
  O  O0  1  0.21573900  0.84478600  0.21095600  1
  O  O1  1  0.28426100  0.84478600  0.71095600  1
  O  O2  1  0.78426100  0.15521400  0.78904400  1
  O  O3  1  0.71573900  0.15521400  0.28904400  1
  O  O4  1  0.06740000  0.23367400  0.08587400  1
  O  O5  1  0.43260000  0.23367400  0.58587400  1
  O  O6  1  0.93260000  0.76632600  0.91412600  1
  O  O7  1  0.56740000  0.76632600  0.41412600  1
  O  O8  1  0.23427200  0.04230500  0.47711700  1
  O  O9  1  0.26572800  0.04230500  0.97711700  1
  O  O10  1  0.76572800  0.95769500  0.52288300  1
  O  O11  1  0.73427200  0.95769500  0.02288300  1
  O  O12  1  0.23617600  0.19721100  0.27699400  1
  O  O13  1  0.26382400  0.19721100  0.77699400  1
  O  O14  1  0.76382400  0.80278900  0.72300600  1
  O  O15  1  0.73617600  0.80278900  0.22300600  1
  O  O16  1  0.99628100  0.03351500  0.36977600  1
  O  O17  1  0.50371900  0.03351500  0.86977600  1
  O  O18  1  0.00371900  0.96648500  0.63022400  1
  O  O19  1  0.49628100  0.96648500  0.13022400  1
  O  O20  1  0.26701000  0.62942900  0.36502200  1
  O  O21  1  0.23299000  0.62942900  0.86502200  1
  O  O22  1  0.73299000  0.37057100  0.63497800  1
  O  O23  1  0.76701000  0.37057100  0.13497800  1
  O  O24  1  0.35057200  0.35816100  0.08449300  1
  O  O25  1  0.14942800  0.35816100  0.58449300  1
  O  O26  1  0.64942800  0.64183900  0.91550700  1
  O  O27  1  0.85057200  0.64183900  0.41550700  1
loop_
_geom_bond_atom_site_label_1
_geom_bond_atom_site_label_2
_geom_bond_distance
_geom_bond_site_symmetry_2
Mo0 O4 1.705680 1_555
Mo0 O24 1.714555 1_555
Mo0 O0 2.006024 1_545
Mo0 O9 2.090774 1_554
Mo0 O12 2.169738 1_555
Mo0 O19 2.628605 1_545
Mo1 O5 1.705680 1_555
Mo1 O25 1.714555 1_555
Mo1 O1 2.006024 1_545
Mo1 O8 2.090774 1_555
Mo1 O13 2.169738 1_555
Mo1 O18 2.628605 1_545
Mo2 O6 1.705680 1_555
Mo2 O26 1.714555 1_555
Mo2 O2 2.006024 1_565
Mo2 O11 2.090774 1_556
Mo2 O14 2.169738 1_555
Mo2 O17 2.628605 1_565
Mo3 O7 1.705680 1_555
Mo3 O27 1.714555 1_555
Mo3 O3 2.006024 1_565
Mo3 O10 2.090774 1_555
Mo3 O15 2.169738 1_555
Mo3 O16 2.628605 1_565
N0 O20 1.192676 1_555
N0 O0 1.420406 1_555
N1 O21 1.192676 1_555
N1 O1 1.420406 1_555
N2 O22 1.192676 1_555
N2 O2 1.420406 1_555
N3 O23 1.192676 1_555
N3 O3 1.420406 1_555
O8 P0 1.502445 1_555
O9 P1 1.502445 1_555
O10 P2 1.502445 1_555
O11 P3 1.502445 1_555
O12 P0 1.504650 1_555
O13 P1 1.504650 1_555
O14 P2 1.504650 1_555
O15 P3 1.504650 1_555
O16 P0 1.466524 1_655
O17 P1 1.466524 1_555
O18 P2 1.466524 1_455
O19 P3 1.466524 1_555
