# generated using pymatgen
data_RbCuF3
_symmetry_space_group_name_H-M   'P 1'
_cell_length_a   5.78729220
_cell_length_b   5.78540739
_cell_length_c   5.78540780
_cell_angle_alpha   94.27056081
_cell_angle_beta   117.55604649
_cell_angle_gamma   117.55605972
_symmetry_Int_Tables_number   1
_chemical_formula_structural   RbCuF3
_chemical_formula_sum   'Rb2 Cu2 F6'
_cell_volume   141.62469848
_cell_formula_units_Z   2
loop_
 _symmetry_equiv_pos_site_id
 _symmetry_equiv_pos_as_xyz
  1  'x, y, z'
loop_
 _atom_site_type_symbol
 _atom_site_label
 _atom_site_symmetry_multiplicity
 _atom_site_fract_x
 _atom_site_fract_y
 _atom_site_fract_z
 _atom_site_occupancy
  Rb  Rb0  1  -0.00000000  0.75000000  0.75000000  1
  Rb  Rb1  1  -0.00000000  0.25000000  0.25000000  1
  Cu  Cu0  1  0.50000000  -0.00000000  0.50000000  1
  Cu  Cu1  1  0.50000000  0.50000000  0.00000000  1
  F  F0  1  0.05798057  0.27899079  0.77899079  1
  F  F1  1  0.50000000  0.77877199  0.72122801  1
  F  F2  1  0.50000000  0.22122801  0.27877199  1
  F  F3  1  0.94201943  0.72100921  0.22100921  1
  F  F4  1  0.50000000  0.75008662  0.25008662  1
  F  F5  1  0.50000000  0.24991338  0.74991338  1
loop_
_geom_bond_atom_site_label_1
_geom_bond_atom_site_label_2
_geom_bond_distance
_geom_bond_site_symmetry_2
Cu0 F2 1.876227 1_555
Cu0 F1 1.876227 1_545
Cu0 F5 1.967137 1_555
Cu0 F4 1.967137 1_545
Cu0 F0 2.367542 1_655
Cu0 F3 2.367542 1_445
Cu1 F0 1.875512 1_554
Cu1 F3 1.875512 1_555
Cu1 F5 1.968500 1_554
Cu1 F4 1.968500 1_555
Cu1 F1 2.364256 1_554
Cu1 F2 2.364256 1_555
F0 Rb0 2.903144 1_555
F0 Rb1 2.903144 1_556
F0 Rb0 2.903149 1_545
F0 Rb1 2.903149 1_555
F1 Rb1 2.903916 1_555
F1 Rb1 2.903916 1_666
F1 Rb0 2.903916 1_555
F1 Rb0 2.903916 1_655
F2 Rb0 2.903916 1_655
F2 Rb0 2.903916 1_544
F2 Rb1 2.903916 1_655
F2 Rb1 2.903916 1_555
F3 Rb1 2.903144 1_655
F3 Rb0 2.903144 1_654
F3 Rb1 2.903149 1_665
F3 Rb0 2.903149 1_655
F4 Rb1 2.999383 1_555
F4 Rb1 2.999383 1_665
F4 Rb0 2.999384 1_554
F4 Rb0 2.999384 1_655
F5 Rb0 2.999383 1_655
F5 Rb0 2.999383 1_545
F5 Rb1 2.999384 1_656
F5 Rb1 2.999384 1_555
