# generated using pymatgen
data_VO2F
_symmetry_space_group_name_H-M   'P 1'
_cell_length_a   9.14648737
_cell_length_b   9.14648737
_cell_length_c   7.36931865
_cell_angle_alpha   66.90959727
_cell_angle_beta   66.90959727
_cell_angle_gamma   33.21413198
_symmetry_Int_Tables_number   1
_chemical_formula_structural   VO2F
_chemical_formula_sum   'V6 O12 F6'
_cell_volume   308.12642368
_cell_formula_units_Z   6
loop_
 _symmetry_equiv_pos_site_id
 _symmetry_equiv_pos_as_xyz
  1  'x, y, z'
loop_
 _atom_site_type_symbol
 _atom_site_label
 _atom_site_symmetry_multiplicity
 _atom_site_fract_x
 _atom_site_fract_y
 _atom_site_fract_z
 _atom_site_occupancy
  V  V0  1  0.05154200  0.96363600  0.51560900  1
  V  V1  1  0.96363600  0.05154200  0.01560900  1
  V  V2  1  0.72149800  0.62466500  0.34565100  1
  V  V3  1  0.62466500  0.72149800  0.84565100  1
  V  V4  1  0.33658800  0.34367100  0.18686300  1
  V  V5  1  0.34367100  0.33658800  0.68686300  1
  O  O0  1  0.93674600  0.05659200  0.74299900  1
  O  O1  1  0.86366200  0.32100800  0.93881100  1
  O  O2  1  0.75152900  0.58569500  0.57403600  1
  O  O3  1  0.58569500  0.75152900  0.07403600  1
  O  O4  1  0.62630900  0.22526200  0.10555400  1
  O  O5  1  0.44559600  0.02798500  0.71777500  1
  O  O6  1  0.32100800  0.86366200  0.43881100  1
  O  O7  1  0.05659200  0.93674600  0.24299900  1
  O  O8  1  0.40912300  0.25004200  0.91314000  1
  O  O9  1  0.25004200  0.40912300  0.41314000  1
  O  O10  1  0.22526200  0.62630900  0.60555400  1
  O  O11  1  0.02798500  0.44559600  0.21777500  1
  F  F0  1  0.78923100  0.35102000  0.38379600  1
  F  F1  1  0.97062400  0.55281800  0.77476600  1
  F  F2  1  0.55281800  0.97062400  0.27476600  1
  F  F3  1  0.68900100  0.10810100  0.55126800  1
  F  F4  1  0.35102000  0.78923100  0.88379600  1
  F  F5  1  0.10810100  0.68900100  0.05126800  1
loop_
_geom_bond_atom_site_label_1
_geom_bond_atom_site_label_2
_geom_bond_distance
_geom_bond_site_symmetry_2
O0 V0 1.696183 1_645
O0 V1 2.096251 1_556
O1 V1 1.664873 1_556
O1 V3 2.115203 1_555
O2 V2 1.662339 1_555
O2 V3 2.147663 1_555
O3 V3 1.662339 1_554
O3 V2 2.147663 1_555
O4 V4 1.736526 1_555
O4 V1 1.871489 1_555
O5 V3 1.698534 1_545
O5 V5 2.036527 1_555
O6 V0 1.664873 1_555
O6 V2 2.115203 1_555
O7 V1 1.696183 1_465
O7 V0 2.096251 1_555
O8 V5 1.649332 1_555
O8 V4 2.144068 1_556
O9 V4 1.649332 1_555
O9 V5 2.144068 1_555
O10 V5 1.736526 1_555
O10 V0 1.871489 1_555
O11 V2 1.698534 1_455
O11 V4 2.036527 1_555
F0 V2 1.928079 1_555
F0 V0 2.039179 1_645
F1 V3 1.957766 1_555
F1 V5 1.988228 1_655
F2 V2 1.957766 1_555
F2 V4 1.988228 1_565
F3 V5 1.860050 1_555
F3 V0 2.251246 1_645
F4 V3 1.928079 1_555
F4 V1 2.039179 1_466
F5 V4 1.860050 1_555
F5 V1 2.251246 1_465
