# generated using pymatgen
data_RbTl3
_symmetry_space_group_name_H-M   'P 1'
_cell_length_a   8.26320710
_cell_length_b   8.26320650
_cell_length_c   5.19644059
_cell_angle_alpha   90.00000000
_cell_angle_beta   90.00000000
_cell_angle_gamma   119.99999818
_symmetry_Int_Tables_number   1
_chemical_formula_structural   RbTl3
_chemical_formula_sum   'Rb2 Tl6'
_cell_volume   307.27968546
_cell_formula_units_Z   2
loop_
 _symmetry_equiv_pos_site_id
 _symmetry_equiv_pos_as_xyz
  1  'x, y, z'
loop_
 _atom_site_type_symbol
 _atom_site_label
 _atom_site_symmetry_multiplicity
 _atom_site_fract_x
 _atom_site_fract_y
 _atom_site_fract_z
 _atom_site_occupancy
  Rb  Rb0  1  0.33333300  0.66666600  0.75000100  1
  Rb  Rb1  1  0.66666700  0.33333300  0.25000200  1
  Tl  Tl0  1  0.13581068  0.27162236  0.25000200  1
  Tl  Tl1  1  0.72837864  0.86418832  0.25000200  1
  Tl  Tl2  1  0.13580968  0.86418832  0.25000200  1
  Tl  Tl3  1  0.86418932  0.72837864  0.75000100  1
  Tl  Tl4  1  0.27162136  0.13580968  0.75000100  1
  Tl  Tl5  1  0.86418932  0.13580968  0.75000100  1
loop_
_geom_bond_atom_site_label_1
_geom_bond_atom_site_label_2
_geom_bond_distance
_geom_bond_site_symmetry_2
Rb0 Tl0 3.839609 1_555
Rb0 Tl0 3.839616 1_556
Rb0 Tl2 3.839619 1_555
Rb0 Tl1 3.839620 1_555
Rb0 Tl2 3.839626 1_556
Rb0 Tl1 3.839627 1_556
Rb0 Tl4 4.155134 1_565
Rb0 Tl5 4.155139 1_455
Rb0 Tl3 4.155139 1_455
Rb0 Tl5 4.155139 1_565
Rb0 Tl3 4.155139 1_555
Rb0 Tl4 4.155142 1_555
Rb1 Tl3 3.839619 1_555
Rb1 Tl5 3.839619 1_555
Rb1 Tl4 3.839620 1_555
Rb1 Tl3 3.839626 1_554
Rb1 Tl5 3.839626 1_554
Rb1 Tl4 3.839627 1_554
Rb1 Tl0 4.155129 1_655
Rb1 Tl2 4.155131 1_655
Rb1 Tl1 4.155134 1_555
Rb1 Tl1 4.155142 1_545
Rb1 Tl0 4.155146 1_555
Rb1 Tl2 4.155147 1_545
Tl0 Tl5 3.244832 1_455
Tl0 Tl5 3.244840 1_454
Tl0 Tl4 3.244840 1_555
Tl0 Tl4 3.244849 1_554
Tl0 Tl1 3.366704 1_445
Tl0 Tl2 3.366707 1_545
Tl1 Tl3 3.244828 1_555
Tl1 Tl5 3.244832 1_565
Tl1 Tl3 3.244836 1_554
Tl1 Tl5 3.244840 1_564
Tl1 Tl2 3.366687 1_655
Tl2 Tl3 3.244828 1_455
Tl2 Tl4 3.244832 1_565
Tl2 Tl3 3.244836 1_454
Tl2 Tl4 3.244840 1_564
Tl3 Tl5 3.366687 1_565
Tl3 Tl4 3.366691 1_665
Tl4 Tl5 3.366695 1_455
