# generated using pymatgen
data_Ce(BIr)2
_symmetry_space_group_name_H-M   'P 1'
_cell_length_a   5.58681344
_cell_length_b   5.58640917
_cell_length_c   6.13318474
_cell_angle_alpha   105.25599365
_cell_angle_beta   105.25861774
_cell_angle_gamma   114.97025077
_symmetry_Int_Tables_number   1
_chemical_formula_structural   Ce(BIr)2
_chemical_formula_sum   'Ce2 B4 Ir4'
_cell_volume   151.30791182
_cell_formula_units_Z   2
loop_
 _symmetry_equiv_pos_site_id
 _symmetry_equiv_pos_as_xyz
  1  'x, y, z'
loop_
 _atom_site_type_symbol
 _atom_site_label
 _atom_site_symmetry_multiplicity
 _atom_site_fract_x
 _atom_site_fract_y
 _atom_site_fract_z
 _atom_site_occupancy
  Ce  Ce0  1  0.12493851  0.87493606  0.74987624  1
  Ce  Ce1  1  0.87506149  0.12506394  0.25012376  1
  B  B0  1  0.80288832  0.19712179  0.74999506  1
  B  B1  1  0.55293387  0.44708474  0.25000667  1
  B  B2  1  0.44706613  0.55291526  0.74999333  1
  B  B3  1  0.19711168  0.80287821  0.25000494  1
  Ir  Ir0  1  0.75484688  0.50488806  0.00967426  1
  Ir  Ir1  1  0.50488466  0.75484942  0.50967087  1
  Ir  Ir2  1  0.24515312  0.49511194  0.99032574  1
  Ir  Ir3  1  0.49511534  0.24515058  0.49032913  1
loop_
_geom_bond_atom_site_label_1
_geom_bond_atom_site_label_2
_geom_bond_distance
_geom_bond_site_symmetry_2
Ce0 Ir1 3.074443 1_455
Ce0 Ir2 3.074789 1_565
Ce0 Ir1 3.074803 1_555
Ce0 Ir2 3.075182 1_555
Ce0 Ir3 3.307954 1_565
Ce0 Ir3 3.308417 1_455
Ce0 Ir0 3.308515 1_456
Ce0 Ir0 3.308982 1_566
Ce1 Ir3 3.074443 1_655
Ce1 Ir0 3.074789 1_545
Ce1 Ir3 3.074803 1_555
Ce1 Ir0 3.075182 1_555
Ce1 Ir1 3.307954 1_545
Ce1 Ir1 3.308417 1_655
Ce1 Ir2 3.308515 1_654
Ce1 Ir2 3.308982 1_544
B0 Ir1 2.089901 1_545
B0 Ir2 2.089951 1_655
B0 Ir3 2.176673 1_555
B0 Ir0 2.176736 1_556
B0 Ce0 3.034944 1_645
B0 Ce1 3.140384 1_555
B0 Ce1 3.141544 1_556
B0 Ce0 3.438785 1_655
B0 Ce0 3.439107 1_545
B1 Ir3 2.089835 1_555
B1 Ir0 2.089878 1_555
B1 Ir1 2.176707 1_555
B1 Ir2 2.176746 1_554
B1 Ce1 3.034532 1_555
B1 Ce0 3.140427 1_655
B1 Ce0 3.141600 1_544
B1 Ce1 3.439003 1_565
B1 Ce1 3.439291 1_455
B2 Ir1 2.089835 1_555
B2 Ir2 2.089878 1_555
B2 Ir3 2.176707 1_555
B2 Ir0 2.176746 1_556
B2 Ce0 3.034532 1_555
B2 Ce1 3.140427 1_455
B2 Ce1 3.141600 1_566
B2 Ce0 3.439003 1_545
B2 Ce0 3.439291 1_655
B3 Ir3 2.089901 1_565
B3 Ir0 2.089951 1_455
B3 Ir1 2.176673 1_555
B3 Ir2 2.176736 1_554
B3 Ce1 3.034944 1_465
B3 Ce0 3.140384 1_555
B3 Ce0 3.141544 1_554
B3 Ce1 3.438785 1_455
B3 Ce1 3.439107 1_565
