# generated using pymatgen
data_Fe10O9F11
_symmetry_space_group_name_H-M   'P 1'
_cell_length_a   4.81994615
_cell_length_b   4.81994615
_cell_length_c   15.35721011
_cell_angle_alpha   89.77889235
_cell_angle_beta   89.77889235
_cell_angle_gamma   94.69940696
_symmetry_Int_Tables_number   1
_chemical_formula_structural   Fe10O9F11
_chemical_formula_sum   'Fe10 O9 F11'
_cell_volume   355.57170879
_cell_formula_units_Z   1
loop_
 _symmetry_equiv_pos_site_id
 _symmetry_equiv_pos_as_xyz
  1  'x, y, z'
loop_
 _atom_site_type_symbol
 _atom_site_label
 _atom_site_symmetry_multiplicity
 _atom_site_fract_x
 _atom_site_fract_y
 _atom_site_fract_z
 _atom_site_occupancy
  Fe  Fe0  1  0.00612000  0.00641800  0.80316500  1
  Fe  Fe1  1  0.00055300  0.99944700  0.00000000  1
  Fe  Fe2  1  0.99358200  0.99388000  0.19683500  1
  Fe  Fe3  1  0.04229500  0.02057000  0.40404500  1
  Fe  Fe4  1  0.97943000  0.95770500  0.59595500  1
  Fe  Fe5  1  0.50126000  0.50149200  0.90459100  1
  Fe  Fe6  1  0.49436200  0.48311200  0.29028200  1
  Fe  Fe7  1  0.49850800  0.49874000  0.09540900  1
  Fe  Fe8  1  0.46119500  0.53880500  0.50000000  1
  Fe  Fe9  1  0.51688800  0.50563800  0.70971800  1
  O  O0  1  0.18738600  0.81261400  0.50000000  1
  O  O1  1  0.70962500  0.70624500  0.79962800  1
  O  O2  1  0.69607900  0.69603500  0.00028200  1
  O  O3  1  0.69973800  0.69703600  0.20324300  1
  O  O4  1  0.67734400  0.67774600  0.59979800  1
  O  O5  1  0.30296400  0.30026200  0.79675700  1
  O  O6  1  0.30396500  0.30392100  0.99971800  1
  O  O7  1  0.29375500  0.29037500  0.20037200  1
  O  O8  1  0.32225400  0.32265600  0.40020200  1
  F  F0  1  0.20643200  0.79986800  0.89239400  1
  F  F1  1  0.20013200  0.79356800  0.10760600  1
  F  F2  1  0.19457800  0.80946500  0.30444600  1
  F  F3  1  0.19053500  0.80542200  0.69555400  1
  F  F4  1  0.70604900  0.71716200  0.40111400  1
  F  F5  1  0.28283800  0.29395100  0.59888600  1
  F  F6  1  0.80004500  0.20566000  0.89240300  1
  F  F7  1  0.81582900  0.18985900  0.30640800  1
  F  F8  1  0.79434000  0.19995500  0.10759700  1
  F  F9  1  0.81014100  0.18417100  0.69359200  1
  F  F10  1  0.81177700  0.18822300  0.50000000  1
loop_
_geom_bond_atom_site_label_1
_geom_bond_atom_site_label_2
_geom_bond_distance
_geom_bond_site_symmetry_2
Fe0 O5 1.930940 1_555
Fe0 O1 1.949600 1_445
Fe1 O6 1.985108 1_564
Fe1 O2 1.985108 1_455
Fe2 O3 1.930940 1_555
Fe2 O7 1.949600 1_665
Fe3 O8 1.902935 1_555
Fe3 O0 1.943362 1_545
Fe4 O4 1.902935 1_555
Fe4 O0 1.943362 1_655
Fe5 O6 1.943062 1_555
Fe5 O2 1.948740 1_556
Fe5 O1 2.096132 1_555
Fe5 O5 2.114095 1_555
Fe6 O7 1.891420 1_555
Fe6 O3 1.908319 1_555
Fe6 O8 2.002458 1_555
Fe7 O2 1.943062 1_555
Fe7 O6 1.948740 1_554
Fe7 O7 2.096132 1_555
Fe7 O3 2.114095 1_555
Fe8 O0 1.941351 1_555
Fe8 O4 1.946466 1_555
Fe8 O8 1.946466 1_555
Fe9 O1 1.891420 1_555
Fe9 O5 1.908319 1_555
Fe9 O4 2.002458 1_555
F0 Fe0 1.989533 1_565
F0 Fe5 2.111309 1_555
F0 Fe1 2.190195 1_556
F1 Fe2 1.989533 1_455
F1 Fe7 2.111309 1_555
F1 Fe1 2.190195 1_555
F2 Fe3 2.009819 1_565
F2 Fe2 2.145196 1_455
F2 Fe6 2.232075 1_555
F3 Fe4 2.009819 1_455
F3 Fe0 2.145196 1_565
F3 Fe9 2.232075 1_555
F4 Fe8 2.061043 1_555
F4 Fe3 2.092848 1_665
F4 Fe6 2.247297 1_555
F5 Fe8 2.061043 1_555
F5 Fe4 2.092848 1_445
F5 Fe9 2.247297 1_555
F6 Fe0 1.985675 1_655
F6 Fe5 2.116277 1_555
F6 Fe1 2.193022 1_646
F7 Fe3 2.062696 1_655
F7 Fe2 2.142819 1_545
F7 Fe6 2.195254 1_555
F8 Fe2 1.985675 1_545
F8 Fe7 2.116277 1_555
F8 Fe1 2.193022 1_645
F9 Fe4 2.062696 1_545
F9 Fe0 2.142819 1_655
F9 Fe9 2.195254 1_555
F10 Fe3 2.050042 1_655
F10 Fe4 2.050042 1_545
F10 Fe8 2.485685 1_555
