# generated using pymatgen
data_Li3Pt
_symmetry_space_group_name_H-M   'P 1'
_cell_length_a   4.25311466
_cell_length_b   4.25311466
_cell_length_c   4.25311466
_cell_angle_alpha   60.00000000
_cell_angle_beta   60.00000000
_cell_angle_gamma   60.00000000
_symmetry_Int_Tables_number   1
_chemical_formula_structural   Li3Pt
_chemical_formula_sum   'Li3 Pt1'
_cell_volume   54.40092403
_cell_formula_units_Z   1
loop_
 _symmetry_equiv_pos_site_id
 _symmetry_equiv_pos_as_xyz
  1  'x, y, z'
loop_
 _atom_site_type_symbol
 _atom_site_label
 _atom_site_symmetry_multiplicity
 _atom_site_fract_x
 _atom_site_fract_y
 _atom_site_fract_z
 _atom_site_occupancy
  Li  Li0  1  -0.00000000  -0.00000000  0.00000000  1
  Li  Li1  1  0.49999900  0.49999900  0.49999900  1
  Li  Li2  1  0.25000100  0.25000100  0.25000100  1
  Pt  Pt0  1  0.75000000  0.75000000  0.75000000  1
loop_
_geom_bond_atom_site_label_1
_geom_bond_atom_site_label_2
_geom_bond_distance
_geom_bond_site_symmetry_2
Li0 Li2 2.604487 1_554
Li0 Li2 2.604487 1_545
Li0 Li2 2.604487 1_455
Li0 Pt0 2.604490 1_444
Li0 Pt0 2.604490 1_445
Li0 Pt0 2.604490 1_544
Li0 Pt0 2.604490 1_454
Li0 Li2 2.604501 1_555
Li1 Li2 2.604469 1_555
Li1 Pt0 2.604487 1_455
Li1 Pt0 2.604487 1_545
Li1 Pt0 2.604487 1_554
Li1 Li2 2.604497 1_655
Li1 Li2 2.604497 1_556
Li1 Li2 2.604497 1_565
Li1 Pt0 2.604501 1_555
Li2 Pt0 3.007400 1_545
Li2 Pt0 3.007400 1_554
Li2 Pt0 3.007400 1_455
Li2 Pt0 3.007412 1_454
Li2 Pt0 3.007412 1_445
Li2 Pt0 3.007412 1_544
