# generated using pymatgen
data_LiSnIr2
_symmetry_space_group_name_H-M   'P 1'
_cell_length_a   4.36360587
_cell_length_b   4.36360587
_cell_length_c   4.36360587
_cell_angle_alpha   60.00000000
_cell_angle_beta   60.00000000
_cell_angle_gamma   60.00000000
_symmetry_Int_Tables_number   1
_chemical_formula_structural   LiSnIr2
_chemical_formula_sum   'Li1 Sn1 Ir2'
_cell_volume   58.75185098
_cell_formula_units_Z   1
loop_
 _symmetry_equiv_pos_site_id
 _symmetry_equiv_pos_as_xyz
  1  'x, y, z'
loop_
 _atom_site_type_symbol
 _atom_site_label
 _atom_site_symmetry_multiplicity
 _atom_site_fract_x
 _atom_site_fract_y
 _atom_site_fract_z
 _atom_site_occupancy
  Li  Li0  1  0.25000100  0.25000100  0.25000100  1
  Sn  Sn0  1  0.75000200  0.75000200  0.75000200  1
  Ir  Ir0  1  -0.00000000  -0.00000000  -0.00000000  1
  Ir  Ir1  1  0.50000000  0.50000000  0.50000000  1
loop_
_geom_bond_atom_site_label_1
_geom_bond_atom_site_label_2
_geom_bond_distance
_geom_bond_site_symmetry_2
Ir0 Sn0 2.672131 1_444
Ir0 Li0 2.672148 1_455
Ir0 Li0 2.672148 1_554
Ir0 Li0 2.672148 1_545
Ir0 Sn0 2.672159 1_445
Ir0 Sn0 2.672159 1_454
Ir0 Sn0 2.672159 1_544
Ir0 Li0 2.672163 1_555
Ir1 Li0 2.672141 1_555
Ir1 Sn0 2.672145 1_455
Ir1 Sn0 2.672145 1_554
Ir1 Sn0 2.672145 1_545
Ir1 Li0 2.672156 1_556
Ir1 Li0 2.672156 1_565
Ir1 Li0 2.672156 1_655
Ir1 Sn0 2.672173 1_555
