# generated using pymatgen
data_Na4MnO4
_symmetry_space_group_name_H-M   'P 1'
_cell_length_a   8.48364261
_cell_length_b   5.77834219
_cell_length_c   5.54892526
_cell_angle_alpha   67.86678358
_cell_angle_beta   109.28149500
_cell_angle_gamma   102.41028916
_symmetry_Int_Tables_number   1
_chemical_formula_structural   Na4MnO4
_chemical_formula_sum   'Na8 Mn2 O8'
_cell_volume   236.56014306
_cell_formula_units_Z   2
loop_
 _symmetry_equiv_pos_site_id
 _symmetry_equiv_pos_as_xyz
  1  'x, y, z'
loop_
 _atom_site_type_symbol
 _atom_site_label
 _atom_site_symmetry_multiplicity
 _atom_site_fract_x
 _atom_site_fract_y
 _atom_site_fract_z
 _atom_site_occupancy
  Na  Na0  1  0.18224495  0.00162862  0.64438678  1
  Na  Na1  1  0.13127543  0.50873445  0.11434710  1
  Na  Na2  1  0.31421992  0.55204077  0.67618638  1
  Na  Na3  1  0.36252224  0.04671526  0.20415888  1
  Na  Na4  1  0.57561391  0.04335208  0.73583079  1
  Na  Na5  1  0.72334316  0.52762473  0.92203587  1
  Na  Na6  1  0.77198353  0.02920744  0.39430542  1
  Na  Na7  1  0.91921939  0.51100466  0.58159253  1
  Mn  Mn0  1  0.50130910  0.56024789  0.30890255  1
  Mn  Mn1  1  0.99359351  0.99463672  0.00911140  1
  O  O0  1  0.13062115  0.24841000  0.86540065  1
  O  O1  1  0.10345758  0.78561629  0.32270106  1
  O  O2  1  0.39121621  0.76910440  0.99562741  1
  O  O3  1  0.36455750  0.30640037  0.45335536  1
  O  O4  1  0.54883020  0.75694761  0.51292579  1
  O  O5  1  0.65752807  0.38456957  0.32369729  1
  O  O6  1  0.94618736  0.79872429  0.80441172  1
  O  O7  1  0.83740479  0.17101085  0.99306503  1
loop_
_geom_bond_atom_site_label_1
_geom_bond_atom_site_label_2
_geom_bond_distance
_geom_bond_site_symmetry_2
Na0 O3 2.263312 1_555
Na0 O2 2.348513 1_545
Na0 O6 2.356765 1_445
Na0 O0 2.381218 1_555
Na0 O1 2.392350 1_545
Na1 O6 2.325326 1_454
Na1 O1 2.385034 1_555
Na1 O3 2.387668 1_555
Na1 O0 2.393351 1_554
Na1 O2 2.519353 1_554
Na1 O7 2.875254 1_454
Na2 O0 2.263629 1_555
Na2 O4 2.356633 1_555
Na2 O1 2.364800 1_555
Na2 O3 2.378578 1_555
Na2 O2 2.387525 1_555
Na3 O4 2.329083 1_545
Na3 O0 2.377957 1_554
Na3 O3 2.387593 1_555
Na3 O2 2.392483 1_544
Na3 O1 2.514161 1_545
Na3 O5 2.879963 1_555
Na4 O3 2.343980 1_555
Na4 O7 2.347280 1_555
Na4 O4 2.348520 1_545
Na4 O2 2.395640 1_545
Na4 O5 2.581338 1_555
Na5 O5 2.279862 1_556
Na5 O6 2.285957 1_555
Na5 O7 2.308923 1_555
Na5 O4 2.336270 1_555
Na6 O7 2.276503 1_554
Na6 O4 2.292332 1_545
Na6 O5 2.304852 1_555
Na6 O6 2.340433 1_545
Na7 O0 2.345796 1_655
Na7 O5 2.345831 1_555
Na7 O6 2.354509 1_555
Na7 O1 2.392452 1_655
Na7 O7 2.575854 1_555
Mn0 O3 1.771089 1_555
Mn0 O2 1.783830 1_554
Mn0 O4 1.790888 1_555
Mn0 O5 1.799243 1_555
Mn1 O0 1.770870 1_664
Mn1 O1 1.784512 1_655
Mn1 O6 1.790252 1_554
Mn1 O7 1.799026 1_564
