# generated using pymatgen
data_Ce3AlCrS7
_symmetry_space_group_name_H-M   'P 1'
_cell_length_a   10.05084603
_cell_length_b   10.05084603
_cell_length_c   6.02874600
_cell_angle_alpha   90.00000000
_cell_angle_beta   90.00000000
_cell_angle_gamma   120.00000020
_symmetry_Int_Tables_number   1
_chemical_formula_structural   Ce3AlCrS7
_chemical_formula_sum   'Ce6 Al2 Cr2 S14'
_cell_volume   527.42760635
_cell_formula_units_Z   2
loop_
 _symmetry_equiv_pos_site_id
 _symmetry_equiv_pos_as_xyz
  1  'x, y, z'
loop_
 _atom_site_type_symbol
 _atom_site_label
 _atom_site_symmetry_multiplicity
 _atom_site_fract_x
 _atom_site_fract_y
 _atom_site_fract_z
 _atom_site_occupancy
  Ce  Ce0  1  0.14094400  0.37121200  0.24382400  1
  Ce  Ce1  1  0.85905600  0.62878800  0.74382400  1
  Ce  Ce2  1  0.62878800  0.76973200  0.24382400  1
  Ce  Ce3  1  0.23026800  0.85905600  0.24382400  1
  Ce  Ce4  1  0.76973200  0.14094400  0.74382400  1
  Ce  Ce5  1  0.37121200  0.23026800  0.74382400  1
  Al  Al0  1  0.33333300  0.66666700  0.66525500  1
  Al  Al1  1  0.66666700  0.33333300  0.16525500  1
  Cr  Cr0  1  0.00000000  0.00000000  0.02732900  1
  Cr  Cr1  1  0.00000000  0.00000000  0.52732900  1
  S  S0  1  0.33333300  0.66666700  0.03562700  1
  S  S1  1  0.66666700  0.33333300  0.53562700  1
  S  S2  1  0.42078400  0.51636200  0.51664100  1
  S  S3  1  0.57921600  0.48363800  0.01664100  1
  S  S4  1  0.48363800  0.90442200  0.51664100  1
  S  S5  1  0.09557800  0.57921600  0.51664100  1
  S  S6  1  0.90442200  0.42078400  0.01664100  1
  S  S7  1  0.51636200  0.09557800  0.01664100  1
  S  S8  1  0.08938000  0.23185200  0.78372000  1
  S  S9  1  0.91062000  0.76814800  0.28372000  1
  S  S10  1  0.76814800  0.85752800  0.78372000  1
  S  S11  1  0.14247200  0.91062000  0.78372000  1
  S  S12  1  0.85752800  0.08938000  0.28372000  1
  S  S13  1  0.23185200  0.14247200  0.28372000  1
loop_
_geom_bond_atom_site_label_1
_geom_bond_atom_site_label_2
_geom_bond_distance
_geom_bond_site_symmetry_2
Ce0 S12 2.850808 1_455
Ce0 S5 2.870020 1_555
Ce0 S13 2.877303 1_555
Ce0 S0 2.896673 1_555
Ce0 S2 2.939576 1_555
Ce0 S6 2.993304 1_455
Ce0 S8 3.032959 1_554
Ce0 S8 3.478353 1_555
Ce1 S11 2.850808 1_655
Ce1 S6 2.870020 1_556
Ce1 S10 2.877303 1_555
Ce1 S1 2.896673 1_555
Ce1 S3 2.939576 1_556
Ce1 S5 2.993304 1_655
Ce1 S9 3.032959 1_555
Ce1 S9 3.478353 1_556
Ce2 S9 2.850808 1_555
Ce2 S2 2.870020 1_555
Ce2 S12 2.877303 1_565
Ce2 S0 2.896674 1_555
Ce2 S4 2.939576 1_555
Ce2 S3 2.993304 1_555
Ce2 S10 3.032959 1_554
Ce2 S10 3.478353 1_555
Ce3 S13 2.850808 1_565
Ce3 S4 2.870020 1_555
Ce3 S9 2.877303 1_455
Ce3 S0 2.896666 1_555
Ce3 S5 2.939576 1_555
Ce3 S7 2.993304 1_565
Ce3 S11 3.032959 1_554
Ce3 S11 3.478353 1_555
Ce4 S10 2.850808 1_545
Ce4 S7 2.870020 1_556
Ce4 S8 2.877303 1_655
Ce4 S1 2.896666 1_555
Ce4 S6 2.939576 1_556
Ce4 S4 2.993304 1_545
Ce4 S12 3.032959 1_555
Ce4 S12 3.478353 1_556
Ce5 S8 2.850808 1_555
Ce5 S3 2.870020 1_556
Ce5 S11 2.877303 1_545
Ce5 S1 2.896674 1_555
Ce5 S7 2.939576 1_556
Ce5 S2 2.993304 1_555
Ce5 S13 3.032959 1_555
Ce5 S13 3.478353 1_556
Al0 S0 2.232879 1_556
Al0 S5 2.277123 1_555
Al0 S4 2.277124 1_555
Al0 S2 2.277131 1_555
Al1 S1 2.232879 1_555
Al1 S6 2.277123 1_555
Al1 S7 2.277124 1_555
Al1 S3 2.277131 1_555
Cr0 S10 2.510158 1_444
Cr0 S8 2.510158 1_554
Cr0 S11 2.510158 1_544
Cr0 S13 2.556009 1_555
Cr0 S9 2.556009 1_445
Cr0 S12 2.556009 1_455
Cr1 S13 2.510158 1_555
Cr1 S9 2.510158 1_445
Cr1 S12 2.510158 1_455
Cr1 S10 2.556009 1_445
Cr1 S8 2.556009 1_555
Cr1 S11 2.556009 1_545
