# generated using pymatgen
data_Li5Mn6(BO3)6
_symmetry_space_group_name_H-M   'P 1'
_cell_length_a   8.84757138
_cell_length_b   8.84757138
_cell_length_c   8.23058553
_cell_angle_alpha   62.82799452
_cell_angle_beta   62.82799452
_cell_angle_gamma   42.20356148
_symmetry_Int_Tables_number   1
_chemical_formula_structural   Li5Mn6(BO3)6
_chemical_formula_sum   'Li5 Mn6 B6 O18'
_cell_volume   377.41488756
_cell_formula_units_Z   1
loop_
 _symmetry_equiv_pos_site_id
 _symmetry_equiv_pos_as_xyz
  1  'x, y, z'
loop_
 _atom_site_type_symbol
 _atom_site_label
 _atom_site_symmetry_multiplicity
 _atom_site_fract_x
 _atom_site_fract_y
 _atom_site_fract_z
 _atom_site_occupancy
  Li  Li0  1  0.39082200  0.39082200  0.01527900  1
  Li  Li1  1  0.89120200  0.89120200  0.01957900  1
  Li  Li2  1  0.60209500  0.60209500  0.27731800  1
  Li  Li3  1  0.75926600  0.75926600  0.69922600  1
  Li  Li4  1  0.25947300  0.25947300  0.70051400  1
  Mn  Mn0  1  0.69252300  0.18864700  0.63154400  1
  Mn  Mn1  1  0.18864700  0.69252300  0.63154400  1
  Mn  Mn2  1  0.99264300  0.48631400  0.36883700  1
  Mn  Mn3  1  0.48631400  0.99264300  0.36883700  1
  Mn  Mn4  1  0.31659100  0.82092500  0.99996600  1
  Mn  Mn5  1  0.82092500  0.31659100  0.99996600  1
  B  B0  1  0.41580100  0.41580100  0.33254300  1
  B  B1  1  0.90949400  0.90949400  0.34021800  1
  B  B2  1  0.50841500  0.99919600  0.99220100  1
  B  B3  1  0.58216800  0.58216800  0.66837800  1
  B  B4  1  0.99919600  0.50841500  0.99220100  1
  B  B5  1  0.08430800  0.08430800  0.67503700  1
  O  O0  1  0.56002400  0.06020400  0.07572200  1
  O  O1  1  0.06020400  0.56002400  0.07572200  1
  O  O2  1  0.47004600  0.47004600  0.13957800  1
  O  O3  1  0.96815300  0.96815300  0.14918100  1
  O  O4  1  0.81369100  0.81369100  0.41285300  1
  O  O5  1  0.31999100  0.31999100  0.41694300  1
  O  O6  1  0.42861800  0.88962500  0.10076300  1
  O  O7  1  0.88962500  0.42861800  0.10076300  1
  O  O8  1  0.46018600  0.46018600  0.43978300  1
  O  O9  1  0.94367900  0.94367900  0.46410900  1
  O  O10  1  0.54363100  0.04734300  0.79767600  1
  O  O11  1  0.04734300  0.54363100  0.79767600  1
  O  O12  1  0.63636600  0.63636600  0.47504900  1
  O  O13  1  0.14088900  0.14088900  0.48484400  1
  O  O14  1  0.48492400  0.48492400  0.74595900  1
  O  O15  1  0.98750600  0.98750600  0.74974500  1
  O  O16  1  0.62173600  0.62173600  0.78247600  1
  O  O17  1  0.12220200  0.12220200  0.79402200  1
loop_
_geom_bond_atom_site_label_1
_geom_bond_atom_site_label_2
_geom_bond_distance
_geom_bond_site_symmetry_2
Li0 O1 1.977019 1_555
Li0 O0 1.977019 1_555
Li0 O14 1.988909 1_554
Li0 O2 2.016696 1_555
Li1 O0 1.984534 1_565
Li1 O1 1.984534 1_655
Li1 O15 2.000832 1_554
Li1 O3 2.019462 1_555
Li2 O7 1.953219 1_555
Li2 O6 1.953219 1_555
Li2 O12 1.967243 1_555
Li2 O8 2.051728 1_555
Li3 O11 2.015664 1_655
Li3 O10 2.015664 1_565
Li3 O16 2.025174 1_555
Li3 O4 2.071133 1_555
Li4 O10 1.989359 1_555
Li4 O11 1.989359 1_555
Li4 O17 2.005074 1_555
Li4 O5 2.040278 1_555
Mn0 O9 2.080930 1_545
Mn0 O10 2.097986 1_555
Mn0 O8 2.161453 1_555
Mn0 O14 2.161827 1_555
Mn0 O15 2.186697 1_545
Mn1 O9 2.080930 1_455
Mn1 O11 2.097986 1_555
Mn1 O8 2.161453 1_555
Mn1 O14 2.161827 1_555
Mn1 O15 2.186697 1_455
Mn2 O1 2.103876 1_655
Mn2 O13 2.124172 1_655
Mn2 O4 2.160548 1_555
Mn2 O12 2.192321 1_555
Mn2 O5 2.216168 1_655
Mn3 O0 2.103876 1_565
Mn3 O13 2.124172 1_565
Mn3 O4 2.160548 1_555
Mn3 O12 2.192321 1_555
Mn3 O5 2.216168 1_565
Mn4 O6 2.035748 1_556
Mn4 O17 2.163413 1_565
Mn4 O2 2.173381 1_556
Mn4 O3 2.182359 1_456
Mn4 O16 2.239952 1_555
Mn5 O7 2.035748 1_556
Mn5 O17 2.163413 1_655
Mn5 O2 2.173381 1_556
Mn5 O3 2.182359 1_546
Mn5 O16 2.239952 1_555
B0 O5 1.381537 1_555
B0 O2 1.389966 1_555
B0 O8 1.396105 1_555
B1 O3 1.385430 1_555
B1 O9 1.386227 1_555
B1 O4 1.390371 1_555
B2 O6 1.372352 1_556
B2 O10 1.400011 1_565
B2 O0 1.401118 1_566
B3 O16 1.381705 1_555
B3 O12 1.392381 1_555
B3 O14 1.407613 1_555
B4 O7 1.372352 1_556
B4 O11 1.400011 1_655
B4 O1 1.401118 1_656
B5 O13 1.375323 1_555
B5 O17 1.396481 1_555
B5 O15 1.403537 1_445
