# generated using pymatgen
data_Li4Mn3Fe(BO3)4
_symmetry_space_group_name_H-M   'P 1'
_cell_length_a   5.27692500
_cell_length_b   6.06409378
_cell_length_c   8.97783758
_cell_angle_alpha   102.55203900
_cell_angle_beta   90.79665436
_cell_angle_gamma   113.56846249
_symmetry_Int_Tables_number   1
_chemical_formula_structural   Li4Mn3Fe(BO3)4
_chemical_formula_sum   'Li4 Mn3 Fe1 B4 O12'
_cell_volume   255.39367980
_cell_formula_units_Z   1
loop_
 _symmetry_equiv_pos_site_id
 _symmetry_equiv_pos_as_xyz
  1  'x, y, z'
loop_
 _atom_site_type_symbol
 _atom_site_label
 _atom_site_symmetry_multiplicity
 _atom_site_fract_x
 _atom_site_fract_y
 _atom_site_fract_z
 _atom_site_occupancy
  Li  Li0  1  0.59664900  0.32617400  0.96528400  1
  Li  Li1  1  0.10043800  0.33136400  0.46754300  1
  Li  Li2  1  0.90379500  0.67154900  0.53389200  1
  Li  Li3  1  0.40336500  0.67213400  0.03320400  1
  Mn  Mn0  1  0.54647300  0.23419000  0.29412000  1
  Mn  Mn1  1  0.04316500  0.23024400  0.79137400  1
  Mn  Mn2  1  0.95416500  0.76592400  0.20706200  1
  Fe  Fe0  1  0.45131400  0.76505900  0.70991100  1
  B  B0  1  0.55809500  0.26034800  0.63306700  1
  B  B1  1  0.93912100  0.73886000  0.86494700  1
  B  B2  1  0.05908200  0.26275500  0.13230900  1
  B  B3  1  0.44245000  0.73849500  0.36921000  1
  O  O0  1  0.62098600  0.17016600  0.75355400  1
  O  O1  1  0.72977600  0.29674900  0.51702200  1
  O  O2  1  0.83170200  0.32451700  0.13497200  1
  O  O3  1  0.33214500  0.32395500  0.63553200  1
  O  O4  1  0.12294100  0.17395700  0.25327000  1
  O  O5  1  0.77356500  0.70157300  0.98302300  1
  O  O6  1  0.22806500  0.29791300  0.01515100  1
  O  O7  1  0.86734300  0.82274600  0.74386100  1
  O  O8  1  0.66908100  0.67529300  0.36525500  1
  O  O9  1  0.17289300  0.68472000  0.86179400  1
  O  O10  1  0.27694300  0.70654400  0.48747500  1
  O  O11  1  0.37644700  0.82476900  0.24716800  1
loop_
_geom_bond_atom_site_label_1
_geom_bond_atom_site_label_2
_geom_bond_distance
_geom_bond_site_symmetry_2
Li0 O6 1.950332 1_556
Li0 O2 1.955378 1_556
Li0 O0 1.961412 1_555
Li0 O5 2.053759 1_555
Li1 O3 1.947747 1_555
Li1 O1 1.950259 1_455
Li1 O4 1.981099 1_555
Li1 O10 2.049281 1_555
Li2 O8 1.952443 1_555
Li2 O10 1.955260 1_655
Li2 O7 1.957298 1_555
Li2 O1 2.051679 1_555
Li3 O5 1.957450 1_554
Li3 O11 1.976563 1_555
Li3 O9 1.981502 1_554
Li3 O6 2.046704 1_555
Mn0 O2 2.085094 1_555
Mn0 O1 2.099287 1_555
Mn0 O4 2.128162 1_555
Mn0 O11 2.213604 1_545
Mn0 O8 2.417338 1_555
Mn1 O3 2.077933 1_555
Mn1 O6 2.103231 1_556
Mn1 O0 2.118321 1_455
Mn1 O7 2.201483 1_445
Mn1 O9 2.487103 1_555
Mn2 O8 2.078397 1_555
Mn2 O5 2.101029 1_554
Mn2 O11 2.123319 1_655
Mn2 O4 2.206580 1_665
Mn2 O2 2.419397 1_555
Fe0 O9 2.006820 1_555
Fe0 O10 2.083353 1_555
Fe0 O7 2.087046 1_555
Fe0 O0 2.191581 1_565
Fe0 O3 2.421408 1_555
B0 O1 1.386062 1_555
B0 O3 1.391294 1_555
B0 O0 1.404132 1_555
B1 O5 1.382049 1_555
B1 O9 1.396839 1_655
B1 O7 1.402494 1_555
B2 O6 1.385085 1_555
B2 O2 1.391690 1_455
B2 O4 1.404260 1_555
B3 O10 1.381136 1_555
B3 O8 1.392899 1_555
B3 O11 1.407046 1_555
