# generated using pymatgen
data_ThSnRu2
_symmetry_space_group_name_H-M   'P 1'
_cell_length_a   4.79166002
_cell_length_b   4.79166437
_cell_length_c   4.79166510
_cell_angle_alpha   60.00000503
_cell_angle_beta   60.00012526
_cell_angle_gamma   59.99996988
_symmetry_Int_Tables_number   1
_chemical_formula_structural   ThSnRu2
_chemical_formula_sum   'Th1 Sn1 Ru2'
_cell_volume   77.79365465
_cell_formula_units_Z   1
loop_
 _symmetry_equiv_pos_site_id
 _symmetry_equiv_pos_as_xyz
  1  'x, y, z'
loop_
 _atom_site_type_symbol
 _atom_site_label
 _atom_site_symmetry_multiplicity
 _atom_site_fract_x
 _atom_site_fract_y
 _atom_site_fract_z
 _atom_site_occupancy
  Th  Th0  1  0.75000000  0.75000000  0.74999900  1
  Sn  Sn0  1  0.24999900  0.24999900  0.24999900  1
  Ru  Ru0  1  -0.00000000  0.00000000  0.00000000  1
  Ru  Ru1  1  0.50000100  0.50000000  0.50000100  1
loop_
_geom_bond_atom_site_label_1
_geom_bond_atom_site_label_2
_geom_bond_distance
_geom_bond_site_symmetry_2
Sn0 Th0 3.388210 1_454
Sn0 Th0 3.388214 1_445
Sn0 Th0 3.388217 1_545
Sn0 Th0 3.388218 1_544
Sn0 Th0 3.388224 1_455
Sn0 Th0 3.388228 1_554
Ru0 Sn0 2.934270 1_555
Ru0 Th0 2.934282 1_454
Ru0 Th0 2.934283 1_544
Ru0 Th0 2.934283 1_445
Ru0 Sn0 2.934286 1_545
Ru0 Th0 2.934286 1_444
Ru0 Sn0 2.934287 1_455
Ru0 Sn0 2.934291 1_554
Ru1 Th0 2.934270 1_555
Ru1 Sn0 2.934275 1_655
Ru1 Sn0 2.934278 1_565
Ru1 Sn0 2.934279 1_556
Ru1 Th0 2.934282 1_545
Ru1 Th0 2.934287 1_455
Ru1 Th0 2.934295 1_554
Ru1 Sn0 2.934301 1_555
