# generated using pymatgen
data_Ca2Al2Si6SnO22
_symmetry_space_group_name_H-M   'P 1'
_cell_length_a   8.04093400
_cell_length_b   7.42303500
_cell_length_c   16.82057228
_cell_angle_alpha   77.05182632
_cell_angle_beta   90.00000000
_cell_angle_gamma   90.00000000
_symmetry_Int_Tables_number   1
_chemical_formula_structural   Ca2Al2Si6SnO22
_chemical_formula_sum   'Ca4 Al4 Si12 Sn2 O44'
_cell_volume   978.46030715
_cell_formula_units_Z   2
loop_
 _symmetry_equiv_pos_site_id
 _symmetry_equiv_pos_as_xyz
  1  'x, y, z'
loop_
 _atom_site_type_symbol
 _atom_site_label
 _atom_site_symmetry_multiplicity
 _atom_site_fract_x
 _atom_site_fract_y
 _atom_site_fract_z
 _atom_site_occupancy
  Ca  Ca0  1  0.18318200  0.99727900  0.81741700  1
  Ca  Ca1  1  0.68318200  0.00272100  0.68258300  1
  Ca  Ca2  1  0.81681800  0.00272100  0.18258300  1
  Ca  Ca3  1  0.31681800  0.99727900  0.31741700  1
  Al  Al0  1  0.49317400  0.31154800  0.78580900  1
  Al  Al1  1  0.99317400  0.68845200  0.71419100  1
  Al  Al2  1  0.50682600  0.68845200  0.21419100  1
  Al  Al3  1  0.00682600  0.31154800  0.28580900  1
  Si  Si0  1  0.33629400  0.28302300  0.96063700  1
  Si  Si1  1  0.83629400  0.71697700  0.53936300  1
  Si  Si2  1  0.66370600  0.71697700  0.03936300  1
  Si  Si3  1  0.16370600  0.28302300  0.46063700  1
  Si  Si4  1  0.35368200  0.68347200  0.66331200  1
  Si  Si5  1  0.85368200  0.31652800  0.83668800  1
  Si  Si6  1  0.64631800  0.31652800  0.33668800  1
  Si  Si7  1  0.14631800  0.68347200  0.16331200  1
  Si  Si8  1  0.29059100  0.66802100  0.99639000  1
  Si  Si9  1  0.79059100  0.33197900  0.50361000  1
  Si  Si10  1  0.70940900  0.33197900  0.00361000  1
  Si  Si11  1  0.20940900  0.66802100  0.49639000  1
  Sn  Sn0  1  0.50000000  0.00000000  0.50000000  1
  Sn  Sn1  1  0.00000000  0.00000000  0.00000000  1
  O  O0  1  0.29964000  0.15347800  0.51596700  1
  O  O1  1  0.79964000  0.84652200  0.98403300  1
  O  O2  1  0.70036000  0.84652200  0.48403300  1
  O  O3  1  0.20036000  0.15347800  0.01596700  1
  O  O4  1  0.51726300  0.25817600  0.00777200  1
  O  O5  1  0.01726300  0.74182400  0.49222800  1
  O  O6  1  0.48273700  0.74182400  0.99222800  1
  O  O7  1  0.98273700  0.25817600  0.50777200  1
  O  O8  1  0.20082300  0.76051600  0.71228100  1
  O  O9  1  0.70082300  0.23948400  0.78771900  1
  O  O10  1  0.79917700  0.23948400  0.28771900  1
  O  O11  1  0.29917700  0.76051600  0.21228100  1
  O  O12  1  0.47925300  0.85152700  0.62154500  1
  O  O13  1  0.97925300  0.14847300  0.87845500  1
  O  O14  1  0.52074700  0.14847300  0.37845500  1
  O  O15  1  0.02074700  0.85152700  0.12154500  1
  O  O16  1  0.36230600  0.23746900  0.86973700  1
  O  O17  1  0.86230600  0.76253100  0.63026300  1
  O  O18  1  0.63769400  0.76253100  0.13026300  1
  O  O19  1  0.13769400  0.23746900  0.36973700  1
  O  O20  1  0.16629100  0.83210300  0.95014100  1
  O  O21  1  0.66629100  0.16789700  0.54985900  1
  O  O22  1  0.83370900  0.16789700  0.04985900  1
  O  O23  1  0.33370900  0.83210300  0.45014100  1
  O  O24  1  0.45618700  0.52430700  0.72488500  1
  O  O25  1  0.95618700  0.47569300  0.77511500  1
  O  O26  1  0.54381300  0.47569300  0.27511500  1
  O  O27  1  0.04381300  0.52430700  0.22488500  1
  O  O28  1  0.46594500  0.95910200  0.78182500  1
  O  O29  1  0.96594500  0.04089800  0.71817500  1
  O  O30  1  0.53405500  0.04089800  0.21817500  1
  O  O31  1  0.03405500  0.95910200  0.28182500  1
  O  O32  1  0.41928500  0.12480700  0.73002400  1
  O  O33  1  0.91928500  0.87519300  0.76997600  1
  O  O34  1  0.58071500  0.87519300  0.26997600  1
  O  O35  1  0.08071500  0.12480700  0.23002400  1
  O  O36  1  0.28081800  0.50146000  0.94765500  1
  O  O37  1  0.78081800  0.49854000  0.55234500  1
  O  O38  1  0.71918200  0.49854000  0.05234500  1
  O  O39  1  0.21918200  0.50146000  0.44765500  1
  O  O40  1  0.26271500  0.59546400  0.59236100  1
  O  O41  1  0.76271600  0.40453600  0.90763900  1
  O  O42  1  0.73728500  0.40453600  0.40763900  1
  O  O43  1  0.23728500  0.59546400  0.09236100  1
loop_
_geom_bond_atom_site_label_1
_geom_bond_atom_site_label_2
_geom_bond_distance
_geom_bond_site_symmetry_2
Ca0 O20 2.297636 1_555
Ca0 O13 2.349246 1_465
Ca0 O28 2.384192 1_555
Ca0 O29 2.387567 1_465
Ca0 O32 2.457169 1_565
Ca0 O33 2.506978 1_455
Ca0 O16 2.594429 1_565
Ca0 O8 2.762096 1_555
Ca1 O21 2.297636 1_555
Ca1 O12 2.349246 1_545
Ca1 O29 2.384192 1_555
Ca1 O28 2.387567 1_545
Ca1 O33 2.457169 1_545
Ca1 O32 2.506978 1_555
Ca1 O17 2.594429 1_545
Ca1 O9 2.762096 1_555
Ca2 O22 2.297636 1_555
Ca2 O15 2.349246 1_645
Ca2 O30 2.384192 1_555
Ca2 O31 2.387567 1_645
Ca2 O34 2.457169 1_545
Ca2 O35 2.506978 1_655
Ca2 O18 2.594429 1_545
Ca2 O10 2.762096 1_555
Ca3 O23 2.297636 1_555
Ca3 O14 2.349246 1_565
Ca3 O31 2.384192 1_555
Ca3 O30 2.387567 1_565
Ca3 O35 2.457169 1_565
Ca3 O34 2.506978 1_555
Ca3 O19 2.594429 1_565
Ca3 O11 2.762096 1_555
Al0 O24 1.705161 1_555
Al0 O16 1.747792 1_555
Al0 O9 1.751387 1_555
Al0 O32 1.933359 1_555
Al1 O25 1.705161 1_555
Al1 O17 1.747792 1_555
Al1 O8 1.751387 1_655
Al1 O33 1.933359 1_555
Al2 O26 1.705161 1_555
Al2 O18 1.747792 1_555
Al2 O11 1.751387 1_555
Al2 O34 1.933359 1_555
Al3 O27 1.705161 1_555
Al3 O19 1.747792 1_555
Al3 O10 1.751387 1_455
Al3 O35 1.933359 1_555
O0 Si3 1.607650 1_555
O0 Sn0 2.025532 1_555
O1 Si2 1.607650 1_556
O1 Sn1 2.025532 1_666
O2 Si1 1.607650 1_555
O2 Sn0 2.025532 1_565
O3 Si0 1.607650 1_554
O3 Sn1 2.025532 1_555
O4 Si10 1.635534 1_555
O4 Si0 1.647595 1_554
O5 Si11 1.635534 1_555
O5 Si1 1.647595 1_455
O6 Si8 1.635534 1_555
O6 Si2 1.647595 1_556
O7 Si9 1.635534 1_555
O7 Si3 1.647595 1_655
O8 Si4 1.651482 1_555
O9 Si5 1.651482 1_555
O10 Si6 1.651482 1_555
O11 Si7 1.651482 1_555
O12 Si4 1.636010 1_555
O12 Sn0 2.100604 1_565
O13 Si5 1.636010 1_555
O13 Sn1 2.100604 1_656
O14 Si6 1.636010 1_555
O14 Sn0 2.100604 1_555
O15 Si7 1.636010 1_555
O15 Sn1 2.100604 1_565
O16 Si0 1.651546 1_555
O17 Si1 1.651546 1_555
O18 Si2 1.651546 1_555
O19 Si3 1.651546 1_555
O20 Si8 1.631880 1_555
O20 Sn1 2.124372 1_566
O21 Si9 1.631880 1_555
O21 Sn0 2.124372 1_555
O22 Si10 1.631880 1_555
O22 Sn1 2.124372 1_655
O23 Si11 1.631880 1_555
O23 Sn0 2.124372 1_565
O24 Si4 1.612318 1_555
O25 Si5 1.612318 1_555
O26 Si6 1.612318 1_555
O27 Si7 1.612318 1_555
O28 O32 1.390201 1_565
O29 O33 1.390201 1_545
O30 O34 1.390201 1_545
O31 O35 1.390201 1_565
O36 Si8 1.631265 1_555
O36 Si0 1.648377 1_555
O37 Si9 1.631265 1_555
O37 Si1 1.648377 1_555
O38 Si10 1.631265 1_555
O38 Si2 1.648377 1_555
O39 Si11 1.631265 1_555
O39 Si3 1.648377 1_555
O40 Si11 1.640152 1_555
O40 Si4 1.653935 1_555
O41 Si10 1.640154 1_556
O41 Si5 1.653932 1_555
O42 Si9 1.640152 1_555
O42 Si6 1.653935 1_555
O43 Si8 1.640152 1_554
O43 Si7 1.653935 1_555
