# generated using pymatgen
data_TbMgAu2
_symmetry_space_group_name_H-M   'P 1'
_cell_length_a   4.87920855
_cell_length_b   4.87920855
_cell_length_c   4.87920863
_cell_angle_alpha   59.99989285
_cell_angle_beta   59.99989209
_cell_angle_gamma   59.99989175
_symmetry_Int_Tables_number   1
_chemical_formula_structural   TbMgAu2
_chemical_formula_sum   'Tb1 Mg1 Au2'
_cell_volume   82.13572463
_cell_formula_units_Z   1
loop_
 _symmetry_equiv_pos_site_id
 _symmetry_equiv_pos_as_xyz
  1  'x, y, z'
loop_
 _atom_site_type_symbol
 _atom_site_label
 _atom_site_symmetry_multiplicity
 _atom_site_fract_x
 _atom_site_fract_y
 _atom_site_fract_z
 _atom_site_occupancy
  Tb  Tb0  1  0.75000066  0.75000066  0.75000066  1
  Mg  Mg0  1  0.25000002  0.25000000  0.25000001  1
  Au  Au0  1  0.49999958  0.49999958  0.49999955  1
  Au  Au1  1  -0.00000026  -0.00000025  -0.00000023  1
loop_
_geom_bond_atom_site_label_1
_geom_bond_atom_site_label_2
_geom_bond_distance
_geom_bond_site_symmetry_2
Au0 Tb0 2.987884 1_554
Au0 Tb0 2.987884 1_455
Au0 Tb0 2.987884 1_545
Au0 Mg0 2.987890 1_555
Au0 Mg0 2.987890 1_565
Au0 Mg0 2.987891 1_655
Au0 Mg0 2.987891 1_556
Au0 Tb0 2.987908 1_555
Au1 Tb0 2.987884 1_444
Au1 Mg0 2.987888 1_455
Au1 Mg0 2.987888 1_545
Au1 Mg0 2.987888 1_554
Au1 Tb0 2.987892 1_445
Au1 Tb0 2.987892 1_454
Au1 Tb0 2.987892 1_544
Au1 Mg0 2.987898 1_555
