# generated using pymatgen
data_Tm2PdRu
_symmetry_space_group_name_H-M   'P 1'
_cell_length_a   4.77569862
_cell_length_b   4.77569862
_cell_length_c   4.77569862
_cell_angle_alpha   60.00000000
_cell_angle_beta   60.00000000
_cell_angle_gamma   60.00000000
_symmetry_Int_Tables_number   1
_chemical_formula_structural   Tm2PdRu
_chemical_formula_sum   'Tm2 Pd1 Ru1'
_cell_volume   77.01862100
_cell_formula_units_Z   1
loop_
 _symmetry_equiv_pos_site_id
 _symmetry_equiv_pos_as_xyz
  1  'x, y, z'
loop_
 _atom_site_type_symbol
 _atom_site_label
 _atom_site_symmetry_multiplicity
 _atom_site_fract_x
 _atom_site_fract_y
 _atom_site_fract_z
 _atom_site_occupancy
  Tm  Tm0  1  -0.00000000  0.00000000  0.00000000  1
  Tm  Tm1  1  0.49999900  0.49999900  0.49999900  1
  Pd  Pd0  1  0.25000000  0.25000000  0.25000000  1
  Ru  Ru0  1  0.75000100  0.75000100  0.75000100  1
loop_
_geom_bond_atom_site_label_1
_geom_bond_atom_site_label_2
_geom_bond_distance
_geom_bond_site_symmetry_2
Pd0 Tm1 2.924494 1_555
Pd0 Tm0 2.924506 1_655
Pd0 Tm0 2.924506 1_555
Pd0 Tm0 2.924506 1_556
Pd0 Tm0 2.924506 1_565
Pd0 Tm1 2.924510 1_545
Pd0 Tm1 2.924510 1_455
Pd0 Tm1 2.924510 1_554
Ru0 Tm0 2.924494 1_666
Ru0 Tm1 2.924498 1_556
Ru0 Tm1 2.924498 1_565
Ru0 Tm1 2.924498 1_655
Ru0 Tm0 2.924510 1_656
Ru0 Tm0 2.924510 1_566
Ru0 Tm0 2.924510 1_665
Ru0 Tm1 2.924530 1_555
