# generated using pymatgen
data_AcFeO3
_symmetry_space_group_name_H-M   'P 1'
_cell_length_a   3.95356962
_cell_length_b   3.95356750
_cell_length_c   3.95358451
_cell_angle_alpha   90.00009246
_cell_angle_beta   90.00000000
_cell_angle_gamma   90.00000000
_symmetry_Int_Tables_number   1
_chemical_formula_structural   AcFeO3
_chemical_formula_sum   'Ac1 Fe1 O3'
_cell_volume   61.79731063
_cell_formula_units_Z   1
loop_
 _symmetry_equiv_pos_site_id
 _symmetry_equiv_pos_as_xyz
  1  'x, y, z'
loop_
 _atom_site_type_symbol
 _atom_site_label
 _atom_site_symmetry_multiplicity
 _atom_site_fract_x
 _atom_site_fract_y
 _atom_site_fract_z
 _atom_site_occupancy
  Ac  Ac0  1  -0.00000000  0.00000000  0.00000000  1
  Fe  Fe0  1  0.49999900  0.49999900  0.49999900  1
  O  O0  1  0.49999800  0.49999900  0.99999900  1
  O  O1  1  0.49999800  0.99999900  0.49999800  1
  O  O2  1  0.99999900  0.49999900  0.49999800  1
loop_
_geom_bond_atom_site_label_1
_geom_bond_atom_site_label_2
_geom_bond_distance
_geom_bond_site_symmetry_2
Ac0 O0 2.795587 1_554
Ac0 O2 2.795590 1_455
Ac0 O1 2.795590 1_545
Ac0 O0 2.795592 1_544
Ac0 O0 2.795598 1_454
Ac0 O2 2.795600 1_445
Ac0 O1 2.795601 1_445
Ac0 O1 2.795601 1_544
Ac0 O0 2.795604 1_444
Ac0 O2 2.795605 1_454
Ac0 O2 2.795607 1_444
Ac0 O1 2.795612 1_444
Fe0 O1 1.976784 1_545
Fe0 O1 1.976784 1_555
Fe0 O2 1.976785 1_555
Fe0 O2 1.976785 1_455
Fe0 O0 1.976792 1_555
Fe0 O0 1.976792 1_554
