# generated using pymatgen
data_Li2Mn3(BO3)3
_symmetry_space_group_name_H-M   'P 1'
_cell_length_a   6.30569600
_cell_length_b   8.26725366
_cell_length_c   8.68465511
_cell_angle_alpha   116.70819814
_cell_angle_beta   110.15366850
_cell_angle_gamma   91.97088856
_symmetry_Int_Tables_number   1
_chemical_formula_structural   Li2Mn3(BO3)3
_chemical_formula_sum   'Li4 Mn6 B6 O18'
_cell_volume   369.87780710
_cell_formula_units_Z   2
loop_
 _symmetry_equiv_pos_site_id
 _symmetry_equiv_pos_as_xyz
  1  'x, y, z'
loop_
 _atom_site_type_symbol
 _atom_site_label
 _atom_site_symmetry_multiplicity
 _atom_site_fract_x
 _atom_site_fract_y
 _atom_site_fract_z
 _atom_site_occupancy
  Li  Li0  1  0.36930200  0.30322700  0.28022300  1
  Li  Li1  1  0.60384100  0.98186000  0.69136000  1
  Li  Li2  1  0.07864000  0.98005200  0.69147200  1
  Li  Li3  1  0.78095600  0.72007600  0.02242300  1
  Mn  Mn0  1  0.18969000  0.01155100  0.37106700  1
  Mn  Mn1  1  0.66902300  0.01157800  0.33006500  1
  Mn  Mn2  1  0.01585200  0.38186900  0.99405000  1
  Mn  Mn3  1  0.52104600  0.34662700  0.00683000  1
  Mn  Mn4  1  0.80615800  0.60773600  0.62803000  1
  Mn  Mn5  1  0.32657200  0.65132100  0.68672300  1
  B  B0  1  0.48883900  0.99381500  0.98688900  1
  B  B1  1  0.99062500  0.00165000  0.98926700  1
  B  B2  1  0.06799800  0.32758100  0.66698800  1
  B  B3  1  0.59278500  0.33365800  0.66790600  1
  B  B4  1  0.43056800  0.67057600  0.34163300  1
  B  B5  1  0.92423100  0.67087800  0.34327300  1
  O  O0  1  0.13478200  0.25917200  0.79516000  1
  O  O1  1  0.65865000  0.26116100  0.78904900  1
  O  O2  1  0.00423100  0.21191600  0.48046100  1
  O  O3  1  0.49640200  0.22367900  0.47548000  1
  O  O4  1  0.53685900  0.17689900  0.12276200  1
  O  O5  1  0.05140700  0.19440200  0.08152800  1
  O  O6  1  0.07186400  0.51777700  0.74291200  1
  O  O7  1  0.63234400  0.52914900  0.74821600  1
  O  O8  1  0.48783300  0.59895200  0.46741900  1
  O  O9  1  0.96931700  0.60587200  0.47100600  1
  O  O10  1  0.34795000  0.53991200  0.15275800  1
  O  O11  1  0.86059700  0.54910800  0.15038600  1
  O  O12  1  0.38881000  0.93910800  0.79438700  1
  O  O13  1  0.88410200  0.90037400  0.79185300  1
  O  O14  1  0.45634800  0.85881600  0.40875600  1
  O  O15  1  0.93965700  0.85710500  0.40322200  1
  O  O16  1  0.53751200  0.85724000  0.03611400  1
  O  O17  1  0.03523500  0.90892400  0.09038100  1
loop_
_geom_bond_atom_site_label_1
_geom_bond_atom_site_label_2
_geom_bond_distance
_geom_bond_site_symmetry_2
Li0 O4 1.965916 1_555
Li0 O5 1.975401 1_555
Li0 O3 2.013095 1_555
Li0 O8 2.154781 1_555
Li1 O12 1.962481 1_555
Li1 O13 1.971353 1_555
Li1 O14 2.010286 1_555
Li1 O1 2.037911 1_565
Li2 O12 1.962560 1_555
Li2 O13 1.973880 1_455
Li2 O0 2.029119 1_565
Li2 O15 2.051266 1_455
Li3 O17 1.924630 1_655
Li3 O16 1.944432 1_555
Li3 O7 2.005576 1_554
Li3 O11 2.135703 1_555
Mn0 O17 2.014621 1_545
Mn0 O2 2.120922 1_555
Mn0 O14 2.160364 1_545
Mn0 O15 2.163219 1_445
Mn0 O3 2.183352 1_555
Mn1 O16 2.091241 1_545
Mn1 O2 2.197539 1_655
Mn1 O3 2.223148 1_555
Mn1 O15 2.253652 1_545
Mn1 O14 2.269653 1_545
Mn1 O4 2.657090 1_555
Mn2 O0 1.986165 1_555
Mn2 O5 1.998587 1_556
Mn2 O11 2.008747 1_456
Mn2 O10 2.048484 1_556
Mn2 O1 2.173469 1_455
Mn3 O4 2.050109 1_555
Mn3 O10 2.145619 1_555
Mn3 O1 2.191142 1_554
Mn3 O11 2.231345 1_555
Mn3 O0 2.330950 1_554
Mn4 O9 1.966569 1_555
Mn4 O8 1.987360 1_555
Mn4 O6 1.989101 1_655
Mn4 O7 2.015372 1_555
Mn4 O13 2.112144 1_555
Mn5 O12 2.090967 1_555
Mn5 O7 2.220861 1_555
Mn5 O6 2.222388 1_555
Mn5 O9 2.264207 1_455
Mn5 O8 2.339334 1_555
Mn5 O16 2.508848 1_556
B0 O4 1.375457 1_566
B0 O16 1.385329 1_556
B0 O12 1.404078 1_555
B1 O17 1.373916 1_646
B1 O5 1.388125 1_656
B1 O13 1.403226 1_545
B2 O2 1.353705 1_555
B2 O6 1.400757 1_555
B2 O0 1.412624 1_555
B3 O3 1.372993 1_555
B3 O1 1.386159 1_555
B3 O7 1.414153 1_555
B4 O14 1.374745 1_555
B4 O10 1.381525 1_555
B4 O8 1.413757 1_555
B5 O15 1.373000 1_555
B5 O9 1.388998 1_555
B5 O11 1.404908 1_555
