# generated using pymatgen
data_Ho2ZnOs
_symmetry_space_group_name_H-M   'P 1'
_cell_length_a   4.88622100
_cell_length_b   4.88622100
_cell_length_c   4.88622170
_cell_angle_alpha   59.99999521
_cell_angle_beta   60.00000479
_cell_angle_gamma   60.00000000
_symmetry_Int_Tables_number   1
_chemical_formula_structural   Ho2ZnOs
_chemical_formula_sum   'Ho2 Zn1 Os1'
_cell_volume   82.49058459
_cell_formula_units_Z   1
loop_
 _symmetry_equiv_pos_site_id
 _symmetry_equiv_pos_as_xyz
  1  'x, y, z'
loop_
 _atom_site_type_symbol
 _atom_site_label
 _atom_site_symmetry_multiplicity
 _atom_site_fract_x
 _atom_site_fract_y
 _atom_site_fract_z
 _atom_site_occupancy
  Ho  Ho0  1  0.25000000  0.25000000  0.25000000  1
  Ho  Ho1  1  0.75000000  0.75000000  0.75000000  1
  Zn  Zn0  1  0.00000000  0.00000000  0.00000000  1
  Os  Os0  1  0.50000000  0.50000000  0.50000000  1
loop_
_geom_bond_atom_site_label_1
_geom_bond_atom_site_label_2
_geom_bond_distance
_geom_bond_site_symmetry_2
Ho0 Os0 2.992187 1_545
Ho0 Zn0 2.992187 1_565
Ho0 Os0 2.992187 1_555
Ho0 Zn0 2.992187 1_555
Ho0 Zn0 2.992187 1_655
Ho0 Os0 2.992187 1_455
Ho0 Os0 2.992187 1_554
Ho0 Zn0 2.992187 1_556
Ho1 Os0 2.992187 1_565
Ho1 Zn0 2.992187 1_656
Ho1 Os0 2.992187 1_655
Ho1 Os0 2.992187 1_555
Ho1 Zn0 2.992187 1_566
Ho1 Zn0 2.992187 1_666
Ho1 Os0 2.992187 1_556
Ho1 Zn0 2.992187 1_665
