# generated using pymatgen
data_Li2CoNi3O8
_symmetry_space_group_name_H-M   'P 1'
_cell_length_a   8.17911800
_cell_length_b   8.17911800
_cell_length_c   8.09635600
_cell_angle_alpha   90.00000000
_cell_angle_beta   90.00000000
_cell_angle_gamma   90.00000000
_symmetry_Int_Tables_number   1
_chemical_formula_structural   Li2CoNi3O8
_chemical_formula_sum   'Li8 Co4 Ni12 O32'
_cell_volume   541.62979098
_cell_formula_units_Z   4
loop_
 _symmetry_equiv_pos_site_id
 _symmetry_equiv_pos_as_xyz
  1  'x, y, z'
loop_
 _atom_site_type_symbol
 _atom_site_label
 _atom_site_symmetry_multiplicity
 _atom_site_fract_x
 _atom_site_fract_y
 _atom_site_fract_z
 _atom_site_occupancy
  Li  Li0  1  0.99928100  0.74992800  0.12582700  1
  Li  Li1  1  0.25007200  0.00071900  0.37417300  1
  Li  Li2  1  0.24992800  0.50071900  0.87582700  1
  Li  Li3  1  0.50071900  0.24992800  0.12417300  1
  Li  Li4  1  0.49928100  0.75007200  0.62417300  1
  Li  Li5  1  0.75007200  0.49928100  0.37582700  1
  Li  Li6  1  0.74992800  0.99928100  0.87417300  1
  Li  Li7  1  0.00071900  0.25007200  0.62582700  1
  Co  Co0  1  0.12510200  0.12510200  0.00000000  1
  Co  Co1  1  0.37489800  0.62510200  0.25000000  1
  Co  Co2  1  0.62510200  0.37489800  0.75000000  1
  Co  Co3  1  0.87489800  0.87489800  0.50000000  1
  Ni  Ni0  1  0.12613200  0.37640300  0.24864300  1
  Ni  Ni1  1  0.12359700  0.62613200  0.49864300  1
  Ni  Ni2  1  0.12221700  0.87778300  0.75000000  1
  Ni  Ni3  1  0.37778300  0.37778300  0.50000000  1
  Ni  Ni4  1  0.37640300  0.12613200  0.75135700  1
  Ni  Ni5  1  0.37386800  0.87640300  0.00135700  1
  Ni  Ni6  1  0.62613200  0.12359700  0.50135700  1
  Ni  Ni7  1  0.62359700  0.87386800  0.25135700  1
  Ni  Ni8  1  0.62221700  0.62221700  0.00000000  1
  Ni  Ni9  1  0.87778300  0.12221700  0.25000000  1
  Ni  Ni10  1  0.87640300  0.37386800  0.99864300  1
  Ni  Ni11  1  0.87386800  0.62359700  0.74864300  1
  O  O0  1  0.10906500  0.13897400  0.23445500  1
  O  O1  1  0.11602200  0.36037400  0.01457800  1
  O  O2  1  0.11022500  0.64396100  0.73462800  1
  O  O3  1  0.13962600  0.61602200  0.26457800  1
  O  O4  1  0.11010700  0.86778900  0.51561900  1
  O  O5  1  0.14396100  0.38977500  0.48462800  1
  O  O6  1  0.13897400  0.10906500  0.76554500  1
  O  O7  1  0.13221100  0.88989300  0.98438100  1
  O  O8  1  0.36778900  0.38989300  0.26561900  1
  O  O9  1  0.36102600  0.60906500  0.48445500  1
  O  O10  1  0.35603900  0.88977500  0.76537200  1
  O  O11  1  0.38989300  0.36778900  0.73438100  1
  O  O12  1  0.36037400  0.11602200  0.98542200  1
  O  O13  1  0.38977500  0.14396100  0.51537200  1
  O  O14  1  0.38397800  0.86037400  0.23542200  1
  O  O15  1  0.39093500  0.63897400  0.01554500  1
  O  O16  1  0.60906500  0.36102600  0.51554500  1
  O  O17  1  0.61602200  0.13962600  0.73542200  1
  O  O18  1  0.61022500  0.85603900  0.01537200  1
  O  O19  1  0.63962600  0.88397800  0.48542200  1
  O  O20  1  0.61010700  0.63221100  0.23438100  1
  O  O21  1  0.64396100  0.11022500  0.26537200  1
  O  O22  1  0.63897400  0.39093500  0.98445500  1
  O  O23  1  0.63221100  0.61010700  0.76561900  1
  O  O24  1  0.86778900  0.11010700  0.48438100  1
  O  O25  1  0.86102600  0.89093500  0.26554500  1
  O  O26  1  0.85603900  0.61022500  0.98462800  1
  O  O27  1  0.88989300  0.13221100  0.01561900  1
  O  O28  1  0.86037400  0.38397800  0.76457800  1
  O  O29  1  0.88977500  0.35603900  0.23462800  1
  O  O30  1  0.88397800  0.63962600  0.51457800  1
  O  O31  1  0.89093500  0.86102600  0.73445500  1
loop_
_geom_bond_atom_site_label_1
_geom_bond_atom_site_label_2
_geom_bond_distance
_geom_bond_site_symmetry_2
Li0 O3 1.944012 1_655
Li0 O7 1.950419 1_654
Li0 O25 1.971922 1_555
Li0 O26 1.996290 1_554
Li1 O14 1.944012 1_545
Li1 O4 1.950419 1_545
Li1 O0 1.971922 1_555
Li1 O13 1.996290 1_555
Li2 O1 1.944012 1_556
Li2 O11 1.950419 1_555
Li2 O15 1.971922 1_556
Li2 O2 1.996290 1_555
Li3 O12 1.944012 1_554
Li3 O8 1.950419 1_555
Li3 O22 1.971922 1_554
Li3 O21 1.996290 1_555
Li4 O19 1.944012 1_555
Li4 O23 1.950419 1_555
Li4 O9 1.971922 1_555
Li4 O10 1.996290 1_555
Li5 O30 1.944012 1_555
Li5 O20 1.950419 1_555
Li5 O16 1.971922 1_555
Li5 O29 1.996290 1_555
Li6 O17 1.944012 1_565
Li6 O27 1.950419 1_566
Li6 O31 1.971922 1_555
Li6 O18 1.996290 1_556
Li7 O28 1.944012 1_455
Li7 O24 1.950419 1_455
Li7 O6 1.971922 1_555
Li7 O5 1.996290 1_555
Co0 O0 1.906137 1_555
Co0 O6 1.906137 1_554
Co0 O27 1.928830 1_455
Co0 O7 1.928830 1_544
Co0 O1 1.929364 1_555
Co0 O12 1.929364 1_554
Co1 O9 1.906137 1_555
Co1 O15 1.906137 1_555
Co1 O8 1.928830 1_555
Co1 O20 1.928830 1_555
Co1 O3 1.929364 1_555
Co1 O14 1.929364 1_555
Co2 O22 1.906137 1_555
Co2 O16 1.906137 1_555
Co2 O11 1.928830 1_555
Co2 O23 1.928830 1_555
Co2 O17 1.929364 1_555
Co2 O28 1.929364 1_555
Co3 O31 1.906137 1_555
Co3 O25 1.906137 1_555
Co3 O4 1.928830 1_655
Co3 O24 1.928830 1_565
Co3 O30 1.929364 1_555
Co3 O19 1.929364 1_555
Ni0 O1 1.901402 1_555
Ni0 O5 1.919294 1_555
Ni0 O29 1.943669 1_455
Ni0 O0 1.950356 1_555
Ni0 O3 1.967212 1_555
Ni0 O8 1.984384 1_555
Ni1 O3 1.901402 1_555
Ni1 O2 1.919294 1_555
Ni1 O5 1.943669 1_555
Ni1 O9 1.950356 1_555
Ni1 O30 1.967212 1_455
Ni1 O4 1.984384 1_555
Ni2 O6 1.900813 1_565
Ni2 O31 1.900813 1_455
Ni2 O7 1.901973 1_555
Ni2 O4 1.901973 1_555
Ni2 O2 1.919011 1_555
Ni2 O10 1.919011 1_555
Ni3 O16 1.900813 1_555
Ni3 O9 1.900813 1_555
Ni3 O11 1.901973 1_555
Ni3 O8 1.901973 1_555
Ni3 O13 1.919011 1_555
Ni3 O5 1.919011 1_555
Ni4 O12 1.901402 1_555
Ni4 O13 1.919294 1_555
Ni4 O10 1.943669 1_545
Ni4 O6 1.950356 1_555
Ni4 O17 1.967212 1_555
Ni4 O11 1.984384 1_555
Ni5 O14 1.901402 1_555
Ni5 O10 1.919294 1_554
Ni5 O18 1.943669 1_555
Ni5 O15 1.950356 1_555
Ni5 O12 1.967212 1_564
Ni5 O7 1.984384 1_554
Ni6 O17 1.901402 1_555
Ni6 O21 1.919294 1_555
Ni6 O13 1.943669 1_555
Ni6 O16 1.950356 1_555
Ni6 O19 1.967212 1_545
Ni6 O24 1.984384 1_555
Ni7 O19 1.901402 1_555
Ni7 O18 1.919294 1_555
Ni7 O21 1.943669 1_565
Ni7 O25 1.950356 1_555
Ni7 O14 1.967212 1_555
Ni7 O20 1.984384 1_555
Ni8 O22 1.900813 1_554
Ni8 O15 1.900813 1_555
Ni8 O20 1.901973 1_555
Ni8 O23 1.901973 1_554
Ni8 O18 1.919011 1_555
Ni8 O26 1.919011 1_554
Ni9 O25 1.900813 1_545
Ni9 O0 1.900813 1_655
Ni9 O24 1.901973 1_555
Ni9 O27 1.901973 1_555
Ni9 O21 1.919011 1_555
Ni9 O29 1.919011 1_555
Ni10 O28 1.901402 1_555
Ni10 O29 1.919294 1_556
Ni10 O26 1.943669 1_555
Ni10 O22 1.950356 1_555
Ni10 O1 1.967212 1_656
Ni10 O27 1.984384 1_556
Ni11 O30 1.901402 1_555
Ni11 O26 1.919294 1_555
Ni11 O2 1.943669 1_655
Ni11 O31 1.950356 1_555
Ni11 O28 1.967212 1_555
Ni11 O23 1.984384 1_555
