# generated using pymatgen
data_Gd4Ni13C4
_symmetry_space_group_name_H-M   'P 1'
_cell_length_a   8.35476846
_cell_length_b   8.35479248
_cell_length_c   3.86306743
_cell_angle_alpha   90.00000476
_cell_angle_beta   90.00000240
_cell_angle_gamma   91.12231611
_symmetry_Int_Tables_number   1
_chemical_formula_structural   Gd4Ni13C4
_chemical_formula_sum   'Gd4 Ni13 C4'
_cell_volume   269.59948051
_cell_formula_units_Z   1
loop_
 _symmetry_equiv_pos_site_id
 _symmetry_equiv_pos_as_xyz
  1  'x, y, z'
loop_
 _atom_site_type_symbol
 _atom_site_label
 _atom_site_symmetry_multiplicity
 _atom_site_fract_x
 _atom_site_fract_y
 _atom_site_fract_z
 _atom_site_occupancy
  Gd  Gd0  1  0.31161726  0.68832612  -0.00000013  1
  Gd  Gd1  1  0.68835642  0.31164426  0.00000017  1
  Gd  Gd2  1  0.84701037  0.84697516  -0.00000017  1
  Gd  Gd3  1  0.15300238  0.15303792  0.00000020  1
  Ni  Ni0  1  0.49997072  0.49996956  0.50000020  1
  Ni  Ni1  1  0.71530109  0.06879161  0.49999979  1
  Ni  Ni2  1  0.28471047  0.93124652  0.49999995  1
  Ni  Ni3  1  0.93126210  0.28473288  0.50000000  1
  Ni  Ni4  1  0.06877934  0.71527991  0.49999984  1
  Ni  Ni5  1  0.49995000  0.00008272  -0.00000007  1
  Ni  Ni6  1  0.00007761  0.49995780  0.00000000  1
  Ni  Ni7  1  0.57352935  0.79008590  0.49999993  1
  Ni  Ni8  1  0.42641344  0.20993109  0.50000022  1
  Ni  Ni9  1  0.20992252  0.42643182  0.50000030  1
  Ni  Ni10  1  0.79009832  0.57351268  0.49999984  1
  Ni  Ni11  1  0.62242719  0.62239044  -0.00000027  1
  Ni  Ni12  1  0.37751522  0.37754883  0.00000003  1
  C  C0  1  0.50000259  0.00003411  0.50000012  1
  C  C1  1  0.00003766  0.50000255  0.50000002  1
  C  C2  1  0.94303502  0.05698982  0.50000002  1
  C  C3  1  0.05697996  0.94302629  0.50000001  1
loop_
_geom_bond_atom_site_label_1
_geom_bond_atom_site_label_2
_geom_bond_distance
_geom_bond_site_symmetry_2
Gd0 Ni12 2.664737 1_555
Gd0 Ni11 2.665068 1_555
Gd0 Ni4 2.813482 1_555
Gd0 Ni4 2.813482 1_554
Gd0 Ni2 2.813948 1_554
Gd0 Ni2 2.813948 1_555
Gd0 Ni0 2.963219 1_554
Gd0 Ni0 2.963221 1_555
Gd0 Ni6 3.015144 1_555
Gd0 Ni5 3.016545 1_565
Gd0 Ni9 3.027793 1_554
Gd0 Ni9 3.027796 1_555
Gd0 Ni7 3.028042 1_554
Gd0 Ni7 3.028042 1_555
Gd1 Ni11 2.664542 1_555
Gd1 Ni12 2.665265 1_555
Gd1 Ni1 2.813567 1_555
Gd1 Ni1 2.813569 1_554
Gd1 Ni3 2.813858 1_555
Gd1 Ni3 2.813859 1_554
Gd1 Ni0 2.963225 1_554
Gd1 Ni0 2.963225 1_555
Gd1 Ni5 3.015465 1_555
Gd1 Ni6 3.016207 1_655
Gd1 Ni10 3.027743 1_555
Gd1 Ni10 3.027745 1_554
Gd1 Ni8 3.028123 1_554
Gd1 Ni8 3.028123 1_555
Gd2 Ni11 2.627443 1_555
Gd2 Ni4 2.907626 1_654
Gd2 Ni4 2.907626 1_655
Gd2 Ni1 2.907929 1_565
Gd2 Ni1 2.907930 1_564
Gd2 Ni10 3.022302 1_554
Gd2 Ni10 3.022302 1_555
Gd2 Ni7 3.022386 1_554
Gd2 Ni7 3.022387 1_555
Gd2 Ni6 3.191610 1_655
Gd2 Ni5 3.192074 1_565
Gd3 Ni12 2.626600 1_555
Gd3 Ni3 2.907470 1_455
Gd3 Ni3 2.907471 1_454
Gd3 Ni2 2.907790 1_545
Gd3 Ni2 2.907791 1_544
Gd3 Ni9 3.021880 1_554
Gd3 Ni9 3.021880 1_555
Gd3 Ni8 3.021951 1_555
Gd3 Ni8 3.021951 1_554
Gd3 Ni6 3.190366 1_555
Gd3 Ni5 3.190679 1_555
Ni0 Ni12 2.404715 1_556
Ni0 Ni12 2.404716 1_555
Ni0 Ni11 2.404718 1_556
Ni0 Ni11 2.404721 1_555
Ni0 Ni8 2.488231 1_555
Ni0 Ni9 2.488266 1_555
Ni0 Ni7 2.488864 1_555
Ni0 Ni10 2.488919 1_555
Ni10 Ni11 2.425362 1_556
Ni10 Ni11 2.425363 1_555
Ni11 Ni7 2.425512 1_554
Ni11 Ni7 2.425513 1_555
Ni12 Ni9 2.424989 1_554
Ni12 Ni9 2.424991 1_555
Ni12 Ni8 2.425136 1_554
Ni12 Ni8 2.425137 1_555
C0 Ni8 1.869629 1_555
C0 Ni7 1.869853 1_545
C0 Ni1 1.877522 1_555
C0 Ni2 1.877544 1_545
C0 Ni5 1.931533 1_556
C0 Ni5 1.931535 1_555
C1 Ni9 1.869476 1_555
C1 Ni10 1.869730 1_455
C1 Ni4 1.877321 1_555
C1 Ni3 1.877341 1_455
C1 Ni6 1.931534 1_556
C1 Ni6 1.931534 1_555
C2 C3 1.359542 1_645
C2 Ni1 1.907145 1_555
C2 Ni3 1.907210 1_555
C2 Gd3 2.719731 1_655
C2 Gd3 2.719732 1_656
C2 Gd2 2.719931 1_546
C2 Gd2 2.719932 1_545
C3 Ni2 1.907104 1_555
C3 Ni4 1.907253 1_555
C3 Gd2 2.719750 1_456
C3 Gd2 2.719751 1_455
C3 Gd3 2.719910 1_565
C3 Gd3 2.719911 1_566
