# generated using pymatgen
data_Yb3Ni13B2
_symmetry_space_group_name_H-M   'P 1'
_cell_length_a   4.90724403
_cell_length_b   4.90724403
_cell_length_c   10.72517100
_cell_angle_alpha   90.00000000
_cell_angle_beta   90.00000000
_cell_angle_gamma   120.00000039
_symmetry_Int_Tables_number   1
_chemical_formula_structural   Yb3Ni13B2
_chemical_formula_sum   'Yb3 Ni13 B2'
_cell_volume   223.67125045
_cell_formula_units_Z   1
loop_
 _symmetry_equiv_pos_site_id
 _symmetry_equiv_pos_as_xyz
  1  'x, y, z'
loop_
 _atom_site_type_symbol
 _atom_site_label
 _atom_site_symmetry_multiplicity
 _atom_site_fract_x
 _atom_site_fract_y
 _atom_site_fract_z
 _atom_site_occupancy
  Yb  Yb0  1  0.00000000  0.00000000  0.00000000  1
  Yb  Yb1  1  0.00000000  0.00000000  0.32747400  1
  Yb  Yb2  1  0.00000000  0.00000000  0.67252600  1
  Ni  Ni0  1  0.50000000  0.50000000  0.13186800  1
  Ni  Ni1  1  0.00000000  0.50000000  0.13186800  1
  Ni  Ni2  1  0.50000000  0.00000000  0.13186800  1
  Ni  Ni3  1  0.66666700  0.33333300  0.31852100  1
  Ni  Ni4  1  0.33333300  0.66666700  0.31852100  1
  Ni  Ni5  1  0.00000000  0.50000000  0.50000000  1
  Ni  Ni6  1  0.50000000  0.00000000  0.50000000  1
  Ni  Ni7  1  0.50000000  0.50000000  0.50000000  1
  Ni  Ni8  1  0.33333300  0.66666700  0.68147900  1
  Ni  Ni9  1  0.66666700  0.33333300  0.68147900  1
  Ni  Ni10  1  0.50000000  0.00000000  0.86813200  1
  Ni  Ni11  1  0.00000000  0.50000000  0.86813200  1
  Ni  Ni12  1  0.50000000  0.50000000  0.86813200  1
  B  B0  1  0.33333300  0.66666700  0.00000000  1
  B  B1  1  0.66666700  0.33333300  0.00000000  1
loop_
_geom_bond_atom_site_label_1
_geom_bond_atom_site_label_2
_geom_bond_distance
_geom_bond_site_symmetry_2
Ni0 Ni3 2.452408 1_555
Ni0 Ni4 2.452408 1_555
Ni0 Yb0 2.832053 1_665
Ni0 Yb0 2.832053 1_555
Ni0 Yb1 3.228231 1_555
Ni0 Yb1 3.228231 1_665
Ni1 Ni3 2.452406 1_455
Ni1 Ni4 2.452406 1_555
Ni1 Yb0 2.832053 1_555
Ni1 Yb0 2.832053 1_565
Ni1 Yb1 3.228231 1_565
Ni1 Yb1 3.228231 1_555
Ni2 Ni4 2.452406 1_545
Ni2 Ni3 2.452406 1_555
Ni2 Yb0 2.832053 1_555
Ni2 Yb0 2.832053 1_655
Ni2 Yb1 3.228231 1_655
Ni2 Yb1 3.228231 1_555
Ni3 Ni6 2.407321 1_555
Ni3 Ni5 2.407321 1_655
Ni3 Ni7 2.407324 1_555
Ni3 Yb1 2.834823 1_655
Ni3 Yb1 2.834827 1_555
Ni3 Yb1 2.834827 1_665
Ni4 Ni6 2.407321 1_565
Ni4 Ni5 2.407321 1_555
Ni4 Ni7 2.407324 1_555
Ni4 Yb1 2.834823 1_565
Ni4 Yb1 2.834827 1_665
Ni4 Yb1 2.834827 1_555
Ni5 Ni9 2.407321 1_455
Ni5 Ni8 2.407321 1_555
Ni5 Ni6 2.453622 1_565
Ni5 Ni6 2.453622 1_455
Ni5 Ni7 2.453622 1_555
Ni5 Ni7 2.453622 1_455
Ni5 Yb1 3.073131 1_565
Ni5 Yb2 3.073131 1_565
Ni5 Yb1 3.073131 1_555
Ni5 Yb2 3.073131 1_555
Ni6 Ni9 2.407321 1_555
Ni6 Ni8 2.407321 1_545
Ni6 Ni7 2.453622 1_555
Ni6 Ni7 2.453622 1_545
Ni6 Yb1 3.073131 1_655
Ni6 Yb1 3.073131 1_555
Ni6 Yb2 3.073131 1_555
Ni6 Yb2 3.073131 1_655
Ni7 Ni9 2.407324 1_555
Ni7 Ni8 2.407324 1_555
Ni7 Yb2 3.073131 1_665
Ni7 Yb2 3.073131 1_555
Ni7 Yb1 3.073131 1_665
Ni7 Yb1 3.073131 1_555
Ni8 Yb2 2.834823 1_565
Ni8 Yb2 2.834827 1_665
Ni8 Yb2 2.834827 1_555
Ni9 Yb2 2.834823 1_655
Ni9 Yb2 2.834827 1_555
Ni9 Yb2 2.834827 1_665
Ni10 Ni8 2.452406 1_545
Ni10 Ni9 2.452406 1_555
Ni10 Yb0 2.832053 1_556
Ni10 Yb0 2.832053 1_656
Ni10 Yb2 3.228231 1_555
Ni10 Yb2 3.228231 1_655
Ni11 Ni8 2.452406 1_555
Ni11 Ni9 2.452406 1_455
Ni11 Yb0 2.832053 1_556
Ni11 Yb0 2.832053 1_566
Ni11 Yb2 3.228231 1_555
Ni11 Yb2 3.228231 1_565
Ni12 Ni9 2.452408 1_555
Ni12 Ni8 2.452408 1_555
Ni12 Yb0 2.832053 1_666
Ni12 Yb0 2.832053 1_556
Ni12 Yb2 3.228231 1_555
Ni12 Yb2 3.228231 1_665
B0 Ni1 2.001753 1_555
B0 Ni2 2.001753 1_565
B0 Ni11 2.001753 1_554
B0 Ni10 2.001753 1_564
B0 Ni0 2.001756 1_555
B0 Ni12 2.001756 1_554
B0 Yb0 2.833196 1_565
B0 Yb0 2.833200 1_665
B0 Yb0 2.833200 1_555
B1 Ni2 2.001753 1_555
B1 Ni10 2.001753 1_554
B1 Ni11 2.001753 1_654
B1 Ni1 2.001753 1_655
B1 Ni0 2.001756 1_555
B1 Ni12 2.001756 1_554
B1 Yb0 2.833196 1_655
B1 Yb0 2.833200 1_555
B1 Yb0 2.833200 1_665
