# generated using pymatgen
data_Cs3Rb
_symmetry_space_group_name_H-M   'P 1'
_cell_length_a   10.95934411
_cell_length_b   10.95934752
_cell_length_c   8.89406929
_cell_angle_alpha   90.00000000
_cell_angle_beta   90.00000000
_cell_angle_gamma   120.00001715
_symmetry_Int_Tables_number   1
_chemical_formula_structural   Cs3Rb
_chemical_formula_sum   'Cs6 Rb2'
_cell_volume   925.12480821
_cell_formula_units_Z   2
loop_
 _symmetry_equiv_pos_site_id
 _symmetry_equiv_pos_as_xyz
  1  'x, y, z'
loop_
 _atom_site_type_symbol
 _atom_site_label
 _atom_site_symmetry_multiplicity
 _atom_site_fract_x
 _atom_site_fract_y
 _atom_site_fract_z
 _atom_site_occupancy
  Cs  Cs0  1  0.16805363  0.33610827  0.25000000  1
  Cs  Cs1  1  0.66389373  0.83194637  0.25000000  1
  Cs  Cs2  1  0.16805363  0.83194637  0.25000000  1
  Cs  Cs3  1  0.83194637  0.66389173  0.75000000  1
  Cs  Cs4  1  0.33610727  0.16805463  0.75000000  1
  Cs  Cs5  1  0.83194637  0.16805463  0.75000000  1
  Rb  Rb0  1  0.33333300  0.66666700  0.75000000  1
  Rb  Rb1  1  0.66666600  0.33333300  0.25000000  1
loop_
_geom_bond_atom_site_label_1
_geom_bond_atom_site_label_2
_geom_bond_distance
_geom_bond_site_symmetry_2
Cs0 Cs2 5.434062 1_555
Cs0 Cs1 5.434071 1_555
Cs0 Cs5 5.472872 1_455
Cs0 Cs5 5.472872 1_454
Cs0 Cs4 5.472873 1_555
Cs0 Cs4 5.472873 1_554
Cs0 Cs1 5.525272 1_445
Cs0 Cs2 5.525285 1_545
Cs1 Cs2 5.434082 1_555
Cs1 Cs3 5.472873 1_555
Cs1 Cs3 5.472873 1_554
Cs1 Cs5 5.472878 1_564
Cs1 Cs5 5.472878 1_565
Cs1 Cs2 5.525262 1_655
Cs2 Cs3 5.472872 1_454
Cs2 Cs3 5.472872 1_455
Cs2 Cs4 5.472878 1_565
Cs2 Cs4 5.472878 1_564
Cs3 Cs5 5.434051 1_555
Cs3 Cs4 5.434060 1_555
Cs3 Cs4 5.525283 1_665
Cs3 Cs5 5.525296 1_565
Cs4 Cs5 5.434071 1_555
Cs4 Cs5 5.525273 1_455
