# generated using pymatgen
data_K2P3
_symmetry_space_group_name_H-M   'P 1'
_cell_length_a   6.35325063
_cell_length_b   6.35325010
_cell_length_c   8.32627457
_cell_angle_alpha   110.45708299
_cell_angle_beta   110.45707490
_cell_angle_gamma   94.81327009
_symmetry_Int_Tables_number   1
_chemical_formula_structural   K2P3
_chemical_formula_sum   'K4 P6'
_cell_volume   286.78307599
_cell_formula_units_Z   2
loop_
 _symmetry_equiv_pos_site_id
 _symmetry_equiv_pos_as_xyz
  1  'x, y, z'
loop_
 _atom_site_type_symbol
 _atom_site_label
 _atom_site_symmetry_multiplicity
 _atom_site_fract_x
 _atom_site_fract_y
 _atom_site_fract_z
 _atom_site_occupancy
  K  K0  1  0.75000000  0.25000000  0.50000000  1
  K  K1  1  0.25000000  0.75000000  0.50000000  1
  K  K2  1  0.72718067  0.27281933  -0.00000000  1
  K  K3  1  0.27281933  0.72718067  0.00000000  1
  P  P0  1  0.70845004  0.70845004  0.84919460  1
  P  P1  1  0.85925544  0.85925544  0.15080540  1
  P  P2  1  0.29154996  0.29154996  0.15080540  1
  P  P3  1  0.14074456  0.14074456  0.84919460  1
  P  P4  1  0.84849592  0.84849592  0.69699285  1
  P  P5  1  0.15150408  0.15150408  0.30300715  1
loop_
_geom_bond_atom_site_label_1
_geom_bond_atom_site_label_2
_geom_bond_distance
_geom_bond_site_symmetry_2
K0 P0 3.428215 1_555
K0 P1 3.428215 1_545
K0 P2 3.428215 1_555
K0 P3 3.428215 1_655
K0 P4 3.473294 1_555
K0 P5 3.473294 1_555
K0 P5 3.473300 1_655
K0 P4 3.473300 1_545
K1 P2 3.428215 1_555
K1 P3 3.428215 1_565
K1 P0 3.428215 1_555
K1 P1 3.428215 1_455
K1 P5 3.473294 1_555
K1 P4 3.473294 1_555
K1 P4 3.473300 1_455
K1 P5 3.473300 1_565
K2 P0 3.335271 1_544
K2 P1 3.335271 1_545
K2 P3 3.335271 1_654
K2 P2 3.335271 1_655
K2 P4 3.343710 1_544
K2 P5 3.343710 1_655
K2 P1 3.410403 1_555
K2 P0 3.410404 1_554
K2 P3 3.410404 1_554
K2 P2 3.410404 1_555
K3 P2 3.335271 1_565
K3 P3 3.335271 1_564
K3 P1 3.335271 1_455
K3 P0 3.335271 1_454
K3 P5 3.343710 1_565
K3 P4 3.343710 1_454
K3 P3 3.410403 1_554
K3 P2 3.410404 1_555
K3 P1 3.410404 1_555
K3 P0 3.410404 1_554
P0 P1 2.150516 1_556
P0 P4 2.152387 1_555
P1 P5 2.152395 1_665
P2 P3 2.150516 1_554
P2 P5 2.152387 1_555
P3 P4 2.152395 1_445
