# generated using pymatgen
data_CaLaAg2
_symmetry_space_group_name_H-M   'P 1'
_cell_length_a   5.30694120
_cell_length_b   5.30694120
_cell_length_c   5.30694120
_cell_angle_alpha   60.00000000
_cell_angle_beta   60.00000000
_cell_angle_gamma   60.00000000
_symmetry_Int_Tables_number   1
_chemical_formula_structural   CaLaAg2
_chemical_formula_sum   'Ca1 La1 Ag2'
_cell_volume   105.68608965
_cell_formula_units_Z   1
loop_
 _symmetry_equiv_pos_site_id
 _symmetry_equiv_pos_as_xyz
  1  'x, y, z'
loop_
 _atom_site_type_symbol
 _atom_site_label
 _atom_site_symmetry_multiplicity
 _atom_site_fract_x
 _atom_site_fract_y
 _atom_site_fract_z
 _atom_site_occupancy
  Ca  Ca0  1  0.25000000  0.25000000  0.25000000  1
  La  La0  1  0.74999900  0.74999900  0.74999900  1
  Ag  Ag0  1  0.49999900  0.49999900  0.49999900  1
  Ag  Ag1  1  -0.00000000  0.00000000  0.00000000  1
loop_
_geom_bond_atom_site_label_1
_geom_bond_atom_site_label_2
_geom_bond_distance
_geom_bond_site_symmetry_2
Ag0 Ca0 3.249812 1_555
Ag0 La0 3.249825 1_455
Ag0 La0 3.249825 1_545
Ag0 La0 3.249825 1_554
Ag0 La0 3.249825 1_555
Ag0 Ca0 3.249829 1_655
Ag0 Ca0 3.249829 1_556
Ag0 Ca0 3.249829 1_565
Ag1 La0 3.249820 1_544
Ag1 La0 3.249820 1_445
Ag1 La0 3.249820 1_454
Ag1 Ca0 3.249825 1_545
Ag1 Ca0 3.249825 1_554
Ag1 Ca0 3.249825 1_555
Ag1 Ca0 3.249825 1_455
Ag1 La0 3.249838 1_444
