# generated using pymatgen
data_K6Nb11O30
_symmetry_space_group_name_H-M   'P 1'
_cell_length_a   8.04968900
_cell_length_b   12.84999300
_cell_length_c   12.88427400
_cell_angle_alpha   90.00000000
_cell_angle_beta   90.00000000
_cell_angle_gamma   90.00000000
_symmetry_Int_Tables_number   1
_chemical_formula_structural   K6Nb11O30
_chemical_formula_sum   'K12 Nb22 O60'
_cell_volume   1332.72929718
_cell_formula_units_Z   2
loop_
 _symmetry_equiv_pos_site_id
 _symmetry_equiv_pos_as_xyz
  1  'x, y, z'
loop_
 _atom_site_type_symbol
 _atom_site_label
 _atom_site_symmetry_multiplicity
 _atom_site_fract_x
 _atom_site_fract_y
 _atom_site_fract_z
 _atom_site_occupancy
  K  K0  1  0.50000000  0.99527700  0.75371600  1
  K  K1  1  0.00000000  0.99907600  0.75557000  1
  K  K2  1  0.50000000  0.32684000  0.92875700  1
  K  K3  1  0.00000000  0.32975600  0.92651500  1
  K  K4  1  0.00000000  0.82684000  0.07124300  1
  K  K5  1  0.50000000  0.82975600  0.07348500  1
  K  K6  1  0.00000000  0.49527700  0.24628400  1
  K  K7  1  0.50000000  0.49907600  0.24443000  1
  K  K8  1  0.50000000  0.17402600  0.41624700  1
  K  K9  1  0.00000000  0.17518700  0.41883100  1
  K  K10  1  0.00000000  0.67402600  0.58375300  1
  K  K11  1  0.50000000  0.67518700  0.58116900  1
  Nb  Nb0  1  0.74022200  0.50946700  0.75728300  1
  Nb  Nb1  1  0.25977800  0.50946700  0.75728300  1
  Nb  Nb2  1  0.74986700  0.79122000  0.83373000  1
  Nb  Nb3  1  0.25013300  0.79122000  0.83373000  1
  Nb  Nb4  1  0.74994800  0.07656000  0.95908800  1
  Nb  Nb5  1  0.25005200  0.07656000  0.95908800  1
  Nb  Nb6  1  0.75005200  0.57656000  0.04091200  1
  Nb  Nb7  1  0.24994800  0.57656000  0.04091200  1
  Nb  Nb8  1  0.75013300  0.29122000  0.16627000  1
  Nb  Nb9  1  0.24986700  0.29122000  0.16627000  1
  Nb  Nb10  1  0.24022200  0.00946700  0.24271700  1
  Nb  Nb11  1  0.75977800  0.00946700  0.24271700  1
  Nb  Nb12  1  0.75806400  0.70453500  0.32426200  1
  Nb  Nb13  1  0.24193600  0.70453500  0.32426200  1
  Nb  Nb14  1  0.50000000  0.88237200  0.36878900  1
  Nb  Nb15  1  0.74124000  0.42147800  0.45425600  1
  Nb  Nb16  1  0.25876000  0.42147800  0.45425600  1
  Nb  Nb17  1  0.75876000  0.92147800  0.54574400  1
  Nb  Nb18  1  0.24124000  0.92147800  0.54574400  1
  Nb  Nb19  1  0.00000000  0.38237200  0.63121100  1
  Nb  Nb20  1  0.74193600  0.20453500  0.67573800  1
  Nb  Nb21  1  0.25806400  0.20453500  0.67573800  1
  O  O0  1  0.50000000  0.49075400  0.74028400  1
  O  O1  1  0.00000000  0.49525900  0.74744400  1
  O  O2  1  0.79626500  0.34701400  0.73857200  1
  O  O3  1  0.20373500  0.34701400  0.73857200  1
  O  O4  1  0.75034600  0.14394700  0.81635500  1
  O  O5  1  0.24965400  0.14394700  0.81635500  1
  O  O6  1  0.50000000  0.79173500  0.82648100  1
  O  O7  1  0.00000000  0.79342600  0.82449800  1
  O  O8  1  0.74979500  0.93138200  0.89030900  1
  O  O9  1  0.25020500  0.93138200  0.89030900  1
  O  O10  1  0.74950500  0.49529800  0.90507900  1
  O  O11  1  0.25049500  0.49529800  0.90507900  1
  O  O12  1  0.75145600  0.71306900  0.96296500  1
  O  O13  1  0.24854400  0.71306900  0.96296500  1
  O  O14  1  0.50000000  0.07733600  0.95524000  1
  O  O15  1  0.00000000  0.07661400  0.95678300  1
  O  O16  1  0.50000000  0.57661400  0.04321700  1
  O  O17  1  0.00000000  0.57733600  0.04476000  1
  O  O18  1  0.74854400  0.21306900  0.03703500  1
  O  O19  1  0.25145600  0.21306900  0.03703500  1
  O  O20  1  0.75049500  0.99529800  0.09492100  1
  O  O21  1  0.24950500  0.99529800  0.09492100  1
  O  O22  1  0.75020500  0.43138200  0.10969100  1
  O  O23  1  0.24979500  0.43138200  0.10969100  1
  O  O24  1  0.00000000  0.29173500  0.17351900  1
  O  O25  1  0.50000000  0.29342600  0.17550200  1
  O  O26  1  0.74965400  0.64394700  0.18364500  1
  O  O27  1  0.25034600  0.64394700  0.18364500  1
  O  O28  1  0.29626500  0.84701400  0.26142800  1
  O  O29  1  0.70373500  0.84701400  0.26142800  1
  O  O30  1  0.00000000  0.99075400  0.25971600  1
  O  O31  1  0.50000000  0.99525900  0.25255600  1
  O  O32  1  0.75074800  0.15524300  0.25600000  1
  O  O33  1  0.24925200  0.15524300  0.25600000  1
  O  O34  1  0.75227600  0.35982300  0.32143200  1
  O  O35  1  0.24772400  0.35982300  0.32143200  1
  O  O36  1  0.00000000  0.71431100  0.32593200  1
  O  O37  1  0.50000000  0.71968700  0.33932300  1
  O  O38  1  0.74760200  0.57018000  0.39521900  1
  O  O39  1  0.25239800  0.57018000  0.39521900  1
  O  O40  1  0.70115300  0.98953300  0.40125600  1
  O  O41  1  0.29884700  0.98953300  0.40125600  1
  O  O42  1  0.73401000  0.79161300  0.45959400  1
  O  O43  1  0.26599000  0.79161300  0.45959400  1
  O  O44  1  0.50000000  0.42532300  0.46689500  1
  O  O45  1  0.00000000  0.41438600  0.47042100  1
  O  O46  1  0.50000000  0.91438600  0.52957900  1
  O  O47  1  0.00000000  0.92532300  0.53310500  1
  O  O48  1  0.76599000  0.29161300  0.54040600  1
  O  O49  1  0.23401000  0.29161300  0.54040600  1
  O  O50  1  0.79884700  0.48953300  0.59874400  1
  O  O51  1  0.20115300  0.48953300  0.59874400  1
  O  O52  1  0.75239800  0.07018000  0.60478100  1
  O  O53  1  0.24760200  0.07018000  0.60478100  1
  O  O54  1  0.50000000  0.21431100  0.67406800  1
  O  O55  1  0.00000000  0.21968700  0.66067700  1
  O  O56  1  0.74772400  0.85982300  0.67856800  1
  O  O57  1  0.25227600  0.85982300  0.67856800  1
  O  O58  1  0.74925200  0.65524300  0.74400000  1
  O  O59  1  0.25074800  0.65524300  0.74400000  1
loop_
_geom_bond_atom_site_label_1
_geom_bond_atom_site_label_2
_geom_bond_distance
_geom_bond_site_symmetry_2
K0 O6 2.778464 1_555
K0 O8 2.795457 1_555
K0 O9 2.795457 1_555
K0 O14 2.802435 1_565
K0 O56 2.818427 1_555
K0 O57 2.818427 1_555
K0 O4 2.891723 1_565
K0 O5 2.891723 1_565
K0 O53 2.955769 1_565
K0 O52 2.955769 1_565
K0 O54 2.995829 1_565
K0 O46 3.069216 1_555
K1 O15 2.777356 1_565
K1 O7 2.787838 1_555
K1 O8 2.797660 1_455
K1 O9 2.797660 1_555
K1 O4 2.849126 1_465
K1 O5 2.849126 1_565
K1 O57 2.882735 1_555
K1 O56 2.882735 1_455
K1 O53 2.929478 1_565
K1 O52 2.929478 1_465
K1 O47 3.018917 1_555
K1 O55 3.087263 1_565
K2 O19 2.843657 1_556
K2 O18 2.843657 1_556
K2 O10 2.968627 1_555
K2 O11 2.968627 1_555
K3 O19 2.893635 1_556
K3 O18 2.893635 1_456
K3 O3 2.933001 1_555
K3 O2 2.933001 1_455
K3 O11 2.944013 1_555
K3 O10 2.944013 1_455
K4 O13 2.843657 1_554
K4 O12 2.843657 1_454
K4 O21 2.968627 1_555
K4 O20 2.968627 1_455
K5 O12 2.893635 1_554
K5 O13 2.893635 1_554
K5 O29 2.933001 1_555
K5 O28 2.933001 1_555
K5 O20 2.944013 1_555
K5 O21 2.944013 1_555
K6 O24 2.778464 1_555
K6 O22 2.795457 1_455
K6 O23 2.795457 1_555
K6 O17 2.802435 1_555
K6 O35 2.818427 1_555
K6 O34 2.818427 1_455
K6 O27 2.891723 1_555
K6 O26 2.891723 1_455
K6 O39 2.955769 1_555
K6 O38 2.955769 1_455
K6 O36 2.995829 1_555
K6 O45 3.069216 1_555
K7 O16 2.777356 1_555
K7 O25 2.787838 1_555
K7 O23 2.797660 1_555
K7 O22 2.797660 1_555
K7 O26 2.849126 1_555
K7 O27 2.849126 1_555
K7 O35 2.882735 1_555
K7 O34 2.882735 1_555
K7 O38 2.929478 1_555
K7 O39 2.929478 1_555
K7 O44 3.018917 1_555
K7 O37 3.087263 1_555
K8 O40 2.877422 1_545
K8 O41 2.877422 1_545
K8 O32 2.897450 1_555
K8 O33 2.897450 1_555
K8 O49 3.070277 1_555
K8 O48 3.070277 1_555
K9 O48 2.870578 1_455
K9 O49 2.870578 1_555
K9 O33 2.914234 1_555
K9 O32 2.914234 1_455
K9 O30 3.133617 1_545
K9 O45 3.144756 1_555
K9 O55 3.168044 1_555
K10 O51 2.877422 1_555
K10 O50 2.877422 1_455
K10 O59 2.897450 1_555
K10 O58 2.897450 1_455
K10 O42 3.070277 1_455
K10 O43 3.070277 1_555
K11 O43 2.870578 1_555
K11 O42 2.870578 1_555
K11 O58 2.914234 1_555
K11 O59 2.914234 1_555
K11 O0 3.133617 1_555
K11 O46 3.144756 1_555
K11 O37 3.168044 1_555
Nb0 O58 1.882426 1_555
Nb0 O10 1.914388 1_555
Nb0 O0 1.960876 1_555
Nb0 O1 2.102911 1_655
Nb0 O50 2.112055 1_555
Nb0 O2 2.149273 1_555
Nb1 O59 1.882426 1_555
Nb1 O11 1.914388 1_555
Nb1 O0 1.960876 1_555
Nb1 O1 2.102911 1_555
Nb1 O51 2.112055 1_555
Nb1 O3 2.149273 1_555
Nb2 O8 1.943014 1_555
Nb2 O12 1.944535 1_555
Nb2 O6 2.013530 1_555
Nb2 O7 2.017202 1_655
Nb2 O58 2.095155 1_555
Nb2 O56 2.184954 1_555
Nb3 O9 1.943014 1_555
Nb3 O13 1.944535 1_555
Nb3 O6 2.013530 1_555
Nb3 O7 2.017202 1_555
Nb3 O59 2.095155 1_555
Nb3 O57 2.184954 1_555
Nb4 O14 2.012639 1_555
Nb4 O15 2.013060 1_655
Nb4 O18 2.021320 1_556
Nb4 O4 2.032681 1_555
Nb4 O20 2.037962 1_546
Nb4 O8 2.065314 1_545
Nb5 O14 2.012639 1_555
Nb5 O15 2.013060 1_555
Nb5 O19 2.021320 1_556
Nb5 O5 2.032681 1_555
Nb5 O21 2.037962 1_546
Nb5 O9 2.065314 1_545
Nb6 O17 2.012639 1_655
Nb6 O16 2.013060 1_555
Nb6 O12 2.021320 1_554
Nb6 O26 2.032681 1_555
Nb6 O10 2.037962 1_554
Nb6 O22 2.065314 1_555
Nb7 O17 2.012639 1_555
Nb7 O16 2.013060 1_555
Nb7 O13 2.021320 1_554
Nb7 O27 2.032681 1_555
Nb7 O11 2.037962 1_554
Nb7 O23 2.065314 1_555
Nb8 O22 1.943014 1_555
Nb8 O18 1.944535 1_555
Nb8 O24 2.013530 1_655
Nb8 O25 2.017202 1_555
Nb8 O32 2.095155 1_555
Nb8 O34 2.184954 1_555
Nb9 O23 1.943014 1_555
Nb9 O19 1.944535 1_555
Nb9 O24 2.013530 1_555
Nb9 O25 2.017202 1_555
Nb9 O33 2.095155 1_555
Nb9 O35 2.184954 1_555
Nb10 O33 1.882426 1_555
Nb10 O21 1.914388 1_545
Nb10 O30 1.960876 1_545
Nb10 O31 2.102911 1_545
Nb10 O41 2.112055 1_545
Nb10 O28 2.149273 1_545
Nb11 O32 1.882426 1_555
Nb11 O20 1.914388 1_545
Nb11 O30 1.960876 1_645
Nb11 O31 2.102911 1_545
Nb11 O40 2.112055 1_545
Nb11 O29 2.149273 1_545
Nb12 O36 1.951675 1_655
Nb12 O38 1.955396 1_555
Nb12 O26 1.973110 1_555
Nb12 O29 2.049071 1_555
Nb12 O42 2.080835 1_555
Nb12 O37 2.095444 1_555
Nb13 O36 1.951675 1_555
Nb13 O39 1.955396 1_555
Nb13 O27 1.973110 1_555
Nb13 O28 2.049071 1_555
Nb13 O43 2.080835 1_555
Nb13 O37 2.095444 1_555
Nb14 O31 2.084939 1_555
Nb14 O46 2.112112 1_555
Nb14 O37 2.124695 1_555
Nb14 O40 2.166342 1_555
Nb14 O41 2.166342 1_555
Nb14 O28 2.193052 1_555
Nb14 O29 2.193052 1_555
Nb14 O43 2.505454 1_555
Nb14 O42 2.505454 1_555
Nb15 O34 1.887926 1_555
Nb15 O44 1.949349 1_555
Nb15 O48 2.014081 1_555
Nb15 O38 2.057290 1_555
Nb15 O45 2.095307 1_655
Nb15 O50 2.108420 1_555
Nb16 O35 1.887926 1_555
Nb16 O44 1.949349 1_555
Nb16 O49 2.014081 1_555
Nb16 O39 2.057290 1_555
Nb16 O45 2.095307 1_555
Nb16 O51 2.108420 1_555
Nb17 O56 1.887926 1_555
Nb17 O47 1.949349 1_655
Nb17 O42 2.014081 1_555
Nb17 O52 2.057290 1_565
Nb17 O46 2.095307 1_555
Nb17 O40 2.108420 1_555
Nb18 O57 1.887926 1_555
Nb18 O47 1.949349 1_555
Nb18 O43 2.014081 1_555
Nb18 O53 2.057290 1_565
Nb18 O46 2.095307 1_555
Nb18 O41 2.108420 1_555
Nb19 O1 2.084939 1_555
Nb19 O45 2.112112 1_555
Nb19 O55 2.124695 1_555
Nb19 O50 2.166342 1_455
Nb19 O51 2.166342 1_555
Nb19 O2 2.193052 1_455
Nb19 O3 2.193052 1_555
Nb19 O48 2.505454 1_455
Nb19 O49 2.505454 1_555
Nb20 O54 1.951675 1_555
Nb20 O52 1.955396 1_555
Nb20 O4 1.973110 1_555
Nb20 O2 2.049071 1_555
Nb20 O48 2.080835 1_555
Nb20 O55 2.095444 1_655
Nb21 O54 1.951675 1_555
Nb21 O53 1.955396 1_555
Nb21 O5 1.973110 1_555
Nb21 O3 2.049071 1_555
Nb21 O49 2.080835 1_555
Nb21 O55 2.095444 1_555
