# generated using pymatgen
data_Hf2MoIr
_symmetry_space_group_name_H-M   'P 1'
_cell_length_a   4.61685482
_cell_length_b   4.61684616
_cell_length_c   4.61684832
_cell_angle_alpha   60.00004661
_cell_angle_beta   59.99998445
_cell_angle_gamma   59.99998961
_symmetry_Int_Tables_number   1
_chemical_formula_structural   Hf2MoIr
_chemical_formula_sum   'Hf2 Mo1 Ir1'
_cell_volume   69.58606811
_cell_formula_units_Z   1
loop_
 _symmetry_equiv_pos_site_id
 _symmetry_equiv_pos_as_xyz
  1  'x, y, z'
loop_
 _atom_site_type_symbol
 _atom_site_label
 _atom_site_symmetry_multiplicity
 _atom_site_fract_x
 _atom_site_fract_y
 _atom_site_fract_z
 _atom_site_occupancy
  Hf  Hf0  1  0.00000000  0.00000000  -0.00000000  1
  Hf  Hf1  1  0.50000000  0.50000100  0.50000100  1
  Mo  Mo0  1  0.75000000  0.74999900  0.74999900  1
  Ir  Ir0  1  0.25000000  0.25000000  0.25000000  1
loop_
_geom_bond_atom_site_label_1
_geom_bond_atom_site_label_2
_geom_bond_distance
_geom_bond_site_symmetry_2
Hf0 Mo0 2.827226 1_454
Hf0 Mo0 2.827228 1_445
Hf0 Ir0 2.827230 1_545
Hf0 Ir0 2.827231 1_554
Hf0 Ir0 2.827231 1_555
Hf0 Mo0 2.827234 1_544
Hf0 Ir0 2.827234 1_455
Hf0 Mo0 2.827239 1_444
Hf1 Mo0 2.827216 1_555
Hf1 Ir0 2.827226 1_565
Hf1 Ir0 2.827228 1_556
Hf1 Ir0 2.827234 1_655
Hf1 Mo0 2.827234 1_455
Hf1 Mo0 2.827238 1_545
Hf1 Ir0 2.827239 1_555
Hf1 Mo0 2.827239 1_554
