# generated using pymatgen
data_V3(PO4)2
_symmetry_space_group_name_H-M   'P 1'
_cell_length_a   8.79028000
_cell_length_b   9.34978755
_cell_length_c   9.70916837
_cell_angle_alpha   116.71194700
_cell_angle_beta   92.42121133
_cell_angle_gamma   113.47215075
_symmetry_Int_Tables_number   1
_chemical_formula_structural   V3(PO4)2
_chemical_formula_sum   'V12 P8 O32'
_cell_volume   629.53075111
_cell_formula_units_Z   4
loop_
 _symmetry_equiv_pos_site_id
 _symmetry_equiv_pos_as_xyz
  1  'x, y, z'
loop_
 _atom_site_type_symbol
 _atom_site_label
 _atom_site_symmetry_multiplicity
 _atom_site_fract_x
 _atom_site_fract_y
 _atom_site_fract_z
 _atom_site_occupancy
  V  V0  1  0.00152900  0.19901900  0.53462500  1
  V  V1  1  0.06983900  0.55520200  0.89229800  1
  V  V2  1  0.11451900  0.86428500  0.16224300  1
  V  V3  1  0.40312200  0.15348900  0.32361600  1
  V  V4  1  0.51885600  0.24153500  0.82568200  1
  V  V5  1  0.39833700  0.00074100  0.73758100  1
  V  V6  1  0.60166300  0.99925900  0.26241900  1
  V  V7  1  0.48114400  0.75846500  0.17431800  1
  V  V8  1  0.59687800  0.84651100  0.67638400  1
  V  V9  1  0.88548100  0.13571500  0.83775700  1
  V  V10  1  0.93016100  0.44479800  0.10770200  1
  V  V11  1  0.99847100  0.80098100  0.46537500  1
  P  P0  1  0.17565100  0.82109300  0.93190200  1
  P  P1  1  0.27477700  0.66329500  0.44991400  1
  P  P2  1  0.23626000  0.26821800  0.39785200  1
  P  P3  1  0.31658300  0.36336800  0.90376100  1
  P  P4  1  0.68341700  0.63663200  0.09623900  1
  P  P5  1  0.76374000  0.73178200  0.60214800  1
  P  P6  1  0.72522300  0.33670500  0.55008600  1
  P  P7  1  0.82434900  0.17890700  0.06809800  1
  O  O0  1  0.07217600  0.19059300  0.34623200  1
  O  O1  1  0.00525000  0.86261800  0.91596700  1
  O  O2  1  0.22653500  0.79370700  0.45765800  1
  O  O3  1  0.19016200  0.49686000  0.07993800  1
  O  O4  1  0.16132300  0.93829100  0.78415500  1
  O  O5  1  0.32605100  0.95200700  0.95073000  1
  O  O6  1  0.11017100  0.59312500  0.39385000  1
  O  O7  1  0.13165800  0.24829700  0.89797100  1
  O  O8  1  0.38640100  0.40033900  0.61250300  1
  O  O9  1  0.22150700  0.15197900  0.53513500  1
  O  O10  1  0.36902500  0.90717900  0.31352000  1
  O  O11  1  0.30855400  0.56921000  0.87550500  1
  O  O12  1  0.60049500  0.84887500  0.54742200  1
  O  O13  1  0.59569300  0.49647900  0.21427200  1
  O  O14  1  0.24905700  0.58780500  0.24848100  1
  O  O15  1  0.57911300  0.90239700  0.91904400  1
  O  O16  1  0.42088700  0.09760300  0.08095600  1
  O  O17  1  0.75094300  0.41219500  0.75151900  1
  O  O18  1  0.40430700  0.50352100  0.78572800  1
  O  O19  1  0.39950500  0.15112500  0.45257800  1
  O  O20  1  0.69144600  0.43079000  0.12449500  1
  O  O21  1  0.63097500  0.09282100  0.68648000  1
  O  O22  1  0.77849300  0.84802100  0.46486500  1
  O  O23  1  0.61359900  0.59966100  0.38749700  1
  O  O24  1  0.86834200  0.75170300  0.10202900  1
  O  O25  1  0.88982900  0.40687500  0.60615000  1
  O  O26  1  0.67394900  0.04799300  0.04927000  1
  O  O27  1  0.83867700  0.06170900  0.21584500  1
  O  O28  1  0.80983800  0.50314000  0.92006200  1
  O  O29  1  0.77346500  0.20629300  0.54234200  1
  O  O30  1  0.99475000  0.13738200  0.08403300  1
  O  O31  1  0.92782400  0.80940700  0.65376800  1
loop_
_geom_bond_atom_site_label_1
_geom_bond_atom_site_label_2
_geom_bond_distance
_geom_bond_site_symmetry_2
V4 V5 1.792994 1_555
V6 V7 1.792994 1_555
P0 V1 2.112272 1_555
P3 V4 2.446358 1_555
P4 V7 2.446358 1_555
P7 V10 2.112272 1_555
O0 P2 1.279180 1_555
O0 V0 1.934685 1_555
O1 P0 1.707625 1_555
O2 P1 1.415771 1_555
O2 O6 1.523487 1_555
O2 V11 2.036165 1_455
O2 V5 2.451342 1_565
O3 V10 2.194727 1_455
O3 P3 2.250516 1_554
O3 V1 2.434234 1_554
O3 V7 2.483537 1_555
O4 V5 2.057656 1_565
O5 P0 1.329966 1_555
O5 V5 2.371161 1_565
O6 P1 1.294808 1_555
O6 V10 2.561722 1_455
O7 P3 1.532254 1_555
O7 V9 1.912556 1_455
O8 O9 1.927702 1_555
O8 P2 1.940513 1_555
O9 P2 2.044323 1_555
O9 V0 2.147361 1_555
O9 V11 2.799382 1_445
O10 V6 2.058266 1_555
O10 V7 2.060592 1_555
O10 V3 2.155858 1_565
O10 V2 2.408564 1_555
O11 O18 1.355715 1_555
O11 V1 2.067868 1_555
O11 P3 2.089375 1_555
O11 V7 2.593108 1_556
O12 V8 1.263714 1_555
O12 O22 1.789095 1_555
O13 O20 1.355715 1_555
O13 O23 1.477209 1_555
O13 P4 2.060309 1_555
O14 O3 1.412693 1_555
O14 P1 1.723011 1_555
O14 V7 2.406337 1_555
O15 O26 1.267398 1_566
O15 V8 2.199457 1_555
O16 O5 1.267398 1_544
O16 V3 2.199457 1_555
O17 O28 1.412693 1_555
O17 P6 1.723011 1_555
O17 V4 2.406337 1_555
O18 O8 1.477209 1_555
O18 P3 2.060309 1_555
O19 V3 1.263714 1_555
O19 O9 1.789095 1_555
O20 V10 2.067868 1_555
O20 P4 2.089375 1_555
O20 V4 2.593108 1_554
O21 V5 2.058266 1_555
O21 V4 2.060592 1_555
O21 V8 2.155858 1_545
O21 V9 2.408564 1_555
O22 O23 1.927702 1_555
O22 P5 2.044323 1_555
O22 V11 2.147361 1_555
O22 V0 2.799382 1_665
O23 P5 1.940513 1_555
O24 P4 1.532254 1_555
O24 V2 1.912556 1_655
O25 P6 1.294808 1_555
O25 O29 1.523487 1_555
O25 V1 2.561722 1_655
O26 P7 1.329966 1_555
O26 V6 2.371161 1_545
O27 V6 2.057656 1_545
O28 V1 2.194727 1_655
O28 P4 2.250516 1_556
O28 V10 2.434234 1_556
O28 V4 2.483537 1_555
O29 P6 1.415771 1_555
O29 V0 2.036165 1_655
O29 V6 2.451342 1_545
O30 P7 1.707625 1_555
O31 P5 1.279180 1_555
O31 V11 1.934685 1_555
