# generated using pymatgen
data_PrCrSe3
_symmetry_space_group_name_H-M   'P 1'
_cell_length_a   3.97378937
_cell_length_b   8.18812469
_cell_length_c   13.77453414
_cell_angle_alpha   90.00000000
_cell_angle_beta   90.00000000
_cell_angle_gamma   90.00000000
_symmetry_Int_Tables_number   1
_chemical_formula_structural   PrCrSe3
_chemical_formula_sum   'Pr4 Cr4 Se12'
_cell_volume   448.19417821
_cell_formula_units_Z   4
loop_
 _symmetry_equiv_pos_site_id
 _symmetry_equiv_pos_as_xyz
  1  'x, y, z'
loop_
 _atom_site_type_symbol
 _atom_site_label
 _atom_site_symmetry_multiplicity
 _atom_site_fract_x
 _atom_site_fract_y
 _atom_site_fract_z
 _atom_site_occupancy
  Pr  Pr0  1  0.25000000  0.90590884  0.32844455  1
  Pr  Pr1  1  0.75000000  0.59409116  0.82844455  1
  Pr  Pr2  1  0.25000000  0.40590884  0.17155545  1
  Pr  Pr3  1  0.75000000  0.09409116  0.67155545  1
  Cr  Cr0  1  0.25000000  0.66066065  0.55122951  1
  Cr  Cr1  1  0.75000000  0.83933935  0.05122951  1
  Cr  Cr2  1  0.25000000  0.16066065  0.94877049  1
  Cr  Cr3  1  0.75000000  0.33933935  0.44877049  1
  Se  Se0  1  0.75000000  0.98654543  0.89183322  1
  Se  Se1  1  0.25000000  0.01345457  0.10816678  1
  Se  Se2  1  0.75000000  0.48654543  0.60816678  1
  Se  Se3  1  0.25000000  0.80885327  0.71116400  1
  Se  Se4  1  0.75000000  0.69114673  0.21116400  1
  Se  Se5  1  0.25000000  0.30885327  0.78883600  1
  Se  Se6  1  0.75000000  0.19114673  0.28883600  1
  Se  Se7  1  0.25000000  0.65839828  0.99503293  1
  Se  Se8  1  0.75000000  0.84160172  0.49503293  1
  Se  Se9  1  0.25000000  0.15839828  0.50496707  1
  Se  Se10  1  0.75000000  0.34160172  0.00496707  1
  Se  Se11  1  0.25000000  0.51345457  0.39183322  1
loop_
_geom_bond_atom_site_label_1
_geom_bond_atom_site_label_2
_geom_bond_distance
_geom_bond_site_symmetry_2
Pr0 Se8 3.080674 1_555
Pr0 Se8 3.080674 1_455
Pr0 Se4 3.106422 1_555
Pr0 Se4 3.106422 1_455
Pr0 Se6 3.114526 1_465
Pr0 Se6 3.114526 1_565
Pr0 Se1 3.159425 1_565
Pr0 Se9 3.191625 1_565
Pr0 Se11 3.329977 1_555
Pr1 Se7 3.080674 1_655
Pr1 Se7 3.080674 1_555
Pr1 Se3 3.106422 1_555
Pr1 Se3 3.106422 1_655
Pr1 Se5 3.114526 1_655
Pr1 Se5 3.114526 1_555
Pr1 Se2 3.159425 1_555
Pr1 Se10 3.191625 1_556
Pr1 Se0 3.329977 1_555
Pr2 Se10 3.080674 1_455
Pr2 Se10 3.080674 1_555
Pr2 Se6 3.106422 1_455
Pr2 Se6 3.106422 1_555
Pr2 Se4 3.114526 1_455
Pr2 Se4 3.114526 1_555
Pr2 Se11 3.159425 1_555
Pr2 Se7 3.191625 1_554
Pr2 Se1 3.329977 1_555
Pr3 Se9 3.080674 1_655
Pr3 Se9 3.080674 1_555
Pr3 Se5 3.106422 1_555
Pr3 Se5 3.106422 1_655
Pr3 Se3 3.114526 1_545
Pr3 Se3 3.114526 1_645
Pr3 Se0 3.159425 1_545
Pr3 Se8 3.191625 1_545
Pr3 Se2 3.329977 1_555
Cr0 Se11 2.504706 1_555
Cr0 Se3 2.515094 1_555
Cr0 Se2 2.568153 1_455
Cr0 Se2 2.568153 1_555
Cr0 Se8 2.596536 1_455
Cr0 Se8 2.596536 1_555
Cr1 Se0 2.504706 1_554
Cr1 Se4 2.515094 1_555
Cr1 Se1 2.568153 1_565
Cr1 Se1 2.568153 1_665
Cr1 Se7 2.596536 1_554
Cr1 Se7 2.596536 1_654
Cr2 Se1 2.504706 1_556
Cr2 Se5 2.515094 1_555
Cr2 Se0 2.568153 1_545
Cr2 Se0 2.568153 1_445
Cr2 Se10 2.596536 1_556
Cr2 Se10 2.596536 1_456
Cr3 Se2 2.504706 1_555
Cr3 Se6 2.515094 1_555
Cr3 Se11 2.568153 1_555
Cr3 Se11 2.568153 1_655
Cr3 Se9 2.596536 1_655
Cr3 Se9 2.596536 1_555
