# generated using pymatgen
data_SmAgHg2
_symmetry_space_group_name_H-M   'P 1'
_cell_length_a   5.03823299
_cell_length_b   5.03823299
_cell_length_c   5.03823299
_cell_angle_alpha   60.00000000
_cell_angle_beta   60.00000000
_cell_angle_gamma   60.00000000
_symmetry_Int_Tables_number   1
_chemical_formula_structural   SmAgHg2
_chemical_formula_sum   'Sm1 Ag1 Hg2'
_cell_volume   90.43150179
_cell_formula_units_Z   1
loop_
 _symmetry_equiv_pos_site_id
 _symmetry_equiv_pos_as_xyz
  1  'x, y, z'
loop_
 _atom_site_type_symbol
 _atom_site_label
 _atom_site_symmetry_multiplicity
 _atom_site_fract_x
 _atom_site_fract_y
 _atom_site_fract_z
 _atom_site_occupancy
  Sm  Sm0  1  0.75000000  0.75000000  0.75000000  1
  Ag  Ag0  1  0.25000100  0.25000100  0.25000100  1
  Hg  Hg0  1  -0.00000000  -0.00000000  0.00000000  1
  Hg  Hg1  1  0.50000100  0.50000100  0.50000100  1
loop_
_geom_bond_atom_site_label_1
_geom_bond_atom_site_label_2
_geom_bond_distance
_geom_bond_site_symmetry_2
Ag0 Hg0 3.085271 1_556
Ag0 Hg0 3.085271 1_565
Ag0 Hg0 3.085271 1_655
Ag0 Hg1 3.085275 1_545
Ag0 Hg1 3.085275 1_455
Ag0 Hg1 3.085275 1_554
Ag0 Hg1 3.085275 1_555
Ag0 Hg0 3.085287 1_555
Ag0 Sm0 3.562562 1_545
Ag0 Sm0 3.562562 1_554
Ag0 Sm0 3.562562 1_455
Ag0 Sm0 3.562576 1_445
Ag0 Sm0 3.562576 1_544
Ag0 Sm0 3.562576 1_454
Hg0 Sm0 3.085275 1_454
Hg0 Sm0 3.085275 1_544
Hg0 Sm0 3.085275 1_445
Hg0 Sm0 3.085275 1_444
Hg1 Sm0 3.085263 1_555
Hg1 Sm0 3.085279 1_455
Hg1 Sm0 3.085279 1_545
Hg1 Sm0 3.085279 1_554
