# generated using pymatgen
data_Fe4S5
_symmetry_space_group_name_H-M   'P 1'
_cell_length_a   7.89126908
_cell_length_b   10.06905432
_cell_length_c   7.89945416
_cell_angle_alpha   91.19086031
_cell_angle_beta   89.99924224
_cell_angle_gamma   89.31967114
_symmetry_Int_Tables_number   1
_chemical_formula_structural   Fe4S5
_chemical_formula_sum   'Fe8 S10'
_cell_volume   627.49197430
_cell_formula_units_Z   2
loop_
 _symmetry_equiv_pos_site_id
 _symmetry_equiv_pos_as_xyz
  1  'x, y, z'
loop_
 _atom_site_type_symbol
 _atom_site_label
 _atom_site_symmetry_multiplicity
 _atom_site_fract_x
 _atom_site_fract_y
 _atom_site_fract_z
 _atom_site_occupancy
  Fe  Fe0  1  0.09664700  0.99619100  0.29274200  1
  Fe  Fe1  1  0.20466600  0.99488500  0.59543400  1
  Fe  Fe2  1  0.29401300  0.00440700  0.90047800  1
  Fe  Fe3  1  0.40179500  0.00580300  0.20311600  1
  Fe  Fe4  1  0.90301600  0.99631700  0.70699700  1
  Fe  Fe5  1  0.79473800  0.99489300  0.40401400  1
  Fe  Fe6  1  0.70605200  0.00437400  0.09995000  1
  Fe  Fe7  1  0.59798700  0.00558400  0.79734200  1
  S  S0  1  0.99767700  0.11850600  0.50293200  1
  S  S1  1  0.20111100  0.12536100  0.10811000  1
  S  S2  1  0.29794100  0.87617800  0.38621300  1
  S  S3  1  0.39116800  0.12295400  0.70421700  1
  S  S4  1  0.50197500  0.88177100  0.99694000  1
  S  S5  1  0.89346700  0.87356900  0.20301600  1
  S  S6  1  0.79504200  0.12511500  0.89885900  1
  S  S7  1  0.70541800  0.87618000  0.60712500  1
  S  S8  1  0.60544800  0.12388100  0.30143800  1
  S  S9  1  0.10983700  0.87403100  0.79107700  1
loop_
_geom_bond_atom_site_label_1
_geom_bond_atom_site_label_2
_geom_bond_distance
_geom_bond_site_symmetry_2
Fe0 S2 2.126081 1_555
Fe0 S1 2.145378 1_565
Fe0 S5 2.146677 1_455
Fe0 S0 2.185359 1_465
Fe1 S9 2.128156 1_555
Fe1 S3 2.136912 1_565
Fe1 S2 2.144512 1_555
Fe1 S0 2.177363 1_465
Fe2 S3 2.124813 1_555
Fe2 S9 2.140259 1_545
Fe2 S1 2.146309 1_556
Fe2 S4 2.188520 1_545
Fe3 S1 2.124318 1_555
Fe3 S2 2.137992 1_545
Fe3 S8 2.146286 1_555
Fe3 S4 2.174683 1_544
Fe4 S7 2.126565 1_555
Fe4 S6 2.144052 1_565
Fe4 S9 2.146448 1_655
Fe4 S0 2.185061 1_565
Fe5 S5 2.125350 1_555
Fe5 S8 2.138313 1_565
Fe5 S7 2.144674 1_555
Fe5 S0 2.175166 1_565
Fe6 S8 2.123501 1_555
Fe6 S5 2.140838 1_545
Fe6 S6 2.143611 1_554
Fe6 S4 2.187485 1_544
Fe7 S6 2.124638 1_555
Fe7 S7 2.136972 1_545
Fe7 S3 2.142854 1_555
Fe7 S4 2.172185 1_545
