# generated using pymatgen
data_CdSO3
_symmetry_space_group_name_H-M   'P 1'
_cell_length_a   9.02571500
_cell_length_b   4.57347900
_cell_length_c   7.28329335
_cell_angle_alpha   88.92985652
_cell_angle_beta   90.00000000
_cell_angle_gamma   90.00000000
_symmetry_Int_Tables_number   1
_chemical_formula_structural   CdSO3
_chemical_formula_sum   'Cd4 S4 O12'
_cell_volume   300.59403038
_cell_formula_units_Z   4
loop_
 _symmetry_equiv_pos_site_id
 _symmetry_equiv_pos_as_xyz
  1  'x, y, z'
loop_
 _atom_site_type_symbol
 _atom_site_label
 _atom_site_symmetry_multiplicity
 _atom_site_fract_x
 _atom_site_fract_y
 _atom_site_fract_z
 _atom_site_occupancy
  Cd  Cd0  1  0.71063200  0.78508100  0.47311700  1
  Cd  Cd1  1  0.21063200  0.21491900  0.02688300  1
  Cd  Cd2  1  0.28936800  0.21491900  0.52688300  1
  Cd  Cd3  1  0.78936800  0.78508100  0.97311700  1
  S  S0  1  0.57195400  0.25849300  0.21230500  1
  S  S1  1  0.07195400  0.74150700  0.28769500  1
  S  S2  1  0.42804600  0.74150700  0.78769500  1
  S  S3  1  0.92804600  0.25849300  0.71230500  1
  O  O0  1  0.90223900  0.73476500  0.25504300  1
  O  O1  1  0.40223900  0.26523500  0.24495700  1
  O  O2  1  0.09776100  0.26523500  0.74495700  1
  O  O3  1  0.59776100  0.73476500  0.75504300  1
  O  O4  1  0.60985700  0.93016100  0.18398100  1
  O  O5  1  0.10985700  0.06983900  0.31601900  1
  O  O6  1  0.39014300  0.06983900  0.81601900  1
  O  O7  1  0.89014300  0.93016100  0.68398100  1
  O  O8  1  0.86111900  0.30649300  0.90636000  1
  O  O9  1  0.36111900  0.69350700  0.59364000  1
  O  O10  1  0.13888100  0.69350700  0.09364000  1
  O  O11  1  0.63888100  0.30649300  0.40636000  1
loop_
_geom_bond_atom_site_label_1
_geom_bond_atom_site_label_2
_geom_bond_distance
_geom_bond_site_symmetry_2
Cd0 O3 2.299866 1_555
Cd0 O7 2.337104 1_555
Cd0 O11 2.342316 1_555
Cd0 O0 2.362220 1_555
Cd0 O4 2.376980 1_555
Cd0 O11 2.509805 1_565
Cd1 O2 2.299866 1_554
Cd1 O6 2.337104 1_554
Cd1 O10 2.342316 1_555
Cd1 O1 2.362220 1_555
Cd1 O5 2.376980 1_555
Cd1 O10 2.509805 1_545
Cd2 O1 2.299866 1_555
Cd2 O5 2.337104 1_555
Cd2 O9 2.342316 1_555
Cd2 O2 2.362220 1_555
Cd2 O6 2.376980 1_555
Cd2 O9 2.509805 1_545
Cd3 O0 2.299866 1_556
Cd3 O4 2.337104 1_556
Cd3 O8 2.342316 1_555
Cd3 O3 2.362220 1_555
Cd3 O7 2.376980 1_555
Cd3 O8 2.509805 1_565
O0 S1 1.550545 1_655
O1 S0 1.550545 1_555
O2 S3 1.550545 1_455
O3 S2 1.550545 1_555
O4 S0 1.557569 1_565
O5 S1 1.557569 1_545
O6 S2 1.557569 1_545
O7 S3 1.557569 1_565
O8 S3 1.556361 1_555
O9 S2 1.556361 1_555
O10 S1 1.556361 1_555
O11 S0 1.556361 1_555
