# generated using pymatgen
data_LuSnRh2
_symmetry_space_group_name_H-M   'P 1'
_cell_length_a   4.61448083
_cell_length_b   4.61448083
_cell_length_c   4.61448083
_cell_angle_alpha   60.00000000
_cell_angle_beta   60.00000000
_cell_angle_gamma   60.00000000
_symmetry_Int_Tables_number   1
_chemical_formula_structural   LuSnRh2
_chemical_formula_sum   'Lu1 Sn1 Rh2'
_cell_volume   69.47899726
_cell_formula_units_Z   1
loop_
 _symmetry_equiv_pos_site_id
 _symmetry_equiv_pos_as_xyz
  1  'x, y, z'
loop_
 _atom_site_type_symbol
 _atom_site_label
 _atom_site_symmetry_multiplicity
 _atom_site_fract_x
 _atom_site_fract_y
 _atom_site_fract_z
 _atom_site_occupancy
  Lu  Lu0  1  0.25000000  0.25000000  0.25000000  1
  Sn  Sn0  1  0.75000100  0.75000100  0.75000100  1
  Rh  Rh0  1  -0.00000000  -0.00000000  -0.00000000  1
  Rh  Rh1  1  0.49999900  0.49999900  0.49999900  1
loop_
_geom_bond_atom_site_label_1
_geom_bond_atom_site_label_2
_geom_bond_distance
_geom_bond_site_symmetry_2
Lu0 Rh1 2.825770 1_555
Lu0 Rh0 2.825781 1_655
Lu0 Rh0 2.825781 1_565
Lu0 Rh0 2.825781 1_555
Lu0 Rh0 2.825781 1_556
Lu0 Rh1 2.825785 1_554
Lu0 Rh1 2.825785 1_455
Lu0 Rh1 2.825785 1_545
Rh0 Sn0 2.825770 1_444
Rh0 Sn0 2.825785 1_445
Rh0 Sn0 2.825785 1_454
Rh0 Sn0 2.825785 1_544
Rh1 Sn0 2.825773 1_455
Rh1 Sn0 2.825773 1_554
Rh1 Sn0 2.825773 1_545
Rh1 Sn0 2.825803 1_555
