# generated using pymatgen
data_Ca3Sn2S7
_symmetry_space_group_name_H-M   'P 1'
_cell_length_a   6.61350900
_cell_length_b   10.52193700
_cell_length_c   17.48677668
_cell_angle_alpha   82.22967341
_cell_angle_beta   90.00000000
_cell_angle_gamma   90.00000000
_symmetry_Int_Tables_number   1
_chemical_formula_structural   Ca3Sn2S7
_chemical_formula_sum   'Ca12 Sn8 S28'
_cell_volume   1205.67788538
_cell_formula_units_Z   4
loop_
 _symmetry_equiv_pos_site_id
 _symmetry_equiv_pos_as_xyz
  1  'x, y, z'
loop_
 _atom_site_type_symbol
 _atom_site_label
 _atom_site_symmetry_multiplicity
 _atom_site_fract_x
 _atom_site_fract_y
 _atom_site_fract_z
 _atom_site_occupancy
  Ca  Ca0  1  0.27522800  0.96001500  0.37848100  1
  Ca  Ca1  1  0.77522800  0.03998500  0.12151900  1
  Ca  Ca2  1  0.72477200  0.03998500  0.62151900  1
  Ca  Ca3  1  0.22477200  0.96001500  0.87848100  1
  Ca  Ca4  1  0.21571200  0.50853200  0.38242400  1
  Ca  Ca5  1  0.71571200  0.49146800  0.11757600  1
  Ca  Ca6  1  0.78428800  0.49146800  0.61757600  1
  Ca  Ca7  1  0.28428800  0.50853200  0.88242400  1
  Ca  Ca8  1  0.23271400  0.74780700  0.67095100  1
  Ca  Ca9  1  0.73271400  0.25219300  0.82904900  1
  Ca  Ca10  1  0.76728600  0.25219300  0.32904900  1
  Ca  Ca11  1  0.26728600  0.74780700  0.17095100  1
  Sn  Sn0  1  0.29899200  0.20861000  0.99861700  1
  Sn  Sn1  1  0.79899200  0.79139000  0.50138300  1
  Sn  Sn2  1  0.70100800  0.79139000  0.00138300  1
  Sn  Sn3  1  0.20100800  0.20861000  0.49861700  1
  Sn  Sn4  1  0.20157600  0.27256600  0.20197700  1
  Sn  Sn5  1  0.70157600  0.72743400  0.29802300  1
  Sn  Sn6  1  0.79842400  0.72743400  0.79802300  1
  Sn  Sn7  1  0.29842400  0.27256600  0.70197700  1
  S  S0  1  0.02066400  0.45061100  0.24296000  1
  S  S1  1  0.52066400  0.54938900  0.25704000  1
  S  S2  1  0.97933600  0.54938900  0.75704000  1
  S  S3  1  0.47933600  0.45061100  0.74296000  1
  S  S4  1  0.01615100  0.08234800  0.25157000  1
  S  S5  1  0.51615100  0.91765200  0.24843000  1
  S  S6  1  0.98384900  0.91765200  0.74843000  1
  S  S7  1  0.48384900  0.08234800  0.75157000  1
  S  S8  1  0.55937100  0.25266300  0.18077900  1
  S  S9  1  0.05937100  0.74733700  0.31922100  1
  S  S10  1  0.44062900  0.74733700  0.81922100  1
  S  S11  1  0.94062900  0.25266300  0.68077900  1
  S  S12  1  0.05258500  0.32263200  0.06962600  1
  S  S13  1  0.55258500  0.67736800  0.43037400  1
  S  S14  1  0.94741500  0.67736800  0.93037400  1
  S  S15  1  0.44741500  0.32263200  0.56962600  1
  S  S16  1  0.58234500  0.34930000  0.96701400  1
  S  S17  1  0.08234500  0.65070000  0.53298600  1
  S  S18  1  0.41765500  0.65070000  0.03298600  1
  S  S19  1  0.91765500  0.34930000  0.46701400  1
  S  S20  1  0.26352000  0.98743900  0.04750900  1
  S  S21  1  0.76352000  0.01256100  0.45249100  1
  S  S22  1  0.73648000  0.01256100  0.95249100  1
  S  S23  1  0.23648000  0.98743900  0.54750900  1
  S  S24  1  0.14102200  0.23406800  0.87133200  1
  S  S25  1  0.64102200  0.76593200  0.62866800  1
  S  S26  1  0.85897800  0.76593200  0.12866800  1
  S  S27  1  0.35897800  0.23406800  0.37133200  1
loop_
_geom_bond_atom_site_label_1
_geom_bond_atom_site_label_2
_geom_bond_distance
_geom_bond_site_symmetry_2
Ca0 S5 2.860665 1_555
Ca0 S27 2.922311 1_565
Ca0 S4 2.957245 1_565
Ca0 S9 2.957455 1_555
Ca0 S23 3.019279 1_555
Ca1 S4 2.860665 1_655
Ca1 S26 2.922311 1_545
Ca1 S5 2.957245 1_545
Ca1 S8 2.957455 1_555
Ca1 S22 3.019279 1_554
Ca2 S7 2.860665 1_555
Ca2 S25 2.922311 1_545
Ca2 S6 2.957245 1_545
Ca2 S11 2.957455 1_555
Ca2 S21 3.019279 1_555
Ca3 S6 2.860665 1_455
Ca3 S24 2.922311 1_565
Ca3 S7 2.957245 1_565
Ca3 S10 2.957455 1_555
Ca3 S20 3.019279 1_556
Ca4 S9 2.802368 1_555
Ca4 S19 2.865416 1_455
Ca4 S0 2.895673 1_555
Ca4 S1 2.967281 1_555
Ca4 S13 3.037324 1_555
Ca4 S27 3.070302 1_555
Ca4 S17 3.318504 1_555
Ca5 S8 2.802368 1_555
Ca5 S18 2.865416 1_555
Ca5 S1 2.895673 1_555
Ca5 S0 2.967281 1_655
Ca5 S12 3.037324 1_655
Ca5 S26 3.070302 1_555
Ca5 S16 3.318504 1_554
Ca6 S11 2.802368 1_555
Ca6 S17 2.865416 1_655
Ca6 S2 2.895673 1_555
Ca6 S3 2.967281 1_555
Ca6 S15 3.037324 1_555
Ca6 S25 3.070302 1_555
Ca6 S19 3.318504 1_555
Ca7 S10 2.802368 1_555
Ca7 S16 2.865416 1_555
Ca7 S3 2.895673 1_555
Ca7 S2 2.967281 1_455
Ca7 S14 3.037324 1_455
Ca7 S24 3.070302 1_555
Ca7 S18 3.318504 1_556
Ca8 S25 2.799433 1_555
Ca8 S6 2.897063 1_455
Ca8 S17 2.918898 1_555
Ca8 S2 2.929696 1_455
Ca8 S10 2.934236 1_555
Ca8 S23 3.089641 1_555
Ca9 S24 2.799433 1_655
Ca9 S7 2.897063 1_555
Ca9 S16 2.918898 1_555
Ca9 S3 2.929696 1_555
Ca9 S11 2.934236 1_555
Ca9 S22 3.089641 1_555
Ca10 S27 2.799433 1_555
Ca10 S4 2.897063 1_655
Ca10 S19 2.918898 1_555
Ca10 S0 2.929696 1_655
Ca10 S8 2.934236 1_555
Ca10 S21 3.089641 1_555
Ca11 S26 2.799433 1_455
Ca11 S5 2.897063 1_555
Ca11 S18 2.918898 1_555
Ca11 S1 2.929696 1_555
Ca11 S9 2.934236 1_555
Ca11 S20 3.089641 1_555
S0 Sn4 2.411993 1_555
S1 Sn5 2.411993 1_555
S2 Sn6 2.411993 1_555
S3 Sn7 2.411993 1_555
S4 Sn4 2.406743 1_555
S5 Sn5 2.406743 1_555
S6 Sn6 2.406743 1_555
S7 Sn7 2.406743 1_555
S8 Sn4 2.408638 1_555
S9 Sn5 2.408638 1_455
S10 Sn6 2.408638 1_555
S11 Sn7 2.408638 1_655
S12 Sn0 2.457580 1_554
S12 Sn4 2.505028 1_555
S13 Sn1 2.457580 1_555
S13 Sn5 2.505028 1_555
S14 Sn2 2.457580 1_556
S14 Sn6 2.505028 1_555
S15 Sn3 2.457580 1_555
S15 Sn7 2.505028 1_555
S16 Sn0 2.405679 1_555
S17 Sn1 2.405679 1_455
S18 Sn2 2.405679 1_555
S19 Sn3 2.405679 1_655
S20 Sn0 2.379833 1_564
S21 Sn1 2.379833 1_545
S22 Sn2 2.379833 1_546
S23 Sn3 2.379833 1_565
S24 Sn0 2.440535 1_555
S24 Sn7 3.113465 1_555
S25 Sn1 2.440535 1_555
S25 Sn6 3.113465 1_555
S26 Sn2 2.440535 1_555
S26 Sn5 3.113465 1_555
S27 Sn3 2.440535 1_555
S27 Sn4 3.113465 1_555
