# generated using pymatgen
data_EuH32C8N4Cl7
_symmetry_space_group_name_H-M   'P 1'
_cell_length_a   8.85791500
_cell_length_b   10.55819900
_cell_length_c   13.51591500
_cell_angle_alpha   90.00000000
_cell_angle_beta   90.00000000
_cell_angle_gamma   90.00000000
_symmetry_Int_Tables_number   1
_chemical_formula_structural   EuH32C8N4Cl7
_chemical_formula_sum   'Eu2 H64 C16 N8 Cl14'
_cell_volume   1264.05742404
_cell_formula_units_Z   2
loop_
 _symmetry_equiv_pos_site_id
 _symmetry_equiv_pos_as_xyz
  1  'x, y, z'
loop_
 _atom_site_type_symbol
 _atom_site_label
 _atom_site_symmetry_multiplicity
 _atom_site_fract_x
 _atom_site_fract_y
 _atom_site_fract_z
 _atom_site_occupancy
  Eu  Eu0  1  0.92936500  0.50000000  0.00000000  1
  Eu  Eu1  1  0.07063500  0.00000000  0.50000000  1
  H  H0  1  0.97696500  0.77266700  0.17396200  1
  H  H1  1  0.97696500  0.22733300  0.82603800  1
  H  H2  1  0.02303500  0.72733300  0.67396200  1
  H  H3  1  0.02303500  0.27266700  0.32603800  1
  H  H4  1  0.96210700  0.88945900  0.25607800  1
  H  H5  1  0.96210700  0.11054100  0.74392200  1
  H  H6  1  0.03789300  0.61054100  0.75607800  1
  H  H7  1  0.03789300  0.38945900  0.24392200  1
  H  H8  1  0.62458400  0.67823200  0.93376500  1
  H  H9  1  0.62458400  0.32176800  0.06623500  1
  H  H10  1  0.37541600  0.82176800  0.43376500  1
  H  H11  1  0.37541600  0.17823200  0.56623500  1
  H  H12  1  0.54252500  0.82191000  0.94211200  1
  H  H13  1  0.54252500  0.17809000  0.05788800  1
  H  H14  1  0.45747500  0.67809000  0.44211200  1
  H  H15  1  0.45747500  0.32191000  0.55788800  1
  H  H16  1  0.54597900  0.65740300  0.76246800  1
  H  H17  1  0.54597900  0.34259700  0.23753200  1
  H  H18  1  0.45402100  0.84259700  0.26246800  1
  H  H19  1  0.45402100  0.15740300  0.73753200  1
  H  H20  1  0.66157900  0.79369600  0.78308300  1
  H  H21  1  0.66157900  0.20630400  0.21691700  1
  H  H22  1  0.33842100  0.70630400  0.28308300  1
  H  H23  1  0.33842100  0.29369600  0.71691700  1
  H  H24  1  0.46203700  0.81157500  0.77161700  1
  H  H25  1  0.46203700  0.18842500  0.22838300  1
  H  H26  1  0.53796300  0.68842500  0.27161700  1
  H  H27  1  0.53796300  0.31157500  0.72838300  1
  H  H28  1  0.81398400  0.01595700  0.14111100  1
  H  H29  1  0.81398400  0.98404300  0.85888900  1
  H  H30  1  0.18601600  0.48404300  0.64111100  1
  H  H31  1  0.18601600  0.51595700  0.35888900  1
  H  H32  1  0.72878000  0.86651300  0.16908200  1
  H  H33  1  0.72878000  0.13348700  0.83091800  1
  H  H34  1  0.27122000  0.63348700  0.66908200  1
  H  H35  1  0.27122000  0.36651300  0.33091800  1
  H  H36  1  0.82602100  0.88723600  0.05492200  1
  H  H37  1  0.82602100  0.11276400  0.94507800  1
  H  H38  1  0.17397900  0.61276400  0.55492200  1
  H  H39  1  0.17397900  0.38723600  0.44507800  1
  H  H40  1  0.12087500  0.89990300  0.06269500  1
  H  H41  1  0.12087500  0.10009700  0.93730500  1
  H  H42  1  0.87912500  0.60009700  0.56269500  1
  H  H43  1  0.87912500  0.39990300  0.43730500  1
  H  H44  1  0.20390500  0.89947400  0.18296200  1
  H  H45  1  0.20390500  0.10052600  0.81703800  1
  H  H46  1  0.79609500  0.60052600  0.68296200  1
  H  H47  1  0.79609500  0.39947400  0.31703800  1
  H  H48  1  0.09593700  0.03293400  0.14346800  1
  H  H49  1  0.09593700  0.96706600  0.85653200  1
  H  H50  1  0.90406300  0.46706600  0.64346800  1
  H  H51  1  0.90406300  0.53293400  0.35653200  1
  H  H52  1  0.29705100  0.72894500  0.91048700  1
  H  H53  1  0.29705100  0.27105500  0.08951300  1
  H  H54  1  0.70294900  0.77105500  0.41048700  1
  H  H55  1  0.70294900  0.22894500  0.58951300  1
  H  H56  1  0.38619000  0.66649600  0.01835300  1
  H  H57  1  0.38619000  0.33350400  0.98164700  1
  H  H58  1  0.61381000  0.83350400  0.51835300  1
  H  H59  1  0.61381000  0.16649600  0.48164700  1
  H  H60  1  0.38552200  0.57656800  0.90643700  1
  H  H61  1  0.38552200  0.42343200  0.09356300  1
  H  H62  1  0.61447800  0.92343200  0.40643700  1
  H  H63  1  0.61447800  0.07656800  0.59356300  1
  C  C0  1  0.55221800  0.74985600  0.79871000  1
  C  C1  1  0.55221800  0.25014400  0.20129000  1
  C  C2  1  0.44778200  0.75014400  0.29871000  1
  C  C3  1  0.44778200  0.24985600  0.70129000  1
  C  C4  1  0.82390300  0.91356000  0.13304600  1
  C  C5  1  0.82390300  0.08644000  0.86695400  1
  C  C6  1  0.17609700  0.58644000  0.63304600  1
  C  C7  1  0.17609700  0.41356000  0.36695400  1
  C  C8  1  0.10656300  0.93002300  0.13942500  1
  C  C9  1  0.10656300  0.06997700  0.86057500  1
  C  C10  1  0.89343700  0.56997700  0.63942500  1
  C  C11  1  0.89343700  0.43002300  0.36057500  1
  C  C12  1  0.39133200  0.67187100  0.93759900  1
  C  C13  1  0.39133200  0.32812900  0.06240100  1
  C  C14  1  0.60866800  0.82812900  0.43759900  1
  C  C15  1  0.60866800  0.17187100  0.56240100  1
  N  N0  1  0.96697400  0.87028800  0.18080700  1
  N  N1  1  0.96697400  0.12971200  0.81919300  1
  N  N2  1  0.03302600  0.62971200  0.68080700  1
  N  N3  1  0.03302600  0.37028800  0.31919300  1
  N  N4  1  0.53622900  0.73234100  0.90757200  1
  N  N5  1  0.53622900  0.26765900  0.09242800  1
  N  N6  1  0.46377100  0.76765900  0.40757200  1
  N  N7  1  0.46377100  0.23234100  0.59242800  1
  Cl  Cl0  1  0.93777400  0.73082900  0.90709000  1
  Cl  Cl1  1  0.93777400  0.26917100  0.09291000  1
  Cl  Cl2  1  0.06222600  0.76917100  0.40709000  1
  Cl  Cl3  1  0.06222600  0.23082900  0.59291000  1
  Cl  Cl4  1  0.12715900  0.58560100  0.14097200  1
  Cl  Cl5  1  0.12715900  0.41439900  0.85902800  1
  Cl  Cl6  1  0.87284100  0.91439900  0.64097200  1
  Cl  Cl7  1  0.87284100  0.08560100  0.35902800  1
  Cl  Cl8  1  0.70074700  0.42061400  0.87940500  1
  Cl  Cl9  1  0.70074700  0.57938600  0.12059500  1
  Cl  Cl10  1  0.29925300  0.07938600  0.37940500  1
  Cl  Cl11  1  0.29925300  0.92061400  0.62059500  1
  Cl  Cl12  1  0.48100300  0.00000000  0.00000000  1
  Cl  Cl13  1  0.51899700  0.50000000  0.50000000  1
loop_
_geom_bond_atom_site_label_1
_geom_bond_atom_site_label_2
_geom_bond_distance
_geom_bond_site_symmetry_2
H0 N0 1.038623 1_555
H1 N1 1.038623 1_555
H2 N2 1.038623 1_555
H3 N3 1.038623 1_555
H4 N0 1.038192 1_555
H5 N1 1.038192 1_555
H6 N2 1.038192 1_555
H7 N3 1.038192 1_555
H8 N4 1.031618 1_555
H9 N5 1.031618 1_555
H10 N6 1.031618 1_555
H11 N7 1.031618 1_555
H12 N4 1.056113 1_555
H13 N5 1.056113 1_555
H14 N6 1.056113 1_555
H15 N7 1.056113 1_555
C0 H16 1.093547 1_555
C0 H24 1.094000 1_555
C0 H20 1.094194 1_555
C0 N4 1.489693 1_555
C1 H17 1.093547 1_555
C1 H25 1.094000 1_555
C1 H21 1.094194 1_555
C1 N5 1.489693 1_555
C2 H18 1.093547 1_555
C2 H26 1.094000 1_555
C2 H22 1.094194 1_555
C2 N6 1.489693 1_555
C3 H19 1.093547 1_555
C3 H27 1.094000 1_555
C3 H23 1.094194 1_555
C3 N7 1.489693 1_555
C4 H28 1.090156 1_565
C4 H36 1.092044 1_555
C4 H32 1.092671 1_555
C4 N0 1.493829 1_555
C5 H29 1.090156 1_545
C5 H37 1.092044 1_555
C5 H33 1.092671 1_555
C5 N1 1.493829 1_555
C6 H30 1.090156 1_555
C6 H38 1.092044 1_555
C6 H34 1.092671 1_555
C6 N2 1.493829 1_555
C7 H31 1.090156 1_555
C7 H39 1.092044 1_555
C7 H35 1.092671 1_555
C7 N3 1.493829 1_555
C8 H48 1.091992 1_565
C8 H40 1.092122 1_555
C8 H44 1.092597 1_555
C8 N0 1.496483 1_455
C9 H49 1.091992 1_545
C9 H41 1.092122 1_555
C9 H45 1.092597 1_555
C9 N1 1.496483 1_455
C10 H50 1.091992 1_555
C10 H42 1.092122 1_555
C10 H46 1.092597 1_555
C10 N2 1.496483 1_655
C11 H51 1.091992 1_555
C11 H43 1.092122 1_555
C11 H47 1.092597 1_555
C11 N3 1.496483 1_655
C12 H60 1.092034 1_555
C12 H52 1.093093 1_555
C12 H56 1.093887 1_556
C12 N4 1.489855 1_555
C13 H61 1.092034 1_555
C13 H53 1.093093 1_555
C13 H57 1.093887 1_554
C13 N5 1.489855 1_555
C14 H62 1.092034 1_555
C14 H54 1.093093 1_555
C14 H58 1.093887 1_555
C14 N6 1.489855 1_555
C15 H63 1.092034 1_555
C15 H55 1.093093 1_555
C15 H59 1.093887 1_555
C15 N7 1.489855 1_555
Cl0 Eu0 2.742651 1_556
Cl1 Eu0 2.742651 1_555
Cl2 Eu1 2.742651 1_565
Cl3 Eu1 2.742651 1_555
Cl4 Eu0 2.741699 1_455
Cl5 Eu0 2.741699 1_456
Cl6 Eu1 2.741699 1_665
Cl7 Eu1 2.741699 1_655
Cl8 Eu0 2.731341 1_556
Cl9 Eu0 2.731341 1_555
Cl10 Eu1 2.731341 1_555
Cl11 Eu1 2.731341 1_565
Cl12 H13 2.108247 1_555
Cl12 H12 2.108247 1_544
Cl13 H14 2.108247 1_555
Cl13 H15 2.108247 1_555
