# generated using pymatgen
data_Li4Ti3Fe3(SbO8)2
_symmetry_space_group_name_H-M   'P 1'
_cell_length_a   6.00589138
_cell_length_b   5.97210530
_cell_length_c   9.90299644
_cell_angle_alpha   89.95872932
_cell_angle_beta   90.56173347
_cell_angle_gamma   119.76082182
_symmetry_Int_Tables_number   1
_chemical_formula_structural   Li4Ti3Fe3(SbO8)2
_chemical_formula_sum   'Li4 Ti3 Fe3 Sb2 O16'
_cell_volume   308.33158982
_cell_formula_units_Z   1
loop_
 _symmetry_equiv_pos_site_id
 _symmetry_equiv_pos_as_xyz
  1  'x, y, z'
loop_
 _atom_site_type_symbol
 _atom_site_label
 _atom_site_symmetry_multiplicity
 _atom_site_fract_x
 _atom_site_fract_y
 _atom_site_fract_z
 _atom_site_occupancy
  Li  Li0  1  0.32552000  0.66275900  0.89988200  1
  Li  Li1  1  0.99213800  0.99537900  0.98673200  1
  Li  Li2  1  0.00446500  0.00142500  0.49222700  1
  Li  Li3  1  0.66471900  0.33341700  0.40476400  1
  Ti  Ti0  1  0.18016300  0.83518900  0.21396200  1
  Ti  Ti1  1  0.17426500  0.33905000  0.21764900  1
  Ti  Ti2  1  0.34343900  0.17152300  0.71966000  1
  Fe  Fe0  1  0.65437900  0.83317200  0.21132900  1
  Fe  Fe1  1  0.83562000  0.65601300  0.71000600  1
  Fe  Fe2  1  0.83628700  0.17972800  0.71030600  1
  Sb  Sb0  1  0.34336800  0.67128700  0.49148300  1
  Sb  Sb1  1  0.67862900  0.34087800  0.98636200  1
  O  O0  1  0.17266900  0.83791200  0.59784700  1
  O  O1  1  0.04046400  0.51999200  0.33734300  1
  O  O2  1  0.30271600  0.64780300  0.10513900  1
  O  O3  1  0.01299000  0.00718700  0.30451500  1
  O  O4  1  0.01393900  0.00711100  0.80105900  1
  O  O5  1  0.17293000  0.33427300  0.59711700  1
  O  O6  1  0.47002400  0.96297000  0.34372200  1
  O  O7  1  0.47198200  0.50972700  0.34110300  1
  O  O8  1  0.33126600  0.16470800  0.10180200  1
  O  O9  1  0.68149500  0.84005800  0.59021800  1
  O  O10  1  0.50843900  0.47372600  0.84691800  1
  O  O11  1  0.50840000  0.03571900  0.84728700  1
  O  O12  1  0.64002500  0.31979200  0.60596100  1
  O  O13  1  0.84098800  0.67535400  0.09769900  1
  O  O14  1  0.95978900  0.47992700  0.84867100  1
  O  O15  1  0.83889000  0.16422300  0.09707400  1
loop_
_geom_bond_atom_site_label_1
_geom_bond_atom_site_label_2
_geom_bond_distance
_geom_bond_site_symmetry_2
Li0 O14 1.967777 1_455
Li0 O10 1.999970 1_555
Li0 O11 2.004897 1_565
Li0 O2 2.037521 1_556
Li1 O4 1.843466 1_665
Li1 O13 1.994632 1_556
Li1 O15 2.000149 1_566
Li1 O8 2.093077 1_666
Li2 O3 1.859941 1_555
Li2 O9 1.952616 1_445
Li2 O0 2.006315 1_545
Li2 O5 2.009905 1_555
Li3 O12 1.998016 1_555
Li3 O7 2.010181 1_555
Li3 O6 2.011732 1_545
Li3 O1 2.076565 1_655
Fe0 O15 2.064790 1_565
Fe0 O3 2.076223 1_665
Fe0 O6 2.104223 1_555
Fe0 O2 2.104539 1_555
Fe0 O13 2.117919 1_555
Fe0 O7 2.122784 1_555
Fe1 O12 2.027561 1_555
Fe1 O4 2.027566 1_665
Fe1 O14 2.074627 1_555
Fe1 O0 2.090629 1_655
Fe1 O9 2.111588 1_555
Fe1 O10 2.193427 1_555
Fe2 O4 2.020063 1_655
Fe2 O12 2.027455 1_555
Fe2 O14 2.074931 1_555
Fe2 O5 2.094401 1_655
Fe2 O9 2.122057 1_545
Fe2 O11 2.197067 1_555
O0 Sb0 2.046027 1_555
O0 Ti2 2.104086 1_565
O1 Ti1 2.025112 1_555
O1 Ti0 2.046729 1_555
O1 Sb0 2.184412 1_555
O2 Ti0 1.946925 1_555
O2 Ti1 1.959143 1_555
O3 Ti1 1.927249 1_555
O3 Ti0 1.977416 1_545
O4 Ti2 1.905572 1_555
O5 Sb0 2.040994 1_555
O5 Ti2 2.104320 1_555
O6 Ti0 1.975581 1_555
O6 Sb0 2.111140 1_555
O7 Ti1 1.969858 1_555
O7 Sb0 2.123649 1_555
O8 Ti0 2.042945 1_545
O8 Ti1 2.070490 1_555
O8 Sb1 2.152246 1_554
O9 Sb0 2.006581 1_555
O10 Ti2 2.007666 1_555
O10 Sb1 2.087337 1_555
O11 Ti2 2.002108 1_555
O11 Sb1 2.095152 1_555
O12 Ti2 1.922705 1_555
O13 Sb1 2.050608 1_554
O13 Ti0 2.100369 1_655
O14 Sb1 2.012885 1_555
O15 Sb1 2.056027 1_554
O15 Ti1 2.107088 1_655
