# generated using pymatgen
data_LiMnPO4
_symmetry_space_group_name_H-M   'P 1'
_cell_length_a   5.10092700
_cell_length_b   8.44050900
_cell_length_c   18.69593800
_cell_angle_alpha   90.00000000
_cell_angle_beta   90.00000000
_cell_angle_gamma   90.00000000
_symmetry_Int_Tables_number   1
_chemical_formula_structural   LiMnPO4
_chemical_formula_sum   'Li8 Mn8 P8 O32'
_cell_volume   804.94277165
_cell_formula_units_Z   8
loop_
 _symmetry_equiv_pos_site_id
 _symmetry_equiv_pos_as_xyz
  1  'x, y, z'
loop_
 _atom_site_type_symbol
 _atom_site_label
 _atom_site_symmetry_multiplicity
 _atom_site_fract_x
 _atom_site_fract_y
 _atom_site_fract_z
 _atom_site_occupancy
  Li  Li0  1  0.45568900  0.14825700  0.76185500  1
  Li  Li1  1  0.60072000  0.07184500  0.54985200  1
  Li  Li2  1  0.10072000  0.42815500  0.04985200  1
  Li  Li3  1  0.95568900  0.35174300  0.26185500  1
  Li  Li4  1  0.45568900  0.64825700  0.73814500  1
  Li  Li5  1  0.60072000  0.57184500  0.95014800  1
  Li  Li6  1  0.10072000  0.92815500  0.45014800  1
  Li  Li7  1  0.95568900  0.85174300  0.23814500  1
  Mn  Mn0  1  0.96423000  0.01238700  0.93199500  1
  Mn  Mn1  1  0.46301600  0.14550300  0.33963100  1
  Mn  Mn2  1  0.96301600  0.35449700  0.83963100  1
  Mn  Mn3  1  0.46423000  0.48761300  0.43199500  1
  Mn  Mn4  1  0.96423000  0.51238700  0.56800500  1
  Mn  Mn5  1  0.46301600  0.64550300  0.16036900  1
  Mn  Mn6  1  0.96301600  0.85449700  0.66036900  1
  Mn  Mn7  1  0.46423000  0.98761300  0.06800500  1
  P  P0  1  0.93097700  0.20180600  0.68146800  1
  P  P1  1  0.43866000  0.23977600  0.93041600  1
  P  P2  1  0.93866000  0.26022400  0.43041600  1
  P  P3  1  0.43097700  0.29819400  0.18146800  1
  P  P4  1  0.93097700  0.70180600  0.81853200  1
  P  P5  1  0.43866000  0.73977600  0.56958400  1
  P  P6  1  0.93866000  0.76022400  0.06958400  1
  P  P7  1  0.43097700  0.79819400  0.31853200  1
  O  O0  1  0.77881200  0.06552100  0.64166200  1
  O  O1  1  0.33448500  0.08820000  0.97078400  1
  O  O2  1  0.85377500  0.10797500  0.46875000  1
  O  O3  1  0.37614500  0.14001400  0.14335900  1
  O  O4  1  0.22078200  0.15503900  0.68521500  1
  O  O5  1  0.74478400  0.22723700  0.92616900  1
  O  O6  1  0.81217100  0.21519500  0.75865800  1
  O  O7  1  0.81692200  0.26951600  0.35412300  1
  O  O8  1  0.31692200  0.23048400  0.85412300  1
  O  O9  1  0.31217100  0.28480500  0.25865800  1
  O  O10  1  0.24478400  0.27276300  0.42616900  1
  O  O11  1  0.72078200  0.34496100  0.18521500  1
  O  O12  1  0.87614500  0.35998600  0.64335900  1
  O  O13  1  0.35377500  0.39202500  0.96875000  1
  O  O14  1  0.83448500  0.41180000  0.47078400  1
  O  O15  1  0.27881200  0.43447900  0.14166200  1
  O  O16  1  0.77881200  0.56552100  0.85833800  1
  O  O17  1  0.33448500  0.58820000  0.52921600  1
  O  O18  1  0.85377500  0.60797500  0.03125000  1
  O  O19  1  0.37614500  0.64001400  0.35664100  1
  O  O20  1  0.22078200  0.65503900  0.81478500  1
  O  O21  1  0.74478400  0.72723700  0.57383100  1
  O  O22  1  0.81217100  0.71519500  0.74134200  1
  O  O23  1  0.81692200  0.76951600  0.14587700  1
  O  O24  1  0.31692200  0.73048400  0.64587700  1
  O  O25  1  0.31217100  0.78480500  0.24134200  1
  O  O26  1  0.24478400  0.77276300  0.07383100  1
  O  O27  1  0.72078200  0.84496100  0.31478500  1
  O  O28  1  0.87614500  0.85998600  0.85664100  1
  O  O29  1  0.35377500  0.89202500  0.53125000  1
  O  O30  1  0.83448500  0.91180000  0.02921600  1
  O  O31  1  0.27881200  0.93447900  0.35833800  1
loop_
_geom_bond_atom_site_label_1
_geom_bond_atom_site_label_2
_geom_bond_distance
_geom_bond_site_symmetry_2
Li0 O4 1.868728 1_555
Li0 O6 1.905079 1_555
Li0 O8 1.989592 1_555
Li1 O0 1.942778 1_555
Li1 O29 2.002823 1_545
Li1 O2 2.014522 1_555
Li2 O15 1.942778 1_555
Li2 O18 2.002823 1_455
Li2 O13 2.014522 1_554
Li3 O11 1.868728 1_555
Li3 O9 1.905079 1_655
Li3 O7 1.989592 1_555
Li4 O20 1.868728 1_555
Li4 O22 1.905079 1_555
Li4 O24 1.989592 1_555
Li5 O16 1.942778 1_555
Li5 O13 2.002823 1_555
Li5 O18 2.014522 1_556
Li6 O31 1.942778 1_555
Li6 O2 2.002823 1_465
Li6 O29 2.014522 1_555
Li7 O27 1.868728 1_555
Li7 O25 1.905079 1_655
Li7 O23 1.989592 1_555
Mn0 O28 1.959928 1_545
Mn0 O30 2.112492 1_546
Mn0 O1 2.121876 1_655
Mn0 O5 2.133881 1_555
Mn1 O31 2.043939 1_545
Mn1 O9 2.065503 1_555
Mn1 O7 2.104277 1_555
Mn1 O10 2.238434 1_555
Mn2 O16 2.043939 1_555
Mn2 O6 2.065503 1_555
Mn2 O8 2.104277 1_655
Mn2 O5 2.238434 1_555
Mn3 O19 1.959928 1_555
Mn3 O17 2.112492 1_555
Mn3 O14 2.121876 1_555
Mn3 O10 2.133881 1_555
Mn4 O12 1.959928 1_555
Mn4 O14 2.112492 1_555
Mn4 O17 2.121876 1_655
Mn4 O21 2.133881 1_555
Mn5 O15 2.043939 1_555
Mn5 O25 2.065503 1_555
Mn5 O23 2.104277 1_555
Mn5 O26 2.238434 1_555
Mn6 O0 2.043939 1_565
Mn6 O22 2.065503 1_555
Mn6 O24 2.104277 1_655
Mn6 O21 2.238434 1_555
Mn7 O3 1.959928 1_565
Mn7 O1 2.112492 1_564
Mn7 O30 2.121876 1_555
Mn7 O26 2.133881 1_555
O0 P0 1.574653 1_555
O1 P1 1.577588 1_555
O2 P2 1.533787 1_555
O3 P3 1.538963 1_555
O4 P0 1.531672 1_455
O5 P1 1.567112 1_555
O6 P0 1.569294 1_555
O7 P2 1.557656 1_555
O8 P1 1.557656 1_555
O9 P3 1.569294 1_555
O10 P2 1.567112 1_455
O11 P3 1.531672 1_555
O12 P0 1.538963 1_555
O13 P1 1.533787 1_555
O14 P2 1.577588 1_555
O15 P3 1.574653 1_555
O16 P4 1.574653 1_555
O17 P5 1.577588 1_555
O18 P6 1.533787 1_555
O19 P7 1.538963 1_555
O20 P4 1.531672 1_455
O21 P5 1.567112 1_555
O22 P4 1.569294 1_555
O23 P6 1.557656 1_555
O24 P5 1.557656 1_555
O25 P7 1.569294 1_555
O26 P6 1.567112 1_455
O27 P7 1.531672 1_555
O28 P4 1.538963 1_555
O29 P5 1.533787 1_555
O30 P6 1.577588 1_555
O31 P7 1.574653 1_555
