# generated using pymatgen
data_Li2Fe3CoO8
_symmetry_space_group_name_H-M   'P 1'
_cell_length_a   8.37411700
_cell_length_b   8.37411700
_cell_length_c   8.37411700
_cell_angle_alpha   90.00000000
_cell_angle_beta   90.00000000
_cell_angle_gamma   90.00000000
_symmetry_Int_Tables_number   1
_chemical_formula_structural   Li2Fe3CoO8
_chemical_formula_sum   'Li8 Fe12 Co4 O32'
_cell_volume   587.24195145
_cell_formula_units_Z   4
loop_
 _symmetry_equiv_pos_site_id
 _symmetry_equiv_pos_as_xyz
  1  'x, y, z'
loop_
 _atom_site_type_symbol
 _atom_site_label
 _atom_site_symmetry_multiplicity
 _atom_site_fract_x
 _atom_site_fract_y
 _atom_site_fract_z
 _atom_site_occupancy
  Li  Li0  1  0.75240800  0.75240800  0.75240800  1
  Li  Li1  1  0.99759200  0.99759200  0.99759200  1
  Li  Li2  1  0.00240800  0.49759200  0.50240800  1
  Li  Li3  1  0.24759200  0.25240800  0.74759200  1
  Li  Li4  1  0.25240800  0.74759200  0.24759200  1
  Li  Li5  1  0.49759200  0.50240800  0.00240800  1
  Li  Li6  1  0.50240800  0.00240800  0.49759200  1
  Li  Li7  1  0.74759200  0.24759200  0.25240800  1
  Fe  Fe0  1  0.87737300  0.37500000  0.87262700  1
  Fe  Fe1  1  0.87500000  0.62737300  0.12262700  1
  Fe  Fe2  1  0.87262700  0.87737300  0.37500000  1
  Fe  Fe3  1  0.12737300  0.37737300  0.12500000  1
  Fe  Fe4  1  0.12500000  0.12737300  0.37737300  1
  Fe  Fe5  1  0.12262700  0.87500000  0.62737300  1
  Fe  Fe6  1  0.37737300  0.12500000  0.12737300  1
  Fe  Fe7  1  0.37500000  0.87262700  0.87737300  1
  Fe  Fe8  1  0.37262700  0.62262700  0.62500000  1
  Fe  Fe9  1  0.62737300  0.12262700  0.87500000  1
  Fe  Fe10  1  0.62500000  0.37262700  0.62262700  1
  Fe  Fe11  1  0.62262700  0.62500000  0.37262700  1
  Co  Co0  1  0.87500000  0.12500000  0.62500000  1
  Co  Co1  1  0.12500000  0.62500000  0.87500000  1
  Co  Co2  1  0.37500000  0.37500000  0.37500000  1
  Co  Co3  1  0.62500000  0.87500000  0.12500000  1
  O  O0  1  0.86924400  0.13359200  0.85290200  1
  O  O1  1  0.86640800  0.35290200  0.63075600  1
  O  O2  1  0.86308700  0.63691300  0.36308700  1
  O  O3  1  0.89709800  0.61640800  0.88075600  1
  O  O4  1  0.85290200  0.86924400  0.13359200  1
  O  O5  1  0.88691300  0.38691300  0.11308700  1
  O  O6  1  0.88359200  0.11924400  0.39709800  1
  O  O7  1  0.88075600  0.89709800  0.61640800  1
  O  O8  1  0.11924400  0.39709800  0.88359200  1
  O  O9  1  0.11640800  0.61924400  0.10290200  1
  O  O10  1  0.11308700  0.88691300  0.38691300  1
  O  O11  1  0.14709800  0.36924400  0.36640800  1
  O  O12  1  0.10290200  0.11640800  0.61924400  1
  O  O13  1  0.13691300  0.13691300  0.13691300  1
  O  O14  1  0.13359200  0.85290200  0.86924400  1
  O  O15  1  0.13075600  0.63359200  0.64709800  1
  O  O16  1  0.36924400  0.36640800  0.14709800  1
  O  O17  1  0.36640800  0.14709800  0.36924400  1
  O  O18  1  0.36308700  0.86308700  0.63691300  1
  O  O19  1  0.39709800  0.88359200  0.11924400  1
  O  O20  1  0.35290200  0.63075600  0.86640800  1
  O  O21  1  0.38691300  0.11308700  0.88691300  1
  O  O22  1  0.38359200  0.38075600  0.60290200  1
  O  O23  1  0.38075600  0.60290200  0.38359200  1
  O  O24  1  0.61924400  0.10290200  0.11640800  1
  O  O25  1  0.61640800  0.88075600  0.89709800  1
  O  O26  1  0.61308700  0.61308700  0.61308700  1
  O  O27  1  0.64709800  0.13075600  0.63359200  1
  O  O28  1  0.60290200  0.38359200  0.38075600  1
  O  O29  1  0.63691300  0.36308700  0.86308700  1
  O  O30  1  0.63359200  0.64709800  0.13075600  1
  O  O31  1  0.63075600  0.86640800  0.35290200  1
loop_
_geom_bond_atom_site_label_1
_geom_bond_atom_site_label_2
_geom_bond_distance
_geom_bond_site_symmetry_2
Li0 O3 1.979986 1_555
Li0 O7 1.979986 1_555
Li0 O25 1.979986 1_555
Li0 O26 2.020767 1_555
Li1 O14 1.979986 1_655
Li1 O0 1.979986 1_565
Li1 O4 1.979986 1_556
Li1 O13 2.020767 1_666
Li2 O11 1.979986 1_555
Li2 O1 1.979986 1_455
Li2 O15 1.979986 1_555
Li2 O2 2.020767 1_455
Li3 O22 1.979986 1_555
Li3 O8 1.979986 1_555
Li3 O12 1.979986 1_555
Li3 O21 2.020767 1_555
Li4 O23 1.979986 1_555
Li4 O19 1.979986 1_555
Li4 O9 1.979986 1_555
Li4 O10 2.020767 1_555
Li5 O16 1.979986 1_555
Li5 O30 1.979986 1_555
Li5 O20 1.979986 1_554
Li5 O29 2.020767 1_554
Li6 O17 1.979986 1_555
Li6 O31 1.979986 1_545
Li6 O27 1.979986 1_555
Li6 O18 2.020767 1_545
Li7 O28 1.979986 1_555
Li7 O6 1.979986 1_555
Li7 O24 1.979986 1_555
Li7 O5 2.020767 1_555
Fe0 O5 2.017692 1_556
Fe0 O29 2.017692 1_555
Fe0 O3 2.029458 1_555
Fe0 O0 2.029458 1_555
Fe0 O8 2.035964 1_655
Fe0 O1 2.035964 1_555
Fe1 O5 2.017692 1_555
Fe1 O2 2.017692 1_555
Fe1 O30 2.029458 1_555
Fe1 O9 2.029458 1_655
Fe1 O3 2.035964 1_554
Fe1 O4 2.035964 1_555
Fe2 O10 2.017692 1_655
Fe2 O2 2.017692 1_555
Fe2 O7 2.029458 1_555
Fe2 O4 2.029458 1_555
Fe2 O6 2.035964 1_565
Fe2 O31 2.035964 1_555
Fe3 O5 2.017692 1_455
Fe3 O13 2.017692 1_555
Fe3 O8 2.029458 1_554
Fe3 O11 2.029458 1_555
Fe3 O9 2.035964 1_555
Fe3 O16 2.035964 1_555
Fe4 O10 2.017692 1_545
Fe4 O13 2.017692 1_555
Fe4 O6 2.029458 1_455
Fe4 O17 2.029458 1_555
Fe4 O12 2.035964 1_555
Fe4 O11 2.035964 1_555
Fe5 O10 2.017692 1_555
Fe5 O18 2.017692 1_555
Fe5 O15 2.029458 1_555
Fe5 O12 2.029458 1_565
Fe5 O7 2.035964 1_455
Fe5 O14 2.035964 1_555
Fe6 O21 2.017692 1_554
Fe6 O13 2.017692 1_555
Fe6 O19 2.029458 1_545
Fe6 O16 2.029458 1_555
Fe6 O24 2.035964 1_555
Fe6 O17 2.035964 1_555
Fe7 O21 2.017692 1_565
Fe7 O18 2.017692 1_555
Fe7 O25 2.029458 1_555
Fe7 O14 2.029458 1_555
Fe7 O19 2.035964 1_556
Fe7 O20 2.035964 1_555
Fe8 O18 2.017692 1_555
Fe8 O26 2.017692 1_555
Fe8 O20 2.029458 1_555
Fe8 O23 2.029458 1_555
Fe8 O15 2.035964 1_555
Fe8 O22 2.035964 1_555
Fe9 O21 2.017692 1_555
Fe9 O29 2.017692 1_555
Fe9 O27 2.029458 1_555
Fe9 O24 2.029458 1_556
Fe9 O25 2.035964 1_545
Fe9 O0 2.035964 1_555
Fe10 O29 2.017692 1_555
Fe10 O26 2.017692 1_555
Fe10 O1 2.029458 1_555
Fe10 O22 2.029458 1_555
Fe10 O27 2.035964 1_555
Fe10 O28 2.035964 1_555
Fe11 O2 2.017692 1_555
Fe11 O26 2.017692 1_555
Fe11 O31 2.029458 1_555
Fe11 O28 2.029458 1_555
Fe11 O30 2.035964 1_555
Fe11 O23 2.035964 1_555
Co0 O1 1.910442 1_555
Co0 O6 1.910442 1_555
Co0 O7 1.910442 1_545
Co0 O0 1.910442 1_555
Co0 O12 1.910442 1_655
Co0 O27 1.910442 1_555
Co1 O8 1.910442 1_555
Co1 O20 1.910442 1_555
Co1 O9 1.910442 1_556
Co1 O15 1.910442 1_555
Co1 O14 1.910442 1_555
Co1 O3 1.910442 1_455
Co2 O11 1.910442 1_555
Co2 O17 1.910442 1_555
Co2 O16 1.910442 1_555
Co2 O28 1.910442 1_555
Co2 O22 1.910442 1_555
Co2 O23 1.910442 1_555
Co3 O19 1.910442 1_555
Co3 O31 1.910442 1_555
Co3 O30 1.910442 1_555
Co3 O25 1.910442 1_554
Co3 O4 1.910442 1_555
Co3 O24 1.910442 1_565
