# generated using pymatgen
data_CaSnS3
_symmetry_space_group_name_H-M   'P 1'
_cell_length_a   10.20858800
_cell_length_b   7.35966300
_cell_length_c   7.42323951
_cell_angle_alpha   80.65087032
_cell_angle_beta   90.00000000
_cell_angle_gamma   90.00000000
_symmetry_Int_Tables_number   1
_chemical_formula_structural   CaSnS3
_chemical_formula_sum   'Ca4 Sn4 S12'
_cell_volume   550.31277301
_cell_formula_units_Z   4
loop_
 _symmetry_equiv_pos_site_id
 _symmetry_equiv_pos_as_xyz
  1  'x, y, z'
loop_
 _atom_site_type_symbol
 _atom_site_label
 _atom_site_symmetry_multiplicity
 _atom_site_fract_x
 _atom_site_fract_y
 _atom_site_fract_z
 _atom_site_occupancy
  Ca  Ca0  1  0.40247300  0.75249900  0.90634900  1
  Ca  Ca1  1  0.90247300  0.74750100  0.09365100  1
  Ca  Ca2  1  0.59752700  0.24750100  0.09365100  1
  Ca  Ca3  1  0.09752700  0.25249900  0.90634900  1
  Sn  Sn0  1  0.80191800  0.00899600  0.65784500  1
  Sn  Sn1  1  0.30191800  0.49100400  0.34215500  1
  Sn  Sn2  1  0.19808200  0.99100400  0.34215500  1
  Sn  Sn3  1  0.69808200  0.50899600  0.65784500  1
  S  S0  1  0.27531400  0.19817500  0.54867100  1
  S  S1  1  0.77531400  0.30182500  0.45132900  1
  S  S2  1  0.72468600  0.80182500  0.45132900  1
  S  S3  1  0.22468600  0.69817500  0.54867100  1
  S  S4  1  0.01504800  0.93771600  0.77209400  1
  S  S5  1  0.51504800  0.56228400  0.22790600  1
  S  S6  1  0.98495200  0.06228400  0.22790600  1
  S  S7  1  0.48495200  0.43771600  0.77209400  1
  S  S8  1  0.66453300  0.93146700  0.92643000  1
  S  S9  1  0.16453300  0.56853300  0.07357000  1
  S  S10  1  0.33546700  0.06853300  0.07357000  1
  S  S11  1  0.83546700  0.43146700  0.92643000  1
loop_
_geom_bond_atom_site_label_1
_geom_bond_atom_site_label_2
_geom_bond_distance
_geom_bond_site_symmetry_2
Ca0 S7 2.796320 1_555
Ca0 S5 2.809371 1_556
Ca0 S10 2.890789 1_566
Ca0 S9 2.954344 1_556
Ca0 S8 2.996316 1_555
Ca0 S3 3.293708 1_555
Ca1 S6 2.796320 1_565
Ca1 S4 2.809371 1_654
Ca1 S11 2.890789 1_554
Ca1 S8 2.954344 1_554
Ca1 S9 2.996316 1_655
Ca1 S2 3.293708 1_555
Ca2 S5 2.796320 1_555
Ca2 S7 2.809371 1_554
Ca2 S8 2.890789 1_544
Ca2 S11 2.954344 1_554
Ca2 S10 2.996316 1_555
Ca2 S1 3.293708 1_555
Ca3 S4 2.796320 1_545
Ca3 S6 2.809371 1_456
Ca3 S9 2.890789 1_556
Ca3 S10 2.954344 1_556
Ca3 S11 2.996316 1_455
Ca3 S0 3.293708 1_555
S0 Sn1 2.448477 1_555
S0 Sn2 2.460879 1_545
S1 Sn0 2.448477 1_555
S1 Sn3 2.460879 1_555
S2 Sn3 2.448477 1_555
S2 Sn0 2.460879 1_565
S3 Sn2 2.448477 1_555
S3 Sn1 2.460879 1_555
S4 Sn0 2.363014 1_465
S5 Sn1 2.363014 1_555
S6 Sn2 2.363014 1_645
S7 Sn3 2.363014 1_555
S8 Sn0 2.428601 1_565
S9 Sn1 2.428601 1_555
S10 Sn2 2.428601 1_545
S11 Sn3 2.428601 1_555
