# generated using pymatgen
data_NiP6(WO8)3
_symmetry_space_group_name_H-M   'P 1'
_cell_length_a   8.92356885
_cell_length_b   8.92356896
_cell_length_c   8.92356959
_cell_angle_alpha   58.78011681
_cell_angle_beta   58.78011873
_cell_angle_gamma   58.78011307
_symmetry_Int_Tables_number   1
_chemical_formula_structural   NiP6(WO8)3
_chemical_formula_sum   'Ni1 P6 W3 O24'
_cell_volume   488.45987687
_cell_formula_units_Z   1
loop_
 _symmetry_equiv_pos_site_id
 _symmetry_equiv_pos_as_xyz
  1  'x, y, z'
loop_
 _atom_site_type_symbol
 _atom_site_label
 _atom_site_symmetry_multiplicity
 _atom_site_fract_x
 _atom_site_fract_y
 _atom_site_fract_z
 _atom_site_occupancy
  Ni  Ni0  1  0.85863900  0.85863900  0.85863900  1
  P  P0  1  0.03463300  0.75167300  0.46987700  1
  P  P1  1  0.46987700  0.03463300  0.75167300  1
  P  P2  1  0.75167300  0.46987700  0.03463300  1
  P  P3  1  0.24556200  0.53999600  0.96288900  1
  P  P4  1  0.53999600  0.96288900  0.24556200  1
  P  P5  1  0.96288900  0.24556200  0.53999600  1
  W  W0  1  0.14184300  0.14184300  0.14184300  1
  W  W1  1  0.35638500  0.35638500  0.35638500  1
  W  W2  1  0.64181300  0.64181300  0.64181300  1
  O  O0  1  0.12488400  0.29705700  0.49886500  1
  O  O1  1  0.29705700  0.49886500  0.12488400  1
  O  O2  1  0.05636700  0.92314200  0.28720500  1
  O  O3  1  0.49886500  0.12488400  0.29705700  1
  O  O4  1  0.21021900  0.58357600  0.42472600  1
  O  O5  1  0.01372000  0.76997600  0.63609100  1
  O  O6  1  0.28720500  0.05636700  0.92314200  1
  O  O7  1  0.42472600  0.21021900  0.58357600  1
  O  O8  1  0.58357600  0.42472600  0.21021900  1
  O  O9  1  0.22598900  0.36385900  0.98770600  1
  O  O10  1  0.08331600  0.71316700  0.94210000  1
  O  O11  1  0.36385900  0.98770600  0.22598900  1
  O  O12  1  0.63609100  0.01372000  0.76997600  1
  O  O13  1  0.92314200  0.28720500  0.05636700  1
  O  O14  1  0.76997600  0.63609100  0.01372000  1
  O  O15  1  0.43031700  0.55829100  0.78649900  1
  O  O16  1  0.55829100  0.78649900  0.43031700  1
  O  O17  1  0.71316700  0.94210000  0.08331600  1
  O  O18  1  0.98770600  0.22598900  0.36385900  1
  O  O19  1  0.78649900  0.43031700  0.55829100  1
  O  O20  1  0.49962700  0.85876800  0.72122300  1
  O  O21  1  0.94210000  0.08331600  0.71316700  1
  O  O22  1  0.72122300  0.49962700  0.85876800  1
  O  O23  1  0.85876800  0.72122300  0.49962700  1
loop_
_geom_bond_atom_site_label_1
_geom_bond_atom_site_label_2
_geom_bond_distance
_geom_bond_site_symmetry_2
Ni0 O10 2.026620 1_655
Ni0 O21 2.026620 1_565
Ni0 O17 2.026621 1_556
Ni0 O12 2.032187 1_565
Ni0 O14 2.032187 1_556
Ni0 O5 2.032187 1_655
O0 P5 1.548970 1_455
O0 W1 1.969159 1_555
O1 P3 1.548970 1_554
O1 W1 1.969159 1_555
O2 P0 1.558949 1_555
O2 W0 1.991555 1_565
O3 P4 1.548970 1_545
O3 W1 1.969159 1_555
O4 P0 1.550185 1_555
O4 W1 1.974639 1_555
O5 P0 1.481230 1_555
O6 P1 1.558949 1_555
O6 W0 1.991555 1_556
O7 P1 1.550185 1_555
O7 W1 1.974639 1_555
O8 P2 1.550186 1_555
O8 W1 1.974639 1_555
O9 P3 1.560022 1_555
O9 W0 2.006830 1_556
O10 P3 1.476648 1_555
O11 P4 1.560022 1_555
O11 W0 2.006830 1_565
O12 P1 1.481230 1_555
O13 P2 1.558949 1_555
O13 W0 1.991555 1_655
O14 P2 1.481230 1_555
O15 P3 1.595248 1_555
O15 W2 1.928465 1_555
O16 P4 1.595248 1_555
O16 W2 1.928465 1_555
O17 P4 1.476648 1_555
O18 P5 1.560022 1_555
O18 W0 2.006830 1_655
O19 P5 1.595247 1_555
O19 W2 1.928465 1_555
O20 P1 1.594532 1_565
O20 W2 1.950342 1_555
O21 P5 1.476648 1_555
O22 P2 1.594532 1_556
O22 W2 1.950342 1_555
O23 P0 1.594532 1_655
O23 W2 1.950342 1_555
