# generated using pymatgen
data_Li3Co3SbO8
_symmetry_space_group_name_H-M   'P 1'
_cell_length_a   6.00053900
_cell_length_b   6.03052745
_cell_length_c   6.04430343
_cell_angle_alpha   119.59451209
_cell_angle_beta   90.65649397
_cell_angle_gamma   119.35760242
_symmetry_Int_Tables_number   1
_chemical_formula_structural   Li3Co3SbO8
_chemical_formula_sum   'Li3 Co3 Sb1 O8'
_cell_volume   156.20928759
_cell_formula_units_Z   1
loop_
 _symmetry_equiv_pos_site_id
 _symmetry_equiv_pos_as_xyz
  1  'x, y, z'
loop_
 _atom_site_type_symbol
 _atom_site_label
 _atom_site_symmetry_multiplicity
 _atom_site_fract_x
 _atom_site_fract_y
 _atom_site_fract_z
 _atom_site_occupancy
  Li  Li0  1  0.00000000  0.50000000  0.00000000  1
  Li  Li1  1  0.00000000  0.00000000  0.50000000  1
  Li  Li2  1  0.50000000  0.50000000  0.00000000  1
  Co  Co0  1  0.50000000  0.50000000  0.50000000  1
  Co  Co1  1  0.50000000  0.00000000  0.00000000  1
  Co  Co2  1  0.00000000  0.50000000  0.50000000  1
  Sb  Sb0  1  0.00000000  0.00000000  0.00000000  1
  O  O0  1  0.76594300  0.06064300  0.74901500  1
  O  O1  1  0.33235500  0.56666500  0.20102000  1
  O  O2  1  0.30743700  0.05029900  0.74011900  1
  O  O3  1  0.23405700  0.93935700  0.25098500  1
  O  O4  1  0.73777800  0.51454700  0.24396100  1
  O  O5  1  0.66764500  0.43333500  0.79898000  1
  O  O6  1  0.69256300  0.94970100  0.25988100  1
  O  O7  1  0.26222200  0.48545300  0.75603900  1
loop_
_geom_bond_atom_site_label_1
_geom_bond_atom_site_label_2
_geom_bond_distance
_geom_bond_site_symmetry_2
Li0 O3 1.904317 1_555
Li0 O0 1.904317 1_454
Li0 O1 2.071483 1_555
Li0 O5 2.071483 1_454
Li0 O4 2.172240 1_455
Li0 O7 2.172240 1_554
Li1 O3 2.092857 1_545
Li1 O0 2.092857 1_455
Li1 O7 2.096160 1_555
Li1 O4 2.096160 1_445
Li1 O2 2.134669 1_555
Li1 O6 2.134669 1_445
Li2 O5 1.609953 1_554
Li2 O1 1.609953 1_555
Li2 O6 1.958423 1_555
Li2 O2 1.958423 1_554
Li2 O4 1.979672 1_555
Li2 O7 1.979672 1_554
Co0 O7 2.121416 1_555
Co0 O4 2.121416 1_555
Co0 O1 2.347713 1_555
Co0 O5 2.347713 1_555
Co0 O0 2.423096 1_565
Co0 O3 2.423096 1_545
Co1 O2 2.160381 1_554
Co1 O6 2.160381 1_545
Co1 O4 2.220356 1_555
Co1 O7 2.220356 1_544
Co1 O0 2.238957 1_554
Co1 O3 2.238957 1_545
Co2 O7 2.256579 1_555
Co2 O4 2.256579 1_455
Co2 O2 2.387730 1_565
Co2 O6 2.387730 1_445
O0 Sb0 2.326032 1_656
O1 Sb0 2.508474 1_555
O2 Sb0 2.439469 1_556
O3 Sb0 2.326032 1_565
O5 Sb0 2.508474 1_666
O6 Sb0 2.439469 1_665
