# generated using pymatgen
data_Li3V3P8O29
_symmetry_space_group_name_H-M   'P 1'
_cell_length_a   9.76314800
_cell_length_b   9.76579862
_cell_length_c   14.16125145
_cell_angle_alpha   90.25658817
_cell_angle_beta   89.94073485
_cell_angle_gamma   119.85806279
_symmetry_Int_Tables_number   1
_chemical_formula_structural   Li3V3P8O29
_chemical_formula_sum   'Li6 V6 P16 O58'
_cell_volume   1170.96661205
_cell_formula_units_Z   2
loop_
 _symmetry_equiv_pos_site_id
 _symmetry_equiv_pos_as_xyz
  1  'x, y, z'
loop_
 _atom_site_type_symbol
 _atom_site_label
 _atom_site_symmetry_multiplicity
 _atom_site_fract_x
 _atom_site_fract_y
 _atom_site_fract_z
 _atom_site_occupancy
  Li  Li0  1  0.22894100  0.91222600  0.06177100  1
  Li  Li1  1  0.67124300  0.90511200  0.55575700  1
  Li  Li2  1  0.08501300  0.31161200  0.06069600  1
  Li  Li3  1  0.23629900  0.32960400  0.55776700  1
  Li  Li4  1  0.90724000  0.68355800  0.94373500  1
  Li  Li5  1  0.01775500  0.97036700  0.49556200  1
  V  V0  1  0.56643200  0.56770300  0.24702500  1
  V  V1  1  0.43565100  0.43423000  0.75443600  1
  V  V2  1  0.00599000  0.56849900  0.74030800  1
  V  V3  1  0.99552300  0.43199700  0.25639100  1
  V  V4  1  0.43958500  0.00453600  0.25327900  1
  V  V5  1  0.56443200  0.00136500  0.75309700  1
  P  P0  1  0.22677700  0.91130500  0.84218000  1
  P  P1  1  0.08707300  0.77931900  0.34072500  1
  P  P2  1  0.68897800  0.91294700  0.34057500  1
  P  P3  1  0.32764300  0.66462500  0.13098400  1
  P  P4  1  0.33867100  0.66606200  0.62900000  1
  P  P5  1  0.68589600  0.77332000  0.84300000  1
  P  P6  1  0.77233900  0.69046400  0.65877500  1
  P  P7  1  0.08662700  0.32048100  0.84309900  1
  P  P8  1  0.91206200  0.68127500  0.15926000  1
  P  P9  1  0.22946300  0.31430300  0.34291000  1
  P  P10  1  0.31403000  0.22700100  0.16000700  1
  P  P11  1  0.66490900  0.33668700  0.36995300  1
  P  P12  1  0.67311600  0.33905400  0.86890300  1
  P  P13  1  0.30824300  0.08554100  0.65942200  1
  P  P14  1  0.91393200  0.22117200  0.66103500  1
  P  P15  1  0.77350700  0.08543900  0.15739500  1
  O  O0  1  0.21176400  0.00438200  0.57509600  1
  O  O1  1  0.26093700  0.91330600  0.33068500  1
  O  O2  1  0.99812700  0.75393800  0.06910600  1
  O  O3  1  0.08095800  0.74270400  0.83399900  1
  O  O4  1  0.37984900  0.90189900  0.82029300  1
  O  O5  1  0.33267300  0.81778100  0.17046400  1
  O  O6  1  0.52917900  0.91081400  0.32585300  1
  O  O7  1  0.76773700  0.00023600  0.07084000  1
  O  O8  1  0.65470800  0.91367400  0.83359400  1
  O  O9  1  0.18930900  0.67101000  0.67268900  1
  O  O10  1  0.08183500  0.61774700  0.33008200  1
  O  O11  1  0.48954400  0.81484600  0.66930800  1
  O  O12  1  0.32412900  0.65739800  0.02611200  1
  O  O13  1  0.33448300  0.66141300  0.52411900  1
  O  O14  1  0.47313300  0.65858600  0.17668900  1
  O  O15  1  0.09497300  0.47937700  0.81757900  1
  O  O16  1  0.17848600  0.51775800  0.17514800  1
  O  O17  1  0.65667300  0.74174100  0.32916900  1
  O  O18  1  0.79493700  0.79462900  0.75230600  1
  O  O19  1  0.78481300  0.78747300  0.57481300  1
  O  O20  1  0.76461500  0.76308800  0.92940300  1
  O  O21  1  0.52434400  0.61894500  0.82358800  1
  O  O22  1  0.32871800  0.51276400  0.67103700  1
  O  O23  1  0.74327900  0.65645100  0.16402600  1
  O  O24  1  0.38482700  0.47089600  0.32779300  1
  O  O25  1  0.08817500  0.34519700  0.33078200  1
  O  O26  1  0.00572900  0.79777100  0.24529100  1
  O  O27  1  0.00736200  0.79657800  0.42493700  1
  O  O28  1  0.00821300  0.21718100  0.57968100  1
  O  O29  1  0.90998700  0.65337500  0.66564700  1
  O  O30  1  0.61503100  0.53432600  0.67168400  1
  O  O31  1  0.25590700  0.34455800  0.83010200  1
  O  O32  1  0.66622300  0.48213700  0.32403800  1
  O  O33  1  0.47439200  0.38050000  0.17643900  1
  O  O34  1  0.22661800  0.23389600  0.07644900  1
  O  O35  1  0.21699400  0.23374500  0.43441900  1
  O  O36  1  0.21217400  0.20114700  0.25599100  1
  O  O37  1  0.34564200  0.26065100  0.66446800  1
  O  O38  1  0.82141200  0.48533400  0.82732000  1
  O  O39  1  0.90435100  0.52225600  0.17929200  1
  O  O40  1  0.52476300  0.34054300  0.82233100  1
  O  O41  1  0.66682600  0.33670000  0.97324600  1
  O  O42  1  0.66457300  0.33194500  0.47434400  1
  O  O43  1  0.51694400  0.18601400  0.32481900  1
  O  O44  1  0.91273800  0.38066600  0.67118900  1
  O  O45  1  0.81297800  0.33189900  0.32598700  1
  O  O46  1  0.34106600  0.08327600  0.16027400  1
  O  O47  1  0.21002200  0.00802200  0.75624400  1
  O  O48  1  0.23798900  0.98654000  0.93504000  1
  O  O49  1  0.46478000  0.08173300  0.67362400  1
  O  O50  1  0.66313400  0.18533700  0.82226600  1
  O  O51  1  0.61903800  0.09184100  0.17942800  1
  O  O52  1  0.91604200  0.25842100  0.16385900  1
  O  O53  1  0.01363100  0.25690900  0.93541700  1
  O  O54  1  0.98600700  0.20059600  0.75910300  1
  O  O55  1  0.74123400  0.08233000  0.66093600  1
  O  O56  1  0.76536300  0.98387300  0.43281700  1
  O  O57  1  0.79877300  0.00735200  0.25339000  1
loop_
_geom_bond_atom_site_label_1
_geom_bond_atom_site_label_2
_geom_bond_distance
_geom_bond_site_symmetry_2
Li0 O48 1.924276 1_554
Li0 O2 2.002729 1_455
Li0 O46 2.023873 1_565
Li0 O5 2.278509 1_555
Li1 O56 1.942153 1_555
Li1 O19 1.973284 1_555
Li1 O55 2.117111 1_565
Li1 O11 2.226986 1_555
Li2 O53 1.881993 1_554
Li2 O34 1.893155 1_555
Li2 O52 2.067399 1_455
Li2 O16 2.378481 1_555
Li3 O35 1.942527 1_555
Li3 O28 1.956468 1_555
Li3 O37 2.145802 1_555
Li3 O22 2.226397 1_555
Li4 O20 1.913696 1_555
Li4 O2 1.948570 1_556
Li4 O3 2.156902 1_655
Li4 O38 2.350848 1_555
Li5 O27 1.924722 1_555
Li5 O0 2.083560 1_565
Li5 O19 2.364315 1_455
Li5 O35 2.486745 1_565
O0 P13 1.480523 1_555
O1 P1 1.550266 1_555
O1 V4 1.869489 1_565
O2 P8 1.500578 1_555
O3 P0 1.554306 1_555
O3 V2 1.982995 1_555
O4 P0 1.572706 1_555
O4 V5 1.832593 1_565
O5 P3 1.572104 1_555
O5 V4 1.969527 1_565
O6 P2 1.564038 1_555
O6 V4 1.861868 1_565
O7 P15 1.463648 1_555
O8 P5 1.551283 1_555
O8 V5 1.889981 1_565
O9 P4 1.606118 1_555
O9 V2 1.828501 1_555
O10 P1 1.559672 1_555
O10 V3 1.884812 1_455
O11 P4 1.571617 1_555
O11 V5 1.979078 1_565
O12 P3 1.486099 1_555
O13 P4 1.485720 1_555
O14 P3 1.589246 1_555
O14 V0 1.850500 1_555
O15 P7 1.556993 1_555
O15 V2 1.863598 1_555
O16 P3 1.579683 1_555
O16 V3 1.931499 1_455
O17 P2 1.547140 1_555
O17 V0 1.873907 1_555
O18 P6 1.613348 1_555
O18 P5 1.614048 1_555
O19 P6 1.490298 1_555
O20 P5 1.475564 1_555
O21 P5 1.570249 1_555
O21 V1 1.842128 1_555
O22 P4 1.571010 1_555
O22 V1 1.970003 1_555
O23 P8 1.543015 1_555
O23 V0 1.904908 1_555
O24 P9 1.542025 1_555
O24 V0 1.918885 1_555
O25 P9 1.561619 1_555
O25 V3 1.849341 1_455
O26 P8 1.602757 1_455
O26 P1 1.623741 1_555
O27 P1 1.477534 1_555
O28 P14 1.486339 1_455
O29 P6 1.559462 1_555
O29 V2 1.861961 1_655
O30 P6 1.545105 1_555
O30 V1 1.922849 1_555
O31 P7 1.559943 1_555
O31 V1 1.862512 1_555
O32 P11 1.559067 1_555
O32 V0 1.912556 1_555
O33 P10 1.553462 1_555
O33 V0 1.870470 1_555
O34 P10 1.480892 1_555
O35 P9 1.492143 1_555
O36 P9 1.602260 1_555
O36 P10 1.628034 1_555
O37 P13 1.562071 1_555
O37 V1 1.941311 1_555
O38 P12 1.558872 1_555
O38 V2 1.993097 1_655
O39 P8 1.544435 1_555
O39 V3 1.884996 1_555
O40 P12 1.598765 1_555
O40 V1 1.822265 1_555
O41 P12 1.478646 1_555
O42 P11 1.479189 1_555
O43 P11 1.592954 1_555
O43 V4 1.841322 1_555
O44 P14 1.569381 1_555
O44 V2 1.864042 1_655
O45 P11 1.595253 1_555
O45 V3 1.836710 1_555
O46 P10 1.551997 1_555
O46 V4 1.999818 1_555
O47 P0 1.601380 1_545
O47 P13 1.629843 1_555
O48 P0 1.480755 1_555
O49 P13 1.560387 1_555
O49 V5 1.897282 1_555
O50 P12 1.595233 1_555
O50 V5 1.838007 1_555
O51 P15 1.571106 1_555
O51 V4 1.845833 1_555
O52 P15 1.567422 1_555
O52 V3 1.965983 1_555
O53 P7 1.472161 1_555
O54 P7 1.611022 1_655
O54 P14 1.615402 1_555
O55 P14 1.550799 1_555
O55 V5 1.988388 1_555
O56 P2 1.490577 1_555
O57 P2 1.595879 1_545
O57 P15 1.639407 1_555
