# generated using pymatgen
data_K2Si4O9
_symmetry_space_group_name_H-M   'P 1'
_cell_length_a   6.59497985
_cell_length_b   6.59498102
_cell_length_c   9.52514880
_cell_angle_alpha   90.00000000
_cell_angle_beta   90.00000000
_cell_angle_gamma   120.00000688
_symmetry_Int_Tables_number   1
_chemical_formula_structural   K2Si4O9
_chemical_formula_sum   'K4 Si8 O18'
_cell_volume   358.78096486
_cell_formula_units_Z   2
loop_
 _symmetry_equiv_pos_site_id
 _symmetry_equiv_pos_as_xyz
  1  'x, y, z'
loop_
 _atom_site_type_symbol
 _atom_site_label
 _atom_site_symmetry_multiplicity
 _atom_site_fract_x
 _atom_site_fract_y
 _atom_site_fract_z
 _atom_site_occupancy
  K  K0  1  0.33333300  0.66666700  0.44260884  1
  K  K1  1  0.66666700  0.33333300  0.94260884  1
  K  K2  1  0.66666700  0.33333300  0.55739116  1
  K  K3  1  0.33333300  0.66666700  0.05739116  1
  Si  Si0  1  0.63520844  0.76571827  0.75000000  1
  Si  Si1  1  0.86949017  0.63520844  0.25000000  1
  Si  Si2  1  0.76571827  0.13050983  0.25000000  1
  Si  Si3  1  0.23428173  0.86949017  0.75000000  1
  Si  Si4  1  0.13050983  0.36479156  0.75000000  1
  Si  Si5  1  0.36479156  0.23428173  0.25000000  1
  Si  Si6  1  0.00000000  -0.00000000  0.50000000  1
  Si  Si7  1  0.00000000  -0.00000000  -0.00000000  1
  O  O0  1  0.23159205  0.21020136  0.39395839  1
  O  O1  1  0.02138870  0.23159205  0.89395839  1
  O  O2  1  0.21020136  0.97861130  0.89395839  1
  O  O3  1  0.78979864  0.02138870  0.39395839  1
  O  O4  1  0.97861130  0.76840795  0.39395839  1
  O  O5  1  0.76840795  0.78979864  0.89395839  1
  O  O6  1  0.76840795  0.78979864  0.60604161  1
  O  O7  1  0.97861130  0.76840795  0.10604161  1
  O  O8  1  0.78979864  0.02138870  0.10604161  1
  O  O9  1  0.21020136  0.97861130  0.60604161  1
  O  O10  1  0.02138870  0.23159205  0.60604161  1
  O  O11  1  0.23159205  0.21020136  0.10604161  1
  O  O12  1  0.49060495  0.07303833  0.25000000  1
  O  O13  1  0.41756762  0.49060495  0.75000000  1
  O  O14  1  0.07303833  0.58243238  0.75000000  1
  O  O15  1  0.92696167  0.41756762  0.25000000  1
  O  O16  1  0.58243238  0.50939505  0.25000000  1
  O  O17  1  0.50939505  0.92696167  0.75000000  1
loop_
_geom_bond_atom_site_label_1
_geom_bond_atom_site_label_2
_geom_bond_distance
_geom_bond_site_symmetry_2
K0 O4 2.776210 1_455
K0 O3 2.776223 1_565
K0 O0 2.776230 1_555
K0 O15 2.973952 1_455
K0 O16 2.973952 1_555
K0 O12 2.973952 1_565
K0 O6 2.997620 1_555
K0 O10 2.997621 1_555
K0 O9 2.997626 1_555
K1 O1 2.776210 1_655
K1 O2 2.776223 1_545
K1 O5 2.776230 1_555
K1 O14 2.973952 1_655
K1 O13 2.973952 1_555
K1 O17 2.973952 1_545
K1 O11 2.997620 1_556
K1 O7 2.997621 1_556
K1 O8 2.997626 1_556
K2 O10 2.776210 1_655
K2 O9 2.776223 1_545
K2 O6 2.776230 1_555
K2 O14 2.973952 1_655
K2 O13 2.973952 1_555
K2 O17 2.973952 1_545
K2 O0 2.997620 1_555
K2 O4 2.997621 1_555
K2 O3 2.997626 1_555
K3 O7 2.776210 1_455
K3 O8 2.776223 1_565
K3 O11 2.776230 1_555
K3 O15 2.973952 1_455
K3 O16 2.973952 1_555
K3 O12 2.973952 1_565
K3 O5 2.997620 1_554
K3 O1 2.997621 1_554
K3 O2 2.997626 1_554
O0 Si5 1.592998 1_555
O0 Si6 1.776920 1_555
O1 Si4 1.593001 1_555
O1 Si7 1.776925 1_556
O2 Si3 1.593005 1_555
O2 Si7 1.776914 1_566
O3 Si2 1.593005 1_555
O3 Si6 1.776914 1_655
O4 Si1 1.593001 1_555
O4 Si6 1.776925 1_665
O5 Si0 1.592998 1_555
O5 Si7 1.776920 1_666
O6 Si0 1.592998 1_555
O6 Si6 1.776920 1_665
O7 Si1 1.593001 1_555
O7 Si7 1.776925 1_665
O8 Si2 1.593005 1_555
O8 Si7 1.776914 1_655
O9 Si3 1.593005 1_555
O9 Si6 1.776914 1_565
O10 Si4 1.593001 1_555
O10 Si6 1.776925 1_555
O11 Si5 1.592998 1_555
O11 Si7 1.776920 1_555
O12 Si5 1.643659 1_555
O12 Si2 1.657678 1_555
O13 Si4 1.643665 1_555
O13 Si0 1.657676 1_555
O14 Si3 1.643665 1_555
O14 Si4 1.657672 1_555
O15 Si2 1.643665 1_555
O15 Si1 1.657672 1_555
O16 Si1 1.643665 1_555
O16 Si5 1.657676 1_555
O17 Si0 1.643659 1_555
O17 Si3 1.657678 1_555
