# generated using pymatgen
data_TmGaRh2
_symmetry_space_group_name_H-M   'P 1'
_cell_length_a   4.48676114
_cell_length_b   4.48676114
_cell_length_c   4.48676114
_cell_angle_alpha   60.00000000
_cell_angle_beta   60.00000000
_cell_angle_gamma   60.00000000
_symmetry_Int_Tables_number   1
_chemical_formula_structural   TmGaRh2
_chemical_formula_sum   'Tm1 Ga1 Rh2'
_cell_volume   63.86807880
_cell_formula_units_Z   1
loop_
 _symmetry_equiv_pos_site_id
 _symmetry_equiv_pos_as_xyz
  1  'x, y, z'
loop_
 _atom_site_type_symbol
 _atom_site_label
 _atom_site_symmetry_multiplicity
 _atom_site_fract_x
 _atom_site_fract_y
 _atom_site_fract_z
 _atom_site_occupancy
  Tm  Tm0  1  0.75000000  0.75000000  0.75000000  1
  Ga  Ga0  1  0.25000000  0.25000000  0.25000000  1
  Rh  Rh0  1  -0.00000000  0.00000000  -0.00000000  1
  Rh  Rh1  1  0.49999900  0.49999900  0.49999900  1
loop_
_geom_bond_atom_site_label_1
_geom_bond_atom_site_label_2
_geom_bond_distance
_geom_bond_site_symmetry_2
Ga0 Rh1 2.747558 1_555
Ga0 Rh0 2.747569 1_655
Ga0 Rh0 2.747569 1_555
Ga0 Rh0 2.747569 1_556
Ga0 Rh0 2.747569 1_565
Ga0 Rh1 2.747573 1_554
Ga0 Rh1 2.747573 1_545
Ga0 Rh1 2.747573 1_455
Rh0 Tm0 2.747569 1_544
Rh0 Tm0 2.747569 1_454
Rh0 Tm0 2.747569 1_444
Rh0 Tm0 2.747569 1_445
Rh1 Tm0 2.747565 1_545
Rh1 Tm0 2.747565 1_455
Rh1 Tm0 2.747565 1_554
Rh1 Tm0 2.747580 1_555
