# generated using pymatgen
data_Li6Mn5CoO12
_symmetry_space_group_name_H-M   'P 1'
_cell_length_a   5.07112333
_cell_length_b   5.06984086
_cell_length_c   10.15107515
_cell_angle_alpha   81.92550895
_cell_angle_beta   84.61512410
_cell_angle_gamma   66.44206660
_symmetry_Int_Tables_number   1
_chemical_formula_structural   Li6Mn5CoO12
_chemical_formula_sum   'Li6 Mn5 Co1 O12'
_cell_volume   236.65463787
_cell_formula_units_Z   1
loop_
 _symmetry_equiv_pos_site_id
 _symmetry_equiv_pos_as_xyz
  1  'x, y, z'
loop_
 _atom_site_type_symbol
 _atom_site_label
 _atom_site_symmetry_multiplicity
 _atom_site_fract_x
 _atom_site_fract_y
 _atom_site_fract_z
 _atom_site_occupancy
  Li  Li0  1  0.36351900  0.04424500  0.75865200  1
  Li  Li1  1  0.63662800  0.95573500  0.24134200  1
  Li  Li2  1  0.03570100  0.71657900  0.75849900  1
  Li  Li3  1  0.96443500  0.28341900  0.24149700  1
  Li  Li4  1  0.29480500  0.62457500  0.24030000  1
  Li  Li5  1  0.70544200  0.37532600  0.75966800  1
  Mn  Mn0  1  0.49996600  0.00015000  0.50008100  1
  Mn  Mn1  1  0.33231300  0.33259300  0.99979700  1
  Mn  Mn2  1  0.66753600  0.66776000  0.99985800  1
  Mn  Mn3  1  0.16719100  0.66692900  0.49990700  1
  Mn  Mn4  1  0.83261400  0.33287000  0.50045000  1
  Co  Co0  1  0.00001500  0.00009000  0.99999300  1
  O  O0  1  0.18978800  0.93893200  0.61250000  1
  O  O1  1  0.81001100  0.06084200  0.38765400  1
  O  O2  1  0.04892500  0.31568100  0.88785600  1
  O  O3  1  0.95115200  0.68450500  0.11198600  1
  O  O4  1  0.14161200  0.39551800  0.38693300  1
  O  O5  1  0.85833000  0.60409200  0.61321800  1
  O  O6  1  0.27792900  0.01154600  0.11205100  1
  O  O7  1  0.72217000  0.98865300  0.88779300  1
  O  O8  1  0.52381500  0.27106100  0.61349100  1
  O  O9  1  0.47600500  0.72871900  0.38667800  1
  O  O10  1  0.38281900  0.65546400  0.88655300  1
  O  O11  1  0.61726700  0.34473800  0.11324400  1
loop_
_geom_bond_atom_site_label_1
_geom_bond_atom_site_label_2
_geom_bond_distance
_geom_bond_site_symmetry_2
Li0 O0 2.026370 1_545
Li0 O8 2.049581 1_555
Li0 O2 2.125668 1_555
Li0 O10 2.175100 1_545
Li0 O7 2.244951 1_545
Li1 O1 2.026049 1_565
Li1 O9 2.052197 1_555
Li1 O3 2.126045 1_555
Li1 O11 2.176872 1_565
Li1 O6 2.245817 1_565
Li2 O0 2.023674 1_555
Li2 O5 2.050479 1_455
Li2 O7 2.125329 1_455
Li2 O10 2.182804 1_555
Li2 O2 2.240001 1_555
Li3 O1 2.026279 1_555
Li3 O4 2.050041 1_655
Li3 O6 2.125789 1_655
Li3 O11 2.184051 1_555
Li3 O3 2.241414 1_555
Li4 O4 2.046018 1_555
Li4 O9 2.048290 1_555
Li4 O11 2.148021 1_555
Li4 O3 2.171987 1_455
Li4 O6 2.172638 1_565
Li5 O5 2.043138 1_555
Li5 O8 2.048325 1_555
Li5 O10 2.147975 1_555
Li5 O2 2.170840 1_655
Li5 O7 2.171025 1_545
Mn0 O1 1.954604 1_555
Mn0 O0 1.956172 1_545
Mn0 O8 1.956912 1_555
Mn0 O9 1.959222 1_545
Mn0 O4 2.339392 1_555
Mn0 O5 2.341039 1_545
Mn1 O2 1.948380 1_555
Mn1 O6 1.950024 1_556
Mn1 O10 1.953912 1_555
Mn1 O11 1.954868 1_556
Mn1 O3 2.370074 1_456
Mn1 O7 2.370911 1_545
Mn2 O7 1.949055 1_555
Mn2 O3 1.950211 1_556
Mn2 O10 1.953256 1_555
Mn2 O11 1.954698 1_556
Mn2 O2 2.370069 1_655
Mn2 O6 2.370886 1_566
Mn3 O0 1.953147 1_555
Mn3 O9 1.955726 1_555
Mn3 O5 1.958444 1_455
Mn3 O4 1.959411 1_555
Mn3 O1 2.328985 1_465
Mn3 O8 2.338374 1_555
Mn4 O1 1.954684 1_555
Mn4 O8 1.954769 1_555
Mn4 O5 1.957471 1_555
Mn4 O4 1.959647 1_655
Mn4 O0 2.328122 1_645
Mn4 O9 2.339142 1_555
Co0 O3 1.914884 1_446
Co0 O6 1.915310 1_556
Co0 O2 1.915684 1_555
Co0 O7 1.915952 1_445
Co0 O11 2.361476 1_456
Co0 O10 2.362545 1_545
