# generated using pymatgen
data_MnPO4F
_symmetry_space_group_name_H-M   'P 1'
_cell_length_a   4.96952700
_cell_length_b   12.70208200
_cell_length_c   12.78953734
_cell_angle_alpha   60.12338934
_cell_angle_beta   90.00000000
_cell_angle_gamma   90.00000000
_symmetry_Int_Tables_number   1
_chemical_formula_structural   MnPO4F
_chemical_formula_sum   'Mn8 P8 O32 F8'
_cell_volume   700.02584112
_cell_formula_units_Z   8
loop_
 _symmetry_equiv_pos_site_id
 _symmetry_equiv_pos_as_xyz
  1  'x, y, z'
loop_
 _atom_site_type_symbol
 _atom_site_label
 _atom_site_symmetry_multiplicity
 _atom_site_fract_x
 _atom_site_fract_y
 _atom_site_fract_z
 _atom_site_occupancy
  Mn  Mn0  1  0.27373200  0.43280300  0.68836900  1
  Mn  Mn1  1  0.77373200  0.56719700  0.81163100  1
  Mn  Mn2  1  0.22725600  0.93295800  0.37862900  1
  Mn  Mn3  1  0.72725600  0.06704200  0.12137100  1
  Mn  Mn4  1  0.27274400  0.93295800  0.87862900  1
  Mn  Mn5  1  0.77274400  0.06704200  0.62137100  1
  Mn  Mn6  1  0.22626800  0.43280300  0.18836900  1
  Mn  Mn7  1  0.72626800  0.56719700  0.31163100  1
  P  P0  1  0.22240300  0.15594400  0.93225100  1
  P  P1  1  0.21822400  0.65585100  0.41342700  1
  P  P2  1  0.28177600  0.65585100  0.91342700  1
  P  P3  1  0.72240300  0.84405600  0.56774900  1
  P  P4  1  0.27759700  0.15594400  0.43225100  1
  P  P5  1  0.71822400  0.34414900  0.08657300  1
  P  P6  1  0.78177600  0.34414900  0.58657300  1
  P  P7  1  0.77759700  0.84405600  0.06774900  1
  O  O0  1  0.92187200  0.13040600  0.97407400  1
  O  O1  1  0.61154500  0.38692800  0.65901300  1
  O  O2  1  0.25953000  0.29229900  0.84534900  1
  O  O3  1  0.91720900  0.63528700  0.39185100  1
  O  O4  1  0.28739400  0.58986200  0.54894000  1
  O  O5  1  0.78739400  0.41013800  0.95106000  1
  O  O6  1  0.27252600  0.79121300  0.36385600  1
  O  O7  1  0.69335500  0.91149200  0.13472000  1
  O  O8  1  0.75953000  0.70770100  0.65465100  1
  O  O9  1  0.11154500  0.61307200  0.84098700  1
  O  O10  1  0.58279100  0.63528700  0.89185100  1
  O  O11  1  0.89157600  0.87919600  0.45375600  1
  O  O12  1  0.42187200  0.86959400  0.52592600  1
  O  O13  1  0.39157600  0.12080400  0.04624400  1
  O  O14  1  0.22747400  0.79121300  0.86385600  1
  O  O15  1  0.80664500  0.91149200  0.63472000  1
  O  O16  1  0.19335500  0.08850800  0.36528000  1
  O  O17  1  0.77252600  0.20878700  0.13614400  1
  O  O18  1  0.60842400  0.87919600  0.95375600  1
  O  O19  1  0.57812800  0.13040600  0.47407400  1
  O  O20  1  0.10842400  0.12080400  0.54624400  1
  O  O21  1  0.41720900  0.36471300  0.10814900  1
  O  O22  1  0.88845500  0.38692800  0.15901300  1
  O  O23  1  0.24047000  0.29229900  0.34534900  1
  O  O24  1  0.30664500  0.08850800  0.86528000  1
  O  O25  1  0.72747400  0.20878700  0.63614400  1
  O  O26  1  0.21260600  0.58986200  0.04894000  1
  O  O27  1  0.71260600  0.41013800  0.45106000  1
  O  O28  1  0.08279100  0.36471300  0.60814900  1
  O  O29  1  0.74047000  0.70770100  0.15465100  1
  O  O30  1  0.38845500  0.61307200  0.34098700  1
  O  O31  1  0.07812800  0.86959400  0.02592600  1
  F  F0  1  0.96162800  0.48836300  0.73208400  1
  F  F1  1  0.46162800  0.51163700  0.76791600  1
  F  F2  1  0.03825700  0.00237000  0.22186800  1
  F  F3  1  0.53825700  0.99763000  0.27813200  1
  F  F4  1  0.46174300  0.00237000  0.72186800  1
  F  F5  1  0.96174300  0.99763000  0.77813200  1
  F  F6  1  0.53837200  0.48836300  0.23208400  1
  F  F7  1  0.03837200  0.51163700  0.26791600  1
loop_
_geom_bond_atom_site_label_1
_geom_bond_atom_site_label_2
_geom_bond_distance
_geom_bond_site_symmetry_2
Mn0 O1 1.875298 1_555
Mn0 O28 1.893430 1_555
Mn0 O4 1.902690 1_555
Mn0 O2 1.910816 1_555
Mn1 O9 1.875298 1_655
Mn1 O10 1.893430 1_555
Mn1 O5 1.902690 1_555
Mn1 O8 1.910816 1_555
Mn2 O11 1.875806 1_455
Mn2 O12 1.903030 1_555
Mn2 O16 1.904018 1_565
Mn2 O6 1.914905 1_555
Mn3 O13 1.875806 1_555
Mn3 O0 1.903030 1_554
Mn3 O7 1.904018 1_545
Mn3 O17 1.914905 1_555
Mn4 O18 1.875806 1_555
Mn4 O31 1.903030 1_556
Mn4 O24 1.904018 1_565
Mn4 O14 1.914905 1_555
Mn5 O20 1.875806 1_655
Mn5 O19 1.903030 1_555
Mn5 O15 1.904018 1_545
Mn5 O25 1.914905 1_555
Mn6 O22 1.875298 1_455
Mn6 O21 1.893430 1_555
Mn6 O26 1.902690 1_555
Mn6 O23 1.910816 1_555
Mn7 O30 1.875298 1_555
Mn7 O3 1.893430 1_555
Mn7 O27 1.902690 1_555
Mn7 O29 1.910816 1_555
O0 P0 1.564931 1_655
O1 P6 1.539750 1_555
O2 P0 1.533400 1_555
O3 P1 1.566496 1_655
O4 P1 1.541830 1_555
O5 P5 1.541830 1_556
O6 P1 1.531349 1_555
O7 P7 1.540640 1_555
O8 P3 1.533400 1_555
O9 P2 1.539750 1_555
O10 P2 1.566496 1_555
O11 P3 1.543772 1_555
O12 P3 1.564931 1_555
O13 P0 1.543772 1_554
O14 P2 1.531349 1_555
O15 P3 1.540640 1_555
O16 P4 1.540640 1_555
O17 P5 1.531349 1_555
O18 P7 1.543772 1_556
O19 P4 1.564931 1_555
O20 P4 1.543772 1_555
O21 P5 1.566496 1_555
O22 P5 1.539750 1_555
O23 P4 1.533400 1_555
O24 P0 1.540640 1_555
O25 P6 1.531349 1_555
O26 P2 1.541830 1_554
O27 P6 1.541830 1_555
O28 P6 1.566496 1_455
O29 P7 1.533400 1_555
O30 P1 1.539750 1_555
O31 P7 1.564931 1_455
F0 Mn0 1.899833 1_655
F0 Mn1 1.981060 1_555
F1 Mn1 1.899833 1_555
F1 Mn0 1.981060 1_555
F2 Mn3 1.914050 1_455
F2 Mn2 1.979411 1_545
F3 Mn2 1.914050 1_555
F3 Mn3 1.979411 1_565
F4 Mn5 1.914050 1_555
F4 Mn4 1.979411 1_545
F5 Mn4 1.914050 1_655
F5 Mn5 1.979411 1_565
F6 Mn6 1.899833 1_555
F6 Mn7 1.981060 1_555
F7 Mn7 1.899833 1_455
F7 Mn6 1.981060 1_555
