# generated using pymatgen
data_La3NiBr3
_symmetry_space_group_name_H-M   'P 1'
_cell_length_a   10.54372444
_cell_length_b   10.54346097
_cell_length_c   10.54284122
_cell_angle_alpha   107.27881651
_cell_angle_beta   107.27015355
_cell_angle_gamma   113.95909329
_symmetry_Int_Tables_number   1
_chemical_formula_structural   La3NiBr3
_chemical_formula_sum   'La12 Ni4 Br12'
_cell_volume   898.04628416
_cell_formula_units_Z   4
loop_
 _symmetry_equiv_pos_site_id
 _symmetry_equiv_pos_as_xyz
  1  'x, y, z'
loop_
 _atom_site_type_symbol
 _atom_site_label
 _atom_site_symmetry_multiplicity
 _atom_site_fract_x
 _atom_site_fract_y
 _atom_site_fract_z
 _atom_site_occupancy
  La  La0  1  0.38678796  0.61308008  -0.00012486  1
  La  La1  1  0.61318530  0.38695370  0.00012111  1
  La  La2  1  0.63683022  0.13685025  0.27367648  1
  La  La3  1  0.86314750  0.36312640  0.72629089  1
  La  La4  1  0.41262185  0.41058332  0.26327465  1
  La  La5  1  0.14726333  0.14929503  0.73675092  1
  La  La6  1  0.10268310  0.33948537  0.50196448  1
  La  La7  1  0.83752451  0.60072419  0.49802224  1
  La  La8  1  0.58941872  0.58732864  0.73675177  1
  La  La9  1  0.85060788  0.85270490  0.26323150  1
  La  La10  1  0.66051063  0.89734068  0.49800914  1
  La  La11  1  0.39944378  0.16253910  0.50207213  1
  Ni  Ni0  1  0.62669621  0.62677882  0.25349029  1
  Ni  Ni1  1  0.37313551  0.37314498  0.74651035  1
  Ni  Ni2  1  0.87675488  0.12334789  0.50000929  1
  Ni  Ni3  1  0.62346955  0.37681633  0.50002699  1
  Br  Br0  1  0.36908425  0.63099406  0.50009051  1
  Br  Br1  1  0.13091697  0.86898790  0.49990654  1
  Br  Br2  1  0.11924682  0.11916362  0.23839951  1
  Br  Br3  1  0.88077691  0.88086990  0.76167070  1
  Br  Br4  1  0.88725273  0.63720588  -0.00370275  1
  Br  Br5  1  0.64086640  0.89091147  0.00360881  1
  Br  Br6  1  0.60909499  0.11275329  0.75016127  1
  Br  Br7  1  0.36261663  0.85891517  0.24982058  1
  Br  Br8  1  0.36276186  0.11274453  0.00364314  1
  Br  Br9  1  0.10910721  0.35910708  -0.00361963  1
  Br  Br10  1  0.88729122  0.39086772  0.24990390  1
  Br  Br11  1  0.14090308  0.63738068  0.75003905  1
loop_
_geom_bond_atom_site_label_1
_geom_bond_atom_site_label_2
_geom_bond_distance
_geom_bond_site_symmetry_2
La0 Ni1 3.002883 1_554
La0 Ni0 3.004447 1_555
La1 Ni0 3.003097 1_555
La1 Ni1 3.004604 1_554
La2 Ni3 3.003052 1_555
La2 Ni2 3.003952 1_555
La3 Ni2 3.003036 1_555
La3 Ni3 3.003157 1_555
La4 Ni0 2.529922 1_555
La4 Ni3 3.029059 1_555
La5 Ni1 2.529394 1_555
La5 Ni2 3.028728 1_455
La6 Ni2 2.530246 1_455
La6 Ni1 3.028842 1_555
La7 Ni3 2.529440 1_555
La7 Ni0 3.029385 1_555
La8 Ni1 2.530897 1_555
La8 Ni3 3.028621 1_555
La9 Ni0 2.530156 1_555
La9 Ni2 3.028374 1_565
La10 Ni2 2.531044 1_565
La10 Ni0 3.028227 1_555
La11 Ni3 2.531601 1_555
La11 Ni1 3.028904 1_555
Br0 La8 3.153372 1_555
Br0 La4 3.153568 1_555
Br0 La6 3.223984 1_555
Br0 La10 3.224393 1_555
Br1 La9 3.153620 1_455
Br1 La5 3.153748 1_565
Br1 La7 3.223943 1_455
Br1 La11 3.224687 1_565
Br2 La6 3.151363 1_555
Br2 La11 3.152138 1_555
Br2 La4 3.224646 1_555
Br2 La9 3.224661 1_445
Br3 La10 3.151504 1_555
Br3 La7 3.151939 1_555
Br3 La5 3.224137 1_665
Br3 La8 3.225032 1_555
Br4 La1 3.041992 1_555
Br4 La8 3.213625 1_554
Br4 La3 3.256661 1_554
Br4 La9 3.285097 1_555
Br5 La0 3.042125 1_555
Br5 La9 3.213924 1_555
Br5 La2 3.257050 1_565
Br5 La8 3.284665 1_554
Br6 La3 3.042869 1_555
Br6 La11 3.213735 1_555
Br6 La1 3.257305 1_556
Br6 La10 3.284552 1_545
Br7 La2 3.042871 1_565
Br7 La10 3.214513 1_555
Br7 La0 3.256525 1_555
Br7 La11 3.285013 1_565
Br8 La1 3.041998 1_555
Br8 La4 3.213832 1_555
Br8 La2 3.257135 1_555
Br8 La5 3.284491 1_554
Br9 La0 3.041989 1_555
Br9 La5 3.213643 1_554
Br9 La3 3.257578 1_454
Br9 La4 3.284640 1_555
Br10 La2 3.042539 1_555
Br10 La7 3.214568 1_555
Br10 La1 3.257126 1_555
Br10 La6 3.283917 1_655
Br11 La3 3.042608 1_455
Br11 La6 3.214669 1_555
Br11 La0 3.257388 1_556
Br11 La7 3.283358 1_455
