# generated using pymatgen
data_Zr7VO16
_symmetry_space_group_name_H-M   'P 1'
_cell_length_a   6.92282797
_cell_length_b   13.20485555
_cell_length_c   7.27427302
_cell_angle_alpha   103.46245346
_cell_angle_beta   64.14110412
_cell_angle_gamma   90.52408219
_symmetry_Int_Tables_number   1
_chemical_formula_structural   Zr7VO16
_chemical_formula_sum   'Zr14 V2 O32'
_cell_volume   578.69908012
_cell_formula_units_Z   2
loop_
 _symmetry_equiv_pos_site_id
 _symmetry_equiv_pos_as_xyz
  1  'x, y, z'
loop_
 _atom_site_type_symbol
 _atom_site_label
 _atom_site_symmetry_multiplicity
 _atom_site_fract_x
 _atom_site_fract_y
 _atom_site_fract_z
 _atom_site_occupancy
  Zr  Zr0  1  0.21749500  0.00981200  0.05330100  1
  Zr  Zr1  1  0.71749000  0.50981200  0.05331000  1
  Zr  Zr2  1  0.99527400  0.27561900  0.00709000  1
  Zr  Zr3  1  0.49531500  0.77564100  0.00708500  1
  Zr  Zr4  1  0.73303900  0.02759700  0.51745100  1
  Zr  Zr5  1  0.23304100  0.52759800  0.51744500  1
  Zr  Zr6  1  0.46950700  0.25634600  0.56477900  1
  Zr  Zr7  1  0.96952500  0.75635800  0.56480100  1
  Zr  Zr8  1  0.02723500  0.24361700  0.44382800  1
  Zr  Zr9  1  0.52722000  0.74361000  0.44382500  1
  Zr  Zr10  1  0.76225700  0.47415500  0.49062700  1
  Zr  Zr11  1  0.26225000  0.97415700  0.49063000  1
  Zr  Zr12  1  0.27816600  0.49382200  0.95193600  1
  Zr  Zr13  1  0.77816400  0.99382600  0.95193200  1
  V  V0  1  0.04679200  0.72677400  0.99498300  1
  V  V1  1  0.54673200  0.22679200  0.99488000  1
  O  O0  1  0.08959600  0.06633200  0.39552600  1
  O  O1  1  0.58959500  0.56633100  0.39553100  1
  O  O2  1  0.39720700  0.24089800  0.27417400  1
  O  O3  1  0.89728300  0.74088700  0.27415600  1
  O  O4  1  0.86184700  0.00551100  0.19513900  1
  O  O5  1  0.36184300  0.50551200  0.19513700  1
  O  O6  1  0.45688400  0.09690400  0.50449000  1
  O  O7  1  0.95691700  0.59690700  0.50443200  1
  O  O8  1  0.70773000  0.34435500  0.00234700  1
  O  O9  1  0.20777800  0.84435200  0.00230100  1
  O  O10  1  0.11938800  0.17584500  0.12287700  1
  O  O11  1  0.61940900  0.67581700  0.12284100  1
  O  O12  1  0.77288300  0.30845900  0.36960000  1
  O  O13  1  0.27290300  0.80847100  0.36957000  1
  O  O14  1  0.52364500  0.06509900  0.87575000  1
  O  O15  1  0.02367300  0.56509200  0.87575900  1
  O  O16  1  0.96999000  0.44334900  0.12807100  1
  O  O17  1  0.47001800  0.94337800  0.12813500  1
  O  O18  1  0.72148800  0.19671800  0.63653800  1
  O  O19  1  0.22148800  0.69671400  0.63654100  1
  O  O20  1  0.34680800  0.31023700  0.90004900  1
  O  O21  1  0.84685500  0.81024600  0.90004800  1
  O  O22  1  0.04618100  0.40310800  0.48973300  1
  O  O23  1  0.54621000  0.90309200  0.48969900  1
  O  O24  1  0.79984800  0.15458500  0.97426400  1
  O  O25  1  0.29993100  0.65458700  0.97424500  1
  O  O26  1  0.63201300  0.49459900  0.80754800  1
  O  O27  1  0.13199500  0.99460800  0.80755200  1
  O  O28  1  0.12628800  0.25589700  0.68352700  1
  O  O29  1  0.62633300  0.75590900  0.68353900  1
  O  O30  1  0.39823300  0.43033100  0.61649000  1
  O  O31  1  0.89823200  0.93033100  0.61648300  1
loop_
_geom_bond_atom_site_label_1
_geom_bond_atom_site_label_2
_geom_bond_distance
_geom_bond_site_symmetry_2
O0 Zr11 2.128074 1_545
O0 Zr0 2.182323 1_555
O0 Zr8 2.300739 1_555
O0 Zr4 2.327998 1_455
O1 Zr10 2.128081 1_555
O1 Zr1 2.182298 1_555
O1 Zr9 2.300683 1_555
O1 Zr5 2.327974 1_555
O2 V1 1.796290 1_554
O2 Zr8 2.303935 1_555
O2 Zr6 2.341195 1_555
O3 V0 1.795513 1_654
O3 Zr9 2.304488 1_555
O3 Zr7 2.341197 1_555
O4 Zr4 2.059108 1_555
O4 Zr13 2.062677 1_544
O4 Zr0 2.222261 1_655
O5 Zr5 2.059084 1_555
O5 Zr12 2.062599 1_554
O5 Zr1 2.222254 1_555
O6 Zr6 2.057391 1_555
O6 Zr11 2.110766 1_545
O6 Zr4 2.175029 1_555
O7 Zr7 2.057489 1_555
O7 Zr10 2.110874 1_555
O7 Zr5 2.175046 1_655
O8 V1 1.907104 1_554
O8 Zr1 2.134836 1_555
O8 Zr2 2.212492 1_555
O9 V0 1.907113 1_554
O9 Zr0 2.134832 1_565
O9 Zr3 2.212459 1_555
O10 Zr2 2.086184 1_455
O10 Zr8 2.096898 1_555
O10 Zr0 2.175998 1_555
O11 Zr3 2.086419 1_555
O11 Zr9 2.097113 1_555
O11 Zr1 2.175650 1_555
O12 Zr10 2.148800 1_555
O12 Zr6 2.174309 1_555
O12 Zr8 2.279789 1_655
O12 Zr2 2.334609 1_555
O13 Zr11 2.148691 1_555
O13 Zr7 2.174433 1_455
O13 Zr9 2.279815 1_555
O13 Zr3 2.334498 1_555
O14 V1 2.142047 1_555
O14 Zr0 2.171625 1_556
O14 Zr4 2.292621 1_555
O14 Zr13 2.328609 1_545
O15 V0 2.142110 1_555
O15 Zr1 2.171745 1_456
O15 Zr5 2.292689 1_555
O15 Zr12 2.328411 1_555
O16 Zr12 2.150480 1_654
O16 Zr2 2.162369 1_555
O16 Zr1 2.280589 1_555
O16 Zr10 2.322033 1_555
O17 Zr13 2.150300 1_554
O17 Zr3 2.162514 1_555
O17 Zr0 2.280909 1_565
O17 Zr11 2.321727 1_555
O18 Zr8 2.149590 1_655
O18 Zr4 2.187729 1_555
O18 Zr6 2.224018 1_555
O18 V1 2.278596 1_555
O19 Zr9 2.149513 1_555
O19 Zr5 2.187675 1_555
O19 Zr7 2.223904 1_455
O19 V0 2.279232 1_555
O20 Zr6 2.138168 1_555
O20 V1 2.195499 1_555
O20 Zr2 2.286947 1_456
O20 Zr12 2.384044 1_555
O21 Zr7 2.138036 1_555
O21 V0 2.196310 1_655
O21 Zr3 2.286941 1_556
O21 Zr13 2.384030 1_555
O22 Zr8 2.066369 1_555
O22 Zr5 2.109651 1_555
O22 Zr10 2.182511 1_455
O23 Zr9 2.066301 1_555
O23 Zr4 2.109714 1_565
O23 Zr11 2.182708 1_555
O24 V1 1.933095 1_555
O24 Zr13 2.100018 1_545
O24 Zr2 2.122798 1_556
O25 V0 1.932723 1_555
O25 Zr12 2.100172 1_555
O25 Zr3 2.122812 1_556
O26 Zr10 2.025347 1_555
O26 Zr1 2.083252 1_556
O26 Zr12 2.205475 1_555
O27 Zr11 2.025338 1_555
O27 Zr0 2.083279 1_566
O27 Zr13 2.205383 1_455
O28 Zr2 2.070512 1_456
O28 Zr8 2.108575 1_555
O28 Zr6 2.145588 1_555
O29 Zr3 2.070379 1_556
O29 Zr9 2.108933 1_555
O29 Zr7 2.145419 1_555
O30 Zr12 2.153823 1_555
O30 Zr5 2.157094 1_555
O30 Zr6 2.262667 1_555
O30 Zr10 2.394005 1_555
O31 Zr13 2.153848 1_555
O31 Zr4 2.157023 1_565
O31 Zr7 2.262567 1_555
O31 Zr11 2.393978 1_655
