# generated using pymatgen
data_NaCa2Fe5(SiO3)8
_symmetry_space_group_name_H-M   'P 1'
_cell_length_a   10.50778172
_cell_length_b   10.50778172
_cell_length_c   5.33501585
_cell_angle_alpha   82.82982425
_cell_angle_beta   82.82982425
_cell_angle_gamma   122.06231764
_symmetry_Int_Tables_number   1
_chemical_formula_structural   NaCa2Fe5(SiO3)8
_chemical_formula_sum   'Na1 Ca2 Fe5 Si8 O24'
_cell_volume   482.34751746
_cell_formula_units_Z   1
loop_
 _symmetry_equiv_pos_site_id
 _symmetry_equiv_pos_as_xyz
  1  'x, y, z'
loop_
 _atom_site_type_symbol
 _atom_site_label
 _atom_site_symmetry_multiplicity
 _atom_site_fract_x
 _atom_site_fract_y
 _atom_site_fract_z
 _atom_site_occupancy
  Na  Na0  1  0.50000000  0.50000000  0.00000000  1
  Ca  Ca0  1  0.27570600  0.72429400  0.50000000  1
  Ca  Ca1  1  0.72429400  0.27570600  0.50000000  1
  Fe  Fe0  1  0.07892500  0.92107500  0.50000000  1
  Fe  Fe1  1  0.92107500  0.07892500  0.50000000  1
  Fe  Fe2  1  0.17797000  0.82203000  0.00000000  1
  Fe  Fe3  1  0.82203000  0.17797000  0.00000000  1
  Fe  Fe4  1  0.00000000  0.00000000  0.00000000  1
  Si  Si0  1  0.80560800  0.63799800  0.29908400  1
  Si  Si1  1  0.63799800  0.80560800  0.29908400  1
  Si  Si2  1  0.19439200  0.36200200  0.70091600  1
  Si  Si3  1  0.36200200  0.19439200  0.70091600  1
  Si  Si4  1  0.88187000  0.54328600  0.80290000  1
  Si  Si5  1  0.54328600  0.88187000  0.80290000  1
  Si  Si6  1  0.11813000  0.45671400  0.19710000  1
  Si  Si7  1  0.45671400  0.11813000  0.19710000  1
  O  O0  1  0.97493000  0.79468500  0.22123800  1
  O  O1  1  0.79468500  0.97493000  0.22123800  1
  O  O2  1  0.02507000  0.20531500  0.77876200  1
  O  O3  1  0.20531500  0.02507000  0.77876200  1
  O  O4  1  0.05074500  0.70556400  0.71762200  1
  O  O5  1  0.70556400  0.05074500  0.71762200  1
  O  O6  1  0.94925500  0.29443600  0.28237800  1
  O  O7  1  0.29443600  0.94925500  0.28237800  1
  O  O8  1  0.89636800  0.89636800  0.71911500  1
  O  O9  1  0.10363200  0.10363200  0.28088500  1
  O  O10  1  0.87710300  0.38896300  0.79044300  1
  O  O11  1  0.38896300  0.87710300  0.79044300  1
  O  O12  1  0.12289700  0.61103700  0.20955700  1
  O  O13  1  0.61103700  0.12289700  0.20955700  1
  O  O14  1  0.78649700  0.52179800  0.10101500  1
  O  O15  1  0.52179800  0.78649700  0.10101500  1
  O  O16  1  0.21350300  0.47820200  0.89898500  1
  O  O17  1  0.47820200  0.21350300  0.89898500  1
  O  O18  1  0.76928300  0.53892100  0.59574800  1
  O  O19  1  0.53892100  0.76928300  0.59574800  1
  O  O20  1  0.23071700  0.46107900  0.40425200  1
  O  O21  1  0.46107900  0.23071700  0.40425200  1
  O  O22  1  0.66275300  0.66275300  0.28780000  1
  O  O23  1  0.33724700  0.33724700  0.71220000  1
loop_
_geom_bond_atom_site_label_1
_geom_bond_atom_site_label_2
_geom_bond_distance
_geom_bond_site_symmetry_2
Na0 O23 2.532348 1_554
Na0 O22 2.532348 1_555
Ca0 O12 2.334136 1_555
Ca0 O11 2.334136 1_555
Ca0 O4 2.395488 1_555
Ca0 O7 2.395488 1_555
Ca0 O19 2.675616 1_555
Ca0 O20 2.675616 1_555
Ca0 O15 2.851158 1_555
Ca0 O16 2.851158 1_555
Ca1 O10 2.334136 1_555
Ca1 O13 2.334136 1_555
Ca1 O6 2.395488 1_555
Ca1 O5 2.395488 1_555
Ca1 O21 2.675616 1_555
Ca1 O18 2.675616 1_555
Ca1 O17 2.851158 1_555
Ca1 O14 2.851158 1_555
Fe0 O9 1.987310 1_565
Fe0 O8 1.987310 1_455
Fe0 O3 2.127824 1_565
Fe0 O0 2.127824 1_455
Fe0 O4 2.260471 1_555
Fe0 O7 2.260471 1_555
Fe1 O9 1.987310 1_655
Fe1 O8 1.987310 1_545
Fe1 O2 2.127824 1_655
Fe1 O1 2.127824 1_545
Fe1 O5 2.260471 1_555
Fe1 O6 2.260471 1_555
Fe2 O12 2.087528 1_555
Fe2 O11 2.087528 1_554
Fe2 O3 2.159487 1_564
Fe2 O0 2.159487 1_455
Fe2 O7 2.186414 1_555
Fe2 O4 2.186414 1_554
Fe3 O13 2.087528 1_555
Fe3 O10 2.087528 1_554
Fe3 O2 2.159487 1_654
Fe3 O1 2.159487 1_545
Fe3 O6 2.186414 1_555
Fe3 O5 2.186414 1_554
Fe4 O8 2.042778 1_444
Fe4 O9 2.042778 1_555
Fe4 O1 2.190948 1_445
Fe4 O2 2.190948 1_554
Fe4 O0 2.190948 1_445
Fe4 O3 2.190948 1_554
O0 Si0 1.607357 1_555
O1 Si1 1.607357 1_555
O2 Si2 1.607357 1_555
O3 Si3 1.607357 1_555
O4 Si4 1.629663 1_455
O5 Si5 1.629663 1_545
O6 Si6 1.629663 1_655
O7 Si7 1.629663 1_565
O10 Si4 1.605610 1_555
O11 Si5 1.605610 1_555
O12 Si6 1.605610 1_555
O13 Si7 1.605610 1_555
O14 Si0 1.662087 1_555
O14 Si4 1.690284 1_554
O15 Si1 1.662087 1_555
O15 Si5 1.690284 1_554
O16 Si2 1.662087 1_555
O16 Si6 1.690284 1_556
O17 Si3 1.662087 1_555
O17 Si7 1.690284 1_556
O18 Si0 1.658457 1_555
O18 Si4 1.704257 1_555
O19 Si1 1.658457 1_555
O19 Si5 1.704257 1_555
O20 Si2 1.658457 1_555
O20 Si6 1.704257 1_555
O21 Si3 1.658457 1_555
O21 Si7 1.704257 1_555
O22 Si0 1.660648 1_555
O22 Si1 1.660648 1_555
O23 Si3 1.660648 1_555
O23 Si2 1.660648 1_555
