# generated using pymatgen
data_Ca2SiB5H5O14
_symmetry_space_group_name_H-M   'P 1'
_cell_length_a   9.51780300
_cell_length_b   8.64278500
_cell_length_c   12.90749789
_cell_angle_alpha   75.11754601
_cell_angle_beta   90.00000000
_cell_angle_gamma   90.00000000
_symmetry_Int_Tables_number   1
_chemical_formula_structural   Ca2SiB5H5O14
_chemical_formula_sum   'Ca8 Si4 B20 H20 O56'
_cell_volume   1026.15749361
_cell_formula_units_Z   4
loop_
 _symmetry_equiv_pos_site_id
 _symmetry_equiv_pos_as_xyz
  1  'x, y, z'
loop_
 _atom_site_type_symbol
 _atom_site_label
 _atom_site_symmetry_multiplicity
 _atom_site_fract_x
 _atom_site_fract_y
 _atom_site_fract_z
 _atom_site_occupancy
  Ca  Ca0  1  0.68433000  0.34961900  0.11885700  1
  Ca  Ca1  1  0.81567000  0.84961900  0.11885700  1
  Ca  Ca2  1  0.17773400  0.47453300  0.41244600  1
  Ca  Ca3  1  0.32226600  0.97453300  0.41244600  1
  Ca  Ca4  1  0.67773400  0.02546700  0.58755400  1
  Ca  Ca5  1  0.82226600  0.52546700  0.58755400  1
  Ca  Ca6  1  0.18433000  0.15038100  0.88114300  1
  Ca  Ca7  1  0.31567000  0.65038100  0.88114300  1
  Si  Si0  1  0.05586900  0.48867200  0.14125900  1
  Si  Si1  1  0.44413100  0.98867200  0.14125900  1
  Si  Si2  1  0.55586900  0.01132800  0.85874100  1
  Si  Si3  1  0.94413100  0.51132800  0.85874100  1
  B  B0  1  0.97295000  0.24220200  0.03751500  1
  B  B1  1  0.14835000  0.02874000  0.15780600  1
  B  B2  1  0.52705000  0.74220200  0.03751500  1
  B  B3  1  0.35165000  0.52874000  0.15780600  1
  B  B4  1  0.76472600  0.21159300  0.34284600  1
  B  B5  1  0.88397000  0.47233100  0.32287300  1
  B  B6  1  0.73527400  0.71159300  0.34284600  1
  B  B7  1  0.61603000  0.97233100  0.32287300  1
  B  B8  1  0.91984100  0.24891600  0.49373900  1
  B  B9  1  0.41984100  0.25108400  0.50626100  1
  B  B10  1  0.58015900  0.74891600  0.49373900  1
  B  B11  1  0.08015900  0.75108400  0.50626100  1
  B  B12  1  0.38397000  0.02766900  0.67712700  1
  B  B13  1  0.26472600  0.28840700  0.65715400  1
  B  B14  1  0.11603000  0.52766900  0.67712700  1
  B  B15  1  0.23527400  0.78840700  0.65715400  1
  B  B16  1  0.64835000  0.47126000  0.84219400  1
  B  B17  1  0.47295000  0.25779800  0.96248500  1
  B  B18  1  0.85165000  0.97126000  0.84219400  1
  B  B19  1  0.02705000  0.75779800  0.96248500  1
  H  H0  1  0.29046800  0.34886600  0.01329000  1
  H  H1  1  0.20953200  0.84886600  0.01329000  1
  H  H2  1  0.42824600  0.30468400  0.17315700  1
  H  H3  1  0.19508700  0.21573600  0.22008700  1
  H  H4  1  0.07175400  0.80468400  0.17315700  1
  H  H5  1  0.30491300  0.71573600  0.22008700  1
  H  H6  1  0.41356300  0.32062600  0.33482100  1
  H  H7  1  0.08643700  0.82062600  0.33482100  1
  H  H8  1  0.59053600  0.40351300  0.46474100  1
  H  H9  1  0.09053600  0.09648700  0.53525900  1
  H  H10  1  0.90946400  0.90351300  0.46474100  1
  H  H11  1  0.40946400  0.59648700  0.53525900  1
  H  H12  1  0.91356300  0.17937400  0.66517900  1
  H  H13  1  0.58643700  0.67937400  0.66517900  1
  H  H14  1  0.69508700  0.28426400  0.77991300  1
  H  H15  1  0.92824600  0.19531600  0.82684300  1
  H  H16  1  0.80491300  0.78426400  0.77991300  1
  H  H17  1  0.57175400  0.69531600  0.82684300  1
  H  H18  1  0.79046800  0.15113400  0.98671000  1
  H  H19  1  0.70953200  0.65113400  0.98671000  1
  O  O0  1  0.83671000  0.14684100  0.05580800  1
  O  O1  1  0.09817400  0.14403700  0.06126400  1
  O  O2  1  0.48437100  0.17623300  0.08035500  1
  O  O3  1  0.95377900  0.36503600  0.09849300  1
  O  O4  1  0.66329000  0.64684100  0.05580800  1
  O  O5  1  0.40182600  0.64403700  0.06126400  1
  O  O6  1  0.01562900  0.67623300  0.08035500  1
  O  O7  1  0.22158300  0.44743200  0.12538500  1
  O  O8  1  0.54622100  0.86503600  0.09849300  1
  O  O9  1  0.18324700  0.09998400  0.24698500  1
  O  O10  1  0.45492300  0.39727100  0.19990100  1
  O  O11  1  0.27841700  0.94743200  0.12538500  1
  O  O12  1  0.67205200  0.13510500  0.29149300  1
  O  O13  1  0.02337300  0.47195200  0.26857000  1
  O  O14  1  0.78526200  0.36786400  0.28654300  1
  O  O15  1  0.31675300  0.59998400  0.24698500  1
  O  O16  1  0.04507700  0.89727100  0.19990100  1
  O  O17  1  0.82794800  0.63510500  0.29149300  1
  O  O18  1  0.47662700  0.97195200  0.26857000  1
  O  O19  1  0.71473800  0.86786400  0.28654300  1
  O  O20  1  0.35440200  0.27175400  0.39868000  1
  O  O21  1  0.83337400  0.14442400  0.43807700  1
  O  O22  1  0.90822100  0.41953600  0.43833200  1
  O  O23  1  0.14559800  0.77175400  0.39868000  1
  O  O24  1  0.06837400  0.20708600  0.49778400  1
  O  O25  1  0.66662600  0.64442400  0.43807700  1
  O  O26  1  0.56837400  0.29291400  0.50221600  1
  O  O27  1  0.40822100  0.08046400  0.56166800  1
  O  O28  1  0.59177900  0.91953600  0.43833200  1
  O  O29  1  0.43162600  0.70708600  0.49778400  1
  O  O30  1  0.33337400  0.35557600  0.56192300  1
  O  O31  1  0.93162600  0.79291400  0.50221600  1
  O  O32  1  0.85440200  0.22824600  0.60132000  1
  O  O33  1  0.09177900  0.58046400  0.56166800  1
  O  O34  1  0.16662600  0.85557600  0.56192300  1
  O  O35  1  0.64559800  0.72824600  0.60132000  1
  O  O36  1  0.28526200  0.13213600  0.71345700  1
  O  O37  1  0.52337300  0.02804800  0.73143000  1
  O  O38  1  0.17205200  0.36489500  0.70850700  1
  O  O39  1  0.95492300  0.10272900  0.80009900  1
  O  O40  1  0.68324700  0.40001600  0.75301500  1
  O  O41  1  0.21473800  0.63213600  0.71345700  1
  O  O42  1  0.97662700  0.52804800  0.73143000  1
  O  O43  1  0.32794800  0.86489500  0.70850700  1
  O  O44  1  0.72158300  0.05256800  0.87461500  1
  O  O45  1  0.54507700  0.60272900  0.80009900  1
  O  O46  1  0.81675300  0.90001600  0.75301500  1
  O  O47  1  0.45377900  0.13496400  0.90150700  1
  O  O48  1  0.77841700  0.55256800  0.87461500  1
  O  O49  1  0.98437100  0.32376700  0.91964500  1
  O  O50  1  0.59817400  0.35596300  0.93873600  1
  O  O51  1  0.33671000  0.35315900  0.94419200  1
  O  O52  1  0.04622100  0.63496400  0.90150700  1
  O  O53  1  0.51562900  0.82376700  0.91964500  1
  O  O54  1  0.90182600  0.85596300  0.93873600  1
  O  O55  1  0.16329000  0.85315900  0.94419200  1
loop_
_geom_bond_atom_site_label_1
_geom_bond_atom_site_label_2
_geom_bond_distance
_geom_bond_site_symmetry_2
Ca0 O14 2.409915 1_555
Ca0 O50 2.452583 1_554
Ca0 O4 2.495476 1_555
Ca0 O10 2.500530 1_555
Ca0 O12 2.508817 1_555
Ca0 O2 2.548959 1_555
Ca0 O0 2.563168 1_555
Ca0 O3 2.577951 1_555
Ca1 O19 2.409915 1_555
Ca1 O54 2.452583 1_554
Ca1 O0 2.495476 1_565
Ca1 O16 2.500530 1_655
Ca1 O17 2.508817 1_555
Ca1 O6 2.548959 1_655
Ca1 O4 2.563168 1_555
Ca1 O8 2.577951 1_555
Ca2 O13 2.372552 1_555
Ca2 O30 2.440282 1_555
Ca2 O20 2.467887 1_555
Ca2 O33 2.474492 1_555
Ca2 O15 2.509586 1_555
Ca2 O24 2.516309 1_555
Ca2 O23 2.547447 1_555
Ca2 O22 2.614594 1_455
Ca3 O18 2.372552 1_555
Ca3 O34 2.440282 1_555
Ca3 O23 2.467887 1_555
Ca3 O27 2.474492 1_565
Ca3 O9 2.509586 1_565
Ca3 O29 2.516309 1_555
Ca3 O20 2.547447 1_565
Ca3 O28 2.614594 1_555
Ca4 O37 2.372552 1_555
Ca4 O21 2.440282 1_555
Ca4 O32 2.467887 1_555
Ca4 O28 2.474492 1_545
Ca4 O46 2.509586 1_545
Ca4 O26 2.516309 1_555
Ca4 O35 2.547447 1_545
Ca4 O27 2.614594 1_555
Ca5 O42 2.372552 1_555
Ca5 O25 2.440282 1_555
Ca5 O35 2.467887 1_555
Ca5 O22 2.474492 1_555
Ca5 O40 2.509586 1_555
Ca5 O31 2.516309 1_555
Ca5 O32 2.547447 1_555
Ca5 O33 2.614594 1_655
Ca6 O36 2.409915 1_555
Ca6 O1 2.452583 1_556
Ca6 O55 2.495476 1_545
Ca6 O39 2.500530 1_455
Ca6 O38 2.508817 1_555
Ca6 O49 2.548959 1_455
Ca6 O51 2.563168 1_555
Ca6 O47 2.577951 1_555
Ca7 O41 2.409915 1_555
Ca7 O5 2.452583 1_556
Ca7 O51 2.495476 1_555
Ca7 O45 2.500530 1_555
Ca7 O43 2.508817 1_555
Ca7 O53 2.548959 1_555
Ca7 O55 2.563168 1_555
Ca7 O52 2.577951 1_555
B0 O1 1.449383 1_655
B0 O3 1.486286 1_555
B0 O49 1.507490 1_554
B0 O0 1.522010 1_555
B1 O1 1.461510 1_555
B1 O9 1.475981 1_555
B1 O16 1.495101 1_545
B1 O11 1.533796 1_545
B2 O5 1.449383 1_555
B2 O8 1.486286 1_555
B2 O53 1.507490 1_554
B2 O4 1.522010 1_555
B3 O5 1.461510 1_555
B3 O15 1.475981 1_555
B3 O10 1.495101 1_555
B3 O7 1.533796 1_555
B4 O12 1.370937 1_555
B4 O14 1.373433 1_555
B4 O21 1.381407 1_555
B5 O22 1.460525 1_555
B5 O17 1.461099 1_555
B5 O14 1.461236 1_555
B5 O13 1.500966 1_655
B6 O17 1.370937 1_555
B6 O19 1.373433 1_555
B6 O25 1.381407 1_555
B7 O28 1.460525 1_555
B7 O12 1.461099 1_565
B7 O19 1.461236 1_555
B7 O18 1.500966 1_555
B8 O24 1.456812 1_655
B8 O22 1.468506 1_555
B8 O32 1.490177 1_555
B8 O21 1.530475 1_555
B9 O26 1.456812 1_555
B9 O27 1.468506 1_555
B9 O20 1.490177 1_555
B9 O30 1.530475 1_555
B10 O29 1.456812 1_555
B10 O28 1.468506 1_555
B10 O35 1.490177 1_555
B10 O25 1.530475 1_555
B11 O31 1.456812 1_455
B11 O33 1.468506 1_555
B11 O23 1.490177 1_555
B11 O34 1.530475 1_555
B12 O27 1.460525 1_555
B12 O43 1.461099 1_545
B12 O36 1.461236 1_555
B12 O37 1.500966 1_555
B13 O38 1.370937 1_555
B13 O36 1.373433 1_555
B13 O30 1.381407 1_555
B14 O33 1.460525 1_555
B14 O38 1.461099 1_555
B14 O41 1.461236 1_555
B14 O42 1.500966 1_455
B15 O43 1.370937 1_555
B15 O41 1.373433 1_555
B15 O34 1.381407 1_555
B16 O50 1.461510 1_555
B16 O40 1.475981 1_555
B16 O45 1.495101 1_555
B16 O48 1.533796 1_555
B17 O50 1.449383 1_555
B17 O47 1.486286 1_555
B17 O2 1.507490 1_556
B17 O51 1.522010 1_555
B18 O54 1.461510 1_555
B18 O46 1.475981 1_555
B18 O39 1.495101 1_565
B18 O44 1.533796 1_565
B19 O54 1.449383 1_455
B19 O52 1.486286 1_555
B19 O6 1.507490 1_556
B19 O55 1.522010 1_555
H0 O51 0.986681 1_554
H1 O55 0.986681 1_554
H2 O10 0.982781 1_555
H3 O9 0.977579 1_555
H4 O16 0.982781 1_555
H5 O15 0.977579 1_555
H6 O20 0.998018 1_555
H7 O23 0.998018 1_555
H8 O26 0.977074 1_555
H9 O24 0.977074 1_555
H10 O31 0.977074 1_555
H11 O29 0.977074 1_555
H12 O32 0.998018 1_555
H13 O35 0.998018 1_555
H14 O40 0.977579 1_555
H15 O39 0.982781 1_555
H16 O46 0.977579 1_555
H17 O45 0.982781 1_555
H18 O0 0.986681 1_556
H19 O4 0.986681 1_556
O2 Si1 1.654653 1_545
O3 Si0 1.641238 1_655
O6 Si0 1.654653 1_555
O7 Si0 1.641402 1_555
O8 Si1 1.641238 1_555
O11 Si1 1.641402 1_555
O13 Si0 1.641612 1_555
O18 Si1 1.641612 1_555
O37 Si2 1.641612 1_555
O42 Si3 1.641612 1_555
O44 Si2 1.641402 1_555
O47 Si2 1.641238 1_555
O48 Si3 1.641402 1_555
O49 Si3 1.654653 1_555
O52 Si3 1.641238 1_455
O53 Si2 1.654653 1_565
