# generated using pymatgen
data_NdFeC6(N3O2)2
_symmetry_space_group_name_H-M   'P 1'
_cell_length_a   8.02607356
_cell_length_b   8.02607356
_cell_length_c   13.83081700
_cell_angle_alpha   90.00000000
_cell_angle_beta   90.00000000
_cell_angle_gamma   119.87611386
_symmetry_Int_Tables_number   1
_chemical_formula_structural   NdFeC6(N3O2)2
_chemical_formula_sum   'Nd2 Fe2 C12 N12 O8'
_cell_volume   772.54812265
_cell_formula_units_Z   2
loop_
 _symmetry_equiv_pos_site_id
 _symmetry_equiv_pos_as_xyz
  1  'x, y, z'
loop_
 _atom_site_type_symbol
 _atom_site_label
 _atom_site_symmetry_multiplicity
 _atom_site_fract_x
 _atom_site_fract_y
 _atom_site_fract_z
 _atom_site_occupancy
  Nd  Nd0  1  0.66372300  0.33627700  0.25000000  1
  Nd  Nd1  1  0.33627700  0.66372300  0.75000000  1
  Fe  Fe0  1  0.00000000  0.00000000  0.50000000  1
  Fe  Fe1  1  0.00000000  0.00000000  0.00000000  1
  C  C0  1  0.24345900  0.14285600  0.40388900  1
  C  C1  1  0.14285600  0.24345900  0.59611100  1
  C  C2  1  0.24345900  0.14285600  0.09611100  1
  C  C3  1  0.14285600  0.24345900  0.90388900  1
  C  C4  1  0.75654100  0.85714400  0.59611100  1
  C  C5  1  0.85714400  0.75654100  0.40388900  1
  C  C6  1  0.75654100  0.85714400  0.90388900  1
  C  C7  1  0.85714400  0.75654100  0.09611100  1
  C  C8  1  0.85982600  0.14017400  0.42832900  1
  C  C9  1  0.14017400  0.85982600  0.57167100  1
  C  C10  1  0.85982600  0.14017400  0.07167100  1
  C  C11  1  0.14017400  0.85982600  0.92832900  1
  N  N0  1  0.38128900  0.21549100  0.35557900  1
  N  N1  1  0.21549100  0.38128900  0.64442100  1
  N  N2  1  0.38128900  0.21549100  0.14442100  1
  N  N3  1  0.21549100  0.38128900  0.85557900  1
  N  N4  1  0.61871100  0.78450900  0.64442100  1
  N  N5  1  0.78450900  0.61871100  0.35557900  1
  N  N6  1  0.61871100  0.78450900  0.85557900  1
  N  N7  1  0.78450900  0.61871100  0.14442100  1
  N  N8  1  0.78974100  0.21025900  0.38107700  1
  N  N9  1  0.21025900  0.78974100  0.61892300  1
  N  N10  1  0.78974100  0.21025900  0.11892300  1
  N  N11  1  0.21025900  0.78974100  0.88107700  1
  O  O0  1  0.42830400  0.82501900  0.25000000  1
  O  O1  1  0.82501900  0.42830400  0.75000000  1
  O  O2  1  0.57169600  0.17498100  0.75000000  1
  O  O3  1  0.17498100  0.57169600  0.25000000  1
  O  O4  1  0.32805200  0.67194800  0.32379000  1
  O  O5  1  0.67194800  0.32805200  0.67621000  1
  O  O6  1  0.32805200  0.67194800  0.17621000  1
  O  O7  1  0.67194800  0.32805200  0.82379000  1
loop_
_geom_bond_atom_site_label_1
_geom_bond_atom_site_label_2
_geom_bond_distance
_geom_bond_site_symmetry_2
C0 N0 1.169431 1_555
C0 Fe0 2.160512 1_555
C1 N1 1.169431 1_555
C1 Fe0 2.160512 1_555
C2 N2 1.169431 1_555
C2 Fe1 2.160512 1_555
C3 N3 1.169431 1_555
C3 Fe1 2.160512 1_556
C4 N4 1.169431 1_555
C4 Fe0 2.160512 1_665
C5 N5 1.169431 1_555
C5 Fe0 2.160512 1_665
C6 N6 1.169431 1_555
C6 Fe1 2.160512 1_666
C7 N7 1.169431 1_555
C7 Fe1 2.160512 1_665
C8 N8 1.172674 1_555
C8 Fe0 2.185191 1_655
C9 N9 1.172674 1_555
C9 Fe0 2.185191 1_565
C10 N10 1.172674 1_555
C10 Fe1 2.185191 1_655
C11 N11 1.172674 1_555
C11 Fe1 2.185191 1_566
N0 Nd0 2.453843 1_555
N1 Nd1 2.453843 1_555
N2 Nd0 2.453843 1_555
N3 Nd1 2.453843 1_555
N4 Nd1 2.453843 1_555
N5 Nd0 2.453843 1_555
N6 Nd1 2.453843 1_555
N7 Nd0 2.453843 1_555
N8 Nd0 2.520268 1_555
N9 Nd1 2.520268 1_555
N10 Nd0 2.520268 1_555
N11 Nd1 2.520268 1_555
O0 O6 1.487794 1_555
O0 O4 1.487794 1_555
O1 O5 1.487794 1_555
O1 O7 1.487794 1_555
O2 O5 1.487794 1_555
O2 O7 1.487794 1_555
O3 O6 1.487794 1_555
O3 O4 1.487794 1_555
