# generated using pymatgen
data_Mn3(OF2)2
_symmetry_space_group_name_H-M   'P 1'
_cell_length_a   4.76196600
_cell_length_b   5.80148300
_cell_length_c   8.00042372
_cell_angle_alpha   86.43084633
_cell_angle_beta   90.00000000
_cell_angle_gamma   90.00000000
_symmetry_Int_Tables_number   1
_chemical_formula_structural   Mn3(OF2)2
_chemical_formula_sum   'Mn6 O4 F8'
_cell_volume   220.59472450
_cell_formula_units_Z   2
loop_
 _symmetry_equiv_pos_site_id
 _symmetry_equiv_pos_as_xyz
  1  'x, y, z'
loop_
 _atom_site_type_symbol
 _atom_site_label
 _atom_site_symmetry_multiplicity
 _atom_site_fract_x
 _atom_site_fract_y
 _atom_site_fract_z
 _atom_site_occupancy
  Mn  Mn0  1  0.49818100  0.57141200  0.64835100  1
  Mn  Mn1  1  0.49008000  0.22857800  0.00108400  1
  Mn  Mn2  1  0.52634100  0.90491400  0.32606700  1
  Mn  Mn3  1  0.99008000  0.77142200  0.99891600  1
  Mn  Mn4  1  0.99818100  0.42858800  0.35164900  1
  Mn  Mn5  1  0.02634100  0.09508600  0.67393300  1
  O  O0  1  0.18848200  0.04351100  0.89449500  1
  O  O1  1  0.19334000  0.38631500  0.56894400  1
  O  O2  1  0.68848200  0.95648900  0.10550500  1
  O  O3  1  0.69334000  0.61368500  0.43105600  1
  F  F0  1  0.19426900  0.71403700  0.22853700  1
  F  F1  1  0.30956600  0.88568600  0.54589300  1
  F  F2  1  0.30510000  0.54578400  0.89565900  1
  F  F3  1  0.29464200  0.21333100  0.24873800  1
  F  F4  1  0.69426900  0.28596300  0.77146300  1
  F  F5  1  0.80510000  0.45421600  0.10434100  1
  F  F6  1  0.80956600  0.11431400  0.45410700  1
  F  F7  1  0.79464200  0.78666900  0.75126200  1
loop_
_geom_bond_atom_site_label_1
_geom_bond_atom_site_label_2
_geom_bond_distance
_geom_bond_site_symmetry_2
Mn0 O1 1.936214 1_555
Mn0 O3 1.973056 1_555
Mn1 O2 1.979410 1_545
Mn1 O0 2.014103 1_554
Mn2 O2 1.932284 1_555
Mn2 O3 2.003961 1_555
Mn3 O0 1.979410 1_665
Mn3 O2 2.014103 1_556
Mn4 O3 1.936214 1_555
Mn4 O1 1.973056 1_655
Mn5 O0 1.932284 1_555
Mn5 O1 2.003961 1_555
F0 Mn3 2.086850 1_454
F0 Mn4 2.093175 1_455
F0 Mn2 2.107901 1_555
F1 Mn2 2.036330 1_555
F1 Mn5 2.121110 1_565
F1 Mn0 2.148680 1_555
F2 Mn1 2.163481 1_556
F2 Mn0 2.178438 1_555
F2 Mn3 2.186549 1_455
F3 Mn4 2.087683 1_455
F3 Mn2 2.159582 1_545
F3 Mn1 2.185828 1_555
F4 Mn1 2.086850 1_556
F4 Mn0 2.093175 1_555
F4 Mn5 2.107901 1_655
F5 Mn3 2.163481 1_554
F5 Mn4 2.178438 1_555
F5 Mn1 2.186549 1_555
F6 Mn5 2.036330 1_655
F6 Mn2 2.121110 1_545
F6 Mn4 2.148680 1_555
F7 Mn0 2.087683 1_555
F7 Mn5 2.159582 1_665
F7 Mn3 2.185828 1_555
