# generated using pymatgen
data_Fe10O9F11
_symmetry_space_group_name_H-M   'P 1'
_cell_length_a   15.50504700
_cell_length_b   4.75466400
_cell_length_c   4.76634039
_cell_angle_alpha   87.82228338
_cell_angle_beta   90.00000000
_cell_angle_gamma   90.00000000
_symmetry_Int_Tables_number   1
_chemical_formula_structural   Fe10O9F11
_chemical_formula_sum   'Fe10 O9 F11'
_cell_volume   351.12697893
_cell_formula_units_Z   1
loop_
 _symmetry_equiv_pos_site_id
 _symmetry_equiv_pos_as_xyz
  1  'x, y, z'
loop_
 _atom_site_type_symbol
 _atom_site_label
 _atom_site_symmetry_multiplicity
 _atom_site_fract_x
 _atom_site_fract_y
 _atom_site_fract_z
 _atom_site_occupancy
  Fe  Fe0  1  0.30286600  0.99443300  0.98574100  1
  Fe  Fe1  1  0.50000000  0.97674300  0.97422200  1
  Fe  Fe2  1  0.69713400  0.99443300  0.98574100  1
  Fe  Fe3  1  0.90898300  0.97146200  0.01185600  1
  Fe  Fe4  1  0.09101700  0.97146200  0.01185600  1
  Fe  Fe5  1  0.38804000  0.52394700  0.52256900  1
  Fe  Fe6  1  0.79766000  0.50243600  0.48052200  1
  Fe  Fe7  1  0.61196000  0.52394700  0.52256900  1
  Fe  Fe8  1  0.00000000  0.54329600  0.50232800  1
  Fe  Fe9  1  0.20234000  0.50243600  0.48052200  1
  O  O0  1  0.40171500  0.81175200  0.80603500  1
  O  O1  1  0.59828500  0.81175200  0.80603500  1
  O  O2  1  0.00000000  0.79831000  0.79951000  1
  O  O3  1  0.29909200  0.70205300  0.29534900  1
  O  O4  1  0.70090800  0.70205300  0.29534900  1
  O  O5  1  0.89689300  0.68556000  0.31502500  1
  O  O6  1  0.10310700  0.68556000  0.31502500  1
  O  O7  1  0.29687300  0.30220900  0.69481400  1
  O  O8  1  0.70312700  0.30220900  0.69481400  1
  F  F0  1  0.79936500  0.80071300  0.80257400  1
  F  F1  1  0.20063500  0.80071300  0.80257400  1
  F  F2  1  0.50000000  0.69560200  0.31168600  1
  F  F3  1  0.50000000  0.31597700  0.69311600  1
  F  F4  1  0.89895700  0.29582200  0.70530400  1
  F  F5  1  0.10104300  0.29582200  0.70530400  1
  F  F6  1  0.40489800  0.19881000  0.19367800  1
  F  F7  1  0.79935000  0.18912400  0.18772700  1
  F  F8  1  0.59510200  0.19881000  0.19367800  1
  F  F9  1  0.20065000  0.18912400  0.18772700  1
  F  F10  1  0.00000000  0.21343100  0.21675400  1
loop_
_geom_bond_atom_site_label_1
_geom_bond_atom_site_label_2
_geom_bond_distance
_geom_bond_site_symmetry_2
Fe0 O0 1.973243 1_555
Fe0 O7 1.979569 1_565
Fe0 O3 1.989414 1_556
Fe1 O1 1.904765 1_555
Fe1 O0 1.904765 1_555
Fe2 O1 1.973243 1_555
Fe2 O8 1.979569 1_565
Fe2 O4 1.989414 1_556
Fe3 O2 1.938308 1_654
Fe3 O5 1.954938 1_555
Fe4 O2 1.938308 1_554
Fe4 O6 1.954938 1_555
Fe5 O7 1.928178 1_555
Fe5 O3 1.929344 1_555
Fe5 O0 1.970657 1_555
Fe6 O5 1.922360 1_555
Fe6 O4 1.966358 1_555
Fe6 O8 2.006004 1_555
Fe7 O8 1.928178 1_555
Fe7 O4 1.929344 1_555
Fe7 O1 1.970657 1_555
Fe8 O2 1.899233 1_555
Fe8 O6 1.940212 1_555
Fe8 O5 1.940212 1_455
Fe9 O6 1.922360 1_555
Fe9 O3 1.966358 1_555
Fe9 O7 2.006004 1_555
F0 Fe2 2.045535 1_555
F0 Fe6 2.129251 1_555
F0 Fe3 2.145793 1_556
F1 Fe0 2.045535 1_555
F1 Fe9 2.129251 1_555
F1 Fe4 2.145793 1_556
F2 Fe1 2.051979 1_554
F2 Fe5 2.151183 1_555
F2 Fe7 2.151183 1_555
F3 Fe1 2.057313 1_545
F3 Fe5 2.142657 1_555
F3 Fe7 2.142657 1_555
F4 Fe3 2.089562 1_546
F4 Fe6 2.121269 1_555
F4 Fe8 2.165282 1_655
F5 Fe4 2.089562 1_546
F5 Fe9 2.121269 1_555
F5 Fe8 2.165282 1_555
F6 Fe1 2.113578 1_544
F6 Fe0 2.121913 1_544
F6 Fe5 2.258262 1_555
F7 Fe6 2.079774 1_555
F7 Fe2 2.088847 1_544
F7 Fe3 2.174670 1_545
F8 Fe1 2.113578 1_544
F8 Fe2 2.121913 1_544
F8 Fe7 2.258262 1_555
F9 Fe9 2.079774 1_555
F9 Fe0 2.088847 1_544
F9 Fe4 2.174670 1_545
F10 Fe4 2.086701 1_545
F10 Fe3 2.086701 1_445
F10 Fe8 2.115378 1_555
