# generated using pymatgen
data_Pr3Sn5Au6
_symmetry_space_group_name_H-M   'P 1'
_cell_length_a   4.57511617
_cell_length_b   10.45776095
_cell_length_c   13.62953753
_cell_angle_alpha   90.00000000
_cell_angle_beta   90.00000000
_cell_angle_gamma   90.00000000
_symmetry_Int_Tables_number   1
_chemical_formula_structural   Pr3Sn5Au6
_chemical_formula_sum   'Pr6 Sn10 Au12'
_cell_volume   652.11164569
_cell_formula_units_Z   2
loop_
 _symmetry_equiv_pos_site_id
 _symmetry_equiv_pos_as_xyz
  1  'x, y, z'
loop_
 _atom_site_type_symbol
 _atom_site_label
 _atom_site_symmetry_multiplicity
 _atom_site_fract_x
 _atom_site_fract_y
 _atom_site_fract_z
 _atom_site_occupancy
  Pr  Pr0  1  -0.00000000  0.74446736  0.81807234  1
  Pr  Pr1  1  0.00000000  0.74446736  0.18192766  1
  Pr  Pr2  1  0.50000000  0.25553264  0.68192766  1
  Pr  Pr3  1  0.50000000  0.25553264  0.31807234  1
  Pr  Pr4  1  0.00000000  0.74396949  0.50000000  1
  Pr  Pr5  1  0.50000000  0.25603051  -0.00000000  1
  Sn  Sn0  1  0.00000000  0.37797566  0.83720986  1
  Sn  Sn1  1  -0.00000000  0.37797566  0.16279014  1
  Sn  Sn2  1  0.50000000  0.62202434  0.66279014  1
  Sn  Sn3  1  0.50000000  0.62202434  0.33720986  1
  Sn  Sn4  1  -0.00000000  0.02268807  0.35955899  1
  Sn  Sn5  1  -0.00000000  0.02268807  0.64044101  1
  Sn  Sn6  1  0.50000000  0.97731193  0.14044101  1
  Sn  Sn7  1  0.50000000  0.97731193  0.85955899  1
  Sn  Sn8  1  -0.00000000  0.27592713  0.50000000  1
  Sn  Sn9  1  0.50000000  0.72407287  -0.00000000  1
  Au  Au0  1  -0.00000000  0.12227843  0.83532496  1
  Au  Au1  1  0.00000000  0.12227843  0.16467504  1
  Au  Au2  1  0.50000000  0.87772157  0.66467504  1
  Au  Au3  1  0.50000000  0.87772157  0.33532496  1
  Au  Au4  1  -0.00000000  0.53727046  -0.00000000  1
  Au  Au5  1  0.50000000  0.46272954  0.50000000  1
  Au  Au6  1  0.00000000  0.47599203  0.35468642  1
  Au  Au7  1  -0.00000000  0.47599203  0.64531358  1
  Au  Au8  1  0.50000000  0.52400797  0.14531358  1
  Au  Au9  1  0.50000000  0.52400797  0.85468642  1
  Au  Au10  1  0.00000000  0.94500015  -0.00000000  1
  Au  Au11  1  0.50000000  0.05499985  0.50000000  1
loop_
_geom_bond_atom_site_label_1
_geom_bond_atom_site_label_2
_geom_bond_distance
_geom_bond_site_symmetry_2
Pr0 Sn2 3.369244 1_455
Pr0 Sn2 3.369244 1_555
Pr0 Sn9 3.380352 1_456
Pr0 Sn9 3.380352 1_556
Pr0 Sn7 3.388515 1_555
Pr0 Sn7 3.388515 1_455
Pr0 Sn5 3.785099 1_565
Pr1 Sn3 3.369244 1_455
Pr1 Sn3 3.369244 1_555
Pr1 Sn9 3.380352 1_555
Pr1 Sn9 3.380352 1_455
Pr1 Sn6 3.388515 1_455
Pr1 Sn6 3.388515 1_555
Pr1 Sn4 3.785099 1_565
Pr2 Sn0 3.369244 1_555
Pr2 Sn0 3.369244 1_655
Pr2 Sn8 3.380352 1_555
Pr2 Sn8 3.380352 1_655
Pr2 Sn5 3.388515 1_555
Pr2 Sn5 3.388515 1_655
Pr2 Sn7 3.785099 1_545
Pr3 Sn1 3.369244 1_555
Pr3 Sn1 3.369244 1_655
Pr3 Sn8 3.380352 1_555
Pr3 Sn8 3.380352 1_655
Pr3 Sn4 3.388515 1_555
Pr3 Sn4 3.388515 1_655
Pr3 Sn6 3.785099 1_545
Pr4 Sn3 3.432508 1_455
Pr4 Sn3 3.432508 1_555
Pr4 Sn2 3.432508 1_455
Pr4 Sn2 3.432508 1_555
Pr4 Sn4 3.487098 1_565
Pr4 Sn5 3.487098 1_565
Pr5 Sn1 3.432508 1_555
Pr5 Sn1 3.432508 1_655
Pr5 Sn0 3.432508 1_554
Pr5 Sn0 3.432508 1_654
Pr5 Sn7 3.487098 1_544
Pr5 Sn6 3.487098 1_545
Sn4 Sn8 3.267647 1_555
Sn5 Sn8 3.267647 1_555
Sn6 Sn9 3.267647 1_555
Sn7 Sn9 3.267647 1_556
Au0 Sn0 2.674144 1_555
Au0 Sn7 2.764118 1_445
Au0 Sn7 2.764118 1_545
Au0 Sn5 2.853066 1_555
Au0 Au10 2.911117 1_546
Au0 Pr2 3.397948 1_555
Au0 Pr2 3.397948 1_455
Au0 Pr5 3.496705 1_456
Au0 Pr5 3.496705 1_556
Au1 Sn1 2.674144 1_555
Au1 Sn6 2.764118 1_445
Au1 Sn6 2.764118 1_545
Au1 Sn4 2.853066 1_555
Au1 Au10 2.911117 1_545
Au1 Pr3 3.397948 1_455
Au1 Pr3 3.397948 1_555
Au1 Pr5 3.496705 1_555
Au1 Pr5 3.496705 1_455
Au2 Sn2 2.674144 1_555
Au2 Sn5 2.764118 1_565
Au2 Sn5 2.764118 1_665
Au2 Sn7 2.853066 1_555
Au2 Pr0 3.397948 1_655
Au2 Pr0 3.397948 1_555
Au2 Pr4 3.496705 1_555
Au2 Pr4 3.496705 1_655
Au3 Sn3 2.674144 1_555
Au3 Sn4 2.764118 1_565
Au3 Sn4 2.764118 1_665
Au3 Sn6 2.853066 1_555
Au3 Pr1 3.397948 1_555
Au3 Pr1 3.397948 1_655
Au3 Pr4 3.496705 1_555
Au3 Pr4 3.496705 1_655
Au4 Sn1 2.774524 1_555
Au4 Sn0 2.774524 1_554
Au4 Sn9 3.008192 1_455
Au4 Sn9 3.008192 1_555
Au4 Au9 3.028987 1_554
Au4 Au9 3.028987 1_454
Au4 Au8 3.028987 1_455
Au4 Au8 3.028987 1_555
Au4 Pr0 3.292940 1_554
Au4 Pr1 3.292940 1_555
Au5 Sn3 2.774524 1_555
Au5 Sn2 2.774524 1_555
Au5 Sn8 3.008192 1_555
Au5 Sn8 3.008192 1_655
Au5 Au6 3.028987 1_555
Au5 Au6 3.028987 1_655
Au5 Au7 3.028987 1_555
Au5 Au7 3.028987 1_655
Au5 Pr3 3.292940 1_555
Au5 Pr2 3.292940 1_555
Au6 Sn3 2.760781 1_455
Au6 Sn3 2.760781 1_555
Au6 Sn1 2.809147 1_555
Au6 Sn8 2.880978 1_555
Au6 Pr3 3.285931 1_555
Au6 Pr3 3.285931 1_455
Au6 Pr4 3.431661 1_555
Au6 Pr1 3.664307 1_555
Au7 Sn2 2.760781 1_555
Au7 Sn2 2.760781 1_455
Au7 Sn0 2.809147 1_555
Au7 Sn8 2.880978 1_555
Au7 Pr2 3.285931 1_555
Au7 Pr2 3.285931 1_455
Au7 Pr4 3.431661 1_555
Au7 Pr0 3.664307 1_555
Au8 Sn1 2.760781 1_655
Au8 Sn1 2.760781 1_555
Au8 Sn3 2.809147 1_555
Au8 Sn9 2.880978 1_555
Au8 Pr1 3.285931 1_555
Au8 Pr1 3.285931 1_655
Au8 Pr5 3.431661 1_555
Au8 Pr3 3.664307 1_555
Au9 Sn0 2.760781 1_555
Au9 Sn0 2.760781 1_655
Au9 Sn2 2.809147 1_555
Au9 Sn9 2.880978 1_556
Au9 Pr0 3.285931 1_555
Au9 Pr0 3.285931 1_655
Au9 Pr5 3.431661 1_556
Au9 Pr2 3.664307 1_555
Au10 Sn6 3.001843 1_455
Au10 Sn7 3.001843 1_554
Au10 Sn6 3.001843 1_555
Au10 Sn7 3.001843 1_454
Au10 Pr0 3.247506 1_554
Au10 Pr1 3.247506 1_555
Au10 Sn9 3.251291 1_455
Au10 Sn9 3.251291 1_555
Au11 Au2 2.911117 1_545
Au11 Au3 2.911117 1_545
Au11 Sn4 3.001843 1_555
Au11 Sn4 3.001843 1_655
Au11 Sn5 3.001843 1_555
Au11 Sn5 3.001843 1_655
Au11 Pr3 3.247506 1_555
Au11 Pr2 3.247506 1_555
Au11 Sn8 3.251291 1_555
Au11 Sn8 3.251291 1_655
