# generated using pymatgen
data_YTa3O9
_symmetry_space_group_name_H-M   'P 1'
_cell_length_a   6.47977200
_cell_length_b   7.65623700
_cell_length_c   12.61622200
_cell_angle_alpha   90.00000000
_cell_angle_beta   90.00000000
_cell_angle_gamma   90.00000000
_symmetry_Int_Tables_number   1
_chemical_formula_structural   YTa3O9
_chemical_formula_sum   'Y4 Ta12 O36'
_cell_volume   625.89922803
_cell_formula_units_Z   4
loop_
 _symmetry_equiv_pos_site_id
 _symmetry_equiv_pos_as_xyz
  1  'x, y, z'
loop_
 _atom_site_type_symbol
 _atom_site_label
 _atom_site_symmetry_multiplicity
 _atom_site_fract_x
 _atom_site_fract_y
 _atom_site_fract_z
 _atom_site_occupancy
  Y  Y0  1  0.05768100  0.25000000  0.46444400  1
  Y  Y1  1  0.44231900  0.75000000  0.96444400  1
  Y  Y2  1  0.55768100  0.25000000  0.03555600  1
  Y  Y3  1  0.94231900  0.75000000  0.53555600  1
  Ta  Ta0  1  0.00000000  0.00000000  0.00000000  1
  Ta  Ta1  1  0.00000000  0.50000000  0.00000000  1
  Ta  Ta2  1  0.20264000  0.00278900  0.71261000  1
  Ta  Ta3  1  0.20264000  0.49721100  0.71261000  1
  Ta  Ta4  1  0.29736000  0.50278900  0.21261000  1
  Ta  Ta5  1  0.29736000  0.99721100  0.21261000  1
  Ta  Ta6  1  0.50000000  0.00000000  0.50000000  1
  Ta  Ta7  1  0.50000000  0.50000000  0.50000000  1
  Ta  Ta8  1  0.70264000  0.00278900  0.78739000  1
  Ta  Ta9  1  0.70264000  0.49721100  0.78739000  1
  Ta  Ta10  1  0.79736000  0.50278900  0.28739000  1
  Ta  Ta11  1  0.79736000  0.99721100  0.28739000  1
  O  O0  1  0.01408400  0.04321600  0.84300100  1
  O  O1  1  0.01408400  0.45678400  0.84300100  1
  O  O2  1  0.07402700  0.75000000  0.97344800  1
  O  O3  1  0.10603700  0.03559600  0.33159200  1
  O  O4  1  0.10603700  0.46440400  0.33159200  1
  O  O5  1  0.16214800  0.25000000  0.67103700  1
  O  O6  1  0.19957700  0.75000000  0.69376600  1
  O  O7  1  0.20454100  0.53119100  0.53637200  1
  O  O8  1  0.20454100  0.96880900  0.53637200  1
  O  O9  1  0.29545900  0.03119100  0.03637200  1
  O  O10  1  0.29545900  0.46880900  0.03637200  1
  O  O11  1  0.30042300  0.25000000  0.19376600  1
  O  O12  1  0.33785200  0.75000000  0.17103700  1
  O  O13  1  0.39396300  0.53559600  0.83159200  1
  O  O14  1  0.39396300  0.96440400  0.83159200  1
  O  O15  1  0.42597300  0.25000000  0.47344800  1
  O  O16  1  0.48591600  0.54321600  0.34300100  1
  O  O17  1  0.48591600  0.95678400  0.34300100  1
  O  O18  1  0.51408400  0.04321600  0.65699900  1
  O  O19  1  0.51408400  0.45678400  0.65699900  1
  O  O20  1  0.57402700  0.75000000  0.52655200  1
  O  O21  1  0.60603700  0.03559600  0.16840800  1
  O  O22  1  0.60603700  0.46440400  0.16840800  1
  O  O23  1  0.66214800  0.25000000  0.82896300  1
  O  O24  1  0.69957700  0.75000000  0.80623400  1
  O  O25  1  0.70454100  0.53119100  0.96362800  1
  O  O26  1  0.70454100  0.96880900  0.96362800  1
  O  O27  1  0.79545900  0.03119100  0.46362800  1
  O  O28  1  0.79545900  0.46880900  0.46362800  1
  O  O29  1  0.80042300  0.25000000  0.30623400  1
  O  O30  1  0.83785200  0.75000000  0.32896300  1
  O  O31  1  0.89396300  0.53559600  0.66840800  1
  O  O32  1  0.89396300  0.96440400  0.66840800  1
  O  O33  1  0.92597300  0.25000000  0.02655200  1
  O  O34  1  0.98591600  0.54321600  0.15699900  1
  O  O35  1  0.98591600  0.95678400  0.15699900  1
loop_
_geom_bond_atom_site_label_1
_geom_bond_atom_site_label_2
_geom_bond_distance
_geom_bond_site_symmetry_2
O0 Ta0 2.010252 1_556
O0 Ta2 2.072380 1_555
O0 Ta8 2.158869 1_455
O1 Ta1 2.010252 1_556
O1 Ta3 2.072380 1_555
O1 Ta9 2.158869 1_455
O2 Ta1 2.001482 1_556
O2 Ta0 2.001482 1_566
O2 Y1 2.389150 1_555
O3 Ta5 1.968910 1_545
O3 Ta11 2.097137 1_445
O3 Y0 2.366870 1_555
O4 Ta4 1.968910 1_555
O4 Ta10 2.097137 1_455
O4 Y0 2.366870 1_555
O5 Ta3 1.981482 1_555
O5 Ta2 1.981482 1_555
O5 Y0 2.692892 1_555
O6 Ta2 1.950060 1_565
O6 Ta3 1.950060 1_555
O6 Y3 2.600551 1_455
O7 Ta7 1.983162 1_555
O7 Ta3 2.238660 1_555
O7 Y3 2.386138 1_455
O7 Y0 2.522675 1_555
O8 Ta6 1.983162 1_565
O8 Ta2 2.238660 1_565
O8 Y3 2.386138 1_455
O8 Y0 2.522675 1_565
O9 Ta0 1.983162 1_555
O9 Ta5 2.238660 1_545
O9 Y2 2.386138 1_555
O9 Y1 2.522675 1_544
O10 Ta1 1.983162 1_555
O10 Ta4 2.238660 1_555
O10 Y2 2.386138 1_555
O10 Y1 2.522675 1_554
O11 Ta5 1.950060 1_545
O11 Ta4 1.950060 1_555
O11 Y2 2.600551 1_555
O12 Ta4 1.981482 1_555
O12 Ta5 1.981482 1_555
O12 Y1 2.692892 1_554
O13 Ta3 1.968910 1_555
O13 Ta9 2.097137 1_555
O13 Y1 2.366870 1_555
O14 Ta2 1.968910 1_565
O14 Ta8 2.097137 1_565
O14 Y1 2.366870 1_555
O15 Ta7 2.001482 1_555
O15 Ta6 2.001482 1_555
O15 Y0 2.389150 1_555
O16 Ta7 2.010252 1_555
O16 Ta4 2.072380 1_555
O16 Ta10 2.158869 1_555
O17 Ta6 2.010252 1_565
O17 Ta5 2.072380 1_555
O17 Ta11 2.158869 1_555
O18 Ta6 2.010252 1_555
O18 Ta8 2.072380 1_555
O18 Ta2 2.158869 1_555
O19 Ta7 2.010252 1_555
O19 Ta9 2.072380 1_555
O19 Ta3 2.158869 1_555
O20 Ta7 2.001482 1_555
O20 Ta6 2.001482 1_565
O20 Y3 2.389150 1_555
O21 Ta11 1.968910 1_545
O21 Ta5 2.097137 1_545
O21 Y2 2.366870 1_555
O22 Ta10 1.968910 1_555
O22 Ta4 2.097137 1_555
O22 Y2 2.366870 1_555
O23 Ta9 1.981482 1_555
O23 Ta8 1.981482 1_555
O23 Y2 2.692892 1_556
O24 Ta8 1.950060 1_565
O24 Ta9 1.950060 1_555
O24 Y1 2.600551 1_555
O25 Ta1 1.983162 1_656
O25 Ta9 2.238660 1_555
O25 Y1 2.386138 1_555
O25 Y2 2.522675 1_556
O26 Ta0 1.983162 1_666
O26 Ta8 2.238660 1_565
O26 Y1 2.386138 1_555
O26 Y2 2.522675 1_566
O27 Ta6 1.983162 1_555
O27 Ta11 2.238660 1_545
O27 Y0 2.386138 1_655
O27 Y3 2.522675 1_545
O28 Ta7 1.983162 1_555
O28 Ta10 2.238660 1_555
O28 Y0 2.386138 1_655
O28 Y3 2.522675 1_555
O29 Ta10 1.950060 1_555
O29 Ta11 1.950060 1_545
O29 Y0 2.600551 1_655
O30 Ta10 1.981482 1_555
O30 Ta11 1.981482 1_555
O30 Y3 2.692892 1_555
O31 Ta9 1.968910 1_555
O31 Ta3 2.097137 1_655
O31 Y3 2.366870 1_555
O32 Ta8 1.968910 1_565
O32 Ta2 2.097137 1_665
O32 Y3 2.366870 1_555
O33 Ta1 2.001482 1_655
O33 Ta0 2.001482 1_655
O33 Y2 2.389150 1_555
O34 Ta1 2.010252 1_655
O34 Ta10 2.072380 1_555
O34 Ta4 2.158869 1_655
O35 Ta0 2.010252 1_665
O35 Ta11 2.072380 1_555
O35 Ta5 2.158869 1_655
