# generated using pymatgen
data_Li5Cr4O8
_symmetry_space_group_name_H-M   'P 1'
_cell_length_a   6.06284016
_cell_length_b   6.06284016
_cell_length_c   9.96338700
_cell_angle_alpha   90.00000000
_cell_angle_beta   90.00000000
_cell_angle_gamma   121.39986085
_symmetry_Int_Tables_number   1
_chemical_formula_structural   Li5Cr4O8
_chemical_formula_sum   'Li10 Cr8 O16'
_cell_volume   312.60020065
_cell_formula_units_Z   2
loop_
 _symmetry_equiv_pos_site_id
 _symmetry_equiv_pos_as_xyz
  1  'x, y, z'
loop_
 _atom_site_type_symbol
 _atom_site_label
 _atom_site_symmetry_multiplicity
 _atom_site_fract_x
 _atom_site_fract_y
 _atom_site_fract_z
 _atom_site_occupancy
  Li  Li0  1  0.11466500  0.32440900  0.06284700  1
  Li  Li1  1  0.67559100  0.88533500  0.06284700  1
  Li  Li2  1  0.70516800  0.29483200  0.05029200  1
  Li  Li3  1  0.81628200  0.18371800  0.27692100  1
  Li  Li4  1  0.51098300  0.48901700  0.98675500  1
  Li  Li5  1  0.29483200  0.70516800  0.55029200  1
  Li  Li6  1  0.48901700  0.51098300  0.48675500  1
  Li  Li7  1  0.32440900  0.11466500  0.56284700  1
  Li  Li8  1  0.18371800  0.81628200  0.77692100  1
  Li  Li9  1  0.88533500  0.67559100  0.56284700  1
  Cr  Cr0  1  0.83806600  0.16193400  0.52641000  1
  Cr  Cr1  1  0.68400900  0.82087000  0.78583200  1
  Cr  Cr2  1  0.16193400  0.83806600  0.02641000  1
  Cr  Cr3  1  0.82087000  0.68400900  0.28583200  1
  Cr  Cr4  1  0.17913000  0.31599100  0.78583200  1
  Cr  Cr5  1  0.31707300  0.68292700  0.28585600  1
  Cr  Cr6  1  0.68292700  0.31707300  0.78585600  1
  Cr  Cr7  1  0.31599100  0.17913000  0.28583200  1
  O  O0  1  0.48239000  0.51761000  0.17545500  1
  O  O1  1  0.16812600  0.35657000  0.40192700  1
  O  O2  1  0.01230200  0.98769800  0.67429400  1
  O  O3  1  0.00601900  0.46837000  0.66776200  1
  O  O4  1  0.84469800  0.15530200  0.90003600  1
  O  O5  1  0.64343000  0.83187400  0.40192700  1
  O  O6  1  0.53163000  0.99398100  0.66776200  1
  O  O7  1  0.35625000  0.64375000  0.89872900  1
  O  O8  1  0.64375000  0.35625000  0.39872900  1
  O  O9  1  0.46837000  0.00601900  0.16776200  1
  O  O10  1  0.99398100  0.53163000  0.16776200  1
  O  O11  1  0.15530200  0.84469800  0.40003600  1
  O  O12  1  0.51761000  0.48239000  0.67545500  1
  O  O13  1  0.35657000  0.16812600  0.90192700  1
  O  O14  1  0.98769800  0.01230200  0.17429400  1
  O  O15  1  0.83187400  0.64343000  0.90192700  1
loop_
_geom_bond_atom_site_label_1
_geom_bond_atom_site_label_2
_geom_bond_distance
_geom_bond_site_symmetry_2
Li0 O14 1.971886 1_455
Li0 O10 2.040668 1_455
Li0 O4 2.147770 1_454
Li0 O0 2.209103 1_555
Li0 O7 2.369111 1_554
Li1 O14 1.971886 1_565
Li1 O9 2.040668 1_565
Li1 O4 2.147770 1_564
Li1 O0 2.209103 1_555
Li1 O7 2.369111 1_554
Li2 O9 1.969152 1_555
Li2 O10 1.969152 1_555
Li2 O4 2.101936 1_554
Li2 O15 2.355911 1_554
Li2 O13 2.355911 1_554
Li3 O14 2.081140 1_555
Li3 O9 2.103536 1_555
Li3 O10 2.103536 1_555
Li3 O8 2.191211 1_555
Li3 O5 2.206915 1_545
Li3 O1 2.206915 1_655
Li4 O7 1.856444 1_555
Li4 O13 1.864911 1_555
Li4 O15 1.864911 1_555
Li4 O0 1.904248 1_556
Li5 O3 1.969152 1_555
Li5 O6 1.969152 1_555
Li5 O11 2.101936 1_555
Li5 O1 2.355911 1_555
Li5 O5 2.355911 1_555
Li6 O8 1.856444 1_555
Li6 O1 1.864911 1_555
Li6 O5 1.864911 1_555
Li6 O12 1.904248 1_555
Li7 O2 1.971886 1_545
Li7 O6 2.040668 1_545
Li7 O11 2.147770 1_545
Li7 O12 2.209103 1_555
Li7 O8 2.369111 1_555
Li8 O2 2.081140 1_555
Li8 O3 2.103536 1_555
Li8 O6 2.103536 1_555
Li8 O7 2.191211 1_555
Li8 O15 2.206915 1_455
Li8 O13 2.206915 1_565
Li9 O2 1.971886 1_655
Li9 O3 2.040668 1_655
Li9 O11 2.147770 1_655
Li9 O12 2.209103 1_555
Li9 O8 2.369111 1_555
Cr0 O5 2.115321 1_545
Cr0 O1 2.115321 1_655
Cr0 O6 2.121485 1_545
Cr0 O3 2.121485 1_655
Cr0 O2 2.359150 1_645
Cr0 O8 2.416702 1_555
Cr1 O2 2.030245 1_655
Cr1 O7 2.035588 1_555
Cr1 O12 2.069107 1_555
Cr1 O4 2.072845 1_565
Cr1 O15 2.074586 1_555
Cr1 O6 2.085489 1_555
Cr2 O13 2.115321 1_564
Cr2 O15 2.115321 1_454
Cr2 O10 2.121485 1_455
Cr2 O9 2.121485 1_565
Cr2 O14 2.359150 1_465
Cr2 O7 2.416702 1_554
Cr3 O14 2.030245 1_565
Cr3 O8 2.035588 1_555
Cr3 O0 2.069107 1_555
Cr3 O11 2.072845 1_655
Cr3 O5 2.074586 1_555
Cr3 O10 2.085489 1_555
Cr4 O2 2.030245 1_545
Cr4 O7 2.035588 1_555
Cr4 O12 2.069107 1_555
Cr4 O4 2.072845 1_455
Cr4 O13 2.074586 1_555
Cr4 O3 2.085489 1_555
Cr5 O10 2.047102 1_455
Cr5 O9 2.047102 1_565
Cr5 O5 2.050869 1_555
Cr5 O1 2.050869 1_555
Cr5 O11 2.054374 1_555
Cr5 O0 2.065405 1_555
Cr6 O3 2.047102 1_655
Cr6 O6 2.047102 1_545
Cr6 O15 2.050869 1_555
Cr6 O13 2.050869 1_555
Cr6 O4 2.054374 1_555
Cr6 O12 2.065405 1_555
Cr7 O14 2.030245 1_455
Cr7 O8 2.035588 1_555
Cr7 O0 2.069107 1_555
Cr7 O11 2.072845 1_545
Cr7 O1 2.074586 1_555
Cr7 O9 2.085489 1_555
