# generated using pymatgen
data_LiV2(PO4)3
_symmetry_space_group_name_H-M   'P 1'
_cell_length_a   8.87455755
_cell_length_b   8.34909651
_cell_length_c   8.33888175
_cell_angle_alpha   119.90199785
_cell_angle_beta   89.74414940
_cell_angle_gamma   62.36031792
_symmetry_Int_Tables_number   1
_chemical_formula_structural   LiV2(PO4)3
_chemical_formula_sum   'Li2 V4 P6 O24'
_cell_volume   451.58420781
_cell_formula_units_Z   2
loop_
 _symmetry_equiv_pos_site_id
 _symmetry_equiv_pos_as_xyz
  1  'x, y, z'
loop_
 _atom_site_type_symbol
 _atom_site_label
 _atom_site_symmetry_multiplicity
 _atom_site_fract_x
 _atom_site_fract_y
 _atom_site_fract_z
 _atom_site_occupancy
  Li  Li0  1  0.13824700  0.94046500  0.25991200  1
  Li  Li1  1  0.86175300  0.05953500  0.74008800  1
  V  V0  1  0.05729500  0.30320200  0.65535600  1
  V  V1  1  0.57062400  0.28237800  0.14695300  1
  V  V2  1  0.42937600  0.71762200  0.85304700  1
  V  V3  1  0.94270500  0.69679800  0.34464400  1
  P  P0  1  0.24823000  0.21884000  0.25257500  1
  P  P1  1  0.25453900  0.49856300  0.96733900  1
  P  P2  1  0.24889900  0.78500600  0.53532500  1
  P  P3  1  0.75110100  0.21499400  0.46467500  1
  P  P4  1  0.74546100  0.50143700  0.03266100  1
  P  P5  1  0.75177000  0.78116000  0.74742500  1
  O  O0  1  0.10584700  0.38917600  0.22080500  1
  O  O1  1  0.19704100  0.29032600  0.46477500  1
  O  O2  1  0.19921800  0.34469900  0.82218000  1
  O  O3  1  0.10239900  0.68657800  0.16734900  1
  O  O4  1  0.08309900  0.76253700  0.53048800  1
  O  O5  1  0.42895700  0.19207500  0.20114900  1
  O  O6  1  0.27934100  0.62301300  0.89298100  1
  O  O7  1  0.42799600  0.36203100  0.99208200  1
  O  O8  1  0.20553100  0.97436200  0.51119100  1
  O  O9  1  0.27119900  0.84518300  0.73664600  1
  O  O10  1  0.41970700  0.57726200  0.37601700  1
  O  O11  1  0.26270200  0.99887400  0.11648400  1
  O  O12  1  0.73729800  0.00112600  0.88351600  1
  O  O13  1  0.58029300  0.42273800  0.62398300  1
  O  O14  1  0.72880100  0.15481700  0.26335400  1
  O  O15  1  0.79446900  0.02563800  0.48880900  1
  O  O16  1  0.57200400  0.63796900  0.00791800  1
  O  O17  1  0.72065900  0.37698700  0.10701900  1
  O  O18  1  0.57104300  0.80792500  0.79885100  1
  O  O19  1  0.91690100  0.23746300  0.46951200  1
  O  O20  1  0.89760100  0.31342200  0.83265100  1
  O  O21  1  0.80078200  0.65530100  0.17781900  1
  O  O22  1  0.80296000  0.70967400  0.53522500  1
  O  O23  1  0.89415300  0.61082400  0.77919500  1
loop_
_geom_bond_atom_site_label_1
_geom_bond_atom_site_label_2
_geom_bond_distance
_geom_bond_site_symmetry_2
Li0 O11 1.989385 1_555
Li0 O3 2.046169 1_555
Li0 O19 2.047223 1_465
Li0 O8 2.098569 1_555
Li1 O12 1.989385 1_555
Li1 O20 2.046169 1_555
Li1 O4 2.047223 1_645
Li1 O15 2.098569 1_555
O0 P0 1.549415 1_555
O0 V3 1.910810 1_455
O1 P0 1.543382 1_555
O1 V0 1.940008 1_555
O2 P1 1.548097 1_555
O2 V0 1.892510 1_555
O3 P1 1.572233 1_554
O3 V3 1.986171 1_455
O4 P2 1.565545 1_555
O4 V3 2.014679 1_455
O5 P0 1.540135 1_555
O5 V1 1.888765 1_555
O6 P1 1.538141 1_555
O6 V2 1.934384 1_555
O7 P1 1.523435 1_555
O7 V1 1.949912 1_556
O8 P2 1.562500 1_555
O8 V0 2.014365 1_565
O9 P2 1.537594 1_555
O9 V2 1.924243 1_555
O10 P2 1.521918 1_555
O10 V1 1.932048 1_555
O11 P0 1.542412 1_565
O11 V2 2.032957 1_554
O12 P5 1.542412 1_545
O12 V1 2.032957 1_556
O13 P3 1.521918 1_555
O13 V2 1.932048 1_555
O14 P3 1.537594 1_555
O14 V1 1.924243 1_555
O15 P3 1.562500 1_555
O15 V3 2.014365 1_545
O16 P4 1.523435 1_555
O16 V2 1.949912 1_554
O17 P4 1.538141 1_555
O17 V1 1.934384 1_555
O18 P5 1.540135 1_555
O18 V2 1.888765 1_555
O19 P3 1.565545 1_555
O19 V0 2.014679 1_655
O20 P4 1.572233 1_556
O20 V0 1.986171 1_655
O21 P4 1.548093 1_555
O21 V3 1.892515 1_555
O22 P5 1.543383 1_555
O22 V3 1.940002 1_555
O23 P5 1.549415 1_555
O23 V0 1.910810 1_655
