# generated using pymatgen
data_Rb4H4C3O10
_symmetry_space_group_name_H-M   'P 1'
_cell_length_a   6.29033300
_cell_length_b   12.46831200
_cell_length_c   15.86052000
_cell_angle_alpha   90.00000000
_cell_angle_beta   90.00000000
_cell_angle_gamma   90.00000000
_symmetry_Int_Tables_number   1
_chemical_formula_structural   Rb4H4C3O10
_chemical_formula_sum   'Rb16 H16 C12 O40'
_cell_volume   1243.93795754
_cell_formula_units_Z   4
loop_
 _symmetry_equiv_pos_site_id
 _symmetry_equiv_pos_as_xyz
  1  'x, y, z'
loop_
 _atom_site_type_symbol
 _atom_site_label
 _atom_site_symmetry_multiplicity
 _atom_site_fract_x
 _atom_site_fract_y
 _atom_site_fract_z
 _atom_site_occupancy
  Rb  Rb0  1  0.18902100  0.12511600  0.62343900  1
  Rb  Rb1  1  0.18902100  0.12511600  0.87656100  1
  Rb  Rb2  1  0.17943000  0.14693400  0.12779800  1
  Rb  Rb3  1  0.17943000  0.14693400  0.37220200  1
  Rb  Rb4  1  0.67943000  0.35306600  0.62779800  1
  Rb  Rb5  1  0.67943000  0.35306600  0.87220200  1
  Rb  Rb6  1  0.68902100  0.37488400  0.37656100  1
  Rb  Rb7  1  0.68902100  0.37488400  0.12343900  1
  Rb  Rb8  1  0.31097900  0.62511600  0.87656100  1
  Rb  Rb9  1  0.31097900  0.62511600  0.62343900  1
  Rb  Rb10  1  0.32057000  0.64693400  0.12779800  1
  Rb  Rb11  1  0.32057000  0.64693400  0.37220200  1
  Rb  Rb12  1  0.82057000  0.85306600  0.87220200  1
  Rb  Rb13  1  0.82057000  0.85306600  0.62779800  1
  Rb  Rb14  1  0.81097900  0.87488400  0.12343900  1
  Rb  Rb15  1  0.81097900  0.87488400  0.37656100  1
  H  H0  1  0.70560600  0.09085900  0.59270500  1
  H  H1  1  0.70560600  0.09085900  0.90729500  1
  H  H2  1  0.62862900  0.15455800  0.19947300  1
  H  H3  1  0.62862900  0.15455800  0.30052700  1
  H  H4  1  0.12862900  0.34544200  0.69947300  1
  H  H5  1  0.12862900  0.34544200  0.80052700  1
  H  H6  1  0.20560600  0.40914100  0.09270500  1
  H  H7  1  0.20560600  0.40914100  0.40729500  1
  H  H8  1  0.79439400  0.59085900  0.90729500  1
  H  H9  1  0.79439400  0.59085900  0.59270500  1
  H  H10  1  0.87137100  0.65455800  0.19947300  1
  H  H11  1  0.87137100  0.65455800  0.30052700  1
  H  H12  1  0.37137100  0.84544200  0.69947300  1
  H  H13  1  0.37137100  0.84544200  0.80052700  1
  H  H14  1  0.29439400  0.90914100  0.09270500  1
  H  H15  1  0.29439400  0.90914100  0.40729500  1
  C  C0  1  0.71970400  0.09442000  0.75000000  1
  C  C1  1  0.66063700  0.12672800  0.02865500  1
  C  C2  1  0.66063700  0.12672800  0.47134500  1
  C  C3  1  0.16063700  0.37327200  0.52865500  1
  C  C4  1  0.16063700  0.37327200  0.97134500  1
  C  C5  1  0.21970400  0.40558000  0.25000000  1
  C  C6  1  0.78029600  0.59442000  0.75000000  1
  C  C7  1  0.83936300  0.62672800  0.02865500  1
  C  C8  1  0.83936300  0.62672800  0.47134500  1
  C  C9  1  0.33936300  0.87327200  0.52865500  1
  C  C10  1  0.33936300  0.87327200  0.97134500  1
  C  C11  1  0.28029600  0.90558000  0.25000000  1
  O  O0  1  0.88010600  0.02965200  0.75000000  1
  O  O1  1  0.75753100  0.06700900  0.53263500  1
  O  O2  1  0.75753100  0.06700900  0.96736500  1
  O  O3  1  0.72121100  0.10529500  0.10397300  1
  O  O4  1  0.72121100  0.10529500  0.39602700  1
  O  O5  1  0.63585800  0.12871100  0.67930000  1
  O  O6  1  0.63585800  0.12871100  0.82070000  1
  O  O7  1  0.56889300  0.19134700  0.25000000  1
  O  O8  1  0.52300100  0.19606000  0.00800200  1
  O  O9  1  0.52300100  0.19606000  0.49199800  1
  O  O10  1  0.02300100  0.30394000  0.50800200  1
  O  O11  1  0.02300100  0.30394000  0.99199800  1
  O  O12  1  0.06889300  0.30865300  0.75000000  1
  O  O13  1  0.13585800  0.37128900  0.17930000  1
  O  O14  1  0.13585800  0.37128900  0.32070000  1
  O  O15  1  0.22121100  0.39470500  0.60397300  1
  O  O16  1  0.22121100  0.39470500  0.89602700  1
  O  O17  1  0.25753100  0.43299100  0.03263500  1
  O  O18  1  0.25753100  0.43299100  0.46736500  1
  O  O19  1  0.38010600  0.47034800  0.25000000  1
  O  O20  1  0.61989400  0.52965200  0.75000000  1
  O  O21  1  0.74246900  0.56700900  0.96736500  1
  O  O22  1  0.74246900  0.56700900  0.53263500  1
  O  O23  1  0.77878900  0.60529500  0.10397300  1
  O  O24  1  0.77878900  0.60529500  0.39602700  1
  O  O25  1  0.86414200  0.62871100  0.82070000  1
  O  O26  1  0.86414200  0.62871100  0.67930000  1
  O  O27  1  0.93110700  0.69134700  0.25000000  1
  O  O28  1  0.97699900  0.69606000  0.00800200  1
  O  O29  1  0.97699900  0.69606000  0.49199800  1
  O  O30  1  0.47699900  0.80394000  0.50800200  1
  O  O31  1  0.47699900  0.80394000  0.99199800  1
  O  O32  1  0.43110700  0.80865300  0.75000000  1
  O  O33  1  0.36414200  0.87128900  0.17930000  1
  O  O34  1  0.36414200  0.87128900  0.32070000  1
  O  O35  1  0.27878900  0.89470500  0.89602700  1
  O  O36  1  0.27878900  0.89470500  0.60397300  1
  O  O37  1  0.24246900  0.93299100  0.03263500  1
  O  O38  1  0.24246900  0.93299100  0.46736500  1
  O  O39  1  0.11989400  0.97034800  0.25000000  1
loop_
_geom_bond_atom_site_label_1
_geom_bond_atom_site_label_2
_geom_bond_distance
_geom_bond_site_symmetry_2
H0 O1 1.050157 1_555
H0 O5 1.517093 1_555
H0 Rb13 3.102137 1_545
H1 O2 1.050157 1_555
H1 O6 1.517093 1_555
H1 Rb12 3.102137 1_545
H2 O7 0.996903 1_555
H2 Rb2 3.047201 1_555
H3 O7 0.996903 1_555
H3 Rb3 3.047201 1_555
H4 O12 0.996903 1_555
H4 Rb4 3.047201 1_455
H5 O12 0.996903 1_555
H5 Rb5 3.047201 1_455
H6 O17 1.050157 1_555
H6 O13 1.517093 1_555
H6 Rb10 3.102137 1_555
H7 O18 1.050157 1_555
H7 O14 1.517093 1_555
H7 Rb11 3.102137 1_555
H8 O21 1.050157 1_555
H8 O25 1.517093 1_555
H8 Rb5 3.102137 1_555
H9 O22 1.050157 1_555
H9 O26 1.517093 1_555
H9 Rb4 3.102137 1_555
H10 O27 0.996903 1_555
H10 Rb10 3.047201 1_655
H11 O27 0.996903 1_555
H11 Rb11 3.047201 1_655
H12 O32 0.996903 1_555
H12 Rb13 3.047201 1_555
H13 O32 0.996903 1_555
H13 Rb12 3.047201 1_555
H14 O37 1.050157 1_555
H14 O33 1.517093 1_555
H14 Rb2 3.102137 1_565
H15 O38 1.050157 1_555
H15 O34 1.517093 1_555
H15 Rb3 3.102137 1_565
C0 O0 1.292354 1_555
C0 O5 1.310867 1_555
C0 O6 1.310867 1_555
C1 O8 1.266550 1_555
C1 O3 1.282040 1_555
C1 O2 1.367797 1_554
C2 O9 1.266550 1_555
C2 O4 1.282040 1_555
C2 O1 1.367797 1_555
C3 O10 1.266550 1_555
C3 O15 1.282040 1_555
C3 O18 1.367797 1_555
C4 O11 1.266550 1_555
C4 O16 1.282040 1_555
C4 O17 1.367797 1_556
C5 O19 1.292354 1_555
C5 O14 1.310867 1_555
C5 O13 1.310867 1_555
C6 O20 1.292354 1_555
C6 O25 1.310867 1_555
C6 O26 1.310867 1_555
C7 O28 1.266550 1_555
C7 O23 1.282040 1_555
C7 O21 1.367797 1_554
C8 O29 1.266550 1_555
C8 O24 1.282040 1_555
C8 O22 1.367797 1_555
C9 O30 1.266550 1_555
C9 O36 1.282040 1_555
C9 O38 1.367797 1_555
C10 O31 1.266550 1_555
C10 O35 1.282040 1_555
C10 O37 1.367797 1_556
C11 O39 1.292354 1_555
C11 O34 1.310867 1_555
C11 O33 1.310867 1_555
O0 Rb12 2.957099 1_545
O0 Rb13 2.957099 1_545
O0 Rb0 3.036782 1_655
O0 Rb1 3.036782 1_655
O1 Rb13 3.090458 1_545
O2 Rb12 3.090458 1_545
O3 Rb14 2.944038 1_545
O3 Rb2 2.953010 1_655
O4 Rb15 2.944038 1_545
O4 Rb3 2.953010 1_655
O5 Rb4 2.927013 1_555
O5 Rb0 2.947425 1_555
O6 Rb5 2.927013 1_555
O6 Rb1 2.947425 1_555
O7 Rb3 3.172537 1_555
O7 Rb2 3.172537 1_555
O8 Rb2 2.942102 1_555
O8 Rb7 3.068230 1_555
O8 Rb5 3.072384 1_554
O8 Rb1 3.089021 1_554
O9 Rb3 2.942102 1_555
O9 Rb6 3.068230 1_555
O9 Rb4 3.072384 1_555
O9 Rb0 3.089021 1_555
O10 Rb4 2.942102 1_455
O10 Rb0 3.068230 1_555
O10 Rb3 3.072384 1_555
O10 Rb6 3.089021 1_455
O11 Rb5 2.942102 1_455
O11 Rb1 3.068230 1_555
O11 Rb2 3.072384 1_556
O11 Rb7 3.089021 1_456
O12 Rb5 3.172537 1_455
O12 Rb4 3.172537 1_455
O13 Rb2 2.927013 1_555
O13 Rb7 2.947425 1_455
O14 Rb3 2.927013 1_555
O14 Rb6 2.947425 1_455
O15 Rb9 2.944038 1_555
O15 Rb4 2.953010 1_555
O16 Rb8 2.944038 1_555
O16 Rb5 2.953010 1_555
O17 Rb10 3.090458 1_555
O18 Rb11 3.090458 1_555
O19 Rb11 2.957099 1_555
O19 Rb10 2.957099 1_555
O19 Rb6 3.036782 1_555
O19 Rb7 3.036782 1_555
O20 Rb5 2.957099 1_555
O20 Rb4 2.957099 1_555
O20 Rb9 3.036782 1_555
O20 Rb8 3.036782 1_555
O21 Rb5 3.090458 1_555
O22 Rb4 3.090458 1_555
O23 Rb7 2.944038 1_555
O23 Rb10 2.953010 1_555
O24 Rb6 2.944038 1_555
O24 Rb11 2.953010 1_555
O25 Rb12 2.927013 1_555
O25 Rb8 2.947425 1_655
O26 Rb13 2.927013 1_555
O26 Rb9 2.947425 1_655
O27 Rb10 3.172537 1_655
O27 Rb11 3.172537 1_655
O28 Rb10 2.942102 1_655
O28 Rb14 3.068230 1_555
O28 Rb12 3.072384 1_554
O28 Rb8 3.089021 1_654
O29 Rb11 2.942102 1_655
O29 Rb15 3.068230 1_555
O29 Rb13 3.072384 1_555
O29 Rb9 3.089021 1_655
O30 Rb13 2.942102 1_555
O30 Rb9 3.068230 1_555
O30 Rb11 3.072384 1_555
O30 Rb15 3.089021 1_555
O31 Rb12 2.942102 1_555
O31 Rb8 3.068230 1_555
O31 Rb10 3.072384 1_556
O31 Rb14 3.089021 1_556
O32 Rb13 3.172537 1_555
O32 Rb12 3.172537 1_555
O33 Rb10 2.927013 1_555
O33 Rb14 2.947425 1_555
O34 Rb11 2.927013 1_555
O34 Rb15 2.947425 1_555
O35 Rb1 2.944038 1_565
O35 Rb12 2.953010 1_455
O36 Rb0 2.944038 1_565
O36 Rb13 2.953010 1_455
O37 Rb2 3.090458 1_565
O38 Rb3 3.090458 1_565
O39 Rb3 2.957099 1_565
O39 Rb2 2.957099 1_565
O39 Rb14 3.036782 1_455
O39 Rb15 3.036782 1_455
