# generated using pymatgen
data_Al2H16S3O20
_symmetry_space_group_name_H-M   'P 1'
_cell_length_a   22.16769900
_cell_length_b   7.40073700
_cell_length_c   9.66053081
_cell_angle_alpha   88.54639644
_cell_angle_beta   90.00000000
_cell_angle_gamma   90.00000000
_symmetry_Int_Tables_number   1
_chemical_formula_structural   Al2H16S3O20
_chemical_formula_sum   'Al8 H64 S12 O80'
_cell_volume   1584.37067673
_cell_formula_units_Z   4
loop_
 _symmetry_equiv_pos_site_id
 _symmetry_equiv_pos_as_xyz
  1  'x, y, z'
loop_
 _atom_site_type_symbol
 _atom_site_label
 _atom_site_symmetry_multiplicity
 _atom_site_fract_x
 _atom_site_fract_y
 _atom_site_fract_z
 _atom_site_occupancy
  Al  Al0  1  0.85150400  0.80591500  0.95170500  1
  Al  Al1  1  0.64849600  0.80591500  0.45170500  1
  Al  Al2  1  0.39665400  0.77497700  0.99781300  1
  Al  Al3  1  0.10334600  0.77497700  0.49781300  1
  Al  Al4  1  0.89665400  0.22502300  0.50218700  1
  Al  Al5  1  0.60334600  0.22502300  0.00218700  1
  Al  Al6  1  0.35150400  0.19408500  0.54829500  1
  Al  Al7  1  0.14849600  0.19408500  0.04829500  1
  H  H0  1  0.26136400  0.98470800  0.60793800  1
  H  H1  1  0.04415600  0.00181900  0.64607000  1
  H  H2  1  0.23863600  0.98470800  0.10793800  1
  H  H3  1  0.45584400  0.00181900  0.14607000  1
  H  H4  1  0.42128700  0.91051300  0.54033900  1
  H  H5  1  0.13970700  0.87831700  0.95169000  1
  H  H6  1  0.07871300  0.91051300  0.04033900  1
  H  H7  1  0.36029300  0.87831700  0.45169000  1
  H  H8  1  0.73831200  0.85034700  0.99688300  1
  H  H9  1  0.76168800  0.85034700  0.49688300  1
  H  H10  1  0.99725200  0.84401200  0.59950700  1
  H  H11  1  0.50274800  0.84401200  0.09950700  1
  H  H12  1  0.61417000  0.77116400  0.69950900  1
  H  H13  1  0.96653200  0.73725400  0.99041600  1
  H  H14  1  0.88583000  0.77116400  0.19950900  1
  H  H15  1  0.53346800  0.73725400  0.49041600  1
  H  H16  1  0.30655800  0.72108100  0.83018200  1
  H  H17  1  0.19344200  0.72108100  0.33018200  1
  H  H18  1  0.67553300  0.64937700  0.69521400  1
  H  H19  1  0.82446700  0.64937700  0.19521400  1
  H  H20  1  0.94484900  0.62339300  0.85847400  1
  H  H21  1  0.55515100  0.62339300  0.35847400  1
  H  H22  1  0.77758400  0.55563600  0.86168200  1
  H  H23  1  0.32528800  0.52783300  0.90743600  1
  H  H24  1  0.72241600  0.55563600  0.36168200  1
  H  H25  1  0.17471200  0.52783300  0.40743600  1
  H  H26  1  0.93047500  0.56076900  0.51793700  1
  H  H27  1  0.04382600  0.52402700  0.62564500  1
  H  H28  1  0.56952500  0.56076900  0.01793700  1
  H  H29  1  0.45617400  0.52402700  0.12564500  1
  H  H30  1  0.82039200  0.47213500  0.98135400  1
  H  H31  1  0.32039200  0.52786500  0.51864600  1
  H  H32  1  0.67960800  0.47213500  0.48135400  1
  H  H33  1  0.17960800  0.52786500  0.01864600  1
  H  H34  1  0.54382600  0.47597300  0.87435500  1
  H  H35  1  0.43047500  0.43923100  0.98206300  1
  H  H36  1  0.95617400  0.47597300  0.37435500  1
  H  H37  1  0.06952500  0.43923100  0.48206300  1
  H  H38  1  0.82528800  0.47216700  0.59256400  1
  H  H39  1  0.27758400  0.44436400  0.63831800  1
  H  H40  1  0.67471200  0.47216700  0.09256400  1
  H  H41  1  0.22241600  0.44436400  0.13831800  1
  H  H42  1  0.44484900  0.37660700  0.64152600  1
  H  H43  1  0.05515100  0.37660700  0.14152600  1
  H  H44  1  0.17553300  0.35062300  0.80478600  1
  H  H45  1  0.32446700  0.35062300  0.30478600  1
  H  H46  1  0.80655800  0.27891900  0.66981800  1
  H  H47  1  0.69344200  0.27891900  0.16981800  1
  H  H48  1  0.46653200  0.26274600  0.50958400  1
  H  H49  1  0.11417000  0.22883600  0.80049100  1
  H  H50  1  0.03346800  0.26274600  0.00958400  1
  H  H51  1  0.38583000  0.22883600  0.30049100  1
  H  H52  1  0.49725200  0.15598800  0.90049300  1
  H  H53  1  0.00274800  0.15598800  0.40049300  1
  H  H54  1  0.23831200  0.14965300  0.50311700  1
  H  H55  1  0.26168800  0.14965300  0.00311700  1
  H  H56  1  0.63970700  0.12168300  0.54831000  1
  H  H57  1  0.92128700  0.08948700  0.95966100  1
  H  H58  1  0.86029300  0.12168300  0.04831000  1
  H  H59  1  0.57871300  0.08948700  0.45966100  1
  H  H60  1  0.54415600  0.99818100  0.85393000  1
  H  H61  1  0.76136400  0.01529200  0.89206200  1
  H  H62  1  0.95584400  0.99818100  0.35393000  1
  H  H63  1  0.73863600  0.01529200  0.39206200  1
  S  S0  1  0.86429800  0.83177100  0.61981900  1
  S  S1  1  0.63570200  0.83177100  0.11981900  1
  S  S2  1  0.48948400  0.73123200  0.73784100  1
  S  S3  1  0.01051600  0.73123200  0.23784100  1
  S  S4  1  0.19776400  0.69300400  0.75195000  1
  S  S5  1  0.30223600  0.69300400  0.25195000  1
  S  S6  1  0.69776400  0.30699600  0.74805000  1
  S  S7  1  0.80223600  0.30699600  0.24805000  1
  S  S8  1  0.98948400  0.26876800  0.76215900  1
  S  S9  1  0.51051600  0.26876800  0.26215900  1
  S  S10  1  0.36429800  0.16822900  0.88018100  1
  S  S11  1  0.13570200  0.16822900  0.38018100  1
  O  O0  1  0.35923300  0.99972200  0.96782000  1
  O  O1  1  0.14076700  0.99972200  0.46782000  1
  O  O2  1  0.11372400  0.97322400  0.99394600  1
  O  O3  1  0.38627600  0.97322400  0.49394600  1
  O  O4  1  0.77377300  0.91639100  0.95828000  1
  O  O5  1  0.72622700  0.91639100  0.45828000  1
  O  O6  1  0.85317200  0.88454000  0.76497800  1
  O  O7  1  0.04009000  0.88180200  0.59927800  1
  O  O8  1  0.64682800  0.88454000  0.26497800  1
  O  O9  1  0.45991000  0.88180200  0.09927800  1
  O  O10  1  0.44004600  0.80666800  0.82460700  1
  O  O11  1  0.25226200  0.80611500  0.72504100  1
  O  O12  1  0.54837600  0.80471600  0.78682000  1
  O  O13  1  0.05995400  0.80666800  0.32460700  1
  O  O14  1  0.24773800  0.80611500  0.22504100  1
  O  O15  1  0.47853400  0.79255100  0.59194500  1
  O  O16  1  0.95162400  0.80471600  0.28682000  1
  O  O17  1  0.02146600  0.79255100  0.09194500  1
  O  O18  1  0.14645500  0.76416400  0.66811000  1
  O  O19  1  0.92490500  0.74915800  0.60715800  1
  O  O20  1  0.35354500  0.76416400  0.16811000  1
  O  O21  1  0.65133400  0.74638800  0.64474300  1
  O  O22  1  0.57509500  0.74915800  0.10715800  1
  O  O23  1  0.84866600  0.74638800  0.14474300  1
  O  O24  1  0.93054500  0.70169700  0.93333700  1
  O  O25  1  0.17932000  0.69974400  0.90015900  1
  O  O26  1  0.81681300  0.70745000  0.57251700  1
  O  O27  1  0.56945500  0.70169700  0.43333700  1
  O  O28  1  0.32068000  0.69974400  0.40015900  1
  O  O29  1  0.68318700  0.70745000  0.07251700  1
  O  O30  1  0.33402800  0.65937100  0.89943800  1
  O  O31  1  0.16597200  0.65937100  0.39943800  1
  O  O32  1  0.81670800  0.57430400  0.91166000  1
  O  O33  1  0.68329200  0.57430400  0.41166000  1
  O  O34  1  0.06760200  0.54970300  0.53940700  1
  O  O35  1  0.49143900  0.53105200  0.74825800  1
  O  O36  1  0.43239800  0.54970300  0.03940700  1
  O  O37  1  0.00856100  0.53105200  0.24825800  1
  O  O38  1  0.21183000  0.50162300  0.71750000  1
  O  O39  1  0.71183000  0.49837700  0.78250000  1
  O  O40  1  0.28817000  0.50162300  0.21750000  1
  O  O41  1  0.78817000  0.49837700  0.28250000  1
  O  O42  1  0.99143900  0.46894800  0.75174200  1
  O  O43  1  0.56760200  0.45029700  0.96059300  1
  O  O44  1  0.50856100  0.46894800  0.25174200  1
  O  O45  1  0.93239800  0.45029700  0.46059300  1
  O  O46  1  0.31670800  0.42569600  0.58834000  1
  O  O47  1  0.18329200  0.42569600  0.08834000  1
  O  O48  1  0.83402800  0.34062900  0.60056200  1
  O  O49  1  0.66597200  0.34062900  0.10056200  1
  O  O50  1  0.31681300  0.29255000  0.92748300  1
  O  O51  1  0.67932000  0.30025600  0.59984100  1
  O  O52  1  0.43054500  0.29830300  0.56666300  1
  O  O53  1  0.18318700  0.29255000  0.42748300  1
  O  O54  1  0.82068000  0.30025600  0.09984100  1
  O  O55  1  0.06945500  0.29830300  0.06666300  1
  O  O56  1  0.15133400  0.25361200  0.85525700  1
  O  O57  1  0.42490500  0.25084200  0.89284200  1
  O  O58  1  0.34866600  0.25361200  0.35525700  1
  O  O59  1  0.64645500  0.23583600  0.83189000  1
  O  O60  1  0.07509500  0.25084200  0.39284200  1
  O  O61  1  0.85354500  0.23583600  0.33189000  1
  O  O62  1  0.97853400  0.20744900  0.90805500  1
  O  O63  1  0.04837600  0.19528400  0.71318000  1
  O  O64  1  0.52146600  0.20744900  0.40805500  1
  O  O65  1  0.75226100  0.19388500  0.77495900  1
  O  O66  1  0.94004600  0.19333200  0.67539300  1
  O  O67  1  0.45162400  0.19528400  0.21318000  1
  O  O68  1  0.74773800  0.19388500  0.27495900  1
  O  O69  1  0.55995400  0.19333200  0.17539300  1
  O  O70  1  0.54009000  0.11819800  0.90072200  1
  O  O71  1  0.35317200  0.11546000  0.73502200  1
  O  O72  1  0.95991000  0.11819800  0.40072200  1
  O  O73  1  0.14682800  0.11546000  0.23502200  1
  O  O74  1  0.27377300  0.08360900  0.54172000  1
  O  O75  1  0.22622700  0.08360900  0.04172000  1
  O  O76  1  0.61372400  0.02677600  0.50605400  1
  O  O77  1  0.88627600  0.02677600  0.00605400  1
  O  O78  1  0.85923300  0.00027800  0.53218000  1
  O  O79  1  0.64076700  0.00027800  0.03218000  1
loop_
_geom_bond_atom_site_label_1
_geom_bond_atom_site_label_2
_geom_bond_distance
_geom_bond_site_symmetry_2
Al0 O6 1.881672 1_555
Al0 O77 1.893427 1_566
Al0 O23 1.906310 1_556
Al0 O4 1.908999 1_555
Al0 O24 1.924415 1_555
Al0 O32 1.927794 1_555
Al1 O8 1.881672 1_555
Al1 O76 1.893427 1_565
Al1 O21 1.906310 1_555
Al1 O5 1.908999 1_555
Al1 O27 1.924415 1_555
Al1 O33 1.927794 1_555
Al2 O0 1.874602 1_555
Al2 O36 1.880118 1_556
Al2 O9 1.895104 1_556
Al2 O30 1.898350 1_555
Al2 O20 1.902498 1_556
Al2 O10 1.939112 1_555
Al3 O1 1.874602 1_555
Al3 O34 1.880118 1_555
Al3 O7 1.895104 1_555
Al3 O31 1.898350 1_555
Al3 O18 1.902498 1_555
Al3 O13 1.939112 1_555
Al4 O78 1.874602 1_555
Al4 O45 1.880118 1_555
Al4 O72 1.895104 1_555
Al4 O48 1.898350 1_555
Al4 O61 1.902498 1_555
Al4 O66 1.939112 1_555
Al5 O79 1.874602 1_555
Al5 O43 1.880118 1_554
Al5 O70 1.895104 1_554
Al5 O49 1.898350 1_555
Al5 O59 1.902498 1_554
Al5 O69 1.939112 1_555
Al6 O71 1.881672 1_555
Al6 O3 1.893427 1_545
Al6 O58 1.906310 1_555
Al6 O74 1.908999 1_555
Al6 O52 1.924415 1_555
Al6 O46 1.927794 1_555
Al7 O73 1.881672 1_555
Al7 O2 1.893427 1_544
Al7 O56 1.906310 1_554
Al7 O75 1.908999 1_555
Al7 O55 1.924415 1_555
Al7 O47 1.927794 1_555
H0 O74 0.998432 1_565
H0 O11 1.729619 1_555
H1 O7 1.010819 1_545
H1 O63 1.589392 1_555
H2 O75 0.998432 1_565
H2 O14 1.729619 1_555
H3 O9 1.010819 1_545
H3 O67 1.589392 1_555
H4 O3 1.004022 1_555
H4 O15 1.612157 1_555
H5 O2 1.003137 1_555
H5 O25 1.672980 1_555
H6 O2 1.004022 1_554
H6 O17 1.612157 1_555
H7 O3 1.003137 1_555
H7 O28 1.672980 1_555
H8 O4 0.993308 1_555
H9 O5 0.993308 1_555
H10 O7 0.989934 1_655
H10 O19 1.751481 1_555
H11 O9 0.989934 1_555
H11 O22 1.751481 1_555
H12 O21 0.998584 1_555
H12 O12 1.706152 1_555
H13 O24 1.008498 1_555
H13 O17 1.622590 1_656
H14 O23 0.998584 1_555
H14 O16 1.706152 1_555
H15 O27 1.008498 1_555
H15 O15 1.622590 1_555
H16 O30 1.005741 1_555
H16 O11 1.686412 1_555
H17 O31 1.005741 1_555
H17 O14 1.686412 1_555
H18 O21 1.011529 1_555
H18 O39 1.599835 1_555
H19 O23 1.011529 1_555
H19 O41 1.599835 1_555
H20 O24 0.990292 1_555
H21 O27 0.990292 1_555
H22 O32 1.003878 1_555
H22 O39 1.704638 1_555
H23 O30 0.993655 1_555
H24 O33 1.003878 1_555
H24 O41 1.704638 1_555
H25 O31 0.993655 1_555
H26 O45 1.000055 1_555
H26 O19 1.662217 1_555
H27 O34 0.999966 1_555
H28 O43 1.000055 1_554
H28 O22 1.662217 1_555
H29 O36 0.999966 1_555
H30 O32 1.002933 1_555
H30 O54 1.689512 1_556
H31 O46 1.002933 1_555
H31 O28 1.689512 1_555
H32 O33 1.002933 1_555
H32 O51 1.689512 1_555
H33 O47 1.002933 1_555
H33 O25 1.689512 1_554
H34 O43 0.999966 1_555
H35 O36 1.000055 1_556
H35 O57 1.662217 1_555
H36 O45 0.999966 1_555
H37 O34 1.000055 1_555
H37 O60 1.662217 1_555
H38 O48 0.993655 1_555
H39 O46 1.003878 1_555
H39 O38 1.704638 1_555
H40 O49 0.993655 1_555
H41 O47 1.003878 1_555
H41 O40 1.704638 1_555
H42 O52 0.990292 1_555
H43 O55 0.990292 1_555
H44 O56 1.011529 1_555
H44 O38 1.599835 1_555
H45 O58 1.011529 1_555
H45 O40 1.599835 1_555
H46 O48 1.005741 1_555
H46 O65 1.686427 1_555
H47 O49 1.005741 1_555
H47 O68 1.686412 1_555
H48 O52 1.008498 1_555
H48 O64 1.622590 1_555
H49 O56 0.998584 1_555
H49 O63 1.706152 1_555
H50 O55 1.008498 1_555
H50 O62 1.622590 1_454
H51 O58 0.998584 1_555
H51 O67 1.706152 1_555
H52 O70 0.989934 1_555
H52 O57 1.751481 1_555
H53 O72 0.989934 1_455
H53 O60 1.751481 1_555
H54 O74 0.993308 1_555
H55 O75 0.993308 1_555
H56 O76 1.003137 1_555
H56 O51 1.672980 1_555
H57 O77 1.004022 1_556
H57 O62 1.612157 1_555
H58 O77 1.003137 1_555
H58 O54 1.672980 1_555
H59 O76 1.004022 1_555
H59 O64 1.612157 1_555
H60 O70 1.010819 1_565
H60 O12 1.589392 1_555
H61 O4 0.998432 1_545
H61 O65 1.729622 1_555
H62 O72 1.010819 1_565
H62 O16 1.589392 1_555
H63 O5 0.998432 1_545
H63 O68 1.729619 1_555
O0 S10 1.493665 1_565
O1 S11 1.493665 1_565
O6 S0 1.485803 1_555
O8 S1 1.485803 1_555
O10 S2 1.496350 1_555
O11 S4 1.488884 1_555
O12 S2 1.495669 1_555
O13 S3 1.496350 1_555
O14 S5 1.488884 1_555
O15 S2 1.489601 1_555
O16 S3 1.495669 1_655
O17 S3 1.489601 1_555
O18 S4 1.485056 1_555
O19 S0 1.482431 1_555
O20 S5 1.485056 1_555
O22 S1 1.482431 1_555
O25 S4 1.491062 1_555
O26 S0 1.478075 1_555
O28 S5 1.491062 1_555
O29 S1 1.478075 1_555
O35 S2 1.482978 1_555
O37 S3 1.482978 1_555
O38 S4 1.495987 1_555
O39 S6 1.495987 1_555
O40 S5 1.495987 1_555
O41 S7 1.495987 1_555
O42 S8 1.482978 1_555
O44 S9 1.482978 1_555
O50 S10 1.478075 1_555
O51 S6 1.491062 1_555
O53 S11 1.478075 1_555
O54 S7 1.491062 1_555
O57 S10 1.482431 1_555
O59 S6 1.485056 1_555
O60 S11 1.482431 1_555
O61 S7 1.485056 1_555
O62 S8 1.489601 1_555
O63 S8 1.495669 1_455
O64 S9 1.489601 1_555
O65 S6 1.488866 1_555
O66 S8 1.496350 1_555
O67 S9 1.495669 1_555
O68 S7 1.488884 1_555
O69 S9 1.496350 1_555
O71 S10 1.485803 1_555
O73 S11 1.485803 1_555
O78 S0 1.493665 1_545
O79 S1 1.493665 1_545
