# generated using pymatgen
data_Zn3(PO6)2
_symmetry_space_group_name_H-M   'P 1'
_cell_length_a   4.90214600
_cell_length_b   10.47271600
_cell_length_c   17.07675000
_cell_angle_alpha   90.00000000
_cell_angle_beta   90.00000000
_cell_angle_gamma   90.00000000
_symmetry_Int_Tables_number   1
_chemical_formula_structural   Zn3(PO6)2
_chemical_formula_sum   'Zn12 P8 O48'
_cell_volume   876.69956001
_cell_formula_units_Z   4
loop_
 _symmetry_equiv_pos_site_id
 _symmetry_equiv_pos_as_xyz
  1  'x, y, z'
loop_
 _atom_site_type_symbol
 _atom_site_label
 _atom_site_symmetry_multiplicity
 _atom_site_fract_x
 _atom_site_fract_y
 _atom_site_fract_z
 _atom_site_occupancy
  Zn  Zn0  1  0.49839100  0.52713000  0.25000000  1
  Zn  Zn1  1  0.00160900  0.02713000  0.25000000  1
  Zn  Zn2  1  0.50160900  0.47287000  0.75000000  1
  Zn  Zn3  1  0.99839100  0.97287000  0.75000000  1
  Zn  Zn4  1  0.99784600  0.74459700  0.15422800  1
  Zn  Zn5  1  0.50215400  0.24459700  0.34577200  1
  Zn  Zn6  1  0.00215400  0.25540300  0.65422800  1
  Zn  Zn7  1  0.49784600  0.75540300  0.84577200  1
  Zn  Zn8  1  0.00215400  0.25540300  0.84577200  1
  Zn  Zn9  1  0.49784600  0.75540300  0.65422800  1
  Zn  Zn10  1  0.99784600  0.74459700  0.34577200  1
  Zn  Zn11  1  0.50215400  0.24459700  0.15422800  1
  P  P0  1  0.25021900  0.59533800  0.00004500  1
  P  P1  1  0.24978100  0.09533800  0.49995500  1
  P  P2  1  0.74978100  0.40466200  0.50004500  1
  P  P3  1  0.75021900  0.90466200  0.99995500  1
  P  P4  1  0.74978100  0.40466200  0.99995500  1
  P  P5  1  0.75021900  0.90466200  0.50004500  1
  P  P6  1  0.25021900  0.59533800  0.49995500  1
  P  P7  1  0.24978100  0.09533800  0.00004500  1
  O  O0  1  0.50000000  0.50000000  0.00000000  1
  O  O1  1  0.00000000  0.00000000  0.50000000  1
  O  O2  1  0.50000000  0.50000000  0.50000000  1
  O  O3  1  0.00000000  0.00000000  0.00000000  1
  O  O4  1  0.00000000  0.50000000  0.00000000  1
  O  O5  1  0.50000000  0.00000000  0.50000000  1
  O  O6  1  0.00000000  0.50000000  0.50000000  1
  O  O7  1  0.50000000  0.00000000  0.00000000  1
  O  O8  1  0.25369600  0.66840000  0.07567500  1
  O  O9  1  0.24630400  0.16840000  0.42432500  1
  O  O10  1  0.74630400  0.33160000  0.57567500  1
  O  O11  1  0.75369600  0.83160000  0.92432500  1
  O  O12  1  0.74630400  0.33160000  0.92432500  1
  O  O13  1  0.75369600  0.83160000  0.57567500  1
  O  O14  1  0.25369600  0.66840000  0.42432500  1
  O  O15  1  0.24630400  0.16840000  0.07567500  1
  O  O16  1  0.74879700  0.83021000  0.07513100  1
  O  O17  1  0.75120300  0.33021000  0.42486900  1
  O  O18  1  0.25120300  0.16979000  0.57513100  1
  O  O19  1  0.24879700  0.66979000  0.92486900  1
  O  O20  1  0.25120300  0.16979000  0.92486900  1
  O  O21  1  0.24879700  0.66979000  0.57513100  1
  O  O22  1  0.74879700  0.83021000  0.42486900  1
  O  O23  1  0.75120300  0.33021000  0.07513100  1
  O  O24  1  0.20932500  0.66128400  0.25000000  1
  O  O25  1  0.29067500  0.16128400  0.25000000  1
  O  O26  1  0.79067500  0.33871600  0.75000000  1
  O  O27  1  0.70932500  0.83871600  0.75000000  1
  O  O28  1  0.81754000  0.83774400  0.25000000  1
  O  O29  1  0.68246000  0.33774400  0.25000000  1
  O  O30  1  0.18246000  0.16225600  0.75000000  1
  O  O31  1  0.31754000  0.66225600  0.75000000  1
  O  O32  1  0.77311000  0.59090200  0.17680900  1
  O  O33  1  0.72689000  0.09090200  0.32319100  1
  O  O34  1  0.22689000  0.40909800  0.67680900  1
  O  O35  1  0.27311000  0.90909800  0.82319100  1
  O  O36  1  0.22689000  0.40909800  0.82319100  1
  O  O37  1  0.27311000  0.90909800  0.67680900  1
  O  O38  1  0.77311000  0.59090200  0.32319100  1
  O  O39  1  0.72689000  0.09090200  0.17680900  1
  O  O40  1  0.21515800  0.90245700  0.18418600  1
  O  O41  1  0.28484200  0.40245700  0.31581400  1
  O  O42  1  0.78484200  0.09754300  0.68418600  1
  O  O43  1  0.71515800  0.59754300  0.81581400  1
  O  O44  1  0.78484200  0.09754300  0.81581400  1
  O  O45  1  0.71515800  0.59754300  0.68418600  1
  O  O46  1  0.21515800  0.90245700  0.31581400  1
  O  O47  1  0.28484200  0.40245700  0.18418600  1
loop_
_geom_bond_atom_site_label_1
_geom_bond_atom_site_label_2
_geom_bond_distance
_geom_bond_site_symmetry_2
O0 P0 1.579939 1_555
O0 P4 1.579939 1_554
O1 P1 1.579939 1_555
O1 P5 1.579939 1_445
O2 P6 1.579939 1_555
O2 P2 1.579939 1_555
O3 P7 1.579939 1_555
O3 P3 1.579939 1_444
O4 P0 1.581604 1_555
O4 P4 1.581604 1_454
O5 P1 1.581604 1_555
O5 P5 1.581604 1_545
O6 P6 1.581604 1_555
O6 P2 1.581604 1_455
O7 P7 1.581604 1_555
O7 P3 1.581604 1_544
O8 P0 1.501255 1_555
O8 Zn4 2.002317 1_455
O9 P1 1.501255 1_555
O9 Zn5 2.002317 1_555
O10 P2 1.501255 1_555
O10 Zn6 2.002317 1_655
O11 P3 1.501255 1_555
O11 Zn7 2.002317 1_555
O12 P4 1.501255 1_555
O12 Zn8 2.002317 1_655
O13 P5 1.501255 1_555
O13 Zn9 2.002317 1_555
O14 P6 1.501255 1_555
O14 Zn10 2.002317 1_455
O15 P7 1.501255 1_555
O15 Zn11 2.002317 1_555
O16 P3 1.502015 1_554
O16 Zn4 2.029500 1_555
O17 P2 1.502015 1_555
O17 Zn5 2.029500 1_555
O18 P1 1.502015 1_555
O18 Zn6 2.029500 1_555
O19 P0 1.502015 1_556
O19 Zn7 2.029500 1_555
O20 P7 1.502015 1_556
O20 Zn8 2.029500 1_555
O21 P6 1.502015 1_555
O21 Zn9 2.029500 1_555
O22 P5 1.502015 1_555
O22 Zn10 2.029500 1_555
O23 P4 1.502015 1_554
O23 Zn11 2.029500 1_555
O24 Zn0 1.995474 1_555
O24 Zn10 2.123866 1_455
O24 Zn4 2.123866 1_455
O25 Zn1 1.995474 1_555
O25 Zn5 2.123866 1_555
O25 Zn11 2.123866 1_555
O26 Zn2 1.995474 1_555
O26 Zn8 2.123866 1_655
O26 Zn6 2.123866 1_655
O27 Zn3 1.995474 1_555
O27 Zn7 2.123866 1_555
O27 Zn9 2.123866 1_555
O28 Zn10 2.099437 1_555
O28 Zn4 2.099437 1_555
O28 Zn1 2.178996 1_665
O29 Zn5 2.099437 1_555
O29 Zn11 2.099437 1_555
O29 Zn0 2.178996 1_555
O30 Zn8 2.099437 1_555
O30 Zn6 2.099437 1_555
O30 Zn3 2.178996 1_445
O31 Zn7 2.099437 1_555
O31 Zn9 2.099437 1_555
O31 Zn2 2.178996 1_555
O32 Zn0 1.954953 1_555
O32 Zn4 1.988275 1_555
O33 Zn1 1.954953 1_655
O33 Zn5 1.988275 1_555
O34 Zn2 1.954953 1_555
O34 Zn6 1.988275 1_555
O35 Zn3 1.954953 1_455
O35 Zn7 1.988275 1_555
O36 Zn2 1.954953 1_555
O36 Zn8 1.988275 1_555
O37 Zn3 1.954953 1_455
O37 Zn9 1.988275 1_555
O38 Zn0 1.954953 1_555
O38 Zn10 1.988275 1_555
O39 Zn1 1.954953 1_655
O39 Zn11 1.988275 1_555
O40 Zn1 2.015882 1_565
O40 Zn4 2.032171 1_455
O41 Zn0 2.015882 1_555
O41 Zn5 2.032171 1_555
O42 Zn3 2.015882 1_545
O42 Zn6 2.032171 1_655
O43 Zn2 2.015882 1_555
O43 Zn7 2.032171 1_555
O44 Zn3 2.015882 1_545
O44 Zn8 2.032171 1_655
O45 Zn2 2.015882 1_555
O45 Zn9 2.032171 1_555
O46 Zn1 2.015882 1_565
O46 Zn10 2.032171 1_455
O47 Zn0 2.015882 1_555
O47 Zn11 2.032171 1_555
