# generated using pymatgen
data_La10Se19
_symmetry_space_group_name_H-M   'P 1'
_cell_length_a   9.49983199
_cell_length_b   9.49983199
_cell_length_c   17.18369913
_cell_angle_alpha   90.00000000
_cell_angle_beta   90.00000000
_cell_angle_gamma   90.00000000
_symmetry_Int_Tables_number   1
_chemical_formula_structural   La10Se19
_chemical_formula_sum   'La20 Se38'
_cell_volume   1550.77399340
_cell_formula_units_Z   2
loop_
 _symmetry_equiv_pos_site_id
 _symmetry_equiv_pos_as_xyz
  1  'x, y, z'
loop_
 _atom_site_type_symbol
 _atom_site_label
 _atom_site_symmetry_multiplicity
 _atom_site_fract_x
 _atom_site_fract_y
 _atom_site_fract_z
 _atom_site_occupancy
  La  La0  1  0.25000000  0.75000000  0.11515376  1
  La  La1  1  0.25000000  0.75000000  0.61515376  1
  La  La2  1  0.75000000  0.25000000  0.88484624  1
  La  La3  1  0.75000000  0.25000000  0.38484624  1
  La  La4  1  0.55397559  0.64802953  0.89652365  1
  La  La5  1  0.35197047  0.05397559  0.39652365  1
  La  La6  1  0.14802953  0.44602441  0.39652365  1
  La  La7  1  0.94602441  0.85197047  0.89652365  1
  La  La8  1  0.44602441  0.35197047  0.10347635  1
  La  La9  1  0.64802953  0.94602441  0.60347635  1
  La  La10  1  0.85197047  0.55397559  0.60347635  1
  La  La11  1  0.05397559  0.14802953  0.10347635  1
  La  La12  1  0.45699735  0.34721589  0.62055710  1
  La  La13  1  0.65278411  0.95699735  0.12055710  1
  La  La14  1  0.84721589  0.54300265  0.12055710  1
  La  La15  1  0.04300265  0.15278411  0.62055710  1
  La  La16  1  0.54300265  0.65278411  0.37944290  1
  La  La17  1  0.34721589  0.04300265  0.87944290  1
  La  La18  1  0.15278411  0.45699735  0.87944290  1
  La  La19  1  0.95699735  0.84721589  0.37944290  1
  Se  Se0  1  0.75000000  0.25000000  0.06598541  1
  Se  Se1  1  0.75000000  0.25000000  0.56598541  1
  Se  Se2  1  0.25000000  0.75000000  0.93401459  1
  Se  Se3  1  0.25000000  0.75000000  0.43401459  1
  Se  Se4  1  0.85090052  0.55298020  0.93706566  1
  Se  Se5  1  0.44701980  0.35090052  0.43706566  1
  Se  Se6  1  0.05298020  0.14909948  0.43706566  1
  Se  Se7  1  0.64909948  0.94701980  0.93706566  1
  Se  Se8  1  0.14909948  0.44701980  0.06293434  1
  Se  Se9  1  0.55298020  0.64909948  0.56293434  1
  Se  Se10  1  0.94701980  0.85090052  0.56293434  1
  Se  Se11  1  0.35090052  0.05298020  0.06293434  1
  Se  Se12  1  0.45136745  0.34838262  0.92640114  1
  Se  Se13  1  0.65161738  0.95136745  0.42640114  1
  Se  Se14  1  0.84838262  0.54863255  0.42640114  1
  Se  Se15  1  0.04863255  0.15161738  0.92640114  1
  Se  Se16  1  0.54863255  0.65161738  0.07359886  1
  Se  Se17  1  0.34838262  0.04863255  0.57359886  1
  Se  Se18  1  0.15161738  0.45136745  0.57359886  1
  Se  Se19  1  0.95136745  0.84838262  0.07359886  1
  Se  Se20  1  0.88606748  0.07171290  0.24934216  1
  Se  Se21  1  0.92828710  0.38606748  0.74934216  1
  Se  Se22  1  0.57171290  0.11393252  0.74934216  1
  Se  Se23  1  0.61393252  0.42828710  0.24934216  1
  Se  Se24  1  0.11393252  0.92828710  0.75065784  1
  Se  Se25  1  0.07171290  0.61393252  0.25065784  1
  Se  Se26  1  0.42828710  0.88606748  0.25065784  1
  Se  Se27  1  0.38606748  0.57171290  0.75065784  1
  Se  Se28  1  0.97192569  0.32115832  0.25032615  1
  Se  Se29  1  0.67884168  0.47192569  0.75032615  1
  Se  Se30  1  0.82115832  0.02807431  0.75032615  1
  Se  Se31  1  0.52807431  0.17884168  0.25032615  1
  Se  Se32  1  0.02807431  0.67884168  0.74967385  1
  Se  Se33  1  0.32115832  0.52807431  0.24967385  1
  Se  Se34  1  0.17884168  0.97192569  0.24967385  1
  Se  Se35  1  0.47192569  0.82115832  0.74967385  1
  Se  Se36  1  0.75000000  0.75000000  0.25000000  1
  Se  Se37  1  0.25000000  0.25000000  0.75000000  1
loop_
_geom_bond_atom_site_label_1
_geom_bond_atom_site_label_2
_geom_bond_distance
_geom_bond_site_symmetry_2
La0 Se19 3.071114 1_455
La0 Se16 3.071114 1_555
La0 Se2 3.112641 1_554
La0 Se25 3.156138 1_555
La0 Se26 3.156138 1_555
La0 Se11 3.163601 1_565
La0 Se8 3.163601 1_555
La0 Se33 3.200779 1_555
La0 Se34 3.200779 1_555
La1 Se17 3.071114 1_565
La1 Se18 3.071114 1_555
La1 Se3 3.112641 1_555
La1 Se24 3.156138 1_555
La1 Se27 3.156138 1_555
La1 Se9 3.163601 1_555
La1 Se10 3.163601 1_455
La1 Se35 3.200779 1_555
La1 Se32 3.200779 1_555
La2 Se12 3.071114 1_555
La2 Se15 3.071114 1_655
La2 Se0 3.112641 1_556
La2 Se21 3.156138 1_555
La2 Se22 3.156138 1_555
La2 Se4 3.163601 1_555
La2 Se7 3.163601 1_545
La2 Se30 3.200779 1_555
La2 Se29 3.200779 1_555
La3 Se13 3.071114 1_545
La3 Se14 3.071114 1_555
La3 Se1 3.112641 1_555
La3 Se23 3.156138 1_555
La3 Se20 3.156138 1_555
La3 Se6 3.163601 1_655
La3 Se5 3.163601 1_555
La3 Se31 3.200779 1_555
La3 Se28 3.200779 1_555
La4 Se4 3.042568 1_555
La4 Se16 3.043421 1_556
La4 Se12 3.052351 1_555
La4 Se27 3.058197 1_555
La4 Se7 3.060975 1_555
La4 Se35 3.111308 1_555
La4 Se2 3.113251 1_555
La4 Se29 3.243006 1_555
La5 Se5 3.042568 1_555
La5 Se17 3.043421 1_555
La5 Se13 3.052351 1_545
La5 Se26 3.058197 1_545
La5 Se6 3.060975 1_555
La5 Se34 3.111308 1_545
La5 Se3 3.113251 1_545
La5 Se31 3.243006 1_555
La6 Se6 3.042568 1_555
La6 Se18 3.043421 1_555
La6 Se14 3.052351 1_455
La6 Se25 3.058197 1_555
La6 Se5 3.060975 1_555
La6 Se33 3.111308 1_555
La6 Se3 3.113251 1_555
La6 Se28 3.243006 1_455
La7 Se7 3.042568 1_555
La7 Se19 3.043421 1_556
La7 Se15 3.052351 1_665
La7 Se24 3.058197 1_655
La7 Se4 3.060975 1_555
La7 Se32 3.111308 1_655
La7 Se2 3.113251 1_655
La7 Se30 3.243006 1_565
La8 Se8 3.042568 1_555
La8 Se12 3.043421 1_554
La8 Se16 3.052351 1_555
La8 Se23 3.058197 1_555
La8 Se11 3.060975 1_555
La8 Se31 3.111308 1_555
La8 Se0 3.113251 1_555
La8 Se33 3.243006 1_555
La9 Se9 3.042568 1_555
La9 Se13 3.043421 1_555
La9 Se17 3.052351 1_565
La9 Se22 3.058197 1_565
La9 Se10 3.060975 1_555
La9 Se30 3.111308 1_565
La9 Se1 3.113251 1_565
La9 Se35 3.243006 1_555
La10 Se10 3.042568 1_555
La10 Se14 3.043421 1_555
La10 Se18 3.052351 1_655
La10 Se21 3.058197 1_555
La10 Se9 3.060975 1_555
La10 Se29 3.111308 1_555
La10 Se1 3.113251 1_555
La10 Se32 3.243006 1_655
La11 Se11 3.042568 1_555
La11 Se15 3.043421 1_554
La11 Se19 3.052351 1_445
La11 Se20 3.058197 1_455
La11 Se8 3.060975 1_555
La11 Se28 3.111308 1_455
La11 Se0 3.113251 1_455
La11 Se34 3.243006 1_545
La12 Se1 3.078964 1_555
La12 Se37 3.109236 1_555
La12 Se17 3.124333 1_555
La12 Se5 3.154680 1_555
La12 Se27 3.162331 1_555
La12 Se9 3.168025 1_555
La12 Se18 3.169576 1_555
La12 Se29 3.289006 1_555
La12 Se22 3.316072 1_555
La13 Se0 3.078964 1_565
La13 Se36 3.109236 1_555
La13 Se19 3.124333 1_555
La13 Se7 3.154680 1_554
La13 Se26 3.162331 1_555
La13 Se11 3.168025 1_565
La13 Se16 3.169576 1_555
La13 Se31 3.289006 1_565
La13 Se20 3.316072 1_565
La14 Se0 3.078964 1_555
La14 Se36 3.109236 1_555
La14 Se16 3.124333 1_555
La14 Se4 3.154680 1_554
La14 Se25 3.162331 1_655
La14 Se8 3.168025 1_655
La14 Se19 3.169576 1_555
La14 Se28 3.289006 1_555
La14 Se23 3.316072 1_555
La15 Se1 3.078964 1_455
La15 Se37 3.109236 1_555
La15 Se18 3.124333 1_555
La15 Se6 3.154680 1_555
La15 Se24 3.162331 1_545
La15 Se10 3.168025 1_445
La15 Se17 3.169576 1_555
La15 Se30 3.289006 1_455
La15 Se21 3.316072 1_455
La16 Se3 3.078964 1_555
La16 Se36 3.109236 1_555
La16 Se13 3.124333 1_555
La16 Se9 3.154680 1_555
La16 Se23 3.162331 1_555
La16 Se5 3.168025 1_555
La16 Se14 3.169576 1_555
La16 Se33 3.289006 1_555
La16 Se26 3.316072 1_555
La17 Se2 3.078964 1_545
La17 Se37 3.109236 1_555
La17 Se15 3.124333 1_555
La17 Se11 3.154680 1_556
La17 Se22 3.162331 1_555
La17 Se7 3.168025 1_545
La17 Se12 3.169576 1_555
La17 Se35 3.289006 1_545
La17 Se24 3.316072 1_545
La18 Se2 3.078964 1_555
La18 Se37 3.109236 1_555
La18 Se12 3.124333 1_555
La18 Se8 3.154680 1_556
La18 Se21 3.162331 1_455
La18 Se4 3.168025 1_455
La18 Se15 3.169576 1_555
La18 Se32 3.289006 1_555
La18 Se27 3.316072 1_555
La19 Se3 3.078964 1_655
La19 Se36 3.109236 1_555
La19 Se14 3.124333 1_555
La19 Se10 3.154680 1_555
La19 Se20 3.162331 1_565
La19 Se6 3.168025 1_665
La19 Se13 3.169576 1_555
La19 Se34 3.289006 1_655
La19 Se25 3.316072 1_655
Se20 Se28 2.506189 1_555
Se20 Se34 2.938422 1_645
Se21 Se29 2.506189 1_555
Se21 Se32 2.938422 1_655
Se22 Se30 2.506189 1_555
Se22 Se35 2.938422 1_545
Se23 Se31 2.506189 1_555
Se23 Se33 2.938422 1_555
Se24 Se32 2.506189 1_555
Se24 Se30 2.938422 1_465
Se25 Se33 2.506189 1_555
Se25 Se28 2.938422 1_455
Se26 Se34 2.506189 1_555
Se26 Se31 2.938422 1_565
Se27 Se35 2.506189 1_555
Se27 Se29 2.938422 1_555
