# generated using pymatgen
data_LiEuTl2
_symmetry_space_group_name_H-M   'P 1'
_cell_length_a   5.28860402
_cell_length_b   5.29154630
_cell_length_c   5.28812207
_cell_angle_alpha   59.98515552
_cell_angle_beta   60.03966638
_cell_angle_gamma   59.97453968
_symmetry_Int_Tables_number   1
_chemical_formula_structural   LiEuTl2
_chemical_formula_sum   'Li1 Eu1 Tl2'
_cell_volume   104.64240370
_cell_formula_units_Z   1
loop_
 _symmetry_equiv_pos_site_id
 _symmetry_equiv_pos_as_xyz
  1  'x, y, z'
loop_
 _atom_site_type_symbol
 _atom_site_label
 _atom_site_symmetry_multiplicity
 _atom_site_fract_x
 _atom_site_fract_y
 _atom_site_fract_z
 _atom_site_occupancy
  Li  Li0  1  0.74999940  0.75000107  0.74999868  1
  Eu  Eu0  1  0.25000051  0.24999902  0.25000042  1
  Tl  Tl0  1  0.00000098  0.00000478  0.99998449  1
  Tl  Tl1  1  0.49999910  0.49999312  0.50001541  1
loop_
_geom_bond_atom_site_label_1
_geom_bond_atom_site_label_2
_geom_bond_distance
_geom_bond_site_symmetry_2
Li0 Tl1 3.239053 1_565
Li0 Tl0 3.239057 1_565
Li0 Tl1 3.239063 1_655
Li0 Tl0 3.239064 1_665
Li0 Tl1 3.239066 1_555
Li0 Tl0 3.239071 1_655
Li0 Tl0 3.239177 1_664
Li0 Tl1 3.239188 1_556
Eu0 Tl0 3.239047 1_555
Eu0 Tl1 3.239051 1_554
Eu0 Tl0 3.239066 1_654
Eu0 Tl1 3.239070 1_455
Eu0 Tl0 3.239112 1_564
Eu0 Tl1 3.239113 1_545
Eu0 Tl1 3.239136 1_555
Eu0 Tl0 3.239145 1_554
