# generated using pymatgen
data_Li2Cu3F9
_symmetry_space_group_name_H-M   'P 1'
_cell_length_a   8.08586431
_cell_length_b   7.62189303
_cell_length_c   5.90740850
_cell_angle_alpha   100.94818894
_cell_angle_beta   94.77516232
_cell_angle_gamma   106.37411635
_symmetry_Int_Tables_number   1
_chemical_formula_structural   Li2Cu3F9
_chemical_formula_sum   'Li4 Cu6 F18'
_cell_volume   339.31236200
_cell_formula_units_Z   2
loop_
 _symmetry_equiv_pos_site_id
 _symmetry_equiv_pos_as_xyz
  1  'x, y, z'
loop_
 _atom_site_type_symbol
 _atom_site_label
 _atom_site_symmetry_multiplicity
 _atom_site_fract_x
 _atom_site_fract_y
 _atom_site_fract_z
 _atom_site_occupancy
  Li  Li0  1  0.15672500  0.55311600  0.87333600  1
  Li  Li1  1  0.07712500  0.23779800  0.12609900  1
  Li  Li2  1  0.92287500  0.76220200  0.87390100  1
  Li  Li3  1  0.84327500  0.44688400  0.12666400  1
  Cu  Cu0  1  0.03824700  0.81943100  0.43597500  1
  Cu  Cu1  1  0.49719300  0.98856200  0.74893900  1
  Cu  Cu2  1  0.48833100  0.47617600  0.74246800  1
  Cu  Cu3  1  0.51166900  0.52382400  0.25753200  1
  Cu  Cu4  1  0.50280700  0.01143800  0.25106100  1
  Cu  Cu5  1  0.96175300  0.18056900  0.56402500  1
  F  F0  1  0.06355200  0.67457200  0.64841600  1
  F  F1  1  0.03970300  0.67688800  0.13053900  1
  F  F2  1  0.01001700  0.01763000  0.28077700  1
  F  F3  1  0.33189400  0.94417700  0.97440700  1
  F  F4  1  0.33389400  0.94725200  0.46884600  1
  F  F5  1  0.25293500  0.38692900  0.65416300  1
  F  F6  1  0.27885200  0.43628900  0.14070700  1
  F  F7  1  0.49015300  0.70080700  0.66477900  1
  F  F8  1  0.51054600  0.74164100  0.17411900  1
  F  F9  1  0.48945400  0.25835900  0.82588200  1
  F  F10  1  0.50984700  0.29919300  0.33522200  1
  F  F11  1  0.72114800  0.56371100  0.85929300  1
  F  F12  1  0.74706500  0.61307100  0.34583700  1
  F  F13  1  0.66610600  0.05274800  0.53115400  1
  F  F14  1  0.66810600  0.05582300  0.02559300  1
  F  F15  1  0.98998300  0.98237000  0.71922300  1
  F  F16  1  0.96029700  0.32311200  0.86946100  1
  F  F17  1  0.93644800  0.32542800  0.35158400  1
loop_
_geom_bond_atom_site_label_1
_geom_bond_atom_site_label_2
_geom_bond_distance
_geom_bond_site_symmetry_2
Cu0 F0 1.856557 1_555
Cu0 F1 1.924128 1_555
Cu0 F2 1.964786 1_565
Cu0 F15 2.021654 1_455
Cu0 F4 2.288967 1_555
Cu0 F12 2.384552 1_455
Cu1 F14 1.936469 1_566
Cu1 F4 1.945345 1_555
Cu1 F3 1.971689 1_555
Cu1 F13 1.978601 1_565
Cu1 F9 2.039952 1_565
Cu1 F7 2.138088 1_555
Cu2 F9 1.821422 1_555
Cu2 F5 1.824172 1_555
Cu2 F11 1.834659 1_555
Cu2 F7 1.851363 1_555
Cu3 F8 1.821419 1_555
Cu3 F12 1.824172 1_555
Cu3 F6 1.834659 1_555
Cu3 F10 1.851365 1_555
Cu4 F3 1.936469 1_544
Cu4 F13 1.945345 1_555
Cu4 F14 1.971689 1_555
Cu4 F4 1.978601 1_545
Cu4 F8 2.039951 1_545
Cu4 F10 2.138089 1_555
Cu5 F17 1.856557 1_555
Cu5 F16 1.924128 1_555
Cu5 F15 1.964786 1_545
Cu5 F2 2.021654 1_655
Cu5 F13 2.288967 1_555
Cu5 F5 2.384552 1_655
F0 Li2 1.963921 1_455
F0 Li0 1.970723 1_555
F1 Li3 2.001314 1_455
F1 Li2 2.023860 1_454
F1 Li0 2.071734 1_554
F2 Li1 2.024097 1_555
F5 Li0 1.996575 1_555
F6 Li1 1.868821 1_555
F6 Li0 2.243454 1_554
F11 Li2 1.868821 1_555
F11 Li3 2.243454 1_556
F12 Li3 1.996575 1_555
F15 Li2 2.024097 1_555
F16 Li0 2.001314 1_655
F16 Li1 2.023860 1_656
F16 Li3 2.071734 1_556
F17 Li1 1.963921 1_655
F17 Li3 1.970723 1_555
