# generated using pymatgen
data_Mg3(PO6)2
_symmetry_space_group_name_H-M   'P 1'
_cell_length_a   9.73437484
_cell_length_b   9.73437484
_cell_length_c   13.25407400
_cell_angle_alpha   90.00000000
_cell_angle_beta   90.00000000
_cell_angle_gamma   127.49306833
_symmetry_Int_Tables_number   1
_chemical_formula_structural   Mg3(PO6)2
_chemical_formula_sum   'Mg12 P8 O48'
_cell_volume   996.48895170
_cell_formula_units_Z   4
loop_
 _symmetry_equiv_pos_site_id
 _symmetry_equiv_pos_as_xyz
  1  'x, y, z'
loop_
 _atom_site_type_symbol
 _atom_site_label
 _atom_site_symmetry_multiplicity
 _atom_site_fract_x
 _atom_site_fract_y
 _atom_site_fract_z
 _atom_site_occupancy
  Mg  Mg0  1  0.69188400  0.70057900  0.38229700  1
  Mg  Mg1  1  0.29942100  0.30811600  0.38229700  1
  Mg  Mg2  1  0.30811600  0.29942100  0.88229700  1
  Mg  Mg3  1  0.70057900  0.69188400  0.88229700  1
  Mg  Mg4  1  0.78999500  0.80501000  0.11015400  1
  Mg  Mg5  1  0.19499000  0.21000500  0.11015400  1
  Mg  Mg6  1  0.21000500  0.19499000  0.61015400  1
  Mg  Mg7  1  0.80501000  0.78999500  0.61015400  1
  Mg  Mg8  1  0.75119400  0.24880600  0.87426500  1
  Mg  Mg9  1  0.24880600  0.75119400  0.37426500  1
  Mg  Mg10  1  0.74810600  0.25189400  0.12917000  1
  Mg  Mg11  1  0.25189400  0.74810600  0.62917000  1
  P  P0  1  0.90053000  0.09947000  0.94547300  1
  P  P1  1  0.09947000  0.90053000  0.44547300  1
  P  P2  1  0.59876900  0.40123100  0.05039900  1
  P  P3  1  0.40123100  0.59876900  0.55039900  1
  P  P4  1  0.10240400  0.89759600  0.77751500  1
  P  P5  1  0.89759600  0.10240400  0.27751500  1
  P  P6  1  0.60681100  0.39318900  0.71362400  1
  P  P7  1  0.39318900  0.60681100  0.21362400  1
  O  O0  1  0.87066900  0.12933100  0.83482500  1
  O  O1  1  0.12933100  0.87066900  0.33482500  1
  O  O2  1  0.82560600  0.17439400  0.01058500  1
  O  O3  1  0.17439400  0.82560600  0.51058500  1
  O  O4  1  0.90605400  0.80088200  0.46989100  1
  O  O5  1  0.19911800  0.09394600  0.46989100  1
  O  O6  1  0.09394600  0.19911800  0.96989100  1
  O  O7  1  0.80088200  0.90605400  0.96989100  1
  O  O8  1  0.62433600  0.37566400  0.16383300  1
  O  O9  1  0.37566400  0.62433600  0.66383300  1
  O  O10  1  0.67701900  0.32298100  0.99320900  1
  O  O11  1  0.32298100  0.67701900  0.49320900  1
  O  O12  1  0.59353500  0.69878100  0.52219400  1
  O  O13  1  0.30121900  0.40646500  0.52219400  1
  O  O14  1  0.40646500  0.30121900  0.02219400  1
  O  O15  1  0.69878100  0.59353500  0.02219400  1
  O  O16  1  0.18791100  0.81208900  0.75161800  1
  O  O17  1  0.81208900  0.18791100  0.25161800  1
  O  O18  1  0.05979200  0.94020800  0.67124500  1
  O  O19  1  0.94020800  0.05979200  0.17124500  1
  O  O20  1  0.77395400  0.93440400  0.33722400  1
  O  O21  1  0.06559600  0.22604600  0.33722400  1
  O  O22  1  0.22604600  0.06559600  0.83722400  1
  O  O23  1  0.93440400  0.77395400  0.83722400  1
  O  O24  1  0.69100700  0.30899300  0.74808900  1
  O  O25  1  0.30899300  0.69100700  0.24808900  1
  O  O26  1  0.56033900  0.43966100  0.81703300  1
  O  O27  1  0.43966100  0.56033900  0.31703300  1
  O  O28  1  0.55761900  0.73491700  0.15235400  1
  O  O29  1  0.26508300  0.44238100  0.15235400  1
  O  O30  1  0.44238100  0.26508300  0.65235400  1
  O  O31  1  0.73491700  0.55761900  0.65235400  1
  O  O32  1  0.78128900  0.68115200  0.24226300  1
  O  O33  1  0.31884800  0.21871100  0.24226300  1
  O  O34  1  0.21871100  0.31884800  0.74226300  1
  O  O35  1  0.68115200  0.78128900  0.74226300  1
  O  O36  1  0.43606900  0.56393100  0.90758600  1
  O  O37  1  0.56393100  0.43606900  0.40758600  1
  O  O38  1  0.93810400  0.06189600  0.60293000  1
  O  O39  1  0.06189600  0.93810400  0.10293000  1
  O  O40  1  0.46597800  0.01482600  0.37801500  1
  O  O41  1  0.98517400  0.53402200  0.37801500  1
  O  O42  1  0.53402200  0.98517400  0.87801500  1
  O  O43  1  0.01482600  0.46597800  0.87801500  1
  O  O44  1  0.48553200  0.98988300  0.58676000  1
  O  O45  1  0.01011700  0.51446800  0.58676000  1
  O  O46  1  0.51446800  0.01011700  0.08676000  1
  O  O47  1  0.98988300  0.48553200  0.08676000  1
loop_
_geom_bond_atom_site_label_1
_geom_bond_atom_site_label_2
_geom_bond_distance
_geom_bond_site_symmetry_2
Mg0 O20 1.990562 1_555
Mg0 O4 2.041974 1_555
Mg0 O12 2.081955 1_555
Mg0 O37 2.095102 1_555
Mg0 O32 2.106740 1_555
Mg0 O27 2.135381 1_555
Mg1 O21 1.990562 1_555
Mg1 O5 2.041974 1_555
Mg1 O13 2.081955 1_555
Mg1 O37 2.095102 1_555
Mg1 O33 2.106740 1_555
Mg1 O27 2.135381 1_555
Mg2 O22 1.990562 1_555
Mg2 O6 2.041974 1_555
Mg2 O14 2.081955 1_556
Mg2 O36 2.095102 1_555
Mg2 O34 2.106740 1_555
Mg2 O26 2.135381 1_555
Mg3 O23 1.990562 1_555
Mg3 O7 2.041974 1_555
Mg3 O15 2.081955 1_556
Mg3 O36 2.095102 1_555
Mg3 O35 2.106740 1_555
Mg3 O26 2.135381 1_555
Mg4 O28 2.004083 1_555
Mg4 O15 2.039658 1_555
Mg4 O7 2.075547 1_554
Mg4 O32 2.098190 1_555
Mg4 O39 2.125745 1_655
Mg4 O19 2.128415 1_565
Mg5 O29 2.004083 1_555
Mg5 O14 2.039658 1_555
Mg5 O6 2.075547 1_554
Mg5 O33 2.098190 1_555
Mg5 O39 2.125745 1_545
Mg5 O19 2.128415 1_455
Mg6 O30 2.004083 1_555
Mg6 O13 2.039658 1_555
Mg6 O5 2.075547 1_555
Mg6 O34 2.098190 1_555
Mg6 O38 2.125745 1_455
Mg6 O18 2.128415 1_545
Mg7 O31 2.004083 1_555
Mg7 O12 2.039658 1_555
Mg7 O4 2.075547 1_555
Mg7 O35 2.098190 1_555
Mg7 O38 2.125745 1_565
Mg7 O18 2.128415 1_655
Mg8 O24 1.975125 1_555
Mg8 O10 2.040268 1_555
Mg8 O43 2.110253 1_655
Mg8 O42 2.110253 1_545
Mg8 O0 2.150588 1_555
Mg8 O2 2.225446 1_556
Mg9 O25 1.975125 1_555
Mg9 O11 2.040268 1_555
Mg9 O40 2.110253 1_565
Mg9 O41 2.110253 1_455
Mg9 O1 2.150588 1_555
Mg9 O3 2.225446 1_555
Mg10 O17 1.970278 1_555
Mg10 O2 2.073997 1_555
Mg10 O47 2.124064 1_555
Mg10 O46 2.124064 1_555
Mg10 O10 2.188138 1_554
Mg10 O8 2.209378 1_555
Mg11 O16 1.970278 1_555
Mg11 O3 2.073997 1_555
Mg11 O44 2.124064 1_555
Mg11 O45 2.124064 1_555
Mg11 O11 2.188138 1_555
Mg11 O9 2.209378 1_555
O0 P0 1.556462 1_555
O1 P1 1.556462 1_555
O2 P0 1.567219 1_554
O3 P1 1.567219 1_555
O4 P1 1.538604 1_655
O5 P1 1.538604 1_545
O6 P0 1.538604 1_455
O7 P0 1.538604 1_565
O8 P2 1.568338 1_555
O9 P3 1.568338 1_555
O10 P2 1.562463 1_556
O11 P3 1.562463 1_555
O12 P3 1.540539 1_555
O13 P3 1.540539 1_555
O14 P2 1.540539 1_555
O15 P2 1.540539 1_555
O16 P4 1.531940 1_555
O17 P5 1.531940 1_555
O18 P4 1.592946 1_555
O19 P5 1.592946 1_555
O20 P5 1.534038 1_565
O21 P5 1.534038 1_455
O22 P4 1.534038 1_545
O23 P4 1.534038 1_655
O24 P6 1.539437 1_555
O25 P7 1.539437 1_555
O26 P6 1.592773 1_555
O27 P7 1.592773 1_555
O28 P7 1.531903 1_555
O29 P7 1.531903 1_555
O30 P6 1.531903 1_555
O31 P6 1.531903 1_555
