# generated using pymatgen
data_Li5Ni3O5F3
_symmetry_space_group_name_H-M   'P 1'
_cell_length_a   5.59938400
_cell_length_b   5.75624413
_cell_length_c   5.98309470
_cell_angle_alpha   118.67083208
_cell_angle_beta   117.37320033
_cell_angle_gamma   90.35921055
_symmetry_Int_Tables_number   1
_chemical_formula_structural   Li5Ni3O5F3
_chemical_formula_sum   'Li5 Ni3 O5 F3'
_cell_volume   143.74383446
_cell_formula_units_Z   1
loop_
 _symmetry_equiv_pos_site_id
 _symmetry_equiv_pos_as_xyz
  1  'x, y, z'
loop_
 _atom_site_type_symbol
 _atom_site_label
 _atom_site_symmetry_multiplicity
 _atom_site_fract_x
 _atom_site_fract_y
 _atom_site_fract_z
 _atom_site_occupancy
  Li  Li0  1  0.50106900  0.49866500  0.50165100  1
  Li  Li1  1  0.99655200  0.00273200  0.00311400  1
  Li  Li2  1  0.99780000  0.47351700  0.01223300  1
  Li  Li3  1  0.99031800  0.53034600  0.47985300  1
  Li  Li4  1  0.50864000  0.48828400  0.00404800  1
  Ni  Ni0  1  0.50650300  0.00422200  0.00140500  1
  Ni  Ni1  1  0.51918400  0.95042100  0.53441800  1
  Ni  Ni2  1  0.00014900  0.00189600  0.49903300  1
  O  O0  1  0.74795900  0.26040700  0.99390400  1
  O  O1  1  0.26194000  0.72257600  0.53641300  1
  O  O2  1  0.75863200  0.78217700  0.50288700  1
  O  O3  1  0.24302700  0.21868000  0.49695000  1
  O  O4  1  0.73489200  0.28195100  0.45950700  1
  F  F0  1  0.27859100  0.15659600  0.06669700  1
  F  F1  1  0.72282600  0.83972500  0.93646100  1
  F  F2  1  0.23191700  0.78780500  0.97142600  1
loop_
_geom_bond_atom_site_label_1
_geom_bond_atom_site_label_2
_geom_bond_distance
_geom_bond_site_symmetry_2
Li0 O4 1.831977 1_555
Li0 O1 1.875591 1_555
Li0 O3 2.139123 1_555
Li0 O2 2.166192 1_555
Li1 O0 2.043133 1_554
Li1 O3 2.210066 1_655
Li1 O2 2.238384 1_544
Li2 O0 1.783886 1_554
Li2 O1 2.339295 1_655
Li2 O4 2.514588 1_554
Li3 O1 1.672842 1_655
Li3 O4 1.937009 1_555
Li3 O2 1.949259 1_555
Li3 O0 2.172491 1_554
Li3 O3 2.303493 1_655
Li4 O0 1.881601 1_554
Li4 O2 2.238928 1_555
Li4 O3 2.264766 1_554
Ni0 O0 2.024566 1_554
Ni0 O4 2.061595 1_555
Ni0 O1 2.093916 1_544
Ni1 O2 1.686623 1_555
Ni1 O1 1.949917 1_555
Ni1 O0 2.099662 1_565
Ni1 O3 2.206606 1_565
Ni1 O4 2.567343 1_565
Ni2 O3 1.848257 1_555
Ni2 O2 1.861235 1_445
Ni2 O1 2.203871 1_545
Ni2 O4 2.221162 1_455
F0 Li1 1.590553 1_455
F0 Ni0 1.641403 1_555
F0 Li0 2.067004 1_555
F1 Li1 1.565077 1_566
F1 Ni0 1.615210 1_566
F1 Li0 2.064486 1_555
F2 Li1 1.824428 1_466
F2 Ni0 1.859028 1_566
F2 Li3 2.193237 1_455
F2 Li4 2.343043 1_556
F2 Li2 2.395710 1_456
