# generated using pymatgen
data_LiMn2(BO3)2
_symmetry_space_group_name_H-M   'P 1'
_cell_length_a   5.30232300
_cell_length_b   5.81772735
_cell_length_c   16.44325660
_cell_angle_alpha   99.66100574
_cell_angle_beta   90.25037976
_cell_angle_gamma   90.71922394
_symmetry_Int_Tables_number   1
_chemical_formula_structural   LiMn2(BO3)2
_chemical_formula_sum   'Li4 Mn8 B8 O24'
_cell_volume   499.98904809
_cell_formula_units_Z   4
loop_
 _symmetry_equiv_pos_site_id
 _symmetry_equiv_pos_as_xyz
  1  'x, y, z'
loop_
 _atom_site_type_symbol
 _atom_site_label
 _atom_site_symmetry_multiplicity
 _atom_site_fract_x
 _atom_site_fract_y
 _atom_site_fract_z
 _atom_site_occupancy
  Li  Li0  1  0.16240100  0.06006400  0.61500000  1
  Li  Li1  1  0.32938300  0.19240000  0.13471500  1
  Li  Li2  1  0.67061700  0.80760000  0.86528500  1
  Li  Li3  1  0.83759900  0.93993600  0.38500000  1
  Mn  Mn0  1  0.30053600  0.29973700  0.95826600  1
  Mn  Mn1  1  0.80698500  0.03568800  0.21300200  1
  Mn  Mn2  1  0.68448100  0.21743800  0.53523800  1
  Mn  Mn3  1  0.80780800  0.54483100  0.70764500  1
  Mn  Mn4  1  0.19219200  0.45516900  0.29235500  1
  Mn  Mn5  1  0.31551900  0.78256200  0.46476200  1
  Mn  Mn6  1  0.19301500  0.96431200  0.78699800  1
  Mn  Mn7  1  0.69946400  0.70026300  0.04173400  1
  B  B0  1  0.67464100  0.04703200  0.70460300  1
  B  B1  1  0.17472200  0.28673600  0.45813900  1
  B  B2  1  0.32286800  0.46982000  0.79623800  1
  B  B3  1  0.82333400  0.20611600  0.04967300  1
  B  B4  1  0.17666600  0.79388400  0.95032700  1
  B  B5  1  0.67713200  0.53018000  0.20376200  1
  B  B6  1  0.82527800  0.71326400  0.54186100  1
  B  B7  1  0.32535900  0.95296800  0.29539700  1
  O  O0  1  0.41701000  0.03264100  0.69623600  1
  O  O1  1  0.81556800  0.17461100  0.65447500  1
  O  O2  1  0.30536800  0.15282500  0.50842600  1
  O  O3  1  0.67341500  0.34739300  0.00956400  1
  O  O4  1  0.19633600  0.07373600  0.24205300  1
  O  O5  1  0.19559100  0.29879800  0.83310300  1
  O  O6  1  0.68591800  0.05464300  0.09369400  1
  O  O7  1  0.92225100  0.25358100  0.44484900  1
  O  O8  1  0.57422100  0.50135900  0.80289200  1
  O  O9  1  0.07872500  0.21795000  0.05212900  1
  O  O10  1  0.30645900  0.44079400  0.41687000  1
  O  O11  1  0.83101900  0.38159000  0.24085700  1
  O  O12  1  0.16898100  0.61841000  0.75914300  1
  O  O13  1  0.69354100  0.55920600  0.58313000  1
  O  O14  1  0.92127500  0.78205000  0.94787100  1
  O  O15  1  0.42577900  0.49864100  0.19710800  1
  O  O16  1  0.07774900  0.74641900  0.55515100  1
  O  O17  1  0.31408200  0.94535700  0.90630600  1
  O  O18  1  0.80440900  0.70120200  0.16689700  1
  O  O19  1  0.80366400  0.92626400  0.75794700  1
  O  O20  1  0.32658500  0.65260700  0.99043600  1
  O  O21  1  0.69463200  0.84717500  0.49157400  1
  O  O22  1  0.18443200  0.82538900  0.34552500  1
  O  O23  1  0.58299000  0.96735900  0.30376400  1
loop_
_geom_bond_atom_site_label_1
_geom_bond_atom_site_label_2
_geom_bond_distance
_geom_bond_site_symmetry_2
Li0 O0 1.921848 1_555
Li0 O16 1.967829 1_545
Li0 O1 2.035543 1_455
Li0 O2 2.062917 1_555
Li1 O9 1.920826 1_555
Li1 O15 1.961393 1_555
Li1 O4 2.120626 1_555
Li1 O6 2.130461 1_555
Li2 O14 1.920826 1_555
Li2 O8 1.961393 1_555
Li2 O19 2.120626 1_555
Li2 O17 2.130461 1_555
Li3 O23 1.921848 1_555
Li3 O7 1.967829 1_565
Li3 O22 2.035543 1_655
Li3 O21 2.062917 1_555
Mn0 O20 2.034960 1_555
Mn0 O9 2.059142 1_556
Mn0 O17 2.097314 1_545
Mn0 O5 2.128740 1_555
Mn0 O3 2.142560 1_556
Mn1 O18 1.966147 1_545
Mn1 O11 1.989805 1_555
Mn1 O23 1.999681 1_545
Mn1 O6 2.082386 1_555
Mn1 O4 2.117456 1_655
Mn2 O7 1.989305 1_555
Mn2 O13 2.011861 1_555
Mn2 O2 2.072235 1_555
Mn2 O1 2.132069 1_555
Mn2 O21 2.154680 1_545
Mn3 O8 2.047658 1_555
Mn3 O12 2.100315 1_655
Mn3 O13 2.148014 1_555
Mn3 O1 2.185316 1_555
Mn3 O19 2.234781 1_555
Mn4 O15 2.047658 1_555
Mn4 O11 2.100315 1_455
Mn4 O10 2.148014 1_555
Mn4 O22 2.185316 1_555
Mn4 O4 2.234781 1_555
Mn5 O16 1.989305 1_555
Mn5 O10 2.011861 1_555
Mn5 O21 2.072235 1_555
Mn5 O22 2.132069 1_555
Mn5 O2 2.154680 1_565
Mn6 O5 1.966147 1_565
Mn6 O12 1.989805 1_555
Mn6 O0 1.999681 1_565
Mn6 O17 2.082386 1_555
Mn6 O19 2.117456 1_455
Mn7 O3 2.034960 1_555
Mn7 O14 2.059142 1_554
Mn7 O6 2.097314 1_565
Mn7 O18 2.128740 1_555
Mn7 O20 2.142560 1_554
B0 O0 1.372454 1_555
B0 O19 1.394533 1_545
B0 O1 1.409068 1_555
B1 O7 1.361560 1_455
B1 O10 1.394371 1_555
B1 O2 1.412548 1_555
B2 O8 1.344515 1_555
B2 O12 1.405511 1_555
B2 O5 1.414917 1_555
B3 O9 1.355132 1_655
B3 O3 1.391461 1_555
B3 O6 1.426183 1_555
B4 O14 1.355132 1_455
B4 O20 1.391461 1_555
B4 O17 1.426183 1_555
B5 O15 1.344515 1_555
B5 O11 1.405511 1_555
B5 O18 1.414917 1_555
B6 O16 1.361560 1_655
B6 O13 1.394371 1_555
B6 O21 1.412548 1_555
B7 O23 1.372454 1_555
B7 O4 1.394533 1_565
B7 O22 1.409068 1_555
