# generated using pymatgen
data_SrTiH4(OF3)2
_symmetry_space_group_name_H-M   'P 1'
_cell_length_a   9.86519800
_cell_length_b   6.07349200
_cell_length_c   11.92594965
_cell_angle_alpha   69.24562830
_cell_angle_beta   90.00000000
_cell_angle_gamma   90.00000000
_symmetry_Int_Tables_number   1
_chemical_formula_structural   SrTiH4(OF3)2
_chemical_formula_sum   'Sr4 Ti4 H16 O8 F24'
_cell_volume   668.18865058
_cell_formula_units_Z   4
loop_
 _symmetry_equiv_pos_site_id
 _symmetry_equiv_pos_as_xyz
  1  'x, y, z'
loop_
 _atom_site_type_symbol
 _atom_site_label
 _atom_site_symmetry_multiplicity
 _atom_site_fract_x
 _atom_site_fract_y
 _atom_site_fract_z
 _atom_site_occupancy
  Sr  Sr0  1  0.31322000  0.71836900  0.45072600  1
  Sr  Sr1  1  0.81322000  0.28163100  0.04927400  1
  Sr  Sr2  1  0.18678000  0.71836900  0.95072600  1
  Sr  Sr3  1  0.68678000  0.28163100  0.54927400  1
  Ti  Ti0  1  0.03576900  0.36157900  0.73195200  1
  Ti  Ti1  1  0.53576900  0.63842100  0.76804800  1
  Ti  Ti2  1  0.46423100  0.36157900  0.23195200  1
  Ti  Ti3  1  0.96423100  0.63842100  0.26804800  1
  H  H0  1  0.35347300  0.17024400  0.94715000  1
  H  H1  1  0.60781600  0.72423600  0.32773700  1
  H  H2  1  0.36441700  0.02367900  0.08480900  1
  H  H3  1  0.63250600  0.82608800  0.42997800  1
  H  H4  1  0.85347300  0.82975600  0.55285000  1
  H  H5  1  0.13250600  0.17391200  0.07002200  1
  H  H6  1  0.86441700  0.97632100  0.41519100  1
  H  H7  1  0.89218400  0.72423600  0.82773700  1
  H  H8  1  0.10781600  0.27576400  0.17226300  1
  H  H9  1  0.13558300  0.02367900  0.58480900  1
  H  H10  1  0.86749400  0.82608800  0.92997800  1
  H  H11  1  0.14652700  0.17024400  0.44715000  1
  H  H12  1  0.36749400  0.17391200  0.57002200  1
  H  H13  1  0.63558300  0.97632100  0.91519100  1
  H  H14  1  0.39218400  0.27576400  0.67226300  1
  H  H15  1  0.64652700  0.82975600  0.05285000  1
  O  O0  1  0.58170300  0.70425600  0.41028500  1
  O  O1  1  0.30712500  0.04873500  0.01414700  1
  O  O2  1  0.80712500  0.95126500  0.48585300  1
  O  O3  1  0.91829700  0.70425600  0.91028500  1
  O  O4  1  0.08170300  0.29574400  0.08971500  1
  O  O5  1  0.19287500  0.04873500  0.51414700  1
  O  O6  1  0.69287500  0.95126500  0.98585300  1
  O  O7  1  0.41829700  0.29574400  0.58971500  1
  F  F0  1  0.93950300  0.22815100  0.87942100  1
  F  F1  1  0.13788900  0.48203300  0.59049500  1
  F  F2  1  0.43429200  0.35578900  0.81364100  1
  F  F3  1  0.65650000  0.50463000  0.68643700  1
  F  F4  1  0.09038600  0.77847000  0.34045400  1
  F  F5  1  0.15650000  0.49537000  0.81356300  1
  F  F6  1  0.85537500  0.91709800  0.22575800  1
  F  F7  1  0.93429200  0.64421100  0.68635900  1
  F  F8  1  0.63788900  0.51796700  0.90950500  1
  F  F9  1  0.43950300  0.77184900  0.62057900  1
  F  F10  1  0.35537500  0.08290200  0.27424200  1
  F  F11  1  0.59038600  0.22153000  0.15954600  1
  F  F12  1  0.40961400  0.77847000  0.84045400  1
  F  F13  1  0.64462500  0.91709800  0.72575800  1
  F  F14  1  0.56049700  0.22815100  0.37942100  1
  F  F15  1  0.36211100  0.48203300  0.09049500  1
  F  F16  1  0.06570800  0.35578900  0.31364100  1
  F  F17  1  0.14462500  0.08290200  0.77424200  1
  F  F18  1  0.84350000  0.50463000  0.18643700  1
  F  F19  1  0.90961400  0.22153000  0.65954600  1
  F  F20  1  0.34350000  0.49537000  0.31356300  1
  F  F21  1  0.56570800  0.64421100  0.18635900  1
  F  F22  1  0.86211100  0.51796700  0.40950500  1
  F  F23  1  0.06049700  0.77184900  0.12057900  1
loop_
_geom_bond_atom_site_label_1
_geom_bond_atom_site_label_2
_geom_bond_distance
_geom_bond_site_symmetry_2
H0 O1 0.987009 1_556
H1 O0 0.982644 1_555
H2 O1 0.980755 1_555
H3 O0 0.988445 1_555
H4 O2 0.987009 1_555
H5 O4 0.988445 1_555
H6 O2 0.980755 1_555
H7 O3 0.982644 1_555
H8 O4 0.982644 1_555
H9 O5 0.980755 1_555
H10 O3 0.988445 1_555
H11 O5 0.987009 1_555
H12 O7 0.988445 1_555
H13 O6 0.980755 1_555
H14 O7 0.982644 1_555
H15 O6 0.987009 1_554
O0 Sr0 2.698989 1_555
O0 Sr3 2.719416 1_555
O1 Sr2 2.661408 1_544
O2 Sr3 2.661408 1_565
O3 Sr2 2.698989 1_655
O3 Sr1 2.719416 1_556
O4 Sr1 2.698989 1_455
O4 Sr2 2.719416 1_554
O5 Sr0 2.661408 1_545
O6 Sr1 2.661408 1_566
O7 Sr3 2.698989 1_555
O7 Sr0 2.719416 1_555
F0 Ti0 1.908291 1_655
F0 Sr1 2.495423 1_556
F1 Ti0 1.876549 1_555
F1 Sr0 2.476870 1_555
F2 Ti1 1.892862 1_555
F3 Ti1 1.893846 1_555
F3 Sr3 2.483868 1_555
F4 Ti3 1.881114 1_455
F4 Sr0 2.520920 1_555
F5 Ti0 1.893846 1_555
F5 Sr2 2.483868 1_555
F6 Ti3 1.915022 1_555
F6 Sr1 2.490392 1_565
F7 Ti0 1.892862 1_655
F8 Ti1 1.876549 1_555
F8 Sr1 2.476870 1_556
F9 Ti1 1.908291 1_555
F9 Sr0 2.495423 1_555
F10 Ti2 1.915022 1_555
F10 Sr0 2.490392 1_545
F11 Ti2 1.881114 1_555
F11 Sr1 2.520920 1_555
F12 Ti1 1.881114 1_555
F12 Sr2 2.520920 1_555
F13 Ti1 1.915022 1_555
F13 Sr3 2.490392 1_565
F14 Ti2 1.908291 1_555
F14 Sr3 2.495423 1_555
F15 Ti2 1.876549 1_555
F15 Sr2 2.476870 1_554
F16 Ti3 1.892862 1_455
F17 Ti0 1.915022 1_555
F17 Sr2 2.490392 1_545
F18 Ti3 1.893846 1_555
F18 Sr1 2.483868 1_555
F19 Ti0 1.881114 1_655
F19 Sr3 2.520920 1_555
F20 Ti2 1.893846 1_555
F20 Sr0 2.483868 1_555
F21 Ti2 1.892862 1_555
F22 Ti3 1.876549 1_555
F22 Sr3 2.476870 1_555
F23 Ti3 1.908291 1_455
F23 Sr2 2.495423 1_554
