# generated using pymatgen
data_Cs2MoSe4
_symmetry_space_group_name_H-M   'P 1'
_cell_length_a   7.54533652
_cell_length_b   10.52459549
_cell_length_c   13.29249043
_cell_angle_alpha   90.00000000
_cell_angle_beta   90.00000000
_cell_angle_gamma   90.00000000
_symmetry_Int_Tables_number   1
_chemical_formula_structural   Cs2MoSe4
_chemical_formula_sum   'Cs8 Mo4 Se16'
_cell_volume   1055.57812855
_cell_formula_units_Z   4
loop_
 _symmetry_equiv_pos_site_id
 _symmetry_equiv_pos_as_xyz
  1  'x, y, z'
loop_
 _atom_site_type_symbol
 _atom_site_label
 _atom_site_symmetry_multiplicity
 _atom_site_fract_x
 _atom_site_fract_y
 _atom_site_fract_z
 _atom_site_occupancy
  Cs  Cs0  1  0.75000000  0.45724385  0.66226967  1
  Cs  Cs1  1  0.25000000  0.04275615  0.16226967  1
  Cs  Cs2  1  0.75000000  0.95724385  0.83773033  1
  Cs  Cs3  1  0.25000000  0.54275615  0.33773033  1
  Cs  Cs4  1  0.75000000  0.16179020  0.39206373  1
  Cs  Cs5  1  0.25000000  0.33820980  0.89206373  1
  Cs  Cs6  1  0.75000000  0.66179020  0.10793627  1
  Cs  Cs7  1  0.25000000  0.83820980  0.60793627  1
  Mo  Mo0  1  0.75000000  0.25290848  0.07598950  1
  Mo  Mo1  1  0.25000000  0.24709152  0.57598950  1
  Mo  Mo2  1  0.75000000  0.75290848  0.42401050  1
  Mo  Mo3  1  0.25000000  0.74709152  0.92401050  1
  Se  Se0  1  0.75000000  0.28662045  0.90404396  1
  Se  Se1  1  0.25000000  0.21337955  0.40404396  1
  Se  Se2  1  0.75000000  0.78662045  0.59595604  1
  Se  Se3  1  0.25000000  0.71337955  0.09595604  1
  Se  Se4  1  0.75000000  0.53635159  0.38915335  1
  Se  Se5  1  0.25000000  0.96364841  0.88915335  1
  Se  Se6  1  0.75000000  0.03635159  0.11084665  1
  Se  Se7  1  0.25000000  0.46364841  0.61084665  1
  Se  Se8  1  0.00133621  0.15348242  0.64512613  1
  Se  Se9  1  -0.00133621  0.34651758  0.14512613  1
  Se  Se10  1  0.49866379  0.65348242  0.85487387  1
  Se  Se11  1  0.50133621  0.84651758  0.35487387  1
  Se  Se12  1  -0.00133621  0.84651758  0.35487387  1
  Se  Se13  1  0.00133621  0.65348242  0.85487387  1
  Se  Se14  1  0.50133621  0.34651758  0.14512613  1
  Se  Se15  1  0.49866379  0.15348242  0.64512613  1
loop_
_geom_bond_atom_site_label_1
_geom_bond_atom_site_label_2
_geom_bond_distance
_geom_bond_site_symmetry_2
Cs0 Se2 3.576870 1_555
Cs0 Se0 3.681452 1_555
Cs0 Se8 3.724099 1_655
Cs0 Se15 3.724099 1_555
Cs0 Se4 3.724642 1_555
Cs0 Se10 3.796914 1_555
Cs0 Se13 3.796914 1_655
Cs0 Se7 3.834683 1_655
Cs0 Se7 3.834683 1_555
Cs1 Se3 3.576870 1_545
Cs1 Se1 3.681452 1_555
Cs1 Se14 3.724099 1_555
Cs1 Se9 3.724099 1_555
Cs1 Se5 3.724642 1_544
Cs1 Se12 3.796914 1_545
Cs1 Se11 3.796914 1_545
Cs1 Se6 3.834683 1_555
Cs1 Se6 3.834683 1_455
Cs2 Se0 3.576870 1_565
Cs2 Se2 3.681452 1_555
Cs2 Se10 3.724099 1_555
Cs2 Se13 3.724099 1_655
Cs2 Se6 3.724642 1_566
Cs2 Se15 3.796914 1_565
Cs2 Se8 3.796914 1_665
Cs2 Se5 3.834683 1_555
Cs2 Se5 3.834683 1_655
Cs3 Se1 3.576870 1_555
Cs3 Se3 3.681452 1_555
Cs3 Se11 3.724099 1_555
Cs3 Se12 3.724099 1_555
Cs3 Se7 3.724642 1_555
Cs3 Se9 3.796914 1_555
Cs3 Se14 3.796914 1_555
Cs3 Se4 3.834683 1_555
Cs3 Se4 3.834683 1_455
Cs4 Se1 3.814864 1_655
Cs4 Se1 3.814864 1_555
Cs4 Se11 3.843774 1_545
Cs4 Se12 3.843774 1_645
Cs4 Se15 3.862562 1_555
Cs4 Se8 3.862562 1_655
Cs4 Se4 3.942297 1_555
Cs4 Se6 3.964355 1_555
Cs4 Se14 4.251401 1_555
Cs4 Se9 4.251401 1_655
Cs5 Se0 3.814864 1_455
Cs5 Se0 3.814864 1_555
Cs5 Se10 3.843774 1_555
Cs5 Se13 3.843774 1_555
Cs5 Se9 3.862562 1_556
Cs5 Se14 3.862562 1_556
Cs5 Se5 3.942297 1_545
Cs5 Se7 3.964355 1_555
Cs5 Se8 4.251401 1_555
Cs5 Se15 4.251401 1_555
Cs6 Se3 3.814864 1_655
Cs6 Se3 3.814864 1_555
Cs6 Se14 3.843774 1_555
Cs6 Se9 3.843774 1_655
Cs6 Se10 3.862562 1_554
Cs6 Se13 3.862562 1_654
Cs6 Se6 3.942297 1_565
Cs6 Se4 3.964355 1_555
Cs6 Se11 4.251401 1_555
Cs6 Se12 4.251401 1_655
Cs7 Se2 3.814864 1_555
Cs7 Se2 3.814864 1_455
Cs7 Se15 3.843774 1_565
Cs7 Se8 3.843774 1_565
Cs7 Se12 3.862562 1_555
Cs7 Se11 3.862562 1_555
Cs7 Se7 3.942297 1_555
Cs7 Se5 3.964355 1_555
Cs7 Se13 4.251401 1_555
Cs7 Se10 4.251401 1_555
Mo0 Se14 2.309869 1_555
Mo0 Se9 2.309869 1_655
Mo0 Se0 2.312960 1_554
Mo0 Se6 2.325793 1_555
Mo1 Se8 2.309869 1_555
Mo1 Se15 2.309869 1_555
Mo1 Se1 2.312960 1_555
Mo1 Se7 2.325793 1_555
Mo2 Se11 2.309869 1_555
Mo2 Se12 2.309869 1_655
Mo2 Se2 2.312960 1_555
Mo2 Se4 2.325793 1_555
Mo3 Se13 2.309869 1_555
Mo3 Se10 2.309869 1_555
Mo3 Se3 2.312960 1_556
Mo3 Se5 2.325793 1_555
