# generated using pymatgen
data_PuO2
_symmetry_space_group_name_H-M   'P 1'
_cell_length_a   5.05328220
_cell_length_b   5.05328220
_cell_length_c   3.59050926
_cell_angle_alpha   90.00000000
_cell_angle_beta   90.00000000
_cell_angle_gamma   89.99825276
_symmetry_Int_Tables_number   1
_chemical_formula_structural   PuO2
_chemical_formula_sum   'Pu2 O4'
_cell_volume   91.68602723
_cell_formula_units_Z   2
loop_
 _symmetry_equiv_pos_site_id
 _symmetry_equiv_pos_as_xyz
  1  'x, y, z'
loop_
 _atom_site_type_symbol
 _atom_site_label
 _atom_site_symmetry_multiplicity
 _atom_site_fract_x
 _atom_site_fract_y
 _atom_site_fract_z
 _atom_site_occupancy
  Pu  Pu0  1  0.50000000  0.50000000  -0.00000000  1
  Pu  Pu1  1  0.00000000  0.00000000  0.50000000  1
  O  O0  1  0.81101148  0.81101148  0.00000000  1
  O  O1  1  0.18898852  0.18898852  0.00000000  1
  O  O2  1  0.68897520  0.31102480  0.50000000  1
  O  O3  1  0.31102480  0.68897520  0.50000000  1
loop_
_geom_bond_atom_site_label_1
_geom_bond_atom_site_label_2
_geom_bond_distance
_geom_bond_site_symmetry_2
O0 Pu0 2.222653 1_555
O0 Pu1 2.246573 1_665
O0 Pu1 2.246573 1_664
O1 Pu0 2.222653 1_555
O1 Pu1 2.246573 1_555
O1 Pu1 2.246573 1_554
O2 Pu1 2.222680 1_655
O2 Pu0 2.246491 1_555
O2 Pu0 2.246491 1_556
O3 Pu1 2.222680 1_565
O3 Pu0 2.246491 1_555
O3 Pu0 2.246491 1_556
