# generated using pymatgen
data_LuGaCu2
_symmetry_space_group_name_H-M   'P 1'
_cell_length_a   4.48203593
_cell_length_b   4.48203593
_cell_length_c   4.48203593
_cell_angle_alpha   60.00000000
_cell_angle_beta   60.00000000
_cell_angle_gamma   60.00000000
_symmetry_Int_Tables_number   1
_chemical_formula_structural   LuGaCu2
_chemical_formula_sum   'Lu1 Ga1 Cu2'
_cell_volume   63.66650408
_cell_formula_units_Z   1
loop_
 _symmetry_equiv_pos_site_id
 _symmetry_equiv_pos_as_xyz
  1  'x, y, z'
loop_
 _atom_site_type_symbol
 _atom_site_label
 _atom_site_symmetry_multiplicity
 _atom_site_fract_x
 _atom_site_fract_y
 _atom_site_fract_z
 _atom_site_occupancy
  Lu  Lu0  1  0.00000000  0.00000000  0.00000000  1
  Ga  Ga0  1  0.50000000  0.50000000  0.50000000  1
  Cu  Cu0  1  0.75000000  0.75000000  0.75000000  1
  Cu  Cu1  1  0.25000000  0.25000000  0.25000000  1
loop_
_geom_bond_atom_site_label_1
_geom_bond_atom_site_label_2
_geom_bond_distance
_geom_bond_site_symmetry_2
Ga0 Lu0 3.169278 1_665
Ga0 Lu0 3.169278 1_656
Ga0 Lu0 3.169278 1_556
Ga0 Lu0 3.169278 1_655
Ga0 Lu0 3.169278 1_566
Ga0 Lu0 3.169278 1_565
Cu0 Ga0 2.744675 1_565
Cu0 Lu0 2.744675 1_566
Cu0 Ga0 2.744675 1_555
Cu0 Lu0 2.744675 1_665
Cu0 Lu0 2.744675 1_666
Cu0 Ga0 2.744675 1_655
Cu0 Ga0 2.744675 1_556
Cu0 Lu0 2.744675 1_656
Cu1 Lu0 2.744675 1_555
Cu1 Lu0 2.744675 1_655
Cu1 Lu0 2.744675 1_565
Cu1 Ga0 2.744675 1_555
Cu1 Ga0 2.744675 1_545
Cu1 Ga0 2.744675 1_455
Cu1 Lu0 2.744675 1_556
Cu1 Ga0 2.744675 1_554
