# generated using pymatgen
data_VBr3
_symmetry_space_group_name_H-M   'P 1'
_cell_length_a   9.94268320
_cell_length_b   9.94268320
_cell_length_c   3.36349500
_cell_angle_alpha   90.00000000
_cell_angle_beta   90.00000000
_cell_angle_gamma   119.99999466
_symmetry_Int_Tables_number   1
_chemical_formula_structural   VBr3
_chemical_formula_sum   'V2 Br6'
_cell_volume   287.95766617
_cell_formula_units_Z   2
loop_
 _symmetry_equiv_pos_site_id
 _symmetry_equiv_pos_as_xyz
  1  'x, y, z'
loop_
 _atom_site_type_symbol
 _atom_site_label
 _atom_site_symmetry_multiplicity
 _atom_site_fract_x
 _atom_site_fract_y
 _atom_site_fract_z
 _atom_site_occupancy
  V  V0  1  0.33333300  0.66666700  0.75000000  1
  V  V1  1  0.66666700  0.33333300  0.25000000  1
  Br  Br0  1  0.22097600  0.44195100  0.25000000  1
  Br  Br1  1  0.55804900  0.77902400  0.25000000  1
  Br  Br2  1  0.22097600  0.77902400  0.25000000  1
  Br  Br3  1  0.77902400  0.55804900  0.75000000  1
  Br  Br4  1  0.44195100  0.22097600  0.75000000  1
  Br  Br5  1  0.77902400  0.22097600  0.75000000  1
loop_
_geom_bond_atom_site_label_1
_geom_bond_atom_site_label_2
_geom_bond_distance
_geom_bond_site_symmetry_2
Br0 V0 2.563646 1_555
Br0 V0 2.563646 1_554
Br1 V0 2.563646 1_555
Br1 V0 2.563646 1_554
Br2 V0 2.563633 1_554
Br2 V0 2.563633 1_555
Br3 V1 2.563646 1_555
Br3 V1 2.563646 1_556
Br4 V1 2.563646 1_555
Br4 V1 2.563646 1_556
Br5 V1 2.563633 1_556
Br5 V1 2.563633 1_555
