# generated using pymatgen
data_LiFeOF2
_symmetry_space_group_name_H-M   'P 1'
_cell_length_a   5.14643000
_cell_length_b   5.53072605
_cell_length_c   8.93491499
_cell_angle_alpha   106.33940922
_cell_angle_beta   88.54316333
_cell_angle_gamma   117.19116670
_symmetry_Int_Tables_number   1
_chemical_formula_structural   LiFeOF2
_chemical_formula_sum   'Li4 Fe4 O4 F8'
_cell_volume   215.48667751
_cell_formula_units_Z   4
loop_
 _symmetry_equiv_pos_site_id
 _symmetry_equiv_pos_as_xyz
  1  'x, y, z'
loop_
 _atom_site_type_symbol
 _atom_site_label
 _atom_site_symmetry_multiplicity
 _atom_site_fract_x
 _atom_site_fract_y
 _atom_site_fract_z
 _atom_site_occupancy
  Li  Li0  1  0.02540700  0.73943900  0.67399800  1
  Li  Li1  1  0.97470000  0.28530700  0.32548200  1
  Li  Li2  1  0.45905800  0.34832100  0.79034100  1
  Li  Li3  1  0.30907800  0.69835000  0.42896100  1
  Fe  Fe0  1  0.73461900  0.29086800  0.58349300  1
  Fe  Fe1  1  0.23019800  0.23362700  0.09630600  1
  Fe  Fe2  1  0.53915000  0.73078200  0.16365700  1
  Fe  Fe3  1  0.76817600  0.67168900  0.92927800  1
  O  O0  1  0.76800600  0.82571800  0.72604700  1
  O  O1  1  0.28701600  0.79029500  0.21977400  1
  O  O2  1  0.64018000  0.52571200  0.10631200  1
  O  O3  1  0.80798200  0.19811700  0.04325800  1
  F  F0  1  0.79608700  0.48244100  0.37643000  1
  F  F1  1  0.73184100  0.78149700  0.48140500  1
  F  F2  1  0.20845000  0.83922500  0.96370400  1
  F  F3  1  0.30394900  0.19470300  0.53649800  1
  F  F4  1  0.30561400  0.48758800  0.88076400  1
  F  F5  1  0.16448200  0.50445100  0.61277600  1
  F  F6  1  0.71542200  0.18230800  0.78228200  1
  F  F7  1  0.23058400  0.18955900  0.27923400  1
loop_
_geom_bond_atom_site_label_1
_geom_bond_atom_site_label_2
_geom_bond_distance
_geom_bond_site_symmetry_2
Li0 O0 1.618742 1_455
Li3 O1 2.088838 1_555
Fe1 O2 1.970468 1_555
Fe1 O3 2.143530 1_455
Fe2 O2 1.420450 1_555
Fe2 O1 1.519171 1_555
Fe3 Li2 1.876543 1_555
Fe3 O2 1.940954 1_556
Fe3 O0 2.212278 1_555
F0 Li1 1.690072 1_555
F0 Li3 2.341508 1_655
F1 Li3 2.044747 1_555
F2 Fe3 2.010846 1_455
F2 Fe1 2.122247 1_566
F3 Fe0 2.053287 1_555
F3 Li2 2.211602 1_555
F4 Li2 1.429316 1_555
F4 Fe3 2.116723 1_555
F5 Li0 1.711969 1_555
F5 Fe0 1.955799 1_455
F5 Li3 2.144925 1_555
F6 Li2 1.911551 1_555
F6 Fe0 2.015419 1_555
F7 Li1 1.634602 1_455
F7 Fe1 1.719177 1_555
