# generated using pymatgen
data_RbNa2BO3
_symmetry_space_group_name_H-M   'P 1'
_cell_length_a   5.63031900
_cell_length_b   5.74036600
_cell_length_c   6.19913600
_cell_angle_alpha   90.00000000
_cell_angle_beta   90.00000000
_cell_angle_gamma   90.00000000
_symmetry_Int_Tables_number   1
_chemical_formula_structural   RbNa2BO3
_chemical_formula_sum   'Rb2 Na4 B2 O6'
_cell_volume   200.35664433
_cell_formula_units_Z   2
loop_
 _symmetry_equiv_pos_site_id
 _symmetry_equiv_pos_as_xyz
  1  'x, y, z'
loop_
 _atom_site_type_symbol
 _atom_site_label
 _atom_site_symmetry_multiplicity
 _atom_site_fract_x
 _atom_site_fract_y
 _atom_site_fract_z
 _atom_site_occupancy
  Rb  Rb0  1  0.89368300  0.50000000  0.50000000  1
  Rb  Rb1  1  0.10631700  0.00000000  0.00000000  1
  Na  Na0  1  0.36486100  0.50000000  0.76900000  1
  Na  Na1  1  0.36486100  0.50000000  0.23100000  1
  Na  Na2  1  0.63513900  0.00000000  0.73100000  1
  Na  Na3  1  0.63513900  0.00000000  0.26900000  1
  B  B0  1  0.78659700  0.50000000  0.00000000  1
  B  B1  1  0.21340300  0.00000000  0.50000000  1
  O  O0  1  0.65600400  0.29063400  0.00000000  1
  O  O1  1  0.34399600  0.20936600  0.50000000  1
  O  O2  1  0.03364500  0.50000000  0.00000000  1
  O  O3  1  0.96635500  0.00000000  0.50000000  1
  O  O4  1  0.34399600  0.79063400  0.50000000  1
  O  O5  1  0.65600400  0.70936600  0.00000000  1
loop_
_geom_bond_atom_site_label_1
_geom_bond_atom_site_label_2
_geom_bond_distance
_geom_bond_site_symmetry_2
Na0 O2 2.351233 1_556
Na0 O4 2.361770 1_555
Na0 O1 2.361770 1_555
Na0 O5 2.486384 1_556
Na0 O0 2.486384 1_556
Na1 O2 2.351233 1_555
Na1 O4 2.361770 1_555
Na1 O1 2.361770 1_555
Na1 O5 2.486384 1_555
Na1 O0 2.486384 1_555
Na2 O3 2.351233 1_555
Na2 O0 2.361770 1_556
Na2 O5 2.361770 1_546
Na2 O1 2.486384 1_555
Na2 O4 2.486384 1_545
Na3 O3 2.351233 1_555
Na3 O0 2.361770 1_555
Na3 O5 2.361770 1_545
Na3 O4 2.486384 1_545
Na3 O1 2.486384 1_555
B0 O2 1.390959 1_655
B0 O5 1.408918 1_555
B0 O0 1.408918 1_555
B1 O3 1.390959 1_455
B1 O1 1.408918 1_555
B1 O4 1.408918 1_545
O2 Rb1 2.899201 1_555
O2 Rb1 2.899201 1_565
O3 Rb0 2.899201 1_555
O3 Rb0 2.899201 1_545
