# generated using pymatgen
data_Na7Cr2O6
_symmetry_space_group_name_H-M   'P 1'
_cell_length_a   8.07495707
_cell_length_b   8.07495707
_cell_length_c   10.61940105
_cell_angle_alpha   76.00978777
_cell_angle_beta   76.00978777
_cell_angle_gamma   42.44944407
_symmetry_Int_Tables_number   1
_chemical_formula_structural   Na7Cr2O6
_chemical_formula_sum   'Na14 Cr4 O12'
_cell_volume   451.36219646
_cell_formula_units_Z   2
loop_
 _symmetry_equiv_pos_site_id
 _symmetry_equiv_pos_as_xyz
  1  'x, y, z'
loop_
 _atom_site_type_symbol
 _atom_site_label
 _atom_site_symmetry_multiplicity
 _atom_site_fract_x
 _atom_site_fract_y
 _atom_site_fract_z
 _atom_site_occupancy
  Na  Na0  1  0.29962100  0.58176200  0.14919500  1
  Na  Na1  1  0.42159600  0.24253100  0.40535200  1
  Na  Na2  1  0.58176200  0.29962100  0.64919500  1
  Na  Na3  1  0.81333600  0.73465300  0.30902500  1
  Na  Na4  1  0.24253100  0.42159600  0.90535200  1
  Na  Na5  1  0.26534700  0.18666400  0.19097500  1
  Na  Na6  1  0.73465300  0.81333600  0.80902500  1
  Na  Na7  1  0.75746900  0.57840400  0.09464800  1
  Na  Na8  1  0.18666400  0.26534700  0.69097500  1
  Na  Na9  1  0.41823800  0.70037900  0.35080500  1
  Na  Na10  1  0.57840400  0.75746900  0.59464800  1
  Na  Na11  1  0.92584600  0.07415400  0.25000000  1
  Na  Na12  1  0.70037900  0.41823800  0.85080500  1
  Na  Na13  1  0.07415400  0.92584600  0.75000000  1
  Cr  Cr0  1  0.77386300  0.98846700  0.03978700  1
  Cr  Cr1  1  0.98846700  0.77386300  0.53978700  1
  Cr  Cr2  1  0.01153300  0.22613700  0.46021300  1
  Cr  Cr3  1  0.22613700  0.01153300  0.96021300  1
  O  O0  1  0.13372700  0.67202300  0.37538900  1
  O  O1  1  0.60050000  0.15444300  0.18652400  1
  O  O2  1  0.67202300  0.13372700  0.87538900  1
  O  O3  1  0.99364700  0.65536700  0.08013700  1
  O  O4  1  0.15444300  0.60050000  0.68652400  1
  O  O5  1  0.34463300  0.00635300  0.41986300  1
  O  O6  1  0.65536700  0.99364700  0.58013700  1
  O  O7  1  0.84555700  0.39950000  0.31347600  1
  O  O8  1  0.00635300  0.34463300  0.91986300  1
  O  O9  1  0.32797700  0.86627300  0.12461100  1
  O  O10  1  0.39950000  0.84555700  0.81347600  1
  O  O11  1  0.86627300  0.32797700  0.62461100  1
loop_
_geom_bond_atom_site_label_1
_geom_bond_atom_site_label_2
_geom_bond_distance
_geom_bond_site_symmetry_2
Na0 O1 2.323565 1_555
Na0 O3 2.343879 1_455
Na0 O9 2.419939 1_555
Na0 O0 2.438311 1_555
Na1 O6 2.310716 1_545
Na1 O0 2.336565 1_555
Na1 O5 2.368080 1_555
Na1 O1 2.377535 1_555
Na2 O4 2.323565 1_555
Na2 O6 2.343879 1_545
Na2 O11 2.419939 1_555
Na2 O2 2.438311 1_555
Na3 O3 2.470531 1_555
Na3 O0 2.494818 1_655
Na3 O7 2.509819 1_555
Na3 O1 2.547175 1_565
Na3 O5 2.713650 1_565
Na4 O3 2.310716 1_456
Na4 O2 2.336565 1_555
Na4 O8 2.368080 1_555
Na4 O4 2.377535 1_555
Na5 O5 2.470531 1_555
Na5 O9 2.494818 1_545
Na5 O1 2.509819 1_555
Na5 O7 2.547175 1_455
Na5 O3 2.713650 1_455
Na6 O6 2.470531 1_555
Na6 O2 2.494818 1_565
Na6 O10 2.509819 1_555
Na6 O4 2.547175 1_655
Na6 O8 2.713650 1_655
Na7 O8 2.310716 1_654
Na7 O9 2.336565 1_555
Na7 O3 2.368080 1_555
Na7 O7 2.377535 1_555
Na8 O8 2.470531 1_555
Na8 O11 2.494818 1_455
Na8 O4 2.509819 1_555
Na8 O10 2.547175 1_545
Na8 O6 2.713650 1_545
Na9 O7 2.323565 1_555
Na9 O5 2.343879 1_565
Na9 O0 2.419939 1_555
Na9 O9 2.438311 1_555
Na10 O5 2.310716 1_565
Na10 O11 2.336565 1_555
Na10 O6 2.368080 1_555
Na10 O10 2.377535 1_555
Na11 O1 2.430641 1_555
Na11 O7 2.430641 1_555
Na11 O9 2.466002 1_645
Na11 O0 2.466002 1_645
Na12 O10 2.323565 1_555
Na12 O8 2.343879 1_655
Na12 O2 2.419939 1_555
Na12 O11 2.438311 1_555
Na13 O4 2.430641 1_555
Na13 O10 2.430641 1_555
Na13 O11 2.466002 1_465
Na13 O2 2.466002 1_465
Cr0 O3 1.825898 1_555
Cr0 O1 1.835865 1_565
Cr0 O2 1.838616 1_564
Cr1 O6 1.825898 1_555
Cr1 O4 1.835865 1_655
Cr1 O0 1.838616 1_655
Cr2 O5 1.825898 1_555
Cr2 O7 1.835865 1_455
Cr2 O11 1.838616 1_455
Cr3 O8 1.825898 1_555
Cr3 O10 1.835865 1_545
Cr3 O9 1.838616 1_546
