# generated using pymatgen
data_Tm2OsRh
_symmetry_space_group_name_H-M   'P 1'
_cell_length_a   4.73130346
_cell_length_b   4.73130346
_cell_length_c   4.73130346
_cell_angle_alpha   60.00000000
_cell_angle_beta   60.00000000
_cell_angle_gamma   60.00000000
_symmetry_Int_Tables_number   1
_chemical_formula_structural   Tm2OsRh
_chemical_formula_sum   'Tm2 Os1 Rh1'
_cell_volume   74.89061796
_cell_formula_units_Z   1
loop_
 _symmetry_equiv_pos_site_id
 _symmetry_equiv_pos_as_xyz
  1  'x, y, z'
loop_
 _atom_site_type_symbol
 _atom_site_label
 _atom_site_symmetry_multiplicity
 _atom_site_fract_x
 _atom_site_fract_y
 _atom_site_fract_z
 _atom_site_occupancy
  Tm  Tm0  1  0.00000000  -0.00000000  -0.00000000  1
  Tm  Tm1  1  0.50000000  0.50000000  0.50000000  1
  Os  Os0  1  0.25000000  0.25000000  0.25000000  1
  Rh  Rh0  1  0.75000100  0.75000100  0.75000100  1
loop_
_geom_bond_atom_site_label_1
_geom_bond_atom_site_label_2
_geom_bond_distance
_geom_bond_site_symmetry_2
Os0 Tm0 2.897320 1_556
Os0 Tm1 2.897320 1_455
Os0 Tm1 2.897320 1_554
Os0 Tm1 2.897320 1_555
Os0 Tm1 2.897320 1_545
Os0 Tm0 2.897320 1_555
Os0 Tm0 2.897320 1_565
Os0 Tm0 2.897320 1_655
Rh0 Tm0 2.897308 1_666
Rh0 Tm1 2.897316 1_565
Rh0 Tm1 2.897316 1_655
Rh0 Tm1 2.897316 1_556
Rh0 Tm0 2.897324 1_665
Rh0 Tm0 2.897324 1_566
Rh0 Tm0 2.897324 1_656
Rh0 Tm1 2.897331 1_555
