# generated using pymatgen
data_MnRu3
_symmetry_space_group_name_H-M   'P 1'
_cell_length_a   5.38907772
_cell_length_b   5.38903242
_cell_length_c   4.30519587
_cell_angle_alpha   90.00000000
_cell_angle_beta   90.00000000
_cell_angle_gamma   119.99937229
_symmetry_Int_Tables_number   1
_chemical_formula_structural   MnRu3
_chemical_formula_sum   'Mn2 Ru6'
_cell_volume   108.28082016
_cell_formula_units_Z   2
loop_
 _symmetry_equiv_pos_site_id
 _symmetry_equiv_pos_as_xyz
  1  'x, y, z'
loop_
 _atom_site_type_symbol
 _atom_site_label
 _atom_site_symmetry_multiplicity
 _atom_site_fract_x
 _atom_site_fract_y
 _atom_site_fract_z
 _atom_site_occupancy
  Mn  Mn0  1  0.66667863  0.33330784  0.25000000  1
  Mn  Mn1  1  0.33331637  0.66668516  0.75000000  1
  Ru  Ru0  1  0.83247764  0.16751232  0.75000000  1
  Ru  Ru1  1  0.33503468  0.16750206  0.75000000  1
  Ru  Ru2  1  0.83249913  0.66497520  0.75000000  1
  Ru  Ru3  1  0.16752236  0.83248768  0.25000000  1
  Ru  Ru4  1  0.66496532  0.83249994  0.25000000  1
  Ru  Ru5  1  0.16750387  0.33502080  0.25000000  1
loop_
_geom_bond_atom_site_label_1
_geom_bond_atom_site_label_2
_geom_bond_distance
_geom_bond_site_symmetry_2
Mn0 Ru0 2.651158 1_554
Mn0 Ru0 2.651158 1_555
Mn0 Ru1 2.651305 1_555
Mn0 Ru1 2.651305 1_554
Mn0 Ru2 2.651361 1_555
Mn0 Ru2 2.651361 1_554
Mn0 Ru4 2.694265 1_545
Mn0 Ru5 2.694382 1_655
Mn0 Ru3 2.694501 1_545
Mn0 Ru3 2.694628 1_655
Mn0 Ru5 2.694719 1_555
Mn0 Ru4 2.694791 1_555
Mn1 Ru3 2.651164 1_555
Mn1 Ru3 2.651164 1_556
Mn1 Ru4 2.651319 1_555
Mn1 Ru4 2.651319 1_556
Mn1 Ru5 2.651353 1_556
Mn1 Ru5 2.651353 1_555
Mn1 Ru1 2.694300 1_565
Mn1 Ru2 2.694347 1_455
Mn1 Ru0 2.694533 1_565
Mn1 Ru0 2.694596 1_455
Mn1 Ru2 2.694754 1_555
Mn1 Ru1 2.694756 1_555
Ru0 Ru4 2.660506 1_546
Ru0 Ru4 2.660506 1_545
Ru0 Ru5 2.660551 1_656
Ru0 Ru5 2.660551 1_655
Ru0 Ru1 2.680731 1_555
Ru0 Ru2 2.680786 1_555
Ru0 Ru2 2.708247 1_545
Ru0 Ru1 2.708347 1_655
Ru1 Ru3 2.660511 1_545
Ru1 Ru3 2.660511 1_546
Ru1 Ru5 2.660603 1_555
Ru1 Ru5 2.660603 1_556
Ru1 Ru2 2.680912 1_555
Ru1 Ru2 2.708194 1_445
Ru2 Ru3 2.660543 1_655
Ru2 Ru3 2.660543 1_656
Ru2 Ru4 2.660627 1_556
Ru2 Ru4 2.660627 1_555
Ru3 Ru4 2.680726 1_555
Ru3 Ru5 2.680815 1_555
Ru3 Ru5 2.708217 1_565
Ru3 Ru4 2.708352 1_455
Ru4 Ru5 2.680920 1_555
Ru4 Ru5 2.708186 1_665
