# generated using pymatgen
data_Li6MnV3(PO4)6
_symmetry_space_group_name_H-M   'P 1'
_cell_length_a   8.53359400
_cell_length_b   8.82572980
_cell_length_c   12.39380376
_cell_angle_alpha   90.26049644
_cell_angle_beta   92.63905390
_cell_angle_gamma   91.13865731
_symmetry_Int_Tables_number   1
_chemical_formula_structural   Li6MnV3(PO4)6
_chemical_formula_sum   'Li12 Mn2 V6 P12 O48'
_cell_volume   932.25368514
_cell_formula_units_Z   2
loop_
 _symmetry_equiv_pos_site_id
 _symmetry_equiv_pos_as_xyz
  1  'x, y, z'
loop_
 _atom_site_type_symbol
 _atom_site_label
 _atom_site_symmetry_multiplicity
 _atom_site_fract_x
 _atom_site_fract_y
 _atom_site_fract_z
 _atom_site_occupancy
  Li  Li0  1  0.00125200  0.00397700  0.00407600  1
  Li  Li1  1  0.00067000  0.90476900  0.24830400  1
  Li  Li2  1  0.00002700  0.00144100  0.49936000  1
  Li  Li3  1  0.00134200  0.10040400  0.74974800  1
  Li  Li4  1  0.70836400  0.19443200  0.04879900  1
  Li  Li5  1  0.70854600  0.80579400  0.54697200  1
  Li  Li6  1  0.49287200  0.49749300  0.00116400  1
  Li  Li7  1  0.50072000  0.59555100  0.24906500  1
  Li  Li8  1  0.49892900  0.49909200  0.49992100  1
  Li  Li9  1  0.49316200  0.39998900  0.75189600  1
  Li  Li10  1  0.29109900  0.19468400  0.45070900  1
  Li  Li11  1  0.29572500  0.80861200  0.95239200  1
  Mn  Mn0  1  0.28726500  0.00044700  0.14337400  1
  Mn  Mn1  1  0.21118100  0.50321200  0.85214100  1
  V  V0  1  0.78777800  0.50135700  0.14423400  1
  V  V1  1  0.78689900  0.49933200  0.64410300  1
  V  V2  1  0.71621600  0.00271100  0.35773000  1
  V  V3  1  0.71516400  0.99601600  0.85911700  1
  V  V4  1  0.28243800  0.99697500  0.64197900  1
  V  V5  1  0.21260700  0.49909300  0.35578800  1
  P  P0  1  0.99507000  0.20365700  0.24802700  1
  P  P1  1  0.99907600  0.80054800  0.75146100  1
  P  P2  1  0.84569700  0.64474600  0.39596600  1
  P  P3  1  0.84840500  0.35698700  0.89512000  1
  P  P4  1  0.65158100  0.84991700  0.10082500  1
  P  P5  1  0.64915400  0.14574600  0.60381500  1
  P  P6  1  0.49847100  0.29046600  0.24936800  1
  P  P7  1  0.49613200  0.70582900  0.74772600  1
  P  P8  1  0.34921600  0.85340200  0.39711600  1
  P  P9  1  0.35392500  0.14604000  0.89838400  1
  P  P10  1  0.16029900  0.64710600  0.10679500  1
  P  P11  1  0.15616600  0.35349100  0.60326200  1
  O  O0  1  0.99091400  0.59118000  0.10354700  1
  O  O1  1  0.98982200  0.41126600  0.60662900  1
  O  O2  1  0.92967000  0.09710900  0.33779900  1
  O  O3  1  0.92903100  0.91211000  0.83443200  1
  O  O4  1  0.86822400  0.30101300  0.19240100  1
  O  O5  1  0.87222900  0.70243000  0.69083900  1
  O  O6  1  0.85643100  0.82215100  0.41119900  1
  O  O7  1  0.85614800  0.18035000  0.90822200  1
  O  O8  1  0.75061800  0.59589200  0.29212600  1
  O  O9  1  0.75306400  0.93636700  0.01778100  1
  O  O10  1  0.74693200  0.58985100  0.49245800  1
  O  O11  1  0.75469300  0.40623600  0.79221900  1
  O  O12  1  0.74610000  0.06134600  0.51946900  1
  O  O13  1  0.72438400  0.90255900  0.21201000  1
  O  O14  1  0.75381400  0.40935700  0.99256600  1
  O  O15  1  0.72240000  0.09647500  0.71390100  1
  O  O16  1  0.65904400  0.67453700  0.08814600  1
  O  O17  1  0.65482100  0.32081200  0.58958400  1
  O  O18  1  0.61463500  0.19265500  0.31241400  1
  O  O19  1  0.61868500  0.80099600  0.81251000  1
  O  O20  1  0.56943200  0.39746900  0.16298100  1
  O  O21  1  0.56651700  0.59485700  0.66498500  1
  O  O22  1  0.52613600  0.89385600  0.40840000  1
  O  O23  1  0.52892600  0.10117000  0.91010100  1
  O  O24  1  0.47684400  0.88470600  0.08469100  1
  O  O25  1  0.47223600  0.10567000  0.59129200  1
  O  O26  1  0.42786400  0.39794800  0.33467500  1
  O  O27  1  0.42073700  0.60225400  0.83617300  1
  O  O28  1  0.37618500  0.19228700  0.18432100  1
  O  O29  1  0.38058300  0.80401700  0.68482400  1
  O  O30  1  0.34519500  0.67833000  0.41097600  1
  O  O31  1  0.35778900  0.32045400  0.91166400  1
  O  O32  1  0.27155200  0.90628800  0.28900000  1
  O  O33  1  0.25909800  0.59921600  0.01109800  1
  O  O34  1  0.27602500  0.09586500  0.78797300  1
  O  O35  1  0.25297400  0.93650200  0.48262600  1
  O  O36  1  0.25046800  0.59804700  0.21086900  1
  O  O37  1  0.25180500  0.40846200  0.50569200  1
  O  O38  1  0.25450600  0.05775600  0.98145500  1
  O  O39  1  0.25574700  0.39824300  0.70545800  1
  O  O40  1  0.14739900  0.82654000  0.09703600  1
  O  O41  1  0.14270000  0.17637600  0.58693200  1
  O  O42  1  0.12721500  0.29742800  0.30666100  1
  O  O43  1  0.12600300  0.71344000  0.81398000  1
  O  O44  1  0.05289400  0.09291500  0.16151900  1
  O  O45  1  0.06507300  0.90960400  0.66377800  1
  O  O46  1  0.01222100  0.58857900  0.39574700  1
  O  O47  1  0.01876700  0.41371000  0.89610100  1
loop_
_geom_bond_atom_site_label_1
_geom_bond_atom_site_label_2
_geom_bond_distance
_geom_bond_site_symmetry_2
Li0 O44 2.123940 1_555
Li0 O9 2.203267 1_445
Li0 O38 2.234002 1_554
Li0 O40 2.301500 1_545
Li0 O3 2.302863 1_444
Li0 O7 2.307735 1_454
Li1 O44 2.035641 1_565
Li1 O2 2.136509 1_465
Li1 O32 2.342946 1_555
Li1 O13 2.379487 1_455
Li1 O40 2.407923 1_555
Li1 O6 2.515791 1_455
Li2 O41 2.198274 1_555
Li2 O6 2.232322 1_445
Li2 O2 2.237773 1_455
Li2 O45 2.246394 1_545
Li2 O35 2.262772 1_545
Li2 O12 2.265217 1_455
Li3 O3 2.068521 1_445
Li3 O45 2.083312 1_545
Li3 O34 2.371114 1_555
Li3 O15 2.400829 1_455
Li3 O7 2.477287 1_455
Li3 O41 2.486161 1_555
Li4 O14 2.059598 1_554
Li4 O7 2.201828 1_554
Li4 O9 2.349655 1_545
Li4 O4 2.371416 1_555
Li4 O23 2.381559 1_554
Li4 O20 2.614428 1_555
Li5 O10 2.056587 1_555
Li5 O6 2.153048 1_555
Li5 O12 2.300911 1_565
Li5 O22 2.406391 1_555
Li5 O5 2.408042 1_555
Li6 O31 2.189874 1_554
Li6 O33 2.212175 1_555
Li6 O20 2.268624 1_555
Li6 O27 2.310665 1_554
Li6 O16 2.317412 1_555
Li6 O14 2.380102 1_554
Li7 O26 2.142035 1_555
Li7 O20 2.149365 1_555
Li7 O36 2.166570 1_555
Li7 O8 2.174266 1_555
Li7 O16 2.551927 1_555
Li7 O30 2.567578 1_555
Li8 O37 2.244896 1_555
Li8 O10 2.253990 1_555
Li8 O21 2.255757 1_555
Li8 O26 2.281782 1_555
Li8 O30 2.324627 1_555
Li8 O17 2.333102 1_555
Li9 O39 2.080259 1_555
Li9 O21 2.132174 1_555
Li9 O27 2.178541 1_555
Li9 O11 2.264039 1_555
Li9 O31 2.437059 1_555
Li9 O17 2.592161 1_555
Li10 O37 2.042332 1_555
Li10 O41 2.161361 1_555
Li10 O35 2.333480 1_545
Li10 O42 2.408450 1_555
Li10 O25 2.419718 1_555
Li10 O26 2.596792 1_555
Li11 O33 2.013123 1_556
Li11 O40 2.248386 1_556
Li11 O38 2.263568 1_565
Li11 O24 2.289940 1_556
Li11 O43 2.335753 1_555
Li11 O27 2.593195 1_555
Mn0 O28 1.898863 1_555
Mn0 O40 1.991544 1_545
Mn0 O32 1.999398 1_545
Mn0 O38 2.079514 1_554
Mn0 O24 2.087332 1_545
Mn0 O44 2.195750 1_555
Mn1 O47 1.910934 1_555
Mn1 O27 1.993284 1_555
Mn1 O43 2.055365 1_555
Mn1 O39 2.090512 1_555
Mn1 O33 2.159449 1_556
Mn1 O31 2.171905 1_555
O0 P10 1.516812 1_655
O0 V0 1.979195 1_555
O1 P11 1.520128 1_655
O1 V1 1.985636 1_555
O2 P0 1.574646 1_555
O2 V2 2.013974 1_555
O3 P1 1.566844 1_555
O3 V3 2.018881 1_555
O4 P0 1.535877 1_555
O4 V0 1.993544 1_555
O5 P1 1.538849 1_555
O5 V1 1.994644 1_555
O6 P2 1.576566 1_555
O6 V2 2.103021 1_565
O7 P3 1.570499 1_555
O7 V3 2.076142 1_545
O8 P2 1.544478 1_555
O8 V0 2.050976 1_555
O9 P4 1.566654 1_555
O9 V3 2.050924 1_554
O10 P2 1.567519 1_555
O10 V1 2.062129 1_555
O11 P3 1.542681 1_555
O11 V1 2.042473 1_555
O12 P5 1.558567 1_555
O12 V2 2.071075 1_555
O13 P4 1.550678 1_555
O13 V2 2.011819 1_565
O14 P3 1.556707 1_555
O14 V0 2.050202 1_556
O15 P5 1.542399 1_555
O15 V3 2.012880 1_545
O16 P4 1.557959 1_555
O16 V0 2.008050 1_555
O17 P5 1.555966 1_555
O17 V1 2.014683 1_555
O18 P6 1.518962 1_555
O18 V2 1.974500 1_555
O19 P7 1.524961 1_555
O19 V3 1.965925 1_555
O20 P6 1.565579 1_555
O20 V0 2.083356 1_555
O21 P7 1.562874 1_555
O21 V1 2.102489 1_555
O22 P8 1.544376 1_555
O22 V2 1.996452 1_565
O23 P9 1.553118 1_555
O23 V3 1.982965 1_545
O24 P4 1.532657 1_555
O25 P5 1.544418 1_555
O25 V4 1.993901 1_545
O26 P6 1.566205 1_555
O26 V5 2.084926 1_555
O27 P7 1.581740 1_555
O28 P6 1.539468 1_555
O29 P7 1.516686 1_555
O29 V4 1.976759 1_555
O30 P8 1.555309 1_555
O30 V5 2.024397 1_555
O31 P9 1.546899 1_555
O32 P8 1.545581 1_555
O33 P10 1.548510 1_555
O34 P9 1.552284 1_555
O34 V4 2.008829 1_545
O35 P8 1.559682 1_555
O35 V4 2.046463 1_555
O36 P10 1.539559 1_555
O36 V5 2.037049 1_555
O37 P11 1.563417 1_555
O37 V5 2.042142 1_555
O38 P9 1.564722 1_555
O39 P11 1.537984 1_555
O40 P10 1.594395 1_555
O41 P11 1.576549 1_555
O41 V4 2.098656 1_545
O42 P0 1.538385 1_455
O42 V5 1.991809 1_555
O43 P1 1.525076 1_455
O44 P0 1.551339 1_455
O45 P1 1.571270 1_455
O45 V4 2.024716 1_555
O46 P2 1.514417 1_455
O46 V5 1.980219 1_555
O47 P3 1.527644 1_455
