# generated using pymatgen
data_Cs2VAgS4
_symmetry_space_group_name_H-M   'P 1'
_cell_length_a   14.35757780
_cell_length_b   12.76447817
_cell_length_c   7.77633603
_cell_angle_alpha   85.01131182
_cell_angle_beta   62.33450548
_cell_angle_gamma   32.65418270
_symmetry_Int_Tables_number   1
_chemical_formula_structural   Cs2VAgS4
_chemical_formula_sum   'Cs4 V2 Ag2 S8'
_cell_volume   525.52253124
_cell_formula_units_Z   2
loop_
 _symmetry_equiv_pos_site_id
 _symmetry_equiv_pos_as_xyz
  1  'x, y, z'
loop_
 _atom_site_type_symbol
 _atom_site_label
 _atom_site_symmetry_multiplicity
 _atom_site_fract_x
 _atom_site_fract_y
 _atom_site_fract_z
 _atom_site_occupancy
  Cs  Cs0  1  0.67809600  0.67809600  0.32190400  1
  Cs  Cs1  1  0.32190400  0.32190400  0.67809600  1
  Cs  Cs2  1  0.92809600  0.92809600  0.57190400  1
  Cs  Cs3  1  0.57190400  0.57190400  0.92809600  1
  V  V0  1  0.75000000  0.75000000  0.75000000  1
  V  V1  1  0.50000000  0.50000000  0.50000000  1
  Ag  Ag0  1  0.00000000  0.00000000  0.00000000  1
  Ag  Ag1  1  0.25000000  0.25000000  0.25000000  1
  S  S0  1  0.40475500  0.99163100  0.91395800  1
  S  S1  1  0.68965700  0.91395800  0.99163100  1
  S  S2  1  0.91395800  0.68965700  0.40475500  1
  S  S3  1  0.99163100  0.40475500  0.68965700  1
  S  S4  1  0.25836900  0.84524500  0.56034300  1
  S  S5  1  0.56034300  0.33604200  0.25836900  1
  S  S6  1  0.33604200  0.56034300  0.84524500  1
  S  S7  1  0.84524500  0.25836900  0.33604200  1
loop_
_geom_bond_atom_site_label_1
_geom_bond_atom_site_label_2
_geom_bond_distance
_geom_bond_site_symmetry_2
Cs0 S3 3.548766 1_554
Cs0 S0 3.548773 1_555
Cs0 S7 3.601017 1_555
Cs0 S4 3.601019 1_555
Cs0 S1 3.845603 1_554
Cs0 S2 3.845607 1_555
Cs0 S3 3.981640 1_465
Cs0 S0 3.981642 1_644
Cs1 S1 3.548766 1_455
Cs1 S2 3.548769 1_545
Cs1 S6 3.601005 1_555
Cs1 S5 3.601009 1_555
Cs1 S3 3.845593 1_455
Cs1 S0 3.845597 1_545
Cs1 S1 3.981636 1_544
Cs1 S2 3.981643 1_456
Cs2 S5 3.548766 1_655
Cs2 S6 3.548769 1_565
Cs2 S2 3.601005 1_555
Cs2 S1 3.601009 1_555
Cs2 S4 3.845593 1_655
Cs2 S7 3.845597 1_565
Cs2 S5 3.981636 1_566
Cs2 S6 3.981643 1_654
Cs3 S4 3.548766 1_556
Cs3 S7 3.548773 1_555
Cs3 S0 3.601017 1_555
Cs3 S3 3.601019 1_555
Cs3 S5 3.845603 1_556
Cs3 S6 3.845607 1_555
Cs3 S4 3.981640 1_645
Cs3 S7 3.981642 1_466
Ag0 S7 2.531803 1_455
Ag0 S4 2.531809 1_544
Ag0 S6 2.531811 1_544
Ag0 S5 2.531813 1_455
Ag1 S0 2.531803 1_544
Ag1 S3 2.531809 1_455
Ag1 S2 2.531811 1_455
Ag1 S1 2.531813 1_544
S0 V0 2.186363 1_555
S1 V0 2.186375 1_555
S2 V0 2.186369 1_555
S3 V0 2.186366 1_555
S4 V1 2.186366 1_555
S5 V1 2.186375 1_555
S6 V1 2.186369 1_555
S7 V1 2.186363 1_555
