# generated using pymatgen
data_MgSc2Os
_symmetry_space_group_name_H-M   'P 1'
_cell_length_a   4.71349919
_cell_length_b   4.71349919
_cell_length_c   4.71349919
_cell_angle_alpha   60.00000000
_cell_angle_beta   60.00000000
_cell_angle_gamma   60.00000000
_symmetry_Int_Tables_number   1
_chemical_formula_structural   MgSc2Os
_chemical_formula_sum   'Mg1 Sc2 Os1'
_cell_volume   74.04833750
_cell_formula_units_Z   1
loop_
 _symmetry_equiv_pos_site_id
 _symmetry_equiv_pos_as_xyz
  1  'x, y, z'
loop_
 _atom_site_type_symbol
 _atom_site_label
 _atom_site_symmetry_multiplicity
 _atom_site_fract_x
 _atom_site_fract_y
 _atom_site_fract_z
 _atom_site_occupancy
  Mg  Mg0  1  0.25000000  0.25000000  0.25000000  1
  Sc  Sc0  1  0.00000000  -0.00000000  -0.00000000  1
  Sc  Sc1  1  0.49999900  0.49999900  0.49999900  1
  Os  Os0  1  0.75000100  0.75000100  0.75000100  1
loop_
_geom_bond_atom_site_label_1
_geom_bond_atom_site_label_2
_geom_bond_distance
_geom_bond_site_symmetry_2
Mg0 Sc1 2.886405 1_555
Mg0 Sc0 2.886417 1_555
Mg0 Sc0 2.886417 1_556
Mg0 Sc0 2.886417 1_565
Mg0 Sc0 2.886417 1_655
Mg0 Sc1 2.886421 1_554
Mg0 Sc1 2.886421 1_455
Mg0 Sc1 2.886421 1_545
Os0 Sc0 2.886405 1_666
Os0 Sc1 2.886409 1_565
Os0 Sc1 2.886409 1_655
Os0 Sc1 2.886409 1_556
Os0 Sc0 2.886421 1_656
Os0 Sc0 2.886421 1_665
Os0 Sc0 2.886421 1_566
Os0 Sc1 2.886440 1_555
