# generated using pymatgen
data_LiFe2F5
_symmetry_space_group_name_H-M   'P 1'
_cell_length_a   8.04713100
_cell_length_b   8.85784907
_cell_length_c   6.31558421
_cell_angle_alpha   91.08526194
_cell_angle_beta   101.25288266
_cell_angle_gamma   105.90952102
_symmetry_Int_Tables_number   1
_chemical_formula_structural   LiFe2F5
_chemical_formula_sum   'Li4 Fe8 F20'
_cell_volume   423.35611058
_cell_formula_units_Z   4
loop_
 _symmetry_equiv_pos_site_id
 _symmetry_equiv_pos_as_xyz
  1  'x, y, z'
loop_
 _atom_site_type_symbol
 _atom_site_label
 _atom_site_symmetry_multiplicity
 _atom_site_fract_x
 _atom_site_fract_y
 _atom_site_fract_z
 _atom_site_occupancy
  Li  Li0  1  0.43917500  0.79422600  0.20888200  1
  Li  Li1  1  0.16718900  0.30703400  0.21130200  1
  Li  Li2  1  0.83281100  0.69296600  0.78869800  1
  Li  Li3  1  0.56082500  0.20577400  0.79111800  1
  Fe  Fe0  1  0.79418600  0.54578700  0.18694600  1
  Fe  Fe1  1  0.79275500  0.04161200  0.16988900  1
  Fe  Fe2  1  0.58318000  0.33989700  0.39373500  1
  Fe  Fe3  1  0.11438000  0.85452800  0.39274800  1
  Fe  Fe4  1  0.88562000  0.14547200  0.60725200  1
  Fe  Fe5  1  0.41682000  0.66010300  0.60626500  1
  Fe  Fe6  1  0.20724500  0.95838800  0.83011100  1
  Fe  Fe7  1  0.20581400  0.45421300  0.81305400  1
  F  F0  1  0.76895000  0.74366600  0.00176400  1
  F  F1  1  0.73197700  0.25398500  0.00161100  1
  F  F2  1  0.26802300  0.74601500  0.99838900  1
  F  F3  1  0.23105000  0.25633400  0.99823600  1
  F  F4  1  0.57678300  0.55934300  0.22231400  1
  F  F5  1  0.86682500  0.86908700  0.39180000  1
  F  F6  1  0.57192200  0.04667500  0.21894100  1
  F  F7  1  0.82734300  0.32602900  0.38473000  1
  F  F8  1  0.03333500  0.55307700  0.23276500  1
  F  F9  1  0.34520600  0.83066200  0.39794400  1
  F  F10  1  0.03704200  0.05928600  0.21743300  1
  F  F11  1  0.35389900  0.38098700  0.40425300  1
  F  F12  1  0.64610100  0.61901300  0.59574700  1
  F  F13  1  0.96295800  0.94071400  0.78256700  1
  F  F14  1  0.65479400  0.16933800  0.60205600  1
  F  F15  1  0.96666500  0.44692300  0.76723500  1
  F  F16  1  0.17265700  0.67397100  0.61527000  1
  F  F17  1  0.42807800  0.95332500  0.78105900  1
  F  F18  1  0.13317500  0.13091300  0.60820000  1
  F  F19  1  0.42321700  0.44065700  0.77768600  1
loop_
_geom_bond_atom_site_label_1
_geom_bond_atom_site_label_2
_geom_bond_distance
_geom_bond_site_symmetry_2
F0 Li2 1.627892 1_554
F0 Fe0 2.159027 1_555
F1 Li3 1.669733 1_554
F1 Fe1 2.298863 1_555
F2 Li0 1.669733 1_556
F2 Fe6 2.298863 1_555
F3 Li1 1.627892 1_556
F3 Fe7 2.159027 1_555
F4 Fe0 1.841636 1_555
F4 Fe2 2.250774 1_555
F5 Fe3 2.030118 1_655
F5 Fe1 2.215707 1_565
F6 Fe1 1.874564 1_555
F6 Li0 2.191822 1_545
F7 Fe2 2.013573 1_555
F7 Fe4 2.234275 1_555
F7 Fe0 2.380643 1_555
F8 Fe0 1.872241 1_455
F9 Li0 1.604146 1_555
F9 Fe3 1.920359 1_555
F9 Fe5 2.145290 1_555
F10 Fe1 1.891614 1_455
F10 Li1 2.161773 1_555
F10 Fe3 2.308415 1_545
F11 Li1 1.699159 1_555
F11 Fe2 1.989018 1_555
F12 Li2 1.699159 1_555
F12 Fe5 1.989018 1_555
F13 Fe6 1.891614 1_655
F13 Li2 2.161773 1_555
F13 Fe4 2.308415 1_565
F14 Li3 1.604146 1_555
F14 Fe4 1.920359 1_555
F14 Fe2 2.145290 1_555
F15 Fe7 1.872241 1_655
F16 Fe5 2.013573 1_555
F16 Fe3 2.234275 1_555
F16 Fe7 2.380643 1_555
F17 Fe6 1.874564 1_555
F17 Li3 2.191822 1_565
F18 Fe4 2.030118 1_455
F18 Fe6 2.215707 1_545
F19 Fe7 1.841636 1_555
F19 Fe5 2.250774 1_555
