# generated using pymatgen
data_LiSn3Sb(PO4)6
_symmetry_space_group_name_H-M   'P 1'
_cell_length_a   8.97603583
_cell_length_b   8.97603583
_cell_length_c   8.97603585
_cell_angle_alpha   58.29544487
_cell_angle_beta   58.29544487
_cell_angle_gamma   58.29544726
_symmetry_Int_Tables_number   1
_chemical_formula_structural   LiSn3Sb(PO4)6
_chemical_formula_sum   'Li1 Sn3 Sb1 P6 O24'
_cell_volume   491.41130772
_cell_formula_units_Z   1
loop_
 _symmetry_equiv_pos_site_id
 _symmetry_equiv_pos_as_xyz
  1  'x, y, z'
loop_
 _atom_site_type_symbol
 _atom_site_label
 _atom_site_symmetry_multiplicity
 _atom_site_fract_x
 _atom_site_fract_y
 _atom_site_fract_z
 _atom_site_occupancy
  Li  Li0  1  0.00235500  0.00235500  0.00235500  1
  Sn  Sn0  1  0.14607000  0.14607000  0.14607000  1
  Sn  Sn1  1  0.35726600  0.35726600  0.35726600  1
  Sn  Sn2  1  0.64191300  0.64191300  0.64191300  1
  Sb  Sb0  1  0.85373200  0.85373200  0.85373200  1
  P  P0  1  0.45810800  0.75098300  0.03783600  1
  P  P1  1  0.75098300  0.03783600  0.45810800  1
  P  P2  1  0.03783600  0.45810800  0.75098300  1
  P  P3  1  0.96076000  0.54498500  0.24485400  1
  P  P4  1  0.24485400  0.96076000  0.54498500  1
  P  P5  1  0.54498500  0.24485400  0.96076000  1
  O  O0  1  0.52003600  0.26808500  0.13104100  1
  O  O1  1  0.13104100  0.52003600  0.26808500  1
  O  O2  1  0.27556500  0.92120200  0.05895000  1
  O  O3  1  0.26808500  0.13104100  0.52003600  1
  O  O4  1  0.44267900  0.58079400  0.21555600  1
  O  O5  1  0.62502600  0.78783900  0.01137000  1
  O  O6  1  0.92120200  0.05895000  0.27556500  1
  O  O7  1  0.58079400  0.21555600  0.44267900  1
  O  O8  1  0.21555600  0.44267900  0.58079400  1
  O  O9  1  0.98566400  0.38450200  0.20672300  1
  O  O10  1  0.93770600  0.73172700  0.07141800  1
  O  O11  1  0.20672300  0.98566400  0.38450200  1
  O  O12  1  0.78783900  0.01137000  0.62502600  1
  O  O13  1  0.05895000  0.27556500  0.92120200  1
  O  O14  1  0.01137000  0.62502600  0.78783900  1
  O  O15  1  0.78101900  0.57234900  0.41040800  1
  O  O16  1  0.41040800  0.78101900  0.57234900  1
  O  O17  1  0.07141800  0.93770600  0.73172700  1
  O  O18  1  0.38450200  0.20672300  0.98566400  1
  O  O19  1  0.57234900  0.41040800  0.78101900  1
  O  O20  1  0.72334200  0.86856800  0.48957100  1
  O  O21  1  0.73172700  0.07141800  0.93770600  1
  O  O22  1  0.86856800  0.48957100  0.72334200  1
  O  O23  1  0.48957100  0.72334200  0.86856800  1
loop_
_geom_bond_atom_site_label_1
_geom_bond_atom_site_label_2
_geom_bond_distance
_geom_bond_site_symmetry_2
Li0 O13 2.417752 1_554
Li0 O6 2.417752 1_455
Li0 O2 2.417752 1_545
Li0 O10 2.478430 1_445
Li0 O17 2.478430 1_544
Li0 O21 2.478430 1_454
O0 P5 1.534904 1_554
O0 Sn1 2.063895 1_555
O1 P3 1.534904 1_455
O1 Sn1 2.063895 1_555
O2 P0 1.549747 1_555
O2 Sn0 2.067435 1_565
O3 P4 1.534904 1_545
O3 Sn1 2.063895 1_555
O4 P0 1.525232 1_555
O4 Sn1 2.034870 1_555
O5 P0 1.573191 1_555
O5 Sb0 1.977294 1_554
O6 P1 1.549747 1_555
O6 Sn0 2.067435 1_655
O7 P1 1.525232 1_555
O7 Sn1 2.034870 1_555
O8 P2 1.525232 1_555
O8 Sn1 2.034870 1_555
O9 P3 1.530197 1_555
O9 Sn0 2.027739 1_655
O10 P3 1.583439 1_555
O10 Sb0 2.004166 1_554
O11 P4 1.530197 1_555
O11 Sn0 2.027739 1_565
O12 P1 1.573191 1_555
O12 Sb0 1.977294 1_545
O13 P2 1.549747 1_555
O13 Sn0 2.067435 1_556
O14 P2 1.573191 1_555
O14 Sb0 1.977294 1_455
O15 P3 1.522726 1_555
O15 Sn2 2.020934 1_555
O16 P4 1.522726 1_555
O16 Sn2 2.020934 1_555
O17 P4 1.583439 1_555
O17 Sb0 2.004166 1_455
O18 P5 1.530197 1_555
O18 Sn0 2.027739 1_556
O19 P5 1.522726 1_555
O19 Sn2 2.020934 1_555
O20 P1 1.523589 1_565
O20 Sn2 2.032607 1_555
O21 P5 1.583439 1_555
O21 Sb0 2.004166 1_545
O22 P2 1.523589 1_655
O22 Sn2 2.032608 1_555
O23 P0 1.523589 1_556
O23 Sn2 2.032608 1_555
