# generated using pymatgen
data_Fe4O3F5
_symmetry_space_group_name_H-M   'P 1'
_cell_length_a   4.82675300
_cell_length_b   5.74668996
_cell_length_c   10.49134741
_cell_angle_alpha   95.37103439
_cell_angle_beta   90.68016442
_cell_angle_gamma   92.84579415
_symmetry_Int_Tables_number   1
_chemical_formula_structural   Fe4O3F5
_chemical_formula_sum   'Fe8 O6 F10'
_cell_volume   289.33252934
_cell_formula_units_Z   2
loop_
 _symmetry_equiv_pos_site_id
 _symmetry_equiv_pos_as_xyz
  1  'x, y, z'
loop_
 _atom_site_type_symbol
 _atom_site_label
 _atom_site_symmetry_multiplicity
 _atom_site_fract_x
 _atom_site_fract_y
 _atom_site_fract_z
 _atom_site_occupancy
  Fe  Fe0  1  0.50000000  0.50000000  0.50000000  1
  Fe  Fe1  1  0.50000000  0.00000000  0.00000000  1
  Fe  Fe2  1  0.42308400  0.25547300  0.74762600  1
  Fe  Fe3  1  0.57691600  0.74452700  0.25237400  1
  Fe  Fe4  1  0.00000000  0.50000000  0.00000000  1
  Fe  Fe5  1  0.96974300  0.25533900  0.23940700  1
  Fe  Fe6  1  0.00000000  0.00000000  0.50000000  1
  Fe  Fe7  1  0.03025700  0.74466100  0.76059300  1
  O  O0  1  0.80804000  0.51355000  0.17319700  1
  O  O1  1  0.69777600  0.01872900  0.16586800  1
  O  O2  1  0.70422700  0.78269100  0.42625300  1
  O  O3  1  0.30222400  0.98127100  0.83413200  1
  O  O4  1  0.29577300  0.21730900  0.57374700  1
  O  O5  1  0.19196000  0.48645000  0.82680300  1
  F  F0  1  0.81714600  0.27106800  0.41931600  1
  F  F1  1  0.81662900  0.00500500  0.67619900  1
  F  F2  1  0.79137700  0.78581900  0.92124200  1
  F  F3  1  0.68955400  0.26769900  0.91805200  1
  F  F4  1  0.70238200  0.51676200  0.68711400  1
  F  F5  1  0.29761800  0.48323800  0.31288600  1
  F  F6  1  0.31044600  0.73230100  0.08194800  1
  F  F7  1  0.18285400  0.72893200  0.58068400  1
  F  F8  1  0.20862300  0.21418100  0.07875800  1
  F  F9  1  0.18337100  0.99499500  0.32380100  1
loop_
_geom_bond_atom_site_label_1
_geom_bond_atom_site_label_2
_geom_bond_distance
_geom_bond_site_symmetry_2
Fe0 O2 2.074573 1_555
Fe0 O4 2.074573 1_555
Fe1 O1 1.966314 1_555
Fe1 O3 1.966314 1_544
Fe2 O4 1.907514 1_555
Fe2 O5 1.912856 1_555
Fe2 O3 1.958572 1_545
Fe3 O2 1.907514 1_555
Fe3 O0 1.912856 1_555
Fe3 O1 1.958572 1_565
Fe4 O0 2.046200 1_455
Fe4 O5 2.046200 1_554
Fe5 O0 1.894366 1_555
Fe5 O1 1.941558 1_555
Fe6 O2 1.952463 1_445
Fe6 O4 1.952463 1_555
Fe7 O5 1.894366 1_555
Fe7 O3 1.941558 1_555
F0 Fe5 2.030015 1_555
F0 Fe6 2.070677 1_655
F0 Fe0 2.193832 1_555
F1 Fe6 2.057381 1_655
F1 Fe7 2.113063 1_645
F1 Fe2 2.518916 1_555
F2 Fe1 2.045663 1_566
F2 Fe7 2.055390 1_655
F2 Fe4 2.189322 1_656
F3 Fe1 2.017276 1_556
F3 Fe4 2.079073 1_656
F3 Fe2 2.183817 1_555
F4 Fe7 2.095293 1_655
F4 Fe2 2.114909 1_555
F4 Fe0 2.174147 1_555
F5 Fe5 2.095293 1_455
F5 Fe3 2.114909 1_555
F5 Fe0 2.174147 1_555
F6 Fe1 2.017276 1_565
F6 Fe4 2.079073 1_555
F6 Fe3 2.183817 1_555
F7 Fe7 2.030015 1_555
F7 Fe6 2.070677 1_565
F7 Fe0 2.193832 1_555
F8 Fe1 2.045663 1_555
F8 Fe5 2.055390 1_455
F8 Fe4 2.189322 1_555
F9 Fe6 2.057381 1_565
F9 Fe5 2.113063 1_465
F9 Fe3 2.518916 1_555
