# generated using pymatgen
data_Mn2Fe3Sn(PO4)6
_symmetry_space_group_name_H-M   'P 1'
_cell_length_a   8.67517235
_cell_length_b   8.67517235
_cell_length_c   8.67517196
_cell_angle_alpha   60.15159121
_cell_angle_beta   60.15159121
_cell_angle_gamma   60.15158984
_symmetry_Int_Tables_number   1
_chemical_formula_structural   Mn2Fe3Sn(PO4)6
_chemical_formula_sum   'Mn2 Fe3 Sn1 P6 O24'
_cell_volume   463.24205037
_cell_formula_units_Z   1
loop_
 _symmetry_equiv_pos_site_id
 _symmetry_equiv_pos_as_xyz
  1  'x, y, z'
loop_
 _atom_site_type_symbol
 _atom_site_label
 _atom_site_symmetry_multiplicity
 _atom_site_fract_x
 _atom_site_fract_y
 _atom_site_fract_z
 _atom_site_occupancy
  Mn  Mn0  1  0.99646900  0.99646900  0.99646900  1
  Mn  Mn1  1  0.50066300  0.50066300  0.50066300  1
  Fe  Fe0  1  0.85390600  0.85390600  0.85390600  1
  Fe  Fe1  1  0.64653400  0.64653400  0.64653400  1
  Fe  Fe2  1  0.35458500  0.35458500  0.35458500  1
  Sn  Sn0  1  0.14454400  0.14454400  0.14454400  1
  P  P0  1  0.74661500  0.45940600  0.04515400  1
  P  P1  1  0.45940600  0.04515400  0.74661500  1
  P  P2  1  0.04515400  0.74661500  0.45940600  1
  P  P3  1  0.95287800  0.25204200  0.54801200  1
  P  P4  1  0.54801200  0.95287800  0.25204200  1
  P  P5  1  0.25204200  0.54801200  0.95287800  1
  O  O0  1  0.89003300  0.68424500  0.49674600  1
  O  O1  1  0.68424500  0.49674600  0.89003300  1
  O  O2  1  0.93800000  0.08899100  0.74026500  1
  O  O3  1  0.49674600  0.89003300  0.68424500  1
  O  O4  1  0.98403300  0.19006100  0.39287500  1
  O  O5  1  0.75832100  0.41342100  0.56325100  1
  O  O6  1  0.74026500  0.93800000  0.08899100  1
  O  O7  1  0.56325100  0.75832100  0.41342100  1
  O  O8  1  0.81325400  0.61217500  0.00595400  1
  O  O9  1  0.41342100  0.56325100  0.75832100  1
  O  O10  1  0.90970900  0.26122600  0.05916000  1
  O  O11  1  0.61217600  0.00595400  0.81325400  1
  O  O12  1  0.39287500  0.98403300  0.19006100  1
  O  O13  1  0.08899100  0.74026500  0.93800000  1
  O  O14  1  0.58743200  0.44102300  0.24128700  1
  O  O15  1  0.19006100  0.39287500  0.98403300  1
  O  O16  1  0.44102300  0.24128700  0.58743200  1
  O  O17  1  0.26122600  0.05916000  0.90970900  1
  O  O18  1  0.24128700  0.58743200  0.44102300  1
  O  O19  1  0.00595400  0.81325400  0.61217500  1
  O  O20  1  0.50269100  0.11275900  0.31228000  1
  O  O21  1  0.05916000  0.90970900  0.26122600  1
  O  O22  1  0.31228000  0.50269100  0.11275900  1
  O  O23  1  0.11275900  0.31228000  0.50269100  1
loop_
_geom_bond_atom_site_label_1
_geom_bond_atom_site_label_2
_geom_bond_distance
_geom_bond_site_symmetry_2
Mn0 O2 2.186936 1_565
Mn0 O13 2.186936 1_655
Mn0 O6 2.186936 1_556
Mn0 O21 2.291894 1_656
Mn0 O10 2.291894 1_566
Mn0 O17 2.291894 1_665
Mn1 O9 2.231352 1_555
Mn1 O5 2.231352 1_555
Mn1 O7 2.231352 1_555
Mn1 O14 2.232171 1_555
Mn1 O18 2.232171 1_555
Mn1 O16 2.232171 1_555
Fe0 O11 1.944625 1_565
Fe0 O19 1.944632 1_655
Fe0 O8 1.944632 1_556
Fe0 O6 2.104049 1_556
Fe0 O13 2.104049 1_655
Fe0 O2 2.104049 1_565
Fe1 O1 1.946839 1_555
Fe1 O3 1.946839 1_555
Fe1 O0 1.946839 1_555
Fe1 O7 2.087323 1_555
Fe1 O5 2.087323 1_555
Fe1 O9 2.087323 1_555
Fe2 O22 1.949501 1_555
Fe2 O20 1.949501 1_555
Fe2 O23 1.949501 1_555
Fe2 O16 2.099172 1_555
Fe2 O18 2.099172 1_555
Fe2 O14 2.099172 1_555
O0 P2 1.524795 1_655
O1 P0 1.524795 1_556
O2 P3 1.555070 1_555
O3 P1 1.524795 1_565
O4 P3 1.545007 1_555
O4 Sn0 2.012299 1_655
O5 P3 1.560835 1_555
O6 P4 1.555070 1_555
O7 P4 1.560835 1_555
O8 P0 1.524662 1_555
O9 P5 1.560835 1_555
O10 P0 1.585641 1_555
O10 Sn0 2.103964 1_655
O11 P1 1.524671 1_555
O12 P4 1.545007 1_555
O12 Sn0 2.012299 1_565
O13 P5 1.555070 1_555
O14 P0 1.561322 1_555
O15 P5 1.545007 1_555
O15 Sn0 2.012299 1_556
O16 P1 1.561322 1_555
O17 P1 1.585641 1_555
O17 Sn0 2.103964 1_556
O18 P2 1.561322 1_555
O19 P2 1.524662 1_555
O20 P4 1.524981 1_545
O21 P2 1.585641 1_555
O21 Sn0 2.103964 1_565
O22 P5 1.524981 1_554
O23 P3 1.524981 1_455
