# generated using pymatgen
data_NaPmAu2
_symmetry_space_group_name_H-M   'P 1'
_cell_length_a   5.03116393
_cell_length_b   5.03116398
_cell_length_c   5.03116398
_cell_angle_alpha   59.99992580
_cell_angle_beta   59.99992650
_cell_angle_gamma   59.99992733
_symmetry_Int_Tables_number   1
_chemical_formula_structural   NaPmAu2
_chemical_formula_sum   'Na1 Pm1 Au2'
_cell_volume   90.05123906
_cell_formula_units_Z   1
loop_
 _symmetry_equiv_pos_site_id
 _symmetry_equiv_pos_as_xyz
  1  'x, y, z'
loop_
 _atom_site_type_symbol
 _atom_site_label
 _atom_site_symmetry_multiplicity
 _atom_site_fract_x
 _atom_site_fract_y
 _atom_site_fract_z
 _atom_site_occupancy
  Na  Na0  1  0.24999903  0.24999903  0.24999904  1
  Pm  Pm0  1  0.74999940  0.74999939  0.74999939  1
  Au  Au0  1  0.50000153  0.50000156  0.50000154  1
  Au  Au1  1  -0.00000096  -0.00000098  -0.00000096  1
loop_
_geom_bond_atom_site_label_1
_geom_bond_atom_site_label_2
_geom_bond_distance
_geom_bond_site_symmetry_2
Au0 Pm0 3.080921 1_555
Au0 Na0 3.080933 1_565
Au0 Na0 3.080933 1_556
Au0 Na0 3.080933 1_655
Au0 Pm0 3.080952 1_455
Au0 Pm0 3.080952 1_554
Au0 Pm0 3.080952 1_545
Au0 Na0 3.080979 1_555
Au1 Na0 3.080943 1_545
Au1 Na0 3.080943 1_554
Au1 Na0 3.080943 1_455
Au1 Pm0 3.080943 1_444
Au1 Pm0 3.080945 1_445
Au1 Pm0 3.080945 1_544
Au1 Pm0 3.080945 1_454
Au1 Na0 3.080948 1_555
