# generated using pymatgen
data_Cs2As2Pd
_symmetry_space_group_name_H-M   'P 1'
_cell_length_a   6.38183078
_cell_length_b   7.08801793
_cell_length_c   8.40555131
_cell_angle_alpha   114.93736543
_cell_angle_beta   90.00000000
_cell_angle_gamma   90.00000000
_symmetry_Int_Tables_number   1
_chemical_formula_structural   Cs2As2Pd
_chemical_formula_sum   'Cs4 As4 Pd2'
_cell_volume   344.77286391
_cell_formula_units_Z   2
loop_
 _symmetry_equiv_pos_site_id
 _symmetry_equiv_pos_as_xyz
  1  'x, y, z'
loop_
 _atom_site_type_symbol
 _atom_site_label
 _atom_site_symmetry_multiplicity
 _atom_site_fract_x
 _atom_site_fract_y
 _atom_site_fract_z
 _atom_site_occupancy
  Cs  Cs0  1  0.25000000  0.20815035  0.41630070  1
  Cs  Cs1  1  0.75000000  0.79184965  0.58369930  1
  Cs  Cs2  1  0.25000000  0.58623935  0.17247871  1
  Cs  Cs3  1  0.75000000  0.41376065  0.82752129  1
  As  As0  1  0.75000000  0.26971697  0.20071237  1
  As  As1  1  0.25000000  0.73028303  0.79928763  1
  As  As2  1  0.25000000  0.06900460  0.79928763  1
  As  As3  1  0.75000000  0.93099540  0.20071237  1
  Pd  Pd0  1  0.00000000  -0.00000000  -0.00000000  1
  Pd  Pd1  1  0.50000000  -0.00000000  -0.00000000  1
loop_
_geom_bond_atom_site_label_1
_geom_bond_atom_site_label_2
_geom_bond_distance
_geom_bond_site_symmetry_2
Cs0 Pd0 3.551537 1_555
Cs0 Pd1 3.551537 1_555
Cs1 Pd0 3.551537 1_666
Cs1 Pd1 3.551537 1_566
As0 As3 2.400865 1_545
As0 Pd1 2.515321 1_555
As0 Pd0 2.515321 1_655
As0 Cs3 3.685525 1_554
As0 Cs1 3.743450 1_555
As0 Cs0 3.784582 1_655
As0 Cs0 3.784582 1_555
As0 Cs2 3.964921 1_655
As0 Cs2 3.964921 1_555
As1 As2 2.400865 1_565
As1 Pd1 2.515321 1_566
As1 Pd0 2.515321 1_566
As1 Cs2 3.685525 1_556
As1 Cs0 3.743450 1_555
As1 Cs1 3.784582 1_555
As1 Cs1 3.784582 1_455
As1 Cs3 3.964921 1_555
As1 Cs3 3.964921 1_455
As2 Pd0 2.515321 1_556
As2 Pd1 2.515321 1_556
As2 Cs2 3.685525 1_556
As2 Cs0 3.743450 1_555
As2 Cs1 3.784582 1_545
As2 Cs1 3.784582 1_445
As2 Cs3 3.964921 1_555
As2 Cs3 3.964921 1_455
As3 Pd0 2.515321 1_665
As3 Pd1 2.515321 1_565
As3 Cs3 3.685525 1_554
As3 Cs1 3.743450 1_555
As3 Cs0 3.784582 1_665
As3 Cs0 3.784582 1_565
As3 Cs2 3.964921 1_555
As3 Cs2 3.964921 1_655
