# generated using pymatgen
data_LiCo3OF5
_symmetry_space_group_name_H-M   'P 1'
_cell_length_a   6.02539300
_cell_length_b   6.17287128
_cell_length_c   6.18596290
_cell_angle_alpha   92.31214811
_cell_angle_beta   91.39414872
_cell_angle_gamma   92.21886546
_symmetry_Int_Tables_number   1
_chemical_formula_structural   LiCo3OF5
_chemical_formula_sum   'Li2 Co6 O2 F10'
_cell_volume   229.64360971
_cell_formula_units_Z   2
loop_
 _symmetry_equiv_pos_site_id
 _symmetry_equiv_pos_as_xyz
  1  'x, y, z'
loop_
 _atom_site_type_symbol
 _atom_site_label
 _atom_site_symmetry_multiplicity
 _atom_site_fract_x
 _atom_site_fract_y
 _atom_site_fract_z
 _atom_site_occupancy
  Li  Li0  1  0.50702600  0.49319700  0.49849600  1
  Li  Li1  1  0.99408700  0.98314800  0.98633100  1
  Co  Co0  1  0.27336800  0.09417100  0.55689900  1
  Co  Co1  1  0.93089400  0.45265300  0.75835500  1
  Co  Co2  1  0.41516300  0.73504400  0.91605200  1
  Co  Co3  1  0.55537000  0.24444000  0.10028700  1
  Co  Co4  1  0.06671600  0.57044500  0.23217400  1
  Co  Co5  1  0.74949100  0.94579100  0.43466700  1
  O  O0  1  0.09226900  0.67198200  0.93684300  1
  O  O1  1  0.54311400  0.17190500  0.40135400  1
  F  F0  1  0.31884900  0.08989100  0.89952100  1
  F  F1  1  0.93221800  0.10094000  0.69172700  1
  F  F2  1  0.59633300  0.45009700  0.82096300  1
  F  F3  1  0.17873800  0.41383800  0.52873300  1
  F  F4  1  0.81791400  0.61394200  0.45784700  1
  F  F5  1  0.45629000  0.80313500  0.60145900  1
  F  F6  1  0.90372200  0.29354400  0.08910000  1
  F  F7  1  0.41404800  0.54349700  0.19932000  1
  F  F8  1  0.07777000  0.92786500  0.32172200  1
  F  F9  1  0.67662000  0.90047700  0.06814700  1
loop_
_geom_bond_atom_site_label_1
_geom_bond_atom_site_label_2
_geom_bond_distance
_geom_bond_site_symmetry_2
Li0 O1 2.070128 1_555
Li1 O0 2.045109 1_655
Co0 O1 1.962324 1_555
Co0 F8 2.064384 1_545
Co0 F3 2.087885 1_555
Co0 F0 2.131823 1_555
Co0 F5 2.167207 1_545
Co0 F1 2.238297 1_455
Co1 O0 1.929447 1_655
Co1 F2 2.061543 1_555
Co1 F3 2.099671 1_655
Co1 F1 2.193815 1_555
Co1 F4 2.247340 1_555
Co1 F6 2.311590 1_556
Co2 O0 1.977590 1_555
Co2 F5 2.026481 1_555
Co2 F9 2.033631 1_556
Co2 F7 2.153077 1_556
Co2 F2 2.174385 1_555
Co2 F0 2.293211 1_565
Co3 O1 1.935418 1_555
Co3 F0 2.048543 1_554
Co3 F6 2.112294 1_555
Co3 F7 2.136376 1_555
Co3 F2 2.198093 1_554
Co3 F9 2.274762 1_545
Co4 O0 1.962841 1_554
Co4 F4 2.090711 1_455
Co4 F6 2.091677 1_455
Co4 F7 2.119850 1_555
Co4 F3 2.211086 1_555
Co4 F8 2.251065 1_555
Co5 O1 1.918875 1_565
Co5 F1 2.090053 1_565
Co5 F4 2.114934 1_555
Co5 F8 2.119167 1_655
Co5 F5 2.236649 1_555
Co5 F9 2.302707 1_555
F0 Li1 2.128736 1_445
F1 Li1 2.020814 1_545
F2 Li0 2.083536 1_555
F3 Li0 2.034223 1_555
F4 Li0 2.014363 1_555
F5 Li0 2.028776 1_555
F6 Li1 2.090728 1_544
F7 Li0 1.960792 1_555
F8 Li1 2.166723 1_454
F9 Li1 2.041563 1_554
