# generated using pymatgen
data_Gd2(Ga3Co)3
_symmetry_space_group_name_H-M   'P 1'
_cell_length_a   7.29437957
_cell_length_b   7.29437957
_cell_length_c   9.41279741
_cell_angle_alpha   90.00000000
_cell_angle_beta   90.00000000
_cell_angle_gamma   119.69871471
_symmetry_Int_Tables_number   1
_chemical_formula_structural   Gd2(Ga3Co)3
_chemical_formula_sum   'Gd4 Ga18 Co6'
_cell_volume   435.04738943
_cell_formula_units_Z   2
loop_
 _symmetry_equiv_pos_site_id
 _symmetry_equiv_pos_as_xyz
  1  'x, y, z'
loop_
 _atom_site_type_symbol
 _atom_site_label
 _atom_site_symmetry_multiplicity
 _atom_site_fract_x
 _atom_site_fract_y
 _atom_site_fract_z
 _atom_site_occupancy
  Gd  Gd0  1  0.00263884  0.33152504  0.25000000  1
  Gd  Gd1  1  0.99736116  0.66847496  0.75000000  1
  Gd  Gd2  1  0.66847496  0.99736116  0.75000000  1
  Gd  Gd3  1  0.33152504  0.00263884  0.25000000  1
  Ga  Ga0  1  0.66407727  0.45255530  0.25000000  1
  Ga  Ga1  1  0.33592273  0.54744470  0.75000000  1
  Ga  Ga2  1  0.54744470  0.33592273  0.75000000  1
  Ga  Ga3  1  0.45255530  0.66407727  0.25000000  1
  Ga  Ga4  1  0.12376667  0.12376667  0.75000000  1
  Ga  Ga5  1  0.87623333  0.87623333  0.25000000  1
  Ga  Ga6  1  0.66431272  0.66431272  0.55635475  1
  Ga  Ga7  1  0.33568728  0.33568728  0.05635475  1
  Ga  Ga8  1  0.33568728  0.33568728  0.44364525  1
  Ga  Ga9  1  0.66431272  0.66431272  0.94364525  1
  Ga  Ga10  1  0.00265546  0.33434351  0.56984034  1
  Ga  Ga11  1  0.99734454  0.66565649  0.06984034  1
  Ga  Ga12  1  0.66565649  0.99734454  0.43015966  1
  Ga  Ga13  1  0.33434351  0.00265546  0.93015966  1
  Ga  Ga14  1  0.99734454  0.66565649  0.43015966  1
  Ga  Ga15  1  0.00265546  0.33434351  0.93015966  1
  Ga  Ga16  1  0.33434351  0.00265546  0.56984034  1
  Ga  Ga17  1  0.66565649  0.99734454  0.06984034  1
  Co  Co0  1  -0.00000000  -0.00000000  0.50000000  1
  Co  Co1  1  -0.00000000  -0.00000000  0.00000000  1
  Co  Co2  1  0.67082084  0.32917916  0.50000000  1
  Co  Co3  1  0.32917916  0.67082084  0.00000000  1
  Co  Co4  1  0.32917916  0.67082084  0.50000000  1
  Co  Co5  1  0.67082084  0.32917916  0.00000000  1
loop_
_geom_bond_atom_site_label_1
_geom_bond_atom_site_label_2
_geom_bond_distance
_geom_bond_site_symmetry_2
Ga0 Ga3 2.668353 1_555
Ga0 Ga5 2.684563 1_555
Ga0 Ga11 2.730816 1_555
Ga0 Ga14 2.730816 1_555
Ga0 Ga7 2.786334 1_555
Ga0 Ga8 2.786334 1_555
Ga0 Gd3 2.960834 1_555
Ga0 Gd0 3.006441 1_655
Ga1 Ga2 2.668353 1_555
Ga1 Ga4 2.684563 1_555
Ga1 Ga15 2.730816 1_555
Ga1 Ga10 2.730816 1_555
Ga1 Ga6 2.786334 1_555
Ga1 Ga9 2.786334 1_555
Ga1 Gd2 2.960834 1_555
Ga1 Gd1 3.006441 1_455
Ga2 Ga4 2.684563 1_555
Ga2 Ga6 2.786334 1_555
Ga2 Ga9 2.786334 1_555
Ga2 Gd1 2.960834 1_555
Ga2 Gd2 3.006441 1_545
Ga3 Ga5 2.684563 1_555
Ga3 Ga7 2.786334 1_555
Ga3 Ga8 2.786334 1_555
Ga3 Gd0 2.960834 1_555
Ga3 Gd3 3.006441 1_565
Ga4 Gd1 2.974126 1_445
Ga4 Gd2 2.974126 1_445
Ga5 Gd3 2.974126 1_665
Ga5 Gd0 2.974126 1_665
Ga6 Ga8 2.631373 1_555
Ga6 Gd1 3.025248 1_555
Ga6 Gd2 3.025248 1_555
Ga7 Ga9 2.631373 1_554
Ga7 Gd0 3.025248 1_555
Ga7 Gd3 3.025248 1_555
Ga8 Gd0 3.025248 1_555
Ga8 Gd3 3.025248 1_555
Ga9 Gd1 3.025248 1_555
Ga9 Gd2 3.025248 1_555
Ga10 Ga8 2.699776 1_555
Ga10 Ga4 2.712966 1_555
Ga10 Ga14 2.768299 1_455
Ga10 Ga12 2.797592 1_445
Ga10 Gd1 2.985106 1_455
Ga10 Gd2 2.987095 1_445
Ga10 Gd0 3.010662 1_555
Ga11 Ga9 2.699776 1_554
Ga11 Ga5 2.712966 1_555
Ga11 Ga15 2.768299 1_654
Ga11 Ga13 2.797592 1_664
Ga11 Gd0 2.985106 1_655
Ga11 Gd3 2.987095 1_665
Ga11 Gd1 3.010662 1_554
Ga12 Ga6 2.699776 1_555
Ga12 Ga5 2.712966 1_555
Ga12 Ga3 2.730816 1_555
Ga12 Ga16 2.768299 1_565
Ga12 Gd3 2.985106 1_565
Ga12 Gd0 2.987095 1_665
Ga12 Gd2 3.010662 1_555
Ga13 Ga7 2.699776 1_556
Ga13 Ga4 2.712966 1_555
Ga13 Ga2 2.730816 1_555
Ga13 Ga17 2.768299 1_546
Ga13 Gd2 2.985106 1_545
Ga13 Gd1 2.987095 1_445
Ga13 Gd3 3.010662 1_556
Ga14 Ga6 2.699776 1_555
Ga14 Ga5 2.712966 1_555
Ga14 Ga16 2.797592 1_665
Ga14 Gd0 2.985106 1_655
Ga14 Gd3 2.987095 1_665
Ga14 Gd1 3.010662 1_555
Ga15 Ga7 2.699776 1_556
Ga15 Ga4 2.712966 1_555
Ga15 Ga17 2.797592 1_446
Ga15 Gd1 2.985106 1_455
Ga15 Gd2 2.987095 1_445
Ga15 Gd0 3.010662 1_556
Ga16 Ga8 2.699776 1_555
Ga16 Ga4 2.712966 1_555
Ga16 Ga2 2.730816 1_555
Ga16 Gd2 2.985106 1_545
Ga16 Gd1 2.987095 1_445
Ga16 Gd3 3.010662 1_555
Ga17 Ga9 2.699776 1_554
Ga17 Ga5 2.712966 1_555
Ga17 Ga3 2.730816 1_555
Ga17 Gd3 2.985106 1_565
Ga17 Gd0 2.987095 1_665
Ga17 Gd2 3.010662 1_554
Co0 Ga8 2.516320 1_555
Co0 Ga6 2.516320 1_445
Co0 Ga12 2.516668 1_445
Co0 Ga14 2.516668 1_445
Co0 Ga16 2.516668 1_555
Co0 Ga10 2.516668 1_555
Co0 Ga5 2.521910 1_445
Co0 Ga4 2.521910 1_555
Co1 Ga7 2.516320 1_555
Co1 Ga9 2.516320 1_444
Co1 Ga17 2.516668 1_445
Co1 Ga11 2.516668 1_445
Co1 Ga15 2.516668 1_554
Co1 Ga13 2.516668 1_554
Co1 Ga5 2.521910 1_445
Co1 Ga4 2.521910 1_554
Co2 Ga10 2.490419 1_655
Co2 Ga12 2.490419 1_545
Co2 Ga14 2.517261 1_555
Co2 Ga16 2.517261 1_555
Co2 Ga6 2.524808 1_555
Co2 Ga8 2.524808 1_555
Co2 Ga2 2.528586 1_555
Co2 Ga0 2.528586 1_555
Co3 Ga13 2.490419 1_564
Co3 Ga11 2.490419 1_455
Co3 Ga15 2.517261 1_554
Co3 Ga17 2.517261 1_555
Co3 Ga9 2.524808 1_554
Co3 Ga7 2.524808 1_555
Co3 Ga3 2.528586 1_555
Co3 Ga1 2.528586 1_554
Co4 Ga16 2.490419 1_565
Co4 Ga14 2.490419 1_455
Co4 Ga10 2.517261 1_555
Co4 Ga12 2.517261 1_555
Co4 Ga6 2.524808 1_555
Co4 Ga8 2.524808 1_555
Co4 Ga3 2.528586 1_555
Co4 Ga1 2.528586 1_555
Co5 Ga15 2.490419 1_654
Co5 Ga17 2.490419 1_545
Co5 Ga13 2.517261 1_554
Co5 Ga11 2.517261 1_555
Co5 Ga9 2.524808 1_554
Co5 Ga7 2.524808 1_555
Co5 Ga2 2.528586 1_554
Co5 Ga0 2.528586 1_555
