# generated using pymatgen
data_LiNiPO4
_symmetry_space_group_name_H-M   'P 1'
_cell_length_a   5.42462900
_cell_length_b   8.22762400
_cell_length_c   18.54606800
_cell_angle_alpha   90.00000000
_cell_angle_beta   90.00000000
_cell_angle_gamma   90.00000000
_symmetry_Int_Tables_number   1
_chemical_formula_structural   LiNiPO4
_chemical_formula_sum   'Li12 Ni12 P12 O48'
_cell_volume   827.74454152
_cell_formula_units_Z   12
loop_
 _symmetry_equiv_pos_site_id
 _symmetry_equiv_pos_as_xyz
  1  'x, y, z'
loop_
 _atom_site_type_symbol
 _atom_site_label
 _atom_site_symmetry_multiplicity
 _atom_site_fract_x
 _atom_site_fract_y
 _atom_site_fract_z
 _atom_site_occupancy
  Li  Li0  1  0.74959400  0.92371200  0.08225200  1
  Li  Li1  1  0.22069600  0.42141400  0.08421900  1
  Li  Li2  1  0.74077400  0.58155200  0.24872900  1
  Li  Li3  1  0.24077400  0.08155200  0.25127100  1
  Li  Li4  1  0.72069600  0.92141400  0.41578100  1
  Li  Li5  1  0.24959400  0.42371200  0.41774800  1
  Li  Li6  1  0.74959400  0.57628800  0.58225200  1
  Li  Li7  1  0.22069600  0.07858600  0.58421900  1
  Li  Li8  1  0.74077400  0.91844800  0.74872900  1
  Li  Li9  1  0.24077400  0.41844800  0.75127100  1
  Li  Li10  1  0.72069600  0.57858600  0.91578100  1
  Li  Li11  1  0.24959400  0.07628800  0.91774800  1
  Ni  Ni0  1  0.73382400  0.25118400  0.99969600  1
  Ni  Ni1  1  0.23575800  0.75146000  0.16683200  1
  Ni  Ni2  1  0.73763500  0.24996900  0.16653500  1
  Ni  Ni3  1  0.23763500  0.74996900  0.33346500  1
  Ni  Ni4  1  0.73575800  0.25146000  0.33316800  1
  Ni  Ni5  1  0.23382400  0.75118400  0.50030400  1
  Ni  Ni6  1  0.73382400  0.24881600  0.49969600  1
  Ni  Ni7  1  0.23575800  0.74854000  0.66683200  1
  Ni  Ni8  1  0.73763500  0.25003100  0.66653500  1
  Ni  Ni9  1  0.23763500  0.75003100  0.83346500  1
  Ni  Ni10  1  0.73575800  0.24854000  0.83316800  1
  Ni  Ni11  1  0.23382400  0.74881600  0.00030400  1
  P  P0  1  0.73175000  0.59998900  0.08285700  1
  P  P1  1  0.23798800  0.09957300  0.08388800  1
  P  P2  1  0.73742400  0.90149300  0.24949600  1
  P  P3  1  0.23742400  0.40149300  0.25050400  1
  P  P4  1  0.73798800  0.59957300  0.41611200  1
  P  P5  1  0.23175000  0.09998900  0.41714300  1
  P  P6  1  0.73175000  0.90001100  0.58285700  1
  P  P7  1  0.23798800  0.40042700  0.58388800  1
  P  P8  1  0.73742400  0.59850700  0.74949600  1
  P  P9  1  0.23742400  0.09850700  0.75050400  1
  P  P10  1  0.73798800  0.90042700  0.91611200  1
  P  P11  1  0.23175000  0.40001100  0.91714300  1
  O  O0  1  0.73231900  0.49641400  0.01436700  1
  O  O1  1  0.23631500  0.99374900  0.01606800  1
  O  O2  1  0.46749400  0.21820600  0.08332900  1
  O  O3  1  0.00578400  0.21699700  0.08326200  1
  O  O4  1  0.96240900  0.71861000  0.08298400  1
  O  O5  1  0.50078700  0.71732400  0.08347300  1
  O  O6  1  0.73637300  0.49480400  0.15087100  1
  O  O7  1  0.23759000  0.99682900  0.15259900  1
  O  O8  1  0.73841900  0.00498900  0.18101200  1
  O  O9  1  0.23485000  0.50628200  0.18240100  1
  O  O10  1  0.46857200  0.28360200  0.25000200  1
  O  O11  1  0.00748600  0.28272700  0.25049000  1
  O  O12  1  0.50748600  0.78272700  0.24951000  1
  O  O13  1  0.96857200  0.78360200  0.24999800  1
  O  O14  1  0.73485000  0.00628200  0.31759900  1
  O  O15  1  0.23841900  0.50498900  0.31898800  1
  O  O16  1  0.73759000  0.49682900  0.34740100  1
  O  O17  1  0.23637300  0.99480400  0.34912900  1
  O  O18  1  0.00078700  0.21732400  0.41652700  1
  O  O19  1  0.46240900  0.21861000  0.41701600  1
  O  O20  1  0.50578400  0.71699700  0.41673800  1
  O  O21  1  0.96749400  0.71820600  0.41667100  1
  O  O22  1  0.73631500  0.49374900  0.48393200  1
  O  O23  1  0.23231900  0.99641400  0.48563300  1
  O  O24  1  0.73231900  0.00358600  0.51436700  1
  O  O25  1  0.23631500  0.50625100  0.51606800  1
  O  O26  1  0.46749400  0.28179400  0.58332900  1
  O  O27  1  0.00578400  0.28300300  0.58326200  1
  O  O28  1  0.96240900  0.78139000  0.58298400  1
  O  O29  1  0.50078700  0.78267600  0.58347300  1
  O  O30  1  0.73637300  0.00519600  0.65087100  1
  O  O31  1  0.23759000  0.50317100  0.65259900  1
  O  O32  1  0.73841900  0.49501100  0.68101200  1
  O  O33  1  0.23485000  0.99371800  0.68240100  1
  O  O34  1  0.46857200  0.21639800  0.75000200  1
  O  O35  1  0.00748600  0.21727300  0.75049000  1
  O  O36  1  0.50748600  0.71727300  0.74951000  1
  O  O37  1  0.96857200  0.71639800  0.74999800  1
  O  O38  1  0.73485000  0.49371800  0.81759900  1
  O  O39  1  0.23841900  0.99501100  0.81898800  1
  O  O40  1  0.73759000  0.00317100  0.84740100  1
  O  O41  1  0.23637300  0.50519600  0.84912900  1
  O  O42  1  0.00078700  0.28267600  0.91652700  1
  O  O43  1  0.46240900  0.28139000  0.91701600  1
  O  O44  1  0.50578400  0.78300300  0.91673800  1
  O  O45  1  0.96749400  0.78179400  0.91667100  1
  O  O46  1  0.73631500  0.00625100  0.98393200  1
  O  O47  1  0.23231900  0.50358600  0.98563300  1
loop_
_geom_bond_atom_site_label_1
_geom_bond_atom_site_label_2
_geom_bond_distance
_geom_bond_site_symmetry_2
Li0 O46 1.947135 1_564
Li0 O8 1.950808 1_565
Li0 O4 2.044648 1_555
Li0 O5 2.169251 1_555
Li1 O47 1.950396 1_554
Li1 O9 1.951693 1_555
Li1 O3 2.046490 1_555
Li1 O2 2.141947 1_555
Li2 O6 1.950327 1_555
Li2 O16 1.958321 1_555
Li2 O13 2.071498 1_555
Li2 O12 2.083594 1_555
Li3 O17 1.950327 1_545
Li3 O7 1.958321 1_545
Li3 O10 2.071498 1_555
Li3 O11 2.083594 1_555
Li4 O24 1.950396 1_565
Li4 O14 1.951693 1_565
Li4 O20 2.046490 1_555
Li4 O21 2.141947 1_555
Li5 O25 1.947135 1_555
Li5 O15 1.950808 1_555
Li5 O19 2.044648 1_555
Li5 O18 2.169251 1_555
Li6 O22 1.947135 1_555
Li6 O32 1.950808 1_555
Li6 O28 2.044648 1_555
Li6 O29 2.169251 1_555
Li7 O23 1.950396 1_545
Li7 O33 1.951693 1_545
Li7 O27 2.046490 1_555
Li7 O26 2.141947 1_555
Li8 O30 1.950327 1_565
Li8 O40 1.958321 1_565
Li8 O37 2.071498 1_555
Li8 O36 2.083594 1_555
Li9 O41 1.950327 1_555
Li9 O31 1.958321 1_555
Li9 O34 2.071498 1_555
Li9 O35 2.083594 1_555
Li10 O0 1.950396 1_556
Li10 O38 1.951693 1_555
Li10 O44 2.046490 1_555
Li10 O45 2.141947 1_555
Li11 O1 1.947135 1_546
Li11 O39 1.950808 1_545
Li11 O43 2.044648 1_555
Li11 O42 2.169251 1_555
Ni0 O0 2.035940 1_556
Ni0 O46 2.036358 1_555
Ni0 O42 2.131554 1_655
Ni0 O2 2.136983 1_556
Ni0 O43 2.140278 1_555
Ni0 O3 2.158129 1_656
Ni1 O7 2.036012 1_555
Ni1 O9 2.037799 1_555
Ni1 O5 2.129760 1_555
Ni1 O13 2.132992 1_455
Ni1 O12 2.142450 1_555
Ni1 O4 2.165636 1_455
Ni2 O8 2.033412 1_555
Ni2 O6 2.035261 1_555
Ni2 O3 2.138834 1_655
Ni2 O2 2.144068 1_555
Ni2 O10 2.145499 1_555
Ni2 O11 2.154027 1_655
Ni3 O15 2.033412 1_555
Ni3 O17 2.035261 1_555
Ni3 O20 2.138834 1_555
Ni3 O21 2.144068 1_455
Ni3 O13 2.145499 1_455
Ni3 O12 2.154027 1_555
Ni4 O16 2.036012 1_555
Ni4 O14 2.037799 1_555
Ni4 O18 2.129760 1_655
Ni4 O10 2.132992 1_555
Ni4 O11 2.142450 1_655
Ni4 O19 2.165636 1_555
Ni5 O23 2.035940 1_555
Ni5 O25 2.036358 1_555
Ni5 O29 2.131554 1_555
Ni5 O21 2.136983 1_455
Ni5 O28 2.140278 1_455
Ni5 O20 2.158129 1_555
Ni6 O24 2.035940 1_555
Ni6 O22 2.036358 1_555
Ni6 O18 2.131554 1_655
Ni6 O26 2.136983 1_555
Ni6 O19 2.140278 1_555
Ni6 O27 2.158129 1_655
Ni7 O31 2.036012 1_555
Ni7 O33 2.037799 1_555
Ni7 O29 2.129760 1_555
Ni7 O37 2.132992 1_455
Ni7 O36 2.142450 1_555
Ni7 O28 2.165636 1_455
Ni8 O32 2.033412 1_555
Ni8 O30 2.035261 1_555
Ni8 O27 2.138834 1_655
Ni8 O26 2.144068 1_555
Ni8 O34 2.145499 1_555
Ni8 O35 2.154027 1_655
Ni9 O39 2.033412 1_555
Ni9 O41 2.035261 1_555
Ni9 O44 2.138834 1_555
Ni9 O45 2.144068 1_455
Ni9 O37 2.145499 1_455
Ni9 O36 2.154027 1_555
Ni10 O40 2.036012 1_555
Ni10 O38 2.037799 1_555
Ni10 O42 2.129760 1_655
Ni10 O34 2.132992 1_555
Ni10 O35 2.142450 1_655
Ni10 O43 2.165636 1_555
Ni11 O47 2.035940 1_554
Ni11 O1 2.036358 1_555
Ni11 O5 2.131554 1_555
Ni11 O45 2.136983 1_454
Ni11 O4 2.140278 1_455
Ni11 O44 2.158129 1_554
O0 P0 1.529599 1_555
O1 P1 1.529775 1_565
O2 P1 1.582025 1_555
O3 P1 1.587504 1_555
O4 P0 1.586859 1_555
O5 P0 1.581719 1_555
O6 P0 1.529933 1_555
O7 P1 1.529213 1_565
O8 P2 1.529151 1_545
O9 P3 1.529314 1_555
O10 P3 1.585295 1_555
O11 P3 1.584511 1_555
O12 P2 1.584511 1_555
O13 P2 1.585295 1_555
O14 P2 1.529314 1_545
O15 P3 1.529151 1_555
O16 P4 1.529213 1_555
O17 P5 1.529933 1_565
O18 P5 1.581719 1_555
O19 P5 1.586859 1_555
O20 P4 1.587504 1_555
O21 P4 1.582025 1_555
O22 P4 1.529775 1_555
O23 P5 1.529599 1_565
O24 P6 1.529599 1_545
O25 P7 1.529775 1_555
O26 P7 1.582025 1_555
O27 P7 1.587504 1_555
O28 P6 1.586859 1_555
O29 P6 1.581719 1_555
O30 P6 1.529933 1_545
O31 P7 1.529213 1_555
O32 P8 1.529151 1_555
O33 P9 1.529314 1_565
O34 P9 1.585295 1_555
O35 P9 1.584511 1_555
O36 P8 1.584511 1_555
O37 P8 1.585295 1_555
O38 P8 1.529314 1_555
O39 P9 1.529151 1_565
O40 P10 1.529213 1_545
O41 P11 1.529933 1_555
O42 P11 1.581719 1_555
O43 P11 1.586859 1_555
O44 P10 1.587504 1_555
O45 P10 1.582025 1_555
O46 P10 1.529775 1_545
O47 P11 1.529599 1_555
