# generated using pymatgen
data_Tl3Os3O10
_symmetry_space_group_name_H-M   'P 1'
_cell_length_a   16.53084301
_cell_length_b   16.53084301
_cell_length_c   16.53084301
_cell_angle_alpha   154.17736097
_cell_angle_beta   154.17736097
_cell_angle_gamma   36.84186511
_symmetry_Int_Tables_number   1
_chemical_formula_structural   Tl3Os3O10
_chemical_formula_sum   'Tl12 Os12 O40'
_cell_volume   855.92151859
_cell_formula_units_Z   4
loop_
 _symmetry_equiv_pos_site_id
 _symmetry_equiv_pos_as_xyz
  1  'x, y, z'
loop_
 _atom_site_type_symbol
 _atom_site_label
 _atom_site_symmetry_multiplicity
 _atom_site_fract_x
 _atom_site_fract_y
 _atom_site_fract_z
 _atom_site_occupancy
  Tl  Tl0  1  0.03975200  0.27840000  0.23864800  1
  Tl  Tl1  1  0.03975200  0.80110300  0.76135200  1
  Tl  Tl2  1  0.37500000  0.62500000  0.75000000  1
  Tl  Tl3  1  0.87500000  0.62500000  0.25000000  1
  Tl  Tl4  1  0.71024800  0.44889700  0.73864800  1
  Tl  Tl5  1  0.71024800  0.97160000  0.26135200  1
  Tl  Tl6  1  0.55110300  0.28975200  0.26135200  1
  Tl  Tl7  1  0.02840000  0.28975200  0.73864800  1
  Tl  Tl8  1  0.37500000  0.12500000  0.75000000  1
  Tl  Tl9  1  0.37500000  0.62500000  0.25000000  1
  Tl  Tl10  1  0.19889700  0.96024800  0.23864800  1
  Tl  Tl11  1  0.72160000  0.96024800  0.76135200  1
  Os  Os0  1  0.54175600  0.79126100  0.24950400  1
  Os  Os1  1  0.54175600  0.29225200  0.75049600  1
  Os  Os2  1  0.37500000  0.12500000  0.25000000  1
  Os  Os3  1  0.87500000  0.12500000  0.75000000  1
  Os  Os4  1  0.20824400  0.45873900  0.25049600  1
  Os  Os5  1  0.20824400  0.95774800  0.74950400  1
  Os  Os6  1  0.04225200  0.79175600  0.25049600  1
  Os  Os7  1  0.54126100  0.79175600  0.74950400  1
  Os  Os8  1  0.87500000  0.12500000  0.25000000  1
  Os  Os9  1  0.87500000  0.62500000  0.75000000  1
  Os  Os10  1  0.20873900  0.45824400  0.75049600  1
  Os  Os11  1  0.70774800  0.45824400  0.24950400  1
  O  O0  1  0.56681000  0.56681000  0.00000000  1
  O  O1  1  0.77620000  0.27846900  0.88768300  1
  O  O2  1  0.39078600  0.27846900  0.50226900  1
  O  O3  1  0.39078600  0.88851700  0.11231700  1
  O  O4  1  0.77620000  0.88851700  0.49773100  1
  O  O5  1  0.08602700  0.58602700  0.50000000  1
  O  O6  1  0.10611200  0.10611200  0.00000000  1
  O  O7  1  0.64388800  0.14388800  0.50000000  1
  O  O8  1  0.66397300  0.66397300  0.00000000  1
  O  O9  1  0.97380000  0.97153100  0.61231700  1
  O  O10  1  0.35921400  0.97153100  0.99773100  1
  O  O11  1  0.97380000  0.36148300  0.00226900  1
  O  O12  1  0.35921400  0.36148300  0.38768300  1
  O  O13  1  0.18319000  0.68319000  0.50000000  1
  O  O14  1  0.22767000  0.22767000  0.00000000  1
  O  O15  1  0.06662800  0.93337200  0.50000000  1
  O  O16  1  0.43337200  0.93337200  0.86674300  1
  O  O17  1  0.43337200  0.56662800  0.50000000  1
  O  O18  1  0.06662800  0.56662800  0.13325700  1
  O  O19  1  0.77233000  0.77233000  0.00000000  1
  O  O20  1  0.31681000  0.81681000  0.50000000  1
  O  O21  1  0.63851700  0.64078600  0.61231700  1
  O  O22  1  0.02846900  0.02620000  0.38768300  1
  O  O23  1  0.33602700  0.33602700  0.00000000  1
  O  O24  1  0.02846900  0.64078600  0.00226900  1
  O  O25  1  0.63851700  0.02620000  0.99773100  1
  O  O26  1  0.85611200  0.35611200  0.50000000  1
  O  O27  1  0.89388800  0.89388800  0.00000000  1
  O  O28  1  0.41397300  0.91397300  0.50000000  1
  O  O29  1  0.11148300  0.60921400  0.88768300  1
  O  O30  1  0.72153100  0.60921400  0.49773100  1
  O  O31  1  0.11148300  0.22380000  0.50226900  1
  O  O32  1  0.72153100  0.22380000  0.11231700  1
  O  O33  1  0.43319000  0.43319000  0.00000000  1
  O  O34  1  0.97767000  0.47767000  0.50000000  1
  O  O35  1  0.31662800  0.68337200  0.00000000  1
  O  O36  1  0.68337200  0.31662800  0.00000000  1
  O  O37  1  0.68337200  0.68337200  0.36674300  1
  O  O38  1  0.31662800  0.31662800  0.63325700  1
  O  O39  1  0.52233000  0.02233000  0.50000000  1
loop_
_geom_bond_atom_site_label_1
_geom_bond_atom_site_label_2
_geom_bond_distance
_geom_bond_site_symmetry_2
O0 Os0 2.003729 1_555
O0 Os1 2.003732 1_554
O0 Tl3 2.596633 1_555
O0 Tl2 2.596633 1_554
O1 Os1 1.977080 1_555
O1 Os3 1.987191 1_555
O1 Tl3 2.636623 1_556
O1 Tl0 2.672066 1_656
O2 Os1 1.977080 1_555
O2 Os2 1.987191 1_555
O2 Tl2 2.636623 1_555
O2 Tl0 2.672066 1_555
O3 Os0 1.977066 1_555
O3 Os2 1.987191 1_565
O3 Tl2 2.636623 1_554
O3 Tl1 2.672071 1_554
O4 Os0 1.977071 1_555
O4 Os3 1.987191 1_565
O4 Tl3 2.636623 1_555
O4 Tl1 2.672078 1_655
O5 Tl3 2.214798 1_455
O5 Tl2 2.214798 1_555
O5 Tl0 2.415492 1_555
O5 Tl1 2.415498 1_555
O6 Os3 1.939554 1_454
O6 Os2 1.939554 1_555
O6 Tl0 2.727819 1_555
O6 Tl1 2.727833 1_544
O7 Os2 1.939554 1_555
O7 Os3 1.939554 1_555
O7 Tl5 2.727819 1_545
O7 Tl4 2.727833 1_555
O8 Tl3 2.214798 1_555
O8 Tl2 2.214798 1_554
O8 Tl5 2.415492 1_555
O8 Tl4 2.415498 1_554
O9 Os5 1.977080 1_655
O9 Os3 1.987191 1_565
O9 Tl3 2.636623 1_555
O9 Tl5 2.672066 1_555
O10 Os5 1.977080 1_555
O10 Os2 1.987191 1_566
O10 Tl2 2.636623 1_555
O10 Tl5 2.672066 1_556
O11 Os4 1.977071 1_655
O11 Os3 1.987191 1_554
O11 Tl3 2.636623 1_555
O11 Tl4 2.672078 1_554
O12 Os4 1.977066 1_555
O12 Os2 1.987191 1_555
O12 Tl2 2.636623 1_555
O12 Tl4 2.672071 1_555
O13 Os4 2.003729 1_555
O13 Os5 2.003732 1_555
O13 Tl3 2.596633 1_455
O13 Tl2 2.596633 1_555
O14 Os5 1.948256 1_544
O14 Os4 1.948257 1_555
O14 Tl6 2.742224 1_555
O14 Tl7 2.742238 1_554
O15 Os5 1.946604 1_555
O15 Os6 1.946604 1_555
O15 Tl5 2.712537 1_455
O15 Tl7 2.712537 1_565
O16 Os7 1.946606 1_555
O16 Os5 1.946613 1_555
O16 Tl6 2.712529 1_566
O16 Tl5 2.712548 1_556
O17 Os4 1.946613 1_555
O17 Os7 1.946613 1_555
O17 Tl4 2.712526 1_555
O17 Tl6 2.712526 1_555
O18 Os4 1.946606 1_555
O18 Os6 1.946613 1_555
O18 Tl4 2.712529 1_454
O18 Tl7 2.712548 1_554
O19 Os6 1.948256 1_655
O19 Os7 1.948257 1_554
O19 Tl4 2.742224 1_554
O19 Tl5 2.742238 1_555
O20 Os7 2.003729 1_555
O20 Os6 2.003732 1_555
O20 Tl9 2.596633 1_555
O20 Tl8 2.596633 1_565
O21 Os7 1.977066 1_555
O21 Os9 1.987191 1_555
O21 Tl9 2.636623 1_555
O21 Tl6 2.672071 1_555
O22 Os6 1.977080 1_545
O22 Os8 1.987191 1_455
O22 Tl8 2.636623 1_555
O22 Tl7 2.672066 1_555
O23 Tl9 2.214798 1_555
O23 Tl8 2.214798 1_554
O23 Tl7 2.415492 1_554
O23 Tl6 2.415498 1_555
O24 Os6 1.977080 1_555
O24 Os9 1.987191 1_454
O24 Tl9 2.636623 1_555
O24 Tl7 2.672066 1_554
O25 Os7 1.977071 1_545
O25 Os8 1.987191 1_556
O25 Tl8 2.636623 1_555
O25 Tl6 2.672078 1_556
O26 Os8 1.939554 1_555
O26 Os9 1.939554 1_555
O26 Tl7 2.727819 1_655
O26 Tl6 2.727833 1_555
O27 Os8 1.939554 1_565
O27 Os9 1.939554 1_554
O27 Tl11 2.727819 1_554
O27 Tl10 2.727833 1_655
O28 Tl8 2.214798 1_565
O28 Tl9 2.214798 1_555
O28 Tl11 2.415492 1_555
O28 Tl10 2.415498 1_555
O29 Os10 1.977066 1_555
O29 Os9 1.987191 1_455
O29 Tl9 2.636623 1_556
O29 Tl10 2.672071 1_556
O30 Os11 1.977080 1_555
O30 Os9 1.987191 1_555
O30 Tl9 2.636623 1_555
O30 Tl11 2.672066 1_555
O31 Os10 1.977071 1_555
O31 Os8 1.987191 1_455
O31 Tl8 2.636623 1_555
O31 Tl10 2.672078 1_545
O32 Os11 1.977080 1_555
O32 Os8 1.987191 1_555
O32 Tl8 2.636623 1_554
O32 Tl11 2.672066 1_544
O33 Os10 2.003729 1_554
O33 Os11 2.003732 1_555
O33 Tl8 2.596633 1_554
O33 Tl9 2.596633 1_555
O34 Os11 1.948256 1_555
O34 Os10 1.948257 1_655
O34 Tl1 2.742224 1_655
O34 Tl0 2.742238 1_655
O35 Os0 1.946613 1_555
O35 Os10 1.946613 1_554
O35 Tl1 2.712526 1_554
O35 Tl10 2.712526 1_555
O36 Os1 1.946604 1_554
O36 Os11 1.946604 1_555
O36 Tl11 2.712537 1_544
O36 Tl0 2.712537 1_655
O37 Os0 1.946606 1_555
O37 Os11 1.946613 1_555
O37 Tl1 2.712529 1_655
O37 Tl11 2.712548 1_555
O38 Os10 1.946606 1_555
O38 Os1 1.946613 1_555
O38 Tl10 2.712529 1_545
O38 Tl0 2.712548 1_555
O39 Os1 1.948256 1_555
O39 Os0 1.948257 1_545
O39 Tl10 2.742224 1_545
O39 Tl11 2.742238 1_545
