# generated using pymatgen
data_V16FeO41
_symmetry_space_group_name_H-M   'P 1'
_cell_length_a   11.71014600
_cell_length_b   14.63760600
_cell_length_c   4.55702100
_cell_angle_alpha   90.00000000
_cell_angle_beta   90.00000000
_cell_angle_gamma   90.00000000
_symmetry_Int_Tables_number   1
_chemical_formula_structural   V16FeO41
_chemical_formula_sum   'V16 Fe1 O41'
_cell_volume   781.11214935
_cell_formula_units_Z   1
loop_
 _symmetry_equiv_pos_site_id
 _symmetry_equiv_pos_as_xyz
  1  'x, y, z'
loop_
 _atom_site_type_symbol
 _atom_site_label
 _atom_site_symmetry_multiplicity
 _atom_site_fract_x
 _atom_site_fract_y
 _atom_site_fract_z
 _atom_site_occupancy
  V  V0  1  0.10242700  0.31250000  0.89977000  1
  V  V1  1  0.10252700  0.06471900  0.89955500  1
  V  V2  1  0.10252700  0.56028100  0.89955500  1
  V  V3  1  0.10042100  0.81250000  0.90212500  1
  V  V4  1  0.39747300  0.06471900  0.89955500  1
  V  V5  1  0.39757300  0.31250000  0.89977000  1
  V  V6  1  0.39747300  0.56028100  0.89955500  1
  V  V7  1  0.39957900  0.81250000  0.90212500  1
  V  V8  1  0.59430200  0.94486700  0.11392300  1
  V  V9  1  0.60102600  0.18909300  0.09636600  1
  V  V10  1  0.60102600  0.43590700  0.09636600  1
  V  V11  1  0.59430200  0.68013300  0.11392300  1
  V  V12  1  0.90569800  0.94486700  0.11392300  1
  V  V13  1  0.89897400  0.18909300  0.09636600  1
  V  V14  1  0.89897400  0.43590700  0.09636600  1
  V  V15  1  0.90569800  0.68013300  0.11392300  1
  Fe  Fe0  1  0.75000000  0.81250000  0.03671000  1
  O  O0  1  0.07041000  0.18890900  0.00221800  1
  O  O1  1  0.07041000  0.43609100  0.00221800  1
  O  O2  1  0.06993000  0.93828400  0.99787200  1
  O  O3  1  0.06993000  0.68671600  0.99787200  1
  O  O4  1  0.10892400  0.31250000  0.54778200  1
  O  O5  1  0.11097300  0.55986200  0.54772100  1
  O  O6  1  0.11097300  0.06513800  0.54772100  1
  O  O7  1  0.10636300  0.81250000  0.55048600  1
  O  O8  1  0.25000000  0.56125400  0.01984100  1
  O  O9  1  0.25000000  0.06374600  0.01984100  1
  O  O10  1  0.25000000  0.31250000  0.01695700  1
  O  O11  1  0.25000000  0.81250000  0.01151700  1
  O  O12  1  0.38902700  0.06513800  0.54772100  1
  O  O13  1  0.39107600  0.31250000  0.54778200  1
  O  O14  1  0.38902700  0.55986200  0.54772100  1
  O  O15  1  0.39363700  0.81250000  0.55048600  1
  O  O16  1  0.42959000  0.43609100  0.00221800  1
  O  O17  1  0.42959000  0.18890900  0.00221800  1
  O  O18  1  0.43007000  0.68671600  0.99787200  1
  O  O19  1  0.43007000  0.93828400  0.99787200  1
  O  O20  1  0.57326100  0.81250000  0.00897600  1
  O  O21  1  0.56607900  0.06690100  0.98994400  1
  O  O22  1  0.56793300  0.31250000  0.99529100  1
  O  O23  1  0.56607900  0.55809900  0.98994400  1
  O  O24  1  0.59326100  0.95196600  0.46500300  1
  O  O25  1  0.60763900  0.18848900  0.44863500  1
  O  O26  1  0.60763900  0.43651100  0.44863500  1
  O  O27  1  0.59326100  0.67303400  0.46500300  1
  O  O28  1  0.75000000  0.81250000  0.44393100  1
  O  O29  1  0.75000000  0.94923600  0.99699700  1
  O  O30  1  0.75000000  0.18864100  0.98369800  1
  O  O31  1  0.75000000  0.43635800  0.98369800  1
  O  O32  1  0.75000000  0.67576400  0.99699700  1
  O  O33  1  0.90673900  0.95196600  0.46500300  1
  O  O34  1  0.89236100  0.18848900  0.44863500  1
  O  O35  1  0.89236100  0.43651100  0.44863500  1
  O  O36  1  0.90673900  0.67303400  0.46500300  1
  O  O37  1  0.92673900  0.81250000  0.00897600  1
  O  O38  1  0.93392100  0.06690100  0.98994400  1
  O  O39  1  0.93206700  0.31250000  0.99529100  1
  O  O40  1  0.93392100  0.55809900  0.98994400  1
loop_
_geom_bond_atom_site_label_1
_geom_bond_atom_site_label_2
_geom_bond_distance
_geom_bond_site_symmetry_2
Fe0 O28 1.855715 1_555
Fe0 O29 2.009653 1_554
Fe0 O32 2.009653 1_554
Fe0 O20 2.073495 1_555
Fe0 O37 2.073495 1_555
O0 V0 1.905592 1_554
O0 V1 1.914387 1_554
O0 V13 2.052875 1_455
O1 V0 1.905592 1_554
O1 V2 1.914387 1_554
O1 V14 2.052875 1_455
O2 V3 1.925564 1_555
O2 V1 1.942048 1_565
O2 V12 1.996895 1_456
O3 V3 1.925564 1_555
O3 V2 1.942048 1_555
O3 V15 1.996895 1_456
O4 V0 1.605820 1_555
O5 V2 1.606374 1_555
O6 V1 1.606374 1_555
O7 V3 1.603936 1_555
O8 V6 1.811893 1_554
O8 V2 1.811893 1_554
O9 V4 1.811893 1_554
O9 V1 1.811893 1_554
O10 V5 1.808733 1_554
O10 V0 1.808733 1_554
O11 V7 1.821147 1_554
O11 V3 1.821147 1_554
O12 V4 1.606374 1_555
O13 V5 1.605820 1_555
O14 V6 1.606374 1_555
O15 V7 1.603936 1_555
O16 V5 1.905592 1_554
O16 V6 1.914387 1_554
O16 V10 2.052875 1_555
O17 V5 1.905592 1_554
O17 V4 1.914387 1_554
O17 V9 2.052875 1_555
O18 V7 1.925564 1_555
O18 V6 1.942048 1_555
O18 V11 1.996895 1_556
O19 V7 1.925564 1_555
O19 V4 1.942048 1_565
O19 V8 1.996895 1_556
O20 V8 2.010839 1_555
O20 V11 2.010839 1_555
O20 V7 2.091317 1_554
O21 V9 1.897828 1_556
O21 V8 1.902430 1_546
O21 V4 2.017162 1_555
O22 V10 1.904035 1_556
O22 V9 1.904035 1_556
O22 V5 2.041878 1_555
O23 V10 1.897828 1_556
O23 V11 1.902430 1_556
O23 V6 2.017162 1_555
O24 V8 1.603296 1_555
O25 V9 1.607188 1_555
O26 V10 1.607188 1_555
O27 V11 1.603296 1_555
O29 V8 1.900587 1_556
O29 V12 1.900587 1_556
O30 V13 1.818505 1_556
O30 V9 1.818505 1_556
O31 V14 1.818505 1_556
O31 V10 1.818505 1_556
O32 V15 1.900587 1_556
O32 V11 1.900587 1_556
O33 V12 1.603296 1_555
O34 V13 1.607188 1_555
O35 V14 1.607188 1_555
O36 V15 1.603296 1_555
O37 V12 2.010839 1_555
O37 V15 2.010839 1_555
O37 V3 2.091317 1_654
O38 V13 1.897828 1_556
O38 V12 1.902430 1_546
O38 V1 2.017162 1_655
O39 V14 1.904035 1_556
O39 V13 1.904035 1_556
O39 V0 2.041878 1_655
O40 V14 1.897828 1_556
O40 V15 1.902430 1_556
O40 V2 2.017162 1_655
