# generated using pymatgen
data_Mn6O7F5
_symmetry_space_group_name_H-M   'P 1'
_cell_length_a   4.56044300
_cell_length_b   5.67847711
_cell_length_c   15.36794734
_cell_angle_alpha   90.04338792
_cell_angle_beta   90.14857525
_cell_angle_gamma   90.49171145
_symmetry_Int_Tables_number   1
_chemical_formula_structural   Mn6O7F5
_chemical_formula_sum   'Mn12 O14 F10'
_cell_volume   397.95795435
_cell_formula_units_Z   2
loop_
 _symmetry_equiv_pos_site_id
 _symmetry_equiv_pos_as_xyz
  1  'x, y, z'
loop_
 _atom_site_type_symbol
 _atom_site_label
 _atom_site_symmetry_multiplicity
 _atom_site_fract_x
 _atom_site_fract_y
 _atom_site_fract_z
 _atom_site_occupancy
  Mn  Mn0  1  0.97642500  0.83884200  0.40956100  1
  Mn  Mn1  1  0.99008100  0.15327600  0.24364700  1
  Mn  Mn2  1  0.97184200  0.84169700  0.07877000  1
  Mn  Mn3  1  0.99447800  0.84784500  0.73998800  1
  Mn  Mn4  1  0.98392200  0.15241100  0.57257700  1
  Mn  Mn5  1  0.99144400  0.15320200  0.91033100  1
  Mn  Mn6  1  0.49873000  0.64981500  0.58686600  1
  Mn  Mn7  1  0.48622400  0.65243000  0.92562100  1
  Mn  Mn8  1  0.49872900  0.65078800  0.25417200  1
  Mn  Mn9  1  0.49575100  0.36330200  0.09449600  1
  Mn  Mn10  1  0.49496500  0.36701600  0.42597600  1
  Mn  Mn11  1  0.49067800  0.34981200  0.75781600  1
  O  O0  1  0.78082900  0.88621300  0.30097100  1
  O  O1  1  0.77756000  0.88749300  0.63265000  1
  O  O2  1  0.77749400  0.88380900  0.96963900  1
  O  O3  1  0.76328900  0.11406500  0.13681200  1
  O  O4  1  0.76068300  0.11419700  0.46713200  1
  O  O5  1  0.77964200  0.11546500  0.80118100  1
  O  O6  1  0.71950800  0.60286100  0.14729100  1
  O  O7  1  0.72042500  0.60267100  0.47936900  1
  O  O8  1  0.26741100  0.61137900  0.03213100  1
  O  O9  1  0.27520200  0.38003000  0.19755900  1
  O  O10  1  0.27230700  0.61380400  0.36158800  1
  O  O11  1  0.27224600  0.38263700  0.52798500  1
  O  O12  1  0.27817800  0.38391400  0.86618300  1
  O  O13  1  0.28163800  0.61731800  0.69646500  1
  F  F0  1  0.74088900  0.38196800  0.32002000  1
  F  F1  1  0.74491500  0.38303800  0.65283000  1
  F  F2  1  0.74487300  0.61888700  0.82109100  1
  F  F3  1  0.73828600  0.38048800  0.98767100  1
  F  F4  1  0.22678100  0.87888200  0.18290300  1
  F  F5  1  0.22598200  0.87630000  0.51366600  1
  F  F6  1  0.24604200  0.13044200  0.35601400  1
  F  F7  1  0.24482400  0.12729000  0.02392700  1
  F  F8  1  0.24367000  0.88533200  0.84761800  1
  F  F9  1  0.24405200  0.12107700  0.67748100  1
loop_
_geom_bond_atom_site_label_1
_geom_bond_atom_site_label_2
_geom_bond_distance
_geom_bond_site_symmetry_2
Mn0 O0 1.910502 1_555
Mn0 O10 2.007629 1_655
Mn0 O4 2.055348 1_565
Mn0 O7 2.072253 1_555
Mn1 O3 1.949770 1_555
Mn1 O9 1.956466 1_655
Mn1 O0 1.992004 1_545
Mn2 O2 1.911021 1_554
Mn2 O8 2.018654 1_655
Mn2 O3 2.029744 1_565
Mn2 O6 2.062549 1_555
Mn3 O1 1.935529 1_555
Mn3 O13 1.977017 1_655
Mn3 O5 2.044959 1_565
Mn4 O4 1.922656 1_555
Mn4 O11 1.970834 1_655
Mn4 O1 1.995818 1_545
Mn5 O5 1.944251 1_555
Mn5 O12 1.965479 1_655
Mn5 O2 2.025820 1_545
Mn6 O7 1.958472 1_555
Mn6 O13 1.963953 1_555
Mn6 O1 1.974339 1_555
Mn6 O11 2.038035 1_555
Mn7 O8 1.932463 1_556
Mn7 O2 1.977969 1_555
Mn7 O12 2.006994 1_555
Mn8 O6 1.948938 1_555
Mn8 O10 1.959847 1_555
Mn8 O0 1.980845 1_555
Mn8 O9 2.031365 1_555
Mn9 O6 1.876240 1_555
Mn9 O9 1.881214 1_555
Mn9 O3 1.985316 1_555
Mn9 O8 2.002355 1_555
Mn10 O7 1.868555 1_555
Mn10 O11 1.872616 1_555
Mn10 O4 1.989160 1_555
Mn10 O10 1.998847 1_555
Mn11 O12 1.939389 1_555
Mn11 O5 1.994612 1_555
Mn11 O13 2.031640 1_555
F0 Mn10 1.981039 1_555
F0 Mn1 2.094131 1_555
F0 Mn8 2.144595 1_555
F1 Mn11 1.997352 1_555
F1 Mn4 2.110271 1_555
F1 Mn6 2.146773 1_555
F2 Mn7 2.005344 1_555
F2 Mn3 2.126966 1_555
F2 Mn11 2.141380 1_555
F3 Mn9 1.983893 1_556
F3 Mn5 2.107530 1_555
F3 Mn7 2.154604 1_555
F4 Mn2 1.985680 1_455
F4 Mn8 2.106652 1_555
F4 Mn1 2.120462 1_465
F5 Mn0 1.971293 1_455
F5 Mn6 2.118741 1_555
F5 Mn4 2.128206 1_465
F6 Mn10 2.052961 1_555
F6 Mn1 2.086597 1_455
F6 Mn0 2.214320 1_445
F7 Mn9 2.060776 1_555
F7 Mn5 2.096982 1_454
F7 Mn2 2.205233 1_445
F8 Mn3 2.014505 1_455
F8 Mn7 2.104824 1_555
F8 Mn5 2.144584 1_465
F9 Mn4 2.008029 1_455
F9 Mn11 2.107499 1_555
F9 Mn3 2.145480 1_445
