# generated using pymatgen
data_BaP4O11
_symmetry_space_group_name_H-M   'P 1'
_cell_length_a   9.18910700
_cell_length_b   11.04071800
_cell_length_c   14.53393413
_cell_angle_alpha   54.57169491
_cell_angle_beta   90.00000000
_cell_angle_gamma   90.00000000
_symmetry_Int_Tables_number   1
_chemical_formula_structural   BaP4O11
_chemical_formula_sum   'Ba4 P16 O44'
_cell_volume   1201.50882369
_cell_formula_units_Z   4
loop_
 _symmetry_equiv_pos_site_id
 _symmetry_equiv_pos_as_xyz
  1  'x, y, z'
loop_
 _atom_site_type_symbol
 _atom_site_label
 _atom_site_symmetry_multiplicity
 _atom_site_fract_x
 _atom_site_fract_y
 _atom_site_fract_z
 _atom_site_occupancy
  Ba  Ba0  1  0.01244700  0.26134800  0.78490400  1
  Ba  Ba1  1  0.51244700  0.73865200  0.71509600  1
  Ba  Ba2  1  0.48755300  0.26134800  0.28490400  1
  Ba  Ba3  1  0.98755300  0.73865200  0.21509600  1
  P  P0  1  0.43062400  0.31396600  0.84143200  1
  P  P1  1  0.39034800  0.84823700  0.22841900  1
  P  P2  1  0.93062400  0.68603400  0.65856800  1
  P  P3  1  0.01214300  0.85237800  0.41981600  1
  P  P4  1  0.35049400  0.82870600  0.44063600  1
  P  P5  1  0.85049400  0.17129400  0.05936400  1
  P  P6  1  0.51214300  0.14762200  0.08018400  1
  P  P7  1  0.89034800  0.15176300  0.27158100  1
  P  P8  1  0.10965200  0.84823700  0.72841900  1
  P  P9  1  0.48785700  0.85237800  0.91981600  1
  P  P10  1  0.14950600  0.82870600  0.94063600  1
  P  P11  1  0.64950600  0.17129400  0.55936400  1
  P  P12  1  0.98785700  0.14762200  0.58018400  1
  P  P13  1  0.06937600  0.31396600  0.34143200  1
  P  P14  1  0.60965200  0.15176300  0.77158100  1
  P  P15  1  0.56937600  0.68603400  0.15856800  1
  O  O0  1  0.55511700  0.28436200  0.77453100  1
  O  O1  1  0.45620100  0.16212500  0.97132900  1
  O  O2  1  0.28495100  0.30053900  0.80450600  1
  O  O3  1  0.90897000  0.28657200  0.94579200  1
  O  O4  1  0.98047100  0.55506200  0.66308400  1
  O  O5  1  0.24568800  0.90561800  0.17620500  1
  O  O6  1  0.92404700  0.77851500  0.38111100  1
  O  O7  1  0.39955300  0.77688700  0.35870300  1
  O  O8  1  0.87762400  0.01005100  0.11734200  1
  O  O9  1  0.52024000  0.96890100  0.17014400  1
  O  O10  1  0.17412600  0.79994900  0.44284800  1
  O  O11  1  0.48047100  0.44493800  0.83691600  1
  O  O12  1  0.40897000  0.71342800  0.55420800  1
  O  O13  1  0.78495100  0.69946100  0.69549400  1
  O  O14  1  0.95620100  0.83787500  0.52867100  1
  O  O15  1  0.05511700  0.71563800  0.72546900  1
  O  O16  1  0.67412600  0.20005100  0.05715200  1
  O  O17  1  0.02024000  0.03109900  0.32985600  1
  O  O18  1  0.37762400  0.98994900  0.38265800  1
  O  O19  1  0.89955300  0.22311300  0.14129700  1
  O  O20  1  0.42404700  0.22148500  0.11888900  1
  O  O21  1  0.74568800  0.09438200  0.32379500  1
  O  O22  1  0.25431200  0.90561800  0.67620500  1
  O  O23  1  0.57595300  0.77851500  0.88111100  1
  O  O24  1  0.10044700  0.77688700  0.85870300  1
  O  O25  1  0.62237600  0.01005100  0.61734200  1
  O  O26  1  0.97976000  0.96890100  0.67014400  1
  O  O27  1  0.32587400  0.79994900  0.94284800  1
  O  O28  1  0.94488300  0.28436200  0.27453100  1
  O  O29  1  0.04379900  0.16212500  0.47132900  1
  O  O30  1  0.21504900  0.30053900  0.30450600  1
  O  O31  1  0.59103000  0.28657200  0.44579200  1
  O  O32  1  0.51952900  0.55506200  0.16308400  1
  O  O33  1  0.82587400  0.20005100  0.55715200  1
  O  O34  1  0.47976000  0.03109900  0.82985600  1
  O  O35  1  0.12237600  0.98994900  0.88265800  1
  O  O36  1  0.60044700  0.22311300  0.64129700  1
  O  O37  1  0.07595300  0.22148500  0.61888900  1
  O  O38  1  0.75431200  0.09438200  0.82379500  1
  O  O39  1  0.01952900  0.44493800  0.33691600  1
  O  O40  1  0.09103000  0.71342800  0.05420800  1
  O  O41  1  0.71504900  0.69946100  0.19549400  1
  O  O42  1  0.54379900  0.83787500  0.02867100  1
  O  O43  1  0.44488300  0.71563800  0.22546900  1
loop_
_geom_bond_atom_site_label_1
_geom_bond_atom_site_label_2
_geom_bond_distance
_geom_bond_site_symmetry_2
Ba0 O2 2.584892 1_555
Ba0 O4 2.660911 1_455
Ba0 O35 2.661190 1_545
Ba0 O3 2.684119 1_455
Ba0 O37 2.754500 1_555
Ba0 O38 2.852403 1_455
Ba1 O13 2.584892 1_555
Ba1 O11 2.660911 1_555
Ba1 O25 2.661190 1_565
Ba1 O12 2.684119 1_555
Ba1 O23 2.754500 1_555
Ba1 O22 2.852403 1_555
Ba2 O30 2.584892 1_555
Ba2 O32 2.660911 1_555
Ba2 O18 2.661190 1_545
Ba2 O31 2.684119 1_555
Ba2 O20 2.754500 1_555
Ba2 O21 2.852403 1_555
Ba3 O41 2.584892 1_555
Ba3 O39 2.660911 1_655
Ba3 O8 2.661190 1_565
Ba3 O40 2.684119 1_655
Ba3 O6 2.754500 1_555
Ba3 O5 2.852403 1_655
O0 P14 1.571305 1_555
O0 P0 1.652093 1_555
O1 P6 1.580887 1_556
O1 P0 1.661485 1_555
O2 P0 1.481251 1_555
O3 P5 1.482430 1_556
O4 P2 1.481577 1_555
O5 P1 1.478814 1_555
O6 P3 1.472642 1_655
O7 P1 1.576020 1_555
O7 P4 1.654821 1_555
O8 P5 1.484005 1_555
O9 P1 1.615132 1_555
O9 P6 1.617869 1_565
O10 P3 1.561425 1_555
O10 P4 1.648198 1_555
O11 P0 1.481577 1_555
O12 P4 1.482430 1_555
O13 P2 1.481251 1_555
O14 P3 1.580887 1_655
O14 P2 1.661485 1_555
O15 P8 1.571305 1_555
O15 P2 1.652093 1_455
O16 P6 1.561425 1_555
O16 P5 1.648198 1_555
O17 P7 1.615132 1_455
O17 P3 1.617869 1_545
O18 P4 1.484005 1_555
O19 P7 1.576020 1_555
O19 P5 1.654821 1_555
O20 P6 1.472642 1_555
O21 P7 1.478814 1_555
O22 P8 1.478814 1_555
O23 P9 1.472642 1_555
O24 P8 1.576020 1_555
O24 P10 1.654821 1_555
O25 P11 1.484005 1_555
O26 P8 1.615132 1_655
O26 P12 1.617869 1_565
O27 P9 1.561425 1_555
O27 P10 1.648198 1_555
O28 P7 1.571305 1_555
O28 P13 1.652093 1_655
O29 P12 1.580887 1_455
O29 P13 1.661485 1_555
O30 P13 1.481251 1_555
O31 P11 1.482430 1_555
O32 P15 1.481577 1_555
O33 P12 1.561425 1_555
O33 P11 1.648198 1_555
O34 P14 1.615132 1_555
O34 P9 1.617869 1_545
O35 P10 1.484005 1_555
O36 P14 1.576020 1_555
O36 P11 1.654821 1_555
O37 P12 1.472642 1_455
O38 P14 1.478814 1_555
O39 P13 1.481577 1_555
O40 P10 1.482430 1_554
O41 P15 1.481251 1_555
O42 P9 1.580887 1_554
O42 P15 1.661485 1_555
O43 P1 1.571305 1_555
O43 P15 1.652093 1_555
