# generated using pymatgen
data_PmZn3
_symmetry_space_group_name_H-M   'P 1'
_cell_length_a   6.43663592
_cell_length_b   6.43663534
_cell_length_c   4.33682658
_cell_angle_alpha   90.00000000
_cell_angle_beta   90.00000000
_cell_angle_gamma   120.00017228
_symmetry_Int_Tables_number   1
_chemical_formula_structural   PmZn3
_chemical_formula_sum   'Pm2 Zn6'
_cell_volume   155.60365138
_cell_formula_units_Z   2
loop_
 _symmetry_equiv_pos_site_id
 _symmetry_equiv_pos_as_xyz
  1  'x, y, z'
loop_
 _atom_site_type_symbol
 _atom_site_label
 _atom_site_symmetry_multiplicity
 _atom_site_fract_x
 _atom_site_fract_y
 _atom_site_fract_z
 _atom_site_occupancy
  Pm  Pm0  1  0.33333400  0.66666600  0.74999900  1
  Pm  Pm1  1  0.66666700  0.33333400  0.25000000  1
  Zn  Zn0  1  0.14195244  0.28390388  0.25000000  1
  Zn  Zn1  1  0.71609812  0.85804856  0.25000000  1
  Zn  Zn2  1  0.14195244  0.85804956  0.25000000  1
  Zn  Zn3  1  0.85804956  0.71609712  0.74999900  1
  Zn  Zn4  1  0.28390288  0.14195144  0.74999900  1
  Zn  Zn5  1  0.85804956  0.14195144  0.74999900  1
loop_
_geom_bond_atom_site_label_1
_geom_bond_atom_site_label_2
_geom_bond_distance
_geom_bond_site_symmetry_2
Pm0 Zn0 3.042096 1_555
Pm0 Zn0 3.042102 1_556
Pm0 Zn1 3.042104 1_555
Pm0 Zn1 3.042110 1_556
Pm0 Zn2 3.042111 1_555
Pm0 Zn2 3.042117 1_556
Pm0 Zn5 3.230080 1_455
Pm0 Zn4 3.230084 1_555
Pm0 Zn5 3.230086 1_565
Pm0 Zn3 3.230091 1_555
Pm0 Zn3 3.230093 1_455
Pm0 Zn4 3.230099 1_565
Pm1 Zn3 3.042099 1_555
Pm1 Zn4 3.042104 1_555
Pm1 Zn3 3.042106 1_554
Pm1 Zn4 3.042110 1_554
Pm1 Zn5 3.042111 1_555
Pm1 Zn5 3.042117 1_554
Pm1 Zn2 3.230080 1_545
Pm1 Zn1 3.230084 1_555
Pm1 Zn2 3.230086 1_655
Pm1 Zn0 3.230088 1_555
Pm1 Zn0 3.230096 1_655
Pm1 Zn1 3.230099 1_545
Zn0 Zn5 2.684488 1_455
Zn0 Zn4 2.684490 1_555
Zn0 Zn5 2.684495 1_454
Zn0 Zn4 2.684497 1_554
Zn0 Zn1 2.741065 1_445
Zn0 Zn2 2.741069 1_545
Zn1 Zn5 2.684488 1_565
Zn1 Zn3 2.684490 1_555
Zn1 Zn5 2.684495 1_564
Zn1 Zn3 2.684497 1_554
Zn1 Zn2 2.741066 1_655
Zn2 Zn4 2.684485 1_565
Zn2 Zn3 2.684488 1_455
Zn2 Zn4 2.684492 1_564
Zn2 Zn3 2.684495 1_454
Zn3 Zn4 2.741059 1_665
Zn3 Zn5 2.741069 1_565
Zn4 Zn5 2.741063 1_455
