# generated using pymatgen
data_Ti2AlTc
_symmetry_space_group_name_H-M   'P 1'
_cell_length_a   4.42905431
_cell_length_b   4.42905430
_cell_length_c   4.42905431
_cell_angle_alpha   59.99985096
_cell_angle_beta   59.99985102
_cell_angle_gamma   59.99985123
_symmetry_Int_Tables_number   1
_chemical_formula_structural   Ti2AlTc
_chemical_formula_sum   'Ti2 Al1 Tc1'
_cell_volume   61.43509754
_cell_formula_units_Z   1
loop_
 _symmetry_equiv_pos_site_id
 _symmetry_equiv_pos_as_xyz
  1  'x, y, z'
loop_
 _atom_site_type_symbol
 _atom_site_label
 _atom_site_symmetry_multiplicity
 _atom_site_fract_x
 _atom_site_fract_y
 _atom_site_fract_z
 _atom_site_occupancy
  Ti  Ti0  1  0.49999931  0.49999931  0.49999931  1
  Ti  Ti1  1  0.00000014  0.00000014  0.00000014  1
  Al  Al0  1  0.25000074  0.25000075  0.25000076  1
  Tc  Tc0  1  0.75000080  0.75000079  0.75000079  1
loop_
_geom_bond_atom_site_label_1
_geom_bond_atom_site_label_2
_geom_bond_distance
_geom_bond_site_symmetry_2
Al0 Ti0 2.712218 1_555
Al0 Ti1 2.712223 1_556
Al0 Ti1 2.712223 1_565
Al0 Ti1 2.712224 1_655
Al0 Ti0 2.712231 1_455
Al0 Ti0 2.712231 1_545
Al0 Ti0 2.712231 1_554
Al0 Ti1 2.712240 1_555
Al0 Tc0 3.131810 1_445
Al0 Tc0 3.131811 1_454
Al0 Tc0 3.131811 1_544
Al0 Tc0 3.131811 1_455
Al0 Tc0 3.131811 1_545
Al0 Tc0 3.131811 1_554
Tc0 Ti0 2.712220 1_655
Tc0 Ti0 2.712220 1_565
Tc0 Ti0 2.712220 1_556
Tc0 Ti1 2.712227 1_666
Tc0 Ti1 2.712228 1_656
Tc0 Ti1 2.712228 1_665
Tc0 Ti1 2.712228 1_566
Tc0 Ti0 2.712250 1_555
