# generated using pymatgen
data_RuO2
_symmetry_space_group_name_H-M   'P 1'
_cell_length_a   3.11134140
_cell_length_b   4.48164753
_cell_length_c   4.48335310
_cell_angle_alpha   90.00000000
_cell_angle_beta   90.00000000
_cell_angle_gamma   90.00000000
_symmetry_Int_Tables_number   1
_chemical_formula_structural   RuO2
_chemical_formula_sum   'Ru2 O4'
_cell_volume   62.51558645
_cell_formula_units_Z   2
loop_
 _symmetry_equiv_pos_site_id
 _symmetry_equiv_pos_as_xyz
  1  'x, y, z'
loop_
 _atom_site_type_symbol
 _atom_site_label
 _atom_site_symmetry_multiplicity
 _atom_site_fract_x
 _atom_site_fract_y
 _atom_site_fract_z
 _atom_site_occupancy
  Ru  Ru0  1  0.50000000  0.50000000  0.50000000  1
  Ru  Ru1  1  -0.00000000  0.00000000  -0.00000000  1
  O  O0  1  0.50000000  0.80536187  0.19447755  1
  O  O1  1  0.50000000  0.19463813  0.80552245  1
  O  O2  1  0.00000000  0.69463813  0.69447755  1
  O  O3  1  -0.00000000  0.30536187  0.30552245  1
loop_
_geom_bond_atom_site_label_1
_geom_bond_atom_site_label_2
_geom_bond_distance
_geom_bond_site_symmetry_2
O0 Ru0 1.936263 1_555
O0 Ru1 1.985258 1_565
O0 Ru1 1.985258 1_665
O1 Ru0 1.936263 1_555
O1 Ru1 1.985258 1_556
O1 Ru1 1.985258 1_656
O2 Ru1 1.936263 1_566
O2 Ru0 1.985258 1_555
O2 Ru0 1.985258 1_455
O3 Ru1 1.936263 1_555
O3 Ru0 1.985258 1_555
O3 Ru0 1.985258 1_455
