# generated using pymatgen
data_NaCr4O12
_symmetry_space_group_name_H-M   'P 1'
_cell_length_a   16.06108244
_cell_length_b   16.06108244
_cell_length_c   16.06108244
_cell_angle_alpha   148.26256768
_cell_angle_beta   148.26256768
_cell_angle_gamma   45.49791200
_symmetry_Int_Tables_number   1
_chemical_formula_structural   NaCr4O12
_chemical_formula_sum   'Na4 Cr16 O48'
_cell_volume   1142.66399983
_cell_formula_units_Z   4
loop_
 _symmetry_equiv_pos_site_id
 _symmetry_equiv_pos_as_xyz
  1  'x, y, z'
loop_
 _atom_site_type_symbol
 _atom_site_label
 _atom_site_symmetry_multiplicity
 _atom_site_fract_x
 _atom_site_fract_y
 _atom_site_fract_z
 _atom_site_occupancy
  Na  Na0  1  0.00000000  0.50000000  0.50000000  1
  Na  Na1  1  0.25000000  0.25000000  0.00000000  1
  Na  Na2  1  0.50000000  0.00000000  0.50000000  1
  Na  Na3  1  0.75000000  0.75000000  0.00000000  1
  Cr  Cr0  1  0.03736000  0.81677800  0.50672100  1
  Cr  Cr1  1  0.28063900  0.28736000  0.72058200  1
  Cr  Cr2  1  0.96936100  0.18994300  0.50672100  1
  Cr  Cr3  1  0.53736000  0.03063900  0.22058200  1
  Cr  Cr4  1  0.43994300  0.71936100  0.00672100  1
  Cr  Cr5  1  0.81005700  0.31677800  0.77941800  1
  Cr  Cr6  1  0.68322200  0.46264000  0.49327900  1
  Cr  Cr7  1  0.56677800  0.56005700  0.27941800  1
  Cr  Cr8  1  0.18322200  0.68994300  0.22058200  1
  Cr  Cr9  1  0.06677800  0.78736000  0.00672100  1
  Cr  Cr10  1  0.93994300  0.93322200  0.72058200  1
  Cr  Cr11  1  0.31005700  0.53063900  0.49327900  1
  Cr  Cr12  1  0.21264000  0.21936100  0.27941800  1
  Cr  Cr13  1  0.78063900  0.06005700  0.99327900  1
  Cr  Cr14  1  0.46936100  0.96264000  0.77941800  1
  Cr  Cr15  1  0.71264000  0.43322200  0.99327900  1
  O  O0  1  0.86922100  0.01645300  0.26963600  1
  O  O1  1  0.64393000  0.95688000  0.17616000  1
  O  O2  1  0.94544700  0.87500000  0.57044700  1
  O  O3  1  0.14393000  0.96777000  0.68705000  1
  O  O4  1  0.36922100  0.09958600  0.85276800  1
  O  O5  1  0.12500000  0.19544700  0.57044700  1
  O  O6  1  0.04312000  0.21928000  0.68705000  1
  O  O7  1  0.20688000  0.39393000  0.67616000  1
  O  O8  1  0.40041400  0.13077900  0.14723200  1
  O  O9  1  0.84958600  0.49681800  0.23036400  1
  O  O10  1  0.83886500  0.33886500  0.50000000  1
  O  O11  1  0.58886500  0.58886500  0.00000000  1
  O  O12  1  0.41113500  0.41113500  0.00000000  1
  O  O13  1  0.66113400  0.16113400  0.50000000  1
  O  O14  1  0.26645300  0.61922100  0.76963600  1
  O  O15  1  0.98354700  0.25318200  0.85276800  1
  O  O16  1  0.71777000  0.53072000  0.32384000  1
  O  O17  1  0.53223000  0.35607000  0.31295000  1
  O  O18  1  0.62500000  0.55455300  0.42955300  1
  O  O19  1  0.24681800  0.51645300  0.14723200  1
  O  O20  1  0.00318200  0.65041400  0.76963600  1
  O  O21  1  0.28072000  0.45688000  0.31295000  1
  O  O22  1  0.96928000  0.78223000  0.67616000  1
  O  O23  1  0.30455300  0.37500000  0.42955300  1
  O  O24  1  0.44544700  0.87500000  0.07044700  1
  O  O25  1  0.78072000  0.46777000  0.82384000  1
  O  O26  1  0.46928000  0.79312000  0.18705000  1
  O  O27  1  0.74681800  0.59958600  0.73036400  1
  O  O28  1  0.50318200  0.73354700  0.35276800  1
  O  O29  1  0.12500000  0.69544700  0.07044700  1
  O  O30  1  0.21777000  0.89393000  0.18705000  1
  O  O31  1  0.03223000  0.71928000  0.17616000  1
  O  O32  1  0.76645300  0.99681800  0.64723200  1
  O  O33  1  0.48354700  0.63077900  0.73036400  1
  O  O34  1  0.08886500  0.08886500  0.00000000  1
  O  O35  1  0.91113400  0.91113400  0.00000000  1
  O  O36  1  0.16113500  0.66113500  0.50000000  1
  O  O37  1  0.33886500  0.83886500  0.50000000  1
  O  O38  1  0.90041400  0.75318200  0.26963600  1
  O  O39  1  0.34958600  0.11922100  0.35276800  1
  O  O40  1  0.54312000  0.85607000  0.82384000  1
  O  O41  1  0.70688000  0.03072000  0.81295000  1
  O  O42  1  0.62500000  0.05455300  0.92955300  1
  O  O43  1  0.38077900  0.15041400  0.64723200  1
  O  O44  1  0.60607000  0.28223000  0.81295000  1
  O  O45  1  0.80455300  0.37500000  0.92955300  1
  O  O46  1  0.10607000  0.29312000  0.32384000  1
  O  O47  1  0.88077900  0.23354700  0.23036400  1
loop_
_geom_bond_atom_site_label_1
_geom_bond_atom_site_label_2
_geom_bond_distance
_geom_bond_site_symmetry_2
Na0 O22 2.494066 1_455
Na0 O7 2.494066 1_555
Na0 O46 2.494066 1_555
Na0 O16 2.494066 1_455
Na0 O47 2.567985 1_455
Na0 O14 2.567985 1_555
Na0 O9 2.568005 1_455
Na0 O20 2.568005 1_555
Na1 O6 2.494066 1_554
Na1 O3 2.494066 1_544
Na1 O21 2.494066 1_555
Na1 O17 2.494066 1_555
Na1 O8 2.567991 1_555
Na1 O15 2.567991 1_454
Na1 O4 2.567991 1_554
Na1 O19 2.567991 1_555
Na2 O44 2.494066 1_555
Na2 O41 2.494066 1_555
Na2 O26 2.494066 1_545
Na2 O30 2.494066 1_545
Na2 O39 2.567991 1_555
Na2 O32 2.567991 1_545
Na2 O28 2.567991 1_545
Na2 O43 2.567991 1_555
Na3 O25 2.494066 1_554
Na3 O40 2.494066 1_554
Na3 O31 2.494066 1_655
Na3 O1 2.494066 1_555
Na3 O33 2.567985 1_554
Na3 O0 2.567985 1_565
Na3 O38 2.568005 1_555
Na3 O27 2.568005 1_554
Cr0 O3 1.624524 1_555
Cr0 O38 1.633605 1_455
Cr0 O2 1.762976 1_455
Cr0 O36 1.775401 1_555
Cr1 O7 1.624524 1_555
Cr1 O43 1.633616 1_555
Cr1 O5 1.762976 1_555
Cr1 O12 1.775401 1_556
Cr2 O6 1.624524 1_655
Cr2 O0 1.633615 1_555
Cr2 O5 1.762976 1_655
Cr2 O10 1.775401 1_555
Cr3 O1 1.624524 1_545
Cr3 O8 1.633616 1_555
Cr3 O24 1.762976 1_545
Cr3 O13 1.775408 1_555
Cr4 O26 1.624524 1_555
Cr4 O14 1.633615 1_554
Cr4 O24 1.762976 1_555
Cr4 O11 1.775401 1_555
Cr5 O25 1.624524 1_555
Cr5 O15 1.633616 1_555
Cr5 O45 1.762976 1_555
Cr5 O13 1.775408 1_555
Cr6 O17 1.624524 1_555
Cr6 O27 1.633605 1_555
Cr6 O18 1.762976 1_555
Cr6 O10 1.775401 1_555
Cr7 O16 1.624524 1_555
Cr7 O28 1.633616 1_555
Cr7 O18 1.762976 1_555
Cr7 O12 1.775401 1_555
Cr8 O31 1.624524 1_555
Cr8 O19 1.633616 1_555
Cr8 O29 1.762976 1_555
Cr8 O37 1.775401 1_555
Cr9 O30 1.624524 1_555
Cr9 O20 1.633605 1_554
Cr9 O29 1.762976 1_555
Cr9 O35 1.775408 1_455
Cr10 O22 1.624524 1_555
Cr10 O32 1.633616 1_555
Cr10 O2 1.762976 1_555
Cr10 O34 1.775401 1_666
Cr11 O21 1.624524 1_555
Cr11 O33 1.633615 1_555
Cr11 O23 1.762976 1_555
Cr11 O36 1.775401 1_555
Cr12 O46 1.624524 1_555
Cr12 O39 1.633616 1_555
Cr12 O23 1.762976 1_555
Cr12 O34 1.775401 1_555
Cr13 O41 1.624524 1_555
Cr13 O47 1.633615 1_556
Cr13 O42 1.762976 1_555
Cr13 O35 1.775408 1_546
Cr14 O40 1.624524 1_555
Cr14 O4 1.633616 1_565
Cr14 O42 1.762976 1_565
Cr14 O37 1.775401 1_555
Cr15 O44 1.624524 1_555
Cr15 O9 1.633605 1_556
Cr15 O45 1.762976 1_555
Cr15 O11 1.775401 1_556
