# generated using pymatgen
data_Na2AgAs
_symmetry_space_group_name_H-M   'P 1'
_cell_length_a   5.59684731
_cell_length_b   5.72855843
_cell_length_c   5.72855770
_cell_angle_alpha   99.69777462
_cell_angle_beta   90.00000000
_cell_angle_gamma   90.00000000
_symmetry_Int_Tables_number   1
_chemical_formula_structural   Na2AgAs
_chemical_formula_sum   'Na4 Ag2 As2'
_cell_volume   181.04363689
_cell_formula_units_Z   2
loop_
 _symmetry_equiv_pos_site_id
 _symmetry_equiv_pos_as_xyz
  1  'x, y, z'
loop_
 _atom_site_type_symbol
 _atom_site_label
 _atom_site_symmetry_multiplicity
 _atom_site_fract_x
 _atom_site_fract_y
 _atom_site_fract_z
 _atom_site_occupancy
  Na  Na0  1  0.25026255  0.67894545  0.03186140  1
  Na  Na1  1  0.75026255  0.32105455  0.96813860  1
  Na  Na2  1  0.24973745  0.03186140  0.67894545  1
  Na  Na3  1  0.74973745  0.96813860  0.32105455  1
  Ag  Ag0  1  0.50000000  0.49993570  0.50006430  1
  Ag  Ag1  1  -0.00000000  0.50006430  0.49993570  1
  As  As0  1  0.75000000  0.78674212  0.78674212  1
  As  As1  1  0.25000000  0.21325788  0.21325788  1
loop_
_geom_bond_atom_site_label_1
_geom_bond_atom_site_label_2
_geom_bond_distance
_geom_bond_site_symmetry_2
Ag0 As1 2.538732 1_555
Ag0 As0 2.538732 1_555
Ag0 Ag1 2.798424 1_655
Ag0 Ag1 2.798424 1_555
Ag0 Na0 3.335521 1_555
Ag0 Na3 3.335522 1_555
Ag0 Na1 3.335798 1_555
Ag0 Na2 3.335798 1_555
Ag0 Na0 3.351644 1_556
Ag0 Na3 3.351644 1_545
Ag0 Na1 3.353390 1_554
Ag0 Na2 3.353390 1_565
Ag1 As0 2.538732 1_455
Ag1 As1 2.538732 1_555
Ag1 Na1 3.335521 1_455
Ag1 Na2 3.335522 1_555
Ag1 Na0 3.335798 1_555
Ag1 Na3 3.335798 1_455
Ag1 Na1 3.351644 1_454
Ag1 Na2 3.351644 1_565
Ag1 Na0 3.353390 1_556
Ag1 Na3 3.353390 1_445
As0 Na3 3.021667 1_555
As0 Na1 3.021667 1_555
As0 Na3 3.062187 1_556
As0 Na1 3.062187 1_565
As0 Na0 3.235450 1_556
As0 Na2 3.235450 1_665
As0 Na0 3.237991 1_656
As0 Na2 3.237991 1_565
As1 Na2 3.021667 1_555
As1 Na0 3.021667 1_555
As1 Na2 3.062187 1_554
As1 Na0 3.062187 1_545
As1 Na1 3.235450 1_454
As1 Na3 3.235450 1_545
As1 Na1 3.237991 1_554
As1 Na3 3.237991 1_445
