# generated using pymatgen
data_Li5V3(NiO5)2
_symmetry_space_group_name_H-M   'P 1'
_cell_length_a   5.06970500
_cell_length_b   5.20218572
_cell_length_c   7.92562277
_cell_angle_alpha   106.96862444
_cell_angle_beta   102.66512063
_cell_angle_gamma   100.61921618
_symmetry_Int_Tables_number   1
_chemical_formula_structural   Li5V3(NiO5)2
_chemical_formula_sum   'Li5 V3 Ni2 O10'
_cell_volume   188.03234687
_cell_formula_units_Z   1
loop_
 _symmetry_equiv_pos_site_id
 _symmetry_equiv_pos_as_xyz
  1  'x, y, z'
loop_
 _atom_site_type_symbol
 _atom_site_label
 _atom_site_symmetry_multiplicity
 _atom_site_fract_x
 _atom_site_fract_y
 _atom_site_fract_z
 _atom_site_occupancy
  Li  Li0  1  0.34041600  0.08266200  0.42397000  1
  Li  Li1  1  0.84141800  0.74645400  0.76969500  1
  Li  Li2  1  0.50000000  0.50000000  0.50000000  1
  Li  Li3  1  0.15858200  0.25354600  0.23030500  1
  Li  Li4  1  0.65958400  0.91733800  0.57603000  1
  V  V0  1  0.00000000  0.50000000  0.00000000  1
  V  V1  1  0.91703700  0.13099300  0.88159400  1
  V  V2  1  0.08296300  0.86900700  0.11840600  1
  Ni  Ni0  1  0.72070900  0.31277700  0.68295900  1
  Ni  Ni1  1  0.27929100  0.68722300  0.31704100  1
  O  O0  1  0.30278800  0.36435800  0.87268100  1
  O  O1  1  0.43574200  0.82043800  0.95687400  1
  O  O2  1  0.04344300  0.20682200  0.55045900  1
  O  O3  1  0.79514100  0.01866900  0.22404400  1
  O  O4  1  0.13180400  0.56223500  0.67290000  1
  O  O5  1  0.86819600  0.43776500  0.32710000  1
  O  O6  1  0.20485900  0.98133100  0.77595600  1
  O  O7  1  0.95655700  0.79317800  0.44954100  1
  O  O8  1  0.56425800  0.17956200  0.04312600  1
  O  O9  1  0.69721200  0.63564200  0.12731900  1
loop_
_geom_bond_atom_site_label_1
_geom_bond_atom_site_label_2
_geom_bond_distance
_geom_bond_site_symmetry_2
Li0 Ni1 1.917911 1_545
Li0 O2 2.081162 1_555
Li0 V2 2.304792 1_545
Li0 Ni0 2.311543 1_555
Li1 V1 1.862253 1_565
Li1 O6 1.996282 1_655
Li1 O4 2.064058 1_655
Li1 Ni0 2.082867 1_555
Li1 V2 2.596931 1_656
Li2 Ni0 2.194959 1_555
Li2 Ni1 2.194959 1_555
Li2 O5 2.559777 1_555
Li2 O4 2.559777 1_555
Li3 V2 1.862253 1_545
Li3 O3 1.996282 1_455
Li3 O5 2.064058 1_455
Li3 Ni1 2.082867 1_555
Li3 V1 2.596931 1_454
Li4 Ni0 1.917911 1_565
Li4 O7 2.081162 1_555
Li4 V1 2.304792 1_565
Li4 Ni1 2.311543 1_555
V0 V1 1.794557 1_454
V0 V2 1.794557 1_555
Ni0 O2 2.198097 1_655
Ni0 V1 2.211833 1_555
Ni0 O4 2.273868 1_655
Ni0 V0 2.402175 1_656
Ni1 O7 2.198097 1_455
Ni1 V2 2.211833 1_555
Ni1 O5 2.273868 1_455
Ni1 V0 2.402175 1_555
O0 O6 1.838866 1_545
O0 V0 2.129642 1_556
O0 V1 2.130483 1_455
O1 O8 1.729946 1_566
O1 V2 2.425555 1_556
O3 O9 1.838866 1_545
O3 V2 2.002568 1_645
O6 V1 2.002568 1_465
O8 V1 2.425555 1_554
O9 V0 2.129642 1_655
O9 V2 2.130483 1_655
