# generated using pymatgen
data_NiH16(ClO8)2
_symmetry_space_group_name_H-M   'P 1'
_cell_length_a   12.78677400
_cell_length_b   6.38998400
_cell_length_c   9.43769274
_cell_angle_alpha   73.14783489
_cell_angle_beta   90.00000000
_cell_angle_gamma   90.00000000
_symmetry_Int_Tables_number   1
_chemical_formula_structural   NiH16(ClO8)2
_chemical_formula_sum   'Ni2 H32 Cl4 O32'
_cell_volume   738.01284736
_cell_formula_units_Z   2
loop_
 _symmetry_equiv_pos_site_id
 _symmetry_equiv_pos_as_xyz
  1  'x, y, z'
loop_
 _atom_site_type_symbol
 _atom_site_label
 _atom_site_symmetry_multiplicity
 _atom_site_fract_x
 _atom_site_fract_y
 _atom_site_fract_z
 _atom_site_occupancy
  Ni  Ni0  1  0.50000000  0.00000000  0.50000000  1
  Ni  Ni1  1  0.00000000  0.00000000  0.00000000  1
  H  H0  1  0.81918700  0.98442500  0.86606900  1
  H  H1  1  0.40216500  0.95379200  0.76165200  1
  H  H2  1  0.62860400  0.90556200  0.73910800  1
  H  H3  1  0.68081300  0.98442500  0.36606900  1
  H  H4  1  0.09783500  0.95379200  0.26165200  1
  H  H5  1  0.05988500  0.66679500  0.90729600  1
  H  H6  1  0.83758900  0.77582100  0.55504700  1
  H  H7  1  0.87139600  0.90556200  0.23910800  1
  H  H8  1  0.59733200  0.68449400  0.70637700  1
  H  H9  1  0.91659100  0.63525000  0.66459500  1
  H  H10  1  0.36291700  0.66544700  0.53749900  1
  H  H11  1  0.44011500  0.66679500  0.40729600  1
  H  H12  1  0.66241100  0.77582100  0.05504700  1
  H  H13  1  0.90266800  0.68449400  0.20637700  1
  H  H14  1  0.86291700  0.33455300  0.96250100  1
  H  H15  1  0.41659100  0.36475000  0.83540500  1
  H  H16  1  0.58340900  0.63525000  0.16459500  1
  H  H17  1  0.13708300  0.66544700  0.03749900  1
  H  H18  1  0.09733200  0.31550600  0.79362300  1
  H  H19  1  0.33758900  0.22417900  0.94495300  1
  H  H20  1  0.55988500  0.33320500  0.59270400  1
  H  H21  1  0.63708300  0.33455300  0.46250100  1
  H  H22  1  0.08340900  0.36475000  0.33540500  1
  H  H23  1  0.40266800  0.31550600  0.29362300  1
  H  H24  1  0.12860400  0.09443800  0.76089200  1
  H  H25  1  0.16241100  0.22417900  0.44495300  1
  H  H26  1  0.94011500  0.33320500  0.09270400  1
  H  H27  1  0.90216500  0.04620800  0.73834800  1
  H  H28  1  0.31918700  0.01557500  0.63393100  1
  H  H29  1  0.37139600  0.09443800  0.26089200  1
  H  H30  1  0.59783500  0.04620800  0.23834800  1
  H  H31  1  0.18081300  0.01557500  0.13393100  1
  Cl  Cl0  1  0.13699200  0.73499500  0.59098900  1
  Cl  Cl1  1  0.36300800  0.73499500  0.09098900  1
  Cl  Cl2  1  0.63699200  0.26500500  0.90901100  1
  Cl  Cl3  1  0.86300800  0.26500500  0.40901100  1
  O  O0  1  0.89289200  0.96639800  0.84355800  1
  O  O1  1  0.17431700  0.94127200  0.61648000  1
  O  O2  1  0.42612700  0.78612800  0.95745900  1
  O  O3  1  0.60647200  0.84253200  0.66093300  1
  O  O4  1  0.60710800  0.96639800  0.34355800  1
  O  O5  1  0.32568300  0.94127200  0.11648000  1
  O  O6  1  0.07387300  0.78612800  0.45745900  1
  O  O7  1  0.06966200  0.62004400  0.71754200  1
  O  O8  1  0.84265700  0.64386600  0.63846000  1
  O  O9  1  0.43492500  0.70172700  0.50176700  1
  O  O10  1  0.89352800  0.84253200  0.16093300  1
  O  O11  1  0.22478400  0.59748000  0.58335100  1
  O  O12  1  0.72478400  0.40252000  0.91664900  1
  O  O13  1  0.93492500  0.29827300  0.99823300  1
  O  O14  1  0.34265700  0.35613400  0.86154000  1
  O  O15  1  0.43033800  0.62004400  0.21754200  1
  O  O16  1  0.56966200  0.37995600  0.78245800  1
  O  O17  1  0.65734300  0.64386600  0.13846000  1
  O  O18  1  0.06507500  0.70172700  0.00176700  1
  O  O19  1  0.27521600  0.59748000  0.08335100  1
  O  O20  1  0.77521600  0.40252000  0.41664900  1
  O  O21  1  0.10647200  0.15746800  0.83906700  1
  O  O22  1  0.56507500  0.29827300  0.49823300  1
  O  O23  1  0.15734300  0.35613400  0.36154000  1
  O  O24  1  0.93033800  0.37995600  0.28245800  1
  O  O25  1  0.92612700  0.21387200  0.54254100  1
  O  O26  1  0.67431700  0.05872800  0.88352000  1
  O  O27  1  0.39289200  0.03360200  0.65644200  1
  O  O28  1  0.39352800  0.15746800  0.33906700  1
  O  O29  1  0.57387300  0.21387200  0.04254100  1
  O  O30  1  0.82568300  0.05872800  0.38352000  1
  O  O31  1  0.10710800  0.03360200  0.15644200  1
loop_
_geom_bond_atom_site_label_1
_geom_bond_atom_site_label_2
_geom_bond_distance
_geom_bond_site_symmetry_2
Ni0 O4 2.070153 1_545
Ni0 O27 2.070153 1_555
Ni0 O3 2.070442 1_545
Ni0 O28 2.070442 1_555
Ni0 O22 2.075312 1_555
Ni0 O9 2.075312 1_545
Ni1 O31 2.070153 1_555
Ni1 O0 2.070153 1_444
Ni1 O21 2.070442 1_554
Ni1 O10 2.070442 1_445
Ni1 O13 2.075312 1_454
Ni1 O18 2.075312 1_545
H0 O0 0.980207 1_555
H1 O27 0.983091 1_565
H2 O3 0.979250 1_555
H3 O4 0.980207 1_555
H4 O31 0.983091 1_565
H5 O18 0.982115 1_556
H6 O8 0.974695 1_555
H7 O10 0.979250 1_555
H8 O3 0.983004 1_555
H9 O8 0.974543 1_555
H10 O9 0.984845 1_555
H11 O9 0.982115 1_555
H12 O17 0.974695 1_555
H13 O10 0.983004 1_555
H14 O13 0.984845 1_555
H15 O14 0.974543 1_555
H16 O17 0.974543 1_555
H17 O18 0.984845 1_555
H18 O21 0.983004 1_555
H19 O14 0.974695 1_555
H20 O22 0.982115 1_555
H21 O22 0.984845 1_555
H22 O23 0.974543 1_555
H23 O28 0.983004 1_555
H24 O21 0.979250 1_555
H25 O23 0.974695 1_555
H26 O13 0.982115 1_554
H27 O0 0.983091 1_545
H28 O27 0.980207 1_555
H29 O28 0.979250 1_555
H30 O4 0.983091 1_545
H31 O31 0.980207 1_555
Cl0 O11 1.440225 1_555
Cl0 O6 1.451740 1_555
Cl0 O7 1.482767 1_555
Cl0 O1 1.485572 1_555
Cl1 O19 1.440225 1_555
Cl1 O2 1.451740 1_554
Cl1 O15 1.482767 1_555
Cl1 O5 1.485572 1_555
Cl2 O12 1.440225 1_555
Cl2 O29 1.451740 1_556
Cl2 O16 1.482767 1_555
Cl2 O26 1.485572 1_555
Cl3 O20 1.440225 1_555
Cl3 O25 1.451740 1_555
Cl3 O24 1.482767 1_555
Cl3 O30 1.485572 1_555
