# generated using pymatgen
data_Li4V3CrO8
_symmetry_space_group_name_H-M   'P 1'
_cell_length_a   5.17703700
_cell_length_b   5.98331158
_cell_length_c   10.78264821
_cell_angle_alpha   106.02238872
_cell_angle_beta   94.59187159
_cell_angle_gamma   106.85090840
_symmetry_Int_Tables_number   1
_chemical_formula_structural   Li4V3CrO8
_chemical_formula_sum   'Li8 V6 Cr2 O16'
_cell_volume   302.55531956
_cell_formula_units_Z   2
loop_
 _symmetry_equiv_pos_site_id
 _symmetry_equiv_pos_as_xyz
  1  'x, y, z'
loop_
 _atom_site_type_symbol
 _atom_site_label
 _atom_site_symmetry_multiplicity
 _atom_site_fract_x
 _atom_site_fract_y
 _atom_site_fract_z
 _atom_site_occupancy
  Li  Li0  1  0.74960300  0.43719800  0.12630800  1
  Li  Li1  1  0.25380500  0.06585500  0.87313500  1
  Li  Li2  1  0.25003400  0.81147500  0.37411700  1
  Li  Li3  1  0.74996600  0.18852500  0.62588300  1
  Li  Li4  1  0.74619500  0.93414500  0.12686500  1
  Li  Li5  1  0.25039700  0.56280200  0.87369200  1
  Li  Li6  1  0.25349400  0.31760300  0.37355800  1
  Li  Li7  1  0.74650600  0.68239700  0.62644200  1
  V  V0  1  0.49843200  0.74947800  0.00009500  1
  V  V1  1  0.99972900  0.12520300  0.25025800  1
  V  V2  1  0.50000000  0.50000000  0.50000000  1
  V  V3  1  0.50156800  0.25052200  0.99990500  1
  V  V4  1  0.00027100  0.87479700  0.74974200  1
  V  V5  1  0.50000000  0.00000000  0.50000000  1
  Cr  Cr0  1  0.00071900  0.62679600  0.25012400  1
  Cr  Cr1  1  0.99928100  0.37320400  0.74987600  1
  O  O0  1  0.13968100  0.58902900  0.56607200  1
  O  O1  1  0.85605300  0.90370100  0.43594400  1
  O  O2  1  0.14071000  0.34403200  0.06494400  1
  O  O3  1  0.85929000  0.65596800  0.93505600  1
  O  O4  1  0.35071400  0.27428600  0.68819000  1
  O  O5  1  0.64152500  0.97354000  0.81436800  1
  O  O6  1  0.64928600  0.72571400  0.31181000  1
  O  O7  1  0.35847500  0.02646000  0.18563200  1
  O  O8  1  0.14394700  0.09629900  0.56405600  1
  O  O9  1  0.86031900  0.41097100  0.43392800  1
  O  O10  1  0.14316100  0.84497700  0.06544900  1
  O  O11  1  0.85683900  0.15502300  0.93455100  1
  O  O12  1  0.64804900  0.47347000  0.81257500  1
  O  O13  1  0.64094900  0.22521800  0.31581100  1
  O  O14  1  0.35905100  0.77478200  0.68418900  1
  O  O15  1  0.35195100  0.52653000  0.18742500  1
loop_
_geom_bond_atom_site_label_1
_geom_bond_atom_site_label_2
_geom_bond_distance
_geom_bond_site_symmetry_2
Li0 V3 1.673907 1_554
Li0 O2 2.348092 1_655
Li0 O15 2.370396 1_555
Li0 O6 2.455725 1_555
Li0 O11 2.496802 1_554
Li0 O13 2.702115 1_555
Li1 V3 1.672848 1_555
Li1 V4 1.676515 1_545
Li1 O5 2.321392 1_545
Li1 O11 2.367531 1_455
Li1 O2 2.499838 1_556
Li1 O14 2.499985 1_545
Li1 O4 2.637068 1_555
Li2 V5 1.678302 1_565
Li2 O1 2.361419 1_455
Li2 O6 2.373577 1_555
Li2 O15 2.456511 1_555
Li2 O8 2.489262 1_565
Li2 O7 2.703235 1_565
Li3 V5 1.678302 1_555
Li3 O8 2.361419 1_655
Li3 O4 2.373577 1_555
Li3 O12 2.456511 1_555
Li3 O1 2.489262 1_545
Li3 O5 2.703235 1_545
Li4 V0 1.672848 1_555
Li4 V1 1.676515 1_565
Li4 O7 2.321392 1_565
Li4 O10 2.367531 1_655
Li4 O3 2.499838 1_554
Li4 O13 2.499985 1_565
Li4 O6 2.637068 1_555
Li5 V0 1.673907 1_556
Li5 O3 2.348092 1_455
Li5 O12 2.370396 1_555
Li5 O4 2.455725 1_555
Li5 O10 2.496802 1_556
Li5 O14 2.702115 1_555
Li6 V2 1.664640 1_555
Li6 V1 1.678507 1_455
Li6 O13 2.317237 1_555
Li6 O9 2.355775 1_455
Li6 O0 2.486617 1_555
Li6 O7 2.492517 1_555
Li6 O15 2.651403 1_555
Li7 V2 1.664640 1_555
Li7 V4 1.678507 1_655
Li7 O14 2.317237 1_555
Li7 O0 2.355775 1_655
Li7 O9 2.486617 1_555
Li7 O5 2.492517 1_555
Li7 O12 2.651403 1_555
Cr0 Li2 1.660040 1_555
Cr0 Li0 1.670454 1_455
Cr0 O6 2.168778 1_455
Cr0 O15 2.174560 1_555
Cr0 O9 2.687580 1_455
Cr0 O10 2.706510 1_555
Cr1 Li3 1.660040 1_555
Cr1 Li5 1.670454 1_655
Cr1 O4 2.168778 1_655
Cr1 O12 2.174560 1_555
Cr1 O0 2.687580 1_655
Cr1 O11 2.706510 1_555
O0 O14 1.549948 1_555
O0 O9 1.787652 1_455
O0 V2 2.202353 1_555
O0 V4 2.538039 1_555
O1 O6 1.547363 1_555
O1 O8 1.803723 1_665
O1 V5 2.192424 1_565
O1 V1 2.729509 1_565
O2 V3 2.212261 1_554
O2 V1 2.713567 1_455
O3 V0 2.212261 1_556
O3 V4 2.713567 1_655
O4 O8 1.547363 1_555
O4 V5 2.560539 1_555
O4 V2 2.774451 1_555
O4 V4 2.828382 1_545
O5 V4 2.213617 1_655
O5 V3 2.524259 1_565
O5 V0 2.738690 1_556
O6 V5 2.560539 1_565
O6 V2 2.774451 1_555
O6 V1 2.828382 1_565
O7 V1 2.213617 1_455
O7 V0 2.524259 1_545
O7 V3 2.738690 1_554
O8 V5 2.192424 1_555
O8 V4 2.729509 1_545
O9 V2 2.202353 1_555
O9 V1 2.538039 1_555
O10 O7 1.546332 1_565
O10 O3 1.800929 1_454
O10 V0 2.191000 1_555
O10 V1 2.539280 1_465
O11 O5 1.546332 1_545
O11 O2 1.800929 1_656
O11 V3 2.191000 1_555
O11 V4 2.539280 1_645
O12 O3 1.553326 1_555
O12 O4 1.819924 1_555
O12 V0 2.562154 1_556
O12 V3 2.753325 1_555
O12 V4 2.847354 1_655
O13 O9 1.549948 1_555
O13 O7 1.806845 1_555
O13 V1 2.220103 1_555
O13 V2 2.510974 1_555
O13 V5 2.726181 1_555
O14 O5 1.806845 1_555
O14 V4 2.220103 1_555
O14 V2 2.510974 1_555
O14 V5 2.726181 1_565
O15 O2 1.553326 1_555
O15 O6 1.819924 1_555
O15 V3 2.562154 1_554
O15 V0 2.753325 1_555
O15 V1 2.847354 1_455
