# generated using pymatgen
data_Fe10O9F11
_symmetry_space_group_name_H-M   'P 1'
_cell_length_a   4.75999923
_cell_length_b   4.75999923
_cell_length_c   15.49677606
_cell_angle_alpha   89.85512393
_cell_angle_beta   89.85512393
_cell_angle_gamma   92.21052939
_symmetry_Int_Tables_number   1
_chemical_formula_structural   Fe10O9F11
_chemical_formula_sum   'Fe10 O9 F11'
_cell_volume   350.85601858
_cell_formula_units_Z   1
loop_
 _symmetry_equiv_pos_site_id
 _symmetry_equiv_pos_as_xyz
  1  'x, y, z'
loop_
 _atom_site_type_symbol
 _atom_site_label
 _atom_site_symmetry_multiplicity
 _atom_site_fract_x
 _atom_site_fract_y
 _atom_site_fract_z
 _atom_site_occupancy
  Fe  Fe0  1  0.00605900  0.98466200  0.69714400  1
  Fe  Fe1  1  0.03586300  0.01959400  0.90892800  1
  Fe  Fe2  1  0.98040600  0.96413700  0.09107200  1
  Fe  Fe3  1  0.01533800  0.99394100  0.30285600  1
  Fe  Fe4  1  0.02457100  0.97542900  0.50000000  1
  Fe  Fe5  1  0.49757200  0.48069500  0.79766200  1
  Fe  Fe6  1  0.51930500  0.50242800  0.20233800  1
  Fe  Fe7  1  0.47659300  0.52340700  0.00000000  1
  Fe  Fe8  1  0.47683700  0.52350900  0.38784800  1
  Fe  Fe9  1  0.47649100  0.52316300  0.61215200  1
  O  O0  1  0.20057000  0.79943000  0.00000000  1
  O  O1  1  0.19350500  0.81104600  0.40165500  1
  O  O2  1  0.18895400  0.80649500  0.59834500  1
  O  O3  1  0.69731700  0.69589800  0.70326800  1
  O  O4  1  0.67853500  0.67688400  0.10075900  1
  O  O5  1  0.70393100  0.70246900  0.29866800  1
  O  O6  1  0.29753100  0.29606900  0.70133200  1
  O  O7  1  0.32311600  0.32146500  0.89924100  1
  O  O8  1  0.30410200  0.30268400  0.29673200  1
  F  F0  1  0.20137600  0.80550600  0.79961500  1
  F  F1  1  0.19449400  0.79862400  0.20038500  1
  F  F2  1  0.70984700  0.71200000  0.89796900  1
  F  F3  1  0.68631700  0.69401800  0.50010600  1
  F  F4  1  0.28800000  0.29015300  0.10203100  1
  F  F5  1  0.30598200  0.31368300  0.49989400  1
  F  F6  1  0.81372800  0.19019300  0.79967000  1
  F  F7  1  0.80980700  0.18627200  0.20033000  1
  F  F8  1  0.78617000  0.21383000  0.00000000  1
  F  F9  1  0.80174600  0.19406400  0.59512900  1
  F  F10  1  0.80593600  0.19825400  0.40487100  1
loop_
_geom_bond_atom_site_label_1
_geom_bond_atom_site_label_2
_geom_bond_distance
_geom_bond_site_symmetry_2
Fe0 O2 1.969285 1_555
Fe0 O3 1.975061 1_455
Fe0 O6 1.992136 1_565
Fe1 O0 1.940685 1_546
Fe1 O7 1.950158 1_555
Fe2 O0 1.940685 1_655
Fe2 O4 1.950158 1_555
Fe3 O1 1.969285 1_555
Fe3 O8 1.975064 1_565
Fe3 O5 1.992136 1_455
Fe4 O1 1.905231 1_555
Fe4 O2 1.905231 1_555
Fe5 O7 1.918538 1_555
Fe5 O6 1.963857 1_555
Fe5 O3 2.000842 1_555
Fe6 O4 1.918538 1_555
Fe6 O5 1.963857 1_555
Fe6 O8 2.000839 1_555
Fe7 O0 1.893587 1_555
Fe7 O4 1.963409 1_555
Fe7 O7 1.963409 1_554
Fe8 O5 1.928607 1_555
Fe8 O8 1.929086 1_555
Fe8 O1 1.969862 1_555
Fe9 O6 1.928607 1_555
Fe9 O3 1.929088 1_555
Fe9 O2 1.969862 1_555
F0 Fe0 2.043288 1_555
F0 Fe5 2.132444 1_555
F0 Fe1 2.143064 1_565
F1 Fe3 2.043288 1_555
F1 Fe6 2.132444 1_555
F1 Fe2 2.143064 1_455
F2 Fe1 2.099542 1_665
F2 Fe7 2.108484 1_556
F2 Fe5 2.140149 1_555
F3 Fe4 2.054335 1_655
F3 Fe9 2.143664 1_555
F3 Fe8 2.152396 1_555
F4 Fe2 2.099542 1_445
F4 Fe7 2.108484 1_555
F4 Fe6 2.140149 1_555
F5 Fe4 2.054335 1_545
F5 Fe8 2.143664 1_555
F5 Fe9 2.152396 1_555
F6 Fe5 2.082872 1_555
F6 Fe0 2.095044 1_645
F6 Fe1 2.170835 1_655
F7 Fe6 2.082872 1_555
F7 Fe3 2.095044 1_645
F7 Fe2 2.170835 1_545
F8 Fe2 2.083785 1_545
F8 Fe1 2.083785 1_654
F8 Fe7 2.123776 1_555
F9 Fe4 2.113358 1_645
F9 Fe0 2.124423 1_645
F9 Fe9 2.260007 1_555
F10 Fe4 2.113358 1_645
F10 Fe3 2.124423 1_645
F10 Fe8 2.260007 1_555
