# generated using pymatgen
data_BeSiOs2
_symmetry_space_group_name_H-M   'P 1'
_cell_length_a   4.05761766
_cell_length_b   4.05761766
_cell_length_c   4.05761766
_cell_angle_alpha   60.00000000
_cell_angle_beta   60.00000000
_cell_angle_gamma   60.00000000
_symmetry_Int_Tables_number   1
_chemical_formula_structural   BeSiOs2
_chemical_formula_sum   'Be1 Si1 Os2'
_cell_volume   47.23874673
_cell_formula_units_Z   1
loop_
 _symmetry_equiv_pos_site_id
 _symmetry_equiv_pos_as_xyz
  1  'x, y, z'
loop_
 _atom_site_type_symbol
 _atom_site_label
 _atom_site_symmetry_multiplicity
 _atom_site_fract_x
 _atom_site_fract_y
 _atom_site_fract_z
 _atom_site_occupancy
  Be  Be0  1  0.25000000  0.25000000  0.25000000  1
  Si  Si0  1  0.75000000  0.75000000  0.75000000  1
  Os  Os0  1  0.50000000  0.50000000  0.50000000  1
  Os  Os1  1  0.00000000  0.00000000  0.00000000  1
loop_
_geom_bond_atom_site_label_1
_geom_bond_atom_site_label_2
_geom_bond_distance
_geom_bond_site_symmetry_2
Be0 Os0 2.484773 1_555
Be0 Os1 2.484773 1_565
Be0 Os0 2.484773 1_545
Be0 Os1 2.484773 1_555
Be0 Os1 2.484773 1_556
Be0 Os0 2.484773 1_554
Be0 Os0 2.484773 1_455
Be0 Os1 2.484773 1_655
Os0 Si0 2.484773 1_545
Os0 Si0 2.484773 1_555
Os0 Si0 2.484773 1_554
Os0 Si0 2.484773 1_455
Os1 Si0 2.484773 1_454
Os1 Si0 2.484773 1_444
Os1 Si0 2.484773 1_445
Os1 Si0 2.484773 1_544
