# generated using pymatgen
data_Pr11In9Ni4
_symmetry_space_group_name_H-M   'P 1'
_cell_length_a   13.42152632
_cell_length_b   13.42152632
_cell_length_c   3.79595903
_cell_angle_alpha   90.00000000
_cell_angle_beta   90.00000000
_cell_angle_gamma   112.53898438
_symmetry_Int_Tables_number   1
_chemical_formula_structural   Pr11In9Ni4
_chemical_formula_sum   'Pr11 In9 Ni4'
_cell_volume   631.56515495
_cell_formula_units_Z   1
loop_
 _symmetry_equiv_pos_site_id
 _symmetry_equiv_pos_as_xyz
  1  'x, y, z'
loop_
 _atom_site_type_symbol
 _atom_site_label
 _atom_site_symmetry_multiplicity
 _atom_site_fract_x
 _atom_site_fract_y
 _atom_site_fract_z
 _atom_site_occupancy
  Pr  Pr0  1  0.50000000  0.50000000  0.50000000  1
  Pr  Pr1  1  0.81364491  0.81364491  0.50000000  1
  Pr  Pr2  1  0.18635509  0.18635509  0.50000000  1
  Pr  Pr3  1  0.57855346  0.91680858  0.50000000  1
  Pr  Pr4  1  0.42144654  0.08319142  0.50000000  1
  Pr  Pr5  1  0.91680858  0.57855346  0.50000000  1
  Pr  Pr6  1  0.08319142  0.42144654  0.50000000  1
  Pr  Pr7  1  0.12493199  0.87506801  0.50000000  1
  Pr  Pr8  1  0.87506801  0.12493199  0.50000000  1
  Pr  Pr9  1  0.33777168  0.66222832  0.50000000  1
  Pr  Pr10  1  0.66222832  0.33777168  0.50000000  1
  In  In0  1  0.33601341  0.86708802  0.00000000  1
  In  In1  1  0.66398659  0.13291198  -0.00000000  1
  In  In2  1  0.86708802  0.33601341  0.00000000  1
  In  In3  1  0.13291198  0.66398659  0.00000000  1
  In  In4  1  0.58243193  0.72076113  -0.00000000  1
  In  In5  1  0.41756807  0.27923887  -0.00000000  1
  In  In6  1  0.72076113  0.58243193  0.00000000  1
  In  In7  1  0.27923887  0.41756807  0.00000000  1
  In  In8  1  0.00000000  0.00000000  0.00000000  1
  Ni  Ni0  1  0.74425200  0.94802325  0.00000000  1
  Ni  Ni1  1  0.25574800  0.05197675  0.00000000  1
  Ni  Ni2  1  0.94802325  0.74425200  -0.00000000  1
  Ni  Ni3  1  0.05197675  0.25574800  -0.00000000  1
loop_
_geom_bond_atom_site_label_1
_geom_bond_atom_site_label_2
_geom_bond_distance
_geom_bond_site_symmetry_2
In0 In3 3.027350 1_555
In0 Ni1 3.060673 1_565
In0 Pr4 3.283297 1_565
In0 Pr4 3.283297 1_564
In0 Pr9 3.348513 1_555
In0 Pr9 3.348513 1_554
In0 Pr7 3.445649 1_555
In0 Pr7 3.445649 1_554
In0 Pr3 3.602638 1_555
In0 Pr3 3.602638 1_554
In1 In2 3.027350 1_555
In1 Ni0 3.060673 1_545
In1 Pr3 3.283297 1_544
In1 Pr3 3.283297 1_545
In1 Pr10 3.348513 1_554
In1 Pr10 3.348513 1_555
In1 Pr8 3.445649 1_554
In1 Pr8 3.445649 1_555
In1 Pr4 3.602638 1_555
In1 Pr4 3.602638 1_554
In2 Ni3 3.060673 1_655
In2 Pr6 3.283297 1_654
In2 Pr6 3.283297 1_655
In2 Pr10 3.348513 1_554
In2 Pr10 3.348513 1_555
In2 Pr8 3.445649 1_554
In2 Pr8 3.445649 1_555
In2 Pr5 3.602638 1_554
In2 Pr5 3.602638 1_555
In3 Ni2 3.060673 1_455
In3 Pr5 3.283297 1_455
In3 Pr5 3.283297 1_454
In3 Pr9 3.348513 1_554
In3 Pr9 3.348513 1_555
In3 Pr7 3.445649 1_555
In3 Pr7 3.445649 1_554
In3 Pr6 3.602638 1_555
In3 Pr6 3.602638 1_554
In4 Ni0 2.990344 1_555
In4 In6 3.088096 1_555
In4 Pr3 3.260912 1_554
In4 Pr3 3.260912 1_555
In4 Pr0 3.330522 1_554
In4 Pr0 3.330522 1_555
In4 Pr1 3.438126 1_555
In4 Pr1 3.438126 1_554
In4 Pr9 3.608964 1_554
In4 Pr9 3.608964 1_555
In5 Ni1 2.990344 1_555
In5 In7 3.088096 1_555
In5 Pr4 3.260912 1_554
In5 Pr4 3.260912 1_555
In5 Pr0 3.330522 1_554
In5 Pr0 3.330522 1_555
In5 Pr2 3.438126 1_554
In5 Pr2 3.438126 1_555
In5 Pr10 3.608964 1_555
In5 Pr10 3.608964 1_554
In6 Ni2 2.990344 1_555
In6 Pr5 3.260912 1_554
In6 Pr5 3.260912 1_555
In6 Pr0 3.330522 1_554
In6 Pr0 3.330522 1_555
In6 Pr1 3.438126 1_555
In6 Pr1 3.438126 1_554
In6 Pr10 3.608964 1_554
In6 Pr10 3.608964 1_555
In7 Ni3 2.990344 1_555
In7 Pr6 3.260912 1_555
In7 Pr6 3.260912 1_554
In7 Pr0 3.330522 1_554
In7 Pr0 3.330522 1_555
In7 Pr2 3.438126 1_554
In7 Pr2 3.438126 1_555
In7 Pr9 3.608964 1_554
In7 Pr9 3.608964 1_555
In8 Ni1 3.230044 1_555
In8 Ni3 3.230044 1_555
In8 Ni0 3.230044 1_445
In8 Ni2 3.230044 1_445
In8 Pr1 3.364245 1_444
In8 Pr1 3.364245 1_445
In8 Pr2 3.364245 1_555
In8 Pr2 3.364245 1_554
In8 Pr8 3.373562 1_455
In8 Pr8 3.373562 1_454
In8 Pr7 3.373562 1_545
In8 Pr7 3.373562 1_544
Ni0 Pr3 2.830093 1_555
Ni0 Pr3 2.830093 1_554
Ni0 Pr1 3.001723 1_555
Ni0 Pr1 3.001723 1_554
Ni0 Pr8 3.021054 1_564
Ni0 Pr8 3.021054 1_565
Ni1 Pr4 2.830093 1_554
Ni1 Pr4 2.830093 1_555
Ni1 Pr2 3.001723 1_555
Ni1 Pr2 3.001723 1_554
Ni1 Pr7 3.021054 1_544
Ni1 Pr7 3.021054 1_545
Ni2 Pr5 2.830093 1_554
Ni2 Pr5 2.830093 1_555
Ni2 Pr1 3.001723 1_555
Ni2 Pr1 3.001723 1_554
Ni2 Pr7 3.021054 1_655
Ni2 Pr7 3.021054 1_654
Ni3 Pr6 2.830093 1_555
Ni3 Pr6 2.830093 1_554
Ni3 Pr2 3.001723 1_555
Ni3 Pr2 3.001723 1_554
Ni3 Pr8 3.021054 1_455
Ni3 Pr8 3.021054 1_454
