# generated using pymatgen
data_Ga2CoRu
_symmetry_space_group_name_H-M   'P 1'
_cell_length_a   4.14390572
_cell_length_b   4.14344463
_cell_length_c   4.14380919
_cell_angle_alpha   60.02490374
_cell_angle_beta   60.02151139
_cell_angle_gamma   60.01956716
_symmetry_Int_Tables_number   1
_chemical_formula_structural   Ga2CoRu
_chemical_formula_sum   'Ga2 Co1 Ru1'
_cell_volume   50.33529714
_cell_formula_units_Z   1
loop_
 _symmetry_equiv_pos_site_id
 _symmetry_equiv_pos_as_xyz
  1  'x, y, z'
loop_
 _atom_site_type_symbol
 _atom_site_label
 _atom_site_symmetry_multiplicity
 _atom_site_fract_x
 _atom_site_fract_y
 _atom_site_fract_z
 _atom_site_occupancy
  Ga  Ga0  1  0.00001031  0.00001827  0.00002603  1
  Ga  Ga1  1  0.49999196  0.49998567  0.49997106  1
  Co  Co0  1  0.24997703  0.24999233  0.25000944  1
  Ru  Ru0  1  0.75002070  0.75000173  0.74999547  1
loop_
_geom_bond_atom_site_label_1
_geom_bond_atom_site_label_2
_geom_bond_distance
_geom_bond_site_symmetry_2
Ga0 Ru0 2.537202 1_444
Ga0 Ru0 2.537991 1_454
Ga0 Ru0 2.538216 1_445
Ga0 Ru0 2.538277 1_544
Ga1 Ru0 2.537312 1_555
Ga1 Ru0 2.537992 1_545
Ga1 Ru0 2.538145 1_455
Ga1 Ru0 2.538237 1_554
Co0 Ga0 2.536822 1_555
Co0 Ga1 2.536976 1_555
Co0 Ga1 2.538069 1_545
Co0 Ga0 2.538134 1_565
Co0 Ga1 2.538192 1_455
Co0 Ga0 2.538355 1_655
Co0 Ga0 2.538376 1_556
Co0 Ga1 2.538449 1_554
Co0 Ru0 2.930331 1_455
Co0 Ru0 2.930358 1_544
Co0 Ru0 2.930460 1_445
Co0 Ru0 2.930571 1_454
Co0 Ru0 2.930745 1_545
Co0 Ru0 2.930771 1_554
