# generated using pymatgen
data_Tb5Ti5O17
_symmetry_space_group_name_H-M   'P 1'
_cell_length_a   3.86182200
_cell_length_b   5.45309700
_cell_length_c   31.75144200
_cell_angle_alpha   90.00000000
_cell_angle_beta   90.00000000
_cell_angle_gamma   90.00000000
_symmetry_Int_Tables_number   1
_chemical_formula_structural   Tb5Ti5O17
_chemical_formula_sum   'Tb10 Ti10 O34'
_cell_volume   668.65012324
_cell_formula_units_Z   2
loop_
 _symmetry_equiv_pos_site_id
 _symmetry_equiv_pos_as_xyz
  1  'x, y, z'
loop_
 _atom_site_type_symbol
 _atom_site_label
 _atom_site_symmetry_multiplicity
 _atom_site_fract_x
 _atom_site_fract_y
 _atom_site_fract_z
 _atom_site_occupancy
  Tb  Tb0  1  0.50000000  0.81973000  0.51676500  1
  Tb  Tb1  1  0.00000000  0.18027000  0.01676500  1
  Tb  Tb2  1  0.00000000  0.73173300  0.69888400  1
  Tb  Tb3  1  0.00000000  0.26466800  0.79285400  1
  Tb  Tb4  1  0.00000000  0.32054500  0.57093800  1
  Tb  Tb5  1  0.00000000  0.79321700  0.89069500  1
  Tb  Tb6  1  0.50000000  0.26826700  0.19888400  1
  Tb  Tb7  1  0.50000000  0.73533200  0.29285400  1
  Tb  Tb8  1  0.50000000  0.67945500  0.07093800  1
  Tb  Tb9  1  0.50000000  0.20678300  0.39069500  1
  Ti  Ti0  1  0.50000000  0.77097900  0.61913100  1
  Ti  Ti1  1  0.50000000  0.24272200  0.70574300  1
  Ti  Ti2  1  0.50000000  0.73973500  0.79674100  1
  Ti  Ti3  1  0.50000000  0.24364300  0.88243700  1
  Ti  Ti4  1  0.50000000  0.72011500  0.96894900  1
  Ti  Ti5  1  0.00000000  0.22902100  0.11913100  1
  Ti  Ti6  1  0.00000000  0.75727800  0.20574300  1
  Ti  Ti7  1  0.00000000  0.26026500  0.29674100  1
  Ti  Ti8  1  0.00000000  0.75635700  0.38243700  1
  Ti  Ti9  1  0.00000000  0.27988500  0.46894900  1
  O  O0  1  0.00000000  0.75785500  0.96436400  1
  O  O1  1  0.50000000  0.89540300  0.85043400  1
  O  O2  1  0.50000000  0.39708000  0.82518700  1
  O  O3  1  0.50000000  0.01968000  0.92795100  1
  O  O4  1  0.50000000  0.54033500  0.91291600  1
  O  O5  1  0.50000000  0.24214500  0.46436400  1
  O  O6  1  0.50000000  0.03853400  0.58187900  1
  O  O7  1  0.50000000  0.54541900  0.57029700  1
  O  O8  1  0.50000000  0.92591300  0.67621300  1
  O  O9  1  0.50000000  0.45477700  0.66162500  1
  O  O10  1  0.50000000  0.54091700  0.74259600  1
  O  O11  1  0.50000000  0.03481900  0.76629000  1
  O  O12  1  0.00000000  0.10459700  0.35043400  1
  O  O13  1  0.00000000  0.60292000  0.32518700  1
  O  O14  1  0.00000000  0.98032000  0.42795100  1
  O  O15  1  0.00000000  0.45966500  0.41291600  1
  O  O16  1  0.00000000  0.05116100  0.51802600  1
  O  O17  1  0.00000000  0.54792000  0.50754600  1
  O  O18  1  0.00000000  0.72321300  0.62555200  1
  O  O19  1  0.00000000  0.19956800  0.71624500  1
  O  O20  1  0.00000000  0.69818000  0.79858800  1
  O  O21  1  0.00000000  0.21456300  0.87220800  1
  O  O22  1  0.00000000  0.45458100  0.07029700  1
  O  O23  1  0.00000000  0.96146600  0.08187900  1
  O  O24  1  0.00000000  0.54522300  0.16162500  1
  O  O25  1  0.00000000  0.07408700  0.17621300  1
  O  O26  1  0.00000000  0.96518100  0.26629000  1
  O  O27  1  0.00000000  0.45908300  0.24259600  1
  O  O28  1  0.50000000  0.45208000  0.00754600  1
  O  O29  1  0.50000000  0.94883900  0.01802600  1
  O  O30  1  0.50000000  0.27678700  0.12555200  1
  O  O31  1  0.50000000  0.80043200  0.21624500  1
  O  O32  1  0.50000000  0.30182000  0.29858800  1
  O  O33  1  0.50000000  0.78543700  0.37220800  1
loop_
_geom_bond_atom_site_label_1
_geom_bond_atom_site_label_2
_geom_bond_distance
_geom_bond_site_symmetry_2
O0 Ti4 1.947297 1_555
O0 Ti4 1.947297 1_455
O0 Tb5 2.347032 1_555
O0 Tb1 2.841519 1_566
O1 Ti2 1.904477 1_555
O1 Ti3 2.153763 1_565
O1 Tb5 2.381825 1_655
O1 Tb5 2.381825 1_555
O2 Ti3 2.001091 1_555
O2 Ti2 2.075375 1_555
O2 Tb3 2.302983 1_655
O2 Tb3 2.302983 1_555
O3 Ti3 1.892081 1_555
O3 Ti4 2.088792 1_545
O3 Tb5 2.579299 1_545
O3 Tb5 2.579299 1_645
O4 Ti3 1.885236 1_555
O4 Ti4 2.031354 1_555
O4 Tb5 2.475445 1_655
O4 Tb5 2.475445 1_555
O5 Ti9 1.947297 1_655
O5 Ti9 1.947297 1_555
O5 Tb9 2.347032 1_555
O5 Tb0 2.841519 1_545
O6 Ti0 1.878222 1_545
O6 Tb0 2.387056 1_545
O6 Tb4 2.492796 1_655
O6 Tb4 2.492796 1_555
O7 Ti0 1.979168 1_555
O7 Tb0 2.264198 1_555
O7 Tb4 2.287476 1_555
O7 Tb4 2.287476 1_655
O8 Ti1 1.965630 1_565
O8 Ti0 1.999682 1_555
O8 Tb2 2.316854 1_555
O8 Tb2 2.316854 1_655
O9 Ti1 1.816433 1_555
O9 Ti0 2.189431 1_555
O9 Tb2 2.721926 1_555
O9 Tb2 2.721926 1_655
O10 Ti1 2.003341 1_555
O10 Ti2 2.032491 1_555
O10 Tb2 2.595661 1_655
O10 Tb2 2.595661 1_555
O11 Ti2 1.877258 1_545
O11 Ti1 2.231847 1_555
O11 Tb3 2.451693 1_555
O11 Tb3 2.451693 1_655
O12 Ti7 1.904477 1_555
O12 Ti8 2.153763 1_545
O12 Tb9 2.381825 1_455
O12 Tb9 2.381825 1_555
O13 Ti8 2.001091 1_555
O13 Ti7 2.075375 1_555
O13 Tb7 2.302983 1_555
O13 Tb7 2.302983 1_455
O14 Ti8 1.892081 1_555
O14 Ti9 2.088792 1_565
O14 Tb9 2.579299 1_565
O14 Tb9 2.579299 1_465
O15 Ti8 1.885236 1_555
O15 Ti9 2.031354 1_555
O15 Tb9 2.475445 1_455
O15 Tb9 2.475445 1_555
O16 Ti9 1.995954 1_555
O16 Tb4 2.231681 1_555
O16 Tb0 2.307099 1_445
O16 Tb0 2.307099 1_545
O17 Ti9 1.907410 1_555
O17 Tb4 2.364035 1_555
O17 Tb0 2.451741 1_555
O17 Tb0 2.451741 1_455
O18 Ti0 1.959038 1_555
O18 Ti0 1.959038 1_455
O18 Tb2 2.328860 1_555
O18 Tb4 2.797945 1_555
O19 Ti1 1.973572 1_555
O19 Ti1 1.973572 1_455
O19 Tb3 2.458214 1_555
O19 Tb2 2.610024 1_545
O19 Tb2 2.953838 1_555
O20 Ti2 1.945046 1_455
O20 Ti2 1.945046 1_555
O20 Tb3 2.370983 1_555
O20 Tb5 2.970093 1_555
O20 Tb2 3.171029 1_555
O21 Ti3 1.964446 1_455
O21 Ti3 1.964446 1_555
O21 Tb5 2.371436 1_545
O21 Tb3 2.534375 1_555
O21 Tb5 3.209589 1_555
O22 Ti5 1.979168 1_555
O22 Tb1 2.264198 1_555
O22 Tb8 2.287476 1_455
O22 Tb8 2.287476 1_555
O23 Ti5 1.878222 1_565
O23 Tb1 2.387056 1_565
O23 Tb8 2.492796 1_455
O23 Tb8 2.492796 1_555
O24 Ti6 1.816433 1_555
O24 Ti5 2.189431 1_555
O24 Tb6 2.721926 1_555
O24 Tb6 2.721926 1_455
O25 Ti6 1.965630 1_545
O25 Ti5 1.999682 1_555
O25 Tb6 2.316854 1_555
O25 Tb6 2.316854 1_455
O26 Ti7 1.877258 1_565
O26 Ti6 2.231847 1_555
O26 Tb7 2.451693 1_555
O26 Tb7 2.451693 1_455
O27 Ti6 2.003341 1_555
O27 Ti7 2.032491 1_555
O27 Tb6 2.595661 1_555
O27 Tb6 2.595661 1_455
O28 Ti4 1.907410 1_554
O28 Tb8 2.364035 1_555
O28 Tb1 2.451741 1_555
O28 Tb1 2.451741 1_655
O29 Ti4 1.995954 1_554
O29 Tb8 2.231681 1_555
O29 Tb1 2.307099 1_665
O29 Tb1 2.307099 1_565
O30 Ti5 1.959038 1_555
O30 Ti5 1.959038 1_655
O30 Tb6 2.328860 1_555
O30 Tb8 2.797945 1_555
O31 Ti6 1.973572 1_555
O31 Ti6 1.973572 1_655
O31 Tb7 2.458214 1_555
O31 Tb6 2.610024 1_565
O31 Tb6 2.953838 1_555
O32 Ti7 1.945046 1_655
O32 Ti7 1.945046 1_555
O32 Tb7 2.370983 1_555
O32 Tb9 2.970093 1_555
O32 Tb6 3.171029 1_555
O33 Ti8 1.964446 1_555
O33 Ti8 1.964446 1_655
O33 Tb9 2.371436 1_565
O33 Tb7 2.534375 1_555
O33 Tb9 3.209589 1_555
