# generated using pymatgen
data_Ag2H4(SO4)3
_symmetry_space_group_name_H-M   'P 1'
_cell_length_a   7.19595700
_cell_length_b   10.35222700
_cell_length_c   14.19269600
_cell_angle_alpha   90.00000000
_cell_angle_beta   90.00000000
_cell_angle_gamma   90.00000000
_symmetry_Int_Tables_number   1
_chemical_formula_structural   Ag2H4(SO4)3
_chemical_formula_sum   'Ag8 H16 S12 O48'
_cell_volume   1057.27325542
_cell_formula_units_Z   4
loop_
 _symmetry_equiv_pos_site_id
 _symmetry_equiv_pos_as_xyz
  1  'x, y, z'
loop_
 _atom_site_type_symbol
 _atom_site_label
 _atom_site_symmetry_multiplicity
 _atom_site_fract_x
 _atom_site_fract_y
 _atom_site_fract_z
 _atom_site_occupancy
  Ag  Ag0  1  0.24743600  0.12984500  0.16310300  1
  Ag  Ag1  1  0.37648500  0.15598300  0.81082900  1
  Ag  Ag2  1  0.87648500  0.34401700  0.31082900  1
  Ag  Ag3  1  0.74743600  0.37015500  0.66310300  1
  Ag  Ag4  1  0.25256400  0.62984500  0.16310300  1
  Ag  Ag5  1  0.12351500  0.65598300  0.81082900  1
  Ag  Ag6  1  0.62351500  0.84401700  0.31082900  1
  Ag  Ag7  1  0.75256400  0.87015500  0.66310300  1
  H  H0  1  0.08003400  0.05558400  0.36702100  1
  H  H1  1  0.08192200  0.04985400  0.57951500  1
  H  H2  1  0.70442500  0.17703800  0.00580000  1
  H  H3  1  0.55042300  0.24003800  0.48042300  1
  H  H4  1  0.05042300  0.25996200  0.98042300  1
  H  H5  1  0.20442500  0.32296200  0.50580000  1
  H  H6  1  0.58192200  0.45014600  0.07951500  1
  H  H7  1  0.58003400  0.44441600  0.86702100  1
  H  H8  1  0.41996600  0.55558400  0.36702100  1
  H  H9  1  0.41807800  0.54985400  0.57951500  1
  H  H10  1  0.79557500  0.67703800  0.00580000  1
  H  H11  1  0.94957700  0.74003800  0.48042300  1
  H  H12  1  0.44957700  0.75996200  0.98042300  1
  H  H13  1  0.29557500  0.82296200  0.50580000  1
  H  H14  1  0.91807800  0.95014600  0.07951500  1
  H  H15  1  0.91996600  0.94441600  0.86702100  1
  S  S0  1  0.71311500  0.07830900  0.13865200  1
  S  S1  1  0.77496900  0.09541800  0.48116100  1
  S  S2  1  0.86440400  0.14586800  0.83039000  1
  S  S3  1  0.36440400  0.35413200  0.33039000  1
  S  S4  1  0.27496900  0.40458200  0.98116100  1
  S  S5  1  0.21311500  0.42169100  0.63865200  1
  S  S6  1  0.78688500  0.57830900  0.13865200  1
  S  S7  1  0.72503100  0.59541800  0.48116100  1
  S  S8  1  0.63559600  0.64586800  0.83039000  1
  S  S9  1  0.13559600  0.85413200  0.33039000  1
  S  S10  1  0.22503100  0.90458200  0.98116100  1
  S  S11  1  0.28688500  0.92169100  0.63865200  1
  O  O0  1  0.18194400  0.00403800  0.33478100  1
  O  O1  1  0.64293000  0.00619300  0.43999900  1
  O  O2  1  0.56510300  0.04338700  0.20328400  1
  O  O3  1  0.22456200  0.04633200  0.58610300  1
  O  O4  1  0.86783100  0.04582700  0.56746700  1
  O  O5  1  0.91586400  0.14634400  0.41466500  1
  O  O6  1  0.87448100  0.14422900  0.17617500  1
  O  O7  1  0.04342700  0.16475200  0.78502500  1
  O  O8  1  0.61588200  0.16116700  0.06122000  1
  O  O9  1  0.86571600  0.19378100  0.92987800  1
  O  O10  1  0.70649000  0.19744200  0.77665900  1
  O  O11  1  0.66238800  0.21637800  0.52024300  1
  O  O12  1  0.16238800  0.28362200  0.02024300  1
  O  O13  1  0.20649000  0.30255800  0.27665900  1
  O  O14  1  0.36571600  0.30621900  0.42987800  1
  O  O15  1  0.11588200  0.33883300  0.56122000  1
  O  O16  1  0.54342700  0.33524800  0.28502500  1
  O  O17  1  0.37448100  0.35577100  0.67617500  1
  O  O18  1  0.41586500  0.35365600  0.91466500  1
  O  O19  1  0.36783100  0.45417300  0.06746700  1
  O  O20  1  0.72456200  0.45366800  0.08610300  1
  O  O21  1  0.06510300  0.45661300  0.70328400  1
  O  O22  1  0.14293000  0.49380700  0.93999900  1
  O  O23  1  0.68194400  0.49596200  0.83478100  1
  O  O24  1  0.31805600  0.50403800  0.33478100  1
  O  O25  1  0.85707000  0.50619300  0.43999900  1
  O  O26  1  0.93489700  0.54338700  0.20328400  1
  O  O27  1  0.27543800  0.54633200  0.58610300  1
  O  O28  1  0.63216900  0.54582700  0.56746700  1
  O  O29  1  0.58413600  0.64634400  0.41466500  1
  O  O30  1  0.62551900  0.64422900  0.17617500  1
  O  O31  1  0.45657300  0.66475200  0.78502500  1
  O  O32  1  0.88411800  0.66116700  0.06122000  1
  O  O33  1  0.63428400  0.69378100  0.92987800  1
  O  O34  1  0.79351000  0.69744200  0.77665900  1
  O  O35  1  0.83761200  0.71637800  0.52024300  1
  O  O36  1  0.33761200  0.78362200  0.02024300  1
  O  O37  1  0.29351000  0.80255800  0.27665900  1
  O  O38  1  0.13428400  0.80621900  0.42987800  1
  O  O39  1  0.38411800  0.83883300  0.56122000  1
  O  O40  1  0.95657300  0.83524800  0.28502500  1
  O  O41  1  0.12551900  0.85577100  0.67617500  1
  O  O42  1  0.08413600  0.85365600  0.91466500  1
  O  O43  1  0.13216900  0.95417300  0.06746700  1
  O  O44  1  0.77543800  0.95366800  0.08610300  1
  O  O45  1  0.43489700  0.95661300  0.70328400  1
  O  O46  1  0.35707000  0.99380700  0.93999900  1
  O  O47  1  0.81805600  0.99596200  0.83478100  1
loop_
_geom_bond_atom_site_label_1
_geom_bond_atom_site_label_2
_geom_bond_distance
_geom_bond_site_symmetry_2
Ag0 O43 2.416121 1_545
Ag0 O13 2.425098 1_555
Ag0 O2 2.520262 1_555
Ag0 O12 2.649497 1_555
Ag0 O6 2.694291 1_455
Ag0 O0 2.802712 1_555
Ag1 O7 2.426190 1_555
Ag1 O10 2.461424 1_555
Ag1 O46 2.489789 1_545
Ag1 O18 2.537657 1_555
Ag1 O45 2.601194 1_545
Ag1 O17 2.816058 1_555
Ag2 O16 2.426190 1_555
Ag2 O13 2.461424 1_655
Ag2 O25 2.489789 1_555
Ag2 O5 2.537656 1_555
Ag2 O26 2.601194 1_555
Ag2 O6 2.816058 1_555
Ag3 O28 2.416121 1_555
Ag3 O10 2.425098 1_555
Ag3 O21 2.520262 1_655
Ag3 O11 2.649497 1_555
Ag3 O17 2.694291 1_555
Ag3 O23 2.802712 1_555
Ag4 O19 2.416121 1_555
Ag4 O37 2.425098 1_555
Ag4 O26 2.520262 1_455
Ag4 O36 2.649497 1_555
Ag4 O30 2.694291 1_555
Ag4 O24 2.802712 1_555
Ag5 O31 2.426190 1_555
Ag5 O34 2.461424 1_455
Ag5 O22 2.489789 1_555
Ag5 O42 2.537656 1_555
Ag5 O21 2.601194 1_555
Ag5 O41 2.816058 1_555
Ag6 O40 2.426190 1_555
Ag6 O37 2.461424 1_555
Ag6 O1 2.489789 1_565
Ag6 O29 2.537656 1_555
Ag6 O2 2.601194 1_565
Ag6 O30 2.816058 1_555
Ag7 O4 2.416121 1_565
Ag7 O34 2.425098 1_555
Ag7 O45 2.520262 1_555
Ag7 O35 2.649497 1_555
Ag7 O41 2.694291 1_655
Ag7 O47 2.802712 1_555
H0 O0 1.015828 1_555
H0 O5 1.653978 1_455
H1 O3 1.031326 1_555
H1 O4 1.550611 1_455
H2 O8 1.025491 1_555
H2 O9 1.593180 1_554
H3 O11 1.014167 1_555
H3 O14 1.658503 1_555
H4 O12 1.014167 1_556
H4 O9 1.658503 1_455
H5 O15 1.025491 1_555
H5 O14 1.593180 1_555
H6 O20 1.031326 1_555
H6 O19 1.550611 1_555
H7 O23 1.015828 1_555
H7 O18 1.653973 1_555
H8 O24 1.015828 1_555
H8 O29 1.653978 1_555
H9 O27 1.031326 1_555
H9 O28 1.550611 1_555
H10 O32 1.025491 1_555
H10 O33 1.593180 1_554
H11 O35 1.014167 1_555
H11 O38 1.658503 1_655
H12 O36 1.014167 1_556
H12 O33 1.658503 1_555
H13 O39 1.025491 1_555
H13 O38 1.593180 1_555
H14 O44 1.031326 1_555
H14 O43 1.550611 1_655
H15 O47 1.015828 1_555
H15 O42 1.653978 1_655
O0 S9 1.588518 1_545
O1 S1 1.448188 1_555
O2 S0 1.451397 1_555
O3 S11 1.556364 1_545
O4 S1 1.486777 1_555
O5 S1 1.482079 1_555
O6 S0 1.448328 1_555
O7 S2 1.453385 1_455
O8 S0 1.559824 1_555
O9 S2 1.496617 1_555
O10 S2 1.468969 1_555
O11 S1 1.591224 1_555
O12 S4 1.591224 1_554
O13 S3 1.468969 1_555
O14 S3 1.496617 1_555
O15 S5 1.559824 1_555
O16 S3 1.453385 1_555
O17 S5 1.448328 1_555
O18 S4 1.482083 1_555
O19 S4 1.486777 1_554
O20 S6 1.556364 1_555
O21 S5 1.451397 1_555
O22 S4 1.448188 1_555
O23 S8 1.588518 1_555
O24 S3 1.588518 1_555
O25 S7 1.448188 1_555
O26 S6 1.451397 1_555
O27 S5 1.556364 1_555
O28 S7 1.486777 1_555
O29 S7 1.482079 1_555
O30 S6 1.448328 1_555
O31 S8 1.453385 1_555
O32 S6 1.559824 1_555
O33 S8 1.496617 1_555
O34 S8 1.468969 1_555
O35 S7 1.591224 1_555
O36 S10 1.591224 1_554
O37 S9 1.468969 1_555
O38 S9 1.496617 1_555
O39 S11 1.559824 1_555
O40 S9 1.453385 1_655
O41 S11 1.448328 1_555
O42 S10 1.482079 1_555
O43 S10 1.486777 1_554
O44 S0 1.556364 1_565
O45 S11 1.451397 1_555
O46 S10 1.448188 1_555
O47 S2 1.588518 1_565
