# generated using pymatgen
data_Ti2MnBe
_symmetry_space_group_name_H-M   'P 1'
_cell_length_a   4.18325585
_cell_length_b   4.18325894
_cell_length_c   4.18325893
_cell_angle_alpha   59.99939684
_cell_angle_beta   59.99941523
_cell_angle_gamma   59.99942659
_symmetry_Int_Tables_number   1
_chemical_formula_structural   Ti2MnBe
_chemical_formula_sum   'Ti2 Mn1 Be1'
_cell_volume   51.76344160
_cell_formula_units_Z   1
loop_
 _symmetry_equiv_pos_site_id
 _symmetry_equiv_pos_as_xyz
  1  'x, y, z'
loop_
 _atom_site_type_symbol
 _atom_site_label
 _atom_site_symmetry_multiplicity
 _atom_site_fract_x
 _atom_site_fract_y
 _atom_site_fract_z
 _atom_site_occupancy
  Ti  Ti0  1  0.00000027  0.00000002  0.00000002  1
  Ti  Ti1  1  0.49999991  0.50000038  0.50000038  1
  Mn  Mn0  1  0.75000082  0.74999854  0.74999854  1
  Be  Be0  1  0.24999900  0.25000006  0.25000006  1
loop_
_geom_bond_atom_site_label_1
_geom_bond_atom_site_label_2
_geom_bond_distance
_geom_bond_site_symmetry_2
Mn0 Ti0 2.561688 1_665
Mn0 Ti0 2.561688 1_656
Mn0 Ti1 2.561689 1_655
Mn0 Ti0 2.561694 1_566
Mn0 Ti1 2.561699 1_556
Mn0 Ti1 2.561700 1_565
Mn0 Ti1 2.561714 1_555
Mn0 Ti0 2.561731 1_666
Be0 Ti1 2.561689 1_455
Be0 Ti1 2.561692 1_554
Be0 Ti1 2.561692 1_545
Be0 Ti0 2.561693 1_556
Be0 Ti0 2.561693 1_565
Be0 Ti0 2.561696 1_655
Be0 Ti0 2.561719 1_555
Be0 Ti1 2.561728 1_555
