# generated using pymatgen
data_NdFeC6N6O5
_symmetry_space_group_name_H-M   'P 1'
_cell_length_a   13.18370200
_cell_length_b   7.44648400
_cell_length_c   7.95568919
_cell_angle_alpha   62.12139054
_cell_angle_beta   90.00000000
_cell_angle_gamma   90.00000000
_symmetry_Int_Tables_number   1
_chemical_formula_structural   NdFeC6N6O5
_chemical_formula_sum   'Nd2 Fe2 C12 N12 O10'
_cell_volume   690.38184623
_cell_formula_units_Z   2
loop_
 _symmetry_equiv_pos_site_id
 _symmetry_equiv_pos_as_xyz
  1  'x, y, z'
loop_
 _atom_site_type_symbol
 _atom_site_label
 _atom_site_symmetry_multiplicity
 _atom_site_fract_x
 _atom_site_fract_y
 _atom_site_fract_z
 _atom_site_occupancy
  Nd  Nd0  1  0.25000000  0.32244400  0.35407000  1
  Nd  Nd1  1  0.75000000  0.67755600  0.64593000  1
  Fe  Fe0  1  0.50000000  0.00000000  0.00000000  1
  Fe  Fe1  1  0.00000000  0.00000000  0.00000000  1
  C  C0  1  0.41833700  0.75666900  0.11617700  1
  C  C1  1  0.41844000  0.12570800  0.11744800  1
  C  C2  1  0.41954500  0.11752400  0.76638600  1
  C  C3  1  0.91833700  0.24333100  0.88382300  1
  C  C4  1  0.91844000  0.87429200  0.88255200  1
  C  C5  1  0.91954500  0.88247600  0.23361400  1
  C  C6  1  0.58166300  0.24333100  0.88382300  1
  C  C7  1  0.58156000  0.87429200  0.88255200  1
  C  C8  1  0.58045500  0.88247600  0.23361400  1
  C  C9  1  0.08166300  0.75666900  0.11617700  1
  C  C10  1  0.08156000  0.12570800  0.11744800  1
  C  C11  1  0.08045500  0.11752400  0.76638600  1
  N  N0  1  0.36723000  0.61190800  0.18947400  1
  N  N1  1  0.36750300  0.19616800  0.19164700  1
  N  N2  1  0.37112600  0.18757200  0.62675500  1
  N  N3  1  0.86723000  0.38809200  0.81052600  1
  N  N4  1  0.86750300  0.80383200  0.80835300  1
  N  N5  1  0.87112600  0.81242800  0.37324500  1
  N  N6  1  0.63277000  0.38809200  0.81052600  1
  N  N7  1  0.63249700  0.80383200  0.80835300  1
  N  N8  1  0.62887400  0.81242800  0.37324500  1
  N  N9  1  0.13277000  0.61190800  0.18947400  1
  N  N10  1  0.13249700  0.19616800  0.19164700  1
  N  N11  1  0.12887400  0.18757200  0.62675500  1
  O  O0  1  0.25000000  0.58032100  0.83663600  1
  O  O1  1  0.25000000  0.89069500  0.51360000  1
  O  O2  1  0.25000000  0.60146600  0.51060800  1
  O  O3  1  0.75000000  0.41967900  0.16336400  1
  O  O4  1  0.75000000  0.10930500  0.48640000  1
  O  O5  1  0.75000000  0.39853400  0.48939200  1
  O  O6  1  0.33275600  0.63382500  0.73043400  1
  O  O7  1  0.83275600  0.36617500  0.26956600  1
  O  O8  1  0.66724400  0.36617500  0.26956600  1
  O  O9  1  0.16724400  0.63382500  0.73043400  1
loop_
_geom_bond_atom_site_label_1
_geom_bond_atom_site_label_2
_geom_bond_distance
_geom_bond_site_symmetry_2
Nd0 O1 2.851510 1_545
Nd0 O2 2.878851 1_555
Nd1 O4 2.851510 1_565
Nd1 O5 2.878851 1_555
C0 N0 1.169684 1_555
C0 Fe0 1.931417 1_565
C1 N1 1.168059 1_555
C1 Fe0 1.929633 1_555
C2 N2 1.171188 1_555
C2 Fe0 1.955527 1_556
C3 N3 1.169684 1_555
C3 Fe1 1.931417 1_656
C4 N4 1.168059 1_555
C4 Fe1 1.929633 1_666
C5 N5 1.171188 1_555
C5 Fe1 1.955527 1_665
C6 N6 1.169684 1_555
C6 Fe0 1.931417 1_556
C7 N7 1.168059 1_555
C7 Fe0 1.929633 1_566
C8 N8 1.171188 1_555
C8 Fe0 1.955527 1_565
C9 N9 1.169684 1_555
C9 Fe1 1.931417 1_565
C10 N10 1.168059 1_555
C10 Fe1 1.929633 1_555
C11 N11 1.171188 1_555
C11 Fe1 1.955527 1_556
N0 Nd0 2.471811 1_555
N1 Nd0 2.467801 1_555
N2 Nd0 2.495479 1_555
N3 Nd1 2.471811 1_555
N4 Nd1 2.467801 1_555
N5 Nd1 2.495479 1_555
N6 Nd1 2.471811 1_555
N7 Nd1 2.467801 1_555
N8 Nd1 2.495479 1_555
N9 Nd0 2.471811 1_555
N10 Nd0 2.467801 1_555
N11 Nd0 2.495479 1_555
O0 O9 1.322174 1_555
O0 O6 1.322174 1_555
O3 O8 1.322174 1_555
O3 O7 1.322174 1_555
