# generated using pymatgen
data_Li4Cr2Fe5O12
_symmetry_space_group_name_H-M   'P 1'
_cell_length_a   9.07970200
_cell_length_b   5.12417100
_cell_length_c   9.84929542
_cell_angle_alpha   78.99761866
_cell_angle_beta   90.00000000
_cell_angle_gamma   90.00000000
_symmetry_Int_Tables_number   1
_chemical_formula_structural   Li4Cr2Fe5O12
_chemical_formula_sum   'Li8 Cr4 Fe10 O24'
_cell_volume   449.82484650
_cell_formula_units_Z   2
loop_
 _symmetry_equiv_pos_site_id
 _symmetry_equiv_pos_as_xyz
  1  'x, y, z'
loop_
 _atom_site_type_symbol
 _atom_site_label
 _atom_site_symmetry_multiplicity
 _atom_site_fract_x
 _atom_site_fract_y
 _atom_site_fract_z
 _atom_site_occupancy
  Li  Li0  1  0.91261300  0.00542200  0.74292600  1
  Li  Li1  1  0.92103800  0.49129600  0.25772300  1
  Li  Li2  1  0.58313600  0.76002400  0.50525900  1
  Li  Li3  1  0.58368700  0.50314100  0.25891900  1
  Li  Li4  1  0.41261300  0.99457800  0.25707400  1
  Li  Li5  1  0.42103800  0.50870400  0.74227700  1
  Li  Li6  1  0.08313600  0.23997600  0.49474100  1
  Li  Li7  1  0.08368700  0.49685900  0.74108100  1
  Cr  Cr0  1  0.74841000  0.24771700  0.50377000  1
  Cr  Cr1  1  0.74729000  0.74934300  0.99815900  1
  Cr  Cr2  1  0.24729000  0.25065700  0.00184100  1
  Cr  Cr3  1  0.24841000  0.75228300  0.49623000  1
  Fe  Fe0  1  0.92201500  0.24812500  0.00492800  1
  Fe  Fe1  1  0.92442000  0.74936400  0.49531700  1
  Fe  Fe2  1  0.74870100  0.99458500  0.25725600  1
  Fe  Fe3  1  0.57996100  0.24054800  0.99758600  1
  Fe  Fe4  1  0.73962400  0.51192100  0.74141600  1
  Fe  Fe5  1  0.42442000  0.25063600  0.50468300  1
  Fe  Fe6  1  0.42201500  0.75187500  0.99507200  1
  Fe  Fe7  1  0.24870100  0.00541500  0.74274400  1
  Fe  Fe8  1  0.23962400  0.48807900  0.25858400  1
  Fe  Fe9  1  0.07996100  0.75945200  0.00241400  1
  O  O0  1  0.89675500  0.11581900  0.38216400  1
  O  O1  1  0.89631400  0.87996500  0.11824800  1
  O  O2  1  0.76651100  0.86837900  0.61818400  1
  O  O3  1  0.76189900  0.13474400  0.88470700  1
  O  O4  1  0.90047600  0.38672100  0.62359300  1
  O  O5  1  0.90402400  0.61972600  0.88207700  1
  O  O6  1  0.59221900  0.13135600  0.37997600  1
  O  O7  1  0.75950500  0.62789900  0.37735700  1
  O  O8  1  0.59025400  0.85888700  0.12317400  1
  O  O9  1  0.75747200  0.36938300  0.12206300  1
  O  O10  1  0.59032900  0.62454400  0.87932200  1
  O  O11  1  0.59059600  0.38773000  0.61680500  1
  O  O12  1  0.39675500  0.88418100  0.61783600  1
  O  O13  1  0.39631400  0.12003500  0.88175200  1
  O  O14  1  0.26651100  0.13162100  0.38181600  1
  O  O15  1  0.40047600  0.61327900  0.37640700  1
  O  O16  1  0.26189900  0.86525600  0.11529300  1
  O  O17  1  0.40402400  0.38027400  0.11792300  1
  O  O18  1  0.25950500  0.37210100  0.62264300  1
  O  O19  1  0.09025400  0.14111300  0.87682600  1
  O  O20  1  0.09221900  0.86864400  0.62002400  1
  O  O21  1  0.25747200  0.63061700  0.87793700  1
  O  O22  1  0.09059600  0.61227000  0.38319500  1
  O  O23  1  0.09032900  0.37545600  0.12067800  1
loop_
_geom_bond_atom_site_label_1
_geom_bond_atom_site_label_2
_geom_bond_distance
_geom_bond_site_symmetry_2
Li0 O2 2.022802 1_545
Li0 O4 2.081953 1_555
Li0 O3 2.148260 1_555
Li0 O5 2.180963 1_545
Li0 O20 2.222560 1_645
Li0 O19 2.274705 1_655
Li1 O7 2.084306 1_555
Li1 O0 2.086274 1_555
Li1 O22 2.138708 1_655
Li1 O9 2.167898 1_555
Li1 O23 2.200643 1_655
Li1 O1 2.204478 1_555
Li2 O11 2.012692 1_555
Li2 O6 2.062465 1_565
Li2 O2 2.133834 1_555
Li2 O12 2.183411 1_555
Li2 O7 2.221550 1_555
Li2 O15 2.300199 1_555
Li3 O8 2.045434 1_555
Li3 O6 2.046945 1_555
Li3 O7 2.145352 1_555
Li3 O15 2.161961 1_555
Li3 O9 2.264765 1_555
Li3 O17 2.306454 1_555
Li4 O14 2.022802 1_565
Li4 O15 2.081953 1_555
Li4 O16 2.148260 1_555
Li4 O17 2.180963 1_565
Li4 O6 2.222560 1_565
Li4 O8 2.274705 1_555
Li5 O18 2.084306 1_555
Li5 O12 2.086274 1_555
Li5 O11 2.138708 1_555
Li5 O21 2.167898 1_555
Li5 O10 2.200643 1_555
Li5 O13 2.204478 1_555
Li6 O22 2.012692 1_555
Li6 O20 2.062465 1_545
Li6 O14 2.133834 1_555
Li6 O0 2.183411 1_455
Li6 O18 2.221550 1_555
Li6 O4 2.300199 1_455
Li7 O19 2.045434 1_555
Li7 O20 2.046945 1_555
Li7 O18 2.145352 1_555
Li7 O4 2.161961 1_455
Li7 O21 2.264765 1_555
Li7 O5 2.306454 1_455
Cr0 O0 2.003639 1_555
Cr0 O11 2.027881 1_555
Cr0 O4 2.031596 1_555
Cr0 O6 2.032454 1_555
Cr0 O2 2.058918 1_545
Cr0 O7 2.104684 1_555
Cr1 O1 1.995005 1_556
Cr1 O5 2.015785 1_555
Cr1 O10 2.023786 1_555
Cr1 O8 2.031758 1_556
Cr1 O3 2.079419 1_565
Cr1 O9 2.093238 1_556
Cr2 O13 1.995005 1_554
Cr2 O17 2.015785 1_555
Cr2 O23 2.023786 1_555
Cr2 O19 2.031758 1_554
Cr2 O16 2.079419 1_545
Cr2 O21 2.093238 1_554
Cr3 O12 2.003639 1_555
Cr3 O22 2.027881 1_555
Cr3 O15 2.031596 1_555
Cr3 O20 2.032454 1_555
Cr3 O14 2.058918 1_565
Cr3 O18 2.104684 1_555
Fe0 O1 2.013808 1_545
Fe0 O3 2.028732 1_554
Fe0 O9 2.054933 1_555
Fe0 O5 2.058424 1_554
Fe0 O23 2.084439 1_655
Fe0 O19 2.118993 1_654
Fe1 O0 2.008086 1_565
Fe1 O2 2.042983 1_555
Fe1 O4 2.049500 1_555
Fe1 O7 2.062858 1_555
Fe1 O22 2.070194 1_655
Fe1 O20 2.118973 1_655
Fe2 O0 1.999568 1_565
Fe2 O7 2.022626 1_555
Fe2 O6 2.072241 1_565
Fe2 O1 2.079128 1_555
Fe2 O9 2.119363 1_565
Fe2 O8 2.155862 1_555
Fe3 O10 2.088662 1_555
Fe3 O8 2.107170 1_546
Fe3 O3 2.118720 1_555
Fe3 O13 2.175385 1_555
Fe3 O17 2.189334 1_556
Fe3 O9 2.201272 1_556
Fe4 O2 2.005706 1_555
Fe4 O11 2.010074 1_555
Fe4 O4 2.043399 1_555
Fe4 O10 2.077182 1_555
Fe4 O3 2.174159 1_555
Fe4 O5 2.178258 1_555
Fe5 O12 2.008086 1_545
Fe5 O14 2.042983 1_555
Fe5 O15 2.049500 1_555
Fe5 O18 2.062858 1_555
Fe5 O11 2.070194 1_555
Fe5 O6 2.118973 1_555
Fe6 O13 2.013808 1_565
Fe6 O16 2.028732 1_556
Fe6 O21 2.054933 1_555
Fe6 O17 2.058424 1_556
Fe6 O10 2.084439 1_555
Fe6 O8 2.118993 1_556
Fe7 O12 1.999568 1_545
Fe7 O18 2.022626 1_555
Fe7 O20 2.072241 1_545
Fe7 O13 2.079128 1_555
Fe7 O21 2.119363 1_545
Fe7 O19 2.155862 1_555
Fe8 O14 2.005706 1_555
Fe8 O22 2.010074 1_555
Fe8 O15 2.043399 1_555
Fe8 O23 2.077182 1_555
Fe8 O16 2.174159 1_555
Fe8 O17 2.178258 1_555
Fe9 O23 2.088662 1_555
Fe9 O19 2.107170 1_564
Fe9 O16 2.118720 1_555
Fe9 O1 2.175385 1_455
Fe9 O5 2.189334 1_454
Fe9 O21 2.201272 1_554
