# generated using pymatgen
data_LiDyAu2
_symmetry_space_group_name_H-M   'P 1'
_cell_length_a   4.81588763
_cell_length_b   4.81588762
_cell_length_c   4.81588757
_cell_angle_alpha   59.99940832
_cell_angle_beta   59.99941074
_cell_angle_gamma   59.99940987
_symmetry_Int_Tables_number   1
_chemical_formula_structural   LiDyAu2
_chemical_formula_sum   'Li1 Dy1 Au2'
_cell_volume   78.97837927
_cell_formula_units_Z   1
loop_
 _symmetry_equiv_pos_site_id
 _symmetry_equiv_pos_as_xyz
  1  'x, y, z'
loop_
 _atom_site_type_symbol
 _atom_site_label
 _atom_site_symmetry_multiplicity
 _atom_site_fract_x
 _atom_site_fract_y
 _atom_site_fract_z
 _atom_site_occupancy
  Li  Li0  1  0.74999877  0.74999877  0.74999877  1
  Dy  Dy0  1  0.25000024  0.25000023  0.25000022  1
  Au  Au0  1  0.50000079  0.50000082  0.50000085  1
  Au  Au1  1  0.00000020  0.00000018  0.00000016  1
loop_
_geom_bond_atom_site_label_1
_geom_bond_atom_site_label_2
_geom_bond_distance
_geom_bond_site_symmetry_2
Au0 Dy0 2.949092 1_556
Au0 Dy0 2.949093 1_565
Au0 Dy0 2.949093 1_655
Au0 Li0 2.949103 1_455
Au0 Li0 2.949103 1_545
Au0 Li0 2.949103 1_554
Au0 Li0 2.949106 1_555
Au0 Dy0 2.949137 1_555
Au1 Li0 2.949089 1_454
Au1 Li0 2.949089 1_544
Au1 Li0 2.949089 1_445
Au1 Dy0 2.949095 1_554
Au1 Dy0 2.949095 1_545
Au1 Dy0 2.949095 1_455
Au1 Dy0 2.949131 1_555
Au1 Li0 2.949147 1_444
