# generated using pymatgen
data_LiAlNi2
_symmetry_space_group_name_H-M   'P 1'
_cell_length_a   3.98023378
_cell_length_b   3.98023378
_cell_length_c   3.98023235
_cell_angle_alpha   59.99991714
_cell_angle_beta   59.99995275
_cell_angle_gamma   60.00001187
_symmetry_Int_Tables_number   1
_chemical_formula_structural   LiAlNi2
_chemical_formula_sum   'Li1 Al1 Ni2'
_cell_volume   44.58720009
_cell_formula_units_Z   1
loop_
 _symmetry_equiv_pos_site_id
 _symmetry_equiv_pos_as_xyz
  1  'x, y, z'
loop_
 _atom_site_type_symbol
 _atom_site_label
 _atom_site_symmetry_multiplicity
 _atom_site_fract_x
 _atom_site_fract_y
 _atom_site_fract_z
 _atom_site_occupancy
  Li  Li0  1  0.75000000  0.74999900  0.75000000  1
  Al  Al0  1  0.25000000  0.24999900  0.25000000  1
  Ni  Ni0  1  0.99999800  0.00000100  0.00000100  1
  Ni  Ni1  1  0.50000200  0.50000000  0.49999900  1
loop_
_geom_bond_atom_site_label_1
_geom_bond_atom_site_label_2
_geom_bond_distance
_geom_bond_site_symmetry_2
Li0 Ni0 2.437378 1_556
Li0 Ni0 2.437379 1_565
Li0 Ni1 2.437379 1_556
Li0 Ni1 2.437379 1_555
Li0 Ni1 2.437388 1_565
Li0 Ni0 2.437389 1_566
Li0 Ni1 2.437392 1_655
Li0 Ni0 2.437392 1_466
Al0 Ni0 2.437379 1_555
Al0 Ni1 2.437379 1_455
Al0 Ni1 2.437381 1_545
Al0 Ni0 2.437383 1_455
Al0 Ni1 2.437385 1_554
Al0 Ni0 2.437385 1_456
Al0 Ni0 2.437391 1_465
Al0 Ni1 2.437392 1_555
