# generated using pymatgen
data_Li2Mn3(BO3)3
_symmetry_space_group_name_H-M   'P 1'
_cell_length_a   5.22870900
_cell_length_b   7.93368524
_cell_length_c   9.66854322
_cell_angle_alpha   105.13683210
_cell_angle_beta   103.42194613
_cell_angle_gamma   87.71284357
_symmetry_Int_Tables_number   1
_chemical_formula_structural   Li2Mn3(BO3)3
_chemical_formula_sum   'Li4 Mn6 B6 O18'
_cell_volume   376.49788305
_cell_formula_units_Z   2
loop_
 _symmetry_equiv_pos_site_id
 _symmetry_equiv_pos_as_xyz
  1  'x, y, z'
loop_
 _atom_site_type_symbol
 _atom_site_label
 _atom_site_symmetry_multiplicity
 _atom_site_fract_x
 _atom_site_fract_y
 _atom_site_fract_z
 _atom_site_occupancy
  Li  Li0  1  0.90689700  0.68940200  0.64980300  1
  Li  Li1  1  0.56742300  0.35551400  0.98542900  1
  Li  Li2  1  0.09031000  0.33333500  0.35837400  1
  Li  Li3  1  0.24375700  0.00664000  0.30904800  1
  Mn  Mn0  1  0.33039600  0.92031500  0.84033200  1
  Mn  Mn1  1  0.35003000  0.75545700  0.49481700  1
  Mn  Mn2  1  0.02129900  0.42564900  0.82995600  1
  Mn  Mn3  1  0.98181600  0.58555000  0.16686400  1
  Mn  Mn4  1  0.65822600  0.24375900  0.51447100  1
  Mn  Mn5  1  0.68083100  0.08139100  0.16379800  1
  B  B0  1  0.86891400  0.79363600  0.93136900  1
  B  B1  1  0.79238600  0.85954000  0.39199100  1
  B  B2  1  0.46122600  0.53367500  0.72746000  1
  B  B3  1  0.54776300  0.46966800  0.28573100  1
  B  B4  1  0.19982000  0.13456600  0.60444900  1
  B  B5  1  0.12885200  0.20245900  0.05816500  1
  O  O0  1  0.99647400  0.64702000  0.97402700  1
  O  O1  1  0.65497300  0.85508800  0.98994400  1
  O  O2  1  0.94922200  0.86295300  0.83456800  1
  O  O3  1  0.03231700  0.82527900  0.34662600  1
  O  O4  1  0.63252400  0.98688900  0.34447000  1
  O  O5  1  0.30237100  0.65525200  0.66888200  1
  O  O6  1  0.72944000  0.77190900  0.48449900  1
  O  O7  1  0.39331000  0.45044500  0.82156300  1
  O  O8  1  0.70259000  0.49504400  0.68628100  1
  O  O9  1  0.31276400  0.52357000  0.33767700  1
  O  O10  1  0.60235100  0.53097600  0.17732000  1
  O  O11  1  0.25731700  0.20016400  0.49692300  1
  O  O12  1  0.70114300  0.34292100  0.34049700  1
  O  O13  1  0.32397200  0.98745000  0.64044700  1
  O  O14  1  0.99679400  0.20552400  0.67350800  1
  O  O15  1  0.07895300  0.13967200  0.17008500  1
  O  O16  1  0.36232300  0.16049400  0.01031500  1
  O  O17  1  0.96142700  0.32143800  0.00064000  1
loop_
_geom_bond_atom_site_label_1
_geom_bond_atom_site_label_2
_geom_bond_distance
_geom_bond_site_symmetry_2
Li0 O6 1.911352 1_555
Li0 O2 1.921533 1_555
Li0 O5 2.046365 1_655
Li0 O8 2.057587 1_555
Li1 O7 1.950651 1_555
Li1 O10 1.981798 1_556
Li1 O16 2.012092 1_556
Li1 O17 2.043164 1_556
Li2 O11 1.948255 1_555
Li2 O12 2.001867 1_455
Li2 O9 2.019093 1_555
Li2 O15 2.043208 1_555
Li3 O15 1.947349 1_555
Li3 O4 1.988298 1_545
Li3 O3 2.002759 1_545
Li3 O11 2.038214 1_555
Mn0 O2 2.046959 1_455
Mn0 O1 2.102764 1_555
Mn0 O13 2.127385 1_555
Mn0 O16 2.149970 1_566
Mn0 O5 2.298463 1_555
Mn1 O6 2.020369 1_555
Mn1 O13 2.025925 1_555
Mn1 O9 2.040166 1_555
Mn1 O3 2.086983 1_555
Mn1 O5 2.106110 1_555
Mn2 O0 1.956992 1_455
Mn2 O14 1.975513 1_455
Mn2 O7 1.985195 1_555
Mn2 O8 2.064296 1_455
Mn2 O17 2.116127 1_456
Mn3 O0 2.064964 1_554
Mn3 O10 2.078204 1_555
Mn3 O3 2.192832 1_655
Mn3 O9 2.234539 1_655
Mn3 O17 2.272547 1_555
Mn4 O12 2.092627 1_555
Mn4 O11 2.098745 1_555
Mn4 O14 2.127748 1_555
Mn4 O8 2.217257 1_555
Mn4 O4 2.245613 1_545
Mn5 O1 2.098815 1_544
Mn5 O15 2.134062 1_655
Mn5 O4 2.140394 1_545
Mn5 O16 2.150613 1_555
Mn5 O12 2.305919 1_555
B0 O2 1.350701 1_555
B0 O1 1.384252 1_555
B0 O0 1.424405 1_555
B1 O6 1.367969 1_555
B1 O4 1.388281 1_555
B1 O3 1.416361 1_655
B2 O7 1.368359 1_555
B2 O5 1.394275 1_555
B2 O8 1.408479 1_555
B3 O10 1.353866 1_555
B3 O12 1.396885 1_555
B3 O9 1.441290 1_555
B4 O11 1.371930 1_555
B4 O13 1.397004 1_545
B4 O14 1.405245 1_455
B5 O15 1.382066 1_555
B5 O17 1.396035 1_455
B5 O16 1.401579 1_555
