# generated using pymatgen
data_Sc7V9O24
_symmetry_space_group_name_H-M   'P 1'
_cell_length_a   8.38269800
_cell_length_b   8.40801222
_cell_length_c   8.46754319
_cell_angle_alpha   109.71716634
_cell_angle_beta   109.50327332
_cell_angle_gamma   108.83902812
_symmetry_Int_Tables_number   1
_chemical_formula_structural   Sc7V9O24
_chemical_formula_sum   'Sc7 V9 O24'
_cell_volume   461.39816569
_cell_formula_units_Z   1
loop_
 _symmetry_equiv_pos_site_id
 _symmetry_equiv_pos_as_xyz
  1  'x, y, z'
loop_
 _atom_site_type_symbol
 _atom_site_label
 _atom_site_symmetry_multiplicity
 _atom_site_fract_x
 _atom_site_fract_y
 _atom_site_fract_z
 _atom_site_occupancy
  Sc  Sc0  1  0.03511000  0.78420100  0.75060900  1
  Sc  Sc1  1  0.28594400  0.82643700  0.46148500  1
  Sc  Sc2  1  0.96306100  0.21233500  0.25024500  1
  Sc  Sc3  1  0.46341800  0.71347500  0.25057300  1
  Sc  Sc4  1  0.32567300  0.53796700  0.71372800  1
  Sc  Sc5  1  0.67505900  0.96413900  0.78560100  1
  Sc  Sc6  1  0.79066800  0.82486400  0.96303100  1
  V  V0  1  0.48806300  0.99180600  0.00539300  1
  V  V1  1  0.21249200  0.17444600  0.03682700  1
  V  V2  1  0.68673500  0.46968900  0.28207400  1
  V  V3  1  0.31164200  0.02735100  0.21926200  1
  V  V4  1  0.53592300  0.28589100  0.75145100  1
  V  V5  1  0.99836100  0.50020400  0.00013200  1
  V  V6  1  0.00469500  0.00324000  0.49783200  1
  V  V7  1  0.71666000  0.18421400  0.53411100  1
  V  V8  1  0.50728900  0.50207800  0.49773800  1
  O  O0  1  0.57060400  0.30392800  0.95995800  1
  O  O1  1  0.17893800  0.95066500  0.54388600  1
  O  O2  1  0.99776800  0.95727000  0.27378200  1
  O  O3  1  0.80357400  0.08613800  0.96268500  1
  O  O4  1  0.21889300  0.68096100  0.77717500  1
  O  O5  1  0.02666000  0.81253300  0.45837000  1
  O  O6  1  0.54205900  0.99807700  0.23302400  1
  O  O7  1  0.70753900  0.74823900  0.26392900  1
  O  O8  1  0.49191400  0.48673900  0.77661500  1
  O  O9  1  0.80739600  0.30897500  0.72929100  1
  O  O10  1  0.73897400  0.50947400  0.01773600  1
  O  O11  1  0.56154900  0.28441600  0.48549100  1
  O  O12  1  0.24381300  0.46959900  0.98973000  1
  O  O13  1  0.44286500  0.71395600  0.51127200  1
  O  O14  1  0.17321300  0.68790400  0.27843700  1
  O  O15  1  0.52171600  0.50495800  0.22524300  1
  O  O16  1  0.46427700  0.01545600  0.75931500  1
  O  O17  1  0.31098200  0.26035200  0.73122400  1
  O  O18  1  0.97178200  0.19291600  0.53698100  1
  O  O19  1  0.78633600  0.32514700  0.22221000  1
  O  O20  1  0.01572900  0.05170600  0.71952000  1
  O  O21  1  0.18274100  0.90352900  0.04320400  1
  O  O22  1  0.82160400  0.05949600  0.45539500  1
  O  O23  1  0.41827500  0.68522400  0.04544100  1
loop_
_geom_bond_atom_site_label_1
_geom_bond_atom_site_label_2
_geom_bond_distance
_geom_bond_site_symmetry_2
O0 O10 1.615951 1_556
O0 V4 1.634866 1_555
O0 V0 2.683311 1_546
O1 O5 1.166430 1_555
O1 V6 1.622926 1_565
O1 Sc1 1.706950 1_555
O2 V6 1.780202 1_665
O2 Sc6 2.214050 1_554
O2 Sc2 2.318679 1_565
O2 V3 2.734304 1_665
O3 Sc5 1.277122 1_545
O3 Sc2 2.002251 1_556
O3 Sc6 2.165338 1_545
O3 V0 2.689316 1_546
O4 Sc4 1.765115 1_555
O4 Sc0 1.985335 1_555
O4 V0 2.351265 1_556
O5 V6 1.608380 1_565
O5 Sc1 2.129320 1_555
O5 Sc0 2.544947 1_555
O5 V2 2.758430 1_455
O6 V0 1.804518 1_555
O6 V3 1.995248 1_565
O6 V7 2.104313 1_565
O6 Sc3 2.338670 1_555
O7 Sc3 1.929459 1_555
O8 Sc4 1.567792 1_555
O8 V4 1.801486 1_555
O8 V8 2.451010 1_555
O8 Sc6 2.565185 1_555
O9 V7 1.373269 1_555
O9 V5 1.950789 1_556
O9 V4 2.296961 1_555
O10 V4 2.006482 1_554
O10 V5 2.252594 1_555
O10 V2 2.525609 1_555
O10 Sc6 2.766795 1_554
O11 V7 1.775956 1_555
O11 V8 2.001986 1_555
O11 V3 2.185605 1_555
O11 V4 2.328911 1_555
O12 O23 1.702393 1_556
O12 Sc3 2.064733 1_556
O12 V5 2.180629 1_456
O12 V1 2.589105 1_556
O13 Sc1 1.872073 1_555
O13 V8 2.000832 1_555
O13 Sc5 2.156151 1_555
O13 Sc3 2.269592 1_555
O13 Sc4 2.826808 1_555
O14 Sc1 1.321010 1_555
O14 V5 1.970447 1_455
O15 V2 1.466208 1_555
O15 V8 2.358235 1_555
O15 V1 2.565538 1_555
O16 Sc5 1.911096 1_545
O16 Sc1 2.089117 1_545
O16 V0 2.109211 1_546
O16 V4 2.186851 1_555
O17 V4 1.768905 1_555
O18 O22 1.142291 1_555
O18 V6 1.648606 1_655
O18 V7 2.107758 1_555
O18 Sc2 2.466500 1_555
O18 Sc4 2.829249 1_655
O19 V2 1.718505 1_555
O19 Sc2 1.993815 1_555
O19 V0 2.532724 1_545
O20 V6 1.744101 1_555
O20 V1 2.252810 1_556
O20 Sc0 2.400308 1_545
O21 V3 1.274562 1_565
O21 Sc0 2.037156 1_554
O21 V1 2.231350 1_565
O21 V0 2.585480 1_555
O21 Sc6 2.916089 1_454
O22 V7 1.683288 1_555
O22 V6 1.709890 1_655
O23 Sc3 1.562474 1_555
O23 V0 2.617325 1_555
