# generated using pymatgen
data_LiVOF3
_symmetry_space_group_name_H-M   'P 1'
_cell_length_a   7.86128500
_cell_length_b   7.94031380
_cell_length_c   10.70106018
_cell_angle_alpha   71.61513516
_cell_angle_beta   71.44478597
_cell_angle_gamma   81.73730897
_symmetry_Int_Tables_number   1
_chemical_formula_structural   LiVOF3
_chemical_formula_sum   'Li8 V8 O8 F24'
_cell_volume   600.22938425
_cell_formula_units_Z   8
loop_
 _symmetry_equiv_pos_site_id
 _symmetry_equiv_pos_as_xyz
  1  'x, y, z'
loop_
 _atom_site_type_symbol
 _atom_site_label
 _atom_site_symmetry_multiplicity
 _atom_site_fract_x
 _atom_site_fract_y
 _atom_site_fract_z
 _atom_site_occupancy
  Li  Li0  1  0.09658700  0.55313000  0.03623000  1
  Li  Li1  1  0.09322600  0.55073500  0.53486500  1
  Li  Li2  1  0.78476600  0.84666200  0.28386600  1
  Li  Li3  1  0.30035100  0.34356800  0.28522700  1
  Li  Li4  1  0.27792700  0.35247400  0.78247400  1
  Li  Li5  1  0.59832100  0.05249700  0.53351600  1
  Li  Li6  1  0.43943300  0.09101700  0.97933800  1
  Li  Li7  1  0.79372800  0.84780600  0.78686300  1
  V  V0  1  0.01983500  0.99509700  0.48263400  1
  V  V1  1  0.24458300  0.76373000  0.23556600  1
  V  V2  1  0.74771700  0.26903600  0.23240500  1
  V  V3  1  0.24846400  0.77118300  0.73247000  1
  V  V4  1  0.52077900  0.49648800  0.48295300  1
  V  V5  1  0.01113800  0.99474200  0.98615100  1
  V  V6  1  0.51993400  0.49471300  0.98252300  1
  V  V7  1  0.74830000  0.26839000  0.73379900  1
  O  O0  1  0.06377200  0.86317900  0.37588600  1
  O  O1  1  0.11638400  0.81408900  0.12384300  1
  O  O2  1  0.61846900  0.32363500  0.12300200  1
  O  O3  1  0.11881000  0.81626800  0.62323600  1
  O  O4  1  0.56589400  0.36646200  0.37423600  1
  O  O5  1  0.07042400  0.87206100  0.87165500  1
  O  O6  1  0.55650800  0.35992400  0.87682900  1
  O  O7  1  0.62204600  0.31877600  0.62165300  1
  F  F0  1  0.37751900  0.96877200  0.16222200  1
  F  F1  1  0.28542600  0.40031200  0.09750800  1
  F  F2  1  0.38843600  0.69317300  0.38196600  1
  F  F3  1  0.44210500  0.63470300  0.13201500  1
  F  F4  1  0.94612100  0.13848200  0.12905300  1
  F  F5  1  0.72514400  0.63044200  0.41152200  1
  F  F6  1  0.22538200  0.12812600  0.41031400  1
  F  F7  1  0.88486600  0.47061000  0.16322400  1
  F  F8  1  0.15341400  0.53165400  0.34977700  1
  F  F9  1  0.65361800  0.03811100  0.34779800  1
  F  F10  1  0.78957000  0.89803800  0.09729900  1
  F  F11  1  0.44490600  0.63767700  0.63236400  1
  F  F12  1  0.88996900  0.19276200  0.38163800  1
  F  F13  1  0.22995500  0.13155500  0.91506400  1
  F  F14  1  0.88008700  0.47408000  0.66507400  1
  F  F15  1  0.38382200  0.97395100  0.66116800  1
  F  F16  1  0.15091800  0.54054000  0.84937300  1
  F  F17  1  0.28436100  0.40518100  0.59706800  1
  F  F18  1  0.78531700  0.90496500  0.59886500  1
  F  F19  1  0.38984500  0.69459600  0.88236400  1
  F  F20  1  0.89294900  0.19440300  0.87654800  1
  F  F21  1  0.94638600  0.13773600  0.63169600  1
  F  F22  1  0.72416400  0.62824400  0.90863000  1
  F  F23  1  0.64396900  0.03788800  0.84193100  1
loop_
_geom_bond_atom_site_label_1
_geom_bond_atom_site_label_2
_geom_bond_distance
_geom_bond_site_symmetry_2
Li6 O6 2.248177 1_555
O0 V0 1.709111 1_555
O0 V1 1.991392 1_555
O1 V1 1.718828 1_555
O1 V5 2.003680 1_554
O2 V2 1.703294 1_555
O2 V6 1.963587 1_554
O3 V3 1.709625 1_555
O3 V0 1.991308 1_555
O4 V4 1.713193 1_555
O4 V2 1.996794 1_555
O5 V5 1.710636 1_555
O5 V3 1.980539 1_555
O6 V6 1.724981 1_555
O6 V7 2.015492 1_555
O7 V7 1.710678 1_555
O7 V4 1.983905 1_555
F0 Li6 1.827680 1_564
F0 V1 1.876113 1_555
F1 Li0 1.925112 1_555
F1 Li3 1.953433 1_555
F1 V6 1.961175 1_554
F2 V4 1.968048 1_555
F2 V1 2.106866 1_555
F3 V1 1.962764 1_555
F3 V6 2.114784 1_554
F4 V2 1.972595 1_555
F4 V5 2.082836 1_644
F5 Li2 1.837867 1_555
F5 V4 1.869066 1_555
F6 Li3 1.846287 1_555
F6 V0 1.872096 1_545
F7 Li0 1.832645 1_655
F7 V2 1.874265 1_555
F8 Li3 1.920662 1_555
F8 Li1 1.934427 1_555
F8 V1 1.950537 1_555
F9 Li2 1.896984 1_545
F9 Li5 1.931525 1_555
F9 V2 1.953054 1_555
F10 V5 1.878294 1_654
F10 Li2 1.896420 1_555
F11 V3 1.961909 1_555
F11 V4 2.121432 1_555
F12 V0 1.960963 1_645
F12 V2 2.121186 1_555
F13 Li4 1.874051 1_555
F13 Li6 1.928048 1_555
F13 V5 1.975057 1_545
F14 Li1 1.841658 1_655
F14 V7 1.877611 1_555
F15 Li5 1.843162 1_565
F15 V3 1.872825 1_555
F16 Li4 1.878896 1_555
F16 Li0 1.939322 1_556
F16 V3 1.963387 1_555
F17 Li4 1.879512 1_555
F17 Li1 1.920587 1_555
F17 V4 1.963526 1_555
F18 Li5 1.914380 1_565
F18 Li7 1.938475 1_555
F18 V0 1.953576 1_655
F19 V6 1.967649 1_555
F19 V3 2.122038 1_555
F20 V5 1.962022 1_645
F20 V7 2.078236 1_555
F21 V7 1.965401 1_555
F21 V0 2.127454 1_645
F22 Li7 1.850380 1_555
F22 V6 1.865357 1_555
F23 Li6 1.901853 1_555
F23 Li7 1.902652 1_545
F23 V7 1.962906 1_555
