# generated using pymatgen
data_Li9Nb7V12O48
_symmetry_space_group_name_H-M   'P 1'
_cell_length_a   5.18864000
_cell_length_b   10.53406209
_cell_length_c   17.75175726
_cell_angle_alpha   89.74141057
_cell_angle_beta   88.50147498
_cell_angle_gamma   89.87005987
_symmetry_Int_Tables_number   1
_chemical_formula_structural   Li9Nb7V12O48
_chemical_formula_sum   'Li9 Nb7 V12 O48'
_cell_volume   969.92193634
_cell_formula_units_Z   1
loop_
 _symmetry_equiv_pos_site_id
 _symmetry_equiv_pos_as_xyz
  1  'x, y, z'
loop_
 _atom_site_type_symbol
 _atom_site_label
 _atom_site_symmetry_multiplicity
 _atom_site_fract_x
 _atom_site_fract_y
 _atom_site_fract_z
 _atom_site_occupancy
  Li  Li0  1  0.24952300  0.58161400  0.03915800  1
  Li  Li1  1  0.25102400  0.26920900  0.69850700  1
  Li  Li2  1  0.25355400  0.73023800  0.20189500  1
  Li  Li3  1  0.24558000  0.41582000  0.53311600  1
  Li  Li4  1  0.41227100  0.25735400  0.25257600  1
  Li  Li5  1  0.58051700  0.74431000  0.74815900  1
  Li  Li6  1  0.76398000  0.91475600  0.46234600  1
  Li  Li7  1  0.75304800  0.25854500  0.79305000  1
  Li  Li8  1  0.76926700  0.74972700  0.29684300  1
  Nb  Nb0  1  0.07679400  0.74733600  0.75022600  1
  Nb  Nb1  1  0.23159300  0.92050000  0.03638900  1
  Nb  Nb2  1  0.22880200  0.06845300  0.52424300  1
  Nb  Nb3  1  0.76376000  0.56891200  0.47606600  1
  Nb  Nb4  1  0.72055100  0.44620500  0.97482400  1
  Nb  Nb5  1  0.74207800  0.08403400  0.96700400  1
  Nb  Nb6  1  0.91332800  0.25077400  0.24910400  1
  V  V0  1  0.25471000  0.97522700  0.33778800  1
  V  V1  1  0.23082100  0.52656100  0.34681900  1
  V  V2  1  0.27459600  0.46847700  0.84288900  1
  V  V3  1  0.27986800  0.03409700  0.83129700  1
  V  V4  1  0.73476800  0.52844700  0.15755200  1
  V  V5  1  0.68857500  0.95558400  0.17984100  1
  V  V6  1  0.77279200  0.46891100  0.65645500  1
  V  V7  1  0.75996600  0.02372400  0.65642400  1
  V  V8  1  0.19292300  0.25197300  0.05933900  1
  V  V9  1  0.30012300  0.74581400  0.55711400  1
  V  V10  1  0.69941500  0.24867000  0.44377500  1
  V  V11  1  0.79266100  0.76417400  0.94145700  1
  O  O0  1  0.08207300  0.76210800  0.00951700  1
  O  O1  1  0.04223900  0.38910800  0.62950800  1
  O  O2  1  0.04941100  0.10620900  0.62299000  1
  O  O3  1  0.10400000  0.37283000  0.79021600  1
  O  O4  1  0.07241700  0.12942300  0.79025600  1
  O  O5  1  0.11516100  0.89036600  0.53140200  1
  O  O6  1  0.05670200  0.62531500  0.53008200  1
  O  O7  1  0.06169800  0.99515100  0.92656000  1
  O  O8  1  0.07163500  0.49657800  0.92232600  1
  O  O9  1  0.15111200  0.25433600  0.16466900  1
  O  O10  1  0.15158200  0.38413100  0.29964300  1
  O  O11  1  0.14860000  0.12124700  0.29856200  1
  O  O12  1  0.31987900  0.87383800  0.79064300  1
  O  O13  1  0.31763400  0.61625700  0.79396900  1
  O  O14  1  0.32749000  0.74628800  0.65620200  1
  O  O15  1  0.41906700  0.01134000  0.42344600  1
  O  O16  1  0.42416200  0.49414800  0.42526200  1
  O  O17  1  0.41543300  0.10705000  0.03222200  1
  O  O18  1  0.43458300  0.37875000  0.02828100  1
  O  O19  1  0.46591700  0.90031100  0.27199000  1
  O  O20  1  0.39996400  0.62781100  0.29343900  1
  O  O21  1  0.41822400  0.87983500  0.12119900  1
  O  O22  1  0.46175200  0.60401400  0.13299600  1
  O  O23  1  0.43029000  0.23178400  0.51214100  1
  O  O24  1  0.56494300  0.73474000  0.48758100  1
  O  O25  1  0.57023400  0.39596600  0.87432800  1
  O  O26  1  0.56876800  0.11904000  0.87806400  1
  O  O27  1  0.58936400  0.37382800  0.71247000  1
  O  O28  1  0.57960400  0.10764000  0.71850900  1
  O  O29  1  0.56064300  0.90165800  0.96689700  1
  O  O30  1  0.59606600  0.61362700  0.96913300  1
  O  O31  1  0.56802600  0.99669700  0.57831100  1
  O  O32  1  0.58476600  0.51152300  0.57498200  1
  O  O33  1  0.67382800  0.25198800  0.34530500  1
  O  O34  1  0.67788100  0.38357600  0.21158000  1
  O  O35  1  0.68259400  0.12678500  0.20938200  1
  O  O36  1  0.85006200  0.87773800  0.69864800  1
  O  O37  1  0.85657900  0.61537600  0.70469900  1
  O  O38  1  0.84987400  0.75318800  0.83629000  1
  O  O39  1  0.91726000  0.47940500  0.07200100  1
  O  O40  1  0.91574900  0.01129100  0.07147700  1
  O  O41  1  0.88768400  0.39100600  0.46814700  1
  O  O42  1  0.93702900  0.12247000  0.46953900  1
  O  O43  1  0.93883400  0.86956000  0.20431100  1
  O  O44  1  0.91663800  0.62309100  0.20958500  1
  O  O45  1  0.99758600  0.88587100  0.36264600  1
  O  O46  1  0.93490300  0.60742000  0.37706700  1
  O  O47  1  0.90317500  0.24884300  0.98727000  1
loop_
_geom_bond_atom_site_label_1
_geom_bond_atom_site_label_2
_geom_bond_distance
_geom_bond_site_symmetry_2
Li0 O22 2.035632 1_555
Li0 O39 2.102731 1_455
Li0 O0 2.157361 1_555
Li0 O30 2.184975 1_554
Li0 O18 2.347487 1_555
Li0 O8 2.465024 1_554
Li1 O1 2.078048 1_555
Li1 O3 2.090719 1_555
Li1 O27 2.095673 1_555
Li1 O4 2.363346 1_555
Li1 O2 2.437613 1_555
Li1 O28 2.437719 1_555
Li2 O44 2.084140 1_455
Li2 O22 2.090437 1_555
Li2 O20 2.104078 1_555
Li2 O43 2.192804 1_455
Li2 O21 2.277527 1_555
Li2 O19 2.464327 1_555
Li3 O1 2.005709 1_555
Li3 O32 2.179267 1_555
Li3 O23 2.189733 1_555
Li3 O41 2.227964 1_455
Li3 O16 2.258650 1_555
Li3 O6 2.413572 1_555
Li4 O34 2.035674 1_555
Li4 O10 2.062510 1_555
Li4 O9 2.093707 1_555
Li4 O35 2.095603 1_555
Li4 O11 2.129241 1_555
Li4 O33 2.161086 1_555
Li5 O12 2.051085 1_555
Li5 O13 2.069258 1_555
Li5 O37 2.105818 1_555
Li5 O14 2.121423 1_555
Li5 O38 2.127415 1_555
Li5 O36 2.153484 1_555
Li6 O45 2.141290 1_555
Li6 O15 2.182844 1_565
Li6 O24 2.200040 1_555
Li6 O5 2.236259 1_655
Li6 O42 2.372256 1_565
Li6 O31 2.432933 1_555
Li7 O27 2.070121 1_555
Li7 O4 2.141164 1_655
Li7 O3 2.184579 1_655
Li7 O25 2.240112 1_555
Li7 O28 2.274986 1_555
Li7 O26 2.293959 1_555
Li8 O44 2.171556 1_555
Li8 O45 2.218090 1_555
Li8 O43 2.230795 1_555
Li8 O46 2.247851 1_555
Li8 O19 2.281872 1_555
Li8 O20 2.311421 1_555
Nb0 O38 1.905428 1_455
Nb0 O12 1.986190 1_555
Nb0 O37 1.989142 1_455
Nb0 O13 2.025931 1_555
Nb0 O36 2.036398 1_455
Nb0 O14 2.089148 1_555
Nb1 O21 1.859134 1_555
Nb1 O0 1.909390 1_555
Nb1 O40 1.983234 1_465
Nb1 O29 2.089651 1_554
Nb1 O17 2.186456 1_565
Nb1 O7 2.295550 1_554
Nb2 O42 1.904392 1_455
Nb2 O5 1.970298 1_545
Nb2 O2 2.004149 1_555
Nb2 O23 2.022979 1_555
Nb2 O15 2.110183 1_555
Nb2 O31 2.160172 1_545
Nb3 O6 1.915266 1_655
Nb3 O41 1.984324 1_555
Nb3 O46 1.988755 1_555
Nb3 O24 2.035053 1_555
Nb3 O32 2.054017 1_555
Nb3 O16 2.152734 1_555
Nb4 O18 1.879389 1_556
Nb4 O30 1.880012 1_555
Nb4 O25 2.038170 1_555
Nb4 O39 2.058892 1_556
Nb4 O8 2.092749 1_655
Nb4 O47 2.294975 1_555
Nb5 O26 1.872126 1_555
Nb5 O47 1.967265 1_555
Nb5 O7 2.019686 1_645
Nb5 O17 2.041977 1_556
Nb5 O29 2.141361 1_545
Nb5 O40 2.215876 1_556
Nb6 O9 1.916560 1_655
Nb6 O35 1.922490 1_555
Nb6 O34 1.979794 1_555
Nb6 O11 2.039714 1_655
Nb6 O33 2.085644 1_555
Nb6 O10 2.093756 1_655
O0 V11 1.951834 1_454
O1 V6 1.689207 1_455
O2 V7 1.821366 1_455
O3 V2 1.651909 1_555
O4 V3 1.651443 1_555
O5 V9 1.859581 1_555
O6 V9 1.865798 1_555
O7 V3 2.050668 1_565
O8 V2 1.763470 1_555
O9 V8 1.876962 1_555
O10 V1 1.775843 1_555
O11 V0 1.777794 1_545
O12 V3 1.848090 1_565
O13 V2 1.790707 1_555
O14 V9 1.768436 1_555
O15 V0 1.805172 1_545
O16 V1 1.768961 1_555
O17 V8 1.965912 1_555
O18 V8 1.903810 1_555
O19 V0 1.767903 1_555
O19 V5 2.060386 1_555
O20 V1 1.660528 1_555
O21 V5 1.943467 1_555
O22 V4 1.689507 1_555
O23 V10 1.834383 1_555
O24 V9 1.826768 1_555
O25 V2 1.812060 1_555
O26 V3 1.953140 1_555
O27 V6 1.686307 1_555
O28 V7 1.680166 1_555
O28 V3 2.618441 1_555
O29 V11 1.928796 1_555
O30 V11 1.941901 1_555
O31 V7 1.752925 1_565
O32 V6 1.819612 1_555
O33 V10 1.756693 1_555
O34 V4 1.819320 1_555
O35 V5 1.880372 1_545
O36 V7 1.774804 1_565
O37 V6 1.826839 1_555
O38 V11 1.886700 1_555
O39 V4 1.843779 1_555
O40 V5 2.304027 1_545
O41 V10 1.850452 1_555
O42 V10 1.874319 1_555
O43 V5 1.648205 1_555
O44 V4 1.672070 1_555
O45 V0 1.682788 1_655
O46 V1 1.823843 1_655
O47 V8 1.999809 1_656
