# generated using pymatgen
data_Li5Mn(SiO4)2
_symmetry_space_group_name_H-M   'P 1'
_cell_length_a   6.35040683
_cell_length_b   15.22495900
_cell_length_c   7.26849465
_cell_angle_alpha   90.00066427
_cell_angle_beta   88.17841763
_cell_angle_gamma   90.00075293
_symmetry_Int_Tables_number   1
_chemical_formula_structural   Li5Mn(SiO4)2
_chemical_formula_sum   'Li20 Mn4 Si8 O32'
_cell_volume   702.39697547
_cell_formula_units_Z   4
loop_
 _symmetry_equiv_pos_site_id
 _symmetry_equiv_pos_as_xyz
  1  'x, y, z'
loop_
 _atom_site_type_symbol
 _atom_site_label
 _atom_site_symmetry_multiplicity
 _atom_site_fract_x
 _atom_site_fract_y
 _atom_site_fract_z
 _atom_site_occupancy
  Li  Li0  1  0.75000400  0.34723500  0.00001600  1
  Li  Li1  1  0.75000200  0.59716900  0.50000500  1
  Li  Li2  1  0.75000100  0.84723800  0.00000400  1
  Li  Li3  1  0.75000100  0.09718200  0.49999300  1
  Li  Li4  1  0.25000600  0.16418300  0.00001200  1
  Li  Li5  1  0.25000000  0.41424400  0.50000200  1
  Li  Li6  1  0.24999900  0.66417800  0.00000200  1
  Li  Li7  1  0.25000400  0.91424300  0.50000100  1
  Li  Li8  1  0.25000300  0.34195100  0.00000700  1
  Li  Li9  1  0.25000300  0.59191600  0.50000500  1
  Li  Li10  1  0.25000300  0.84194900  0.00000500  1
  Li  Li11  1  0.24999600  0.09192100  0.50000100  1
  Li  Li12  1  0.49227900  0.24539200  0.31468200  1
  Li  Li13  1  0.49228000  0.49539600  0.81472000  1
  Li  Li14  1  0.49226000  0.74539800  0.31470800  1
  Li  Li15  1  0.49226500  0.99539900  0.81472300  1
  Li  Li16  1  0.00774900  0.24540200  0.68529300  1
  Li  Li17  1  0.00772400  0.49539600  0.18528800  1
  Li  Li18  1  0.00774100  0.74539700  0.68530300  1
  Li  Li19  1  0.00773700  0.99540200  0.18529000  1
  Mn  Mn0  1  0.74999100  0.65998100  0.00001100  1
  Mn  Mn1  1  0.75001400  0.90991800  0.50000600  1
  Mn  Mn2  1  0.75002000  0.15997300  0.99987500  1
  Mn  Mn3  1  0.75000400  0.40987900  0.50001100  1
  Si  Si0  1  0.00989800  0.24638500  0.32700100  1
  Si  Si1  1  0.00988800  0.49639200  0.82704800  1
  Si  Si2  1  0.00990800  0.74638700  0.32703800  1
  Si  Si3  1  0.00988600  0.99638700  0.82704200  1
  Si  Si4  1  0.49006500  0.24638500  0.67296200  1
  Si  Si5  1  0.49011500  0.49639000  0.17295300  1
  Si  Si6  1  0.49009000  0.74638700  0.67296900  1
  Si  Si7  1  0.49012600  0.99639400  0.17296100  1
  O  O0  1  0.80133200  0.24851300  0.18992200  1
  O  O1  1  0.80129500  0.49847600  0.68999500  1
  O  O2  1  0.80135900  0.74853300  0.18991300  1
  O  O3  1  0.80129200  0.99849500  0.69003500  1
  O  O4  1  0.69863800  0.24853000  0.81004900  1
  O  O5  1  0.69871200  0.49847500  0.31000800  1
  O  O6  1  0.69864600  0.74853100  0.81009100  1
  O  O7  1  0.69872800  0.99849300  0.30999700  1
  O  O8  1  0.22390400  0.25197300  0.20098500  1
  O  O9  1  0.22389100  0.50197300  0.70099500  1
  O  O10  1  0.22390300  0.75197500  0.20099000  1
  O  O11  1  0.22388400  0.00197000  0.70099000  1
  O  O12  1  0.27608600  0.25197500  0.79901900  1
  O  O13  1  0.27611300  0.50197200  0.29900300  1
  O  O14  1  0.27609800  0.75197600  0.79901300  1
  O  O15  1  0.27611900  0.00197200  0.29901200  1
  O  O16  1  0.50943800  0.08632900  0.03196400  1
  O  O17  1  0.50939300  0.33629100  0.53195800  1
  O  O18  1  0.50943700  0.58632900  0.03196400  1
  O  O19  1  0.50940900  0.83630200  0.53195900  1
  O  O20  1  0.99058200  0.08631600  0.96804500  1
  O  O21  1  0.99059900  0.33629200  0.46803400  1
  O  O22  1  0.99055900  0.58632900  0.96803900  1
  O  O23  1  0.99059600  0.83630200  0.46804400  1
  O  O24  1  0.50177400  0.41478000  0.03018700  1
  O  O25  1  0.50178600  0.66478600  0.53020700  1
  O  O26  1  0.50174000  0.91476400  0.03024600  1
  O  O27  1  0.50174700  0.16476500  0.53025800  1
  O  O28  1  0.99823600  0.41477600  0.96980300  1
  O  O29  1  0.99821400  0.66478600  0.46979500  1
  O  O30  1  0.99824500  0.91477000  0.96977900  1
  O  O31  1  0.99818500  0.16478900  0.46976200  1
loop_
_geom_bond_atom_site_label_1
_geom_bond_atom_site_label_2
_geom_bond_distance
_geom_bond_site_symmetry_2
Li0 O28 1.889062 1_554
Li0 O24 1.889077 1_555
Li0 O0 2.073487 1_555
Li0 O4 2.073610 1_554
Li1 O29 1.889585 1_555
Li1 O25 1.889620 1_555
Li1 O1 2.073537 1_555
Li1 O5 2.073549 1_555
Li2 O30 1.889058 1_554
Li2 O26 1.889129 1_555
Li2 O2 2.073348 1_555
Li2 O6 2.073357 1_554
Li3 O31 1.889368 1_555
Li3 O27 1.889580 1_555
Li3 O7 2.073470 1_545
Li3 O3 2.073722 1_545
Li4 O8 1.983026 1_555
Li4 O12 1.983165 1_554
Li4 O16 2.048796 1_555
Li4 O20 2.048856 1_454
Li5 O9 1.982510 1_555
Li5 O13 1.982553 1_555
Li5 O17 2.049472 1_555
Li5 O21 2.049488 1_455
Li6 O10 1.983176 1_555
Li6 O14 1.983212 1_554
Li6 O22 2.048776 1_454
Li6 O18 2.048793 1_555
Li7 O11 1.982472 1_565
Li7 O15 1.982510 1_565
Li7 O23 2.049416 1_455
Li7 O19 2.049430 1_555
Li8 O28 1.963706 1_454
Li8 O24 1.963711 1_555
Li8 O8 2.005675 1_555
Li8 O12 2.005681 1_554
Li9 O25 1.964148 1_555
Li9 O29 1.964213 1_455
Li9 O9 2.005380 1_555
Li9 O13 2.005432 1_555
Li10 O26 1.963475 1_555
Li10 O30 1.963647 1_454
Li10 O10 2.005671 1_555
Li10 O14 2.005675 1_554
Li11 O27 1.963813 1_555
Li11 O31 1.964339 1_455
Li11 O15 2.005421 1_555
Li11 O11 2.005458 1_555
Li12 O8 1.920192 1_555
Li12 O27 1.992920 1_555
Li12 O17 2.105239 1_555
Li12 O0 2.136182 1_555
Li13 O9 1.920363 1_555
Li13 O24 1.992202 1_556
Li13 O18 2.105425 1_556
Li13 O1 2.135850 1_555
Li14 O10 1.920156 1_555
Li14 O25 1.992359 1_555
Li14 O19 2.105170 1_555
Li14 O2 2.136552 1_555
Li15 O11 1.920339 1_565
Li15 O26 1.992694 1_556
Li15 O16 2.105387 1_566
Li15 O3 2.135818 1_555
Li16 O12 1.920062 1_555
Li16 O31 1.992541 1_455
Li16 O21 2.105100 1_455
Li16 O4 2.136507 1_455
Li17 O13 1.920325 1_555
Li17 O28 1.992317 1_454
Li17 O22 2.105483 1_454
Li17 O5 2.135818 1_455
Li18 O14 1.920128 1_555
Li18 O29 1.992378 1_455
Li18 O23 2.105247 1_455
Li18 O6 2.136509 1_455
Li19 O15 1.920304 1_565
Li19 O30 1.992580 1_454
Li19 O20 2.105266 1_464
Li19 O7 2.135768 1_455
Mn0 O18 1.903255 1_555
Mn0 O22 1.903360 1_554
Mn0 O2 1.964143 1_555
Mn0 O6 1.964216 1_554
Mn1 O23 1.903101 1_555
Mn1 O19 1.903191 1_555
Mn1 O7 1.964864 1_555
Mn1 O3 1.964951 1_555
Mn2 O20 1.903275 1_555
Mn2 O16 1.903421 1_556
Mn2 O4 1.963849 1_555
Mn2 O0 1.964698 1_556
Mn3 O21 1.902917 1_555
Mn3 O17 1.902966 1_555
Mn3 O1 1.964944 1_555
Mn3 O5 1.965060 1_555
O0 Si0 1.682831 1_655
O1 Si1 1.682840 1_655
O2 Si2 1.682956 1_655
O3 Si3 1.682646 1_655
O4 Si4 1.682907 1_555
O5 Si5 1.682869 1_555
O6 Si6 1.682977 1_555
O7 Si7 1.682813 1_555
O8 Si0 1.616789 1_555
O9 Si1 1.616913 1_555
O10 Si2 1.616857 1_555
O11 Si3 1.616885 1_545
O12 Si4 1.616811 1_555
O13 Si5 1.616898 1_555
O14 Si6 1.616827 1_555
O15 Si7 1.616925 1_545
O16 Si7 1.712376 1_545
O17 Si4 1.712058 1_555
O18 Si5 1.712393 1_555
O19 Si6 1.712191 1_555
O20 Si3 1.712310 1_645
O21 Si0 1.712170 1_655
O22 Si1 1.712363 1_655
O23 Si2 1.712155 1_655
O24 Si5 1.619014 1_555
O25 Si6 1.618896 1_555
O26 Si7 1.619004 1_555
O27 Si4 1.618847 1_555
O28 Si1 1.619049 1_655
O29 Si2 1.618890 1_655
O30 Si3 1.618975 1_655
O31 Si0 1.618853 1_655
