# generated using pymatgen
data_Pd(AuF4)2
_symmetry_space_group_name_H-M   'P 1'
_cell_length_a   10.97186164
_cell_length_b   5.11478115
_cell_length_c   7.57781039
_cell_angle_alpha   47.23184191
_cell_angle_beta   90.00000000
_cell_angle_gamma   90.00000000
_symmetry_Int_Tables_number   1
_chemical_formula_structural   Pd(AuF4)2
_chemical_formula_sum   'Pd2 Au4 F16'
_cell_volume   312.18403045
_cell_formula_units_Z   2
loop_
 _symmetry_equiv_pos_site_id
 _symmetry_equiv_pos_as_xyz
  1  'x, y, z'
loop_
 _atom_site_type_symbol
 _atom_site_label
 _atom_site_symmetry_multiplicity
 _atom_site_fract_x
 _atom_site_fract_y
 _atom_site_fract_z
 _atom_site_occupancy
  Pd  Pd0  1  0.50000000  0.50000000  0.50000000  1
  Pd  Pd1  1  0.00000000  0.50000000  -0.00000000  1
  Au  Au0  1  0.68670523  0.24452438  0.02029575  1
  Au  Au1  1  0.18670523  0.75547562  0.47970425  1
  Au  Au2  1  0.81329477  0.24452438  0.52029575  1
  Au  Au3  1  0.31329477  0.75547562  0.97970425  1
  F  F0  1  0.47122263  0.94174274  0.81789715  1
  F  F1  1  0.97122263  0.05825726  0.68210285  1
  F  F2  1  0.52877737  0.05825726  0.18210285  1
  F  F3  1  0.02877737  0.94174274  0.31789715  1
  F  F4  1  0.89646008  0.56485452  0.20736856  1
  F  F5  1  0.39646008  0.43514548  0.29263144  1
  F  F6  1  0.84579643  0.42451383  0.85925960  1
  F  F7  1  0.34579643  0.57548617  0.64074040  1
  F  F8  1  0.15420357  0.57548617  0.14074040  1
  F  F9  1  0.65420357  0.42451383  0.35925960  1
  F  F10  1  0.27137903  0.05193696  0.17679204  1
  F  F11  1  0.77137903  0.94806304  0.32320796  1
  F  F12  1  0.72862097  0.94806304  0.82320796  1
  F  F13  1  0.22862097  0.05193696  0.67679204  1
  F  F14  1  0.60353992  0.56485452  0.70736856  1
  F  F15  1  0.10353992  0.43514548  0.79263144  1
loop_
_geom_bond_atom_site_label_1
_geom_bond_atom_site_label_2
_geom_bond_distance
_geom_bond_site_symmetry_2
Au0 F11 1.924675 1_545
Au0 F2 1.956301 1_555
Au0 F6 1.964138 1_554
Au0 F14 1.965646 1_554
Au1 F10 1.924675 1_565
Au1 F3 1.956301 1_555
Au1 F7 1.964138 1_555
Au1 F15 1.965646 1_555
Au2 F12 1.924675 1_545
Au2 F1 1.956301 1_555
Au2 F9 1.964138 1_555
Au2 F4 1.965646 1_555
Au3 F13 1.924675 1_565
Au3 F0 1.956301 1_555
Au3 F8 1.964138 1_556
Au3 F5 1.965646 1_556
F0 Pd0 2.171286 1_565
F1 Pd1 2.171286 1_646
F2 Pd0 2.171286 1_545
F3 Pd1 2.171286 1_565
F4 Pd1 2.139578 1_655
F5 Pd0 2.139578 1_555
F6 Pd1 2.169848 1_656
F7 Pd0 2.169848 1_555
F8 Pd1 2.169848 1_555
F9 Pd0 2.169848 1_555
F14 Pd0 2.139578 1_555
F15 Pd1 2.139578 1_556
