# generated using pymatgen
data_V2Pb14Cl4O17
_symmetry_space_group_name_H-M   'P 1'
_cell_length_a   13.06009547
_cell_length_b   13.06009547
_cell_length_c   11.33772910
_cell_angle_alpha   76.85394497
_cell_angle_beta   76.85394497
_cell_angle_gamma   121.79654084
_symmetry_Int_Tables_number   1
_chemical_formula_structural   V2Pb14Cl4O17
_chemical_formula_sum   'V4 Pb28 Cl8 O34'
_cell_volume   1452.83377913
_cell_formula_units_Z   2
loop_
 _symmetry_equiv_pos_site_id
 _symmetry_equiv_pos_as_xyz
  1  'x, y, z'
loop_
 _atom_site_type_symbol
 _atom_site_label
 _atom_site_symmetry_multiplicity
 _atom_site_fract_x
 _atom_site_fract_y
 _atom_site_fract_z
 _atom_site_occupancy
  V  V0  1  0.18845953  0.54315499  0.17437169  1
  V  V1  1  0.45684501  0.81154047  0.32562831  1
  V  V2  1  0.81154047  0.45684501  0.82562831  1
  V  V3  1  0.54315499  0.18845953  0.67437169  1
  Pb  Pb0  1  0.97056534  0.80260448  0.17987526  1
  Pb  Pb1  1  0.19739552  0.02943466  0.32012474  1
  Pb  Pb2  1  0.02943466  0.19739552  0.82012474  1
  Pb  Pb3  1  0.80260448  0.97056534  0.67987526  1
  Pb  Pb4  1  0.71709492  0.54173532  0.07517916  1
  Pb  Pb5  1  0.45826468  0.28290508  0.42482084  1
  Pb  Pb6  1  0.28290508  0.45826468  0.92482084  1
  Pb  Pb7  1  0.54173532  0.71709492  0.57517916  1
  Pb  Pb8  1  0.29269111  0.44978732  0.45516936  1
  Pb  Pb9  1  0.55021268  0.70730889  0.04483064  1
  Pb  Pb10  1  0.70730889  0.55021268  0.54483064  1
  Pb  Pb11  1  0.44978732  0.29269111  0.95516936  1
  Pb  Pb12  1  0.03992778  0.20651084  0.30604050  1
  Pb  Pb13  1  0.79348916  0.96007222  0.19395950  1
  Pb  Pb14  1  0.96007222  0.79348916  0.69395950  1
  Pb  Pb15  1  0.20651084  0.03992778  0.80604050  1
  Pb  Pb16  1  0.84089339  0.45272687  0.29951090  1
  Pb  Pb17  1  0.54727313  0.15910661  0.20048910  1
  Pb  Pb18  1  0.15910661  0.54727313  0.70048910  1
  Pb  Pb19  1  0.45272687  0.84089339  0.79951090  1
  Pb  Pb20  1  0.07595926  0.68021547  0.42086268  1
  Pb  Pb21  1  0.31978453  0.92404074  0.07913732  1
  Pb  Pb22  1  0.92404074  0.31978453  0.57913732  1
  Pb  Pb23  1  0.68021547  0.07595926  0.92086268  1
  Pb  Pb24  1  0.90541155  0.29710207  0.06063292  1
  Pb  Pb25  1  0.70289793  0.09458845  0.43936708  1
  Pb  Pb26  1  0.09458845  0.70289793  0.93936708  1
  Pb  Pb27  1  0.29710207  0.90541155  0.56063292  1
  Cl  Cl0  1  0.12099753  0.12669332  0.06514196  1
  Cl  Cl1  1  0.87330668  0.87900247  0.43485804  1
  Cl  Cl2  1  0.87900247  0.87330668  0.93485804  1
  Cl  Cl3  1  0.12669332  0.12099753  0.56514196  1
  Cl  Cl4  1  0.63654053  0.60417322  0.30389720  1
  Cl  Cl5  1  0.39582678  0.36345947  0.19610280  1
  Cl  Cl6  1  0.36345947  0.39582678  0.69610280  1
  Cl  Cl7  1  0.60417322  0.63654053  0.80389720  1
  O  O0  1  0.90626615  0.62078636  0.11166637  1
  O  O1  1  0.37921364  0.09373385  0.38833363  1
  O  O2  1  0.09373385  0.37921364  0.88833363  1
  O  O3  1  0.62078636  0.90626615  0.61166637  1
  O  O4  1  0.88510613  0.61118255  0.37790622  1
  O  O5  1  0.38881745  0.11489387  0.12209378  1
  O  O6  1  0.11489387  0.38881745  0.62209378  1
  O  O7  1  0.61118255  0.88510613  0.87790622  1
  O  O8  1  0.88511974  0.16922464  0.48581042  1
  O  O9  1  0.83077536  0.11488026  0.01418958  1
  O  O10  1  0.11488026  0.83077536  0.51418958  1
  O  O11  1  0.16922464  0.88511974  0.98581042  1
  O  O12  1  0.34425184  0.63648334  0.04064370  1
  O  O13  1  0.36351666  0.65574816  0.45935630  1
  O  O14  1  0.65574816  0.36351666  0.95935630  1
  O  O15  1  0.63648334  0.34425184  0.54064370  1
  O  O16  1  0.08912898  0.40754147  0.14323885  1
  O  O17  1  0.59245853  0.91087102  0.35676115  1
  O  O18  1  0.91087102  0.59245853  0.85676115  1
  O  O19  1  0.40754147  0.08912898  0.64323885  1
  O  O20  1  0.14348166  0.85651834  0.25000000  1
  O  O21  1  0.85651834  0.14348166  0.75000000  1
  O  O22  1  0.64420138  0.35579862  0.25000000  1
  O  O23  1  0.35579862  0.64420138  0.75000000  1
  O  O24  1  0.86675637  0.13324363  0.25000000  1
  O  O25  1  0.13324363  0.86675637  0.75000000  1
  O  O26  1  0.18595682  0.47882855  0.32540261  1
  O  O27  1  0.52117145  0.81404318  0.17459739  1
  O  O28  1  0.81404318  0.52117145  0.67459739  1
  O  O29  1  0.47882855  0.18595682  0.82540261  1
  O  O30  1  0.12878129  0.63173711  0.18063815  1
  O  O31  1  0.36826289  0.87121871  0.31936185  1
  O  O32  1  0.87121871  0.36826289  0.81936185  1
  O  O33  1  0.63173711  0.12878129  0.68063815  1
loop_
_geom_bond_atom_site_label_1
_geom_bond_atom_site_label_2
_geom_bond_distance
_geom_bond_site_symmetry_2
Cl4 Pb4 3.020118 1_555
Cl4 Pb10 3.125996 1_555
Cl5 Pb5 3.020118 1_555
Cl5 Pb11 3.125996 1_554
Cl6 Pb6 3.020118 1_555
Cl6 Pb8 3.125996 1_555
Cl7 Pb7 3.020118 1_555
Cl7 Pb9 3.125996 1_556
O0 Pb26 2.257755 1_654
O0 Pb16 2.270247 1_555
O0 Pb4 2.304796 1_555
O0 Pb0 2.443587 1_555
O1 Pb27 2.257755 1_545
O1 Pb17 2.270247 1_555
O1 Pb5 2.304796 1_555
O1 Pb1 2.443587 1_555
O2 Pb24 2.257755 1_456
O2 Pb18 2.270247 1_555
O2 Pb6 2.304796 1_555
O2 Pb2 2.443587 1_555
O3 Pb25 2.257755 1_565
O3 Pb19 2.270247 1_555
O3 Pb7 2.304796 1_555
O3 Pb3 2.443587 1_555
O4 Pb10 2.230421 1_555
O4 Pb16 2.284057 1_555
O4 Pb20 2.376269 1_655
O4 Pb0 2.429654 1_555
O5 Pb11 2.230421 1_554
O5 Pb17 2.284057 1_555
O5 Pb21 2.376269 1_545
O5 Pb1 2.429654 1_555
O6 Pb8 2.230421 1_555
O6 Pb18 2.284057 1_555
O6 Pb22 2.376269 1_455
O6 Pb2 2.429654 1_555
O7 Pb9 2.230421 1_556
O7 Pb19 2.284057 1_555
O7 Pb23 2.376269 1_565
O7 Pb3 2.429654 1_555
O8 Pb12 2.261773 1_655
O8 Pb25 2.291272 1_555
O8 Pb22 2.319955 1_555
O8 Pb3 2.472307 1_545
O9 Pb13 2.261773 1_545
O9 Pb24 2.291272 1_555
O9 Pb23 2.319955 1_554
O9 Pb2 2.472307 1_654
O10 Pb14 2.261773 1_455
O10 Pb27 2.291272 1_555
O10 Pb20 2.319955 1_555
O10 Pb1 2.472307 1_565
O11 Pb15 2.261773 1_565
O11 Pb26 2.291272 1_555
O11 Pb21 2.319955 1_556
O11 Pb0 2.472307 1_456
O12 V0 1.751288 1_555
O12 Pb9 2.355700 1_555
O12 Pb19 2.746078 1_554
O13 V1 1.751288 1_555
O13 Pb8 2.355700 1_555
O13 Pb18 2.746078 1_555
O14 V2 1.751288 1_555
O14 Pb11 2.355700 1_555
O14 Pb17 2.746078 1_556
O15 V3 1.751288 1_555
O15 Pb10 2.355700 1_555
O15 Pb16 2.746078 1_555
O16 V0 1.736599 1_555
O16 Pb12 2.488240 1_555
O16 Pb24 2.589240 1_455
O17 V1 1.736599 1_555
O17 Pb13 2.488240 1_555
O17 Pb25 2.589240 1_565
O18 V2 1.736599 1_555
O18 Pb14 2.488240 1_555
O18 Pb26 2.589240 1_655
O19 V3 1.736599 1_555
O19 Pb15 2.488240 1_555
O19 Pb27 2.589240 1_545
O20 Pb20 2.210501 1_555
O20 Pb21 2.210501 1_555
O20 Pb1 2.371392 1_565
O20 Pb0 2.371392 1_455
O21 Pb23 2.210501 1_555
O21 Pb22 2.210501 1_555
O21 Pb2 2.371392 1_655
O21 Pb3 2.371392 1_545
O22 Pb4 2.290842 1_555
O22 Pb5 2.290842 1_555
O22 Pb16 2.463478 1_555
O22 Pb17 2.463478 1_555
O23 Pb6 2.290842 1_555
O23 Pb7 2.290842 1_555
O23 Pb19 2.463478 1_555
O23 Pb18 2.463478 1_555
O24 Pb12 2.254758 1_655
O24 Pb13 2.254758 1_545
O24 Pb24 2.392200 1_555
O24 Pb25 2.392200 1_555
O25 Pb15 2.254758 1_565
O25 Pb14 2.254758 1_455
O25 Pb26 2.392200 1_555
O25 Pb27 2.392200 1_555
O26 V0 1.711793 1_555
O26 Pb8 2.342603 1_555
O27 V1 1.711793 1_555
O27 Pb9 2.342603 1_555
O28 V2 1.711793 1_555
O28 Pb10 2.342603 1_555
O29 V3 1.711793 1_555
O29 Pb11 2.342603 1_555
O30 V0 1.706844 1_555
O31 V1 1.706844 1_555
O32 V2 1.706844 1_555
O33 V3 1.706844 1_555
