# generated using pymatgen
data_Lu5Rh3
_symmetry_space_group_name_H-M   'P 1'
_cell_length_a   8.07101804
_cell_length_b   8.07098615
_cell_length_c   6.08814719
_cell_angle_alpha   89.99979703
_cell_angle_beta   89.99946175
_cell_angle_gamma   120.00540039
_symmetry_Int_Tables_number   1
_chemical_formula_structural   Lu5Rh3
_chemical_formula_sum   'Lu10 Rh6'
_cell_volume   343.43698210
_cell_formula_units_Z   2
loop_
 _symmetry_equiv_pos_site_id
 _symmetry_equiv_pos_as_xyz
  1  'x, y, z'
loop_
 _atom_site_type_symbol
 _atom_site_label
 _atom_site_symmetry_multiplicity
 _atom_site_fract_x
 _atom_site_fract_y
 _atom_site_fract_z
 _atom_site_occupancy
  Lu  Lu0  1  0.33328331  0.66671626  0.00000033  1
  Lu  Lu1  1  0.66671669  0.33328374  0.49999933  1
  Lu  Lu2  1  0.66671669  0.33328374  -0.00000033  1
  Lu  Lu3  1  0.33328331  0.66671626  0.49999967  1
  Lu  Lu4  1  0.25654808  0.00004378  0.25000000  1
  Lu  Lu5  1  0.74345092  0.99995622  0.75000100  1
  Lu  Lu6  1  0.00004476  0.25654771  0.25000000  1
  Lu  Lu7  1  0.74336487  0.74336476  0.25000000  1
  Lu  Lu8  1  0.25663513  0.25663524  0.75000100  1
  Lu  Lu9  1  0.99995624  0.74345229  0.75000100  1
  Rh  Rh0  1  0.60643799  0.00000920  0.25000000  1
  Rh  Rh1  1  0.39356101  0.99999080  0.75000100  1
  Rh  Rh2  1  0.00001030  0.60644289  0.25000000  1
  Rh  Rh3  1  0.39360542  0.39360277  0.25000000  1
  Rh  Rh4  1  0.60639558  0.60639723  0.75000100  1
  Rh  Rh5  1  0.99998970  0.39355711  0.75000100  1
loop_
_geom_bond_atom_site_label_1
_geom_bond_atom_site_label_2
_geom_bond_distance
_geom_bond_site_symmetry_2
Lu0 Rh1 2.911994 1_554
Lu0 Rh2 2.911997 1_555
Lu0 Rh0 2.912348 1_565
Lu0 Rh5 2.912365 1_454
Lu0 Rh4 2.913030 1_554
Lu0 Rh3 2.913055 1_555
Lu0 Lu3 3.044070 1_555
Lu0 Lu3 3.044078 1_554
Lu0 Lu4 3.406499 1_565
Lu0 Lu6 3.406504 1_555
Lu0 Lu5 3.406505 1_554
Lu0 Lu9 3.406515 1_454
Lu0 Lu8 3.406757 1_554
Lu0 Lu7 3.406780 1_555
Lu1 Rh0 2.912006 1_555
Lu1 Rh5 2.912032 1_555
Lu1 Rh1 2.912325 1_545
Lu1 Rh2 2.912331 1_655
Lu1 Rh3 2.913043 1_555
Lu1 Rh4 2.913061 1_555
Lu1 Lu2 3.044072 1_555
Lu1 Lu2 3.044076 1_556
Lu1 Lu5 3.406497 1_545
Lu1 Lu6 3.406502 1_655
Lu1 Lu9 3.406545 1_555
Lu1 Lu4 3.406546 1_555
Lu1 Lu7 3.406741 1_555
Lu1 Lu8 3.406756 1_555
Lu2 Rh5 2.911994 1_554
Lu2 Rh0 2.911994 1_555
Lu2 Rh1 2.912347 1_544
Lu2 Rh2 2.912369 1_655
Lu2 Rh3 2.913027 1_555
Lu2 Rh4 2.913048 1_554
Lu2 Lu5 3.406492 1_544
Lu2 Lu9 3.406504 1_554
Lu2 Lu4 3.406512 1_555
Lu2 Lu6 3.406525 1_655
Lu2 Lu7 3.406760 1_555
Lu2 Lu8 3.406777 1_554
Lu3 Rh1 2.912015 1_555
Lu3 Rh2 2.912026 1_555
Lu3 Rh0 2.912317 1_565
Lu3 Rh5 2.912337 1_455
Lu3 Rh4 2.913057 1_555
Lu3 Rh3 2.913059 1_555
Lu3 Lu4 3.406496 1_565
Lu3 Lu9 3.406500 1_455
Lu3 Lu6 3.406537 1_555
Lu3 Lu5 3.406547 1_555
Lu3 Lu8 3.406747 1_555
Lu3 Lu7 3.406750 1_555
Lu4 Rh3 2.792659 1_555
Lu4 Rh2 2.792881 1_545
Lu4 Rh0 2.824107 1_555
Lu4 Rh1 3.238769 1_544
Lu4 Rh1 3.238800 1_545
Lu4 Lu6 3.585861 1_555
Lu4 Lu7 3.586805 1_445
Lu4 Lu8 3.681530 1_554
Lu4 Lu8 3.681553 1_555
Lu4 Lu9 3.681630 1_445
Lu4 Lu9 3.681664 1_444
Lu5 Rh4 2.792662 1_555
Lu5 Rh5 2.792883 1_565
Lu5 Rh1 2.824107 1_555
Lu5 Rh0 3.238769 1_566
Lu5 Rh0 3.238800 1_565
Lu5 Lu9 3.585875 1_555
Lu5 Lu8 3.586812 1_665
Lu5 Lu7 3.681533 1_556
Lu5 Lu7 3.681555 1_555
Lu5 Lu6 3.681635 1_665
Lu5 Lu6 3.681669 1_666
Lu6 Rh3 2.792687 1_555
Lu6 Rh0 2.792927 1_455
Lu6 Rh2 2.824138 1_555
Lu6 Rh5 3.238767 1_454
Lu6 Rh5 3.238786 1_455
Lu6 Lu7 3.586789 1_445
Lu6 Lu8 3.681519 1_554
Lu6 Lu8 3.681561 1_555
Lu7 Rh2 2.793089 1_655
Lu7 Rh0 2.793108 1_565
Lu7 Rh3 2.822689 1_555
Lu7 Rh4 3.238550 1_555
Lu7 Rh4 3.238565 1_554
Lu7 Lu9 3.681523 1_554
Lu7 Lu9 3.681566 1_555
Lu8 Rh5 2.793089 1_455
Lu8 Rh1 2.793102 1_545
Lu8 Rh4 2.822693 1_555
Lu8 Rh3 3.238551 1_555
Lu8 Rh3 3.238566 1_556
Lu8 Lu9 3.586789 1_445
Lu9 Rh4 2.792687 1_555
Lu9 Rh1 2.792914 1_655
Lu9 Rh5 2.824134 1_555
Lu9 Rh2 3.238765 1_656
Lu9 Rh2 3.238784 1_655
