# generated using pymatgen
data_LiNi2OF3
_symmetry_space_group_name_H-M   'P 1'
_cell_length_a   5.98381053
_cell_length_b   6.08915317
_cell_length_c   8.60790000
_cell_angle_alpha   89.99997647
_cell_angle_beta   89.99999529
_cell_angle_gamma   89.99941552
_symmetry_Int_Tables_number   1
_chemical_formula_structural   LiNi2OF3
_chemical_formula_sum   'Li4 Ni8 O4 F12'
_cell_volume   313.64036114
_cell_formula_units_Z   4
loop_
 _symmetry_equiv_pos_site_id
 _symmetry_equiv_pos_as_xyz
  1  'x, y, z'
loop_
 _atom_site_type_symbol
 _atom_site_label
 _atom_site_symmetry_multiplicity
 _atom_site_fract_x
 _atom_site_fract_y
 _atom_site_fract_z
 _atom_site_occupancy
  Li  Li0  1  0.75000000  0.02728000  0.10627100  1
  Li  Li1  1  0.75000000  0.52728000  0.39372900  1
  Li  Li2  1  0.25000000  0.47272000  0.60627100  1
  Li  Li3  1  0.25000000  0.97272000  0.89372900  1
  Ni  Ni0  1  0.50000000  0.49999900  0.00000100  1
  Ni  Ni1  1  0.99999900  0.50000000  0.99999900  1
  Ni  Ni2  1  0.25000100  0.24601100  0.26175800  1
  Ni  Ni3  1  0.25000100  0.74601100  0.23824000  1
  Ni  Ni4  1  0.99999900  0.00000100  0.50000100  1
  Ni  Ni5  1  0.49999900  0.99999900  0.50000000  1
  Ni  Ni6  1  0.74999900  0.75398900  0.73824200  1
  Ni  Ni7  1  0.75000000  0.25398900  0.76175900  1
  O  O0  1  0.74999700  0.29202400  0.98569400  1
  O  O1  1  0.74999700  0.79202400  0.51430600  1
  O  O2  1  0.25000300  0.20797600  0.48569300  1
  O  O3  1  0.25000300  0.70797600  0.01430600  1
  F  F0  1  0.75000400  0.75011600  0.98008800  1
  F  F1  1  0.01166700  0.99504900  0.24878500  1
  F  F2  1  0.48833000  0.99504800  0.24878600  1
  F  F3  1  0.48833000  0.49504800  0.25121400  1
  F  F4  1  0.01166700  0.49504900  0.25121500  1
  F  F5  1  0.75000300  0.25011600  0.51991100  1
  F  F6  1  0.24999700  0.74988400  0.48008800  1
  F  F7  1  0.51167100  0.50495200  0.74878600  1
  F  F8  1  0.98833300  0.50495100  0.74878500  1
  F  F9  1  0.51167000  0.00495200  0.75121400  1
  F  F10  1  0.98833300  0.00495100  0.75121500  1
  F  F11  1  0.24999700  0.24988400  0.01991200  1
loop_
_geom_bond_atom_site_label_1
_geom_bond_atom_site_label_2
_geom_bond_distance
_geom_bond_site_symmetry_2
Li0 O0 1.917296 1_554
Li1 O1 1.917297 1_555
Li2 O2 1.917302 1_555
Li3 O3 1.917296 1_556
Ni0 O0 1.963847 1_554
Ni0 O3 1.963854 1_555
Ni1 O0 1.963893 1_555
Ni1 O3 1.963903 1_656
Ni2 O2 1.941473 1_555
Ni3 O3 1.941465 1_555
Ni4 O1 1.963897 1_545
Ni4 O2 1.963899 1_655
Ni5 O2 1.963851 1_565
Ni5 O1 1.963851 1_555
Ni6 O1 1.941482 1_555
Ni7 O0 1.941474 1_555
F0 Li0 2.007008 1_566
F0 Ni6 2.081920 1_555
F0 Ni1 2.141641 1_555
F0 Ni0 2.141706 1_556
F1 Li0 1.998760 1_465
F1 Ni3 2.083662 1_555
F1 Ni2 2.093236 1_565
F1 Ni4 2.163779 1_465
F2 Li0 1.998783 1_565
F2 Ni3 2.083659 1_555
F2 Ni2 2.093198 1_565
F2 Ni5 2.163762 1_555
F3 Li1 1.998783 1_555
F3 Ni2 2.083658 1_555
F3 Ni3 2.093199 1_555
F3 Ni0 2.163754 1_555
F4 Li1 1.998760 1_455
F4 Ni2 2.083661 1_555
F4 Ni3 2.093237 1_555
F4 Ni1 2.163779 1_454
F5 Li1 2.007002 1_555
F5 Ni7 2.081937 1_555
F5 Ni4 2.141640 1_555
F5 Ni5 2.141705 1_545
F6 Li2 2.007007 1_555
F6 Ni3 2.081937 1_555
F6 Ni4 2.141659 1_465
F6 Ni5 2.141688 1_555
F7 Li2 1.998788 1_555
F7 Ni6 2.083654 1_555
F7 Ni7 2.093199 1_555
F7 Ni0 2.163771 1_556
F8 Li2 1.998760 1_655
F8 Ni6 2.083661 1_555
F8 Ni7 2.093232 1_555
F8 Ni1 2.163761 1_555
F9 Li3 1.998783 1_545
F9 Ni7 2.083662 1_555
F9 Ni6 2.093198 1_545
F9 Ni5 2.163763 1_545
F10 Li3 1.998760 1_645
F10 Ni7 2.083658 1_555
F10 Ni6 2.093236 1_545
F10 Ni4 2.163761 1_555
F11 Li3 2.007008 1_544
F11 Ni2 2.081920 1_555
F11 Ni1 2.141655 1_454
F11 Ni0 2.141692 1_555
