# generated using pymatgen
data_Ca5Al2(SiN4)2
_symmetry_space_group_name_H-M   'P 1'
_cell_length_a   6.17776600
_cell_length_b   9.29503000
_cell_length_c   15.56467300
_cell_angle_alpha   90.00000000
_cell_angle_beta   90.00000000
_cell_angle_gamma   90.00000000
_symmetry_Int_Tables_number   1
_chemical_formula_structural   Ca5Al2(SiN4)2
_chemical_formula_sum   'Ca20 Al8 Si8 N32'
_cell_volume   893.76275135
_cell_formula_units_Z   4
loop_
 _symmetry_equiv_pos_site_id
 _symmetry_equiv_pos_as_xyz
  1  'x, y, z'
loop_
 _atom_site_type_symbol
 _atom_site_label
 _atom_site_symmetry_multiplicity
 _atom_site_fract_x
 _atom_site_fract_y
 _atom_site_fract_z
 _atom_site_occupancy
  Ca  Ca0  1  0.67112200  0.30178300  0.10401100  1
  Ca  Ca1  1  0.82887800  0.19821700  0.60401100  1
  Ca  Ca2  1  0.82887800  0.80178300  0.89598900  1
  Ca  Ca3  1  0.67112200  0.69821700  0.39598900  1
  Ca  Ca4  1  0.32887800  0.69821700  0.89598900  1
  Ca  Ca5  1  0.17112200  0.80178300  0.39598900  1
  Ca  Ca6  1  0.17112200  0.19821700  0.10401100  1
  Ca  Ca7  1  0.32887800  0.30178300  0.60401100  1
  Ca  Ca8  1  0.86528700  0.00000000  0.25000000  1
  Ca  Ca9  1  0.63471300  0.50000000  0.75000000  1
  Ca  Ca10  1  0.13471300  0.00000000  0.75000000  1
  Ca  Ca11  1  0.36528700  0.50000000  0.25000000  1
  Ca  Ca12  1  0.62599200  0.35905400  0.42531100  1
  Ca  Ca13  1  0.87400800  0.14094600  0.92531100  1
  Ca  Ca14  1  0.87400800  0.85905400  0.57468900  1
  Ca  Ca15  1  0.62599200  0.64094600  0.07468900  1
  Ca  Ca16  1  0.37400800  0.64094600  0.57468900  1
  Ca  Ca17  1  0.12599200  0.85905400  0.07468900  1
  Ca  Ca18  1  0.12599200  0.14094600  0.42531100  1
  Ca  Ca19  1  0.37400800  0.35905400  0.92531100  1
  Al  Al0  1  0.91141200  0.35480100  0.26347700  1
  Al  Al1  1  0.58858800  0.14519900  0.76347700  1
  Al  Al2  1  0.58858800  0.85480100  0.73652300  1
  Al  Al3  1  0.91141200  0.64519900  0.23652300  1
  Al  Al4  1  0.08858800  0.64519900  0.73652300  1
  Al  Al5  1  0.41141200  0.85480100  0.23652300  1
  Al  Al6  1  0.41141200  0.14519900  0.26347700  1
  Al  Al7  1  0.08858800  0.35480100  0.76347700  1
  Si  Si0  1  0.59469200  0.00640600  0.07055000  1
  Si  Si1  1  0.90530800  0.49359400  0.57055000  1
  Si  Si2  1  0.90530800  0.50640600  0.92945000  1
  Si  Si3  1  0.59469200  0.99359400  0.42945000  1
  Si  Si4  1  0.40530800  0.99359400  0.92945000  1
  Si  Si5  1  0.09469200  0.50640600  0.42945000  1
  Si  Si6  1  0.09469200  0.49359400  0.07055000  1
  Si  Si7  1  0.40530800  0.00640600  0.57055000  1
  N  N0  1  0.86089400  0.04695700  0.09056300  1
  N  N1  1  0.63910600  0.45304300  0.59056300  1
  N  N2  1  0.63910600  0.54695700  0.90943700  1
  N  N3  1  0.86089400  0.95304300  0.40943700  1
  N  N4  1  0.13910600  0.95304300  0.90943700  1
  N  N5  1  0.36089400  0.54695700  0.40943700  1
  N  N6  1  0.36089400  0.45304300  0.09056300  1
  N  N7  1  0.13910600  0.04695700  0.59056300  1
  N  N8  1  0.51359100  0.14093000  0.49457400  1
  N  N9  1  0.98640900  0.35907000  0.99457400  1
  N  N10  1  0.98640900  0.64093000  0.50542600  1
  N  N11  1  0.51359100  0.85907000  0.00542600  1
  N  N12  1  0.48640900  0.85907000  0.50542600  1
  N  N13  1  0.01359100  0.64093000  0.00542600  1
  N  N14  1  0.01359100  0.35907000  0.49457400  1
  N  N15  1  0.48640900  0.14093000  0.99457400  1
  N  N16  1  0.63461600  0.27768600  0.26801400  1
  N  N17  1  0.86538400  0.22231400  0.76801400  1
  N  N18  1  0.86538400  0.77768600  0.73198600  1
  N  N19  1  0.63461600  0.72231400  0.23198600  1
  N  N20  1  0.36538400  0.72231400  0.73198600  1
  N  N21  1  0.13461600  0.77768600  0.23198600  1
  N  N22  1  0.13461600  0.22231400  0.26801400  1
  N  N23  1  0.36538400  0.27768600  0.76801400  1
  N  N24  1  0.92793700  0.48043100  0.16140800  1
  N  N25  1  0.57206300  0.01956900  0.66140800  1
  N  N26  1  0.57206300  0.98043100  0.83859200  1
  N  N27  1  0.92793700  0.51956900  0.33859200  1
  N  N28  1  0.07206300  0.51956900  0.83859200  1
  N  N29  1  0.42793700  0.98043100  0.33859200  1
  N  N30  1  0.42793700  0.01956900  0.16140800  1
  N  N31  1  0.07206300  0.48043100  0.66140800  1
loop_
_geom_bond_atom_site_label_1
_geom_bond_atom_site_label_2
_geom_bond_distance
_geom_bond_site_symmetry_2
Ca0 N6 2.386124 1_555
Ca0 N24 2.464266 1_555
Ca0 N15 2.537512 1_554
Ca0 N16 2.572366 1_555
Ca0 N9 2.641732 1_554
Ca0 N0 2.651150 1_555
Ca1 N7 2.386124 1_655
Ca1 N25 2.464266 1_555
Ca1 N14 2.537512 1_655
Ca1 N17 2.572366 1_555
Ca1 N8 2.641732 1_555
Ca1 N1 2.651150 1_555
Ca2 N4 2.386124 1_655
Ca2 N26 2.464266 1_555
Ca2 N13 2.537512 1_656
Ca2 N18 2.572366 1_555
Ca2 N11 2.641732 1_556
Ca2 N2 2.651150 1_555
Ca3 N5 2.386124 1_555
Ca3 N27 2.464266 1_555
Ca3 N12 2.537512 1_555
Ca3 N19 2.572366 1_555
Ca3 N10 2.641732 1_555
Ca3 N3 2.651150 1_555
Ca4 N2 2.386124 1_555
Ca4 N28 2.464266 1_555
Ca4 N11 2.537512 1_556
Ca4 N20 2.572366 1_555
Ca4 N13 2.641732 1_556
Ca4 N4 2.651150 1_555
Ca5 N3 2.386124 1_455
Ca5 N29 2.464266 1_555
Ca5 N10 2.537512 1_455
Ca5 N21 2.572366 1_555
Ca5 N12 2.641732 1_555
Ca5 N5 2.651150 1_555
Ca6 N0 2.386124 1_455
Ca6 N30 2.464266 1_555
Ca6 N9 2.537512 1_454
Ca6 N22 2.572366 1_555
Ca6 N15 2.641732 1_554
Ca6 N6 2.651150 1_555
Ca7 N1 2.386124 1_555
Ca7 N31 2.464266 1_555
Ca7 N8 2.537512 1_555
Ca7 N23 2.572366 1_555
Ca7 N14 2.641732 1_555
Ca7 N7 2.651150 1_555
Ca8 N3 2.519822 1_545
Ca8 N0 2.519822 1_555
Ca8 N22 2.667787 1_655
Ca8 N21 2.667787 1_645
Ca8 N19 2.961656 1_545
Ca8 N16 2.961656 1_555
Ca9 N2 2.519822 1_555
Ca9 N1 2.519822 1_555
Ca9 N23 2.667787 1_555
Ca9 N20 2.667787 1_555
Ca9 N18 2.961656 1_555
Ca9 N17 2.961656 1_555
Ca10 N4 2.519822 1_545
Ca10 N7 2.519822 1_555
Ca10 N17 2.667787 1_455
Ca10 N18 2.667787 1_445
Ca10 N23 2.961656 1_555
Ca10 N20 2.961656 1_545
Ca11 N5 2.519822 1_555
Ca11 N6 2.519822 1_555
Ca11 N16 2.667787 1_555
Ca11 N19 2.667787 1_555
Ca11 N21 2.961656 1_555
Ca11 N22 2.961656 1_555
Ca12 N8 2.398960 1_555
Ca12 N5 2.406997 1_555
Ca12 N16 2.562989 1_555
Ca12 N14 2.625988 1_655
Ca12 N1 2.717620 1_555
Ca12 N27 2.743608 1_555
Ca13 N9 2.398960 1_555
Ca13 N4 2.406997 1_645
Ca13 N17 2.562989 1_555
Ca13 N15 2.625988 1_555
Ca13 N0 2.717620 1_556
Ca13 N26 2.743608 1_545
Ca14 N10 2.398960 1_555
Ca14 N7 2.406997 1_665
Ca14 N18 2.562989 1_555
Ca14 N12 2.625988 1_555
Ca14 N3 2.717620 1_555
Ca14 N25 2.743608 1_565
Ca15 N11 2.398960 1_555
Ca15 N6 2.406997 1_555
Ca15 N19 2.562989 1_555
Ca15 N13 2.625988 1_655
Ca15 N2 2.717620 1_554
Ca15 N24 2.743608 1_555
Ca16 N12 2.398960 1_555
Ca16 N1 2.406997 1_555
Ca16 N20 2.562989 1_555
Ca16 N10 2.625988 1_455
Ca16 N5 2.717620 1_555
Ca16 N31 2.743608 1_555
Ca17 N13 2.398960 1_555
Ca17 N0 2.406997 1_465
Ca17 N21 2.562989 1_555
Ca17 N11 2.625988 1_555
Ca17 N4 2.717620 1_554
Ca17 N30 2.743608 1_565
Ca18 N14 2.398960 1_555
Ca18 N3 2.406997 1_445
Ca18 N22 2.562989 1_555
Ca18 N8 2.625988 1_555
Ca18 N7 2.717620 1_555
Ca18 N29 2.743608 1_545
Ca19 N15 2.398960 1_555
Ca19 N2 2.406997 1_555
Ca19 N23 2.562989 1_555
Ca19 N9 2.625988 1_455
Ca19 N6 2.717620 1_556
Ca19 N28 2.743608 1_555
Al0 N22 1.850102 1_655
Al0 N16 1.855479 1_555
Al0 N27 1.929475 1_555
Al0 N24 1.974310 1_555
Al1 N23 1.850102 1_555
Al1 N17 1.855479 1_555
Al1 N26 1.929475 1_545
Al1 N25 1.974310 1_555
Al2 N20 1.850102 1_555
Al2 N18 1.855479 1_555
Al2 N25 1.929475 1_565
Al2 N26 1.974310 1_555
Al3 N21 1.850102 1_655
Al3 N19 1.855479 1_555
Al3 N24 1.929475 1_555
Al3 N27 1.974310 1_555
Al4 N18 1.850102 1_455
Al4 N20 1.855479 1_555
Al4 N31 1.929475 1_555
Al4 N28 1.974310 1_555
Al5 N19 1.850102 1_555
Al5 N21 1.855479 1_555
Al5 N30 1.929475 1_565
Al5 N29 1.974310 1_555
Al6 N16 1.850102 1_555
Al6 N22 1.855479 1_555
Al6 N29 1.929475 1_545
Al6 N30 1.974310 1_555
Al7 N17 1.850102 1_455
Al7 N23 1.855479 1_555
Al7 N28 1.929475 1_555
Al7 N31 1.974310 1_555
N0 Si0 1.715690 1_555
N1 Si1 1.715690 1_555
N2 Si2 1.715690 1_555
N3 Si3 1.715690 1_555
N4 Si4 1.715690 1_555
N5 Si5 1.715690 1_555
N6 Si6 1.715690 1_555
N7 Si7 1.715690 1_555
N8 Si3 1.775947 1_545
N8 Si7 1.846458 1_555
N9 Si2 1.775947 1_555
N9 Si6 1.846458 1_656
N10 Si1 1.775947 1_555
N10 Si5 1.846458 1_655
N11 Si0 1.775947 1_565
N11 Si4 1.846458 1_554
N12 Si7 1.775947 1_565
N12 Si3 1.846458 1_555
N13 Si6 1.775947 1_555
N13 Si2 1.846458 1_454
N14 Si5 1.775947 1_555
N14 Si1 1.846458 1_455
N15 Si4 1.775947 1_545
N15 Si0 1.846458 1_556
N24 Si6 1.753887 1_655
N25 Si7 1.753887 1_555
N26 Si4 1.753887 1_555
N27 Si5 1.753887 1_655
N28 Si2 1.753887 1_455
N29 Si3 1.753887 1_555
N30 Si0 1.753887 1_555
N31 Si1 1.753887 1_455
