# generated using pymatgen
data_Li2NdAl
_symmetry_space_group_name_H-M   'P 1'
_cell_length_a   4.84855214
_cell_length_b   4.84855214
_cell_length_c   4.84855214
_cell_angle_alpha   60.00000000
_cell_angle_beta   60.00000000
_cell_angle_gamma   60.00000000
_symmetry_Int_Tables_number   1
_chemical_formula_structural   Li2NdAl
_chemical_formula_sum   'Li2 Nd1 Al1'
_cell_volume   80.59743377
_cell_formula_units_Z   1
loop_
 _symmetry_equiv_pos_site_id
 _symmetry_equiv_pos_as_xyz
  1  'x, y, z'
loop_
 _atom_site_type_symbol
 _atom_site_label
 _atom_site_symmetry_multiplicity
 _atom_site_fract_x
 _atom_site_fract_y
 _atom_site_fract_z
 _atom_site_occupancy
  Li  Li0  1  0.00000000  -0.00000000  -0.00000000  1
  Li  Li1  1  0.50000000  0.50000000  0.50000000  1
  Nd  Nd0  1  0.74999900  0.74999900  0.74999900  1
  Al  Al0  1  0.25000000  0.25000000  0.25000000  1
loop_
_geom_bond_atom_site_label_1
_geom_bond_atom_site_label_2
_geom_bond_distance
_geom_bond_site_symmetry_2
Li0 Nd0 2.969116 1_544
Li0 Nd0 2.969116 1_454
Li0 Nd0 2.969116 1_445
Li0 Nd0 2.969132 1_444
Li1 Nd0 2.969108 1_555
Li1 Nd0 2.969124 1_554
Li1 Nd0 2.969124 1_545
Li1 Nd0 2.969124 1_455
Al0 Li0 2.969120 1_556
Al0 Li1 2.969120 1_455
Al0 Li1 2.969120 1_554
Al0 Li0 2.969120 1_555
Al0 Li0 2.969120 1_655
Al0 Li1 2.969120 1_555
Al0 Li0 2.969120 1_565
Al0 Li1 2.969120 1_545
Al0 Nd0 3.428437 1_545
Al0 Nd0 3.428437 1_455
Al0 Nd0 3.428437 1_554
Al0 Nd0 3.428451 1_544
Al0 Nd0 3.428451 1_454
Al0 Nd0 3.428451 1_445
