# generated using pymatgen
data_KNaLaTaO5
_symmetry_space_group_name_H-M   'P 1'
_cell_length_a   5.84913800
_cell_length_b   5.84913800
_cell_length_c   8.36025100
_cell_angle_alpha   90.00000000
_cell_angle_beta   90.00000000
_cell_angle_gamma   90.00000000
_symmetry_Int_Tables_number   1
_chemical_formula_structural   KNaLaTaO5
_chemical_formula_sum   'K2 Na2 La2 Ta2 O10'
_cell_volume   286.02437958
_cell_formula_units_Z   2
loop_
 _symmetry_equiv_pos_site_id
 _symmetry_equiv_pos_as_xyz
  1  'x, y, z'
loop_
 _atom_site_type_symbol
 _atom_site_label
 _atom_site_symmetry_multiplicity
 _atom_site_fract_x
 _atom_site_fract_y
 _atom_site_fract_z
 _atom_site_occupancy
  K  K0  1  0.50000000  0.50000000  0.00000000  1
  K  K1  1  0.00000000  0.00000000  0.00000000  1
  Na  Na0  1  0.50000000  0.00000000  0.24106700  1
  Na  Na1  1  0.00000000  0.50000000  0.75893300  1
  La  La0  1  0.50000000  0.50000000  0.50000000  1
  La  La1  1  0.00000000  0.00000000  0.50000000  1
  Ta  Ta0  1  0.00000000  0.50000000  0.25399700  1
  Ta  Ta1  1  0.50000000  0.00000000  0.74600300  1
  O  O0  1  0.00000000  0.50000000  0.03192800  1
  O  O1  1  0.77157200  0.27157200  0.32469400  1
  O  O2  1  0.22842800  0.27157200  0.32469400  1
  O  O3  1  0.77157200  0.72842800  0.32469400  1
  O  O4  1  0.22842800  0.72842800  0.32469400  1
  O  O5  1  0.27157200  0.77157200  0.67530600  1
  O  O6  1  0.72842800  0.77157200  0.67530600  1
  O  O7  1  0.27157200  0.22842800  0.67530600  1
  O  O8  1  0.72842800  0.22842800  0.67530600  1
  O  O9  1  0.50000000  0.00000000  0.96807200  1
loop_
_geom_bond_atom_site_label_1
_geom_bond_atom_site_label_2
_geom_bond_distance
_geom_bond_site_symmetry_2
K0 O0 2.936725 1_655
K0 O9 2.936725 1_564
K0 O9 2.936725 1_554
K0 O0 2.936725 1_555
K1 O9 2.936725 1_554
K1 O9 2.936725 1_454
K1 O0 2.936725 1_545
K1 O0 2.936725 1_555
Na0 O9 2.282307 1_554
Na0 O1 2.352706 1_555
Na0 O3 2.352706 1_545
Na0 O2 2.352706 1_555
Na0 O4 2.352706 1_545
Na1 O0 2.282307 1_556
Na1 O7 2.352706 1_555
Na1 O8 2.352706 1_455
Na1 O6 2.352706 1_455
Na1 O5 2.352706 1_555
La0 O5 2.540941 1_555
La0 O6 2.540941 1_555
La0 O7 2.540941 1_555
La0 O8 2.540941 1_555
La0 O4 2.540941 1_555
La0 O1 2.540941 1_555
La0 O2 2.540941 1_555
La0 O3 2.540941 1_555
La1 O5 2.540941 1_545
La1 O6 2.540941 1_445
La1 O7 2.540941 1_555
La1 O8 2.540941 1_455
La1 O1 2.540941 1_455
La1 O4 2.540941 1_545
La1 O2 2.540941 1_555
La1 O3 2.540941 1_445
O0 Ta0 1.856553 1_555
O1 Ta0 1.979822 1_655
O2 Ta0 1.979822 1_555
O3 Ta0 1.979822 1_655
O4 Ta0 1.979822 1_555
O5 Ta1 1.979822 1_565
O6 Ta1 1.979822 1_565
O7 Ta1 1.979822 1_555
O8 Ta1 1.979822 1_555
O9 Ta1 1.856553 1_555
