# generated using pymatgen
data_Li2CaPb
_symmetry_space_group_name_H-M   'P 1'
_cell_length_a   4.93574223
_cell_length_b   4.93574223
_cell_length_c   4.93574223
_cell_angle_alpha   60.00000000
_cell_angle_beta   60.00000000
_cell_angle_gamma   60.00000000
_symmetry_Int_Tables_number   1
_chemical_formula_structural   Li2CaPb
_chemical_formula_sum   'Li2 Ca1 Pb1'
_cell_volume   85.02417240
_cell_formula_units_Z   1
loop_
 _symmetry_equiv_pos_site_id
 _symmetry_equiv_pos_as_xyz
  1  'x, y, z'
loop_
 _atom_site_type_symbol
 _atom_site_label
 _atom_site_symmetry_multiplicity
 _atom_site_fract_x
 _atom_site_fract_y
 _atom_site_fract_z
 _atom_site_occupancy
  Li  Li0  1  0.75000000  0.75000000  0.75000000  1
  Li  Li1  1  0.25000000  0.25000000  0.25000000  1
  Ca  Ca0  1  0.50000000  0.50000000  0.50000000  1
  Pb  Pb0  1  -0.00000000  -0.00000000  -0.00000000  1
loop_
_geom_bond_atom_site_label_1
_geom_bond_atom_site_label_2
_geom_bond_distance
_geom_bond_site_symmetry_2
Li0 Pb0 3.022512 1_656
Li0 Pb0 3.022512 1_566
Li0 Pb0 3.022512 1_665
Li0 Pb0 3.022512 1_666
Li1 Pb0 3.022512 1_655
Li1 Pb0 3.022512 1_555
Li1 Pb0 3.022512 1_556
Li1 Pb0 3.022512 1_565
Ca0 Li0 3.022512 1_555
Ca0 Li1 3.022512 1_555
Ca0 Li1 3.022512 1_556
Ca0 Li0 3.022512 1_554
Ca0 Li0 3.022512 1_545
Ca0 Li1 3.022512 1_565
Ca0 Li1 3.022512 1_655
Ca0 Li0 3.022512 1_455
Ca0 Pb0 3.490097 1_566
Ca0 Pb0 3.490097 1_556
Ca0 Pb0 3.490097 1_665
Ca0 Pb0 3.490097 1_655
Ca0 Pb0 3.490097 1_565
Ca0 Pb0 3.490097 1_656
