# generated using pymatgen
data_Ti2ReIr
_symmetry_space_group_name_H-M   'P 1'
_cell_length_a   4.38082455
_cell_length_b   4.38082455
_cell_length_c   4.38082455
_cell_angle_alpha   60.00000000
_cell_angle_beta   60.00000000
_cell_angle_gamma   60.00000000
_symmetry_Int_Tables_number   1
_chemical_formula_structural   Ti2ReIr
_chemical_formula_sum   'Ti2 Re1 Ir1'
_cell_volume   59.45009930
_cell_formula_units_Z   1
loop_
 _symmetry_equiv_pos_site_id
 _symmetry_equiv_pos_as_xyz
  1  'x, y, z'
loop_
 _atom_site_type_symbol
 _atom_site_label
 _atom_site_symmetry_multiplicity
 _atom_site_fract_x
 _atom_site_fract_y
 _atom_site_fract_z
 _atom_site_occupancy
  Ti  Ti0  1  -0.00000000  -0.00000000  0.00000000  1
  Ti  Ti1  1  0.50000000  0.50000000  0.50000000  1
  Re  Re0  1  0.74999900  0.74999900  0.74999900  1
  Ir  Ir0  1  0.24999900  0.24999900  0.24999900  1
loop_
_geom_bond_atom_site_label_1
_geom_bond_atom_site_label_2
_geom_bond_distance
_geom_bond_site_symmetry_2
Re0 Ti1 2.682685 1_555
Re0 Ti0 2.682693 1_665
Re0 Ti0 2.682693 1_656
Re0 Ti0 2.682693 1_566
Re0 Ti1 2.682700 1_556
Re0 Ti1 2.682700 1_565
Re0 Ti1 2.682700 1_655
Re0 Ti0 2.682707 1_666
Ir0 Ti0 2.682685 1_555
Ir0 Ti1 2.682693 1_554
Ir0 Ti1 2.682693 1_545
Ir0 Ti1 2.682693 1_455
Ir0 Ti0 2.682700 1_655
Ir0 Ti0 2.682700 1_556
Ir0 Ti0 2.682700 1_565
Ir0 Ti1 2.682707 1_555
