# generated using pymatgen
data_Li4MnV(PO4)3
_symmetry_space_group_name_H-M   'P 1'
_cell_length_a   8.41544900
_cell_length_b   8.43679741
_cell_length_c   9.30093282
_cell_angle_alpha   116.72785268
_cell_angle_beta   90.37341045
_cell_angle_gamma   119.40266192
_symmetry_Int_Tables_number   1
_chemical_formula_structural   Li4MnV(PO4)3
_chemical_formula_sum   'Li8 Mn2 V2 P6 O24'
_cell_volume   491.41476667
_cell_formula_units_Z   2
loop_
 _symmetry_equiv_pos_site_id
 _symmetry_equiv_pos_as_xyz
  1  'x, y, z'
loop_
 _atom_site_type_symbol
 _atom_site_label
 _atom_site_symmetry_multiplicity
 _atom_site_fract_x
 _atom_site_fract_y
 _atom_site_fract_z
 _atom_site_occupancy
  Li  Li0  1  0.73550600  0.53275600  0.13538800  1
  Li  Li1  1  0.05651700  0.16939200  0.09737900  1
  Li  Li2  1  0.34144400  0.78087000  0.14706100  1
  Li  Li3  1  0.20166700  0.84997700  0.40937200  1
  Li  Li4  1  0.79833300  0.15002300  0.59062800  1
  Li  Li5  1  0.65855600  0.21913000  0.85293900  1
  Li  Li6  1  0.94348300  0.83060800  0.90262100  1
  Li  Li7  1  0.26449400  0.46724400  0.86461200  1
  Mn  Mn0  1  0.84994100  0.58920600  0.56177800  1
  Mn  Mn1  1  0.15005900  0.41079400  0.43822200  1
  V  V0  1  0.35165700  0.62149200  0.03490000  1
  V  V1  1  0.64834300  0.37850800  0.96510000  1
  P  P0  1  0.05062600  0.29317200  0.24591000  1
  P  P1  1  0.45302400  0.01387700  0.24636500  1
  P  P2  1  0.74542100  0.71522700  0.23806900  1
  P  P3  1  0.25457900  0.28477300  0.76193100  1
  P  P4  1  0.54697600  0.98612300  0.75363500  1
  P  P5  1  0.94937400  0.70682800  0.75409000  1
  O  O0  1  0.84950700  0.42401000  0.10690900  1
  O  O1  1  0.49676400  0.30194600  0.17884700  1
  O  O2  1  0.16777700  0.31429800  0.18297200  1
  O  O3  1  0.44573800  0.10470800  0.10075100  1
  O  O4  1  0.79026300  0.05615400  0.10077100  1
  O  O5  1  0.24895000  0.89042100  0.26772000  1
  O  O6  1  0.03270600  0.97166200  0.41207100  1
  O  O7  1  0.60222200  0.80275300  0.40712000  1
  O  O8  1  0.52765600  0.65956200  0.17687000  1
  O  O9  1  0.86626200  0.61447700  0.24469200  1
  O  O10  1  0.79184400  0.56374600  0.40863600  1
  O  O11  1  0.14785000  0.49078500  0.25419400  1
  O  O12  1  0.85215000  0.50921500  0.74580600  1
  O  O13  1  0.20815600  0.43625400  0.59136400  1
  O  O14  1  0.13373800  0.38552300  0.75530800  1
  O  O15  1  0.47234400  0.34043800  0.82313000  1
  O  O16  1  0.39777800  0.19724700  0.59288000  1
  O  O17  1  0.96729400  0.02833800  0.58792900  1
  O  O18  1  0.75105000  0.10957900  0.73228000  1
  O  O19  1  0.20973700  0.94384600  0.89922900  1
  O  O20  1  0.55426200  0.89529200  0.89924900  1
  O  O21  1  0.83222300  0.68570200  0.81702800  1
  O  O22  1  0.50323600  0.69805400  0.82115300  1
  O  O23  1  0.15049300  0.57599000  0.89309100  1
loop_
_geom_bond_atom_site_label_1
_geom_bond_atom_site_label_2
_geom_bond_distance
_geom_bond_site_symmetry_2
Li0 O9 1.153132 1_555
Li0 P2 1.356230 1_555
Li0 V1 1.390572 1_554
Li0 O0 1.575203 1_555
Li0 O1 2.206586 1_555
Li1 O2 0.997964 1_555
Li1 P0 1.324966 1_555
Li1 O4 1.964786 1_455
Li2 V0 1.325365 1_555
Li2 P1 1.463655 1_565
Li2 O5 1.582507 1_555
Li2 O23 2.168019 1_554
Li3 O5 1.512762 1_555
Li3 O6 2.118242 1_555
Li3 O16 2.222225 1_565
Li4 O18 1.512762 1_555
Li4 O17 2.118242 1_555
Li4 O7 2.222225 1_545
Li5 V1 1.325365 1_555
Li5 P4 1.463655 1_545
Li5 O18 1.582507 1_555
Li5 O0 2.168019 1_556
Li6 O21 0.997964 1_555
Li6 P5 1.324966 1_555
Li6 O19 1.964786 1_655
Li7 O14 1.153132 1_555
Li7 P3 1.356230 1_555
Li7 V0 1.390572 1_556
Li7 O23 1.575203 1_555
Li7 O22 2.206586 1_555
Mn0 O10 1.388014 1_555
Mn0 P5 1.566162 1_555
Mn1 O13 1.388014 1_555
Mn1 P0 1.566162 1_555
O0 O9 1.472140 1_555
O0 V1 1.905311 1_554
O1 O3 1.299291 1_555
O1 V1 2.525046 1_554
O2 P0 1.129262 1_555
O3 P1 1.844962 1_555
O4 P0 1.962913 1_655
O5 P1 1.583623 1_565
O6 P2 2.192833 1_455
O7 O8 1.830408 1_555
O7 P2 2.079379 1_555
O8 P2 1.674464 1_555
O8 V0 1.779427 1_555
O9 P2 1.629565 1_555
O11 P0 1.413941 1_555
O12 P5 1.413941 1_555
O14 O23 1.472140 1_555
O14 P3 1.629565 1_555
O15 P3 1.674464 1_555
O15 V1 1.779427 1_555
O15 O16 1.830408 1_555
O16 P3 2.079379 1_555
O17 O6 1.665432 1_645
O17 P3 2.192833 1_655
O18 P4 1.583623 1_545
O19 P5 1.962913 1_455
O20 O22 1.299291 1_555
O20 P4 1.844962 1_555
O21 P5 1.129262 1_555
O22 V0 2.525046 1_556
O23 V0 1.905311 1_556
