# generated using pymatgen
data_ScNi2
_symmetry_space_group_name_H-M   'P 1'
_cell_length_a   4.84664729
_cell_length_b   4.84664386
_cell_length_c   4.84664660
_cell_angle_alpha   59.99997434
_cell_angle_beta   59.99999774
_cell_angle_gamma   59.99997505
_symmetry_Int_Tables_number   1
_chemical_formula_structural   ScNi2
_chemical_formula_sum   'Sc2 Ni4'
_cell_volume   80.50237737
_cell_formula_units_Z   2
loop_
 _symmetry_equiv_pos_site_id
 _symmetry_equiv_pos_as_xyz
  1  'x, y, z'
loop_
 _atom_site_type_symbol
 _atom_site_label
 _atom_site_symmetry_multiplicity
 _atom_site_fract_x
 _atom_site_fract_y
 _atom_site_fract_z
 _atom_site_occupancy
  Sc  Sc0  1  0.12500000  0.12499900  0.12500000  1
  Sc  Sc1  1  0.87500000  0.87500100  0.87500000  1
  Ni  Ni0  1  0.00000000  0.50000000  0.50000000  1
  Ni  Ni1  1  0.50000000  0.00000000  0.50000000  1
  Ni  Ni2  1  0.50000000  0.50000000  -0.00000000  1
  Ni  Ni3  1  0.50000000  0.50000000  0.50000000  1
loop_
_geom_bond_atom_site_label_1
_geom_bond_atom_site_label_2
_geom_bond_distance
_geom_bond_site_symmetry_2
Ni0 Ni1 2.423322 1_465
Ni0 Ni1 2.423322 1_555
Ni0 Ni2 2.423323 1_456
Ni0 Ni2 2.423323 1_555
Ni0 Ni3 2.423324 1_555
Ni0 Ni3 2.423324 1_455
Ni0 Sc1 2.841592 1_445
Ni0 Sc0 2.841592 1_565
Ni0 Sc0 2.841598 1_556
Ni0 Sc1 2.841598 1_454
Ni0 Sc0 2.841602 1_555
Ni0 Sc1 2.841602 1_455
Ni1 Ni2 2.423322 1_555
Ni1 Ni2 2.423322 1_546
Ni1 Ni3 2.423322 1_545
Ni1 Ni3 2.423322 1_555
Ni1 Sc0 2.841596 1_556
Ni1 Sc1 2.841596 1_544
Ni1 Sc0 2.841597 1_655
Ni1 Sc1 2.841597 1_445
Ni1 Sc0 2.841601 1_555
Ni1 Sc1 2.841601 1_545
Ni2 Ni3 2.423323 1_555
Ni2 Ni3 2.423323 1_554
Ni2 Sc1 2.841592 1_544
Ni2 Sc0 2.841592 1_565
Ni2 Sc0 2.841598 1_655
Ni2 Sc1 2.841598 1_454
Ni2 Sc0 2.841602 1_555
Ni2 Sc1 2.841602 1_554
Ni3 Sc0 2.841594 1_565
Ni3 Sc1 2.841594 1_545
Ni3 Sc0 2.841600 1_556
Ni3 Sc1 2.841600 1_554
Ni3 Sc1 2.841600 1_455
Ni3 Sc0 2.841600 1_655
