# generated using pymatgen
data_LiCd3
_symmetry_space_group_name_H-M   'P 1'
_cell_length_a   6.11013186
_cell_length_b   6.11013094
_cell_length_c   4.84923505
_cell_angle_alpha   90.00009782
_cell_angle_beta   90.00009706
_cell_angle_gamma   120.00113020
_symmetry_Int_Tables_number   1
_chemical_formula_structural   LiCd3
_chemical_formula_sum   'Li2 Cd6'
_cell_volume   156.78337931
_cell_formula_units_Z   2
loop_
 _symmetry_equiv_pos_site_id
 _symmetry_equiv_pos_as_xyz
  1  'x, y, z'
loop_
 _atom_site_type_symbol
 _atom_site_label
 _atom_site_symmetry_multiplicity
 _atom_site_fract_x
 _atom_site_fract_y
 _atom_site_fract_z
 _atom_site_occupancy
  Li  Li0  1  0.66666519  0.33333149  0.24999900  1
  Li  Li1  1  0.33333249  0.66666619  0.75000000  1
  Cd  Cd0  1  0.83011216  0.16988194  0.75000000  1
  Cd  Cd1  1  0.33977162  0.16988249  0.75000000  1
  Cd  Cd2  1  0.83012154  0.66023457  0.75000000  1
  Cd  Cd3  1  0.16988394  0.83011416  0.25000200  1
  Cd  Cd4  1  0.66023657  0.83012154  0.24999900  1
  Cd  Cd5  1  0.16988149  0.33976862  0.24999900  1
loop_
_geom_bond_atom_site_label_1
_geom_bond_atom_site_label_2
_geom_bond_distance
_geom_bond_site_symmetry_2
Cd0 Li0 2.978410 1_556
Cd0 Li0 2.978418 1_555
Cd0 Li1 3.055189 1_545
Cd0 Li1 3.055217 1_655
Cd1 Li0 2.978380 1_556
Cd1 Li0 2.978396 1_555
Cd1 Li1 3.055235 1_545
Cd1 Li1 3.055276 1_555
Cd2 Li0 2.978417 1_555
Cd2 Li0 2.978417 1_556
Cd2 Li1 3.055225 1_655
Cd2 Li1 3.055286 1_555
Cd3 Li1 2.978406 1_555
Cd3 Li1 2.978422 1_554
Cd3 Li0 3.055199 1_565
Cd3 Li0 3.055208 1_455
Cd4 Li1 2.978412 1_554
Cd4 Li1 2.978428 1_555
Cd4 Li0 3.055228 1_565
Cd4 Li0 3.055282 1_555
Cd5 Li1 2.978400 1_555
Cd5 Li1 2.978400 1_554
Cd5 Li0 3.055241 1_455
Cd5 Li0 3.055270 1_555
