# generated using pymatgen
data_BaNaH3Pd
_symmetry_space_group_name_H-M   'P 1'
_cell_length_a   6.08966424
_cell_length_b   6.08966424
_cell_length_c   6.20974500
_cell_angle_alpha   90.00000000
_cell_angle_beta   90.00000000
_cell_angle_gamma   120.00000259
_symmetry_Int_Tables_number   1
_chemical_formula_structural   BaNaH3Pd
_chemical_formula_sum   'Ba2 Na2 H6 Pd2'
_cell_volume   199.43027249
_cell_formula_units_Z   2
loop_
 _symmetry_equiv_pos_site_id
 _symmetry_equiv_pos_as_xyz
  1  'x, y, z'
loop_
 _atom_site_type_symbol
 _atom_site_label
 _atom_site_symmetry_multiplicity
 _atom_site_fract_x
 _atom_site_fract_y
 _atom_site_fract_z
 _atom_site_occupancy
  Ba  Ba0  1  0.66666700  0.33333300  0.25000000  1
  Ba  Ba1  1  0.33333300  0.66666700  0.75000000  1
  Na  Na0  1  0.00000000  0.00000000  0.00000000  1
  Na  Na1  1  0.00000000  0.00000000  0.50000000  1
  H  H0  1  0.16805600  0.33611300  0.25000000  1
  H  H1  1  0.16805600  0.83194400  0.25000000  1
  H  H2  1  0.66388700  0.83194400  0.25000000  1
  H  H3  1  0.33611300  0.16805600  0.75000000  1
  H  H4  1  0.83194400  0.16805600  0.75000000  1
  H  H5  1  0.83194400  0.66388700  0.75000000  1
  Pd  Pd0  1  0.33333300  0.66666700  0.25000000  1
  Pd  Pd1  1  0.66666700  0.33333300  0.75000000  1
loop_
_geom_bond_atom_site_label_1
_geom_bond_atom_site_label_2
_geom_bond_distance
_geom_bond_site_symmetry_2
Ba0 H0 3.044861 1_655
Ba0 H2 3.044861 1_545
Ba0 H1 3.044867 1_545
Ba0 H1 3.044867 1_655
Ba0 H2 3.044874 1_555
Ba0 H0 3.044874 1_555
Ba0 Pd1 3.104872 1_554
Ba0 Pd1 3.104872 1_555
Ba1 H5 3.044861 1_455
Ba1 H3 3.044861 1_565
Ba1 H4 3.044867 1_565
Ba1 H4 3.044867 1_455
Ba1 H3 3.044874 1_555
Ba1 H5 3.044874 1_555
Ba1 Pd0 3.104872 1_555
Ba1 Pd0 3.104872 1_556
H0 Pd0 1.743277 1_555
H0 Na0 2.356300 1_555
H0 Na1 2.356300 1_555
H1 Pd0 1.743277 1_555
H1 Na0 2.356296 1_565
H1 Na1 2.356296 1_565
H2 Pd0 1.743277 1_555
H2 Na0 2.356300 1_665
H2 Na1 2.356300 1_665
H3 Pd1 1.743277 1_555
H3 Na0 2.356300 1_556
H3 Na1 2.356300 1_555
H4 Pd1 1.743277 1_555
H4 Na1 2.356296 1_655
H4 Na0 2.356296 1_656
H5 Pd1 1.743277 1_555
H5 Na0 2.356300 1_666
H5 Na1 2.356300 1_665
