# generated using pymatgen
data_Li3Fe8(BO3)8
_symmetry_space_group_name_H-M   'P 1'
_cell_length_a   5.24555500
_cell_length_b   9.15339330
_cell_length_c   10.02392923
_cell_angle_alpha   88.60752755
_cell_angle_beta   89.31971186
_cell_angle_gamma   88.74397830
_symmetry_Int_Tables_number   1
_chemical_formula_structural   Li3Fe8(BO3)8
_chemical_formula_sum   'Li3 Fe8 B8 O24'
_cell_volume   481.00652926
_cell_formula_units_Z   1
loop_
 _symmetry_equiv_pos_site_id
 _symmetry_equiv_pos_as_xyz
  1  'x, y, z'
loop_
 _atom_site_type_symbol
 _atom_site_label
 _atom_site_symmetry_multiplicity
 _atom_site_fract_x
 _atom_site_fract_y
 _atom_site_fract_z
 _atom_site_occupancy
  Li  Li0  1  0.32675300  0.32694300  0.41447000  1
  Li  Li1  1  0.33044500  0.32397500  0.91104800  1
  Li  Li2  1  0.82761000  0.82790000  0.40622300  1
  Fe  Fe0  1  0.16338400  0.83315300  0.63208500  1
  Fe  Fe1  1  0.16513800  0.50385500  0.13001000  1
  Fe  Fe2  1  0.32574300  0.98835800  0.87769100  1
  Fe  Fe3  1  0.35154100  0.66015500  0.37711600  1
  Fe  Fe4  1  0.67750500  0.33711800  0.63080400  1
  Fe  Fe5  1  0.66456400  0.00111300  0.12846800  1
  Fe  Fe6  1  0.84629000  0.15890600  0.37449400  1
  Fe  Fe7  1  0.81673600  0.51989900  0.87650600  1
  B  B0  1  0.16537300  0.50095900  0.62614500  1
  B  B1  1  0.16714100  0.82952800  0.12800400  1
  B  B2  1  0.33831500  0.99945300  0.37983400  1
  B  B3  1  0.32602900  0.67134300  0.87688400  1
  B  B4  1  0.66040700  0.99952100  0.62790000  1
  B  B5  1  0.66913900  0.33111100  0.12374400  1
  B  B6  1  0.84250100  0.49793400  0.37860000  1
  B  B7  1  0.82616800  0.16850800  0.87798500  1
  O  O0  1  0.10082800  0.48165900  0.33667200  1
  O  O1  1  0.08827600  0.15554700  0.87657800  1
  O  O2  1  0.17278700  0.79682000  0.83593000  1
  O  O3  1  0.21616500  0.87233800  0.42678100  1
  O  O4  1  0.22009100  0.13262300  0.37961600  1
  O  O5  1  0.19804100  0.54448800  0.92134300  1
  O  O6  1  0.32128600  0.37838000  0.61934000  1
  O  O7  1  0.32542700  0.93901800  0.07438400  1
  O  O8  1  0.25736400  0.63659900  0.58763300  1
  O  O9  1  0.27887900  0.69746000  0.16804300  1
  O  O10  1  0.40867100  0.34788400  0.11241900  1
  O  O11  1  0.41049100  0.98641100  0.67922300  1
  O  O12  1  0.59209400  0.98313700  0.33349100  1
  O  O13  1  0.57810200  0.68142700  0.87141000  1
  O  O14  1  0.69506500  0.29633200  0.83546500  1
  O  O15  1  0.71429700  0.37073000  0.42185500  1
  O  O16  1  0.72508600  0.63106600  0.37858400  1
  O  O17  1  0.67395200  0.05328600  0.92484600  1
  O  O18  1  0.82746200  0.44477800  0.08735500  1
  O  O19  1  0.81100700  0.87773800  0.61030200  1
  O  O20  1  0.74607800  0.13552100  0.58769300  1
  O  O21  1  0.77281400  0.19715300  0.16605300  1
  O  O22  1  0.91409300  0.85440000  0.14230300  1
  O  O23  1  0.91326200  0.48913100  0.66529200  1
loop_
_geom_bond_atom_site_label_1
_geom_bond_atom_site_label_2
_geom_bond_distance
_geom_bond_site_symmetry_2
Li0 O4 1.917630 1_555
Li0 O0 1.978097 1_555
Li0 O15 2.083140 1_555
Li0 O6 2.117730 1_555
Li1 O1 2.057194 1_555
Li1 O14 2.061529 1_555
Li1 O10 2.082260 1_556
Li1 O5 2.124641 1_555
Li2 O16 1.918952 1_555
Li2 O12 1.992721 1_555
Li2 O3 2.100599 1_655
Li2 O19 2.107096 1_555
Fe0 O19 1.898167 1_455
Fe0 O8 1.916592 1_555
Fe0 O11 1.999461 1_555
Fe0 O2 2.063219 1_555
Fe0 O3 2.096526 1_555
Fe1 O10 1.904775 1_555
Fe1 O18 1.919360 1_455
Fe1 O9 1.930388 1_555
Fe1 O0 2.100575 1_555
Fe1 O5 2.121228 1_554
Fe2 O1 1.951832 1_565
Fe2 O17 1.998664 1_565
Fe2 O2 1.999521 1_555
Fe2 O7 2.011964 1_556
Fe2 O11 2.033752 1_555
Fe3 O16 1.971847 1_555
Fe3 O3 2.121879 1_555
Fe3 O9 2.152314 1_555
Fe3 O8 2.168252 1_555
Fe3 O0 2.168506 1_555
Fe4 O6 1.902483 1_555
Fe4 O23 1.921962 1_555
Fe4 O20 1.930601 1_555
Fe4 O14 2.079014 1_555
Fe4 O15 2.116714 1_555
Fe5 O22 1.858531 1_545
Fe5 O21 1.940867 1_555
Fe5 O7 1.965674 1_545
Fe5 O17 2.085142 1_554
Fe5 O12 2.088761 1_545
Fe6 O4 1.971379 1_655
Fe6 O15 2.107655 1_555
Fe6 O21 2.148104 1_555
Fe6 O12 2.162080 1_545
Fe6 O20 2.201211 1_555
Fe7 O13 1.916322 1_555
Fe7 O5 2.073471 1_655
Fe7 O23 2.194418 1_555
Fe7 O14 2.206520 1_555
Fe7 O18 2.207601 1_556
B0 O6 1.376449 1_555
B0 O23 1.380761 1_455
B0 O8 1.386330 1_555
B1 O22 1.348379 1_455
B1 O9 1.384535 1_555
B1 O7 1.407978 1_555
B2 O4 1.355438 1_565
B2 O3 1.408806 1_555
B2 O12 1.410743 1_555
B3 O13 1.327890 1_555
B3 O5 1.414051 1_555
B3 O2 1.441622 1_555
B4 O19 1.365813 1_555
B4 O20 1.381994 1_565
B4 O11 1.409090 1_555
B5 O10 1.377270 1_555
B5 O18 1.384747 1_555
B5 O21 1.389273 1_555
B6 O16 1.353307 1_555
B6 O15 1.413799 1_555
B6 O0 1.419757 1_655
B7 O1 1.377352 1_655
B7 O14 1.403925 1_555
B7 O17 1.405151 1_555
