# generated using pymatgen
data_Ti2N2O
_symmetry_space_group_name_H-M   'P 1'
_cell_length_a   8.21402500
_cell_length_b   8.22768947
_cell_length_c   8.23181676
_cell_angle_alpha   109.55984444
_cell_angle_beta   109.42252621
_cell_angle_gamma   109.34800533
_symmetry_Int_Tables_number   1
_chemical_formula_structural   Ti2N2O
_chemical_formula_sum   'Ti16 N16 O8'
_cell_volume   428.69869567
_cell_formula_units_Z   8
loop_
 _symmetry_equiv_pos_site_id
 _symmetry_equiv_pos_as_xyz
  1  'x, y, z'
loop_
 _atom_site_type_symbol
 _atom_site_label
 _atom_site_symmetry_multiplicity
 _atom_site_fract_x
 _atom_site_fract_y
 _atom_site_fract_z
 _atom_site_occupancy
  Ti  Ti0  1  0.46930900  0.47258700  0.51858100  1
  Ti  Ti1  1  0.47634400  0.68192700  0.28700600  1
  Ti  Ti2  1  0.70503100  0.45522500  0.25083600  1
  Ti  Ti3  1  0.79043000  0.03056700  0.75655300  1
  Ti  Ti4  1  0.18134300  0.23466000  0.03294900  1
  Ti  Ti5  1  0.16650200  0.71705300  0.53547500  1
  Ti  Ti6  1  0.02838400  0.01763800  0.48641500  1
  Ti  Ti7  1  0.47998300  0.98452300  0.00889000  1
  Ti  Ti8  1  0.05838200  0.35056300  0.20432300  1
  Ti  Ti9  1  0.00949300  0.51376800  0.98873300  1
  Ti  Ti10  1  0.94447200  0.65676000  0.79892100  1
  Ti  Ti11  1  0.81695500  0.27204400  0.46469100  1
  Ti  Ti12  1  0.83131400  0.78221000  0.96372000  1
  Ti  Ti13  1  0.29859900  0.54686600  0.74662700  1
  Ti  Ti14  1  0.20590100  0.95792300  0.24812400  1
  Ti  Ti15  1  0.53611100  0.32842400  0.70349600  1
  N  N0  1  0.90693200  0.17925200  0.04292100  1
  N  N1  1  0.28320400  0.55947200  0.49003100  1
  N  N2  1  0.53016400  0.75889100  0.00943900  1
  N  N3  1  0.33027300  0.58980900  0.94919000  1
  N  N4  1  0.19520400  0.96789600  0.53943800  1
  N  N5  1  0.80559300  0.02935800  0.45893100  1
  N  N6  1  0.03942000  0.99817800  0.72503200  1
  N  N7  1  0.99366900  0.54500000  0.23215800  1
  N  N8  1  0.66940600  0.40135400  0.05428700  1
  N  N9  1  0.26375200  0.31472500  0.73024300  1
  N  N10  1  0.46369200  0.23779700  0.99344200  1
  N  N11  1  0.31601400  0.82532100  0.72463500  1
  N  N12  1  0.49948900  0.50997500  0.22613700  1
  N  N13  1  0.71769200  0.44341300  0.50844800  1
  N  N14  1  0.05971700  0.82307600  0.45135400  1
  N  N15  1  0.09785000  0.81862000  0.95688000  1
  O  O0  1  0.94082000  0.18027500  0.54761700  1
  O  O1  1  0.49976900  0.49602300  0.77532300  1
  O  O2  1  0.68218000  0.17516500  0.27589400  1
  O  O3  1  0.73882100  0.68733300  0.26888600  1
  O  O4  1  0.00484900  0.45424800  0.76984600  1
  O  O5  1  0.96066700  0.99971900  0.27274400  1
  O  O6  1  0.67834600  0.22137300  0.77662600  1
  O  O7  1  0.32392200  0.78098300  0.22515800  1
loop_
_geom_bond_atom_site_label_1
_geom_bond_atom_site_label_2
_geom_bond_distance
_geom_bond_site_symmetry_2
N0 Ti8 1.335851 1_655
N0 Ti3 1.939685 1_554
N0 Ti4 2.182294 1_655
N1 Ti5 1.864693 1_555
N1 Ti0 1.871029 1_555
N1 Ti8 2.048787 1_555
N1 Ti13 2.113314 1_555
N2 N3 1.536260 1_554
N2 Ti13 1.969543 1_554
N2 Ti7 2.031664 1_555
N2 Ti12 2.578844 1_554
N3 Ti13 1.492996 1_555
N4 Ti6 1.526126 1_565
N4 Ti5 1.985838 1_555
N4 Ti14 2.403793 1_555
N4 Ti15 2.786183 1_565
N5 O0 1.117317 1_555
N5 Ti6 1.807098 1_655
N5 Ti11 1.951444 1_555
N5 Ti3 2.491065 1_555
N6 Ti6 1.998478 1_565
N6 Ti4 2.190700 1_566
N6 Ti3 2.233607 1_465
N7 Ti8 1.814753 1_655
N7 Ti9 1.987167 1_654
N7 Ti5 2.048874 1_655
N7 Ti2 2.312661 1_555
N8 Ti2 1.420869 1_555
N9 Ti13 1.785427 1_555
N9 O1 1.831908 1_555
N9 Ti6 2.178083 1_555
N9 Ti15 2.289806 1_555
N10 N8 1.547941 1_556
N10 Ti2 1.984482 1_556
N10 Ti7 2.174267 1_546
N10 Ti4 2.439836 1_556
N11 Ti5 1.341989 1_555
N11 Ti7 1.920372 1_556
N11 Ti13 2.319458 1_555
N12 Ti1 1.433767 1_555
N12 O3 1.847473 1_555
N12 Ti2 1.852478 1_555
N12 Ti4 2.321848 1_555
N12 Ti0 2.606456 1_555
N13 Ti11 1.843791 1_555
N13 Ti10 2.080708 1_555
N13 Ti2 2.124921 1_555
N13 Ti0 2.156701 1_555
N14 N4 1.090970 1_555
N14 Ti5 1.586611 1_555
N14 Ti6 1.650795 1_565
N15 Ti10 1.300312 1_455
N15 Ti14 1.979930 1_556
N15 Ti12 2.131852 1_455
O0 Ti11 1.569547 1_555
O0 Ti6 1.728887 1_655
O1 Ti15 1.477981 1_555
O1 Ti13 1.796068 1_555
O1 Ti0 1.977360 1_555
O1 Ti12 2.421371 1_555
O2 Ti11 1.310665 1_555
O2 Ti7 1.894011 1_545
O2 Ti2 2.333400 1_555
O3 Ti2 1.782548 1_555
O3 Ti6 2.423886 1_665
O4 Ti9 1.684926 1_555
O4 Ti10 1.854437 1_455
O4 Ti11 2.075194 1_455
O4 Ti13 2.371724 1_555
O5 Ti6 1.595688 1_665
O5 Ti12 2.167240 1_554
O5 Ti14 2.213777 1_655
O6 Ti15 1.752791 1_555
O6 Ti3 2.055398 1_555
O6 Ti9 2.434701 1_655
O7 Ti1 1.738090 1_555
O7 Ti14 1.991896 1_555
O7 Ti9 2.306812 1_554
