# generated using pymatgen
data_PuPd3
_symmetry_space_group_name_H-M   'P 1'
_cell_length_a   5.07037727
_cell_length_b   5.07037727
_cell_length_c   5.07037727
_cell_angle_alpha   131.71339289
_cell_angle_beta   131.71339289
_cell_angle_gamma   70.68207006
_symmetry_Int_Tables_number   1
_chemical_formula_structural   PuPd3
_chemical_formula_sum   'Pu1 Pd3'
_cell_volume   71.15631189
_cell_formula_units_Z   1
loop_
 _symmetry_equiv_pos_site_id
 _symmetry_equiv_pos_as_xyz
  1  'x, y, z'
loop_
 _atom_site_type_symbol
 _atom_site_label
 _atom_site_symmetry_multiplicity
 _atom_site_fract_x
 _atom_site_fract_y
 _atom_site_fract_z
 _atom_site_occupancy
  Pu  Pu0  1  0.00000000  0.00000000  0.00000000  1
  Pd  Pd0  1  0.75000000  0.25000000  0.50000000  1
  Pd  Pd1  1  0.25000000  0.75000000  0.50000000  1
  Pd  Pd2  1  0.50000000  0.50000000  0.00000000  1
loop_
_geom_bond_atom_site_label_1
_geom_bond_atom_site_label_2
_geom_bond_distance
_geom_bond_site_symmetry_2
Pd0 Pu0 2.928769 1_655
Pd0 Pu0 2.928769 1_666
Pd0 Pu0 2.928769 1_555
Pd0 Pu0 2.928769 1_656
Pd1 Pu0 2.928769 1_666
Pd1 Pu0 2.928769 1_555
Pd1 Pu0 2.928769 1_566
Pd1 Pu0 2.928769 1_565
Pd2 Pu0 2.932919 1_655
Pd2 Pu0 2.932919 1_666
Pd2 Pu0 2.932919 1_554
Pd2 Pu0 2.932919 1_565
