# generated using pymatgen
data_KScO2
_symmetry_space_group_name_H-M   'P 1'
_cell_length_a   6.38467952
_cell_length_b   6.38467975
_cell_length_c   6.38468009
_cell_angle_alpha   29.22282407
_cell_angle_beta   29.22282304
_cell_angle_gamma   29.22282865
_symmetry_Int_Tables_number   1
_chemical_formula_structural   KScO2
_chemical_formula_sum   'K1 Sc1 O2'
_cell_volume   54.88562235
_cell_formula_units_Z   1
loop_
 _symmetry_equiv_pos_site_id
 _symmetry_equiv_pos_as_xyz
  1  'x, y, z'
loop_
 _atom_site_type_symbol
 _atom_site_label
 _atom_site_symmetry_multiplicity
 _atom_site_fract_x
 _atom_site_fract_y
 _atom_site_fract_z
 _atom_site_occupancy
  K  K0  1  -0.00000000  -0.00000000  -0.00000000  1
  Sc  Sc0  1  0.50000000  0.50000000  0.50000000  1
  O  O0  1  0.77382971  0.77382971  0.77382971  1
  O  O1  1  0.22617029  0.22617029  0.22617029  1
loop_
_geom_bond_atom_site_label_1
_geom_bond_atom_site_label_2
_geom_bond_distance
_geom_bond_site_symmetry_2
K0 O1 2.704528 1_455
K0 O0 2.704528 1_544
K0 O1 2.704528 1_545
K0 O0 2.704528 1_454
K0 O1 2.704528 1_554
K0 O0 2.704528 1_445
O0 Sc0 2.155816 1_655
O0 Sc0 2.155816 1_556
O0 Sc0 2.155816 1_565
O1 Sc0 2.155816 1_455
O1 Sc0 2.155816 1_554
O1 Sc0 2.155816 1_545
