# generated using pymatgen
data_Ti2MnRu
_symmetry_space_group_name_H-M   'P 1'
_cell_length_a   4.30400661
_cell_length_b   4.30400661
_cell_length_c   4.30400661
_cell_angle_alpha   60.00000000
_cell_angle_beta   60.00000000
_cell_angle_gamma   60.00000000
_symmetry_Int_Tables_number   1
_chemical_formula_structural   Ti2MnRu
_chemical_formula_sum   'Ti2 Mn1 Ru1'
_cell_volume   56.37723743
_cell_formula_units_Z   1
loop_
 _symmetry_equiv_pos_site_id
 _symmetry_equiv_pos_as_xyz
  1  'x, y, z'
loop_
 _atom_site_type_symbol
 _atom_site_label
 _atom_site_symmetry_multiplicity
 _atom_site_fract_x
 _atom_site_fract_y
 _atom_site_fract_z
 _atom_site_occupancy
  Ti  Ti0  1  -0.00000000  0.00000000  -0.00000000  1
  Ti  Ti1  1  0.50000100  0.50000100  0.50000100  1
  Mn  Mn0  1  0.25000000  0.25000000  0.25000000  1
  Ru  Ru0  1  0.74999900  0.74999900  0.74999900  1
loop_
_geom_bond_atom_site_label_1
_geom_bond_atom_site_label_2
_geom_bond_distance
_geom_bond_site_symmetry_2
Mn0 Ti1 2.635651 1_554
Mn0 Ti1 2.635651 1_455
Mn0 Ti1 2.635651 1_545
Mn0 Ti0 2.635655 1_655
Mn0 Ti0 2.635655 1_565
Mn0 Ti0 2.635655 1_556
Mn0 Ti0 2.635655 1_555
Mn0 Ti1 2.635666 1_555
Mn0 Ru0 3.043386 1_545
Mn0 Ru0 3.043386 1_554
Mn0 Ru0 3.043386 1_455
Mn0 Ru0 3.043398 1_544
Mn0 Ru0 3.043398 1_454
Mn0 Ru0 3.043398 1_445
Ru0 Ti1 2.635634 1_555
Ru0 Ti0 2.635651 1_665
Ru0 Ti0 2.635651 1_566
Ru0 Ti0 2.635651 1_656
Ru0 Ti1 2.635662 1_556
Ru0 Ti1 2.635662 1_565
Ru0 Ti1 2.635662 1_655
Ru0 Ti0 2.635666 1_666
