# generated using pymatgen
data_NaFe2H3(SO4)2
_symmetry_space_group_name_H-M   'P 1'
_cell_length_a   9.02765800
_cell_length_b   7.98847680
_cell_length_c   6.46511269
_cell_angle_alpha   112.31312106
_cell_angle_beta   110.28396474
_cell_angle_gamma   99.00922906
_symmetry_Int_Tables_number   1
_chemical_formula_structural   NaFe2H3(SO4)2
_chemical_formula_sum   'Na2 Fe4 H6 S4 O16'
_cell_volume   381.61790387
_cell_formula_units_Z   2
loop_
 _symmetry_equiv_pos_site_id
 _symmetry_equiv_pos_as_xyz
  1  'x, y, z'
loop_
 _atom_site_type_symbol
 _atom_site_label
 _atom_site_symmetry_multiplicity
 _atom_site_fract_x
 _atom_site_fract_y
 _atom_site_fract_z
 _atom_site_occupancy
  Na  Na0  1  0.82686400  0.43843300  0.09201400  1
  Na  Na1  1  0.17313600  0.56156700  0.90798600  1
  Fe  Fe0  1  0.00000000  0.00000000  0.50000000  1
  Fe  Fe1  1  0.00000000  0.50000000  0.50000000  1
  Fe  Fe2  1  0.82802300  0.81302700  0.80978100  1
  Fe  Fe3  1  0.17197700  0.18697300  0.19021900  1
  H  H0  1  0.71798500  0.60579300  0.49662600  1
  H  H1  1  0.28201500  0.39420700  0.50337400  1
  H  H2  1  0.44653300  0.70011400  0.72989200  1
  H  H3  1  0.55346700  0.29988600  0.27010800  1
  H  H4  1  0.44040600  0.44786300  0.72824800  1
  H  H5  1  0.55959400  0.55213700  0.27175200  1
  S  S0  1  0.69879400  0.93802000  0.15737400  1
  S  S1  1  0.30120600  0.06198000  0.84262600  1
  S  S2  1  0.24900400  0.75157600  0.29554000  1
  S  S3  1  0.75099600  0.24842400  0.70446000  1
  O  O0  1  0.74101600  0.82055900  0.27228800  1
  O  O1  1  0.25898400  0.17944100  0.72771200  1
  O  O2  1  0.24767300  0.78701200  0.72810800  1
  O  O3  1  0.75232700  0.21298800  0.27189200  1
  O  O4  1  0.85563800  0.96376200  0.07186200  1
  O  O5  1  0.14436200  0.03623800  0.92813800  1
  O  O6  1  0.07799300  0.72725700  0.37036200  1
  O  O7  1  0.92200700  0.27274300  0.62963800  1
  O  O8  1  0.83847600  0.51342900  0.85090700  1
  O  O9  1  0.16152400  0.48657100  0.14909300  1
  O  O10  1  0.75524100  0.09364600  0.79744600  1
  O  O11  1  0.24475900  0.90635400  0.20255400  1
  O  O12  1  0.85193200  0.70484700  0.57088400  1
  O  O13  1  0.14806800  0.29515300  0.42911600  1
  O  O14  1  0.51048000  0.59318400  0.70749100  1
  O  O15  1  0.48952000  0.40681600  0.29250900  1
loop_
_geom_bond_atom_site_label_1
_geom_bond_atom_site_label_2
_geom_bond_distance
_geom_bond_site_symmetry_2
Na0 O8 1.898018 1_554
Na0 S3 2.155845 1_554
Na0 O6 2.466153 1_655
Na0 O10 2.497327 1_554
Na0 O3 2.608072 1_555
Na0 O9 2.857807 1_655
Na1 O9 1.898018 1_556
Na1 S2 2.155845 1_556
Na1 O7 2.466153 1_455
Na1 O11 2.497327 1_556
Na1 O2 2.608072 1_555
Na1 O8 2.857807 1_455
Fe0 O1 2.156363 1_555
Fe0 O0 2.156363 1_445
Fe0 O6 2.334172 1_545
Fe0 O7 2.334172 1_455
Fe0 O5 2.493216 1_555
Fe0 O4 2.493216 1_445
Fe1 O13 2.283639 1_555
Fe1 O12 2.283639 1_455
Fe1 Na0 2.357527 1_455
Fe1 Na1 2.357527 1_555
Fe1 O6 2.378701 1_555
Fe1 O7 2.378701 1_455
Fe1 O2 2.443712 1_555
Fe1 O3 2.443712 1_455
Fe2 O4 1.564256 1_556
Fe2 O12 1.566820 1_555
Fe2 O10 2.454403 1_565
Fe2 O8 2.518765 1_555
Fe3 O5 1.564256 1_554
Fe3 O13 1.566820 1_555
Fe3 O11 2.454403 1_545
Fe3 O9 2.518765 1_555
H0 O12 1.152479 1_555
H1 O13 1.152479 1_555
H2 O14 1.096532 1_555
H3 O15 1.096532 1_555
H4 O14 1.308826 1_555
H5 O15 1.308826 1_555
O0 S0 1.422226 1_555
O1 S1 1.422226 1_555
O2 S1 1.947102 1_565
O3 S0 1.947102 1_545
O4 S0 1.700198 1_555
O5 S1 1.700198 1_555
O6 S2 1.774927 1_555
O7 S3 1.774927 1_555
O8 S3 1.854111 1_555
O9 S2 1.854111 1_555
O10 S3 1.566824 1_555
O11 S2 1.566824 1_555
