# generated using pymatgen
data_La17Al4(Si3N11)3
_symmetry_space_group_name_H-M   'P 1'
_cell_length_a   10.92502746
_cell_length_b   10.92502746
_cell_length_c   10.92502746
_cell_angle_alpha   60.00000000
_cell_angle_beta   60.00000000
_cell_angle_gamma   60.00000000
_symmetry_Int_Tables_number   1
_chemical_formula_structural   La17Al4(Si3N11)3
_chemical_formula_sum   'La17 Al4 Si9 N33'
_cell_volume   922.04605411
_cell_formula_units_Z   1
loop_
 _symmetry_equiv_pos_site_id
 _symmetry_equiv_pos_as_xyz
  1  'x, y, z'
loop_
 _atom_site_type_symbol
 _atom_site_label
 _atom_site_symmetry_multiplicity
 _atom_site_fract_x
 _atom_site_fract_y
 _atom_site_fract_z
 _atom_site_occupancy
  La  La0  1  0.50000000  0.50000000  0.50000000  1
  La  La1  1  0.04224300  0.04224300  0.45775700  1
  La  La2  1  0.45775700  0.45775700  0.04224300  1
  La  La3  1  0.45775700  0.04224300  0.45775700  1
  La  La4  1  0.45775700  0.04224300  0.04224300  1
  La  La5  1  0.04224300  0.45775700  0.45775700  1
  La  La6  1  0.04224300  0.45775700  0.04224300  1
  La  La7  1  0.74193600  0.25806400  0.74193600  1
  La  La8  1  0.25806400  0.74193600  0.25806400  1
  La  La9  1  0.74193600  0.25806400  0.25806400  1
  La  La10  1  0.25806400  0.25806400  0.74193600  1
  La  La11  1  0.25806400  0.74193600  0.74193600  1
  La  La12  1  0.74193600  0.74193600  0.25806400  1
  La  La13  1  0.01169700  0.66276800  0.66276800  1
  La  La14  1  0.66276800  0.66276800  0.01169700  1
  La  La15  1  0.66276800  0.66276800  0.66276800  1
  La  La16  1  0.66276800  0.01169700  0.66276800  1
  Al  Al0  1  0.78708400  0.07097200  0.07097200  1
  Al  Al1  1  0.07097200  0.07097200  0.78708400  1
  Al  Al2  1  0.07097200  0.07097200  0.07097200  1
  Al  Al3  1  0.07097200  0.78708400  0.07097200  1
  Si  Si0  1  0.85039300  0.38320200  0.38320200  1
  Si  Si1  1  0.38320200  0.38320200  0.85039300  1
  Si  Si2  1  0.38320200  0.38320200  0.38320200  1
  Si  Si3  1  0.38320200  0.85039300  0.38320200  1
  Si  Si4  1  0.88454800  0.88454800  0.88454800  1
  Si  Si5  1  0.88454800  0.34635700  0.88454800  1
  Si  Si6  1  0.34635700  0.88454800  0.88454800  1
  Si  Si7  1  0.88454800  0.88454800  0.34635700  1
  Si  Si8  1  0.25000000  0.25000000  0.25000000  1
  N  N0  1  0.05402900  0.31532400  0.31532400  1
  N  N1  1  0.31532400  0.31532400  0.05402900  1
  N  N2  1  0.31532400  0.31532400  0.31532400  1
  N  N3  1  0.31532400  0.05402900  0.31532400  1
  N  N4  1  0.00000000  0.00000000  0.00000000  1
  N  N5  1  0.78531300  0.23134300  0.49167200  1
  N  N6  1  0.49167200  0.49167200  0.78531300  1
  N  N7  1  0.49167200  0.49167200  0.23134300  1
  N  N8  1  0.23134300  0.78531300  0.49167200  1
  N  N9  1  0.49167200  0.23134300  0.49167200  1
  N  N10  1  0.49167200  0.23134300  0.78531300  1
  N  N11  1  0.49167200  0.78531300  0.49167200  1
  N  N12  1  0.23134300  0.49167200  0.49167200  1
  N  N13  1  0.78531300  0.49167200  0.23134300  1
  N  N14  1  0.78531300  0.49167200  0.49167200  1
  N  N15  1  0.23134300  0.49167200  0.78531300  1
  N  N16  1  0.49167200  0.78531300  0.23134300  1
  N  N17  1  0.99498400  0.99498400  0.28299900  1
  N  N18  1  0.28299900  0.72703300  0.99498400  1
  N  N19  1  0.72703300  0.28299900  0.99498400  1
  N  N20  1  0.99498400  0.99498400  0.72703300  1
  N  N21  1  0.28299900  0.99498400  0.72703300  1
  N  N22  1  0.72703300  0.99498400  0.99498400  1
  N  N23  1  0.72703300  0.99498400  0.28299900  1
  N  N24  1  0.99498400  0.72703300  0.28299900  1
  N  N25  1  0.99498400  0.72703300  0.99498400  1
  N  N26  1  0.99498400  0.28299900  0.72703300  1
  N  N27  1  0.99498400  0.28299900  0.99498400  1
  N  N28  1  0.28299900  0.99498400  0.99498400  1
  N  N29  1  0.81973200  0.81973200  0.81973200  1
  N  N30  1  0.81973200  0.54080500  0.81973200  1
  N  N31  1  0.54080500  0.81973200  0.81973200  1
  N  N32  1  0.81973200  0.81973200  0.54080500  1
loop_
_geom_bond_atom_site_label_1
_geom_bond_atom_site_label_2
_geom_bond_distance
_geom_bond_site_symmetry_2
La0 N11 3.028803 1_555
La0 N14 3.028803 1_555
La0 N6 3.028803 1_555
La0 N16 3.028803 1_555
La0 N5 3.028803 1_555
La0 N8 3.028803 1_555
La0 N10 3.028803 1_555
La0 N15 3.028803 1_555
La0 N13 3.028803 1_555
La0 N12 3.028803 1_555
La0 N9 3.028803 1_555
La0 N7 3.028803 1_555
La1 N5 2.492155 1_455
La1 N8 2.492155 1_545
La1 N17 2.533061 1_445
La1 N20 2.533061 1_445
La1 N0 2.622994 1_555
La1 N3 2.622994 1_555
La2 N6 2.492155 1_554
La2 N7 2.492155 1_555
La2 N18 2.533061 1_554
La2 N19 2.533061 1_554
La2 N1 2.622984 1_555
La2 N2 2.622990 1_555
La3 N11 2.492155 1_545
La3 N9 2.492155 1_555
La3 N23 2.533061 1_545
La3 N21 2.533061 1_545
La3 N3 2.622984 1_555
La3 N2 2.622990 1_555
La4 N16 2.492155 1_545
La4 N10 2.492155 1_554
La4 N28 2.533061 1_544
La4 N22 2.533061 1_544
La4 N3 2.622994 1_555
La4 N1 2.622994 1_555
La5 N14 2.492155 1_455
La5 N12 2.492155 1_555
La5 N26 2.533061 1_455
La5 N24 2.533061 1_455
La5 N0 2.622984 1_555
La5 N2 2.622990 1_555
La6 N15 2.492155 1_554
La6 N13 2.492155 1_455
La6 N27 2.533061 1_454
La6 N25 2.533061 1_454
La6 N0 2.622994 1_555
La6 N1 2.622994 1_555
La7 N10 2.673847 1_555
La7 N5 2.673847 1_555
La7 N6 2.673847 1_555
La7 N14 2.673847 1_555
La7 N20 2.828804 1_545
La7 N22 2.828804 1_545
La7 N26 2.828804 1_555
La7 N19 2.828804 1_555
La8 N12 2.673847 1_555
La8 N7 2.673847 1_555
La8 N8 2.673847 1_555
La8 N16 2.673847 1_555
La8 N24 2.828804 1_455
La8 N18 2.828804 1_554
La8 N17 2.828804 1_455
La8 N28 2.828804 1_554
La9 N9 2.673847 1_555
La9 N7 2.673847 1_555
La9 N13 2.673847 1_555
La9 N5 2.673847 1_555
La9 N23 2.828804 1_545
La9 N19 2.828804 1_554
La9 N27 2.828804 1_554
La9 N17 2.828804 1_545
La10 N12 2.673847 1_555
La10 N9 2.673847 1_555
La10 N10 2.673847 1_555
La10 N15 2.673847 1_555
La10 N21 2.828804 1_545
La10 N26 2.828804 1_455
La10 N28 2.828804 1_545
La10 N27 2.828804 1_455
La11 N8 2.673847 1_555
La11 N15 2.673847 1_555
La11 N6 2.673847 1_555
La11 N11 2.673847 1_555
La11 N25 2.828804 1_455
La11 N20 2.828804 1_455
La11 N18 2.828804 1_555
La11 N21 2.828804 1_555
La12 N13 2.673847 1_555
La12 N16 2.673847 1_555
La12 N11 2.673847 1_555
La12 N14 2.673847 1_555
La12 N22 2.828804 1_554
La12 N25 2.828804 1_554
La12 N24 2.828804 1_555
La12 N23 2.828804 1_555
La13 N30 2.455106 1_455
La13 N32 2.455106 1_455
La13 N29 2.455106 1_455
La13 N8 2.696170 1_555
La13 N15 2.696170 1_555
La13 N12 2.696176 1_555
La14 N31 2.455106 1_554
La14 N30 2.455106 1_554
La14 N29 2.455106 1_554
La14 N13 2.696170 1_555
La14 N16 2.696170 1_555
La14 N7 2.696176 1_555
La15 N30 2.455106 1_555
La15 N31 2.455106 1_555
La15 N32 2.455106 1_555
La15 N6 2.696178 1_555
La15 N11 2.696178 1_555
La15 N14 2.696178 1_555
La16 N31 2.455106 1_545
La16 N32 2.455106 1_545
La16 N29 2.455106 1_545
La16 N5 2.696170 1_555
La16 N10 2.696170 1_555
La16 N9 2.696176 1_555
Al0 N23 1.894003 1_545
Al0 N19 1.894003 1_554
Al0 N22 1.894003 1_544
Al0 N4 1.899263 1_655
Al1 N26 1.894003 1_455
Al1 N21 1.894003 1_545
Al1 N20 1.894003 1_445
Al1 N4 1.899263 1_556
Al2 N17 1.894003 1_445
Al2 N27 1.894003 1_454
Al2 N28 1.894003 1_544
Al2 N4 1.899263 1_555
Al3 N24 1.894003 1_455
Al3 N18 1.894003 1_554
Al3 N25 1.894003 1_454
Al3 N4 1.899263 1_565
N0 Si8 1.748110 1_555
N0 Si0 1.816484 1_455
N1 Si8 1.748110 1_555
N1 Si1 1.816484 1_554
N2 Si8 1.748119 1_555
N2 Si2 1.816466 1_555
N3 Si8 1.748110 1_555
N3 Si3 1.816484 1_545
N5 Si0 1.741640 1_555
N6 Si1 1.741649 1_555
N7 Si2 1.741646 1_555
N8 Si3 1.741640 1_555
N9 Si2 1.741646 1_555
N10 Si1 1.741640 1_555
N11 Si3 1.741649 1_555
N12 Si2 1.741646 1_555
N13 Si0 1.741640 1_555
N14 Si0 1.741649 1_555
N15 Si1 1.741640 1_555
N16 Si3 1.741640 1_555
N17 Si7 1.782105 1_555
N18 Si6 1.782114 1_555
N19 Si5 1.782114 1_555
N20 Si4 1.782108 1_555
N21 Si6 1.782114 1_555
N22 Si4 1.782108 1_555
N23 Si7 1.782114 1_555
N24 Si7 1.782114 1_555
N25 Si4 1.782108 1_555
N26 Si5 1.782114 1_555
N27 Si5 1.782105 1_555
N28 Si6 1.782105 1_555
N29 Si4 1.734524 1_555
N30 Si5 1.734524 1_555
N31 Si6 1.734524 1_555
N32 Si7 1.734524 1_555
