# generated using pymatgen
data_Tc3Ni
_symmetry_space_group_name_H-M   'P 1'
_cell_length_a   5.32623269
_cell_length_b   5.32623303
_cell_length_c   4.29892048
_cell_angle_alpha   90.00000000
_cell_angle_beta   90.00000000
_cell_angle_gamma   119.99999783
_symmetry_Int_Tables_number   1
_chemical_formula_structural   Tc3Ni
_chemical_formula_sum   'Tc6 Ni2'
_cell_volume   105.61615484
_cell_formula_units_Z   2
loop_
 _symmetry_equiv_pos_site_id
 _symmetry_equiv_pos_as_xyz
  1  'x, y, z'
loop_
 _atom_site_type_symbol
 _atom_site_label
 _atom_site_symmetry_multiplicity
 _atom_site_fract_x
 _atom_site_fract_y
 _atom_site_fract_z
 _atom_site_occupancy
  Tc  Tc0  1  0.83407210  0.66814519  0.75000100  1
  Tc  Tc1  1  0.16592590  0.83407310  0.24999900  1
  Tc  Tc2  1  0.66814619  0.83407310  0.24999900  1
  Tc  Tc3  1  0.16592590  0.33185281  0.24999900  1
  Tc  Tc4  1  0.83407310  0.16592690  0.75000100  1
  Tc  Tc5  1  0.33185281  0.16592690  0.75000100  1
  Ni  Ni0  1  0.66666500  0.33333200  0.24999900  1
  Ni  Ni1  1  0.33333300  0.66666600  0.75000100  1
loop_
_geom_bond_atom_site_label_1
_geom_bond_atom_site_label_2
_geom_bond_distance
_geom_bond_site_symmetry_2
Tc0 Tc1 2.638800 1_656
Tc0 Tc2 2.638800 1_556
Tc0 Tc1 2.638814 1_655
Tc0 Tc2 2.638814 1_555
Tc0 Tc4 2.651299 1_565
Tc0 Tc5 2.651299 1_665
Tc0 Tc4 2.674934 1_555
Tc0 Tc5 2.674934 1_555
Tc1 Tc5 2.638800 1_564
Tc1 Tc5 2.638814 1_565
Tc1 Tc2 2.651291 1_455
Tc1 Tc3 2.651291 1_565
Tc1 Tc2 2.674942 1_555
Tc1 Tc3 2.674942 1_555
Tc2 Tc4 2.638800 1_564
Tc2 Tc4 2.638814 1_565
Tc2 Tc3 2.651291 1_665
Tc2 Tc3 2.674942 1_555
Tc3 Tc4 2.638797 1_454
Tc3 Tc5 2.638797 1_554
Tc3 Tc4 2.638811 1_455
Tc3 Tc5 2.638811 1_555
Tc4 Tc5 2.651291 1_655
Tc4 Tc5 2.674942 1_555
Ni0 Tc5 2.646739 1_554
Ni0 Tc4 2.646742 1_554
Ni0 Tc0 2.646742 1_554
Ni0 Tc5 2.646753 1_555
Ni0 Tc4 2.646756 1_555
Ni0 Tc0 2.646756 1_555
Ni0 Tc1 2.663120 1_545
Ni0 Tc3 2.663122 1_555
Ni0 Tc2 2.663123 1_545
Ni0 Tc3 2.663128 1_655
Ni0 Tc2 2.663128 1_555
Ni0 Tc1 2.663131 1_655
Ni1 Tc2 2.646742 1_556
Ni1 Tc3 2.646742 1_556
Ni1 Tc1 2.646745 1_556
Ni1 Tc2 2.646756 1_555
Ni1 Tc3 2.646756 1_555
Ni1 Tc1 2.646759 1_555
Ni1 Tc5 2.663120 1_555
Ni1 Tc0 2.663122 1_555
Ni1 Tc4 2.663123 1_455
Ni1 Tc0 2.663128 1_455
Ni1 Tc4 2.663128 1_565
Ni1 Tc5 2.663131 1_565
