# generated using pymatgen
data_CaLaZn2
_symmetry_space_group_name_H-M   'P 1'
_cell_length_a   5.24803793
_cell_length_b   5.24803793
_cell_length_c   5.24803793
_cell_angle_alpha   59.99839616
_cell_angle_beta   59.99839616
_cell_angle_gamma   59.99839616
_symmetry_Int_Tables_number   1
_chemical_formula_structural   CaLaZn2
_chemical_formula_sum   'Ca1 La1 Zn2'
_cell_volume   102.20216740
_cell_formula_units_Z   1
loop_
 _symmetry_equiv_pos_site_id
 _symmetry_equiv_pos_as_xyz
  1  'x, y, z'
loop_
 _atom_site_type_symbol
 _atom_site_label
 _atom_site_symmetry_multiplicity
 _atom_site_fract_x
 _atom_site_fract_y
 _atom_site_fract_z
 _atom_site_occupancy
  Ca  Ca0  1  0.25000100  0.25000100  0.25000100  1
  La  La0  1  0.75000000  0.75000000  0.75000000  1
  Zn  Zn0  1  0.50015681  0.50015681  0.50015681  1
  Zn  Zn1  1  0.99984319  0.99984319  0.99984319  1
loop_
_geom_bond_atom_site_label_1
_geom_bond_atom_site_label_2
_geom_bond_distance
_geom_bond_site_symmetry_2
Ca0 Zn1 3.213013 1_454
Ca0 Zn1 3.213013 1_544
Ca0 Zn1 3.213013 1_445
Ca0 Zn0 3.213022 1_554
Ca0 Zn0 3.213022 1_545
Ca0 Zn0 3.213022 1_455
Ca0 Zn0 3.215796 1_555
Ca0 Zn1 3.215821 1_444
La0 Zn0 3.211777 1_555
La0 Zn1 3.211777 1_555
La0 Zn1 3.214361 1_554
La0 Zn0 3.214361 1_556
La0 Zn1 3.214361 1_545
La0 Zn0 3.214361 1_565
La0 Zn1 3.214361 1_455
La0 Zn0 3.214361 1_655
