# generated using pymatgen
data_CsNd2CuSe4
_symmetry_space_group_name_H-M   'P 1'
_cell_length_a   7.78658566
_cell_length_b   7.78658566
_cell_length_c   14.77148800
_cell_angle_alpha   90.00000000
_cell_angle_beta   90.00000000
_cell_angle_gamma   148.17100054
_symmetry_Int_Tables_number   1
_chemical_formula_structural   CsNd2CuSe4
_chemical_formula_sum   'Cs2 Nd4 Cu2 Se8'
_cell_volume   472.33147027
_cell_formula_units_Z   2
loop_
 _symmetry_equiv_pos_site_id
 _symmetry_equiv_pos_as_xyz
  1  'x, y, z'
loop_
 _atom_site_type_symbol
 _atom_site_label
 _atom_site_symmetry_multiplicity
 _atom_site_fract_x
 _atom_site_fract_y
 _atom_site_fract_z
 _atom_site_occupancy
  Cs  Cs0  1  0.89387200  0.10612800  0.25000000  1
  Cs  Cs1  1  0.10612800  0.89387200  0.75000000  1
  Nd  Nd0  1  0.63447500  0.36552500  0.06163400  1
  Nd  Nd1  1  0.36552500  0.63447500  0.56163400  1
  Nd  Nd2  1  0.36552500  0.63447500  0.93836600  1
  Nd  Nd3  1  0.63447500  0.36552500  0.43836600  1
  Cu  Cu0  1  0.16437100  0.83562900  0.25000000  1
  Cu  Cu1  1  0.83562900  0.16437100  0.75000000  1
  Se  Se0  1  0.74034800  0.25965200  0.61103700  1
  Se  Se1  1  0.25965200  0.74034800  0.11103700  1
  Se  Se2  1  0.25965200  0.74034800  0.38896300  1
  Se  Se3  1  0.74034800  0.25965200  0.88896300  1
  Se  Se4  1  0.00000000  0.00000000  0.00000000  1
  Se  Se5  1  0.00000000  0.00000000  0.50000000  1
  Se  Se6  1  0.57721300  0.42278700  0.25000000  1
  Se  Se7  1  0.42278700  0.57721300  0.75000000  1
loop_
_geom_bond_atom_site_label_1
_geom_bond_atom_site_label_2
_geom_bond_distance
_geom_bond_site_symmetry_2
Cs0 Se6 3.478203 1_655
Cs0 Se6 3.478203 1_545
Cs0 Se1 3.579493 1_655
Cs0 Se1 3.579493 1_545
Cs0 Se2 3.579493 1_545
Cs0 Se2 3.579493 1_655
Cs0 Se4 4.020386 1_655
Cs0 Se5 4.020386 1_655
Cs1 Se7 3.478203 1_565
Cs1 Se7 3.478203 1_455
Cs1 Se3 3.579493 1_565
Cs1 Se3 3.579493 1_455
Cs1 Se0 3.579493 1_565
Cs1 Se0 3.579493 1_455
Cs1 Se4 4.020386 1_566
Cs1 Se5 4.020386 1_565
Nd0 Se6 2.911604 1_555
Nd0 Se1 2.933539 1_655
Nd0 Se1 2.933539 1_545
Nd0 Se3 3.003277 1_554
Nd0 Se4 3.073023 1_665
Nd0 Se4 3.073023 1_555
Nd1 Se7 2.911604 1_555
Nd1 Se0 2.933539 1_565
Nd1 Se0 2.933539 1_455
Nd1 Se2 3.003277 1_555
Nd1 Se5 3.073023 1_555
Nd1 Se5 3.073023 1_665
Nd2 Se7 2.911604 1_555
Nd2 Se3 2.933539 1_565
Nd2 Se3 2.933539 1_455
Nd2 Se1 3.003277 1_556
Nd2 Se4 3.073023 1_556
Nd2 Se4 3.073023 1_666
Nd3 Se6 2.911604 1_555
Nd3 Se2 2.933539 1_545
Nd3 Se2 2.933539 1_655
Nd3 Se0 3.003277 1_555
Nd3 Se5 3.073023 1_665
Nd3 Se5 3.073023 1_555
Cu0 Se2 2.499948 1_555
Cu0 Se1 2.499948 1_555
Cu0 Se6 2.502494 1_565
Cu0 Se6 2.502494 1_455
Cu1 Se3 2.499948 1_555
Cu1 Se0 2.499948 1_555
Cu1 Se7 2.502494 1_655
Cu1 Se7 2.502494 1_545
