# generated using pymatgen
data_Tm2MgIr
_symmetry_space_group_name_H-M   'P 1'
_cell_length_a   4.95763171
_cell_length_b   4.95763171
_cell_length_c   4.95763171
_cell_angle_alpha   60.00000000
_cell_angle_beta   60.00000000
_cell_angle_gamma   60.00000000
_symmetry_Int_Tables_number   1
_chemical_formula_structural   Tm2MgIr
_chemical_formula_sum   'Tm2 Mg1 Ir1'
_cell_volume   86.16041554
_cell_formula_units_Z   1
loop_
 _symmetry_equiv_pos_site_id
 _symmetry_equiv_pos_as_xyz
  1  'x, y, z'
loop_
 _atom_site_type_symbol
 _atom_site_label
 _atom_site_symmetry_multiplicity
 _atom_site_fract_x
 _atom_site_fract_y
 _atom_site_fract_z
 _atom_site_occupancy
  Tm  Tm0  1  0.25000000  0.25000000  0.25000000  1
  Tm  Tm1  1  0.75000000  0.75000000  0.75000000  1
  Mg  Mg0  1  0.00000000  0.00000000  0.00000000  1
  Ir  Ir0  1  0.50000000  0.50000000  0.50000000  1
loop_
_geom_bond_atom_site_label_1
_geom_bond_atom_site_label_2
_geom_bond_distance
_geom_bond_site_symmetry_2
Mg0 Tm0 3.035917 1_545
Mg0 Tm1 3.035917 1_544
Mg0 Tm1 3.035917 1_444
Mg0 Tm1 3.035917 1_445
Mg0 Tm1 3.035917 1_454
Mg0 Tm0 3.035917 1_455
Mg0 Tm0 3.035917 1_555
Mg0 Tm0 3.035917 1_554
Ir0 Tm0 3.035917 1_556
Ir0 Tm1 3.035917 1_554
Ir0 Tm1 3.035917 1_455
Ir0 Tm1 3.035917 1_555
Ir0 Tm0 3.035917 1_565
Ir0 Tm1 3.035917 1_545
Ir0 Tm0 3.035917 1_555
Ir0 Tm0 3.035917 1_655
