# generated using pymatgen
data_Li2FeF4
_symmetry_space_group_name_H-M   'P 1'
_cell_length_a   7.49218800
_cell_length_b   8.78959000
_cell_length_c   17.86894667
_cell_angle_alpha   60.89034093
_cell_angle_beta   90.00000000
_cell_angle_gamma   90.00000000
_symmetry_Int_Tables_number   1
_chemical_formula_structural   Li2FeF4
_chemical_formula_sum   'Li24 Fe12 F48'
_cell_volume   1028.09610156
_cell_formula_units_Z   12
loop_
 _symmetry_equiv_pos_site_id
 _symmetry_equiv_pos_as_xyz
  1  'x, y, z'
loop_
 _atom_site_type_symbol
 _atom_site_label
 _atom_site_symmetry_multiplicity
 _atom_site_fract_x
 _atom_site_fract_y
 _atom_site_fract_z
 _atom_site_occupancy
  Li  Li0  1  0.65307800  0.15464900  0.91131900  1
  Li  Li1  1  0.23414600  0.14125400  0.91237400  1
  Li  Li2  1  0.83051800  0.82153500  0.25859900  1
  Li  Li3  1  0.24776100  0.80774800  0.26957700  1
  Li  Li4  1  0.66969700  0.52229100  0.57682100  1
  Li  Li5  1  0.25666300  0.54276900  0.57296500  1
  Li  Li6  1  0.75666300  0.45723100  0.92703500  1
  Li  Li7  1  0.16969700  0.47770900  0.92317900  1
  Li  Li8  1  0.74776100  0.19225200  0.23042300  1
  Li  Li9  1  0.33051800  0.17846500  0.24140100  1
  Li  Li10  1  0.73414600  0.85874600  0.58762600  1
  Li  Li11  1  0.15307800  0.84535100  0.58868100  1
  Li  Li12  1  0.84692200  0.15464900  0.41131900  1
  Li  Li13  1  0.26585400  0.14125400  0.41237400  1
  Li  Li14  1  0.66948200  0.82153500  0.75859900  1
  Li  Li15  1  0.25223900  0.80774800  0.76957700  1
  Li  Li16  1  0.83030300  0.52229100  0.07682100  1
  Li  Li17  1  0.24333700  0.54276900  0.07296500  1
  Li  Li18  1  0.74333700  0.45723100  0.42703500  1
  Li  Li19  1  0.33030300  0.47770900  0.42317900  1
  Li  Li20  1  0.75223900  0.19225200  0.73042300  1
  Li  Li21  1  0.16948200  0.17846500  0.74140100  1
  Li  Li22  1  0.76585400  0.85874600  0.08762600  1
  Li  Li23  1  0.34692200  0.84535100  0.08868100  1
  Fe  Fe0  1  0.95629400  0.82449600  0.41547300  1
  Fe  Fe1  1  0.95307900  0.55345000  0.73471800  1
  Fe  Fe2  1  0.05329100  0.16240800  0.08560700  1
  Fe  Fe3  1  0.45307900  0.44655000  0.76528200  1
  Fe  Fe4  1  0.55329100  0.83759200  0.41439300  1
  Fe  Fe5  1  0.45629400  0.17550400  0.08452700  1
  Fe  Fe6  1  0.54370600  0.82449600  0.91547300  1
  Fe  Fe7  1  0.44670900  0.16240800  0.58560700  1
  Fe  Fe8  1  0.54692100  0.55345000  0.23471800  1
  Fe  Fe9  1  0.94670900  0.83759200  0.91439300  1
  Fe  Fe10  1  0.04692100  0.44655000  0.26528200  1
  Fe  Fe11  1  0.04370600  0.17550400  0.58452700  1
  F  F0  1  0.55346500  0.93368000  0.12030900  1
  F  F1  1  0.92659400  0.92152300  0.14770500  1
  F  F2  1  0.76834600  0.62131200  0.46558100  1
  F  F3  1  0.03537100  0.73872900  0.33249800  1
  F  F4  1  0.40040000  0.71643200  0.36656800  1
  F  F5  1  0.69029800  0.32804600  0.79050700  1
  F  F6  1  0.23854000  0.06408700  0.03103300  1
  F  F7  1  0.29024700  0.39612600  0.69504000  1
  F  F8  1  0.46665700  0.67305700  0.53915900  1
  F  F9  1  0.58880900  0.27594500  0.96911700  1
  F  F10  1  0.77518200  0.61034100  0.64474200  1
  F  F11  1  0.25095800  0.04693600  0.18910200  1
  F  F12  1  0.27518200  0.38965900  0.85525800  1
  F  F13  1  0.75095800  0.95306400  0.31089800  1
  F  F14  1  0.08880900  0.72405500  0.53088300  1
  F  F15  1  0.96665700  0.32694300  0.96084100  1
  F  F16  1  0.79024700  0.60387400  0.80496000  1
  F  F17  1  0.19029800  0.67195400  0.70949300  1
  F  F18  1  0.73854000  0.93591300  0.46896700  1
  F  F19  1  0.90040000  0.28356800  0.13343200  1
  F  F20  1  0.53537100  0.26127100  0.16750200  1
  F  F21  1  0.26834600  0.37868800  0.03441900  1
  F  F22  1  0.42659400  0.07847700  0.35229500  1
  F  F23  1  0.05346500  0.06632000  0.37969100  1
  F  F24  1  0.94653500  0.93368000  0.62030900  1
  F  F25  1  0.57340600  0.92152300  0.64770500  1
  F  F26  1  0.73165400  0.62131200  0.96558100  1
  F  F27  1  0.46462900  0.73872900  0.83249800  1
  F  F28  1  0.09960000  0.71643200  0.86656800  1
  F  F29  1  0.26146000  0.06408700  0.53103300  1
  F  F30  1  0.80970200  0.32804600  0.29050700  1
  F  F31  1  0.20975300  0.39612600  0.19504000  1
  F  F32  1  0.03334300  0.67305700  0.03915900  1
  F  F33  1  0.91119100  0.27594500  0.46911700  1
  F  F34  1  0.24904200  0.04693600  0.68910200  1
  F  F35  1  0.72481800  0.61034100  0.14474200  1
  F  F36  1  0.74904200  0.95306400  0.81089800  1
  F  F37  1  0.22481800  0.38965900  0.35525800  1
  F  F38  1  0.41119100  0.72405500  0.03088300  1
  F  F39  1  0.53334300  0.32694300  0.46084100  1
  F  F40  1  0.70975300  0.60387400  0.30496000  1
  F  F41  1  0.76146000  0.93591300  0.96896700  1
  F  F42  1  0.30970200  0.67195400  0.20949300  1
  F  F43  1  0.59960000  0.28356800  0.63343200  1
  F  F44  1  0.96462900  0.26127100  0.66750200  1
  F  F45  1  0.23165400  0.37868800  0.53441900  1
  F  F46  1  0.07340600  0.07847700  0.85229500  1
  F  F47  1  0.44653500  0.06632000  0.87969100  1
loop_
_geom_bond_atom_site_label_1
_geom_bond_atom_site_label_2
_geom_bond_distance
_geom_bond_site_symmetry_2
F0 Li22 1.918653 1_555
F0 Li23 1.934866 1_555
F0 Fe5 2.033330 1_565
F1 Li22 1.866454 1_555
F1 Li2 1.876880 1_555
F1 Fe2 2.080703 1_665
F2 Li18 1.885730 1_555
F2 Li4 1.889875 1_555
F2 Fe0 2.101949 1_555
F2 Fe4 2.314033 1_555
F3 Li3 1.870999 1_555
F3 Li2 1.921962 1_455
F3 Fe0 2.050645 1_455
F4 Li3 1.897976 1_555
F4 Li19 1.907009 1_555
F4 Fe4 2.015452 1_555
F5 Li0 1.964618 1_555
F5 Fe3 1.997513 1_555
F5 Li20 2.009851 1_555
F6 Li23 1.868139 1_545
F6 Li1 1.886158 1_554
F6 Fe2 2.108106 1_555
F6 Fe5 2.333494 1_555
F7 Li21 1.903427 1_555
F7 Li5 1.935807 1_555
F7 Fe3 1.949720 1_555
F8 Li5 1.865097 1_555
F8 Li4 1.911902 1_555
F8 Fe4 2.084739 1_555
F9 Li0 1.872566 1_555
F9 Li6 1.876220 1_555
F9 Fe5 2.060725 1_556
F10 Li4 1.900122 1_555
F10 Li10 1.932660 1_555
F10 Fe1 1.956839 1_555
F11 Li3 1.883318 1_545
F11 Li9 1.901677 1_555
F11 Fe2 2.194811 1_555
F11 Fe5 2.254108 1_555
F12 Li7 1.900122 1_555
F12 Li1 1.932660 1_555
F12 Fe3 1.956839 1_555
F13 Li8 1.883318 1_565
F13 Li2 1.901677 1_555
F13 Fe4 2.194811 1_555
F13 Fe0 2.254108 1_555
F14 Li11 1.872566 1_555
F14 Li5 1.876220 1_555
F14 Fe0 2.060725 1_455
F15 Li6 1.865097 1_555
F15 Li7 1.911902 1_655
F15 Fe2 2.084739 1_656
F16 Li14 1.903427 1_555
F16 Li6 1.935807 1_555
F16 Fe1 1.949720 1_555
F17 Li11 1.964618 1_555
F17 Fe1 1.997513 1_455
F17 Li15 2.009851 1_555
F18 Li12 1.868139 1_565
F18 Li10 1.886158 1_555
F18 Fe4 2.108106 1_555
F18 Fe0 2.333494 1_555
F19 Li8 1.897976 1_555
F19 Li16 1.907009 1_555
F19 Fe2 2.015452 1_655
F20 Li8 1.870999 1_555
F20 Li9 1.921962 1_555
F20 Fe5 2.050645 1_555
F21 Li17 1.885730 1_555
F21 Li7 1.889875 1_554
F21 Fe5 2.101949 1_555
F21 Fe2 2.314033 1_555
F22 Li13 1.866454 1_555
F22 Li9 1.876880 1_555
F22 Fe4 2.080703 1_545
F23 Li13 1.918653 1_555
F23 Li12 1.934866 1_455
F23 Fe0 2.033330 1_445
F24 Li10 1.918653 1_555
F24 Li11 1.934866 1_655
F24 Fe11 2.033330 1_665
F25 Li10 1.866454 1_555
F25 Li14 1.876880 1_555
F25 Fe7 2.080703 1_565
F26 Li6 1.885730 1_555
F26 Li16 1.889875 1_556
F26 Fe6 2.101949 1_555
F26 Fe9 2.314033 1_555
F27 Li15 1.870999 1_555
F27 Li14 1.921962 1_555
F27 Fe6 2.050645 1_555
F28 Li15 1.897976 1_555
F28 Li7 1.907009 1_555
F28 Fe9 2.015452 1_455
F29 Li11 1.868139 1_545
F29 Li13 1.886158 1_555
F29 Fe7 2.108106 1_555
F29 Fe11 2.333494 1_555
F30 Li12 1.964618 1_555
F30 Fe10 1.997513 1_655
F30 Li8 2.009851 1_555
F31 Li9 1.903427 1_555
F31 Li17 1.935807 1_555
F31 Fe10 1.949720 1_555
F32 Li17 1.865097 1_555
F32 Li16 1.911902 1_455
F32 Fe9 2.084739 1_454
F33 Li12 1.872566 1_555
F33 Li18 1.876220 1_555
F33 Fe11 2.060725 1_655
F34 Li15 1.883318 1_545
F34 Li21 1.901677 1_555
F34 Fe7 2.194811 1_555
F34 Fe11 2.254108 1_555
F35 Li16 1.900122 1_555
F35 Li22 1.932660 1_555
F35 Fe8 1.956839 1_555
F36 Li20 1.883318 1_565
F36 Li14 1.901677 1_555
F36 Fe9 2.194811 1_555
F36 Fe6 2.254108 1_555
F37 Li19 1.900122 1_555
F37 Li13 1.932660 1_555
F37 Fe10 1.956839 1_555
F38 Li23 1.872566 1_555
F38 Li17 1.876220 1_555
F38 Fe6 2.060725 1_554
F39 Li18 1.865097 1_555
F39 Li19 1.911902 1_555
F39 Fe7 2.084739 1_555
F40 Li2 1.903427 1_555
F40 Li18 1.935807 1_555
F40 Fe8 1.949720 1_555
F41 Li0 1.868139 1_565
F41 Li22 1.886158 1_556
F41 Fe9 2.108106 1_555
F41 Fe6 2.333494 1_555
F42 Li23 1.964618 1_555
F42 Fe8 1.997513 1_555
F42 Li3 2.009851 1_555
F43 Li20 1.897976 1_555
F43 Li4 1.907009 1_555
F43 Fe7 2.015452 1_555
F44 Li20 1.870999 1_555
F44 Li21 1.921962 1_655
F44 Fe11 2.050645 1_655
F45 Li5 1.885730 1_555
F45 Li19 1.889875 1_555
F45 Fe11 2.101949 1_555
F45 Fe7 2.314033 1_555
F46 Li1 1.866454 1_555
F46 Li21 1.876880 1_555
F46 Fe9 2.080703 1_445
F47 Li1 1.918653 1_555
F47 Li0 1.934866 1_555
F47 Fe6 2.033330 1_545
