# generated using pymatgen
data_TiO2
_symmetry_space_group_name_H-M   'P 1'
_cell_length_a   3.01680600
_cell_length_b   9.59644600
_cell_length_c   11.04782100
_cell_angle_alpha   90.00000000
_cell_angle_beta   90.00000000
_cell_angle_gamma   90.00000000
_symmetry_Int_Tables_number   1
_chemical_formula_structural   TiO2
_chemical_formula_sum   'Ti8 O16'
_cell_volume   319.84122199
_cell_formula_units_Z   8
loop_
 _symmetry_equiv_pos_site_id
 _symmetry_equiv_pos_as_xyz
  1  'x, y, z'
loop_
 _atom_site_type_symbol
 _atom_site_label
 _atom_site_symmetry_multiplicity
 _atom_site_fract_x
 _atom_site_fract_y
 _atom_site_fract_z
 _atom_site_occupancy
  Ti  Ti0  1  0.75000000  0.51751000  0.86833200  1
  Ti  Ti1  1  0.25000000  0.73613000  0.65544300  1
  Ti  Ti2  1  0.75000000  0.76387000  0.15544300  1
  Ti  Ti3  1  0.25000000  0.98249000  0.36833200  1
  Ti  Ti4  1  0.75000000  0.01751000  0.63166800  1
  Ti  Ti5  1  0.25000000  0.23613000  0.84455700  1
  Ti  Ti6  1  0.75000000  0.26387000  0.34455700  1
  Ti  Ti7  1  0.25000000  0.48249000  0.13166800  1
  O  O0  1  0.75000000  0.59526600  0.04435200  1
  O  O1  1  0.25000000  0.62497300  0.81105100  1
  O  O2  1  0.25000000  0.63319600  0.23121000  1
  O  O3  1  0.75000000  0.65088200  0.59415400  1
  O  O4  1  0.25000000  0.84911800  0.09415400  1
  O  O5  1  0.75000000  0.86680400  0.73121000  1
  O  O6  1  0.75000000  0.87502700  0.31105100  1
  O  O7  1  0.25000000  0.90473400  0.54435200  1
  O  O8  1  0.75000000  0.09526600  0.45564800  1
  O  O9  1  0.25000000  0.12497300  0.68894900  1
  O  O10  1  0.25000000  0.13319600  0.26879000  1
  O  O11  1  0.75000000  0.15088200  0.90584600  1
  O  O12  1  0.25000000  0.34911800  0.40584600  1
  O  O13  1  0.75000000  0.36680400  0.76879000  1
  O  O14  1  0.75000000  0.37502700  0.18894900  1
  O  O15  1  0.25000000  0.40473400  0.95564800  1
loop_
_geom_bond_atom_site_label_1
_geom_bond_atom_site_label_2
_geom_bond_distance
_geom_bond_site_symmetry_2
O0 Ti2 2.030818 1_555
O0 Ti0 2.082883 1_554
O0 Ti7 2.092151 1_555
O0 Ti7 2.092151 1_655
O1 Ti0 1.933716 1_455
O1 Ti0 1.933716 1_555
O1 Ti1 2.023186 1_555
O2 Ti7 1.816867 1_555
O2 Ti2 2.132717 1_555
O2 Ti2 2.132717 1_455
O3 Ti1 1.844725 1_555
O3 Ti1 1.844725 1_655
O4 Ti2 1.844725 1_455
O4 Ti2 1.844725 1_555
O5 Ti4 1.816867 1_565
O5 Ti1 2.132717 1_555
O5 Ti1 2.132717 1_655
O6 Ti3 1.933716 1_655
O6 Ti3 1.933716 1_555
O6 Ti2 2.023186 1_555
O7 Ti1 2.030818 1_555
O7 Ti3 2.082883 1_555
O7 Ti4 2.092151 1_465
O7 Ti4 2.092151 1_565
O8 Ti6 2.030818 1_555
O8 Ti4 2.082883 1_555
O8 Ti3 2.092151 1_645
O8 Ti3 2.092151 1_545
O9 Ti4 1.933716 1_555
O9 Ti4 1.933716 1_455
O9 Ti5 2.023186 1_555
O10 Ti3 1.816867 1_545
O10 Ti6 2.132717 1_455
O10 Ti6 2.132717 1_555
O11 Ti5 1.844725 1_555
O11 Ti5 1.844725 1_655
O12 Ti6 1.844725 1_555
O12 Ti6 1.844725 1_455
O13 Ti0 1.816867 1_555
O13 Ti5 2.132717 1_555
O13 Ti5 2.132717 1_655
O14 Ti7 1.933716 1_555
O14 Ti7 1.933716 1_655
O14 Ti6 2.023186 1_555
O15 Ti5 2.030818 1_555
O15 Ti7 2.082883 1_556
O15 Ti0 2.092151 1_555
O15 Ti0 2.092151 1_455
