# generated using pymatgen
data_Sc2TcAg
_symmetry_space_group_name_H-M   'P 1'
_cell_length_a   4.67354195
_cell_length_b   4.67356997
_cell_length_c   4.67177951
_cell_angle_alpha   60.01216644
_cell_angle_beta   60.01288836
_cell_angle_gamma   60.00867052
_symmetry_Int_Tables_number   1
_chemical_formula_structural   Sc2TcAg
_chemical_formula_sum   'Sc2 Tc1 Ag1'
_cell_volume   72.17269189
_cell_formula_units_Z   1
loop_
 _symmetry_equiv_pos_site_id
 _symmetry_equiv_pos_as_xyz
  1  'x, y, z'
loop_
 _atom_site_type_symbol
 _atom_site_label
 _atom_site_symmetry_multiplicity
 _atom_site_fract_x
 _atom_site_fract_y
 _atom_site_fract_z
 _atom_site_occupancy
  Sc  Sc0  1  0.99996014  0.99995852  0.00004056  1
  Sc  Sc1  1  0.50004230  0.50003978  0.49995861  1
  Tc  Tc0  1  0.75000100  0.74999820  0.74999826  1
  Ag  Ag0  1  0.24999855  0.25000149  0.25000158  1
loop_
_geom_bond_atom_site_label_1
_geom_bond_atom_site_label_2
_geom_bond_distance
_geom_bond_site_symmetry_2
Sc0 Tc0 2.861187 1_555
Sc0 Tc0 2.861205 1_554
Sc0 Tc0 2.862475 1_564
Sc0 Tc0 2.862483 1_654
Sc1 Tc0 2.861186 1_555
Sc1 Tc0 2.861197 1_554
Sc1 Tc0 2.862482 1_545
Sc1 Tc0 2.862484 1_455
Ag0 Sc0 2.861497 1_446
Ag0 Sc1 2.861500 1_555
Ag0 Sc1 2.861513 1_554
Ag0 Sc0 2.861513 1_445
Ag0 Sc0 2.862159 1_455
Ag0 Sc1 2.862160 1_455
Ag0 Sc1 2.862177 1_545
Ag0 Sc0 2.862180 1_545
