# generated using pymatgen
data_LiNiO2
_symmetry_space_group_name_H-M   'P 1'
_cell_length_a   5.04404400
_cell_length_b   5.06223070
_cell_length_c   7.55069839
_cell_angle_alpha   107.22642697
_cell_angle_beta   104.00352496
_cell_angle_gamma   100.02903078
_symmetry_Int_Tables_number   1
_chemical_formula_structural   LiNiO2
_chemical_formula_sum   'Li5 Ni5 O10'
_cell_volume   172.27921347
_cell_formula_units_Z   5
loop_
 _symmetry_equiv_pos_site_id
 _symmetry_equiv_pos_as_xyz
  1  'x, y, z'
loop_
 _atom_site_type_symbol
 _atom_site_label
 _atom_site_symmetry_multiplicity
 _atom_site_fract_x
 _atom_site_fract_y
 _atom_site_fract_z
 _atom_site_occupancy
  Li  Li0  1  0.38666100  0.09303700  0.40919500  1
  Li  Li1  1  0.82390200  0.71716500  0.78266500  1
  Li  Li2  1  0.50000000  0.50000000  0.50000000  1
  Li  Li3  1  0.17609800  0.28283500  0.21733500  1
  Li  Li4  1  0.61333900  0.90696300  0.59080500  1
  Ni  Ni0  1  0.70731400  0.30309500  0.69639000  1
  Ni  Ni1  1  0.00000000  0.50000000  0.00000000  1
  Ni  Ni2  1  0.90187900  0.09812500  0.89853500  1
  Ni  Ni3  1  0.09812100  0.90187500  0.10146500  1
  Ni  Ni4  1  0.29268600  0.69690500  0.30361000  1
  O  O0  1  0.33445600  0.38331800  0.86198900  1
  O  O1  1  0.42964600  0.81811600  0.94865800  1
  O  O2  1  0.05068500  0.22552900  0.53983700  1
  O  O3  1  0.76572400  0.01517200  0.23036900  1
  O  O4  1  0.11581400  0.55967100  0.66347600  1
  O  O5  1  0.88418600  0.44032900  0.33652400  1
  O  O6  1  0.23427600  0.98482800  0.76963100  1
  O  O7  1  0.94931500  0.77447100  0.46016300  1
  O  O8  1  0.57035400  0.18188400  0.05134200  1
  O  O9  1  0.66554400  0.61668200  0.13801100  1
loop_
_geom_bond_atom_site_label_1
_geom_bond_atom_site_label_2
_geom_bond_distance
_geom_bond_site_symmetry_2
Li0 Ni4 1.849508 1_545
Li0 Li2 1.898571 1_555
Li0 O2 2.260064 1_555
Li0 O3 2.613631 1_555
Li1 Ni2 1.791427 1_565
Li1 Ni0 1.934012 1_555
Li1 O4 2.058829 1_655
Li1 Li2 2.174905 1_555
Li1 O6 2.308898 1_655
Li1 Ni1 2.322435 1_656
Li2 Li4 1.898571 1_555
Li2 Li3 2.174905 1_555
Li2 Ni4 2.184961 1_555
Li2 Ni0 2.184961 1_555
Li2 O5 2.551632 1_555
Li2 O4 2.551632 1_555
Li2 O7 2.576455 1_555
Li2 O2 2.576455 1_555
Li3 Ni3 1.791427 1_545
Li3 Ni4 1.934012 1_555
Li3 O5 2.058829 1_455
Li3 O3 2.308898 1_455
Li3 Ni1 2.322435 1_555
Li4 Ni0 1.849508 1_565
Li4 O7 2.260064 1_555
Li4 O6 2.613631 1_555
Ni0 O2 2.346069 1_655
Ni0 O0 2.523653 1_555
Ni1 Ni3 1.874373 1_555
Ni1 Ni2 1.874373 1_454
Ni1 O0 2.261443 1_554
Ni1 O9 2.261443 1_455
Ni2 O6 2.209392 1_645
Ni2 O8 2.279985 1_556
Ni3 O3 2.209392 1_465
Ni3 O1 2.279985 1_554
Ni4 O7 2.346069 1_455
Ni4 O9 2.523653 1_555
O0 O6 1.857998 1_545
O1 O8 1.711352 1_566
O1 O6 1.957376 1_555
O2 O4 1.601052 1_555
O3 O9 1.857998 1_545
O3 O8 1.957376 1_555
O3 O5 1.982466 1_555
O4 O6 1.982466 1_555
O5 O7 1.601052 1_555
