# generated using pymatgen
data_Li2Mg11(WO4)12
_symmetry_space_group_name_H-M   'P 1'
_cell_length_a   10.76840100
_cell_length_b   5.27468100
_cell_length_c   17.77159881
_cell_angle_alpha   89.65412630
_cell_angle_beta   90.00000000
_cell_angle_gamma   90.00000000
_symmetry_Int_Tables_number   1
_chemical_formula_structural   Li2Mg11(WO4)12
_chemical_formula_sum   'Li2 Mg11 W12 O48'
_cell_volume   1009.40629020
_cell_formula_units_Z   1
loop_
 _symmetry_equiv_pos_site_id
 _symmetry_equiv_pos_as_xyz
  1  'x, y, z'
loop_
 _atom_site_type_symbol
 _atom_site_label
 _atom_site_symmetry_multiplicity
 _atom_site_fract_x
 _atom_site_fract_y
 _atom_site_fract_z
 _atom_site_occupancy
  Li  Li0  1  0.50000000  0.75732800  0.70710400  1
  Li  Li1  1  0.00000000  0.89538000  0.75026400  1
  Mg  Mg0  1  0.50000000  0.10443100  0.25073300  1
  Mg  Mg1  1  0.32414900  0.24222000  0.97046100  1
  Mg  Mg2  1  0.67585100  0.24222000  0.97046100  1
  Mg  Mg3  1  0.82761800  0.26090500  0.46952300  1
  Mg  Mg4  1  0.17238200  0.26090500  0.46952300  1
  Mg  Mg5  1  0.00000000  0.39419200  0.75087400  1
  Mg  Mg6  1  0.50000000  0.60449500  0.24910500  1
  Mg  Mg7  1  0.32317500  0.74317600  0.52924400  1
  Mg  Mg8  1  0.67682500  0.74317600  0.52924400  1
  Mg  Mg9  1  0.82732500  0.76083000  0.02992700  1
  Mg  Mg10  1  0.17267500  0.76083000  0.02992700  1
  W  W0  1  0.00000000  0.22146100  0.94342900  1
  W  W1  1  0.27736500  0.21887200  0.65754400  1
  W  W2  1  0.72263500  0.21887200  0.65754400  1
  W  W3  1  0.77508300  0.27926700  0.15789500  1
  W  W4  1  0.22491700  0.27926700  0.15789500  1
  W  W5  1  0.50000000  0.28394500  0.44353800  1
  W  W6  1  0.00000000  0.72006900  0.55748200  1
  W  W7  1  0.72652800  0.72168200  0.84235000  1
  W  W8  1  0.27347200  0.72168200  0.84235000  1
  W  W9  1  0.77575100  0.78100100  0.34167900  1
  W  W10  1  0.22424900  0.78100100  0.34167900  1
  W  W11  1  0.50000000  0.78268300  0.05674400  1
  O  O0  1  0.86018500  0.04713500  0.37984500  1
  O  O1  1  0.13981500  0.04713500  0.37984500  1
  O  O2  1  0.50000000  0.06655600  0.99539300  1
  O  O3  1  0.86462800  0.07912400  0.21488400  1
  O  O4  1  0.13537200  0.07912400  0.21488400  1
  O  O5  1  0.26331200  0.07980100  0.07309300  1
  O  O6  1  0.73668800  0.07980100  0.07309300  1
  O  O7  1  0.36690000  0.08560900  0.46516100  1
  O  O8  1  0.63310000  0.08560900  0.46516100  1
  O  O9  1  0.86918600  0.15220900  0.70549400  1
  O  O10  1  0.13081400  0.15220900  0.70549400  1
  O  O11  1  0.00000000  0.14951500  0.84469500  1
  O  O12  1  0.50000000  0.35568500  0.34312700  1
  O  O13  1  0.37398600  0.35508600  0.20622700  1
  O  O14  1  0.62601400  0.35508600  0.20622700  1
  O  O15  1  0.13446700  0.41786000  0.96498400  1
  O  O16  1  0.86553300  0.41786000  0.96498400  1
  O  O17  1  0.76058300  0.41319100  0.57177700  1
  O  O18  1  0.23941700  0.41319100  0.57177700  1
  O  O19  1  0.36962400  0.42927400  0.71037600  1
  O  O20  1  0.63037600  0.42927400  0.71037600  1
  O  O21  1  0.00000000  0.43739900  0.49598200  1
  O  O22  1  0.35814000  0.45252900  0.87892600  1
  O  O23  1  0.64186000  0.45252900  0.87892600  1
  O  O24  1  0.86002600  0.54693800  0.12056200  1
  O  O25  1  0.13997400  0.54693800  0.12056200  1
  O  O26  1  0.50000000  0.56588100  0.50496000  1
  O  O27  1  0.86555000  0.57987700  0.28602300  1
  O  O28  1  0.13445000  0.57987700  0.28602300  1
  O  O29  1  0.26336800  0.58059200  0.42694700  1
  O  O30  1  0.73663200  0.58059200  0.42694700  1
  O  O31  1  0.36666500  0.58545700  0.03540600  1
  O  O32  1  0.63333500  0.58545700  0.03540600  1
  O  O33  1  0.87119900  0.63670300  0.79545300  1
  O  O34  1  0.12880100  0.63670300  0.79545300  1
  O  O35  1  0.00000000  0.63616500  0.65532400  1
  O  O36  1  0.50000000  0.85541800  0.15689100  1
  O  O37  1  0.37408100  0.85466700  0.29361700  1
  O  O38  1  0.62591900  0.85466700  0.29361700  1
  O  O39  1  0.86438300  0.91614700  0.53653400  1
  O  O40  1  0.13561700  0.91614700  0.53653400  1
  O  O41  1  0.76251200  0.92334600  0.92674700  1
  O  O42  1  0.23748800  0.92334600  0.92674700  1
  O  O43  1  0.36684600  0.90973600  0.78126300  1
  O  O44  1  0.63315400  0.90973600  0.78126300  1
  O  O45  1  0.00000000  0.93380100  0.00412500  1
  O  O46  1  0.36308300  0.94106500  0.62317300  1
  O  O47  1  0.63691700  0.94106500  0.62317300  1
loop_
_geom_bond_atom_site_label_1
_geom_bond_atom_site_label_2
_geom_bond_distance
_geom_bond_site_symmetry_2
Li0 O43 2.109957 1_555
Li0 O44 2.109957 1_555
Li0 O20 2.228774 1_555
Li0 O19 2.228774 1_555
Li0 O47 2.306606 1_555
Li0 O46 2.306606 1_555
Li1 O34 2.101694 1_555
Li1 O33 2.101694 1_455
Li1 O10 2.107018 1_565
Li1 O9 2.107018 1_465
Li1 O11 2.154152 1_565
Li1 O35 2.178086 1_555
Mg0 O37 2.035412 1_545
Mg0 O38 2.035412 1_545
Mg0 O13 2.049962 1_555
Mg0 O14 2.049962 1_555
Mg0 O12 2.116313 1_555
Mg0 O36 2.129068 1_545
Mg1 O22 1.997247 1_555
Mg1 O42 2.078256 1_545
Mg1 O5 2.114474 1_556
Mg1 O2 2.153079 1_555
Mg1 O31 2.201078 1_556
Mg1 O15 2.244724 1_555
Mg2 O23 1.997247 1_555
Mg2 O41 2.078256 1_545
Mg2 O6 2.114474 1_556
Mg2 O2 2.153079 1_555
Mg2 O32 2.201078 1_556
Mg2 O16 2.244724 1_555
Mg3 O0 1.988980 1_555
Mg3 O30 2.088179 1_555
Mg3 O17 2.118067 1_555
Mg3 O21 2.130452 1_655
Mg3 O39 2.203569 1_545
Mg3 O8 2.291149 1_555
Mg4 O1 1.988980 1_555
Mg4 O29 2.088179 1_555
Mg4 O18 2.118067 1_555
Mg4 O21 2.130452 1_555
Mg4 O40 2.203569 1_545
Mg4 O7 2.291149 1_555
Mg5 O34 2.049358 1_555
Mg5 O33 2.049358 1_455
Mg5 O10 2.067922 1_555
Mg5 O9 2.067922 1_455
Mg5 O11 2.102309 1_555
Mg5 O35 2.118093 1_555
Mg6 O14 2.040786 1_555
Mg6 O13 2.040786 1_555
Mg6 O37 2.053835 1_555
Mg6 O38 2.053835 1_555
Mg6 O36 2.100286 1_555
Mg6 O12 2.118461 1_555
Mg7 O46 2.020321 1_555
Mg7 O18 2.097268 1_555
Mg7 O29 2.115204 1_555
Mg7 O26 2.165954 1_555
Mg7 O7 2.180896 1_565
Mg7 O40 2.220318 1_555
Mg8 O47 2.020321 1_555
Mg8 O17 2.097268 1_555
Mg8 O30 2.115204 1_555
Mg8 O26 2.165954 1_555
Mg8 O8 2.180896 1_565
Mg8 O39 2.220318 1_555
Mg9 O24 1.992328 1_555
Mg9 O6 2.094608 1_565
Mg9 O45 2.120169 1_655
Mg9 O41 2.136660 1_554
Mg9 O16 2.190712 1_554
Mg9 O32 2.286449 1_555
Mg10 O25 1.992328 1_555
Mg10 O5 2.094608 1_565
Mg10 O45 2.120169 1_555
Mg10 O42 2.136660 1_554
Mg10 O15 2.190712 1_554
Mg10 O31 2.286449 1_555
O0 W9 1.807983 1_545
O1 W10 1.807983 1_545
O2 W11 1.846911 1_546
O3 W3 1.748456 1_555
O4 W4 1.748456 1_555
O5 W4 1.888993 1_555
O6 W3 1.888993 1_555
O7 W5 1.814260 1_555
O8 W5 1.814260 1_555
O9 W2 1.826648 1_555
O10 W1 1.826648 1_555
O11 W0 1.797467 1_555
O12 W5 1.821908 1_555
O13 W4 1.865110 1_555
O14 W3 1.865110 1_555
O15 W0 1.822470 1_555
O16 W0 1.822470 1_655
O17 W2 1.876680 1_555
O18 W1 1.876680 1_555
O19 W1 1.764313 1_555
O20 W2 1.764313 1_555
O21 W6 1.853992 1_555
O22 W8 1.805044 1_555
O23 W7 1.805044 1_555
O24 W3 1.805259 1_555
O25 W4 1.805259 1_555
O26 W5 1.850041 1_555
O27 W9 1.746851 1_555
O28 W10 1.746851 1_555
O29 W10 1.889931 1_555
O30 W9 1.889931 1_555
O31 W11 1.814478 1_555
O32 W11 1.814478 1_555
O33 W7 1.824011 1_555
O34 W8 1.824011 1_555
O35 W6 1.791656 1_555
O36 W11 1.822916 1_555
O37 W10 1.865409 1_555
O38 W9 1.865409 1_555
O39 W6 1.826559 1_655
O40 W6 1.826559 1_555
O41 W7 1.884278 1_555
O42 W8 1.884278 1_555
O43 W8 1.777773 1_555
O44 W7 1.777773 1_555
O45 W0 1.856341 1_564
O46 W1 1.839337 1_565
O47 W2 1.839337 1_565
