# generated using pymatgen
data_LiNi4(PO4)3
_symmetry_space_group_name_H-M   'P 1'
_cell_length_a   6.39909000
_cell_length_b   9.00488700
_cell_length_c   14.53040992
_cell_angle_alpha   89.66597669
_cell_angle_beta   90.00000000
_cell_angle_gamma   90.00000000
_symmetry_Int_Tables_number   1
_chemical_formula_structural   LiNi4(PO4)3
_chemical_formula_sum   'Li4 Ni16 P12 O48'
_cell_volume   837.27277915
_cell_formula_units_Z   4
loop_
 _symmetry_equiv_pos_site_id
 _symmetry_equiv_pos_as_xyz
  1  'x, y, z'
loop_
 _atom_site_type_symbol
 _atom_site_label
 _atom_site_symmetry_multiplicity
 _atom_site_fract_x
 _atom_site_fract_y
 _atom_site_fract_z
 _atom_site_occupancy
  Li  Li0  1  0.50000000  0.34245800  0.68289300  1
  Li  Li1  1  0.00000000  0.16269400  0.83805300  1
  Li  Li2  1  0.00000000  0.15834300  0.17322500  1
  Li  Li3  1  0.00000000  0.15399900  0.50926000  1
  Ni  Ni0  1  0.74232000  0.00043000  0.66921200  1
  Ni  Ni1  1  0.25090100  0.00891500  0.99885900  1
  Ni  Ni2  1  0.74909900  0.00891500  0.99885900  1
  Ni  Ni3  1  0.24886800  0.99149000  0.33389300  1
  Ni  Ni4  1  0.75113200  0.99149000  0.33389300  1
  Ni  Ni5  1  0.25768000  0.00043000  0.66921200  1
  Ni  Ni6  1  0.50000000  0.85196600  0.14891700  1
  Ni  Ni7  1  0.00000000  0.64511500  0.98834900  1
  Ni  Ni8  1  0.00000000  0.65481200  0.64601000  1
  Ni  Ni9  1  0.24825300  0.49399200  0.16792800  1
  Ni  Ni10  1  0.75174700  0.49399200  0.16792800  1
  Ni  Ni11  1  0.25626500  0.49673400  0.83123300  1
  Ni  Ni12  1  0.74373500  0.49673400  0.83123300  1
  Ni  Ni13  1  0.25350100  0.50754700  0.49804500  1
  Ni  Ni14  1  0.74649900  0.50754700  0.49804500  1
  Ni  Ni15  1  0.50000000  0.35417400  0.35027300  1
  P  P0  1  0.00000000  0.82362500  0.48938000  1
  P  P1  1  0.00000000  0.82029200  0.16230600  1
  P  P2  1  0.00000000  0.82284800  0.82155500  1
  P  P3  1  0.50000000  0.67263200  0.31992500  1
  P  P4  1  0.50000000  0.68497000  0.66547500  1
  P  P5  1  0.50000000  0.68063500  0.99370300  1
  P  P6  1  0.00000000  0.31824600  0.33892900  1
  P  P7  1  0.00000000  0.32431400  0.01006700  1
  P  P8  1  0.00000000  0.31897500  0.67183200  1
  P  P9  1  0.50000000  0.17517300  0.17670400  1
  P  P10  1  0.50000000  0.17892900  0.84071900  1
  P  P11  1  0.50000000  0.17636800  0.50819700  1
  O  O0  1  0.19706400  0.88370300  0.11410700  1
  O  O1  1  0.20094700  0.87668300  0.44538500  1
  O  O2  1  0.20028000  0.88303700  0.78129900  1
  O  O3  1  0.79972000  0.88303700  0.78129900  1
  O  O4  1  0.79905300  0.87668300  0.44538500  1
  O  O5  1  0.80293600  0.88370300  0.11410700  1
  O  O6  1  0.00000000  0.86638900  0.26355000  1
  O  O7  1  0.00000000  0.86881900  0.59664600  1
  O  O8  1  0.00000000  0.85122600  0.93083000  1
  O  O9  1  0.50000000  0.84941100  0.29824700  1
  O  O10  1  0.50000000  0.85545700  0.99284600  1
  O  O11  1  0.50000000  0.85497500  0.65193400  1
  O  O12  1  0.00000000  0.64872300  0.13388900  1
  O  O13  1  0.00000000  0.64588900  0.49416400  1
  O  O14  1  0.00000000  0.64505500  0.80258600  1
  O  O15  1  0.50000000  0.63580900  0.09931500  1
  O  O16  1  0.50000000  0.61937200  0.42310300  1
  O  O17  1  0.50000000  0.62129800  0.76522000  1
  O  O18  1  0.29930000  0.61647200  0.27531400  1
  O  O19  1  0.30313000  0.62172500  0.61622000  1
  O  O20  1  0.30078000  0.62230700  0.94753000  1
  O  O21  1  0.69687000  0.62172500  0.61622000  1
  O  O22  1  0.69922000  0.62230700  0.94753000  1
  O  O23  1  0.70070000  0.61647200  0.27531400  1
  O  O24  1  0.19892100  0.38289700  0.05503500  1
  O  O25  1  0.19801400  0.38154100  0.38490300  1
  O  O26  1  0.19863400  0.38066800  0.71666700  1
  O  O27  1  0.80107900  0.38289700  0.05503500  1
  O  O28  1  0.80198600  0.38154100  0.38490300  1
  O  O29  1  0.80136600  0.38066800  0.71666700  1
  O  O30  1  0.00000000  0.35831000  0.23456200  1
  O  O31  1  0.00000000  0.37283800  0.90510600  1
  O  O32  1  0.00000000  0.36478000  0.56714200  1
  O  O33  1  0.50000000  0.34879300  0.20155600  1
  O  O34  1  0.50000000  0.35317800  0.84846600  1
  O  O35  1  0.50000000  0.35427900  0.51596600  1
  O  O36  1  0.00000000  0.14602400  0.68945400  1
  O  O37  1  0.00000000  0.14842100  0.02477200  1
  O  O38  1  0.00000000  0.14631800  0.35962900  1
  O  O39  1  0.50000000  0.13497400  0.73567900  1
  O  O40  1  0.50000000  0.14002400  0.40090000  1
  O  O41  1  0.50000000  0.12738700  0.07405900  1
  O  O42  1  0.70106000  0.12139300  0.55289300  1
  O  O43  1  0.70149100  0.11529800  0.22138500  1
  O  O44  1  0.70284500  0.12264400  0.88551400  1
  O  O45  1  0.29850900  0.11529800  0.22138500  1
  O  O46  1  0.29894000  0.12139300  0.55289300  1
  O  O47  1  0.29715500  0.12264400  0.88551400  1
loop_
_geom_bond_atom_site_label_1
_geom_bond_atom_site_label_2
_geom_bond_distance
_geom_bond_site_symmetry_2
Li0 O39 2.015537 1_555
Li0 O26 2.019946 1_555
Li0 O29 2.019946 1_555
Li0 O34 2.408342 1_555
Li0 O35 2.427232 1_555
Li1 O44 2.053908 1_455
Li1 O47 2.053908 1_555
Li1 O31 2.133462 1_555
Li1 O36 2.165289 1_555
Li2 O30 2.013825 1_555
Li2 O45 2.070167 1_555
Li2 O43 2.070167 1_455
Li2 O37 2.159453 1_555
Li3 O46 2.036015 1_555
Li3 O42 2.036015 1_455
Li3 O32 2.080530 1_555
Li3 O38 2.175703 1_555
Ni0 O3 1.971012 1_545
Ni0 O42 2.022715 1_555
Ni0 O11 2.046192 1_545
Ni0 O36 2.128099 1_655
Ni0 O39 2.195155 1_555
Ni0 O7 2.291255 1_645
Ni1 O47 1.956834 1_555
Ni1 O0 2.042611 1_546
Ni1 O37 2.074408 1_556
Ni1 O10 2.111746 1_545
Ni1 O41 2.210551 1_556
Ni1 O8 2.363800 1_545
Ni2 O44 1.956834 1_555
Ni2 O5 2.042611 1_546
Ni2 O37 2.074408 1_656
Ni2 O10 2.111746 1_545
Ni2 O41 2.210551 1_556
Ni2 O8 2.363800 1_645
Ni3 O1 1.941077 1_555
Ni3 O45 1.998784 1_565
Ni3 O9 2.120231 1_555
Ni3 O38 2.150787 1_565
Ni3 O6 2.205297 1_555
Ni3 O40 2.309686 1_565
Ni4 O4 1.941077 1_555
Ni4 O43 1.998784 1_565
Ni4 O9 2.120231 1_555
Ni4 O38 2.150787 1_665
Ni4 O6 2.205297 1_655
Ni4 O40 2.309686 1_565
Ni5 O2 1.971012 1_545
Ni5 O46 2.022715 1_555
Ni5 O11 2.046192 1_545
Ni5 O36 2.128099 1_555
Ni5 O39 2.195155 1_555
Ni5 O7 2.291255 1_545
Ni6 O0 2.023281 1_555
Ni6 O5 2.023281 1_555
Ni6 O15 2.079558 1_555
Ni6 O9 2.169814 1_555
Ni6 O10 2.267810 1_554
Ni7 O20 2.024829 1_555
Ni7 O22 2.024829 1_455
Ni7 O8 2.031057 1_555
Ni7 O12 2.115195 1_556
Ni8 O21 2.010049 1_455
Ni8 O19 2.010049 1_555
Ni8 O7 2.052345 1_555
Ni8 O13 2.208315 1_555
Ni8 O14 2.276297 1_555
Ni9 O18 1.943690 1_555
Ni9 O24 1.952034 1_555
Ni9 O33 2.129796 1_555
Ni9 O12 2.168319 1_555
Ni9 O30 2.222630 1_555
Ni9 O15 2.281475 1_555
Ni10 O23 1.943690 1_555
Ni10 O27 1.952034 1_555
Ni10 O33 2.129796 1_555
Ni10 O12 2.168319 1_655
Ni10 O30 2.222630 1_655
Ni10 O15 2.281475 1_555
Ni11 O26 2.004956 1_555
Ni11 O34 2.040251 1_555
Ni11 O20 2.058551 1_555
Ni11 O17 2.144364 1_555
Ni11 O14 2.154019 1_555
Ni11 O31 2.252133 1_555
Ni12 O29 2.004956 1_555
Ni12 O34 2.040251 1_555
Ni12 O22 2.058551 1_555
Ni12 O17 2.144364 1_555
Ni12 O14 2.154019 1_655
Ni12 O31 2.252133 1_655
Ni13 O19 2.031525 1_555
Ni13 O25 2.034215 1_555
Ni13 O13 2.045903 1_555
Ni13 O35 2.111056 1_555
Ni13 O16 2.162195 1_555
Ni13 O32 2.297217 1_555
Ni14 O21 2.031525 1_555
Ni14 O28 2.034215 1_555
Ni14 O13 2.045903 1_655
Ni14 O35 2.111056 1_555
Ni14 O16 2.162195 1_555
Ni14 O32 2.297217 1_655
Ni15 O25 2.012382 1_555
Ni15 O28 2.012382 1_555
Ni15 O40 2.059934 1_555
Ni15 O33 2.161745 1_555
Ni15 O35 2.407593 1_555
O0 P1 1.549864 1_555
O1 P0 1.512235 1_555
O2 P2 1.508223 1_555
O3 P2 1.508223 1_655
O4 P0 1.512235 1_655
O5 P1 1.549864 1_655
O6 P1 1.530886 1_555
O7 P0 1.613168 1_555
O8 P2 1.609712 1_555
O9 P3 1.620937 1_555
O10 P5 1.574229 1_555
O11 P4 1.542330 1_555
O12 P1 1.601510 1_555
O13 P0 1.601597 1_555
O14 P2 1.626141 1_555
O15 P5 1.584508 1_554
O16 P3 1.571397 1_555
O17 P4 1.555515 1_555
O18 P3 1.526163 1_555
O19 P4 1.558328 1_555
O20 P5 1.534695 1_555
O21 P4 1.558328 1_555
O22 P5 1.534695 1_555
O23 P3 1.526163 1_555
O24 P7 1.526288 1_555
O25 P6 1.543087 1_555
O26 P8 1.533914 1_555
O27 P7 1.526288 1_655
O28 P6 1.543087 1_655
O29 P8 1.533914 1_655
O30 P6 1.556771 1_555
O31 P7 1.584035 1_556
O32 P8 1.573795 1_555
O33 P9 1.606640 1_555
O34 P10 1.573780 1_555
O35 P11 1.606697 1_555
O36 P8 1.576839 1_555
O37 P7 1.597009 1_555
O38 P6 1.575417 1_555
O39 P10 1.578994 1_555
O40 P11 1.594915 1_555
O41 P9 1.554716 1_555
O42 P11 1.522645 1_555
O43 P9 1.539666 1_555
O44 P10 1.536738 1_555
O45 P9 1.539666 1_555
O46 P11 1.522645 1_555
O47 P10 1.536738 1_555
