# generated using pymatgen
data_TiSiTc2
_symmetry_space_group_name_H-M   'P 1'
_cell_length_a   4.26931012
_cell_length_b   4.26931012
_cell_length_c   4.26931012
_cell_angle_alpha   60.00000000
_cell_angle_beta   60.00000000
_cell_angle_gamma   60.00000000
_symmetry_Int_Tables_number   1
_chemical_formula_structural   TiSiTc2
_chemical_formula_sum   'Ti1 Si1 Tc2'
_cell_volume   55.02475430
_cell_formula_units_Z   1
loop_
 _symmetry_equiv_pos_site_id
 _symmetry_equiv_pos_as_xyz
  1  'x, y, z'
loop_
 _atom_site_type_symbol
 _atom_site_label
 _atom_site_symmetry_multiplicity
 _atom_site_fract_x
 _atom_site_fract_y
 _atom_site_fract_z
 _atom_site_occupancy
  Ti  Ti0  1  0.75000100  0.75000100  0.75000100  1
  Si  Si0  1  0.25000000  0.25000000  0.25000000  1
  Tc  Tc0  1  0.00000000  -0.00000000  0.00000000  1
  Tc  Tc1  1  0.50000000  0.50000000  0.50000000  1
loop_
_geom_bond_atom_site_label_1
_geom_bond_atom_site_label_2
_geom_bond_distance
_geom_bond_site_symmetry_2
Si0 Tc1 2.614408 1_555
Si0 Tc1 2.614408 1_554
Si0 Tc1 2.614408 1_545
Si0 Tc0 2.614408 1_556
Si0 Tc1 2.614408 1_455
Si0 Tc0 2.614408 1_565
Si0 Tc0 2.614408 1_555
Si0 Tc0 2.614408 1_655
Si0 Ti0 3.018852 1_445
Si0 Ti0 3.018852 1_544
Si0 Ti0 3.018852 1_454
Si0 Ti0 3.018864 1_554
Si0 Ti0 3.018864 1_545
Si0 Ti0 3.018864 1_455
Tc0 Ti0 2.614397 1_444
Tc0 Ti0 2.614411 1_454
Tc0 Ti0 2.614411 1_445
Tc0 Ti0 2.614411 1_544
Tc1 Ti0 2.614404 1_545
Tc1 Ti0 2.614404 1_455
Tc1 Ti0 2.614404 1_554
Tc1 Ti0 2.614418 1_555
