# generated using pymatgen
data_LiFe3O3F4
_symmetry_space_group_name_H-M   'P 1'
_cell_length_a   5.37551327
_cell_length_b   5.37551327
_cell_length_c   5.37551362
_cell_angle_alpha   102.87628467
_cell_angle_beta   102.87628467
_cell_angle_gamma   102.87627411
_symmetry_Int_Tables_number   1
_chemical_formula_structural   LiFe3O3F4
_chemical_formula_sum   'Li1 Fe3 O3 F4'
_cell_volume   141.41873156
_cell_formula_units_Z   1
loop_
 _symmetry_equiv_pos_site_id
 _symmetry_equiv_pos_as_xyz
  1  'x, y, z'
loop_
 _atom_site_type_symbol
 _atom_site_label
 _atom_site_symmetry_multiplicity
 _atom_site_fract_x
 _atom_site_fract_y
 _atom_site_fract_z
 _atom_site_occupancy
  Li  Li0  1  0.98410700  0.98410700  0.98410700  1
  Fe  Fe0  1  0.53435300  0.15443500  0.53435300  1
  Fe  Fe1  1  0.53435300  0.53435300  0.15443500  1
  Fe  Fe2  1  0.15443500  0.53435300  0.53435300  1
  O  O0  1  0.76644100  0.38348600  0.38348600  1
  O  O1  1  0.38348600  0.38348600  0.76644100  1
  O  O2  1  0.38348600  0.76644100  0.38348600  1
  F  F0  1  0.81884000  0.18311400  0.81884000  1
  F  F1  1  0.25147900  0.25147900  0.25147900  1
  F  F2  1  0.81884000  0.81884000  0.18311400  1
  F  F3  1  0.18311400  0.81884000  0.81884000  1
loop_
_geom_bond_atom_site_label_1
_geom_bond_atom_site_label_2
_geom_bond_distance
_geom_bond_site_symmetry_2
Fe0 O2 1.965843 1_545
Fe0 O1 1.985335 1_555
Fe0 O0 1.985335 1_555
Fe1 O1 1.965843 1_554
Fe1 O0 1.985335 1_555
Fe1 O2 1.985335 1_555
Fe2 O0 1.965843 1_455
Fe2 O1 1.985335 1_555
Fe2 O2 1.985335 1_555
F0 Li0 1.793956 1_545
F0 Fe0 1.857038 1_555
F1 Li0 1.853411 1_444
F1 Fe0 2.138476 1_555
F1 Fe2 2.138476 1_555
F1 Fe1 2.138477 1_555
F2 Li0 1.793956 1_554
F2 Fe1 1.857038 1_555
F3 Li0 1.793956 1_455
F3 Fe2 1.857038 1_555
