# generated using pymatgen
data_Zn3In2O6
_symmetry_space_group_name_H-M   'P 1'
_cell_length_a   5.91031600
_cell_length_b   6.83546342
_cell_length_c   14.51476520
_cell_angle_alpha   96.88331720
_cell_angle_beta   94.02393720
_cell_angle_gamma   89.91008480
_symmetry_Int_Tables_number   1
_chemical_formula_structural   Zn3In2O6
_chemical_formula_sum   'Zn12 In8 O24'
_cell_volume   580.71731331
_cell_formula_units_Z   4
loop_
 _symmetry_equiv_pos_site_id
 _symmetry_equiv_pos_as_xyz
  1  'x, y, z'
loop_
 _atom_site_type_symbol
 _atom_site_label
 _atom_site_symmetry_multiplicity
 _atom_site_fract_x
 _atom_site_fract_y
 _atom_site_fract_z
 _atom_site_occupancy
  Zn  Zn0  1  0.12964000  0.19303500  0.78572900  1
  Zn  Zn1  1  0.06246200  0.10157100  0.40449300  1
  Zn  Zn2  1  0.62752600  0.44881300  0.78529400  1
  Zn  Zn3  1  0.56699600  0.35071200  0.40548600  1
  Zn  Zn4  1  0.86882100  0.30773000  0.21141000  1
  Zn  Zn5  1  0.13413100  0.70007800  0.78748800  1
  Zn  Zn6  1  0.43289100  0.65836400  0.60520700  1
  Zn  Zn7  1  0.37184900  0.55325700  0.21487300  1
  Zn  Zn8  1  0.63308200  0.94309400  0.78511400  1
  Zn  Zn9  1  0.56995700  0.85137800  0.40787800  1
  Zn  Zn10  1  0.93236600  0.89494400  0.60533000  1
  Zn  Zn11  1  0.86802200  0.79971300  0.21488100  1
  In  In0  1  0.99656400  0.99923100  0.99797900  1
  In  In1  1  0.43326700  0.13805900  0.59188800  1
  In  In2  1  0.50038600  0.25065400  0.99741600  1
  In  In3  1  0.36982600  0.05578200  0.22279800  1
  In  In4  1  0.00119800  0.50041200  0.00013900  1
  In  In5  1  0.93133400  0.40510600  0.59424100  1
  In  In6  1  0.07155500  0.60674100  0.40617600  1
  In  In7  1  0.50103500  0.74744500  0.99848200  1
  O  O0  1  0.08493600  0.13157900  0.57637200  1
  O  O1  1  0.15414000  0.23044900  0.92496400  1
  O  O2  1  0.45855300  0.18514400  0.74547000  1
  O  O3  1  0.02735600  0.06688500  0.25401000  1
  O  O4  1  0.39998700  0.10515900  0.42024000  1
  O  O5  1  0.34529300  0.01947500  0.07424000  1
  O  O6  1  0.58020000  0.40368000  0.57535200  1
  O  O7  1  0.65634100  0.48088700  0.92427900  1
  O  O8  1  0.95875600  0.43861200  0.74565900  1
  O  O9  1  0.55208000  0.32130300  0.25516000  1
  O  O10  1  0.90091400  0.35273900  0.43364000  1
  O  O11  1  0.84549900  0.26811200  0.07287100  1
  O  O12  1  0.10579600  0.65532700  0.56839500  1
  O  O13  1  0.15445100  0.73130600  0.92635300  1
  O  O14  1  0.04420900  0.56072100  0.25200200  1
  O  O15  1  0.45589000  0.68756600  0.74775500  1
  O  O16  1  0.34777800  0.51765300  0.07428400  1
  O  O17  1  0.41857000  0.60377200  0.41628300  1
  O  O18  1  0.60715600  0.87880700  0.57317300  1
  O  O19  1  0.65108000  0.98017900  0.92485800  1
  O  O20  1  0.95856000  0.93490300  0.74817800  1
  O  O21  1  0.54698200  0.80466100  0.25323500  1
  O  O22  1  0.89666000  0.86547900  0.41638300  1
  O  O23  1  0.84590500  0.76948400  0.07454800  1
loop_
_geom_bond_atom_site_label_1
_geom_bond_atom_site_label_2
_geom_bond_distance
_geom_bond_site_symmetry_2
In0 O19 2.230779 1_555
In0 O13 2.231601 1_655
In0 O11 2.238073 1_566
In0 O1 2.243454 1_665
In0 O23 2.248539 1_556
In0 O5 2.266388 1_666
In1 O18 2.046578 1_545
In1 O0 2.055223 1_555
In1 O6 2.060820 1_555
In1 O2 2.208326 1_555
In1 O4 2.468512 1_555
In2 O1 2.230891 1_555
In2 O19 2.231661 1_545
In2 O7 2.235072 1_555
In2 O11 2.242794 1_556
In2 O16 2.244372 1_556
In2 O5 2.269602 1_556
In3 O21 2.085465 1_545
In3 O9 2.099002 1_555
In3 O3 2.104276 1_555
In3 O5 2.135449 1_555
In4 O13 2.236997 1_554
In4 O11 2.241738 1_455
In4 O16 2.242540 1_555
In4 O7 2.243921 1_454
In4 O23 2.247073 1_455
In4 O1 2.250217 1_554
In5 O0 2.073316 1_655
In5 O6 2.074067 1_555
In5 O12 2.083979 1_655
In5 O8 2.176811 1_555
In5 O10 2.309933 1_555
In6 O22 2.042383 1_455
In6 O17 2.046157 1_555
In6 O10 2.101987 1_455
In6 O14 2.216639 1_555
In6 O12 2.332628 1_555
In7 O13 2.230766 1_555
In7 O7 2.232833 1_555
In7 O19 2.236991 1_555
In7 O23 2.245344 1_556
In7 O16 2.248733 1_556
In7 O5 2.271690 1_566
O0 Zn10 1.956238 1_445
O0 Zn1 2.472768 1_555
O1 Zn0 2.001456 1_555
O2 Zn2 2.062692 1_555
O2 Zn8 2.066916 1_545
O2 Zn0 2.067602 1_555
O3 Zn4 2.031844 1_455
O3 Zn11 2.055792 1_445
O3 Zn1 2.163914 1_555
O4 Zn3 1.989588 1_555
O4 Zn1 1.991784 1_555
O4 Zn9 1.998952 1_545
O6 Zn6 1.960572 1_555
O6 Zn3 2.444443 1_555
O7 Zn2 1.998148 1_555
O8 Zn5 2.072347 1_655
O8 Zn2 2.077578 1_555
O8 Zn0 2.079034 1_655
O9 Zn4 2.017069 1_555
O9 Zn7 2.029778 1_555
O9 Zn3 2.162636 1_555
O10 Zn1 1.978799 1_655
O10 Zn3 1.986874 1_555
O11 Zn4 1.991629 1_555
O12 Zn6 1.968710 1_555
O12 Zn10 1.970320 1_455
O13 Zn5 1.996392 1_555
O14 Zn4 2.021850 1_455
O14 Zn11 2.042124 1_455
O14 Zn7 2.045107 1_555
O15 Zn5 2.024341 1_555
O15 Zn2 2.029703 1_555
O15 Zn8 2.034849 1_555
O15 Zn6 2.049612 1_555
O16 Zn7 2.020868 1_555
O17 Zn3 1.932827 1_555
O17 Zn9 1.936383 1_555
O18 Zn10 1.945992 1_555
O18 Zn6 1.946168 1_555
O18 Zn9 2.378658 1_555
O19 Zn8 2.009065 1_555
O20 Zn5 2.027315 1_655
O20 Zn8 2.031822 1_555
O20 Zn0 2.032363 1_665
O20 Zn10 2.053513 1_555
O21 Zn7 2.007463 1_555
O21 Zn11 2.013678 1_555
O21 Zn9 2.223561 1_555
O22 Zn1 1.920904 1_665
O22 Zn9 1.928018 1_555
O23 Zn11 2.017568 1_555
