# generated using pymatgen
data_Li7Fe8(BO3)8
_symmetry_space_group_name_H-M   'P 1'
_cell_length_a   5.23065500
_cell_length_b   9.07743723
_cell_length_c   11.44599833
_cell_angle_alpha   112.36394928
_cell_angle_beta   102.92150033
_cell_angle_gamma   89.95164461
_symmetry_Int_Tables_number   1
_chemical_formula_structural   Li7Fe8(BO3)8
_chemical_formula_sum   'Li7 Fe8 B8 O24'
_cell_volume   487.71936653
_cell_formula_units_Z   1
loop_
 _symmetry_equiv_pos_site_id
 _symmetry_equiv_pos_as_xyz
  1  'x, y, z'
loop_
 _atom_site_type_symbol
 _atom_site_label
 _atom_site_symmetry_multiplicity
 _atom_site_fract_x
 _atom_site_fract_y
 _atom_site_fract_z
 _atom_site_occupancy
  Li  Li0  1  0.03319600  0.04084400  0.41544700  1
  Li  Li1  1  0.29511400  0.28312500  0.91210700  1
  Li  Li2  1  0.48666300  0.50692800  0.66443900  1
  Li  Li3  1  0.26943400  0.24961600  0.16842400  1
  Li  Li4  1  0.79180900  0.78059400  0.90569600  1
  Li  Li5  1  0.98403300  0.00351300  0.66379200  1
  Li  Li6  1  0.76718700  0.74681500  0.16626600  1
  Fe  Fe0  1  0.01316600  0.36281100  0.38180500  1
  Fe  Fe1  1  0.26518300  0.93647800  0.88034000  1
  Fe  Fe2  1  0.49373900  0.15484500  0.63536400  1
  Fe  Fe3  1  0.24972900  0.56578200  0.13235000  1
  Fe  Fe4  1  0.77118400  0.44092200  0.88464700  1
  Fe  Fe5  1  0.52085200  0.84402100  0.38548500  1
  Fe  Fe6  1  0.96424600  0.65361400  0.62436300  1
  Fe  Fe7  1  0.74500200  0.06318000  0.12915900  1
  B  B0  1  0.02788200  0.68863000  0.37428100  1
  B  B1  1  0.26950600  0.60139800  0.87688300  1
  B  B2  1  0.47726800  0.81701000  0.63418300  1
  B  B3  1  0.23669600  0.89624700  0.12584500  1
  B  B4  1  0.50931900  0.18234400  0.37742000  1
  B  B5  1  0.76904600  0.10318400  0.87667500  1
  B  B6  1  0.97533100  0.31083900  0.62229300  1
  B  B7  1  0.73130000  0.39773300  0.12818500  1
  O  O0  1  0.02589400  0.10573200  0.86339500  1
  O  O1  1  0.11125100  0.71221100  0.84740400  1
  O  O2  1  0.16976100  0.48927800  0.91472700  1
  O  O3  1  0.08834800  0.17197900  0.61475600  1
  O  O4  1  0.09422200  0.42043300  0.58373200  1
  O  O5  1  0.23322100  0.84347700  0.66564900  1
  O  O6  1  0.26070600  0.66168100  0.33640700  1
  O  O7  1  0.52668400  0.60141900  0.86341000  1
  O  O8  1  0.60489700  0.21168100  0.84622500  1
  O  O9  1  0.41670000  0.07384800  0.41832200  1
  O  O10  1  0.35357300  0.29815500  0.35797900  1
  O  O11  1  0.67326500  0.99449200  0.91952600  1
  O  O12  1  0.34015200  0.01749600  0.09712500  1
  O  O13  1  0.60038500  0.68537600  0.63923300  1
  O  O14  1  0.59633000  0.92605200  0.59875400  1
  O  O15  1  0.39874500  0.79109900  0.15983700  1
  O  O16  1  0.46238800  0.37498400  0.11051400  1
  O  O17  1  0.74162600  0.34501500  0.66269900  1
  O  O18  1  0.76416800  0.17638100  0.35147100  1
  O  O19  1  0.92694600  0.57929700  0.41664900  1
  O  O20  1  0.89513600  0.81832600  0.36806400  1
  O  O21  1  0.83860100  0.51257900  0.09573300  1
  O  O22  1  0.89743400  0.30020400  0.17701400  1
  O  O23  1  0.96665000  0.88104800  0.11644500  1
loop_
_geom_bond_atom_site_label_1
_geom_bond_atom_site_label_2
_geom_bond_distance
_geom_bond_site_symmetry_2
Li0 O20 1.972122 1_445
Li0 O9 2.019597 1_555
Li0 O18 2.062022 1_455
Li0 O3 2.084286 1_555
Li1 O8 1.946117 1_555
Li1 O0 1.963755 1_555
Li1 O2 1.974018 1_555
Li1 O16 2.071160 1_556
Li2 O13 1.869492 1_555
Li2 O17 1.981268 1_555
Li2 O7 2.065613 1_555
Li2 O4 2.070317 1_555
Li3 O16 1.904792 1_555
Li3 O10 1.985196 1_555
Li3 O22 2.014048 1_455
Li3 O12 2.016845 1_555
Li4 O1 1.950394 1_655
Li4 O7 1.976695 1_555
Li4 O11 1.996872 1_555
Li4 O23 2.197192 1_556
Li5 O3 1.934641 1_655
Li5 O5 1.953879 1_645
Li5 O14 2.022386 1_545
Li5 O0 2.071711 1_655
Li6 O23 1.922348 1_555
Li6 O15 1.959300 1_555
Li6 O21 2.034588 1_555
Li6 O20 2.091117 1_555
Fe0 O10 1.919063 1_555
Fe0 O19 1.925292 1_455
Fe0 O18 2.008757 1_455
Fe0 O4 2.106516 1_555
Fe0 O22 2.129832 1_455
Fe1 O0 2.019818 1_565
Fe1 O1 2.053720 1_555
Fe1 O11 2.104453 1_555
Fe1 O5 2.239880 1_555
Fe1 O12 2.242374 1_566
Fe2 O17 2.042154 1_555
Fe2 O14 2.052631 1_545
Fe2 O3 2.092809 1_555
Fe2 O8 2.203325 1_555
Fe2 O9 2.244406 1_555
Fe3 O16 2.022654 1_555
Fe3 O15 2.071985 1_555
Fe3 O21 2.116139 1_455
Fe3 O6 2.146899 1_555
Fe3 O2 2.253892 1_554
Fe4 O7 1.986086 1_555
Fe4 O2 2.055044 1_655
Fe4 O8 2.101369 1_555
Fe4 O21 2.192797 1_556
Fe4 O17 2.318856 1_555
Fe5 O6 1.964986 1_555
Fe5 O20 2.016278 1_555
Fe5 O9 2.069640 1_565
Fe5 O14 2.203509 1_555
Fe5 O15 2.372336 1_555
Fe6 O13 1.959844 1_555
Fe6 O5 2.063989 1_655
Fe6 O4 2.132775 1_655
Fe6 O19 2.172072 1_555
Fe6 O1 2.341160 1_655
Fe7 O23 1.996950 1_545
Fe7 O12 2.080695 1_555
Fe7 O22 2.115597 1_555
Fe7 O11 2.178579 1_544
Fe7 O18 2.331777 1_555
B0 O6 1.373232 1_555
B0 O20 1.383297 1_455
B0 O19 1.407316 1_455
B1 O7 1.387865 1_555
B1 O2 1.390368 1_555
B1 O1 1.393864 1_555
B2 O13 1.371296 1_555
B2 O14 1.396953 1_555
B2 O5 1.398644 1_555
B3 O15 1.383691 1_555
B3 O23 1.395307 1_455
B3 O12 1.402917 1_565
B4 O9 1.370018 1_555
B4 O10 1.383414 1_555
B4 O18 1.425771 1_555
B5 O0 1.386595 1_655
B5 O11 1.394279 1_545
B5 O8 1.398073 1_555
B6 O3 1.372788 1_655
B6 O17 1.395527 1_555
B6 O4 1.424488 1_655
B7 O16 1.379676 1_555
B7 O21 1.388777 1_555
B7 O22 1.417502 1_555
