# generated using pymatgen
data_NiH44C12N8(ClO5)2
_symmetry_space_group_name_H-M   'P 1'
_cell_length_a   9.39967700
_cell_length_b   9.44952548
_cell_length_c   9.50482514
_cell_angle_alpha   119.55337449
_cell_angle_beta   93.94874007
_cell_angle_gamma   101.19505858
_symmetry_Int_Tables_number   1
_chemical_formula_structural   NiH44C12N8(ClO5)2
_chemical_formula_sum   'Ni1 H44 C12 N8 Cl2 O10'
_cell_volume   706.89581127
_cell_formula_units_Z   1
loop_
 _symmetry_equiv_pos_site_id
 _symmetry_equiv_pos_as_xyz
  1  'x, y, z'
loop_
 _atom_site_type_symbol
 _atom_site_label
 _atom_site_symmetry_multiplicity
 _atom_site_fract_x
 _atom_site_fract_y
 _atom_site_fract_z
 _atom_site_occupancy
  Ni  Ni0  1  0.00000000  0.00000000  0.00000000  1
  H  H0  1  0.86351100  0.52202600  0.18696500  1
  H  H1  1  0.13648900  0.47797400  0.81303500  1
  H  H2  1  0.80657800  0.61379800  0.22019000  1
  H  H3  1  0.19342200  0.38620200  0.77981000  1
  H  H4  1  0.87634300  0.37885300  0.67925900  1
  H  H5  1  0.12365700  0.62114700  0.32074100  1
  H  H6  1  0.80742100  0.08019800  0.80330400  1
  H  H7  1  0.19257900  0.91980200  0.19669600  1
  H  H8  1  0.79691500  0.37866700  0.85473000  1
  H  H9  1  0.20308500  0.62133300  0.14527000  1
  H  H10  1  0.88110600  0.19082500  0.02919800  1
  H  H11  1  0.11889400  0.80917500  0.97080200  1
  H  H12  1  0.54816600  0.64342300  0.67248300  1
  H  H13  1  0.45183400  0.35657700  0.32751700  1
  H  H14  1  0.66754300  0.83690100  0.62895200  1
  H  H15  1  0.33245700  0.16309900  0.37104800  1
  H  H16  1  0.58843500  0.94527000  0.77731900  1
  H  H17  1  0.41156500  0.05473000  0.22268100  1
  H  H18  1  0.70440800  0.04896900  0.68056800  1
  H  H19  1  0.29559200  0.95103100  0.31943200  1
  H  H20  1  0.98529800  0.19672200  0.62544700  1
  H  H21  1  0.01470200  0.80327800  0.37455300  1
  H  H22  1  0.14373500  0.33244600  0.63009200  1
  H  H23  1  0.85626500  0.66755400  0.36990800  1
  H  H24  1  0.36205000  0.38328500  0.56169600  1
  H  H25  1  0.63795000  0.61671500  0.43830400  1
  H  H26  1  0.36983500  0.29655800  0.49925500  1
  H  H27  1  0.63016500  0.70344200  0.50074500  1
  H  H28  1  0.36145800  0.65843800  0.99080700  1
  H  H29  1  0.63854200  0.34156200  0.00919300  1
  H  H30  1  0.36143600  0.02211300  0.84042800  1
  H  H31  1  0.63856400  0.97788700  0.15957200  1
  H  H32  1  0.99206300  0.07809100  0.54552100  1
  H  H33  1  0.00793700  0.92190900  0.45447900  1
  H  H34  1  0.15712500  0.11753900  0.49213800  1
  H  H35  1  0.84287500  0.88246100  0.50786200  1
  H  H36  1  0.36885500  0.53824800  0.90991700  1
  H  H37  1  0.63114500  0.46175200  0.09008300  1
  H  H38  1  0.37182500  0.81093300  0.69948200  1
  H  H39  1  0.62817500  0.18906700  0.30051800  1
  H  H40  1  0.15097300  0.48414500  0.98211300  1
  H  H41  1  0.84902700  0.51585500  0.01788700  1
  H  H42  1  0.98897900  0.71666900  0.82491800  1
  H  H43  1  0.01102100  0.28333100  0.17508200  1
  C  C0  1  0.10650800  0.18485500  0.65205400  1
  C  C1  1  0.89349200  0.81514500  0.34794600  1
  C  C2  1  0.32620000  0.23899900  0.58084500  1
  C  C3  1  0.67380000  0.76100100  0.41915500  1
  C  C4  1  0.32318900  0.87583600  0.86140800  1
  C  C5  1  0.67681100  0.12416400  0.13859200  1
  C  C6  1  0.11353700  0.06179300  0.57291100  1
  C  C7  1  0.88646300  0.93820700  0.42708900  1
  C  C8  1  0.32937800  0.75511300  0.78082300  1
  C  C9  1  0.67062200  0.24488700  0.21917700  1
  C  C10  1  0.11022700  0.70025300  0.85337500  1
  C  C11  1  0.88977300  0.29974700  0.14662500  1
  N  N0  1  0.16300800  0.26417600  0.54055400  1
  N  N1  1  0.83699200  0.73582400  0.45944600  1
  N  N2  1  0.38422100  0.94941000  0.75406700  1
  N  N3  1  0.61577900  0.05059000  0.24593300  1
  N  N4  1  0.15976100  0.89523800  0.82687800  1
  N  N5  1  0.84023900  0.10476200  0.17312200  1
  N  N6  1  0.16621700  0.76925700  0.74595400  1
  N  N7  1  0.83378300  0.23074300  0.25404600  1
  Cl  Cl0  1  0.68890500  0.29273500  0.44141100  1
  Cl  Cl1  1  0.31109500  0.70726500  0.55858900  1
  O  O0  1  0.84730300  0.68833600  0.13855000  1
  O  O1  1  0.15269700  0.31166400  0.86145000  1
  O  O2  1  0.88365000  0.17719600  0.79782200  1
  O  O3  1  0.11635000  0.82280400  0.20217800  1
  O  O4  1  0.88906100  0.25925000  0.93940100  1
  O  O5  1  0.11093900  0.74075000  0.06059900  1
  O  O6  1  0.65268100  0.64206800  0.70579200  1
  O  O7  1  0.34731900  0.35793200  0.29420800  1
  O  O8  1  0.69733600  0.94530900  0.78277700  1
  O  O9  1  0.30266400  0.05469100  0.21722300  1
loop_
_geom_bond_atom_site_label_1
_geom_bond_atom_site_label_2
_geom_bond_distance
_geom_bond_site_symmetry_2
H0 H2 1.035123 1_555
H1 H3 1.035123 1_555
H2 H23 1.266679 1_555
H2 O0 1.311547 1_555
H3 O1 1.311547 1_555
H6 O2 1.074007 1_555
H6 O8 1.395788 1_545
H7 O3 1.074007 1_555
H7 O9 1.395788 1_565
H10 O4 1.298670 1_554
H10 Ni0 2.215645 1_655
H11 O5 1.298670 1_556
H11 Ni0 2.215645 1_566
H12 O6 1.015661 1_555
H13 O7 1.015661 1_555
H14 H27 1.204913 1_555
H14 O8 1.272881 1_555
H15 H26 1.204913 1_555
H15 O9 1.272881 1_555
H16 O8 1.021293 1_555
H17 O9 1.021293 1_555
H18 H6 1.333963 1_555
H18 O8 1.682266 1_545
H19 H7 1.333963 1_555
H19 O9 1.682266 1_565
H20 H32 1.015906 1_555
H21 H33 1.015906 1_555
H22 N0 0.835638 1_555
H22 H3 1.266679 1_555
H23 N1 0.835638 1_555
H24 H26 0.760711 1_555
H25 H27 0.760711 1_555
H28 H36 1.030773 1_555
H29 H37 1.030773 1_555
H30 N2 0.846574 1_545
H31 N3 0.846574 1_565
H34 N0 1.213495 1_555
H35 N1 1.213495 1_555
H38 N2 1.121513 1_555
H39 N3 1.121513 1_555
H40 O1 1.463183 1_555
H41 O0 1.463183 1_555
C0 C6 1.047028 1_555
C0 H20 1.188493 1_455
C0 H32 1.273258 1_455
C0 H34 1.484810 1_555
C0 H3 1.656100 1_555
C0 O1 1.706430 1_555
C1 C7 1.047028 1_555
C1 H21 1.188493 1_655
C1 H33 1.273258 1_655
C1 H35 1.484810 1_555
C1 H2 1.656100 1_555
C1 O0 1.706430 1_555
C2 H26 1.199472 1_555
C2 H24 1.442385 1_555
C2 H34 1.645136 1_555
C2 N0 1.645280 1_555
C3 H27 1.199472 1_555
C3 H25 1.442385 1_555
C3 H35 1.645136 1_555
C3 N1 1.645280 1_555
C4 C8 1.030234 1_555
C4 H30 1.472564 1_565
C4 H38 1.492826 1_555
C4 N2 1.574439 1_555
C4 N6 1.582824 1_555
C4 N4 1.612585 1_555
C5 C9 1.030234 1_555
C5 H31 1.472564 1_545
C5 H39 1.492826 1_555
C5 N3 1.574439 1_555
C5 N7 1.582824 1_555
C5 N5 1.612585 1_555
C6 H34 1.180354 1_555
C6 H32 1.209186 1_455
C6 H33 1.366922 1_545
C7 H35 1.180354 1_555
C7 H33 1.209186 1_655
C7 H32 1.366922 1_565
C8 H38 1.182457 1_555
C8 N6 1.591573 1_555
C9 H39 1.182457 1_555
C9 N7 1.591573 1_555
C10 H11 1.064625 1_555
C10 H42 1.209836 1_455
C10 N6 1.530405 1_555
C11 H10 1.064625 1_555
C11 H43 1.209836 1_655
C11 N7 1.530405 1_555
N4 N6 1.069442 1_555
N4 Ni0 2.292036 1_566
N5 N7 1.069442 1_555
N5 Ni0 2.292036 1_655
Cl0 H39 1.209267 1_555
Cl1 H38 1.209267 1_555
