# generated using pymatgen
data_NdAsPd
_symmetry_space_group_name_H-M   'P 1'
_cell_length_a   4.35924073
_cell_length_b   4.35924127
_cell_length_c   7.83054820
_cell_angle_alpha   90.00000000
_cell_angle_beta   90.00000000
_cell_angle_gamma   120.00001156
_symmetry_Int_Tables_number   1
_chemical_formula_structural   NdAsPd
_chemical_formula_sum   'Nd2 As2 Pd2'
_cell_volume   128.86782773
_cell_formula_units_Z   2
loop_
 _symmetry_equiv_pos_site_id
 _symmetry_equiv_pos_as_xyz
  1  'x, y, z'
loop_
 _atom_site_type_symbol
 _atom_site_label
 _atom_site_symmetry_multiplicity
 _atom_site_fract_x
 _atom_site_fract_y
 _atom_site_fract_z
 _atom_site_occupancy
  Nd  Nd0  1  -0.00000000  -0.00000000  0.49988547  1
  Nd  Nd1  1  -0.00000000  -0.00000000  0.99988547  1
  As  As0  1  0.66666700  0.33333300  0.25951736  1
  As  As1  1  0.33333300  0.66666700  0.75951736  1
  Pd  Pd0  1  0.33333300  0.66666700  0.23989818  1
  Pd  Pd1  1  0.66666700  0.33333300  0.73989818  1
loop_
_geom_bond_atom_site_label_1
_geom_bond_atom_site_label_2
_geom_bond_distance
_geom_bond_site_symmetry_2
Nd0 Pd1 3.141111 1_455
Nd0 Pd1 3.141113 1_555
Nd0 Pd1 3.141114 1_445
Nd0 Pd0 3.237124 1_545
Nd0 Pd0 3.237127 1_445
Nd0 Pd0 3.237127 1_555
Nd1 Pd0 3.141111 1_546
Nd1 Pd0 3.141113 1_446
Nd1 Pd0 3.141114 1_556
Nd1 Pd1 3.237124 1_455
Nd1 Pd1 3.237127 1_555
Nd1 Pd1 3.237127 1_445
As0 Pd0 2.521490 1_655
As0 Pd0 2.521491 1_545
As0 Pd0 2.521499 1_555
As0 Nd0 3.142777 1_655
As0 Nd0 3.142779 1_555
As0 Nd0 3.142779 1_665
As0 Nd1 3.235375 1_654
As0 Nd1 3.235377 1_554
As0 Nd1 3.235377 1_664
As1 Pd1 2.521490 1_455
As1 Pd1 2.521491 1_565
As1 Pd1 2.521499 1_555
As1 Nd1 3.142777 1_565
As1 Nd1 3.142779 1_665
As1 Nd1 3.142779 1_555
As1 Nd0 3.235375 1_565
As1 Nd0 3.235377 1_665
As1 Nd0 3.235377 1_555
