# generated using pymatgen
data_Tm2TlAg
_symmetry_space_group_name_H-M   'P 1'
_cell_length_a   5.15443643
_cell_length_b   5.15443643
_cell_length_c   5.15443643
_cell_angle_alpha   60.00000000
_cell_angle_beta   60.00000000
_cell_angle_gamma   60.00000000
_symmetry_Int_Tables_number   1
_chemical_formula_structural   Tm2TlAg
_chemical_formula_sum   'Tm2 Tl1 Ag1'
_cell_volume   96.83415443
_cell_formula_units_Z   1
loop_
 _symmetry_equiv_pos_site_id
 _symmetry_equiv_pos_as_xyz
  1  'x, y, z'
loop_
 _atom_site_type_symbol
 _atom_site_label
 _atom_site_symmetry_multiplicity
 _atom_site_fract_x
 _atom_site_fract_y
 _atom_site_fract_z
 _atom_site_occupancy
  Tm  Tm0  1  0.00000000  0.00000000  0.00000000  1
  Tm  Tm1  1  0.49999900  0.49999900  0.49999900  1
  Tl  Tl0  1  0.74999900  0.74999900  0.74999900  1
  Ag  Ag0  1  0.25000000  0.25000000  0.25000000  1
loop_
_geom_bond_atom_site_label_1
_geom_bond_atom_site_label_2
_geom_bond_distance
_geom_bond_site_symmetry_2
Tl0 Tm0 3.156431 1_656
Tl0 Tm0 3.156431 1_665
Tl0 Tm0 3.156431 1_566
Tl0 Tm1 3.156435 1_556
Tl0 Tm1 3.156435 1_565
Tl0 Tm1 3.156435 1_655
Tl0 Tm1 3.156435 1_555
Tl0 Tm0 3.156447 1_666
Ag0 Tm1 3.156422 1_555
Ag0 Tm0 3.156435 1_565
Ag0 Tm0 3.156435 1_655
Ag0 Tm0 3.156435 1_555
Ag0 Tm0 3.156435 1_556
Ag0 Tm1 3.156439 1_455
Ag0 Tm1 3.156439 1_545
Ag0 Tm1 3.156439 1_554
