# generated using pymatgen
data_Ca2Tl2O5
_symmetry_space_group_name_H-M   'P 1'
_cell_length_a   13.54426326
_cell_length_b   5.86272308
_cell_length_c   6.70660748
_cell_angle_alpha   73.47793302
_cell_angle_beta   90.00000000
_cell_angle_gamma   90.00000000
_symmetry_Int_Tables_number   1
_chemical_formula_structural   Ca2Tl2O5
_chemical_formula_sum   'Ca8 Tl8 O20'
_cell_volume   510.55794640
_cell_formula_units_Z   4
loop_
 _symmetry_equiv_pos_site_id
 _symmetry_equiv_pos_as_xyz
  1  'x, y, z'
loop_
 _atom_site_type_symbol
 _atom_site_label
 _atom_site_symmetry_multiplicity
 _atom_site_fract_x
 _atom_site_fract_y
 _atom_site_fract_z
 _atom_site_occupancy
  Ca  Ca0  1  0.11209118  0.54663707  0.86435268  1
  Ca  Ca1  1  0.76085157  0.94082379  0.76290238  1
  Ca  Ca2  1  0.88790882  0.45336293  0.13564732  1
  Ca  Ca3  1  0.23914843  0.05917621  0.23709762  1
  Ca  Ca4  1  0.38790882  0.54663707  0.36435268  1
  Ca  Ca5  1  0.73914843  0.94082379  0.26290238  1
  Ca  Ca6  1  0.26085157  0.05917621  0.73709762  1
  Ca  Ca7  1  0.61209118  0.45336293  0.63564732  1
  Tl  Tl0  1  0.38587983  0.54260749  0.86249670  1
  Tl  Tl1  1  -0.00000000  0.00000000  -0.00000000  1
  Tl  Tl2  1  0.61412017  0.45739251  0.13750330  1
  Tl  Tl3  1  0.50000000  0.00000000  -0.00000000  1
  Tl  Tl4  1  0.11412017  0.54260749  0.36249670  1
  Tl  Tl5  1  0.50000000  0.00000000  0.50000000  1
  Tl  Tl6  1  0.88587983  0.45739251  0.63750330  1
  Tl  Tl7  1  -0.00000000  0.00000000  0.50000000  1
  O  O0  1  0.64319999  0.16524101  0.95894483  1
  O  O1  1  0.85532883  0.15862579  0.96292962  1
  O  O2  1  0.25516314  0.34255488  0.91798559  1
  O  O3  1  0.94697155  0.72405572  0.82125895  1
  O  O4  1  0.53730849  0.70407700  0.82110817  1
  O  O5  1  0.05302845  0.27594428  0.17874105  1
  O  O6  1  0.74483686  0.65744512  0.08201441  1
  O  O7  1  0.35680001  0.83475899  0.04105517  1
  O  O8  1  0.14467117  0.84137421  0.03707038  1
  O  O9  1  0.46269151  0.29592300  0.17889183  1
  O  O10  1  0.85680001  0.16524101  0.45894483  1
  O  O11  1  0.64467117  0.15862579  0.46292962  1
  O  O12  1  0.55302845  0.72405572  0.32125895  1
  O  O13  1  0.24483686  0.34255488  0.41798559  1
  O  O14  1  0.96269151  0.70407700  0.32110817  1
  O  O15  1  0.03730849  0.29592300  0.67889183  1
  O  O16  1  0.44697155  0.27594428  0.67874105  1
  O  O17  1  0.14319999  0.83475899  0.54105517  1
  O  O18  1  0.35532883  0.84137421  0.53707038  1
  O  O19  1  0.75516314  0.65744512  0.58201441  1
loop_
_geom_bond_atom_site_label_1
_geom_bond_atom_site_label_2
_geom_bond_distance
_geom_bond_site_symmetry_2
Ca0 O2 2.251942 1_555
Ca0 O17 2.376751 1_555
Ca0 O8 2.379241 1_556
Ca0 O5 2.387676 1_556
Ca0 O15 2.402779 1_555
Ca0 O3 2.448686 1_455
Ca1 O6 2.316283 1_556
Ca1 O19 2.320378 1_555
Ca1 O1 2.458022 1_565
Ca1 O10 2.459672 1_565
Ca1 O11 2.587061 1_565
Ca1 O0 2.642507 1_565
Ca1 O3 2.800012 1_555
Ca2 O6 2.251942 1_555
Ca2 O10 2.376751 1_555
Ca2 O1 2.379241 1_554
Ca2 O3 2.387676 1_554
Ca2 O14 2.402779 1_555
Ca2 O5 2.448686 1_655
Ca3 O2 2.316283 1_554
Ca3 O13 2.320378 1_555
Ca3 O8 2.458022 1_545
Ca3 O17 2.459672 1_545
Ca3 O18 2.587061 1_545
Ca3 O7 2.642507 1_545
Ca3 O5 2.800012 1_555
Ca4 O13 2.251942 1_555
Ca4 O7 2.376751 1_555
Ca4 O18 2.379241 1_555
Ca4 O16 2.387676 1_555
Ca4 O9 2.402779 1_555
Ca4 O12 2.448686 1_555
Ca5 O19 2.316283 1_555
Ca5 O6 2.320378 1_555
Ca5 O11 2.458022 1_565
Ca5 O0 2.459672 1_564
Ca5 O1 2.587061 1_564
Ca5 O10 2.642507 1_565
Ca5 O12 2.800012 1_555
Ca6 O13 2.316283 1_555
Ca6 O2 2.320378 1_555
Ca6 O18 2.458022 1_545
Ca6 O7 2.459672 1_546
Ca6 O8 2.587061 1_546
Ca6 O17 2.642507 1_545
Ca6 O16 2.800012 1_555
Ca7 O19 2.251942 1_555
Ca7 O0 2.376751 1_555
Ca7 O11 2.379241 1_555
Ca7 O12 2.387676 1_555
Ca7 O4 2.402779 1_555
Ca7 O16 2.448686 1_555
O0 Tl3 2.150444 1_556
O0 Tl2 2.385266 1_556
O1 Tl1 2.152828 1_656
O1 Tl6 2.414186 1_555
O2 Tl0 2.097703 1_555
O3 Tl1 2.381827 1_666
O3 Tl6 2.396534 1_555
O3 Tl7 2.406802 1_665
O4 Tl0 2.242833 1_555
O4 Tl5 2.403745 1_565
O4 Tl3 2.426638 1_566
O4 Tl2 2.435390 1_556
O5 Tl1 2.381827 1_555
O5 Tl4 2.396534 1_555
O5 Tl7 2.406802 1_555
O6 Tl2 2.097703 1_555
O7 Tl3 2.150444 1_565
O7 Tl0 2.385266 1_554
O8 Tl1 2.152828 1_565
O8 Tl4 2.414186 1_555
O9 Tl2 2.242833 1_555
O9 Tl5 2.403745 1_555
O9 Tl3 2.426638 1_555
O9 Tl0 2.435390 1_554
O10 Tl7 2.150444 1_655
O10 Tl6 2.385266 1_555
O11 Tl5 2.152828 1_555
O11 Tl2 2.414186 1_555
O12 Tl5 2.381827 1_565
O12 Tl2 2.396534 1_555
O12 Tl3 2.406802 1_565
O13 Tl4 2.097703 1_555
O14 Tl4 2.242833 1_655
O14 Tl1 2.403745 1_665
O14 Tl7 2.426638 1_665
O14 Tl6 2.435390 1_555
O15 Tl6 2.242833 1_455
O15 Tl1 2.403745 1_556
O15 Tl7 2.426638 1_555
O15 Tl4 2.435390 1_555
O16 Tl5 2.381827 1_555
O16 Tl0 2.396534 1_555
O16 Tl3 2.406802 1_556
O17 Tl7 2.150444 1_565
O17 Tl4 2.385266 1_555
O18 Tl5 2.152828 1_565
O18 Tl0 2.414186 1_555
O19 Tl6 2.097703 1_555
