# generated using pymatgen
data_CoOF
_symmetry_space_group_name_H-M   'P 1'
_cell_length_a   4.49173199
_cell_length_b   4.49173199
_cell_length_c   12.24612207
_cell_angle_alpha   89.92674902
_cell_angle_beta   89.92674902
_cell_angle_gamma   90.14794174
_symmetry_Int_Tables_number   1
_chemical_formula_structural   CoOF
_chemical_formula_sum   'Co8 O8 F8'
_cell_volume   247.07232059
_cell_formula_units_Z   8
loop_
 _symmetry_equiv_pos_site_id
 _symmetry_equiv_pos_as_xyz
  1  'x, y, z'
loop_
 _atom_site_type_symbol
 _atom_site_label
 _atom_site_symmetry_multiplicity
 _atom_site_fract_x
 _atom_site_fract_y
 _atom_site_fract_z
 _atom_site_occupancy
  Co  Co0  1  0.02172500  0.03269500  0.62485400  1
  Co  Co1  1  0.96730500  0.97827500  0.37514600  1
  Co  Co2  1  0.01411200  0.04236900  0.12543500  1
  Co  Co3  1  0.95763100  0.98588800  0.87456500  1
  Co  Co4  1  0.46948900  0.53051100  0.50000000  1
  Co  Co5  1  0.51795400  0.48204600  0.00000000  1
  Co  Co6  1  0.51808300  0.47823500  0.24987200  1
  Co  Co7  1  0.52176500  0.48191700  0.75012800  1
  O  O0  1  0.80884800  0.19115200  0.00000000  1
  O  O1  1  0.81364700  0.18969000  0.25066900  1
  O  O2  1  0.81031000  0.18635300  0.74933100  1
  O  O3  1  0.67384800  0.68778300  0.37526000  1
  O  O4  1  0.69154600  0.67367000  0.87456600  1
  O  O5  1  0.31221700  0.32615200  0.62474000  1
  O  O6  1  0.32633000  0.30845400  0.12543400  1
  O  O7  1  0.17585200  0.82414800  0.50000000  1
  F  F0  1  0.77422400  0.22577600  0.50000000  1
  F  F1  1  0.71511900  0.72594300  0.62589200  1
  F  F2  1  0.72630000  0.71531500  0.12467600  1
  F  F3  1  0.27405700  0.28488100  0.37410800  1
  F  F4  1  0.28468500  0.27370000  0.87532400  1
  F  F5  1  0.20342200  0.79657800  0.00000000  1
  F  F6  1  0.21239000  0.79086000  0.24574100  1
  F  F7  1  0.20914000  0.78761000  0.75425900  1
loop_
_geom_bond_atom_site_label_1
_geom_bond_atom_site_label_2
_geom_bond_distance
_geom_bond_site_symmetry_2
Co0 O5 1.852326 1_555
Co0 O7 1.923234 1_545
Co0 O2 1.924627 1_455
Co0 F1 1.945609 1_445
Co0 F0 2.081287 1_455
Co0 F7 2.106082 1_545
Co1 O3 1.852326 1_555
Co1 O7 1.923234 1_655
Co1 O1 1.924627 1_565
Co1 F3 1.945609 1_665
Co1 F0 2.081287 1_565
Co1 F6 2.106082 1_655
Co2 O6 1.840253 1_555
Co2 O1 1.898112 1_455
Co2 O0 1.913228 1_455
Co2 F2 1.954402 1_445
Co2 F6 2.060168 1_545
Co2 F5 2.075418 1_545
Co3 O4 1.840253 1_555
Co3 O2 1.898112 1_565
Co3 O0 1.913228 1_566
Co3 F4 1.954402 1_665
Co3 F7 2.060168 1_655
Co3 F5 2.075418 1_656
Co4 O7 1.867668 1_555
Co4 O3 1.914532 1_555
Co4 O5 1.914532 1_555
Co4 F0 1.938256 1_555
Co4 F3 2.089850 1_555
Co4 F1 2.089850 1_555
Co5 O0 1.850221 1_555
Co5 O6 1.923137 1_555
Co5 O4 1.923137 1_554
Co5 F5 2.000569 1_555
Co5 F2 2.075433 1_555
Co5 F4 2.075433 1_554
Co6 O1 1.857761 1_555
Co6 O6 1.910124 1_555
Co6 O3 1.932949 1_555
Co6 F6 1.967167 1_555
Co6 F3 2.063454 1_555
Co6 F2 2.084784 1_555
Co7 O2 1.857761 1_555
Co7 O4 1.910124 1_555
Co7 O5 1.932949 1_555
Co7 F7 1.967167 1_555
Co7 F1 2.063454 1_555
Co7 F4 2.084784 1_555
