# generated using pymatgen
data_LiGaCu2
_symmetry_space_group_name_H-M   'P 1'
_cell_length_a   4.11654140
_cell_length_b   4.11654136
_cell_length_c   4.11654140
_cell_angle_alpha   60.00490715
_cell_angle_beta   60.00490948
_cell_angle_gamma   60.00490761
_symmetry_Int_Tables_number   1
_chemical_formula_structural   LiGaCu2
_chemical_formula_sum   'Li1 Ga1 Cu2'
_cell_volume   49.33223416
_cell_formula_units_Z   1
loop_
 _symmetry_equiv_pos_site_id
 _symmetry_equiv_pos_as_xyz
  1  'x, y, z'
loop_
 _atom_site_type_symbol
 _atom_site_label
 _atom_site_symmetry_multiplicity
 _atom_site_fract_x
 _atom_site_fract_y
 _atom_site_fract_z
 _atom_site_occupancy
  Li  Li0  1  0.74999966  0.74999970  0.74999970  1
  Ga  Ga0  1  0.25000014  0.25000015  0.25000015  1
  Cu  Cu0  1  0.49999996  0.49999996  0.49999995  1
  Cu  Cu1  1  0.00000023  0.00000019  0.00000020  1
loop_
_geom_bond_atom_site_label_1
_geom_bond_atom_site_label_2
_geom_bond_distance
_geom_bond_site_symmetry_2
Cu0 Li0 2.520760 1_555
Cu0 Ga0 2.520761 1_555
Cu0 Ga0 2.521013 1_565
Cu0 Ga0 2.521013 1_655
Cu0 Ga0 2.521013 1_556
Cu0 Li0 2.521013 1_545
Cu0 Li0 2.521013 1_554
Cu0 Li0 2.521013 1_455
Cu1 Ga0 2.520762 1_555
Cu1 Li0 2.520768 1_444
Cu1 Li0 2.521010 1_544
Cu1 Li0 2.521011 1_454
Cu1 Li0 2.521011 1_445
Cu1 Ga0 2.521012 1_545
Cu1 Ga0 2.521013 1_554
Cu1 Ga0 2.521013 1_455
