# generated using pymatgen
data_B6H10C2SBr
_symmetry_space_group_name_H-M   'P 1'
_cell_length_a   9.74828600
_cell_length_b   9.89191900
_cell_length_c   19.35530300
_cell_angle_alpha   90.00000000
_cell_angle_beta   90.00000000
_cell_angle_gamma   90.00000000
_symmetry_Int_Tables_number   1
_chemical_formula_structural   B6H10C2SBr
_chemical_formula_sum   'B48 H80 C16 S8 Br8'
_cell_volume   1866.41745828
_cell_formula_units_Z   8
loop_
 _symmetry_equiv_pos_site_id
 _symmetry_equiv_pos_as_xyz
  1  'x, y, z'
loop_
 _atom_site_type_symbol
 _atom_site_label
 _atom_site_symmetry_multiplicity
 _atom_site_fract_x
 _atom_site_fract_y
 _atom_site_fract_z
 _atom_site_occupancy
  B  B0  1  0.01236400  0.38852900  0.36023100  1
  B  B1  1  0.01657200  0.57245400  0.47734600  1
  B  B2  1  0.02012800  0.90047300  0.04915600  1
  B  B3  1  0.05755900  0.03883000  0.10408700  1
  B  B4  1  0.06877100  0.55151400  0.33060600  1
  B  B5  1  0.07212000  0.66432400  0.40320900  1
  B  B6  1  0.13547900  0.32680000  0.42023900  1
  B  B7  1  0.13698200  0.44112000  0.49087200  1
  B  B8  1  0.18948100  0.42020100  0.34696000  1
  B  B9  1  0.19484800  0.60189800  0.46339800  1
  B  B10  1  0.22584200  0.58931900  0.37339800  1
  B  B11  1  0.23161400  0.54935400  0.92825800  1
  B  B12  1  0.26838600  0.45064600  0.42825800  1
  B  B13  1  0.27415800  0.41068100  0.87339800  1
  B  B14  1  0.30515200  0.39810200  0.96339800  1
  B  B15  1  0.31051900  0.57979900  0.84696000  1
  B  B16  1  0.36301800  0.55888000  0.99087200  1
  B  B17  1  0.36452100  0.67320000  0.92023900  1
  B  B18  1  0.42788000  0.33567600  0.90320900  1
  B  B19  1  0.43122900  0.44848600  0.83060600  1
  B  B20  1  0.44244100  0.96117000  0.60408700  1
  B  B21  1  0.47987200  0.09952700  0.54915600  1
  B  B22  1  0.48342800  0.42754600  0.97734600  1
  B  B23  1  0.48763600  0.61147100  0.86023100  1
  B  B24  1  0.51236400  0.11147100  0.63976900  1
  B  B25  1  0.51657200  0.92754600  0.52265400  1
  B  B26  1  0.52012800  0.59952700  0.95084400  1
  B  B27  1  0.55755900  0.46117000  0.89591300  1
  B  B28  1  0.56877100  0.94848600  0.66939400  1
  B  B29  1  0.57212000  0.83567600  0.59679100  1
  B  B30  1  0.63547900  0.17320000  0.57976100  1
  B  B31  1  0.63698200  0.05888000  0.50912800  1
  B  B32  1  0.68948100  0.07979900  0.65304000  1
  B  B33  1  0.69484800  0.89810200  0.53660200  1
  B  B34  1  0.72584200  0.91068100  0.62660200  1
  B  B35  1  0.73161400  0.95064600  0.07174200  1
  B  B36  1  0.76838600  0.04935400  0.57174200  1
  B  B37  1  0.77415800  0.08931900  0.12660200  1
  B  B38  1  0.80515200  0.10189800  0.03660200  1
  B  B39  1  0.81051900  0.92020100  0.15304000  1
  B  B40  1  0.86301800  0.94112000  0.00912800  1
  B  B41  1  0.86452100  0.82680000  0.07976100  1
  B  B42  1  0.92788000  0.16432400  0.09679100  1
  B  B43  1  0.93122900  0.05151400  0.16939400  1
  B  B44  1  0.94244100  0.53883000  0.39591300  1
  B  B45  1  0.97987200  0.40047300  0.45084400  1
  B  B46  1  0.98342800  0.07245400  0.02265400  1
  B  B47  1  0.98763600  0.88852900  0.13976900  1
  H  H0  1  0.03093000  0.54085400  0.62799400  1
  H  H1  1  0.04384300  0.12791300  0.97702100  1
  H  H2  1  0.05012900  0.81319500  0.17634500  1
  H  H3  1  0.05577500  0.88028800  0.87978200  1
  H  H4  1  0.04563200  0.59102700  0.27342500  1
  H  H5  1  0.04891100  0.78254600  0.39697000  1
  H  H6  1  0.06615600  0.40583500  0.68856000  1
  H  H7  1  0.05219000  0.93805700  0.56058800  1
  H  H8  1  0.08483600  0.99080200  0.69412800  1
  H  H9  1  0.08973200  0.57469400  0.08278800  1
  H  H10  1  0.10624000  0.83381800  0.02112700  1
  H  H11  1  0.11600000  0.58302100  0.93925300  1
  H  H12  1  0.16017300  0.20881700  0.42683100  1
  H  H13  1  0.16597600  0.56763600  0.16712100  1
  H  H14  1  0.18186700  0.06177600  0.53862400  1
  H  H15  1  0.19072600  0.89223600  0.50435400  1
  H  H16  1  0.19680800  0.43279900  0.10631400  1
  H  H17  1  0.21588000  0.11488100  0.67471400  1
  H  H18  1  0.24841200  0.98323100  0.73684000  1
  H  H19  1  0.23988100  0.32491300  0.99990300  1
  H  H20  1  0.26011900  0.67508700  0.49990300  1
  H  H21  1  0.25158800  0.01676900  0.23684000  1
  H  H22  1  0.28412000  0.88511900  0.17471400  1
  H  H23  1  0.30319200  0.56720100  0.60631400  1
  H  H24  1  0.30927400  0.10776400  0.00435400  1
  H  H25  1  0.31813300  0.93822400  0.03862400  1
  H  H26  1  0.33402400  0.43236400  0.66712100  1
  H  H27  1  0.33982700  0.79118300  0.92683100  1
  H  H28  1  0.38400000  0.41697900  0.43925300  1
  H  H29  1  0.39376000  0.16618200  0.52112700  1
  H  H30  1  0.41026800  0.42530600  0.58278800  1
  H  H31  1  0.41516400  0.00919800  0.19412800  1
  H  H32  1  0.44781000  0.06194300  0.06058800  1
  H  H33  1  0.43384400  0.59416500  0.18856000  1
  H  H34  1  0.45108900  0.21745400  0.89697000  1
  H  H35  1  0.45436800  0.40897300  0.77342500  1
  H  H36  1  0.44422500  0.11971200  0.37978200  1
  H  H37  1  0.44987100  0.18680500  0.67634500  1
  H  H38  1  0.45615700  0.87208700  0.47702100  1
  H  H39  1  0.46907000  0.45914600  0.12799400  1
  H  H40  1  0.53093000  0.95914600  0.37200600  1
  H  H41  1  0.54384300  0.37208700  0.02297900  1
  H  H42  1  0.55012900  0.68680500  0.82365500  1
  H  H43  1  0.55577500  0.61971200  0.12021800  1
  H  H44  1  0.54563200  0.90897300  0.72657500  1
  H  H45  1  0.54891100  0.71745400  0.60303000  1
  H  H46  1  0.56615600  0.09416500  0.31144000  1
  H  H47  1  0.55219000  0.56194300  0.43941200  1
  H  H48  1  0.58483600  0.50919800  0.30587200  1
  H  H49  1  0.58973200  0.92530600  0.91721200  1
  H  H50  1  0.60624000  0.66618200  0.97887300  1
  H  H51  1  0.61600000  0.91697900  0.06074700  1
  H  H52  1  0.66017300  0.29118300  0.57316900  1
  H  H53  1  0.66597600  0.93236400  0.83287900  1
  H  H54  1  0.68186700  0.43822400  0.46137600  1
  H  H55  1  0.69072600  0.60776400  0.49564600  1
  H  H56  1  0.69680800  0.06720100  0.89368600  1
  H  H57  1  0.71588000  0.38511900  0.32528600  1
  H  H58  1  0.74841200  0.51676900  0.26316000  1
  H  H59  1  0.73988100  0.17508700  0.00009700  1
  H  H60  1  0.76011900  0.82491300  0.50009700  1
  H  H61  1  0.75158800  0.48323100  0.76316000  1
  H  H62  1  0.78412000  0.61488100  0.82528600  1
  H  H63  1  0.80319200  0.93279900  0.39368600  1
  H  H64  1  0.80927400  0.39223600  0.99564600  1
  H  H65  1  0.81813300  0.56177600  0.96137600  1
  H  H66  1  0.83402400  0.06763600  0.33287900  1
  H  H67  1  0.83982700  0.70881700  0.07316900  1
  H  H68  1  0.88400000  0.08302100  0.56074700  1
  H  H69  1  0.89376000  0.33381800  0.47887300  1
  H  H70  1  0.91026800  0.07469400  0.41721200  1
  H  H71  1  0.91516400  0.49080200  0.80587200  1
  H  H72  1  0.94781000  0.43805700  0.93941200  1
  H  H73  1  0.93384400  0.90583500  0.81144000  1
  H  H74  1  0.95108900  0.28254600  0.10303000  1
  H  H75  1  0.95436800  0.09102700  0.22657500  1
  H  H76  1  0.94422500  0.38028800  0.62021800  1
  H  H77  1  0.94987100  0.31319500  0.32365500  1
  H  H78  1  0.95615700  0.62791300  0.52297900  1
  H  H79  1  0.96907000  0.04085400  0.87200600  1
  C  C0  1  0.03959900  0.43153400  0.63493600  1
  C  C1  1  0.16083200  0.95508300  0.54856600  1
  C  C2  1  0.17936000  0.54122000  0.11240700  1
  C  C3  1  0.19533500  0.00994800  0.68874900  1
  C  C4  1  0.30466500  0.99005200  0.18874900  1
  C  C5  1  0.32064000  0.45878000  0.61240700  1
  C  C6  1  0.33916800  0.04491700  0.04856600  1
  C  C7  1  0.46040100  0.56846600  0.13493600  1
  C  C8  1  0.53959900  0.06846600  0.36506400  1
  C  C9  1  0.66083200  0.54491700  0.45143400  1
  C  C10  1  0.67936000  0.95878000  0.88759300  1
  C  C11  1  0.69533500  0.49005200  0.31125100  1
  C  C12  1  0.80466500  0.50994800  0.81125100  1
  C  C13  1  0.82064000  0.04122000  0.38759300  1
  C  C14  1  0.83916800  0.45508300  0.95143400  1
  C  C15  1  0.96040100  0.93153400  0.86506400  1
  S  S0  1  0.17416900  0.36672400  0.58031600  1
  S  S1  1  0.24053800  0.10103700  0.12205500  1
  S  S2  1  0.25946200  0.89896300  0.62205500  1
  S  S3  1  0.32583100  0.63327600  0.08031600  1
  S  S4  1  0.67416900  0.13327600  0.41968400  1
  S  S5  1  0.74053800  0.39896300  0.87794500  1
  S  S6  1  0.75946200  0.60103700  0.37794500  1
  S  S7  1  0.82583100  0.86672400  0.91968400  1
  Br  Br0  1  0.13259900  0.29691400  0.82650200  1
  Br  Br1  1  0.20493400  0.66868900  0.77159600  1
  Br  Br2  1  0.29506600  0.33131100  0.27159600  1
  Br  Br3  1  0.36740100  0.70308600  0.32650200  1
  Br  Br4  1  0.63259900  0.20308600  0.17349800  1
  Br  Br5  1  0.70493400  0.83131100  0.22840400  1
  Br  Br6  1  0.79506600  0.16868900  0.72840400  1
  Br  Br7  1  0.86740100  0.79691400  0.67349800  1
loop_
_geom_bond_atom_site_label_1
_geom_bond_atom_site_label_2
_geom_bond_distance
_geom_bond_site_symmetry_2
B0 H77 1.194832 1_455
B0 B44 1.775406 1_455
B1 H78 1.194958 1_455
B1 B44 1.765540 1_455
B1 B7 1.770340 1_555
B2 H10 1.197381 1_555
B2 B40 1.762829 1_455
B2 B3 1.771062 1_565
B3 B46 1.765540 1_455
B3 B43 1.769216 1_455
B3 B47 1.775406 1_445
B3 B42 1.777365 1_455
B3 S1 1.918671 1_555
B4 H4 1.195223 1_555
B4 B44 1.769216 1_455
B5 H5 1.197233 1_555
B6 H12 1.198457 1_555
B6 B7 1.774274 1_555
B7 B9 1.769283 1_555
B7 S0 1.915750 1_555
B8 Br2 1.990061 1_555
B9 H20 1.195087 1_555
B10 Br3 1.998661 1_555
B11 H11 1.194326 1_555
B11 B16 1.765922 1_555
B12 H28 1.194326 1_555
B12 B7 1.765922 1_555
B13 Br0 1.998661 1_555
B14 H19 1.195087 1_555
B14 B16 1.769283 1_555
B15 Br1 1.990061 1_555
B16 B26 1.762829 1_555
B16 B22 1.770340 1_555
B16 B17 1.774274 1_555
B16 S3 1.915750 1_556
B17 H27 1.198457 1_555
B18 H34 1.197233 1_555
B18 B27 1.777365 1_555
B19 H35 1.195223 1_555
B19 B27 1.769216 1_555
B20 B25 1.765540 1_555
B20 B28 1.769216 1_555
B20 B21 1.771062 1_565
B20 B24 1.775406 1_565
B20 B29 1.777365 1_555
B20 S2 1.918671 1_555
B21 H29 1.197381 1_555
B21 B31 1.762829 1_555
B22 H41 1.194958 1_556
B22 B27 1.765540 1_555
B23 H42 1.194832 1_555
B23 B27 1.775406 1_555
B24 H37 1.194832 1_555
B25 H38 1.194958 1_555
B25 B31 1.770340 1_565
B26 H50 1.197381 1_555
B26 B27 1.771062 1_555
B27 S5 1.918671 1_555
B28 H44 1.195223 1_555
B29 H45 1.197233 1_555
B30 H52 1.198457 1_555
B30 B31 1.774274 1_555
B31 B36 1.765922 1_555
B31 B33 1.769283 1_545
B31 S4 1.915750 1_555
B32 Br6 1.990061 1_555
B33 H60 1.195087 1_555
B34 Br7 1.998661 1_555
B35 H51 1.194326 1_555
B35 B40 1.765922 1_555
B36 H68 1.194326 1_555
B37 Br4 1.998661 1_555
B38 H59 1.195087 1_555
B38 B40 1.769283 1_545
B39 Br5 1.990061 1_555
B40 B46 1.770340 1_565
B40 B41 1.774274 1_555
B40 S7 1.915750 1_554
B41 H67 1.198457 1_555
B42 H74 1.197233 1_555
B43 H75 1.195223 1_555
B44 B45 1.771062 1_555
B44 B5 1.777365 1_655
B44 S6 1.918671 1_555
B45 H69 1.197381 1_555
B45 B7 1.762829 1_655
B46 H1 1.194958 1_654
B47 H2 1.194832 1_655
C0 H0 1.092972 1_555
C0 H76 1.096597 1_455
C0 H6 1.099500 1_555
C0 S0 1.802647 1_555
C1 H14 1.092219 1_565
C1 H15 1.097128 1_555
C1 H7 1.097336 1_555
C1 S2 1.804393 1_555
C2 H16 1.092280 1_555
C2 H9 1.096213 1_555
C2 H13 1.098543 1_555
C2 S3 1.803814 1_555
C3 H17 1.091479 1_555
C3 H18 1.097259 1_545
C3 H8 1.098643 1_545
C3 S2 1.806225 1_545
C4 H22 1.091479 1_555
C4 H21 1.097259 1_565
C4 H31 1.098643 1_565
C4 S1 1.806225 1_565
C5 H23 1.092280 1_555
C5 H30 1.096213 1_555
C5 H26 1.098543 1_555
C5 S0 1.803814 1_555
C6 H25 1.092219 1_545
C6 H24 1.097128 1_555
C6 H32 1.097336 1_555
C6 S1 1.804393 1_555
C7 H39 1.092972 1_555
C7 H43 1.096597 1_555
C7 H33 1.099500 1_555
C7 S3 1.802647 1_555
C8 H40 1.092972 1_545
C8 H36 1.096597 1_555
C8 H46 1.099500 1_555
C8 S4 1.802647 1_555
C9 H54 1.092219 1_555
C9 H55 1.097128 1_555
C9 H47 1.097336 1_555
C9 S6 1.804393 1_555
C10 H56 1.092280 1_565
C10 H49 1.096213 1_555
C10 H53 1.098543 1_555
C10 S7 1.803814 1_555
C11 H57 1.091479 1_555
C11 H58 1.097259 1_555
C11 H48 1.098643 1_555
C11 S6 1.806225 1_555
C12 H62 1.091479 1_555
C12 H61 1.097259 1_555
C12 H71 1.098643 1_555
C12 S5 1.806225 1_555
C13 H63 1.092280 1_545
C13 H70 1.096213 1_555
C13 H66 1.098543 1_555
C13 S4 1.803814 1_555
C14 H65 1.092219 1_555
C14 H64 1.097128 1_555
C14 H72 1.097336 1_555
C14 S5 1.804393 1_555
C15 H79 1.092972 1_565
C15 H3 1.096597 1_655
C15 H73 1.099500 1_555
C15 S7 1.802647 1_555
