# generated using pymatgen
data_Ca2SiB5O14
_symmetry_space_group_name_H-M   'P 1'
_cell_length_a   9.44477500
_cell_length_b   8.66451200
_cell_length_c   13.20904420
_cell_angle_alpha   74.81834925
_cell_angle_beta   90.00000000
_cell_angle_gamma   90.00000000
_symmetry_Int_Tables_number   1
_chemical_formula_structural   Ca2SiB5O14
_chemical_formula_sum   'Ca8 Si4 B20 O56'
_cell_volume   1043.22892096
_cell_formula_units_Z   4
loop_
 _symmetry_equiv_pos_site_id
 _symmetry_equiv_pos_as_xyz
  1  'x, y, z'
loop_
 _atom_site_type_symbol
 _atom_site_label
 _atom_site_symmetry_multiplicity
 _atom_site_fract_x
 _atom_site_fract_y
 _atom_site_fract_z
 _atom_site_occupancy
  Ca  Ca0  1  0.68163200  0.35400900  0.11491100  1
  Ca  Ca1  1  0.18163200  0.14599100  0.88508900  1
  Ca  Ca2  1  0.31836800  0.64599100  0.88508900  1
  Ca  Ca3  1  0.81836800  0.85400900  0.11491100  1
  Ca  Ca4  1  0.30776200  0.99722800  0.40104700  1
  Ca  Ca5  1  0.80776200  0.50277200  0.59895300  1
  Ca  Ca6  1  0.69223800  0.00277200  0.59895300  1
  Ca  Ca7  1  0.19223800  0.49722800  0.40104700  1
  Si  Si0  1  0.05739100  0.49223700  0.14098600  1
  Si  Si1  1  0.55739100  0.00776300  0.85901400  1
  Si  Si2  1  0.94260900  0.50776300  0.85901400  1
  Si  Si3  1  0.44260900  0.99223700  0.14098600  1
  B  B0  1  0.96820100  0.24796300  0.03920700  1
  B  B1  1  0.46820100  0.25203700  0.96079300  1
  B  B2  1  0.03179900  0.75203700  0.96079300  1
  B  B3  1  0.53179900  0.74796300  0.03920700  1
  B  B4  1  0.88662500  0.47616800  0.31617500  1
  B  B5  1  0.38662500  0.02383200  0.68382500  1
  B  B6  1  0.11337500  0.52383200  0.68382500  1
  B  B7  1  0.61337500  0.97616800  0.31617500  1
  B  B8  1  0.90190400  0.25055000  0.49001100  1
  B  B9  1  0.40190400  0.24945000  0.50998900  1
  B  B10  1  0.09809600  0.74945000  0.50998900  1
  B  B11  1  0.59809600  0.75055000  0.49001100  1
  B  B12  1  0.76045000  0.21566100  0.33898600  1
  B  B13  1  0.26045000  0.28433900  0.66101400  1
  B  B14  1  0.23955000  0.78433900  0.66101400  1
  B  B15  1  0.73955000  0.71566100  0.33898600  1
  B  B16  1  0.15408700  0.03335100  0.15797200  1
  B  B17  1  0.65408700  0.46664900  0.84202800  1
  B  B18  1  0.84591300  0.96664900  0.84202800  1
  B  B19  1  0.34591300  0.53335100  0.15797200  1
  O  O0  1  0.01366600  0.67622600  0.07454900  1
  O  O1  1  0.51366600  0.82377400  0.92545100  1
  O  O2  1  0.98633400  0.32377400  0.92545100  1
  O  O3  1  0.48633400  0.17622600  0.07454900  1
  O  O4  1  0.22323200  0.45825000  0.12572700  1
  O  O5  1  0.72323200  0.04175000  0.87427300  1
  O  O6  1  0.77676800  0.54175000  0.87427300  1
  O  O7  1  0.27676800  0.95825000  0.12572700  1
  O  O8  1  0.95580700  0.36751100  0.10018700  1
  O  O9  1  0.45580700  0.13248900  0.89981300  1
  O  O10  1  0.04419300  0.63248900  0.89981300  1
  O  O11  1  0.54419300  0.86751100  0.10018700  1
  O  O12  1  0.02633200  0.47853300  0.26533600  1
  O  O13  1  0.52633200  0.02146700  0.73466400  1
  O  O14  1  0.97366800  0.52146700  0.73466400  1
  O  O15  1  0.47366800  0.97853300  0.26533600  1
  O  O16  1  0.09277000  0.14208200  0.06273500  1
  O  O17  1  0.59277000  0.35791800  0.93726500  1
  O  O18  1  0.90723000  0.85791800  0.93726500  1
  O  O19  1  0.40723000  0.64208200  0.06273500  1
  O  O20  1  0.91160800  0.42248200  0.43150300  1
  O  O21  1  0.41160800  0.07751800  0.56849700  1
  O  O22  1  0.08839200  0.57751800  0.56849700  1
  O  O23  1  0.58839200  0.92248200  0.43150300  1
  O  O24  1  0.67114600  0.13850000  0.28790000  1
  O  O25  1  0.17114600  0.36150000  0.71210000  1
  O  O26  1  0.32885400  0.86150000  0.71210000  1
  O  O27  1  0.82885400  0.63850000  0.28790000  1
  O  O28  1  0.78826000  0.36983300  0.28220900  1
  O  O29  1  0.28826000  0.13016700  0.71779100  1
  O  O30  1  0.21174000  0.63016700  0.71779100  1
  O  O31  1  0.71174000  0.86983300  0.28220900  1
  O  O32  1  0.82008600  0.15034100  0.43642000  1
  O  O33  1  0.32008600  0.34965900  0.56358000  1
  O  O34  1  0.17991400  0.84965900  0.56358000  1
  O  O35  1  0.67991400  0.65034100  0.43642000  1
  O  O36  1  0.05240100  0.21768500  0.50308600  1
  O  O37  1  0.55240100  0.28231500  0.49691400  1
  O  O38  1  0.94759900  0.78231500  0.49691400  1
  O  O39  1  0.44759900  0.71768500  0.50308600  1
  O  O40  1  0.84929700  0.23240000  0.59407600  1
  O  O41  1  0.34929700  0.26760000  0.40592400  1
  O  O42  1  0.15070300  0.76760000  0.40592400  1
  O  O43  1  0.65070300  0.73240000  0.59407600  1
  O  O44  1  0.17094200  0.09475500  0.24803600  1
  O  O45  1  0.67094200  0.40524500  0.75196400  1
  O  O46  1  0.82905800  0.90524500  0.75196400  1
  O  O47  1  0.32905800  0.59475500  0.24803600  1
  O  O48  1  0.03128300  0.93084800  0.19072200  1
  O  O49  1  0.53128300  0.56915200  0.80927800  1
  O  O50  1  0.96871700  0.06915200  0.80927800  1
  O  O51  1  0.46871700  0.43084800  0.19072200  1
  O  O52  1  0.83849300  0.15143100  0.06089200  1
  O  O53  1  0.33849300  0.34856900  0.93910800  1
  O  O54  1  0.16150700  0.84856900  0.93910800  1
  O  O55  1  0.66150700  0.65143100  0.06089200  1
loop_
_geom_bond_atom_site_label_1
_geom_bond_atom_site_label_2
_geom_bond_distance
_geom_bond_site_symmetry_2
Ca0 O51 2.416420 1_555
Ca0 O28 2.464775 1_555
Ca0 O17 2.483976 1_554
Ca0 O55 2.494632 1_555
Ca0 O52 2.537887 1_555
Ca0 O24 2.546192 1_555
Ca0 O3 2.547464 1_555
Ca0 O8 2.597155 1_555
Ca1 O50 2.416420 1_455
Ca1 O29 2.464775 1_555
Ca1 O16 2.483976 1_556
Ca1 O54 2.494632 1_545
Ca1 O53 2.537887 1_555
Ca1 O25 2.546192 1_555
Ca1 O2 2.547464 1_455
Ca1 O9 2.597155 1_555
Ca2 O49 2.416420 1_555
Ca2 O30 2.464775 1_555
Ca2 O19 2.483976 1_556
Ca2 O53 2.494632 1_555
Ca2 O54 2.537887 1_555
Ca2 O26 2.546192 1_555
Ca2 O1 2.547464 1_555
Ca2 O10 2.597155 1_555
Ca3 O48 2.416420 1_655
Ca3 O31 2.464775 1_555
Ca3 O18 2.483976 1_554
Ca3 O52 2.494632 1_565
Ca3 O55 2.537887 1_555
Ca3 O27 2.546192 1_555
Ca3 O0 2.547464 1_655
Ca3 O11 2.597155 1_555
Ca4 O44 2.361009 1_565
Ca4 O41 2.392708 1_565
Ca4 O15 2.418078 1_555
Ca4 O42 2.469012 1_555
Ca4 O34 2.502868 1_555
Ca4 O21 2.672856 1_565
Ca4 O23 2.733111 1_555
Ca4 O39 2.778076 1_555
Ca5 O45 2.361009 1_555
Ca5 O40 2.392708 1_555
Ca5 O14 2.418078 1_555
Ca5 O43 2.469012 1_555
Ca5 O35 2.502868 1_555
Ca5 O20 2.672856 1_555
Ca5 O22 2.733111 1_655
Ca5 O38 2.778076 1_555
Ca6 O46 2.361009 1_545
Ca6 O43 2.392708 1_545
Ca6 O13 2.418078 1_555
Ca6 O40 2.469012 1_555
Ca6 O32 2.502868 1_555
Ca6 O23 2.672856 1_545
Ca6 O21 2.733111 1_555
Ca6 O37 2.778076 1_555
Ca7 O47 2.361009 1_555
Ca7 O42 2.392708 1_555
Ca7 O12 2.418078 1_555
Ca7 O41 2.469012 1_555
Ca7 O33 2.502868 1_555
Ca7 O22 2.672856 1_555
Ca7 O20 2.733111 1_455
Ca7 O36 2.778076 1_555
B0 O52 1.468644 1_555
B0 O8 1.473921 1_555
B0 O16 1.474145 1_655
B0 O2 1.483805 1_554
B1 O53 1.468644 1_555
B1 O9 1.473921 1_555
B1 O17 1.474145 1_555
B1 O3 1.483805 1_556
B2 O54 1.468644 1_555
B2 O10 1.473921 1_555
B2 O18 1.474145 1_455
B2 O0 1.483805 1_556
B3 O55 1.468644 1_555
B3 O11 1.473921 1_555
B3 O19 1.474145 1_555
B3 O1 1.483805 1_554
B4 O28 1.459375 1_555
B4 O27 1.463006 1_555
B4 O12 1.478261 1_655
B4 O20 1.490494 1_555
B5 O29 1.459375 1_555
B5 O26 1.463006 1_545
B5 O13 1.478261 1_555
B5 O21 1.490494 1_555
B6 O30 1.459375 1_555
B6 O25 1.463006 1_555
B6 O14 1.478261 1_455
B6 O22 1.490494 1_555
B7 O31 1.459375 1_555
B7 O24 1.463006 1_565
B7 O15 1.478261 1_555
B7 O23 1.490494 1_555
B8 O40 1.431050 1_555
B8 O36 1.451056 1_655
B8 O32 1.474465 1_555
B8 O20 1.490603 1_555
B9 O41 1.431050 1_555
B9 O37 1.451056 1_555
B9 O33 1.474465 1_555
B9 O21 1.490603 1_555
B10 O42 1.431050 1_555
B10 O38 1.451056 1_455
B10 O34 1.474465 1_555
B10 O22 1.490603 1_555
B11 O43 1.431050 1_555
B11 O39 1.451056 1_555
B11 O35 1.474465 1_555
B11 O23 1.490603 1_555
B12 O24 1.360161 1_555
B12 O28 1.375193 1_555
B12 O32 1.382914 1_555
B13 O25 1.360161 1_555
B13 O29 1.375193 1_555
B13 O33 1.382914 1_555
B14 O26 1.360161 1_555
B14 O30 1.375193 1_555
B14 O34 1.382914 1_555
B15 O27 1.360161 1_555
B15 O31 1.375193 1_555
B15 O35 1.382914 1_555
B16 O44 1.433598 1_555
B16 O7 1.446574 1_545
B16 O48 1.456010 1_545
B16 O16 1.478087 1_555
B17 O45 1.433598 1_555
B17 O6 1.446574 1_555
B17 O49 1.456010 1_555
B17 O17 1.478087 1_555
B18 O46 1.433598 1_555
B18 O5 1.446574 1_565
B18 O50 1.456010 1_565
B18 O18 1.478087 1_555
B19 O47 1.433598 1_555
B19 O4 1.446574 1_555
B19 O51 1.456010 1_555
B19 O19 1.478087 1_555
O0 Si0 1.658110 1_555
O1 Si1 1.658110 1_565
O2 Si2 1.658110 1_555
O3 Si3 1.658110 1_545
O4 Si0 1.616114 1_555
O5 Si1 1.616114 1_555
O6 Si2 1.616114 1_555
O7 Si3 1.616114 1_555
O8 Si0 1.638255 1_655
O9 Si1 1.638255 1_555
O10 Si2 1.638255 1_455
O11 Si3 1.638255 1_555
O12 Si0 1.641936 1_555
O13 Si1 1.641936 1_555
O14 Si2 1.641936 1_555
O15 Si3 1.641936 1_555
