# generated using pymatgen
data_Li4Ni2(PO4)3
_symmetry_space_group_name_H-M   'P 1'
_cell_length_a   8.75161300
_cell_length_b   8.89770800
_cell_length_c   12.23551900
_cell_angle_alpha   90.00000000
_cell_angle_beta   90.00000000
_cell_angle_gamma   90.00000000
_symmetry_Int_Tables_number   1
_chemical_formula_structural   Li4Ni2(PO4)3
_chemical_formula_sum   'Li16 Ni8 P12 O48'
_cell_volume   952.77126300
_cell_formula_units_Z   4
loop_
 _symmetry_equiv_pos_site_id
 _symmetry_equiv_pos_as_xyz
  1  'x, y, z'
loop_
 _atom_site_type_symbol
 _atom_site_label
 _atom_site_symmetry_multiplicity
 _atom_site_fract_x
 _atom_site_fract_y
 _atom_site_fract_z
 _atom_site_occupancy
  Li  Li0  1  0.92814800  0.55246600  0.71351600  1
  Li  Li1  1  0.57185200  0.55246600  0.28648400  1
  Li  Li2  1  0.26240100  0.70260700  0.81925300  1
  Li  Li3  1  0.23759900  0.70260700  0.18074700  1
  Li  Li4  1  0.76240100  0.79739300  0.68074700  1
  Li  Li5  1  0.73759900  0.79739300  0.31925300  1
  Li  Li6  1  0.42814800  0.94753400  0.78648400  1
  Li  Li7  1  0.07185200  0.94753400  0.21351600  1
  Li  Li8  1  0.92814800  0.05246600  0.78648400  1
  Li  Li9  1  0.57185200  0.05246600  0.21351600  1
  Li  Li10  1  0.26240100  0.20260700  0.68074700  1
  Li  Li11  1  0.23759900  0.20260700  0.31925300  1
  Li  Li12  1  0.76240100  0.29739300  0.81925300  1
  Li  Li13  1  0.73759900  0.29739300  0.18074700  1
  Li  Li14  1  0.42814800  0.44753400  0.71351600  1
  Li  Li15  1  0.07185200  0.44753400  0.28648400  1
  Ni  Ni0  1  0.54374800  0.75156800  0.10905200  1
  Ni  Ni1  1  0.95625200  0.75156800  0.89094800  1
  Ni  Ni2  1  0.45625200  0.74843200  0.60905200  1
  Ni  Ni3  1  0.04374800  0.74843200  0.39094800  1
  Ni  Ni4  1  0.95625200  0.25156800  0.60905200  1
  Ni  Ni5  1  0.54374800  0.25156800  0.39094800  1
  Ni  Ni6  1  0.45625200  0.24843200  0.89094800  1
  Ni  Ni7  1  0.04374800  0.24843200  0.10905200  1
  P  P0  1  0.75000000  0.54752500  0.50000000  1
  P  P1  1  0.25000000  0.95247500  0.00000000  1
  P  P2  1  0.75000000  0.04752500  0.00000000  1
  P  P3  1  0.25000000  0.45247500  0.50000000  1
  P  P4  1  0.60559500  0.60589000  0.85077300  1
  P  P5  1  0.89440500  0.60589000  0.14922700  1
  P  P6  1  0.10559500  0.89411000  0.64922700  1
  P  P7  1  0.39440500  0.89411000  0.35077300  1
  P  P8  1  0.60559500  0.10589000  0.64922700  1
  P  P9  1  0.89440500  0.10589000  0.35077300  1
  P  P10  1  0.10559500  0.39411000  0.85077300  1
  P  P11  1  0.39440500  0.39411000  0.14922700  1
  O  O0  1  0.35569600  0.54471000  0.57527800  1
  O  O1  1  0.14430400  0.54471000  0.42472200  1
  O  O2  1  0.09341400  0.56714000  0.83211000  1
  O  O3  1  0.40658600  0.56714000  0.16789000  1
  O  O4  1  0.66243700  0.65293800  0.57951300  1
  O  O5  1  0.83756300  0.65293800  0.42048700  1
  O  O6  1  0.76666500  0.65576800  0.81054600  1
  O  O7  1  0.73333500  0.65576800  0.18945400  1
  O  O8  1  0.57532800  0.65304900  0.96726200  1
  O  O9  1  0.92467200  0.65304900  0.03273800  1
  O  O10  1  0.47758400  0.67531800  0.77601400  1
  O  O11  1  0.02241600  0.67531800  0.22398600  1
  O  O12  1  0.97758400  0.82468200  0.72398600  1
  O  O13  1  0.52241600  0.82468200  0.27601400  1
  O  O14  1  0.07532800  0.84695100  0.53273800  1
  O  O15  1  0.42467200  0.84695100  0.46726200  1
  O  O16  1  0.23333500  0.84423200  0.31054600  1
  O  O17  1  0.26666500  0.84423200  0.68945400  1
  O  O18  1  0.16243700  0.84706200  0.92048700  1
  O  O19  1  0.33756300  0.84706200  0.07951300  1
  O  O20  1  0.59341400  0.93286000  0.66789000  1
  O  O21  1  0.90658600  0.93286000  0.33211000  1
  O  O22  1  0.85569600  0.95529000  0.92472200  1
  O  O23  1  0.64430400  0.95529000  0.07527800  1
  O  O24  1  0.14430400  0.04471000  0.07527800  1
  O  O25  1  0.35569600  0.04471000  0.92472200  1
  O  O26  1  0.09341400  0.06714000  0.66789000  1
  O  O27  1  0.40658600  0.06714000  0.33211000  1
  O  O28  1  0.66243700  0.15293800  0.92048700  1
  O  O29  1  0.83756300  0.15293800  0.07951300  1
  O  O30  1  0.76666500  0.15576800  0.68945400  1
  O  O31  1  0.73333500  0.15576800  0.31054600  1
  O  O32  1  0.57532800  0.15304900  0.53273800  1
  O  O33  1  0.92467200  0.15304900  0.46726200  1
  O  O34  1  0.47758400  0.17531800  0.72398600  1
  O  O35  1  0.02241600  0.17531800  0.27601400  1
  O  O36  1  0.97758400  0.32468200  0.77601400  1
  O  O37  1  0.52241600  0.32468200  0.22398600  1
  O  O38  1  0.07532800  0.34695100  0.96726200  1
  O  O39  1  0.42467200  0.34695100  0.03273800  1
  O  O40  1  0.26666500  0.34423200  0.81054600  1
  O  O41  1  0.23333500  0.34423200  0.18945400  1
  O  O42  1  0.16243700  0.34706200  0.57951300  1
  O  O43  1  0.33756300  0.34706200  0.42048700  1
  O  O44  1  0.59341400  0.43286000  0.83211000  1
  O  O45  1  0.90658600  0.43286000  0.16789000  1
  O  O46  1  0.85569600  0.45529000  0.57527800  1
  O  O47  1  0.64430400  0.45529000  0.42472200  1
loop_
_geom_bond_atom_site_label_1
_geom_bond_atom_site_label_2
_geom_bond_distance
_geom_bond_site_symmetry_2
Li0 O46 2.002632 1_555
Li0 O2 2.052932 1_655
Li0 O6 2.061929 1_555
Li0 O36 2.208999 1_555
Li0 O12 2.463768 1_555
Li1 O47 2.002632 1_555
Li1 O3 2.052932 1_555
Li1 O7 2.061929 1_555
Li1 O37 2.208999 1_555
Li1 O13 2.463768 1_555
Li2 O2 1.914361 1_555
Li2 O10 1.971113 1_555
Li2 O18 1.987877 1_555
Li2 O17 2.027705 1_555
Li3 O3 1.914361 1_555
Li3 O11 1.971113 1_555
Li3 O19 1.987877 1_555
Li3 O16 2.027705 1_555
Li4 O20 1.914361 1_555
Li4 O12 1.971113 1_555
Li4 O4 1.987877 1_555
Li4 O6 2.027705 1_555
Li5 O21 1.914361 1_555
Li5 O13 1.971113 1_555
Li5 O5 1.987877 1_555
Li5 O7 2.027705 1_555
Li6 O25 2.002632 1_565
Li6 O20 2.052932 1_555
Li6 O17 2.061929 1_555
Li6 O34 2.208999 1_565
Li6 O10 2.463768 1_555
Li7 O24 2.002632 1_565
Li7 O21 2.052932 1_455
Li7 O16 2.061929 1_555
Li7 O35 2.208999 1_565
Li7 O11 2.463768 1_555
Li8 O22 2.002632 1_545
Li8 O26 2.052932 1_655
Li8 O30 2.061929 1_555
Li8 O12 2.208999 1_545
Li8 O36 2.463768 1_555
Li9 O23 2.002632 1_545
Li9 O27 2.052932 1_555
Li9 O31 2.061929 1_555
Li9 O13 2.208999 1_545
Li9 O37 2.463768 1_555
Li10 O26 1.914361 1_555
Li10 O34 1.971113 1_555
Li10 O42 1.987877 1_555
Li10 O40 2.027705 1_555
Li11 O27 1.914361 1_555
Li11 O35 1.971113 1_555
Li11 O43 1.987877 1_555
Li11 O41 2.027705 1_555
Li12 O44 1.914361 1_555
Li12 O36 1.971113 1_555
Li12 O28 1.987877 1_555
Li12 O30 2.027705 1_555
Li13 O45 1.914361 1_555
Li13 O37 1.971113 1_555
Li13 O29 1.987877 1_555
Li13 O31 2.027705 1_555
Li14 O0 2.002632 1_555
Li14 O44 2.052932 1_555
Li14 O40 2.061929 1_555
Li14 O10 2.208999 1_555
Li14 O34 2.463768 1_555
Li15 O1 2.002632 1_555
Li15 O45 2.052932 1_455
Li15 O41 2.061929 1_555
Li15 O11 2.208999 1_555
Li15 O35 2.463768 1_555
Ni0 O8 1.963310 1_554
Ni0 O19 2.026974 1_555
Ni0 O23 2.056927 1_555
Ni0 O7 2.108860 1_555
Ni0 O13 2.152062 1_555
Ni0 O3 2.156860 1_555
Ni1 O9 1.963310 1_556
Ni1 O18 2.026974 1_655
Ni1 O22 2.056927 1_555
Ni1 O6 2.108860 1_555
Ni1 O12 2.152062 1_555
Ni1 O2 2.156860 1_655
Ni2 O15 1.963310 1_555
Ni2 O4 2.026974 1_555
Ni2 O0 2.056927 1_555
Ni2 O17 2.108860 1_555
Ni2 O10 2.152062 1_555
Ni2 O20 2.156860 1_555
Ni3 O14 1.963310 1_555
Ni3 O5 2.026974 1_455
Ni3 O1 2.056927 1_555
Ni3 O16 2.108860 1_555
Ni3 O11 2.152062 1_555
Ni3 O21 2.156860 1_455
Ni4 O33 1.963310 1_555
Ni4 O42 2.026974 1_655
Ni4 O46 2.056927 1_555
Ni4 O30 2.108860 1_555
Ni4 O36 2.152062 1_555
Ni4 O26 2.156860 1_655
Ni5 O32 1.963310 1_555
Ni5 O43 2.026974 1_555
Ni5 O47 2.056927 1_555
Ni5 O31 2.108860 1_555
Ni5 O37 2.152062 1_555
Ni5 O27 2.156860 1_555
Ni6 O39 1.963310 1_556
Ni6 O28 2.026974 1_555
Ni6 O25 2.056927 1_555
Ni6 O40 2.108860 1_555
Ni6 O34 2.152062 1_555
Ni6 O44 2.156860 1_555
Ni7 O38 1.963310 1_554
Ni7 O29 2.026974 1_455
Ni7 O24 2.056927 1_555
Ni7 O41 2.108860 1_555
Ni7 O35 2.152062 1_555
Ni7 O45 2.156860 1_455
O0 P3 1.541921 1_555
O1 P3 1.541921 1_555
O2 P10 1.560060 1_555
O3 P11 1.560060 1_555
O4 P0 1.553533 1_555
O5 P0 1.553533 1_555
O6 P4 1.557643 1_555
O7 P5 1.557643 1_555
O8 P4 1.509213 1_555
O9 P5 1.509213 1_555
O10 P4 1.572704 1_555
O11 P5 1.572704 1_455
O12 P6 1.572704 1_655
O13 P7 1.572704 1_555
O14 P6 1.509213 1_555
O15 P7 1.509213 1_555
O16 P7 1.557643 1_555
O17 P6 1.557643 1_555
O18 P1 1.553533 1_556
O19 P1 1.553533 1_555
O20 P8 1.560060 1_565
O21 P9 1.560060 1_565
O22 P2 1.541921 1_566
O23 P2 1.541921 1_565
O24 P1 1.541921 1_545
O25 P1 1.541921 1_546
O26 P6 1.560060 1_545
O27 P7 1.560060 1_545
O28 P2 1.553533 1_556
O29 P2 1.553533 1_555
O30 P8 1.557643 1_555
O31 P9 1.557643 1_555
O32 P8 1.509213 1_555
O33 P9 1.509213 1_555
O34 P8 1.572704 1_555
O35 P9 1.572704 1_455
O36 P10 1.572704 1_655
O37 P11 1.572704 1_555
O38 P10 1.509213 1_555
O39 P11 1.509213 1_555
O40 P10 1.557643 1_555
O41 P11 1.557643 1_555
O42 P3 1.553533 1_555
O43 P3 1.553533 1_555
O44 P4 1.560060 1_555
O45 P5 1.560060 1_555
O46 P0 1.541921 1_555
O47 P0 1.541921 1_555
