# generated using pymatgen
data_Li4V5O9F
_symmetry_space_group_name_H-M   'P 1'
_cell_length_a   3.01087400
_cell_length_b   5.22365016
_cell_length_c   13.12776572
_cell_angle_alpha   100.91186390
_cell_angle_beta   90.00040590
_cell_angle_gamma   106.65435021
_symmetry_Int_Tables_number   1
_chemical_formula_structural   Li4V5O9F
_chemical_formula_sum   'Li4 V5 O9 F1'
_cell_volume   193.90922528
_cell_formula_units_Z   1
loop_
 _symmetry_equiv_pos_site_id
 _symmetry_equiv_pos_as_xyz
  1  'x, y, z'
loop_
 _atom_site_type_symbol
 _atom_site_label
 _atom_site_symmetry_multiplicity
 _atom_site_fract_x
 _atom_site_fract_y
 _atom_site_fract_z
 _atom_site_occupancy
  Li  Li0  1  0.20379600  0.60366100  0.39854900  1
  Li  Li1  1  0.40103800  0.19066800  0.79981000  1
  Li  Li2  1  0.80552100  0.40364700  0.59704100  1
  Li  Li3  1  0.59765900  0.81650600  0.19413300  1
  V  V0  1  0.10556200  0.79822500  0.69864300  1
  V  V1  1  0.31250500  0.41577300  0.10501300  1
  V  V2  1  0.67687800  0.55832000  0.89821000  1
  V  V3  1  0.50728300  0.00045200  0.50074000  1
  V  V4  1  0.90698600  0.19918800  0.30399600  1
  O  O0  1  0.14646200  0.17639400  0.55271900  1
  O  O1  1  0.05675700  0.41497100  0.84412400  1
  O  O2  1  0.46653100  0.62080500  0.64861200  1
  O  O3  1  0.26716300  0.02848800  0.25128900  1
  O  O4  1  0.54869800  0.37538000  0.35559300  1
  O  O5  1  0.74246100  0.95923000  0.75534200  1
  O  O6  1  0.68856300  0.27728100  0.04939500  1
  O  O7  1  0.94703200  0.57522400  0.16010900  1
  O  O8  1  0.86863300  0.82036400  0.45134000  1
  F  F0  1  0.33036600  0.78122400  0.94082400  1
loop_
_geom_bond_atom_site_label_1
_geom_bond_atom_site_label_2
_geom_bond_distance
_geom_bond_site_symmetry_2
Li0 O8 1.771381 1_455
Li0 O4 1.809302 1_555
Li0 O4 2.006893 1_455
Li0 O8 2.042740 1_555
Li1 O1 1.795521 1_555
Li1 O5 1.817763 1_545
Li1 O1 2.006256 1_655
Li1 O5 2.023098 1_445
Li2 O2 1.777568 1_555
Li2 O0 1.799581 1_655
Li2 O0 2.018321 1_555
Li2 O2 2.030087 1_655
Li3 O3 1.759653 1_565
Li3 O7 1.855100 1_555
Li3 O7 1.999295 1_455
Li3 O3 2.063625 1_665
O0 V3 1.680898 1_555
O0 V3 1.939762 1_455
O1 V2 1.631776 1_455
O1 V2 1.883678 1_555
O2 V0 1.678813 1_555
O2 V0 1.933822 1_655
O3 V4 1.664502 1_455
O3 V4 1.940814 1_555
O4 V4 1.674123 1_555
O4 V4 1.945153 1_455
O5 V0 1.657288 1_655
O5 V0 1.943496 1_555
O6 V1 1.614939 1_555
O6 V1 1.899116 1_655
O7 V1 1.650770 1_655
O7 V1 1.930446 1_555
O8 V3 1.686686 1_565
O8 V3 1.932667 1_665
F0 V2 1.790786 1_555
F0 V2 1.995056 1_455
