# generated using pymatgen
data_Cs9AlO4
_symmetry_space_group_name_H-M   'P 1'
_cell_length_a   12.71738249
_cell_length_b   12.71723034
_cell_length_c   12.71721985
_cell_angle_alpha   103.84090332
_cell_angle_beta   103.84144860
_cell_angle_gamma   121.43521888
_symmetry_Int_Tables_number   1
_chemical_formula_structural   Cs9AlO4
_chemical_formula_sum   'Cs18 Al2 O8'
_cell_volume   1530.64871414
_cell_formula_units_Z   2
loop_
 _symmetry_equiv_pos_site_id
 _symmetry_equiv_pos_as_xyz
  1  'x, y, z'
loop_
 _atom_site_type_symbol
 _atom_site_label
 _atom_site_symmetry_multiplicity
 _atom_site_fract_x
 _atom_site_fract_y
 _atom_site_fract_z
 _atom_site_occupancy
  Cs  Cs0  1  0.58025685  0.08025652  0.66051045  1
  Cs  Cs1  1  0.41974248  0.91974419  0.33948949  1
  Cs  Cs2  1  0.08025398  0.41974429  0.50000041  1
  Cs  Cs3  1  0.91974596  0.58025598  0.49999973  1
  Cs  Cs4  1  0.00000011  -0.00000032  0.00000065  1
  Cs  Cs5  1  0.50000029  0.49999951  0.00000044  1
  Cs  Cs6  1  0.52692991  0.25000024  0.27692782  1
  Cs  Cs7  1  0.97306437  0.25000203  0.72306373  1
  Cs  Cs8  1  0.24999910  0.97306429  0.72306701  1
  Cs  Cs9  1  0.24999726  0.52693150  0.27693182  1
  Cs  Cs10  1  0.47306941  0.74999987  0.72307210  1
  Cs  Cs11  1  0.02693479  0.74999808  0.27693576  1
  Cs  Cs12  1  0.75000088  0.02693590  0.27693298  1
  Cs  Cs13  1  0.75000164  0.47306799  0.72306730  1
  Cs  Cs14  1  0.15957430  0.65957418  0.81915041  1
  Cs  Cs15  1  0.84042573  0.34042623  0.18084956  1
  Cs  Cs16  1  0.65957466  0.84042566  0.49999977  1
  Cs  Cs17  1  0.34042692  0.15957643  0.50000079  1
  Al  Al0  1  0.24997935  0.74997878  0.49999560  1
  Al  Al1  1  0.75002008  0.25002023  0.50000463  1
  O  O0  1  0.22967183  0.72966384  0.63089972  1
  O  O1  1  0.09877710  0.59877239  0.36911496  1
  O  O2  1  0.40124858  0.77034378  0.50000577  1
  O  O3  1  0.27035414  0.90124454  0.50000243  1
  O  O4  1  0.77032917  0.27033692  0.36910026  1
  O  O5  1  0.90122407  0.40122799  0.63088577  1
  O  O6  1  0.72964594  0.09875471  0.49999696  1
  O  O7  1  0.59875110  0.22965423  0.49999367  1
loop_
_geom_bond_atom_site_label_1
_geom_bond_atom_site_label_2
_geom_bond_distance
_geom_bond_site_symmetry_2
Cs0 O6 3.074202 1_555
Cs0 O3 3.074208 1_545
Cs0 O2 3.074271 1_545
Cs0 O7 3.074294 1_555
Cs1 O3 3.074187 1_555
Cs1 O6 3.074215 1_565
Cs1 O7 3.074245 1_565
Cs1 O2 3.074315 1_555
Cs2 O1 3.074240 1_555
Cs2 O5 3.074307 1_455
Cs2 O0 3.074312 1_555
Cs2 O4 3.074426 1_455
Cs3 O5 3.074247 1_555
Cs3 O4 3.074310 1_555
Cs3 O1 3.074314 1_655
Cs3 O0 3.074435 1_655
Cs4 Cs9 5.342717 1_555
Cs4 Cs6 5.342726 1_555
Cs4 Cs8 5.342752 1_544
Cs4 Cs7 5.342769 1_454
Cs5 Cs6 5.342626 1_555
Cs5 Cs8 5.342746 1_544
Cs5 Cs9 5.342760 1_555
Cs5 Cs7 5.342822 1_454
Cs6 O4 2.882057 1_555
Cs6 O7 2.882094 1_555
Cs7 O5 2.882083 1_555
Cs7 O6 2.882162 1_555
Cs8 O0 2.882105 1_555
Cs8 O3 2.882144 1_555
Cs9 O1 2.882077 1_555
Cs9 O2 2.882158 1_555
Cs10 O0 2.882042 1_555
Cs10 O2 2.882086 1_555
Cs10 Cs5 5.342650 1_556
Cs10 Cs4 5.342741 1_666
Cs11 O1 2.882102 1_555
Cs11 O3 2.882168 1_555
Cs11 Cs4 5.342740 1_565
Cs11 Cs5 5.342801 1_455
Cs12 O4 2.882105 1_555
Cs12 O6 2.882134 1_555
Cs12 Cs4 5.342743 1_655
Cs12 Cs5 5.342757 1_545
Cs13 O5 2.882087 1_555
Cs13 O7 2.882166 1_555
Cs13 Cs4 5.342718 1_666
Cs13 Cs5 5.342760 1_556
Cs14 O0 2.921275 1_555
Cs14 O5 2.921381 1_455
Cs15 O4 2.921269 1_555
Cs15 O1 2.921389 1_655
Cs16 O2 2.921158 1_555
Cs16 O6 2.921178 1_565
Cs17 O7 2.921154 1_555
Cs17 O3 2.921202 1_545
Al0 O1 1.801663 1_555
Al0 O0 1.801855 1_555
Al0 O3 1.802132 1_555
Al0 O2 1.802239 1_555
Al1 O5 1.801677 1_555
Al1 O4 1.801870 1_555
Al1 O6 1.802129 1_555
Al1 O7 1.802228 1_555
