# generated using pymatgen
data_EuTl2Cd
_symmetry_space_group_name_H-M   'P 1'
_cell_length_a   5.37275879
_cell_length_b   5.37264729
_cell_length_c   5.37252614
_cell_angle_alpha   59.86583373
_cell_angle_beta   59.86771150
_cell_angle_gamma   59.86761819
_symmetry_Int_Tables_number   1
_chemical_formula_structural   EuTl2Cd
_chemical_formula_sum   'Eu1 Tl2 Cd1'
_cell_volume   109.32943118
_cell_formula_units_Z   1
loop_
 _symmetry_equiv_pos_site_id
 _symmetry_equiv_pos_as_xyz
  1  'x, y, z'
loop_
 _atom_site_type_symbol
 _atom_site_label
 _atom_site_symmetry_multiplicity
 _atom_site_fract_x
 _atom_site_fract_y
 _atom_site_fract_z
 _atom_site_occupancy
  Eu  Eu0  1  0.75000947  0.75000062  0.75000585  1
  Tl  Tl0  1  0.99981512  0.99980518  0.99979590  1
  Tl  Tl1  1  0.50017931  0.50019432  0.50020853  1
  Cd  Cd0  1  0.24999510  0.24999889  0.24998772  1
loop_
_geom_bond_atom_site_label_1
_geom_bond_atom_site_label_2
_geom_bond_distance
_geom_bond_site_symmetry_2
Eu0 Tl1 3.285351 1_556
Eu0 Tl1 3.285383 1_565
Eu0 Tl0 3.285383 1_554
Eu0 Tl0 3.285391 1_545
Eu0 Tl1 3.285409 1_655
Eu0 Tl0 3.285516 1_455
Eu0 Tl0 3.290727 1_555
Eu0 Tl1 3.290875 1_555
Cd0 Tl1 3.283487 1_554
Cd0 Tl0 3.283614 1_445
Cd0 Tl1 3.283669 1_545
Cd0 Tl0 3.283677 1_454
Cd0 Tl1 3.283849 1_455
Cd0 Tl0 3.283868 1_544
Cd0 Tl0 3.295844 1_444
Cd0 Tl1 3.295998 1_555
