# generated using pymatgen
data_Li2Cr5(Si2O7)2
_symmetry_space_group_name_H-M   'P 1'
_cell_length_a   7.61409200
_cell_length_b   8.04789748
_cell_length_c   5.63854573
_cell_angle_alpha   90.96636216
_cell_angle_beta   105.72296962
_cell_angle_gamma   113.88217701
_symmetry_Int_Tables_number   1
_chemical_formula_structural   Li2Cr5(Si2O7)2
_chemical_formula_sum   'Li2 Cr5 Si4 O14'
_cell_volume   300.95023523
_cell_formula_units_Z   1
loop_
 _symmetry_equiv_pos_site_id
 _symmetry_equiv_pos_as_xyz
  1  'x, y, z'
loop_
 _atom_site_type_symbol
 _atom_site_label
 _atom_site_symmetry_multiplicity
 _atom_site_fract_x
 _atom_site_fract_y
 _atom_site_fract_z
 _atom_site_occupancy
  Li  Li0  1  0.45192900  0.23302100  0.10785500  1
  Li  Li1  1  0.54807100  0.76697900  0.89214500  1
  Cr  Cr0  1  0.00000000  0.00000000  0.00000000  1
  Cr  Cr1  1  0.81209100  0.08006400  0.38426100  1
  Cr  Cr2  1  0.71030800  0.66424700  0.57427900  1
  Cr  Cr3  1  0.28969200  0.33575300  0.42572100  1
  Cr  Cr4  1  0.18790900  0.91993600  0.61573900  1
  Si  Si0  1  0.85615000  0.49443500  0.22323800  1
  Si  Si1  1  0.39678500  0.79555200  0.20933400  1
  Si  Si2  1  0.60321500  0.20444800  0.79066600  1
  Si  Si3  1  0.14385000  0.50556500  0.77676200  1
  O  O0  1  0.56981600  0.88487700  0.17026300  1
  O  O1  1  0.95404000  0.78147500  0.34754000  1
  O  O2  1  0.27607800  0.53690000  0.01737900  1
  O  O3  1  0.72649300  0.40815100  0.32472600  1
  O  O4  1  0.27111500  0.02717300  0.18716300  1
  O  O5  1  0.44468700  0.70786700  0.40849300  1
  O  O6  1  0.01140800  0.30665500  0.22912300  1
  O  O7  1  0.98859200  0.69334500  0.77087700  1
  O  O8  1  0.55531300  0.29213300  0.59150700  1
  O  O9  1  0.72888500  0.97282700  0.81283700  1
  O  O10  1  0.27350700  0.59184900  0.67527400  1
  O  O11  1  0.72392200  0.46310000  0.98262100  1
  O  O12  1  0.04596000  0.21852500  0.65246000  1
  O  O13  1  0.43018400  0.11512300  0.82973700  1
loop_
_geom_bond_atom_site_label_1
_geom_bond_atom_site_label_2
_geom_bond_distance
_geom_bond_site_symmetry_2
Li0 O13 1.751792 1_554
Li0 O4 1.830773 1_555
Li0 O3 2.005689 1_555
Li1 O0 1.751792 1_556
Li1 O9 1.830773 1_555
Li1 O10 2.005689 1_555
Cr0 O4 1.966938 1_555
Cr0 O9 1.966938 1_444
Cr0 O1 2.654254 1_445
Cr0 O12 2.654254 1_554
Cr1 O12 1.891168 1_655
Cr1 O0 1.926087 1_545
Cr1 O6 2.219509 1_655
Cr2 O7 2.022322 1_555
Cr2 O5 2.156093 1_555
Cr2 O1 2.424348 1_555
Cr2 O3 2.538669 1_555
Cr3 O6 2.022322 1_555
Cr3 O8 2.156093 1_555
Cr3 O12 2.424348 1_555
Cr3 O10 2.538669 1_555
Cr4 O1 1.891168 1_455
Cr4 O13 1.926087 1_565
Cr4 O7 2.219509 1_455
O0 Si1 1.302621 1_555
O1 Si0 2.156685 1_555
O2 Si3 1.400185 1_554
O3 Si0 1.244493 1_555
O5 Si1 1.380298 1_555
O6 Si0 2.260397 1_455
O7 Si3 2.260397 1_655
O8 Si2 1.380298 1_555
O10 Si3 1.244493 1_555
O11 Si0 1.400185 1_556
O12 Si3 2.156685 1_555
O13 Si2 1.302621 1_555
