# generated using pymatgen
data_Li2VF4
_symmetry_space_group_name_H-M   'P 1'
_cell_length_a   6.29673300
_cell_length_b   5.23473600
_cell_length_c   11.10670906
_cell_angle_alpha   62.23432455
_cell_angle_beta   90.00000000
_cell_angle_gamma   90.00000000
_symmetry_Int_Tables_number   1
_chemical_formula_structural   Li2VF4
_chemical_formula_sum   'Li8 V4 F16'
_cell_volume   323.94414017
_cell_formula_units_Z   4
loop_
 _symmetry_equiv_pos_site_id
 _symmetry_equiv_pos_as_xyz
  1  'x, y, z'
loop_
 _atom_site_type_symbol
 _atom_site_label
 _atom_site_symmetry_multiplicity
 _atom_site_fract_x
 _atom_site_fract_y
 _atom_site_fract_z
 _atom_site_occupancy
  Li  Li0  1  0.09254100  0.89103300  0.86107300  1
  Li  Li1  1  0.59254100  0.10896700  0.63892700  1
  Li  Li2  1  0.08773800  0.19351500  0.54140700  1
  Li  Li3  1  0.58773800  0.80648500  0.95859300  1
  Li  Li4  1  0.41226200  0.19351500  0.04140700  1
  Li  Li5  1  0.91226200  0.80648500  0.45859300  1
  Li  Li6  1  0.40745900  0.89103300  0.36107300  1
  Li  Li7  1  0.90745900  0.10896700  0.13892700  1
  V  V0  1  0.67381700  0.49114100  0.25522300  1
  V  V1  1  0.17381700  0.50885900  0.24477700  1
  V  V2  1  0.82618300  0.49114100  0.75522300  1
  V  V3  1  0.32618300  0.50885900  0.74477700  1
  F  F0  1  0.34472300  0.06141900  0.88372500  1
  F  F1  1  0.81954000  0.04011500  0.85263400  1
  F  F2  1  0.92971700  0.53451000  0.37306900  1
  F  F3  1  0.41841700  0.52237000  0.37093300  1
  F  F4  1  0.31954000  0.95988500  0.64736600  1
  F  F5  1  0.84472300  0.93858100  0.61627500  1
  F  F6  1  0.57028300  0.53451000  0.87306900  1
  F  F7  1  0.91841700  0.47763000  0.12906700  1
  F  F8  1  0.08158300  0.52237000  0.87093300  1
  F  F9  1  0.42971700  0.46549000  0.12693100  1
  F  F10  1  0.15527700  0.06141900  0.38372500  1
  F  F11  1  0.68046000  0.04011500  0.35263400  1
  F  F12  1  0.58158300  0.47763000  0.62906700  1
  F  F13  1  0.07028300  0.46549000  0.62693100  1
  F  F14  1  0.18046000  0.95988500  0.14736600  1
  F  F15  1  0.65527700  0.93858100  0.11627500  1
loop_
_geom_bond_atom_site_label_1
_geom_bond_atom_site_label_2
_geom_bond_distance
_geom_bond_site_symmetry_2
F0 Li0 1.894572 1_545
F0 Li3 1.944215 1_545
F0 V3 2.124496 1_555
F0 Li4 2.203291 1_556
F1 Li0 1.872078 1_645
F1 Li3 1.915755 1_545
F1 V2 2.089653 1_555
F2 Li5 2.049724 1_555
F2 Li2 2.136011 1_655
F2 V1 2.142221 1_655
F2 V0 2.153594 1_555
F3 Li6 1.882599 1_555
F3 V1 2.105420 1_555
F3 V0 2.111956 1_555
F4 Li1 1.872078 1_565
F4 Li2 1.915755 1_565
F4 V3 2.089653 1_555
F5 Li1 1.894572 1_565
F5 Li2 1.944215 1_665
F5 V2 2.124496 1_555
F5 Li5 2.203291 1_555
F6 Li3 2.049724 1_555
F6 Li4 2.136011 1_556
F6 V3 2.142221 1_555
F6 V2 2.153594 1_555
F7 Li7 1.882599 1_555
F7 V0 2.105420 1_555
F7 V1 2.111956 1_655
F8 Li0 1.882599 1_555
F8 V3 2.105420 1_555
F8 V2 2.111956 1_455
F9 Li4 2.049724 1_555
F9 Li3 2.136011 1_554
F9 V0 2.142221 1_555
F9 V1 2.153594 1_555
F10 Li6 1.894572 1_545
F10 Li5 1.944215 1_445
F10 V1 2.124496 1_555
F10 Li2 2.203291 1_555
F11 Li6 1.872078 1_545
F11 Li5 1.915755 1_545
F11 V0 2.089653 1_555
F12 Li1 1.882599 1_555
F12 V2 2.105420 1_555
F12 V3 2.111956 1_555
F13 Li2 2.049724 1_555
F13 Li5 2.136011 1_455
F13 V2 2.142221 1_455
F13 V3 2.153594 1_555
F14 Li7 1.872078 1_465
F14 Li4 1.915755 1_565
F14 V1 2.089653 1_555
F15 Li7 1.894572 1_565
F15 Li4 1.944215 1_565
F15 V0 2.124496 1_555
F15 Li3 2.203291 1_554
