# generated using pymatgen
data_Li3V4O7F5
_symmetry_space_group_name_H-M   'P 1'
_cell_length_a   5.13096900
_cell_length_b   5.35381552
_cell_length_c   8.89140945
_cell_angle_alpha   106.65234312
_cell_angle_beta   88.77666531
_cell_angle_gamma   116.93787974
_symmetry_Int_Tables_number   1
_chemical_formula_structural   Li3V4O7F5
_chemical_formula_sum   'Li3 V4 O7 F5'
_cell_volume   206.92658371
_cell_formula_units_Z   1
loop_
 _symmetry_equiv_pos_site_id
 _symmetry_equiv_pos_as_xyz
  1  'x, y, z'
loop_
 _atom_site_type_symbol
 _atom_site_label
 _atom_site_symmetry_multiplicity
 _atom_site_fract_x
 _atom_site_fract_y
 _atom_site_fract_z
 _atom_site_occupancy
  Li  Li0  1  0.46430500  0.60732900  0.15407300  1
  Li  Li1  1  0.93494400  0.56118500  0.65563700  1
  Li  Li2  1  0.70589000  0.59587800  0.89845100  1
  V  V0  1  0.49249100  0.00844000  0.50358500  1
  V  V1  1  0.06997500  0.04457200  0.00089300  1
  V  V2  1  0.79513200  0.06190100  0.26373700  1
  V  V3  1  0.23825500  0.97358500  0.76031100  1
  O  O0  1  0.06611300  0.10552300  0.81777600  1
  O  O1  1  0.57245200  0.13195800  0.31302400  1
  O  O2  1  0.43731600  0.11632500  0.06681600  1
  O  O3  1  0.99556000  0.49411300  0.86916200  1
  O  O4  1  0.99190900  0.49828300  0.12522700  1
  O  O5  1  0.05114700  0.89596900  0.42970000  1
  O  O6  1  0.41530600  0.89624600  0.68238700  1
  F  F0  1  0.51934700  0.53148700  0.35936800  1
  F  F1  1  0.93353300  0.11051700  0.57097700  1
  F  F2  1  0.55936900  0.84921000  0.94420600  1
  F  F3  1  0.90315200  0.88923100  0.17437100  1
  F  F4  1  0.51117900  0.50474800  0.62942500  1
loop_
_geom_bond_atom_site_label_1
_geom_bond_atom_site_label_2
_geom_bond_distance
_geom_bond_site_symmetry_2
Li0 O4 2.222671 1_455
Li1 V3 1.983410 1_655
Li1 O3 2.085008 1_555
Li1 O6 2.263599 1_655
Li2 O3 1.791525 1_555
O0 V3 1.370888 1_545
O0 V1 1.752013 1_556
O1 V2 1.382345 1_555
O1 V0 1.960393 1_555
O2 V1 1.818176 1_555
O4 V1 2.570339 1_655
O4 V2 2.730048 1_555
O5 V0 2.126865 1_565
O6 V3 1.275254 1_555
O6 V0 1.830299 1_565
F0 Li0 2.031571 1_555
F0 V0 2.572617 1_565
F1 O5 1.740755 1_645
F1 V0 2.128017 1_555
F1 Li1 2.309054 1_555
F2 Li2 1.778986 1_555
F3 V2 1.348181 1_565
F3 V1 1.958925 1_665
F3 Li0 2.040279 1_555
F4 Li1 2.063814 1_555
F4 Li2 2.439149 1_555
F4 V0 2.528104 1_555
