# generated using pymatgen
data_NaPrAu2
_symmetry_space_group_name_H-M   'P 1'
_cell_length_a   5.08832190
_cell_length_b   5.08832190
_cell_length_c   5.08832190
_cell_angle_alpha   60.00000000
_cell_angle_beta   60.00000000
_cell_angle_gamma   60.00000000
_symmetry_Int_Tables_number   1
_chemical_formula_structural   NaPrAu2
_chemical_formula_sum   'Na1 Pr1 Au2'
_cell_volume   93.15555042
_cell_formula_units_Z   1
loop_
 _symmetry_equiv_pos_site_id
 _symmetry_equiv_pos_as_xyz
  1  'x, y, z'
loop_
 _atom_site_type_symbol
 _atom_site_label
 _atom_site_symmetry_multiplicity
 _atom_site_fract_x
 _atom_site_fract_y
 _atom_site_fract_z
 _atom_site_occupancy
  Na  Na0  1  0.24999900  0.24999900  0.24999900  1
  Pr  Pr0  1  0.75000100  0.75000100  0.75000100  1
  Au  Au0  1  0.50000000  0.50000000  0.50000000  1
  Au  Au1  1  0.00000000  0.00000000  0.00000000  1
loop_
_geom_bond_atom_site_label_1
_geom_bond_atom_site_label_2
_geom_bond_distance
_geom_bond_site_symmetry_2
Au0 Pr0 3.115944 1_554
Au0 Pr0 3.115944 1_455
Au0 Pr0 3.115944 1_545
Au0 Na0 3.115944 1_565
Au0 Na0 3.115944 1_655
Au0 Na0 3.115944 1_556
Au0 Pr0 3.115961 1_555
Au0 Na0 3.115961 1_555
Au1 Pr0 3.115936 1_444
Au1 Na0 3.115936 1_555
Au1 Pr0 3.115952 1_454
Au1 Na0 3.115952 1_554
Au1 Pr0 3.115952 1_445
Au1 Na0 3.115952 1_545
Au1 Pr0 3.115952 1_544
Au1 Na0 3.115952 1_455
