# generated using pymatgen
data_Na2TlBi
_symmetry_space_group_name_H-M   'P 1'
_cell_length_a   5.39686718
_cell_length_b   5.39686718
_cell_length_c   5.39686718
_cell_angle_alpha   60.00000000
_cell_angle_beta   60.00000000
_cell_angle_gamma   60.00000000
_symmetry_Int_Tables_number   1
_chemical_formula_structural   Na2TlBi
_chemical_formula_sum   'Na2 Tl1 Bi1'
_cell_volume   111.15018554
_cell_formula_units_Z   1
loop_
 _symmetry_equiv_pos_site_id
 _symmetry_equiv_pos_as_xyz
  1  'x, y, z'
loop_
 _atom_site_type_symbol
 _atom_site_label
 _atom_site_symmetry_multiplicity
 _atom_site_fract_x
 _atom_site_fract_y
 _atom_site_fract_z
 _atom_site_occupancy
  Na  Na0  1  0.50000100  0.50000100  0.50000100  1
  Na  Na1  1  -0.00000000  -0.00000000  -0.00000000  1
  Tl  Tl0  1  0.75000000  0.75000000  0.75000000  1
  Bi  Bi0  1  0.24999900  0.24999900  0.24999900  1
loop_
_geom_bond_atom_site_label_1
_geom_bond_atom_site_label_2
_geom_bond_distance
_geom_bond_site_symmetry_2
Na0 Tl0 3.304879 1_555
Na0 Tl0 3.304897 1_554
Na0 Tl0 3.304897 1_455
Na0 Tl0 3.304897 1_545
Na1 Tl0 3.304893 1_544
Na1 Tl0 3.304893 1_445
Na1 Tl0 3.304893 1_444
Na1 Tl0 3.304893 1_454
Bi0 Na1 3.304879 1_555
Bi0 Na0 3.304884 1_554
Bi0 Na0 3.304884 1_545
Bi0 Na0 3.304884 1_455
Bi0 Na1 3.304897 1_565
Bi0 Na1 3.304897 1_655
Bi0 Na1 3.304897 1_556
Bi0 Na0 3.304919 1_555
