# generated using pymatgen
data_Ca2SnS4
_symmetry_space_group_name_H-M   'P 1'
_cell_length_a   6.96430427
_cell_length_b   6.96430427
_cell_length_c   3.85808582
_cell_angle_alpha   90.00000000
_cell_angle_beta   90.00000000
_cell_angle_gamma   108.38604659
_symmetry_Int_Tables_number   1
_chemical_formula_structural   Ca2SnS4
_chemical_formula_sum   'Ca2 Sn1 S4'
_cell_volume   177.57098125
_cell_formula_units_Z   1
loop_
 _symmetry_equiv_pos_site_id
 _symmetry_equiv_pos_as_xyz
  1  'x, y, z'
loop_
 _atom_site_type_symbol
 _atom_site_label
 _atom_site_symmetry_multiplicity
 _atom_site_fract_x
 _atom_site_fract_y
 _atom_site_fract_z
 _atom_site_occupancy
  Ca  Ca0  1  0.50000000  0.00000000  0.50000000  1
  Ca  Ca1  1  0.00000000  0.50000000  0.50000000  1
  Sn  Sn0  1  0.00000000  0.00000000  0.00000000  1
  S  S0  1  0.22910062  0.77089938  0.00000000  1
  S  S1  1  0.77089938  0.22910062  0.00000000  1
  S  S2  1  0.21733061  0.21733061  0.50000000  1
  S  S3  1  0.78266939  0.78266939  0.50000000  1
loop_
_geom_bond_atom_site_label_1
_geom_bond_atom_site_label_2
_geom_bond_distance
_geom_bond_site_symmetry_2
Ca0 S0 2.815555 1_546
Ca0 S0 2.815555 1_545
Ca0 S1 2.815555 1_555
Ca0 S1 2.815555 1_556
Ca0 S3 2.836520 1_545
Ca0 S2 2.836520 1_555
Ca1 S0 2.815555 1_556
Ca1 S0 2.815555 1_555
Ca1 S1 2.815555 1_455
Ca1 S1 2.815555 1_456
Ca1 S2 2.836520 1_555
Ca1 S3 2.836520 1_455
S0 Sn0 2.587920 1_565
S1 Sn0 2.587920 1_655
S2 Sn0 2.618733 1_556
S2 Sn0 2.618733 1_555
S3 Sn0 2.618733 1_665
S3 Sn0 2.618733 1_666
