# generated using pymatgen
data_Ti2MoPt
_symmetry_space_group_name_H-M   'P 1'
_cell_length_a   4.42789495
_cell_length_b   4.42789205
_cell_length_c   4.42788987
_cell_angle_alpha   59.99991875
_cell_angle_beta   59.99992964
_cell_angle_gamma   59.99989171
_symmetry_Int_Tables_number   1
_chemical_formula_structural   Ti2MoPt
_chemical_formula_sum   'Ti2 Mo1 Pt1'
_cell_volume   61.38684217
_cell_formula_units_Z   1
loop_
 _symmetry_equiv_pos_site_id
 _symmetry_equiv_pos_as_xyz
  1  'x, y, z'
loop_
 _atom_site_type_symbol
 _atom_site_label
 _atom_site_symmetry_multiplicity
 _atom_site_fract_x
 _atom_site_fract_y
 _atom_site_fract_z
 _atom_site_occupancy
  Ti  Ti0  1  0.00000000  0.00000000  -0.00000000  1
  Ti  Ti1  1  0.50000100  0.50000100  0.50000100  1
  Mo  Mo0  1  0.25000000  0.25000000  0.25000000  1
  Pt  Pt0  1  0.74999900  0.74999900  0.74999900  1
loop_
_geom_bond_atom_site_label_1
_geom_bond_atom_site_label_2
_geom_bond_distance
_geom_bond_site_symmetry_2
Mo0 Ti1 2.711512 1_554
Mo0 Ti1 2.711512 1_545
Mo0 Ti1 2.711514 1_455
Mo0 Ti0 2.711515 1_556
Mo0 Ti0 2.711516 1_565
Mo0 Ti0 2.711518 1_655
Mo0 Ti0 2.711521 1_555
Mo0 Ti1 2.711532 1_555
Pt0 Ti1 2.711499 1_555
Pt0 Ti0 2.711512 1_665
Pt0 Ti0 2.711512 1_656
Pt0 Ti0 2.711514 1_566
Pt0 Ti1 2.711523 1_556
Pt0 Ti1 2.711523 1_565
Pt0 Ti1 2.711525 1_655
Pt0 Ti0 2.711532 1_666
