# generated using pymatgen
data_Ca10V6O25
_symmetry_space_group_name_H-M   'P 1'
_cell_length_a   10.05999009
_cell_length_b   10.05999009
_cell_length_c   6.95979500
_cell_angle_alpha   90.00000000
_cell_angle_beta   90.00000000
_cell_angle_gamma   120.00000056
_symmetry_Int_Tables_number   1
_chemical_formula_structural   Ca10V6O25
_chemical_formula_sum   'Ca10 V6 O25'
_cell_volume   609.98925131
_cell_formula_units_Z   1
loop_
 _symmetry_equiv_pos_site_id
 _symmetry_equiv_pos_as_xyz
  1  'x, y, z'
loop_
 _atom_site_type_symbol
 _atom_site_label
 _atom_site_symmetry_multiplicity
 _atom_site_fract_x
 _atom_site_fract_y
 _atom_site_fract_z
 _atom_site_occupancy
  Ca  Ca0  1  0.45763300  0.10681300  0.24814100  1
  Ca  Ca1  1  0.94140700  0.61738400  0.75089000  1
  Ca  Ca2  1  0.89318700  0.35082000  0.24814100  1
  Ca  Ca3  1  0.38261600  0.32402200  0.75089000  1
  Ca  Ca4  1  0.64918000  0.54236700  0.24814100  1
  Ca  Ca5  1  0.67597800  0.05859300  0.75089000  1
  Ca  Ca6  1  0.00000000  0.00000000  0.00193000  1
  Ca  Ca7  1  0.33333300  0.66666700  0.00498700  1
  Ca  Ca8  1  0.00000000  0.00000000  0.48815300  1
  Ca  Ca9  1  0.33333300  0.66666700  0.50438800  1
  V  V0  1  0.69482900  0.71847600  0.74966400  1
  V  V1  1  0.63589300  0.92290600  0.25170100  1
  V  V2  1  0.28152400  0.97635300  0.74966400  1
  V  V3  1  0.07709400  0.71298700  0.25170100  1
  V  V4  1  0.02364700  0.30517100  0.74966400  1
  V  V5  1  0.28701300  0.36410700  0.25170100  1
  O  O0  1  0.40604000  0.42562100  0.05112600  1
  O  O1  1  0.90563700  0.23941800  0.94855000  1
  O  O2  1  0.57437900  0.98041900  0.05112600  1
  O  O3  1  0.76058200  0.66621900  0.94855000  1
  O  O4  1  0.01958100  0.59396000  0.05112600  1
  O  O5  1  0.33378100  0.09436300  0.94855000  1
  O  O6  1  0.19288100  0.47063500  0.25825500  1
  O  O7  1  0.11899800  0.19676800  0.73589700  1
  O  O8  1  0.52936500  0.72224600  0.25825500  1
  O  O9  1  0.80323200  0.92223000  0.73589700  1
  O  O10  1  0.27775400  0.80711900  0.25825500  1
  O  O11  1  0.07777000  0.88100200  0.73589700  1
  O  O12  1  0.57971800  0.99014700  0.44703600  1
  O  O13  1  0.74724800  0.63949000  0.56469300  1
  O  O14  1  0.00985300  0.58957100  0.44703600  1
  O  O15  1  0.36051000  0.10775800  0.56469300  1
  O  O16  1  0.41042900  0.42028200  0.44703600  1
  O  O17  1  0.89224200  0.25275200  0.56469300  1
  O  O18  1  0.83234800  0.99439900  0.24825300  1
  O  O19  1  0.49900900  0.65595400  0.75342400  1
  O  O20  1  0.00560100  0.83794900  0.24825300  1
  O  O21  1  0.34404600  0.84305500  0.75342400  1
  O  O22  1  0.16205100  0.16765200  0.24825300  1
  O  O23  1  0.15694500  0.50099100  0.75342400  1
  O  O24  1  0.66666700  0.33333300  0.22590100  1
loop_
_geom_bond_atom_site_label_1
_geom_bond_atom_site_label_2
_geom_bond_distance
_geom_bond_site_symmetry_2
Ca0 O24 2.201573 1_555
Ca0 O5 2.399924 1_554
Ca0 O15 2.412018 1_555
Ca0 O12 2.498708 1_545
Ca0 O2 2.523814 1_545
Ca0 O10 2.629360 1_545
Ca1 O14 2.284138 1_655
Ca1 O4 2.285972 1_656
Ca1 O11 2.299520 1_655
Ca1 O13 2.445057 1_555
Ca1 O3 2.517267 1_555
Ca1 O23 2.934590 1_655
Ca2 O24 2.201568 1_555
Ca2 O1 2.399924 1_554
Ca2 O17 2.412018 1_555
Ca2 O14 2.498708 1_655
Ca2 O4 2.523814 1_655
Ca2 O6 2.629360 1_655
Ca3 O16 2.284142 1_555
Ca3 O0 2.285976 1_556
Ca3 O7 2.299520 1_555
Ca3 O15 2.445049 1_555
Ca3 O5 2.517259 1_555
Ca3 O19 2.934599 1_555
Ca4 O24 2.201578 1_555
Ca4 O3 2.399924 1_554
Ca4 O13 2.412018 1_555
Ca4 O16 2.498708 1_555
Ca4 O0 2.523814 1_555
Ca4 O8 2.629360 1_555
Ca5 O12 2.284141 1_545
Ca5 O2 2.285975 1_546
Ca5 O9 2.299512 1_545
Ca5 O17 2.445052 1_555
Ca5 O1 2.517262 1_555
Ca5 O21 2.934597 1_545
Ca6 O22 2.385730 1_555
Ca6 O18 2.385730 1_445
Ca6 O20 2.385730 1_545
Ca6 O7 2.531789 1_554
Ca6 O9 2.531789 1_444
Ca6 O11 2.531789 1_544
Ca7 O21 2.456519 1_554
Ca7 O23 2.456522 1_554
Ca7 O19 2.456526 1_554
Ca7 O10 2.491212 1_555
Ca7 O6 2.491217 1_555
Ca7 O8 2.491218 1_555
Ca7 O4 2.879576 1_555
Ca7 O2 2.879578 1_555
Ca7 O0 2.879585 1_555
Ca8 O22 2.353813 1_555
Ca8 O18 2.353813 1_445
Ca8 O20 2.353813 1_545
Ca8 O7 2.440246 1_555
Ca8 O9 2.440246 1_445
Ca8 O11 2.440246 1_545
Ca9 O21 2.444015 1_555
Ca9 O23 2.444018 1_555
Ca9 O19 2.444022 1_555
Ca9 O10 2.456326 1_555
Ca9 O6 2.456331 1_555
Ca9 O8 2.456333 1_555
O0 V5 1.739096 1_555
O1 V4 1.725596 1_655
O2 V1 1.739096 1_555
O3 V0 1.725596 1_555
O4 V3 1.739096 1_555
O5 V2 1.725596 1_545
O6 V5 1.749898 1_555
O7 V4 1.778943 1_555
O8 V1 1.749898 1_555
O9 V0 1.778943 1_555
O10 V3 1.749898 1_555
O11 V2 1.778943 1_555
O12 V1 1.734193 1_555
O13 V0 1.727942 1_555
O14 V3 1.734193 1_555
O15 V2 1.727942 1_545
O16 V5 1.734193 1_555
O17 V4 1.727942 1_655
O18 V1 1.732725 1_555
O19 V0 1.742969 1_555
O20 V3 1.732725 1_555
O21 V2 1.742969 1_555
O22 V5 1.732725 1_555
O23 V4 1.742969 1_555
