# generated using pymatgen
data_Dy2Ni12P7
_symmetry_space_group_name_H-M   'P 1'
_cell_length_a   8.96457284
_cell_length_b   8.96477122
_cell_length_c   3.67005505
_cell_angle_alpha   89.99999827
_cell_angle_beta   90.00000088
_cell_angle_gamma   119.99558545
_symmetry_Int_Tables_number   1
_chemical_formula_structural   Dy2Ni12P7
_chemical_formula_sum   'Dy2 Ni12 P7'
_cell_volume   255.44143129
_cell_formula_units_Z   1
loop_
 _symmetry_equiv_pos_site_id
 _symmetry_equiv_pos_as_xyz
  1  'x, y, z'
loop_
 _atom_site_type_symbol
 _atom_site_label
 _atom_site_symmetry_multiplicity
 _atom_site_fract_x
 _atom_site_fract_y
 _atom_site_fract_z
 _atom_site_occupancy
  Dy  Dy0  1  0.66665880  0.33334852  0.00000006  1
  Dy  Dy1  1  0.00000380  -0.00002626  0.50000007  1
  Ni  Ni0  1  0.71446651  0.09737954  0.49999986  1
  Ni  Ni1  1  0.90262074  0.61707868  0.50000024  1
  Ni  Ni2  1  0.38297634  0.28562345  0.49999984  1
  Ni  Ni3  1  0.76644600  0.72817126  0.00000034  1
  Ni  Ni4  1  0.27185826  0.03835719  0.00000002  1
  Ni  Ni5  1  0.96168840  0.23350010  -0.00000003  1
  Ni  Ni6  1  0.54590411  0.75982908  0.50000039  1
  Ni  Ni7  1  0.24013563  0.78595854  0.49999950  1
  Ni  Ni8  1  0.21396203  0.45403197  0.50000010  1
  Ni  Ni9  1  0.48478918  0.94082725  -0.00000025  1
  Ni  Ni10  1  0.05914951  0.54393893  -0.00000007  1
  Ni  Ni11  1  0.45602899  0.51523740  0.00000003  1
  P  P0  1  0.44210051  0.07020356  0.49999987  1
  P  P1  1  0.92982484  0.37193824  0.49999993  1
  P  P2  1  0.62804415  0.55787961  0.50000014  1
  P  P3  1  0.33333711  0.66669306  -0.00000017  1
  P  P4  1  0.74061044  0.96289970  -0.00000000  1
  P  P5  1  0.03709282  0.77766986  0.00000022  1
  P  P6  1  0.22230182  0.25946233  -0.00000009  1
loop_
_geom_bond_atom_site_label_1
_geom_bond_atom_site_label_2
_geom_bond_distance
_geom_bond_site_symmetry_2
Dy0 P2 2.869754 1_554
Dy0 P2 2.869755 1_555
Dy0 P0 2.869939 1_555
Dy0 P0 2.869940 1_554
Dy0 P1 2.869957 1_555
Dy0 P1 2.869957 1_554
Dy0 Ni2 2.988275 1_555
Dy0 Ni2 2.988276 1_554
Dy0 Ni1 2.988626 1_554
Dy0 Ni1 2.988627 1_555
Dy0 Ni0 2.988719 1_555
Dy0 Ni0 2.988720 1_554
Dy0 Ni10 3.049980 1_655
Dy0 Ni11 3.050023 1_555
Dy0 Ni9 3.050282 1_545
Dy0 Ni4 3.187677 1_555
Dy0 Ni3 3.187854 1_555
Dy0 Ni5 3.188006 1_555
Dy1 P5 2.848168 1_545
Dy1 P5 2.848169 1_546
Dy1 P4 2.848209 1_446
Dy1 P4 2.848209 1_445
Dy1 P6 2.848668 1_556
Dy1 P6 2.848669 1_555
Dy1 Ni4 2.930275 1_556
Dy1 Ni4 2.930275 1_555
Dy1 Ni5 2.930371 1_456
Dy1 Ni5 2.930372 1_455
Dy1 Ni3 2.930410 1_445
Dy1 Ni3 2.930411 1_446
Dy1 Ni1 3.090051 1_445
Dy1 Ni0 3.090240 1_455
Dy1 Ni2 3.090939 1_555
Ni0 P1 2.243708 1_555
Ni0 P4 2.271165 1_545
Ni0 P4 2.271166 1_546
Ni0 P0 2.329423 1_555
Ni1 P2 2.243726 1_555
Ni1 P5 2.271099 1_656
Ni1 P5 2.271099 1_655
Ni1 P1 2.329144 1_555
Ni2 P0 2.243626 1_555
Ni2 P6 2.271399 1_555
Ni2 P6 2.271400 1_556
Ni2 P2 2.328566 1_555
Ni3 P4 2.229117 1_555
Ni3 P5 2.237640 1_655
Ni3 P2 2.311585 1_555
Ni3 P2 2.311587 1_554
Ni4 P5 2.230038 1_545
Ni4 P6 2.237581 1_555
Ni4 P0 2.311344 1_555
Ni4 P0 2.311345 1_554
Ni5 P6 2.229064 1_655
Ni5 P4 2.237306 1_545
Ni5 P1 2.311627 1_555
Ni5 P1 2.311627 1_554
Ni6 P2 2.269979 1_555
Ni6 P3 2.470794 1_556
Ni6 P3 2.470797 1_555
Ni6 P4 2.559482 1_556
Ni6 P4 2.559484 1_555
Ni7 P0 2.271197 1_565
Ni7 P3 2.470175 1_555
Ni7 P3 2.470176 1_556
Ni7 P5 2.559434 1_555
Ni7 P5 2.559438 1_556
Ni8 P1 2.270540 1_455
Ni8 P3 2.471275 1_556
Ni8 P3 2.471277 1_555
Ni8 P6 2.558474 1_556
Ni8 P6 2.558475 1_555
Ni9 P3 2.132307 1_555
Ni9 P4 2.201086 1_555
Ni9 P0 2.302774 1_564
Ni9 P0 2.302774 1_565
Ni10 P3 2.132630 1_555
Ni10 P5 2.200868 1_555
Ni10 P1 2.302519 1_455
Ni10 P1 2.302519 1_454
Ni11 P3 2.132239 1_555
Ni11 P6 2.200930 1_555
Ni11 P2 2.302595 1_554
Ni11 P2 2.302596 1_555
