# generated using pymatgen
data_Li2V4O3F8
_symmetry_space_group_name_H-M   'P 1'
_cell_length_a   6.59510000
_cell_length_b   6.88974439
_cell_length_c   5.14845079
_cell_angle_alpha   105.38024857
_cell_angle_beta   96.80875315
_cell_angle_gamma   107.94249004
_symmetry_Int_Tables_number   1
_chemical_formula_structural   Li2V4O3F8
_chemical_formula_sum   'Li2 V4 O3 F8'
_cell_volume   209.41389207
_cell_formula_units_Z   1
loop_
 _symmetry_equiv_pos_site_id
 _symmetry_equiv_pos_as_xyz
  1  'x, y, z'
loop_
 _atom_site_type_symbol
 _atom_site_label
 _atom_site_symmetry_multiplicity
 _atom_site_fract_x
 _atom_site_fract_y
 _atom_site_fract_z
 _atom_site_occupancy
  Li  Li0  1  0.39789800  0.66967700  0.18044400  1
  Li  Li1  1  0.60210200  0.33032300  0.81955600  1
  V  V0  1  0.96638700  0.90340000  0.24512500  1
  V  V1  1  0.76396200  0.35045100  0.38012700  1
  V  V2  1  0.23603800  0.64954900  0.61987200  1
  V  V3  1  0.03361300  0.09660000  0.75487500  1
  O  O0  1  0.00000000  0.00000000  0.00000000  1
  O  O1  1  0.94803000  0.73399500  0.52487700  1
  O  O2  1  0.05197000  0.26600500  0.47512300  1
  F  F0  1  0.80292800  0.48805700  0.10908400  1
  F  F1  1  0.66607100  0.95426500  0.20654100  1
  F  F2  1  0.48267400  0.38070000  0.28522400  1
  F  F3  1  0.25081800  0.80298600  0.34918500  1
  F  F4  1  0.74918200  0.19701400  0.65081500  1
  F  F5  1  0.51732600  0.61930000  0.71477600  1
  F  F6  1  0.33392900  0.04573500  0.79345900  1
  F  F7  1  0.19707200  0.51194300  0.89091600  1
loop_
_geom_bond_atom_site_label_1
_geom_bond_atom_site_label_2
_geom_bond_distance
_geom_bond_site_symmetry_2
O0 V0 1.582956 1_445
O0 V3 1.582956 1_554
O1 V0 2.073002 1_555
O1 V2 2.190237 1_655
O1 V3 2.316369 1_665
O1 V1 2.403411 1_555
O2 V3 2.073002 1_555
O2 V1 2.190238 1_455
O2 V0 2.316369 1_445
O2 V2 2.403411 1_555
F0 Li1 1.715502 1_554
F0 V1 1.883841 1_555
F0 V0 2.588171 1_555
F1 V0 2.111018 1_555
F1 Li0 2.158216 1_555
F1 V1 2.479869 1_565
F2 V1 1.949602 1_555
F2 Li0 2.398262 1_555
F3 Li0 1.692543 1_555
F3 V2 1.954336 1_555
F3 V0 2.245521 1_455
F4 Li1 1.692543 1_555
F4 V1 1.954340 1_555
F4 V3 2.245521 1_655
F5 V2 1.949602 1_555
F5 Li1 2.398262 1_555
F6 V3 2.111018 1_555
F6 Li1 2.158216 1_555
F6 V2 2.479869 1_545
F7 Li0 1.715502 1_556
F7 V2 1.883845 1_555
F7 V3 2.588171 1_555
