# generated using pymatgen
data_HoHg3
_symmetry_space_group_name_H-M   'P 1'
_cell_length_a   6.58478156
_cell_length_b   6.58478275
_cell_length_c   4.93786409
_cell_angle_alpha   90.00000000
_cell_angle_beta   90.00000000
_cell_angle_gamma   120.00001353
_symmetry_Int_Tables_number   1
_chemical_formula_structural   HoHg3
_chemical_formula_sum   'Ho2 Hg6'
_cell_volume   185.41827141
_cell_formula_units_Z   2
loop_
 _symmetry_equiv_pos_site_id
 _symmetry_equiv_pos_as_xyz
  1  'x, y, z'
loop_
 _atom_site_type_symbol
 _atom_site_label
 _atom_site_symmetry_multiplicity
 _atom_site_fract_x
 _atom_site_fract_y
 _atom_site_fract_z
 _atom_site_occupancy
  Ho  Ho0  1  0.33333400  0.66666700  0.75000000  1
  Ho  Ho1  1  0.66666700  0.33333300  0.25000000  1
  Hg  Hg0  1  0.16644427  0.33288854  0.25000000  1
  Hg  Hg1  1  0.66711246  0.83355673  0.25000000  1
  Hg  Hg2  1  0.16644427  0.83355673  0.25000000  1
  Hg  Hg3  1  0.83355473  0.66711246  0.75000000  1
  Hg  Hg4  1  0.33288754  0.16644427  0.75000000  1
  Hg  Hg5  1  0.83355573  0.16644427  0.75000000  1
loop_
_geom_bond_atom_site_label_1
_geom_bond_atom_site_label_2
_geom_bond_distance
_geom_bond_site_symmetry_2
Hg0 Ho0 3.117461 1_555
Hg0 Ho0 3.117461 1_554
Hg0 Ho1 3.292388 1_455
Hg0 Ho1 3.292395 1_555
Hg1 Ho0 3.117461 1_555
Hg1 Ho0 3.117461 1_554
Hg1 Ho1 3.292386 1_565
Hg1 Ho1 3.292399 1_555
Hg2 Ho0 3.117464 1_555
Hg2 Ho0 3.117464 1_554
Hg2 Ho1 3.292388 1_565
Hg2 Ho1 3.292395 1_455
Hg3 Ho1 3.117464 1_555
Hg3 Ho1 3.117464 1_556
Hg3 Ho0 3.292379 1_555
Hg3 Ho0 3.292405 1_655
Hg4 Ho1 3.117464 1_556
Hg4 Ho1 3.117464 1_555
Hg4 Ho0 3.292389 1_555
Hg4 Ho0 3.292396 1_545
Hg5 Ho1 3.117457 1_555
Hg5 Ho1 3.117457 1_556
Hg5 Ho0 3.292388 1_545
Hg5 Ho0 3.292395 1_655
