# generated using pymatgen
data_UTa2S6Cl6O
_symmetry_space_group_name_H-M   'P 1'
_cell_length_a   6.98623300
_cell_length_b   9.67922230
_cell_length_c   12.87159687
_cell_angle_alpha   84.14986947
_cell_angle_beta   83.15207640
_cell_angle_gamma   88.78665065
_symmetry_Int_Tables_number   1
_chemical_formula_structural   UTa2S6Cl6O
_chemical_formula_sum   'U2 Ta4 S12 Cl12 O2'
_cell_volume   859.64823970
_cell_formula_units_Z   2
loop_
 _symmetry_equiv_pos_site_id
 _symmetry_equiv_pos_as_xyz
  1  'x, y, z'
loop_
 _atom_site_type_symbol
 _atom_site_label
 _atom_site_symmetry_multiplicity
 _atom_site_fract_x
 _atom_site_fract_y
 _atom_site_fract_z
 _atom_site_occupancy
  U  U0  1  0.23459100  0.40659100  0.09747800  1
  U  U1  1  0.76540900  0.59340900  0.90252200  1
  Ta  Ta0  1  0.22269800  0.05368500  0.22511000  1
  Ta  Ta1  1  0.77730200  0.94631500  0.77489000  1
  Ta  Ta2  1  0.35079700  0.30272100  0.36280300  1
  Ta  Ta3  1  0.64920300  0.69727900  0.63719700  1
  S  S0  1  0.07587400  0.13151100  0.40070400  1
  S  S1  1  0.92412600  0.86848900  0.59929600  1
  S  S2  1  0.17503600  0.12428900  0.04143200  1
  S  S3  1  0.82496400  0.87571100  0.95856800  1
  S  S4  1  0.95700100  0.19147000  0.15029100  1
  S  S5  1  0.04299900  0.80853000  0.84970900  1
  S  S6  1  0.38762900  0.53699600  0.26824100  1
  S  S7  1  0.61237100  0.46300400  0.73175900  1
  S  S8  1  0.10461900  0.47190200  0.30929000  1
  S  S9  1  0.89538100  0.52809800  0.69071000  1
  S  S10  1  0.34402200  0.03646500  0.40830600  1
  S  S11  1  0.65597800  0.96353500  0.59169400  1
  Cl  Cl0  1  0.40520000  0.65521700  0.00357800  1
  Cl  Cl1  1  0.59480000  0.34478300  0.99642200  1
  Cl  Cl2  1  0.49492400  0.06465600  0.83440900  1
  Cl  Cl3  1  0.50507600  0.93534400  0.16559100  1
  Cl  Cl4  1  0.30243600  0.34463600  0.53821700  1
  Cl  Cl5  1  0.69756400  0.65536400  0.46178300  1
  Cl  Cl6  1  0.69266100  0.29630600  0.35654000  1
  Cl  Cl7  1  0.30733900  0.70369400  0.64346000  1
  Cl  Cl8  1  0.10646200  0.42723800  0.89983500  1
  Cl  Cl9  1  0.89353800  0.57276200  0.10016500  1
  Cl  Cl10  1  0.02993700  0.85836000  0.26206600  1
  Cl  Cl11  1  0.97006300  0.14164000  0.73793400  1
  O  O0  1  0.35061500  0.24066200  0.21810500  1
  O  O1  1  0.64938500  0.75933800  0.78189500  1
loop_
_geom_bond_atom_site_label_1
_geom_bond_atom_site_label_2
_geom_bond_distance
_geom_bond_site_symmetry_2
S0 S10 2.077911 1_555
S0 Ta2 2.533729 1_555
S0 Ta0 2.547449 1_555
S1 S11 2.077911 1_555
S1 Ta3 2.533729 1_555
S1 Ta1 2.547449 1_555
S2 S4 2.083567 1_455
S2 Ta0 2.452796 1_555
S2 U0 2.946430 1_555
S3 S5 2.083567 1_655
S3 Ta1 2.452796 1_555
S3 U1 2.946430 1_555
S4 Ta0 2.492240 1_655
S4 U0 2.850735 1_655
S5 Ta1 2.492240 1_455
S5 U1 2.850735 1_455
S6 S8 2.078734 1_555
S6 Ta2 2.465175 1_555
S6 U0 2.958139 1_555
S7 S9 2.078734 1_555
S7 Ta3 2.465175 1_555
S7 U1 2.958139 1_555
S8 Ta2 2.459101 1_555
S8 U0 2.897211 1_555
S9 Ta3 2.459101 1_555
S9 U1 2.897211 1_555
S10 Ta2 2.584152 1_555
S10 Ta0 2.587856 1_555
S11 Ta3 2.584152 1_555
S11 Ta1 2.587856 1_555
Cl0 U1 2.774336 1_554
Cl0 U0 2.803169 1_555
Cl1 U0 2.774336 1_556
Cl1 U1 2.803169 1_555
Cl2 Ta1 2.348090 1_545
Cl3 Ta0 2.348090 1_565
Cl4 Ta2 2.318552 1_555
Cl5 Ta3 2.318552 1_555
Cl6 Ta2 2.379781 1_555
Cl7 Ta3 2.379781 1_555
Cl8 U0 2.782963 1_556
Cl8 U1 2.845118 1_455
Cl9 U1 2.782963 1_554
Cl9 U0 2.845118 1_655
Cl10 Ta0 2.320751 1_565
Cl11 Ta1 2.320751 1_545
O0 Ta2 2.014539 1_555
O0 Ta0 2.024381 1_555
O0 U0 2.320317 1_555
O1 Ta3 2.014539 1_555
O1 Ta1 2.024381 1_555
O1 U1 2.320317 1_555
