# generated using pymatgen
data_Mn2V3O12
_symmetry_space_group_name_H-M   'P 1'
_cell_length_a   9.01217100
_cell_length_b   8.73193200
_cell_length_c   14.98451561
_cell_angle_alpha   55.01081030
_cell_angle_beta   90.00000000
_cell_angle_gamma   90.00000000
_symmetry_Int_Tables_number   1
_chemical_formula_structural   Mn2V3O12
_chemical_formula_sum   'Mn8 V12 O48'
_cell_volume   966.06057871
_cell_formula_units_Z   4
loop_
 _symmetry_equiv_pos_site_id
 _symmetry_equiv_pos_as_xyz
  1  'x, y, z'
loop_
 _atom_site_type_symbol
 _atom_site_label
 _atom_site_symmetry_multiplicity
 _atom_site_fract_x
 _atom_site_fract_y
 _atom_site_fract_z
 _atom_site_occupancy
  Mn  Mn0  1  0.97429900  0.36796600  0.88376500  1
  Mn  Mn1  1  0.47429900  0.63203400  0.61623500  1
  Mn  Mn2  1  0.02861300  0.87163400  0.38091600  1
  Mn  Mn3  1  0.52861300  0.12836600  0.11908400  1
  Mn  Mn4  1  0.47138700  0.87163400  0.88091600  1
  Mn  Mn5  1  0.97138700  0.12836600  0.61908400  1
  Mn  Mn6  1  0.52570100  0.36796600  0.38376500  1
  Mn  Mn7  1  0.02570100  0.63203400  0.11623500  1
  V  V0  1  0.75138300  0.54258400  0.49015100  1
  V  V1  1  0.61809300  0.25535500  0.85243900  1
  V  V2  1  0.88792300  0.97047000  0.14164500  1
  V  V3  1  0.11809300  0.74464500  0.64756100  1
  V  V4  1  0.38792300  0.02953000  0.35835500  1
  V  V5  1  0.25138300  0.45741600  0.00984900  1
  V  V6  1  0.74861700  0.54258400  0.99015100  1
  V  V7  1  0.61207700  0.97047000  0.64164500  1
  V  V8  1  0.88190700  0.25535500  0.35243900  1
  V  V9  1  0.11207700  0.02953000  0.85835500  1
  V  V10  1  0.38190700  0.74464500  0.14756100  1
  V  V11  1  0.24861700  0.45741600  0.50984900  1
  O  O0  1  0.12424000  0.63694700  0.44303300  1
  O  O1  1  0.10773700  0.18238800  0.89897700  1
  O  O2  1  0.34081400  0.46226700  0.61302200  1
  O  O3  1  0.42986300  0.89667000  0.18239600  1
  O  O4  1  0.62755600  0.51475000  0.58798000  1
  O  O5  1  0.81192000  0.28008300  0.84472000  1
  O  O6  1  0.56487900  0.15908800  0.98480400  1
  O  O7  1  0.00550300  0.88669800  0.25105000  1
  O  O8  1  0.70943700  0.99258800  0.17514900  1
  O  O9  1  0.84081800  0.75478700  0.42992400  1
  O  O10  1  0.52636300  0.46886600  0.76690400  1
  O  O11  1  0.02636300  0.53113400  0.73309600  1
  O  O12  1  0.94215300  0.19577800  0.03599200  1
  O  O13  1  0.44215300  0.80422200  0.46400800  1
  O  O14  1  0.34081800  0.24521300  0.07007600  1
  O  O15  1  0.20943700  0.00741200  0.32485100  1
  O  O16  1  0.06487900  0.84091200  0.51519600  1
  O  O17  1  0.50550300  0.11330200  0.24895000  1
  O  O18  1  0.31192000  0.71991700  0.65528000  1
  O  O19  1  0.12755600  0.48525000  0.91202000  1
  O  O20  1  0.84081400  0.53773300  0.88697800  1
  O  O21  1  0.60773700  0.81761200  0.60102300  1
  O  O22  1  0.92986300  0.10333000  0.31760400  1
  O  O23  1  0.62424000  0.36305300  0.05696700  1
  O  O24  1  0.37576000  0.63694700  0.94303300  1
  O  O25  1  0.07013700  0.89667000  0.68239600  1
  O  O26  1  0.39226300  0.18238800  0.39897700  1
  O  O27  1  0.15918600  0.46226700  0.11302200  1
  O  O28  1  0.87244400  0.51475000  0.08798000  1
  O  O29  1  0.68808000  0.28008300  0.34472000  1
  O  O30  1  0.49449700  0.88669800  0.75105000  1
  O  O31  1  0.93512100  0.15908800  0.48480400  1
  O  O32  1  0.79056300  0.99258800  0.67514900  1
  O  O33  1  0.65918200  0.75478700  0.92992400  1
  O  O34  1  0.55784700  0.19577800  0.53599200  1
  O  O35  1  0.05784700  0.80422200  0.96400800  1
  O  O36  1  0.97363700  0.46886600  0.26690400  1
  O  O37  1  0.47363700  0.53113400  0.23309600  1
  O  O38  1  0.15918200  0.24521300  0.57007600  1
  O  O39  1  0.29056300  0.00741200  0.82485100  1
  O  O40  1  0.99449700  0.11330200  0.74895000  1
  O  O41  1  0.43512100  0.84091200  0.01519600  1
  O  O42  1  0.18808000  0.71991700  0.15528000  1
  O  O43  1  0.37244400  0.48525000  0.41202000  1
  O  O44  1  0.57013700  0.10333000  0.81760400  1
  O  O45  1  0.65918600  0.53773300  0.38697800  1
  O  O46  1  0.89226300  0.81761200  0.10102300  1
  O  O47  1  0.87576000  0.36305300  0.55696700  1
loop_
_geom_bond_atom_site_label_1
_geom_bond_atom_site_label_2
_geom_bond_distance
_geom_bond_site_symmetry_2
Mn0 O5 1.894096 1_555
Mn0 O12 1.901176 1_556
Mn0 O19 1.906041 1_655
Mn0 O11 1.912665 1_655
Mn0 O1 1.923638 1_655
Mn0 O20 1.931022 1_555
Mn1 O18 1.894096 1_555
Mn1 O13 1.901176 1_555
Mn1 O4 1.906041 1_555
Mn1 O10 1.912665 1_555
Mn1 O21 1.923638 1_555
Mn1 O2 1.931022 1_555
Mn2 O7 1.885194 1_555
Mn2 O22 1.893141 1_465
Mn2 O9 1.893505 1_455
Mn2 O16 1.899573 1_555
Mn2 O0 1.902907 1_555
Mn2 O15 1.903889 1_565
Mn3 O17 1.885194 1_555
Mn3 O3 1.893141 1_545
Mn3 O14 1.893505 1_555
Mn3 O6 1.899573 1_554
Mn3 O23 1.902907 1_555
Mn3 O8 1.903889 1_545
Mn4 O30 1.885194 1_555
Mn4 O44 1.893141 1_565
Mn4 O33 1.893505 1_555
Mn4 O41 1.899573 1_556
Mn4 O24 1.902907 1_555
Mn4 O39 1.903889 1_565
Mn5 O40 1.885194 1_555
Mn5 O25 1.893141 1_645
Mn5 O38 1.893505 1_655
Mn5 O31 1.899573 1_555
Mn5 O47 1.902907 1_555
Mn5 O32 1.903889 1_545
Mn6 O29 1.894096 1_555
Mn6 O34 1.901176 1_555
Mn6 O43 1.906041 1_555
Mn6 O37 1.912665 1_555
Mn6 O26 1.923638 1_555
Mn6 O45 1.931022 1_555
Mn7 O42 1.894096 1_555
Mn7 O35 1.901176 1_554
Mn7 O28 1.906041 1_455
Mn7 O36 1.912665 1_455
Mn7 O46 1.923638 1_455
Mn7 O27 1.931022 1_555
O0 V11 1.707735 1_555
O1 V9 1.756519 1_555
O2 V11 1.776905 1_555
O3 V10 1.736695 1_555
O4 V0 1.744917 1_555
O5 V1 1.755755 1_555
O6 V1 1.720024 1_555
O7 V2 1.723433 1_455
O8 V2 1.728573 1_555
O9 V0 1.726183 1_555
O10 V1 1.749735 1_555
O11 V3 1.749735 1_555
O12 V2 1.744642 1_545
O13 V4 1.744642 1_565
O14 V5 1.726183 1_555
O15 V4 1.728573 1_555
O16 V3 1.720024 1_555
O17 V4 1.723433 1_555
O18 V3 1.755755 1_555
O19 V5 1.744917 1_556
O20 V6 1.776905 1_555
O21 V7 1.756519 1_555
O22 V8 1.736695 1_555
O23 V6 1.707735 1_554
O24 V5 1.707735 1_556
O25 V3 1.736695 1_555
O26 V4 1.756519 1_555
O27 V5 1.776905 1_555
O28 V6 1.744917 1_554
O29 V8 1.755755 1_555
O30 V7 1.723433 1_555
O31 V8 1.720024 1_555
O32 V7 1.728573 1_555
O33 V6 1.726183 1_555
O34 V7 1.744642 1_545
O35 V9 1.744642 1_565
O36 V8 1.749735 1_555
O37 V10 1.749735 1_555
O38 V11 1.726183 1_555
O39 V9 1.728573 1_555
O40 V9 1.723433 1_655
O41 V10 1.720024 1_555
O42 V10 1.755755 1_555
O43 V11 1.744917 1_555
O44 V1 1.736695 1_555
O45 V0 1.776905 1_555
O46 V2 1.756519 1_555
O47 V0 1.707735 1_555
