# generated using pymatgen
data_Ba2GeP2
_symmetry_space_group_name_H-M   'P 1'
_cell_length_a   9.63854321
_cell_length_b   7.56787753
_cell_length_c   8.65625490
_cell_angle_alpha   73.90705145
_cell_angle_beta   90.00000000
_cell_angle_gamma   90.00000000
_symmetry_Int_Tables_number   1
_chemical_formula_structural   Ba2GeP2
_chemical_formula_sum   'Ba8 Ge4 P8'
_cell_volume   606.67280332
_cell_formula_units_Z   4
loop_
 _symmetry_equiv_pos_site_id
 _symmetry_equiv_pos_as_xyz
  1  'x, y, z'
loop_
 _atom_site_type_symbol
 _atom_site_label
 _atom_site_symmetry_multiplicity
 _atom_site_fract_x
 _atom_site_fract_y
 _atom_site_fract_z
 _atom_site_occupancy
  Ba  Ba0  1  0.66389759  0.40040883  0.47863172  1
  Ba  Ba1  1  0.16389759  0.09959117  0.52136828  1
  Ba  Ba2  1  0.33610241  0.59959117  0.52136828  1
  Ba  Ba3  1  0.83610241  0.90040883  0.47863172  1
  Ba  Ba4  1  0.85931041  0.76095420  0.99199439  1
  Ba  Ba5  1  0.35931041  0.73904580  0.00800561  1
  Ba  Ba6  1  0.14068959  0.23904580  0.00800561  1
  Ba  Ba7  1  0.64068959  0.26095420  0.99199439  1
  Ge  Ge0  1  0.52959620  0.97414680  0.64203824  1
  Ge  Ge1  1  0.02959620  0.52585320  0.35796176  1
  Ge  Ge2  1  0.47040380  0.02585320  0.35796176  1
  Ge  Ge3  1  0.97040380  0.47414680  0.64203824  1
  P  P0  1  0.90381148  0.17590361  0.75455218  1
  P  P1  1  0.40381148  0.32409639  0.24544782  1
  P  P2  1  0.09618852  0.82409639  0.24544782  1
  P  P3  1  0.59618852  0.67590361  0.75455218  1
  P  P4  1  0.40292131  0.15635665  0.76226771  1
  P  P5  1  0.90292131  0.34364335  0.23773229  1
  P  P6  1  0.59707869  0.84364335  0.23773229  1
  P  P7  1  0.09707869  0.65635665  0.76226771  1
loop_
_geom_bond_atom_site_label_1
_geom_bond_atom_site_label_2
_geom_bond_distance
_geom_bond_site_symmetry_2
Ba0 P5 3.215166 1_555
Ba0 P1 3.367261 1_555
Ba0 Ge3 3.387849 1_555
Ba0 Ge0 3.398994 1_545
Ba0 P0 3.418901 1_555
Ba0 P6 3.483817 1_555
Ba0 P3 3.638419 1_555
Ba0 P4 3.640436 1_555
Ba1 P4 3.215166 1_555
Ba1 P0 3.367261 1_455
Ba1 Ge2 3.387849 1_555
Ba1 Ge1 3.398994 1_555
Ba1 P1 3.418901 1_555
Ba1 P7 3.483817 1_545
Ba1 P2 3.638419 1_545
Ba1 P5 3.640436 1_455
Ba2 P7 3.215166 1_555
Ba2 P3 3.367261 1_555
Ba2 Ge1 3.387849 1_555
Ba2 Ge2 3.398994 1_565
Ba2 P2 3.418901 1_555
Ba2 P4 3.483817 1_555
Ba2 P1 3.638419 1_555
Ba2 P6 3.640436 1_555
Ba3 P6 3.215166 1_555
Ba3 P2 3.367261 1_655
Ba3 Ge0 3.387849 1_555
Ba3 Ge3 3.398994 1_555
Ba3 P3 3.418901 1_555
Ba3 P5 3.483817 1_565
Ba3 P0 3.638419 1_565
Ba3 P7 3.640436 1_655
Ba4 P0 3.269801 1_565
Ba4 P7 3.271968 1_655
Ba4 P2 3.291782 1_656
Ba4 P5 3.309248 1_556
Ba4 P3 3.435707 1_555
Ba4 P6 3.470281 1_556
Ba5 P1 3.269801 1_555
Ba5 P6 3.271968 1_555
Ba5 P3 3.291782 1_554
Ba5 P4 3.309248 1_564
Ba5 P2 3.435707 1_555
Ba5 P7 3.470281 1_554
Ba6 P2 3.269801 1_545
Ba6 P5 3.271968 1_455
Ba6 P0 3.291782 1_454
Ba6 P7 3.309248 1_554
Ba6 P1 3.435707 1_555
Ba6 P4 3.470281 1_554
Ba7 P3 3.269801 1_555
Ba7 P4 3.271968 1_555
Ba7 P1 3.291782 1_556
Ba7 P6 3.309248 1_546
Ba7 P0 3.435707 1_555
Ba7 P5 3.470281 1_556
Ge0 P3 2.288275 1_555
Ge0 P4 2.295861 1_565
Ge1 P2 2.288275 1_555
Ge1 P5 2.295861 1_455
Ge2 P1 2.288275 1_555
Ge2 P6 2.295861 1_545
Ge3 P0 2.288275 1_555
Ge3 P7 2.295861 1_655
