# generated using pymatgen
data_LiMnSiO4
_symmetry_space_group_name_H-M   'P 1'
_cell_length_a   5.10989900
_cell_length_b   7.05825200
_cell_length_c   9.49029500
_cell_angle_alpha   90.00000000
_cell_angle_beta   90.00000000
_cell_angle_gamma   90.00000000
_symmetry_Int_Tables_number   1
_chemical_formula_structural   LiMnSiO4
_chemical_formula_sum   'Li4 Mn4 Si4 O16'
_cell_volume   342.28604115
_cell_formula_units_Z   4
loop_
 _symmetry_equiv_pos_site_id
 _symmetry_equiv_pos_as_xyz
  1  'x, y, z'
loop_
 _atom_site_type_symbol
 _atom_site_label
 _atom_site_symmetry_multiplicity
 _atom_site_fract_x
 _atom_site_fract_y
 _atom_site_fract_z
 _atom_site_occupancy
  Li  Li0  1  0.24754200  0.53068400  0.18242400  1
  Li  Li1  1  0.74754200  0.03068400  0.31757600  1
  Li  Li2  1  0.24754200  0.96931600  0.68242400  1
  Li  Li3  1  0.74754200  0.46931600  0.81757600  1
  Mn  Mn0  1  0.18602900  0.02436600  0.11762600  1
  Mn  Mn1  1  0.68602900  0.52436600  0.38237400  1
  Mn  Mn2  1  0.18602900  0.47563400  0.61762600  1
  Mn  Mn3  1  0.68602900  0.97563400  0.88237400  1
  Si  Si0  1  0.76200900  0.73912100  0.09116600  1
  Si  Si1  1  0.26200900  0.23912100  0.40883400  1
  Si  Si2  1  0.76200900  0.76087900  0.59116600  1
  Si  Si3  1  0.26200900  0.26087900  0.90883400  1
  O  O0  1  0.21974800  0.29254200  0.07958400  1
  O  O1  1  0.07178900  0.76519100  0.13200000  1
  O  O2  1  0.62870100  0.57428000  0.18550600  1
  O  O3  1  0.63003000  0.95839500  0.09851200  1
  O  O4  1  0.13003000  0.45839500  0.40148800  1
  O  O5  1  0.12870100  0.07428000  0.31449400  1
  O  O6  1  0.57178900  0.26519100  0.36800000  1
  O  O7  1  0.71974800  0.79254200  0.42041600  1
  O  O8  1  0.21974800  0.20745800  0.57958400  1
  O  O9  1  0.07178900  0.73480900  0.63200000  1
  O  O10  1  0.62870100  0.92572000  0.68550600  1
  O  O11  1  0.63003000  0.54160500  0.59851200  1
  O  O12  1  0.13003000  0.04160500  0.90148800  1
  O  O13  1  0.12870100  0.42572000  0.81449400  1
  O  O14  1  0.57178900  0.23480900  0.86800000  1
  O  O15  1  0.71974800  0.70745800  0.92041600  1
loop_
_geom_bond_atom_site_label_1
_geom_bond_atom_site_label_2
_geom_bond_distance
_geom_bond_site_symmetry_2
Li0 O1 1.943004 1_555
Li0 O0 1.948852 1_555
Li0 O2 1.972059 1_555
Li0 O4 2.223303 1_555
Li1 O6 1.943004 1_555
Li1 O7 1.948852 1_545
Li1 O5 1.972059 1_655
Li1 O3 2.223303 1_545
Li2 O9 1.943004 1_555
Li2 O8 1.948852 1_565
Li2 O10 1.972059 1_555
Li2 O12 2.223303 1_565
Li3 O14 1.943004 1_555
Li3 O15 1.948852 1_555
Li3 O13 1.972059 1_655
Li3 O11 2.223303 1_555
Mn0 O5 1.923697 1_555
Mn0 O1 1.925045 1_545
Mn0 O0 1.934664 1_555
Mn0 O12 2.074648 1_554
Mn0 O3 2.323183 1_545
Mn1 O2 1.923697 1_555
Mn1 O6 1.925045 1_555
Mn1 O7 1.934664 1_555
Mn1 O11 2.074648 1_555
Mn1 O4 2.323183 1_655
Mn2 O13 1.923697 1_555
Mn2 O9 1.925045 1_555
Mn2 O8 1.934664 1_555
Mn2 O4 2.074648 1_555
Mn2 O11 2.323183 1_555
Mn3 O10 1.923697 1_555
Mn3 O14 1.925045 1_565
Mn3 O15 1.934664 1_555
Mn3 O3 2.074648 1_556
Mn3 O12 2.323183 1_665
O0 Si3 1.649999 1_554
O1 Si0 1.640046 1_455
O2 Si0 1.618430 1_555
O3 Si0 1.689681 1_555
O4 Si1 1.689681 1_555
O5 Si1 1.618430 1_555
O6 Si1 1.640046 1_555
O7 Si2 1.649999 1_555
O8 Si1 1.649999 1_555
O9 Si2 1.640046 1_455
O10 Si2 1.618430 1_555
O11 Si2 1.689681 1_555
O12 Si3 1.689681 1_555
O13 Si3 1.618430 1_555
O14 Si3 1.640046 1_555
O15 Si0 1.649999 1_556
