# generated using pymatgen
data_LiCuF4
_symmetry_space_group_name_H-M   'P 1'
_cell_length_a   7.71167090
_cell_length_b   7.71167090
_cell_length_c   12.19173927
_cell_angle_alpha   60.12824706
_cell_angle_beta   60.12824706
_cell_angle_gamma   28.90578335
_symmetry_Int_Tables_number   1
_chemical_formula_structural   LiCuF4
_chemical_formula_sum   'Li4 Cu4 F16'
_cell_volume   300.55340258
_cell_formula_units_Z   4
loop_
 _symmetry_equiv_pos_site_id
 _symmetry_equiv_pos_as_xyz
  1  'x, y, z'
loop_
 _atom_site_type_symbol
 _atom_site_label
 _atom_site_symmetry_multiplicity
 _atom_site_fract_x
 _atom_site_fract_y
 _atom_site_fract_z
 _atom_site_occupancy
  Li  Li0  1  0.19846400  0.19846400  0.83265600  1
  Li  Li1  1  0.65755500  0.65755500  0.65766800  1
  Li  Li2  1  0.34562400  0.34562400  0.33794700  1
  Li  Li3  1  0.80594800  0.80594800  0.16687700  1
  Cu  Cu0  1  0.03615800  0.03615800  0.13245600  1
  Cu  Cu1  1  0.13794500  0.13794500  0.36073600  1
  Cu  Cu2  1  0.86244600  0.86244600  0.63902600  1
  Cu  Cu3  1  0.96510300  0.96510300  0.86737700  1
  F  F0  1  0.07353000  0.07353000  0.26220000  1
  F  F1  1  0.10696900  0.10696900  0.73862900  1
  F  F2  1  0.19616700  0.19616700  0.46589200  1
  F  F3  1  0.28015600  0.28015600  0.21691600  1
  F  F4  1  0.17176500  0.17176500  0.00474400  1
  F  F5  1  0.52167100  0.52167100  0.14637500  1
  F  F6  1  0.34868400  0.34868400  0.65637900  1
  F  F7  1  0.65196300  0.65196300  0.34398900  1
  F  F8  1  0.47488100  0.47488100  0.85783900  1
  F  F9  1  0.82995300  0.82995300  0.99728100  1
  F  F10  1  0.71947200  0.71947200  0.78149900  1
  F  F11  1  0.80605600  0.80605600  0.53224200  1
  F  F12  1  0.00244900  0.00244900  0.99875200  1
  F  F13  1  0.89242000  0.89242000  0.25934100  1
  F  F14  1  0.00067500  0.00067500  0.50090400  1
  F  F15  1  0.92201700  0.92201700  0.74227500  1
loop_
_geom_bond_atom_site_label_1
_geom_bond_atom_site_label_2
_geom_bond_distance
_geom_bond_site_symmetry_2
Cu0 F4 1.811729 1_555
Cu0 F13 1.893536 1_445
Cu0 F0 1.929214 1_555
Cu0 F5 1.934515 1_455
Cu0 F5 1.934515 1_545
Cu0 F12 1.937741 1_554
Cu1 F14 1.876034 1_555
Cu1 F2 1.883220 1_555
Cu1 F0 1.886163 1_555
Cu1 F7 1.935472 1_455
Cu1 F7 1.935472 1_545
Cu1 F3 1.937702 1_555
Cu2 F14 1.876593 1_665
Cu2 F15 1.878346 1_555
Cu2 F11 1.879383 1_555
Cu2 F6 1.935660 1_565
Cu2 F6 1.935660 1_655
Cu2 F10 1.939439 1_555
Cu3 F9 1.814977 1_555
Cu3 F1 1.879360 1_665
Cu3 F8 1.929219 1_565
Cu3 F8 1.929219 1_655
Cu3 F15 1.936486 1_555
Cu3 F12 1.948208 1_665
F1 Li1 2.117184 1_455
F1 Li1 2.117184 1_545
F1 Li0 2.189259 1_555
F2 Li2 1.958075 1_555
F3 Li3 1.995827 1_455
F3 Li3 1.995827 1_545
F3 Li2 2.148848 1_555
F4 Li0 1.923598 1_554
F5 Li2 2.459912 1_555
F6 Li0 2.166188 1_555
F7 Li3 2.200753 1_555
F9 Li3 1.908203 1_556
F10 Li0 1.997659 1_565
F10 Li0 1.997659 1_655
F10 Li1 2.137880 1_555
F11 Li1 1.941296 1_555
F13 Li2 2.102950 1_655
F13 Li2 2.102950 1_565
F13 Li3 2.106264 1_555
