# generated using pymatgen
data_SrTaNO2
_symmetry_space_group_name_H-M   'P 1'
_cell_length_a   5.73540529
_cell_length_b   5.73540529
_cell_length_c   8.17597519
_cell_angle_alpha   89.95063945
_cell_angle_beta   89.95063945
_cell_angle_gamma   91.14223473
_symmetry_Int_Tables_number   1
_chemical_formula_structural   SrTaNO2
_chemical_formula_sum   'Sr4 Ta4 N4 O8'
_cell_volume   268.89402626
_cell_formula_units_Z   4
loop_
 _symmetry_equiv_pos_site_id
 _symmetry_equiv_pos_as_xyz
  1  'x, y, z'
loop_
 _atom_site_type_symbol
 _atom_site_label
 _atom_site_symmetry_multiplicity
 _atom_site_fract_x
 _atom_site_fract_y
 _atom_site_fract_z
 _atom_site_occupancy
  Sr  Sr0  1  0.00151600  0.99848400  0.50000000  1
  Sr  Sr1  1  0.50956400  0.49043600  0.50000000  1
  Sr  Sr2  1  0.49966300  0.50033700  0.00000000  1
  Sr  Sr3  1  0.99382800  0.00617200  0.00000000  1
  Ta  Ta0  1  0.48936200  0.00600000  0.24313200  1
  Ta  Ta1  1  0.50756600  0.99014700  0.75522400  1
  Ta  Ta2  1  0.99400000  0.51063800  0.75686800  1
  Ta  Ta3  1  0.00985300  0.49243400  0.24477600  1
  N  N0  1  0.77032000  0.77096600  0.74587000  1
  N  N1  1  0.47684500  0.97484500  0.00018700  1
  N  N2  1  0.02515500  0.52315500  0.99981300  1
  N  N3  1  0.22903400  0.22968000  0.25413000  1
  O  O0  1  0.77673800  0.77733000  0.25899100  1
  O  O1  1  0.96974000  0.47460700  0.49962400  1
  O  O2  1  0.27277200  0.72455100  0.71733400  1
  O  O3  1  0.72662300  0.27609300  0.23151800  1
  O  O4  1  0.27544900  0.72722800  0.28266600  1
  O  O5  1  0.72390700  0.27337700  0.76848200  1
  O  O6  1  0.52539300  0.03026000  0.50037600  1
  O  O7  1  0.22267000  0.22326200  0.74100900  1
loop_
_geom_bond_atom_site_label_1
_geom_bond_atom_site_label_2
_geom_bond_distance
_geom_bond_site_symmetry_2
N0 Ta1 1.983098 1_555
N0 Ta2 1.989862 1_555
N0 Sr0 2.724699 1_655
N0 Sr3 2.778607 1_566
N0 Sr1 2.963310 1_555
N0 Sr2 3.004805 1_556
N1 Ta0 1.995712 1_565
N1 Ta1 2.012082 1_554
N1 Sr2 2.727247 1_555
N1 Sr3 2.779692 1_465
N1 Sr3 2.966967 1_565
N1 Sr2 3.014141 1_565
N2 Ta2 1.995712 1_455
N2 Ta3 2.012082 1_556
N2 Sr2 2.727247 1_556
N2 Sr3 2.779692 1_466
N2 Sr3 2.966967 1_456
N2 Sr2 3.014141 1_456
N3 Ta3 1.983098 1_555
N3 Ta0 1.989862 1_555
N3 Sr0 2.724699 1_545
N3 Sr3 2.778607 1_455
N3 Sr1 2.963310 1_555
N3 Sr2 3.004805 1_555
O0 Ta0 2.130672 1_565
O0 Ta3 2.134993 1_655
O0 Sr0 2.664052 1_655
O0 Sr3 2.771691 1_565
O0 Sr1 2.971045 1_555
O0 Sr2 3.073107 1_555
O1 Ta3 2.098278 1_655
O1 Ta2 2.117949 1_555
O1 Sr1 2.642664 1_555
O1 Sr0 2.740455 1_645
O1 Sr0 3.006545 1_655
O1 Sr1 3.095635 1_655
O2 Ta2 2.021463 1_455
O2 Ta1 2.037056 1_555
O2 Sr1 2.622496 1_555
O2 Sr0 2.853707 1_555
O2 Sr2 2.958872 1_556
O3 Ta3 2.027392 1_655
O3 Ta0 2.043509 1_555
O3 Sr2 2.645446 1_555
O3 Sr1 2.817898 1_555
O3 Sr3 2.902229 1_555
O3 Sr0 3.152672 1_645
O4 Ta0 2.021463 1_565
O4 Ta3 2.037056 1_555
O4 Sr1 2.622496 1_555
O4 Sr0 2.853707 1_555
O4 Sr2 2.958872 1_555
O5 Ta1 2.027392 1_545
O5 Ta2 2.043509 1_555
O5 Sr2 2.645446 1_556
O5 Sr1 2.817898 1_555
O5 Sr3 2.902229 1_556
O5 Sr0 3.152672 1_645
O6 Ta1 2.098278 1_545
O6 Ta0 2.117949 1_555
O6 Sr1 2.642664 1_555
O6 Sr0 2.740455 1_645
O6 Sr0 3.006545 1_545
O6 Sr1 3.095635 1_545
O7 Ta2 2.130672 1_455
O7 Ta1 2.134993 1_545
O7 Sr0 2.664052 1_545
O7 Sr3 2.771691 1_456
O7 Sr1 2.971045 1_555
O7 Sr2 3.073107 1_556
