# generated using pymatgen
data_NdDyMg2
_symmetry_space_group_name_H-M   'P 1'
_cell_length_a   5.42774723
_cell_length_b   5.42774723
_cell_length_c   5.42774723
_cell_angle_alpha   60.00000000
_cell_angle_beta   60.00000000
_cell_angle_gamma   60.00000000
_symmetry_Int_Tables_number   1
_chemical_formula_structural   NdDyMg2
_chemical_formula_sum   'Nd1 Dy1 Mg2'
_cell_volume   113.06907631
_cell_formula_units_Z   1
loop_
 _symmetry_equiv_pos_site_id
 _symmetry_equiv_pos_as_xyz
  1  'x, y, z'
loop_
 _atom_site_type_symbol
 _atom_site_label
 _atom_site_symmetry_multiplicity
 _atom_site_fract_x
 _atom_site_fract_y
 _atom_site_fract_z
 _atom_site_occupancy
  Nd  Nd0  1  0.75000000  0.75000000  0.75000000  1
  Dy  Dy0  1  0.25000000  0.25000000  0.25000000  1
  Mg  Mg0  1  0.49999900  0.49999900  0.49999900  1
  Mg  Mg1  1  0.00000000  0.00000000  -0.00000000  1
loop_
_geom_bond_atom_site_label_1
_geom_bond_atom_site_label_2
_geom_bond_distance
_geom_bond_site_symmetry_2
Dy0 Mg0 3.323789 1_555
Dy0 Mg1 3.323803 1_565
Dy0 Mg1 3.323803 1_556
Dy0 Mg1 3.323803 1_555
Dy0 Mg1 3.323803 1_655
Dy0 Mg0 3.323807 1_554
Dy0 Mg0 3.323807 1_545
Dy0 Mg0 3.323807 1_455
Mg0 Nd0 3.323798 1_545
Mg0 Nd0 3.323798 1_554
Mg0 Nd0 3.323798 1_455
Mg0 Nd0 3.323816 1_555
Mg1 Nd0 3.323803 1_445
Mg1 Nd0 3.323803 1_444
Mg1 Nd0 3.323803 1_454
Mg1 Nd0 3.323803 1_544
