# generated using pymatgen
data_TaRu3
_symmetry_space_group_name_H-M   'P 1'
_cell_length_a   3.87753777
_cell_length_b   3.87749456
_cell_length_c   3.87749354
_cell_angle_alpha   89.99981973
_cell_angle_beta   90.00027041
_cell_angle_gamma   89.99994001
_symmetry_Int_Tables_number   1
_chemical_formula_structural   TaRu3
_chemical_formula_sum   'Ta1 Ru3'
_cell_volume   58.29862569
_cell_formula_units_Z   1
loop_
 _symmetry_equiv_pos_site_id
 _symmetry_equiv_pos_as_xyz
  1  'x, y, z'
loop_
 _atom_site_type_symbol
 _atom_site_label
 _atom_site_symmetry_multiplicity
 _atom_site_fract_x
 _atom_site_fract_y
 _atom_site_fract_z
 _atom_site_occupancy
  Ta  Ta0  1  0.00000100  0.99999900  -0.00000000  1
  Ru  Ru0  1  0.00000100  0.50000100  0.50000100  1
  Ru  Ru1  1  0.49999900  0.00000000  0.50000000  1
  Ru  Ru2  1  0.50000100  0.50000200  0.00000000  1
loop_
_geom_bond_atom_site_label_1
_geom_bond_atom_site_label_2
_geom_bond_distance
_geom_bond_site_symmetry_2
Ru0 Ta0 2.741795 1_555
Ru0 Ta0 2.741798 1_556
Ru0 Ta0 2.741801 1_546
Ru0 Ru2 2.741808 1_556
Ru0 Ru1 2.741811 1_565
Ru0 Ru1 2.741814 1_555
Ru0 Ru2 2.741814 1_455
Ru0 Ta0 2.741815 1_545
Ru0 Ru1 2.741819 1_465
Ru0 Ru2 2.741821 1_456
Ru0 Ru2 2.741827 1_555
Ru0 Ru1 2.741828 1_455
Ru1 Ru2 2.741793 1_546
Ru1 Ru2 2.741801 1_545
Ru1 Ru2 2.741804 1_555
Ru1 Ta0 2.741806 1_545
Ru1 Ru2 2.741812 1_556
Ru1 Ta0 2.741817 1_646
Ru1 Ta0 2.741819 1_546
Ru1 Ta0 2.741830 1_645
Ru2 Ta0 2.741808 1_555
Ru2 Ta0 2.741811 1_655
Ru2 Ta0 2.741825 1_645
Ru2 Ta0 2.741828 1_545
