# generated using pymatgen
data_Li7VGeO8
_symmetry_space_group_name_H-M   'P 1'
_cell_length_a   6.40301900
_cell_length_b   5.41043100
_cell_length_c   10.85519912
_cell_angle_alpha   89.08106506
_cell_angle_beta   90.00000000
_cell_angle_gamma   90.00000000
_symmetry_Int_Tables_number   1
_chemical_formula_structural   Li7VGeO8
_chemical_formula_sum   'Li14 V2 Ge2 O16'
_cell_volume   376.00930121
_cell_formula_units_Z   2
loop_
 _symmetry_equiv_pos_site_id
 _symmetry_equiv_pos_as_xyz
  1  'x, y, z'
loop_
 _atom_site_type_symbol
 _atom_site_label
 _atom_site_symmetry_multiplicity
 _atom_site_fract_x
 _atom_site_fract_y
 _atom_site_fract_z
 _atom_site_occupancy
  Li  Li0  1  0.50000000  0.67518300  0.92301400  1
  Li  Li1  1  0.75174100  0.31276200  0.82443000  1
  Li  Li2  1  0.24825900  0.31276200  0.82443000  1
  Li  Li3  1  0.26953300  0.83294900  0.66198100  1
  Li  Li4  1  0.73046700  0.83294900  0.66198100  1
  Li  Li5  1  0.00000000  0.20110300  0.58411400  1
  Li  Li6  1  0.50000000  0.82822300  0.43193800  1
  Li  Li7  1  0.74759500  0.19156400  0.34885800  1
  Li  Li8  1  0.25240500  0.19156400  0.34885800  1
  Li  Li9  1  0.29582600  0.58489800  0.18025900  1
  Li  Li10  1  0.70417400  0.58489800  0.18025900  1
  Li  Li11  1  0.80964400  0.93196800  0.16611100  1
  Li  Li12  1  0.19035600  0.93196800  0.16611100  1
  Li  Li13  1  0.00000000  0.34356200  0.06541800  1
  V  V0  1  0.00000000  0.82765800  0.91568900  1
  V  V1  1  0.00000000  0.67525700  0.40841700  1
  Ge  Ge0  1  0.50000000  0.32087500  0.58667500  1
  Ge  Ge1  1  0.50000000  0.16276500  0.07464500  1
  O  O0  1  0.50000000  0.30361600  0.93035700  1
  O  O1  1  0.00000000  0.14997700  0.91443500  1
  O  O2  1  0.78153800  0.71476000  0.84343200  1
  O  O3  1  0.21846200  0.71476000  0.84343200  1
  O  O4  1  0.27177300  0.20197800  0.66069900  1
  O  O5  1  0.72822700  0.20197800  0.66069900  1
  O  O6  1  0.50000000  0.65099900  0.58649200  1
  O  O7  1  0.00000000  0.79391600  0.55272700  1
  O  O8  1  0.50000000  0.19951600  0.43423600  1
  O  O9  1  0.00000000  0.35267000  0.40932900  1
  O  O10  1  0.77820500  0.78357200  0.32558900  1
  O  O11  1  0.22179500  0.78357200  0.32558900  1
  O  O12  1  0.26887400  0.25402000  0.15828300  1
  O  O13  1  0.73112600  0.25402000  0.15828300  1
  O  O14  1  0.50000000  0.82840300  0.09340100  1
  O  O15  1  0.00000000  0.72213600  0.07623000  1
loop_
_geom_bond_atom_site_label_1
_geom_bond_atom_site_label_2
_geom_bond_distance
_geom_bond_site_symmetry_2
Li0 O2 2.008957 1_555
Li0 O3 2.008957 1_555
Li0 O0 2.010639 1_555
Li0 O14 2.038961 1_556
Li1 O5 1.890772 1_555
Li1 O0 1.980159 1_555
Li1 O1 2.056580 1_655
Li1 O2 2.196335 1_555
Li2 O4 1.890772 1_555
Li2 O0 1.980159 1_555
Li2 O1 2.056580 1_555
Li2 O3 2.196335 1_555
Li3 O6 1.960641 1_555
Li3 O4 1.996483 1_565
Li3 O3 2.086888 1_555
Li3 O7 2.106570 1_555
Li4 O6 1.960641 1_555
Li4 O5 1.996483 1_565
Li4 O2 2.086888 1_555
Li4 O7 2.106570 1_655
Li5 O4 1.928592 1_555
Li5 O5 1.928592 1_455
Li5 O9 2.054850 1_555
Li5 O7 2.234641 1_545
Li6 O6 1.918993 1_555
Li6 O8 2.009410 1_565
Li6 O10 2.138516 1_555
Li6 O11 2.138516 1_555
Li7 O8 1.837235 1_555
Li7 O9 1.954732 1_655
Li7 O13 2.093448 1_555
Li7 O10 2.234451 1_545
Li8 O8 1.837235 1_555
Li8 O9 1.954732 1_555
Li8 O12 2.093448 1_555
Li8 O11 2.234451 1_545
Li9 O12 1.818015 1_555
Li9 O11 1.980733 1_555
Li9 O14 2.072191 1_555
Li9 O15 2.321114 1_555
Li10 O13 1.818015 1_555
Li10 O10 1.980733 1_555
Li10 O14 2.072191 1_555
Li10 O15 2.321114 1_655
Li11 O13 1.814202 1_565
Li11 O10 1.907223 1_555
Li11 O15 1.939572 1_655
Li11 O14 2.209536 1_555
Li12 O12 1.814202 1_565
Li12 O11 1.907223 1_555
Li12 O15 1.939572 1_555
Li12 O14 2.209536 1_555
Li13 O1 1.959138 1_554
Li13 O12 2.049186 1_555
Li13 O13 2.049186 1_455
Li13 O15 2.053487 1_555
Ge0 O5 1.782818 1_555
Ge0 O4 1.782818 1_555
Ge0 O6 1.786082 1_555
Ge0 O8 1.790027 1_555
Ge1 O0 1.730802 1_554
Ge1 O13 1.809021 1_555
Ge1 O12 1.809021 1_555
Ge1 O14 1.817216 1_545
O1 V0 1.743720 1_545
O2 V0 1.720579 1_655
O3 V0 1.720579 1_555
O7 V1 1.702464 1_555
O9 V1 1.745204 1_555
O10 V1 1.775327 1_655
O11 V1 1.775327 1_555
O15 V0 1.825118 1_554
