# generated using pymatgen
data_Cr5(Si2O7)2
_symmetry_space_group_name_H-M   'P 1'
_cell_length_a   7.39774100
_cell_length_b   7.88187598
_cell_length_c   5.67118508
_cell_angle_alpha   90.95609681
_cell_angle_beta   106.06973141
_cell_angle_gamma   112.10507643
_symmetry_Int_Tables_number   1
_chemical_formula_structural   Cr5(Si2O7)2
_chemical_formula_sum   'Cr5 Si4 O14'
_cell_volume   291.67352370
_cell_formula_units_Z   1
loop_
 _symmetry_equiv_pos_site_id
 _symmetry_equiv_pos_as_xyz
  1  'x, y, z'
loop_
 _atom_site_type_symbol
 _atom_site_label
 _atom_site_symmetry_multiplicity
 _atom_site_fract_x
 _atom_site_fract_y
 _atom_site_fract_z
 _atom_site_occupancy
  Cr  Cr0  1  0.00000000  0.00000000  0.00000000  1
  Cr  Cr1  1  0.81178200  0.07451500  0.38829400  1
  Cr  Cr2  1  0.69840700  0.64492200  0.58128800  1
  Cr  Cr3  1  0.30159300  0.35507800  0.41871200  1
  Cr  Cr4  1  0.18821800  0.92548500  0.61170600  1
  Si  Si0  1  0.86449800  0.49739100  0.23341200  1
  Si  Si1  1  0.39029500  0.77774700  0.20932200  1
  Si  Si2  1  0.60970500  0.22225300  0.79067800  1
  Si  Si3  1  0.13550200  0.50260900  0.76658800  1
  O  O0  1  0.58160900  0.86141600  0.20665300  1
  O  O1  1  0.95668800  0.78451800  0.34933700  1
  O  O2  1  0.26105600  0.54760500  0.00794500  1
  O  O3  1  0.74875300  0.41394300  0.35636600  1
  O  O4  1  0.26202100  0.00921100  0.22301500  1
  O  O5  1  0.42850400  0.66036700  0.40510500  1
  O  O6  1  0.02847700  0.31533600  0.23498100  1
  O  O7  1  0.97152300  0.68466400  0.76501900  1
  O  O8  1  0.57149600  0.33963300  0.59489500  1
  O  O9  1  0.73797900  0.99078900  0.77698500  1
  O  O10  1  0.25124700  0.58605700  0.64363400  1
  O  O11  1  0.73894400  0.45239500  0.99205500  1
  O  O12  1  0.04331200  0.21548200  0.65066300  1
  O  O13  1  0.41839100  0.13858400  0.79334700  1
loop_
_geom_bond_atom_site_label_1
_geom_bond_atom_site_label_2
_geom_bond_distance
_geom_bond_site_symmetry_2
Cr0 O4 1.973815 1_555
Cr0 O9 1.973815 1_444
Cr0 O12 2.639387 1_554
Cr0 O1 2.639387 1_445
Cr0 O6 2.708809 1_555
Cr0 O7 2.708809 1_444
Cr1 O12 1.866496 1_655
Cr1 O0 1.897470 1_545
Cr1 O6 2.337794 1_655
Cr1 O9 2.456899 1_545
Cr2 O7 1.900870 1_555
Cr2 O5 2.020491 1_555
Cr2 O8 2.241318 1_555
Cr2 O3 2.403337 1_555
Cr2 O1 2.539544 1_555
Cr3 O6 1.900870 1_555
Cr3 O8 2.020491 1_555
Cr3 O5 2.241318 1_555
Cr3 O10 2.403337 1_555
Cr3 O12 2.539544 1_555
Cr4 O1 1.866496 1_455
Cr4 O13 1.897470 1_565
Cr4 O7 2.337794 1_455
Cr4 O4 2.456899 1_565
O0 Si1 1.322092 1_555
O1 Si0 2.135293 1_555
O2 Si3 1.376258 1_554
O2 Si1 1.878807 1_555
O3 Si0 1.254584 1_555
O4 Si1 2.360899 1_545
O5 Si1 1.491981 1_555
O6 Si0 2.198903 1_455
O7 Si3 2.198903 1_655
O8 Si2 1.491981 1_555
O9 Si2 2.360899 1_565
O10 Si3 1.254584 1_555
O11 Si0 1.376258 1_556
O11 Si2 1.878807 1_555
O12 Si3 2.135293 1_555
O13 Si2 1.322092 1_555
