# generated using pymatgen
data_Tm2NiOs
_symmetry_space_group_name_H-M   'P 1'
_cell_length_a   4.70243385
_cell_length_b   4.70243313
_cell_length_c   4.70243385
_cell_angle_alpha   60.00007650
_cell_angle_beta   60.00007143
_cell_angle_gamma   60.00005601
_symmetry_Int_Tables_number   1
_chemical_formula_structural   Tm2NiOs
_chemical_formula_sum   'Tm2 Ni1 Os1'
_cell_volume   73.52815870
_cell_formula_units_Z   1
loop_
 _symmetry_equiv_pos_site_id
 _symmetry_equiv_pos_as_xyz
  1  'x, y, z'
loop_
 _atom_site_type_symbol
 _atom_site_label
 _atom_site_symmetry_multiplicity
 _atom_site_fract_x
 _atom_site_fract_y
 _atom_site_fract_z
 _atom_site_occupancy
  Tm  Tm0  1  0.00000000  -0.00000000  -0.00000000  1
  Tm  Tm1  1  0.50000000  0.50000000  0.50000000  1
  Ni  Ni0  1  0.25000000  0.25000000  0.25000000  1
  Os  Os0  1  0.75000000  0.75000000  0.75000000  1
loop_
_geom_bond_atom_site_label_1
_geom_bond_atom_site_label_2
_geom_bond_distance
_geom_bond_site_symmetry_2
Ni0 Tm1 2.879639 1_555
Ni0 Tm0 2.879639 1_555
Ni0 Tm1 2.879643 1_545
Ni0 Tm0 2.879643 1_565
Ni0 Tm0 2.879643 1_655
Ni0 Tm1 2.879643 1_455
Ni0 Tm0 2.879644 1_556
Ni0 Tm1 2.879644 1_554
Os0 Tm0 2.879639 1_666
Os0 Tm1 2.879639 1_555
Os0 Tm0 2.879643 1_656
Os0 Tm1 2.879643 1_565
Os0 Tm0 2.879643 1_566
Os0 Tm1 2.879643 1_655
Os0 Tm1 2.879644 1_556
Os0 Tm0 2.879644 1_665
