# generated using pymatgen
data_NbAlO4
_symmetry_space_group_name_H-M   'P 1'
_cell_length_a   6.39657428
_cell_length_b   6.39657428
_cell_length_c   13.21592622
_cell_angle_alpha   73.89490468
_cell_angle_beta   73.89490468
_cell_angle_gamma   34.59098488
_symmetry_Int_Tables_number   1
_chemical_formula_structural   NbAlO4
_chemical_formula_sum   'Nb4 Al4 O16'
_cell_volume   293.74628729
_cell_formula_units_Z   4
loop_
 _symmetry_equiv_pos_site_id
 _symmetry_equiv_pos_as_xyz
  1  'x, y, z'
loop_
 _atom_site_type_symbol
 _atom_site_label
 _atom_site_symmetry_multiplicity
 _atom_site_fract_x
 _atom_site_fract_y
 _atom_site_fract_z
 _atom_site_occupancy
  Nb  Nb0  1  0.19020100  0.19020100  0.36572500  1
  Nb  Nb1  1  0.89176800  0.89176800  0.86527800  1
  Nb  Nb2  1  0.80979900  0.80979900  0.63427500  1
  Nb  Nb3  1  0.10823200  0.10823200  0.13472200  1
  Al  Al0  1  0.89837300  0.89837300  0.34418900  1
  Al  Al1  1  0.19391200  0.19391200  0.84699800  1
  Al  Al2  1  0.10162700  0.10162700  0.65581100  1
  Al  Al3  1  0.80608800  0.80608800  0.15300200  1
  O  O0  1  0.86222200  0.86222200  0.49173500  1
  O  O1  1  0.25755100  0.25755100  0.67691200  1
  O  O2  1  0.36186900  0.36186900  0.34911600  1
  O  O3  1  0.63813100  0.63813100  0.65088400  1
  O  O4  1  0.74244900  0.74244900  0.32308800  1
  O  O5  1  0.93702100  0.93702100  0.18907600  1
  O  O6  1  0.06297900  0.06297900  0.81092400  1
  O  O7  1  0.12925100  0.12925100  0.50852200  1
  O  O8  1  0.86222800  0.86222800  0.00883100  1
  O  O9  1  0.93934800  0.93934800  0.68316900  1
  O  O10  1  0.06065200  0.06065200  0.31683100  1
  O  O11  1  0.26526800  0.26526800  0.17065100  1
  O  O12  1  0.35037300  0.35037300  0.85173000  1
  O  O13  1  0.64962700  0.64962700  0.14827000  1
  O  O14  1  0.73473200  0.73473200  0.82934900  1
  O  O15  1  0.13777200  0.13777200  0.99116900  1
loop_
_geom_bond_atom_site_label_1
_geom_bond_atom_site_label_2
_geom_bond_distance
_geom_bond_site_symmetry_2
Nb0 O7 1.816414 1_555
Nb0 O10 1.875020 1_555
Nb0 O4 2.032808 1_545
Nb0 O4 2.032808 1_455
Nb0 O2 2.043919 1_555
Nb0 O11 2.472581 1_555
Nb1 O8 1.825304 1_556
Nb1 O12 1.989167 1_565
Nb1 O12 1.989167 1_655
Nb1 O6 2.004142 1_665
Nb1 O14 2.105707 1_555
Nb1 O9 2.305946 1_555
Nb2 O0 1.804937 1_555
Nb2 O9 1.875020 1_555
Nb2 O1 2.032808 1_655
Nb2 O1 2.032808 1_565
Nb2 O3 2.043919 1_555
Nb2 O14 2.472581 1_555
Nb3 O15 1.825304 1_554
Nb3 O13 1.989167 1_545
Nb3 O13 1.989167 1_455
Nb3 O5 2.004142 1_445
Nb3 O11 2.105707 1_555
Nb3 O10 2.305946 1_555
Al0 O0 1.870023 1_555
Al0 O10 1.908757 1_665
Al0 O2 1.950037 1_565
Al0 O2 1.950037 1_655
Al0 O5 1.965419 1_555
Al0 O4 2.003436 1_555
Al1 O6 1.796699 1_555
Al1 O15 1.827947 1_555
Al1 O12 1.930221 1_555
Al1 O14 1.962625 1_545
Al1 O14 1.962625 1_455
Al1 O1 2.154466 1_555
Al2 O7 1.876512 1_555
Al2 O9 1.908757 1_445
Al2 O3 1.950037 1_455
Al2 O3 1.950037 1_545
Al2 O6 1.965419 1_555
Al2 O1 2.003436 1_555
Al3 O5 1.796699 1_555
Al3 O8 1.827947 1_555
Al3 O13 1.930221 1_555
Al3 O11 1.962625 1_565
Al3 O11 1.962625 1_655
Al3 O4 2.154466 1_555
