# generated using pymatgen
data_Li3Fe4O3F5
_symmetry_space_group_name_H-M   'P 1'
_cell_length_a   6.00198800
_cell_length_b   6.12085070
_cell_length_c   6.12262250
_cell_angle_alpha   119.94237439
_cell_angle_beta   90.27893636
_cell_angle_gamma   118.65132288
_symmetry_Int_Tables_number   1
_chemical_formula_structural   Li3Fe4O3F5
_chemical_formula_sum   'Li3 Fe4 O3 F5'
_cell_volume   161.98242984
_cell_formula_units_Z   1
loop_
 _symmetry_equiv_pos_site_id
 _symmetry_equiv_pos_as_xyz
  1  'x, y, z'
loop_
 _atom_site_type_symbol
 _atom_site_label
 _atom_site_symmetry_multiplicity
 _atom_site_fract_x
 _atom_site_fract_y
 _atom_site_fract_z
 _atom_site_occupancy
  Li  Li0  1  0.00840800  0.51202000  0.99552500  1
  Li  Li1  1  0.50262600  0.00472600  0.50010500  1
  Li  Li2  1  0.00355600  0.99717100  0.50610200  1
  Fe  Fe0  1  0.48259800  0.53342100  0.98572400  1
  Fe  Fe1  1  0.00125500  0.00069000  0.99988300  1
  Fe  Fe2  1  0.48998400  0.48192400  0.50909400  1
  Fe  Fe3  1  0.02162700  0.45991900  0.52255300  1
  O  O0  1  0.23063800  0.99432800  0.23055500  1
  O  O1  1  0.22953600  0.99353700  0.73423900  1
  O  O2  1  0.76830200  0.00590000  0.76811600  1
  F  F0  1  0.24858500  0.55304600  0.72099400  1
  F  F1  1  0.24864500  0.45999800  0.27162800  1
  F  F2  1  0.76931700  0.00793800  0.26364900  1
  F  F3  1  0.74551700  0.54478000  0.71878200  1
  F  F4  1  0.74940900  0.45060300  0.27305300  1
loop_
_geom_bond_atom_site_label_1
_geom_bond_atom_site_label_2
_geom_bond_distance
_geom_bond_site_symmetry_2
Li0 O0 2.128259 1_556
Li0 O2 2.237367 1_455
Li1 O1 2.181624 1_545
Li1 O0 2.271993 1_545
Li1 O2 2.277535 1_555
Li2 O1 1.957719 1_555
Li2 O2 2.139839 1_465
Li2 O0 2.172544 1_555
Fe0 O1 2.383817 1_545
Fe1 O0 1.994740 1_546
Fe1 O2 2.009518 1_455
Fe1 O1 2.128999 1_545
Fe2 O0 2.162612 1_545
Fe2 O2 2.313167 1_565
Fe3 O1 2.398942 1_555
F0 Fe3 1.484792 1_555
F0 Fe2 2.007809 1_555
F0 Fe0 2.224474 1_555
F0 Li0 2.250368 1_555
F0 Li2 2.486839 1_545
F1 Fe2 1.956620 1_555
F1 Fe1 2.044548 1_554
F1 Fe3 2.058479 1_555
F1 Fe0 2.332806 1_554
F1 Li1 2.418000 1_565
F1 Li0 2.447869 1_554
F2 Fe3 2.010215 1_655
F2 Li2 2.085827 1_645
F2 Fe0 2.130149 1_544
F2 Fe1 2.134831 1_654
F2 Li1 2.163163 1_555
F3 Fe2 1.752263 1_555
F3 Fe1 2.043943 1_665
F3 Fe3 2.163671 1_655
F3 Fe0 2.280259 1_555
F3 Li1 2.405518 1_555
F3 Li0 2.453036 1_655
F4 Fe2 2.140413 1_555
F4 Fe3 2.192182 1_655
F4 Li0 2.355436 1_654
F4 Li2 2.423796 1_655
