# generated using pymatgen
data_Li2Mn5(PO4)4
_symmetry_space_group_name_H-M   'P 1'
_cell_length_a   5.35187800
_cell_length_b   8.27567998
_cell_length_c   8.37550379
_cell_angle_alpha   111.37013998
_cell_angle_beta   90.21551545
_cell_angle_gamma   102.13628296
_symmetry_Int_Tables_number   1
_chemical_formula_structural   Li2Mn5(PO4)4
_chemical_formula_sum   'Li2 Mn5 P4 O16'
_cell_volume   336.41077636
_cell_formula_units_Z   1
loop_
 _symmetry_equiv_pos_site_id
 _symmetry_equiv_pos_as_xyz
  1  'x, y, z'
loop_
 _atom_site_type_symbol
 _atom_site_label
 _atom_site_symmetry_multiplicity
 _atom_site_fract_x
 _atom_site_fract_y
 _atom_site_fract_z
 _atom_site_occupancy
  Li  Li0  1  0.60834600  0.06238000  0.29645100  1
  Li  Li1  1  0.39165400  0.93762000  0.70354900  1
  Mn  Mn0  1  0.10063000  0.25605300  0.78443800  1
  Mn  Mn1  1  0.00000000  0.00000000  0.00000000  1
  Mn  Mn2  1  0.64455900  0.40925200  0.66808200  1
  Mn  Mn3  1  0.35544100  0.59074800  0.33191800  1
  Mn  Mn4  1  0.89937000  0.74394700  0.21556200  1
  P  P0  1  0.13151800  0.20670400  0.42483300  1
  P  P1  1  0.61914800  0.29665600  0.02812900  1
  P  P2  1  0.38085200  0.70334400  0.97187100  1
  P  P3  1  0.86848200  0.79329600  0.57516700  1
  O  O0  1  0.33062800  0.20686800  0.96173100  1
  O  O1  1  0.75642200  0.32041200  0.86949700  1
  O  O2  1  0.07911000  0.02988100  0.26366900  1
  O  O3  1  0.87491300  0.22975900  0.50845700  1
  O  O4  1  0.31924600  0.18432800  0.55712400  1
  O  O5  1  0.73557600  0.17525000  0.09465000  1
  O  O6  1  0.35160400  0.51509800  0.83024200  1
  O  O7  1  0.26244000  0.36370600  0.37903300  1
  O  O8  1  0.73756000  0.63629400  0.62096700  1
  O  O9  1  0.64839600  0.48490200  0.16975800  1
  O  O10  1  0.26442400  0.82475000  0.90535000  1
  O  O11  1  0.68075400  0.81567200  0.44287600  1
  O  O12  1  0.12508700  0.77024100  0.49154300  1
  O  O13  1  0.92089000  0.97011900  0.73633100  1
  O  O14  1  0.24357800  0.67958800  0.13050300  1
  O  O15  1  0.66937200  0.79313200  0.03826900  1
loop_
_geom_bond_atom_site_label_1
_geom_bond_atom_site_label_2
_geom_bond_distance
_geom_bond_site_symmetry_2
Li0 O3 2.112928 1_555
Li0 O5 2.254922 1_555
Li0 O15 2.558790 1_545
Li1 O12 2.112928 1_555
Li1 O10 2.254922 1_555
Li1 O0 2.558790 1_565
Mn0 O1 2.081023 1_455
Mn0 O0 2.126792 1_555
Mn0 O6 2.175565 1_555
Mn0 O4 2.197987 1_555
Mn0 O13 2.243253 1_445
Mn0 O3 2.520214 1_455
Mn1 O2 2.160607 1_555
Mn1 O13 2.160607 1_444
Mn1 O10 2.183593 1_544
Mn1 O5 2.183593 1_455
Mn1 O0 2.301102 1_554
Mn1 O15 2.301102 1_445
Mn2 O8 2.020501 1_555
Mn2 O4 2.173510 1_555
Mn2 O6 2.190105 1_555
Mn2 O1 2.196843 1_555
Mn2 O3 2.202012 1_555
Mn3 O7 2.020501 1_555
Mn3 O11 2.173510 1_555
Mn3 O9 2.190105 1_555
Mn3 O14 2.196843 1_555
Mn3 O12 2.202012 1_555
Mn4 O14 2.081023 1_655
Mn4 O15 2.126792 1_555
Mn4 O9 2.175565 1_555
Mn4 O11 2.197987 1_555
Mn4 O2 2.243253 1_665
Mn4 O12 2.520214 1_655
O0 P1 1.567056 1_556
O1 P1 1.574994 1_556
O2 P0 1.557913 1_555
O3 P0 1.559801 1_655
O4 P0 1.578215 1_555
O5 P1 1.541660 1_555
O6 P2 1.551725 1_555
O7 P0 1.519451 1_555
O8 P3 1.519451 1_555
O9 P1 1.551725 1_555
O10 P2 1.541660 1_555
O11 P3 1.578215 1_555
O12 P3 1.559801 1_455
O13 P3 1.557913 1_555
O14 P2 1.574994 1_554
O15 P2 1.567056 1_554
