# generated using pymatgen
data_Na3(NiO2)2
_symmetry_space_group_name_H-M   'P 1'
_cell_length_a   5.55173600
_cell_length_b   8.60744100
_cell_length_c   10.06851300
_cell_angle_alpha   90.00000000
_cell_angle_beta   90.00000000
_cell_angle_gamma   90.00000000
_symmetry_Int_Tables_number   1
_chemical_formula_structural   Na3(NiO2)2
_chemical_formula_sum   'Na12 Ni8 O16'
_cell_volume   481.13637934
_cell_formula_units_Z   4
loop_
 _symmetry_equiv_pos_site_id
 _symmetry_equiv_pos_as_xyz
  1  'x, y, z'
loop_
 _atom_site_type_symbol
 _atom_site_label
 _atom_site_symmetry_multiplicity
 _atom_site_fract_x
 _atom_site_fract_y
 _atom_site_fract_z
 _atom_site_occupancy
  Na  Na0  1  0.05425700  0.14922700  0.09695200  1
  Na  Na1  1  0.05425700  0.14922700  0.40304800  1
  Na  Na2  1  0.15196500  0.82534600  0.25000000  1
  Na  Na3  1  0.34803500  0.32534600  0.75000000  1
  Na  Na4  1  0.44574300  0.64922700  0.90304800  1
  Na  Na5  1  0.44574300  0.64922700  0.59695200  1
  Na  Na6  1  0.55425700  0.35077300  0.09695200  1
  Na  Na7  1  0.55425700  0.35077300  0.40304800  1
  Na  Na8  1  0.65196500  0.67465400  0.25000000  1
  Na  Na9  1  0.84803500  0.17465400  0.75000000  1
  Na  Na10  1  0.94574300  0.85077300  0.59695200  1
  Na  Na11  1  0.94574300  0.85077300  0.90304800  1
  Ni  Ni0  1  0.05910000  0.48673400  0.12251800  1
  Ni  Ni1  1  0.05910000  0.48673400  0.37748200  1
  Ni  Ni2  1  0.44090000  0.98673400  0.87748200  1
  Ni  Ni3  1  0.44090000  0.98673400  0.62251800  1
  Ni  Ni4  1  0.55910000  0.01326600  0.12251800  1
  Ni  Ni5  1  0.55910000  0.01326600  0.37748200  1
  Ni  Ni6  1  0.94090000  0.51326600  0.62251800  1
  Ni  Ni7  1  0.94090000  0.51326600  0.87748200  1
  O  O0  1  0.10956800  0.64134200  0.75000000  1
  O  O1  1  0.19071100  0.39627400  0.53319400  1
  O  O2  1  0.19071100  0.39627400  0.96680600  1
  O  O3  1  0.22109200  0.06490000  0.75000000  1
  O  O4  1  0.27890800  0.56490000  0.25000000  1
  O  O5  1  0.30928900  0.89627400  0.03319400  1
  O  O6  1  0.30928900  0.89627400  0.46680600  1
  O  O7  1  0.39043200  0.14134200  0.25000000  1
  O  O8  1  0.60956800  0.85865800  0.75000000  1
  O  O9  1  0.69071100  0.10372600  0.53319400  1
  O  O10  1  0.69071100  0.10372600  0.96680600  1
  O  O11  1  0.72109200  0.43510000  0.75000000  1
  O  O12  1  0.77890800  0.93510000  0.25000000  1
  O  O13  1  0.80928900  0.60372600  0.03319400  1
  O  O14  1  0.80928900  0.60372600  0.46680600  1
  O  O15  1  0.89043200  0.35865800  0.25000000  1
loop_
_geom_bond_atom_site_label_1
_geom_bond_atom_site_label_2
_geom_bond_distance
_geom_bond_site_symmetry_2
Na0 O7 2.421252 1_555
Na0 O10 2.438043 1_454
Na0 O15 2.539959 1_455
Na0 O2 2.610122 1_554
Na0 O5 2.675318 1_545
Na0 O12 2.847518 1_445
Na1 O7 2.421252 1_555
Na1 O9 2.438043 1_455
Na1 O15 2.539959 1_455
Na1 O1 2.610122 1_555
Na1 O6 2.675318 1_545
Na1 O12 2.847518 1_445
Na2 O12 2.276395 1_455
Na2 O4 2.349942 1_555
Na2 O6 2.429135 1_555
Na2 O5 2.429135 1_555
Na3 O11 2.276395 1_555
Na3 O3 2.349942 1_555
Na3 O1 2.429135 1_555
Na3 O2 2.429135 1_555
Na4 O0 2.421252 1_555
Na4 O13 2.438043 1_556
Na4 O8 2.539959 1_555
Na4 O5 2.610122 1_556
Na4 O2 2.675318 1_555
Na4 O11 2.847518 1_555
Na5 O0 2.421252 1_555
Na5 O14 2.438043 1_555
Na5 O8 2.539959 1_555
Na5 O6 2.610122 1_555
Na5 O1 2.675318 1_555
Na5 O11 2.847518 1_555
Na6 O15 2.421252 1_555
Na6 O2 2.438043 1_554
Na6 O7 2.539959 1_555
Na6 O10 2.610122 1_554
Na6 O13 2.675318 1_555
Na6 O4 2.847518 1_555
Na7 O15 2.421252 1_555
Na7 O1 2.438043 1_555
Na7 O7 2.539959 1_555
Na7 O9 2.610122 1_555
Na7 O14 2.675318 1_555
Na7 O4 2.847518 1_555
Na8 O4 2.276395 1_555
Na8 O12 2.349942 1_555
Na8 O13 2.429135 1_555
Na8 O14 2.429135 1_555
Na9 O3 2.276395 1_655
Na9 O11 2.349942 1_555
Na9 O9 2.429135 1_555
Na9 O10 2.429135 1_555
Na10 O8 2.421252 1_555
Na10 O6 2.438043 1_655
Na10 O0 2.539959 1_655
Na10 O14 2.610122 1_555
Na10 O9 2.675318 1_565
Na10 O3 2.847518 1_665
Na11 O8 2.421252 1_555
Na11 O5 2.438043 1_656
Na11 O0 2.539959 1_655
Na11 O13 2.610122 1_556
Na11 O10 2.675318 1_565
Na11 O3 2.847518 1_665
Ni0 O4 1.894559 1_555
Ni0 O2 1.896866 1_554
Ni0 O15 1.933819 1_455
Ni0 O13 1.935549 1_455
Ni1 O4 1.894559 1_555
Ni1 O1 1.896866 1_555
Ni1 O15 1.933819 1_455
Ni1 O14 1.935549 1_455
Ni2 O3 1.894559 1_565
Ni2 O5 1.896866 1_556
Ni2 O8 1.933819 1_555
Ni2 O10 1.935549 1_565
Ni3 O3 1.894559 1_565
Ni3 O6 1.896866 1_555
Ni3 O8 1.933819 1_555
Ni3 O9 1.935549 1_565
Ni4 O12 1.894559 1_545
Ni4 O10 1.896866 1_554
Ni4 O7 1.933819 1_555
Ni4 O5 1.935549 1_545
Ni5 O12 1.894559 1_545
Ni5 O9 1.896866 1_555
Ni5 O7 1.933819 1_555
Ni5 O6 1.935549 1_545
Ni6 O11 1.894559 1_555
Ni6 O14 1.896866 1_555
Ni6 O0 1.933819 1_655
Ni6 O1 1.935549 1_655
Ni7 O11 1.894559 1_555
Ni7 O13 1.896866 1_556
Ni7 O0 1.933819 1_655
Ni7 O2 1.935549 1_655
