# generated using pymatgen
data_ThV2O7
_symmetry_space_group_name_H-M   'P 1'
_cell_length_a   7.14752200
_cell_length_b   7.34949300
_cell_length_c   23.36545100
_cell_angle_alpha   90.00000000
_cell_angle_beta   90.00000000
_cell_angle_gamma   90.00000000
_symmetry_Int_Tables_number   1
_chemical_formula_structural   ThV2O7
_chemical_formula_sum   'Th8 V16 O56'
_cell_volume   1227.40263014
_cell_formula_units_Z   8
loop_
 _symmetry_equiv_pos_site_id
 _symmetry_equiv_pos_as_xyz
  1  'x, y, z'
loop_
 _atom_site_type_symbol
 _atom_site_label
 _atom_site_symmetry_multiplicity
 _atom_site_fract_x
 _atom_site_fract_y
 _atom_site_fract_z
 _atom_site_occupancy
  Th  Th0  1  0.38261200  0.74214300  0.89350500  1
  Th  Th1  1  0.61738800  0.25785700  0.39350500  1
  Th  Th2  1  0.88261200  0.75785700  0.39350500  1
  Th  Th3  1  0.11738800  0.24214300  0.89350500  1
  Th  Th4  1  0.89540000  0.75327000  0.10589000  1
  Th  Th5  1  0.10460000  0.24673000  0.60589000  1
  Th  Th6  1  0.39540000  0.74673000  0.60589000  1
  Th  Th7  1  0.60460000  0.25327000  0.10589000  1
  V  V0  1  0.92350700  0.74825400  0.93578800  1
  V  V1  1  0.07649300  0.25174600  0.43578800  1
  V  V2  1  0.42350700  0.75174600  0.43578800  1
  V  V3  1  0.57649300  0.24825400  0.93578800  1
  V  V4  1  0.43513600  0.74759000  0.06359100  1
  V  V5  1  0.56486400  0.25241000  0.56359100  1
  V  V6  1  0.93513600  0.75241000  0.56359100  1
  V  V7  1  0.06486400  0.24759000  0.06359100  1
  V  V8  1  0.45739000  0.02677100  0.75532500  1
  V  V9  1  0.54261000  0.97322900  0.25532500  1
  V  V10  1  0.95739000  0.47322900  0.25532500  1
  V  V11  1  0.04261000  0.52677100  0.75532500  1
  V  V12  1  0.93046500  0.99277700  0.75070100  1
  V  V13  1  0.06953500  0.00722300  0.25070100  1
  V  V14  1  0.43046500  0.50722300  0.25070100  1
  V  V15  1  0.56953500  0.49277700  0.75070100  1
  O  O0  1  0.07795000  0.91525800  0.90750700  1
  O  O1  1  0.92205000  0.08474200  0.40750700  1
  O  O2  1  0.57795000  0.58474200  0.40750700  1
  O  O3  1  0.42205000  0.41525800  0.90750700  1
  O  O4  1  0.70783400  0.74231600  0.90191500  1
  O  O5  1  0.29216600  0.25768400  0.40191500  1
  O  O6  1  0.20783400  0.75768400  0.40191500  1
  O  O7  1  0.79216600  0.24231600  0.90191500  1
  O  O8  1  0.39016600  0.72323600  0.50857700  1
  O  O9  1  0.60983400  0.27676400  0.00857700  1
  O  O10  1  0.89016600  0.77676400  0.00857700  1
  O  O11  1  0.10983400  0.22323600  0.50857700  1
  O  O12  1  0.06489000  0.55946500  0.92222500  1
  O  O13  1  0.93511000  0.44053500  0.42222500  1
  O  O14  1  0.56489000  0.94053500  0.42222500  1
  O  O15  1  0.43511000  0.05946500  0.92222500  1
  O  O16  1  0.21358800  0.73876700  0.09323800  1
  O  O17  1  0.78641200  0.26123300  0.59323800  1
  O  O18  1  0.71358800  0.76123300  0.59323800  1
  O  O19  1  0.28641200  0.23876700  0.09323800  1
  O  O20  1  0.41096700  0.73101200  0.99028300  1
  O  O21  1  0.58903300  0.26898800  0.49028300  1
  O  O22  1  0.91096700  0.76898800  0.49028300  1
  O  O23  1  0.08903300  0.23101200  0.99028300  1
  O  O24  1  0.58926100  0.57964700  0.09001300  1
  O  O25  1  0.41073900  0.42035300  0.59001300  1
  O  O26  1  0.08926100  0.92035300  0.59001300  1
  O  O27  1  0.91073900  0.07964700  0.09001300  1
  O  O28  1  0.56734600  0.93719900  0.08366000  1
  O  O29  1  0.43265400  0.06280100  0.58366000  1
  O  O30  1  0.06734600  0.56280100  0.58366000  1
  O  O31  1  0.93265400  0.43719900  0.08366000  1
  O  O32  1  0.33457800  0.97163800  0.81520800  1
  O  O33  1  0.66542200  0.02836200  0.31520800  1
  O  O34  1  0.83457800  0.52836200  0.31520800  1
  O  O35  1  0.16542200  0.47163800  0.81520800  1
  O  O36  1  0.36935700  0.93290200  0.69429100  1
  O  O37  1  0.63064300  0.06709800  0.19429100  1
  O  O38  1  0.86935700  0.56709800  0.19429100  1
  O  O39  1  0.13064300  0.43290200  0.69429100  1
  O  O40  1  0.69089500  0.95237700  0.76799000  1
  O  O41  1  0.30910500  0.04762300  0.26799000  1
  O  O42  1  0.19089500  0.54762300  0.26799000  1
  O  O43  1  0.80910500  0.45237700  0.76799000  1
  O  O44  1  0.03510700  0.76846900  0.74865300  1
  O  O45  1  0.96489300  0.23153100  0.24865300  1
  O  O46  1  0.53510700  0.73153100  0.24865300  1
  O  O47  1  0.46489300  0.26846900  0.74865300  1
  O  O48  1  0.01323900  0.13471300  0.80159400  1
  O  O49  1  0.98676100  0.86528700  0.30159400  1
  O  O50  1  0.51323900  0.36528700  0.30159400  1
  O  O51  1  0.48676100  0.63471300  0.80159400  1
  O  O52  1  0.95032600  0.09605200  0.68694500  1
  O  O53  1  0.04967400  0.90394800  0.18694500  1
  O  O54  1  0.45032600  0.40394800  0.18694500  1
  O  O55  1  0.54967400  0.59605200  0.68694500  1
loop_
_geom_bond_atom_site_label_1
_geom_bond_atom_site_label_2
_geom_bond_distance
_geom_bond_site_symmetry_2
O0 V0 1.778121 1_455
O0 Th3 2.440944 1_565
O0 Th0 2.543157 1_555
O1 V1 1.778121 1_655
O1 Th2 2.440944 1_545
O1 Th1 2.543157 1_555
O2 V2 1.778121 1_555
O2 Th1 2.440944 1_555
O2 Th2 2.543157 1_555
O3 V3 1.778121 1_555
O3 Th0 2.440944 1_555
O3 Th3 2.543157 1_555
O4 V0 1.733383 1_555
O4 Th0 2.332823 1_555
O5 V1 1.733383 1_555
O5 Th1 2.332823 1_555
O6 V2 1.733383 1_555
O6 Th2 2.332823 1_455
O7 V3 1.733383 1_555
O7 Th3 2.332823 1_655
O8 V2 1.730097 1_555
O8 Th6 2.280616 1_555
O9 V3 1.730097 1_554
O9 Th7 2.280616 1_555
O10 V0 1.730097 1_554
O10 Th4 2.280616 1_555
O11 V1 1.730097 1_555
O11 Th5 2.280616 1_555
O12 V0 1.745503 1_455
O12 Th3 2.455619 1_555
O12 Th0 2.722125 1_555
O13 V1 1.745503 1_655
O13 Th2 2.455619 1_555
O13 Th1 2.722125 1_555
O14 V2 1.745503 1_555
O14 Th1 2.455619 1_565
O14 Th2 2.722125 1_555
O15 V3 1.745503 1_555
O15 Th0 2.455619 1_545
O15 Th3 2.722125 1_555
O16 V4 1.729622 1_555
O16 Th4 2.295864 1_455
O17 V5 1.729622 1_555
O17 Th5 2.295864 1_655
O18 V6 1.729622 1_555
O18 Th6 2.295864 1_555
O19 V7 1.729622 1_555
O19 Th7 2.295864 1_555
O20 V4 1.725870 1_556
O20 Th0 2.271799 1_555
O21 V5 1.725870 1_555
O21 Th1 2.271799 1_555
O22 V6 1.725870 1_555
O22 Th2 2.271799 1_555
O23 V7 1.725870 1_556
O23 Th3 2.271799 1_555
O24 V4 1.765834 1_555
O24 Th7 2.429697 1_555
O24 Th4 2.560046 1_555
O25 V5 1.765834 1_555
O25 Th6 2.429697 1_555
O25 Th5 2.560046 1_555
O26 V6 1.765834 1_455
O26 Th5 2.429697 1_565
O26 Th6 2.560046 1_555
O27 V7 1.765834 1_655
O27 Th4 2.429697 1_545
O27 Th7 2.560046 1_555
O28 V4 1.747795 1_555
O28 Th7 2.395171 1_565
O28 Th4 2.755916 1_555
O29 V5 1.747795 1_555
O29 Th6 2.395171 1_545
O29 Th5 2.755916 1_555
O30 V6 1.747795 1_455
O30 Th5 2.395171 1_555
O30 Th6 2.755916 1_555
O31 V7 1.747795 1_655
O31 Th4 2.395171 1_555
O31 Th7 2.755916 1_555
O32 V8 1.700725 1_565
O32 Th0 2.511892 1_555
O33 V9 1.700725 1_545
O33 Th1 2.511892 1_555
O34 V10 1.700725 1_555
O34 Th2 2.511892 1_555
O35 V11 1.700725 1_555
O35 Th3 2.511892 1_555
O36 V8 1.704578 1_565
O36 Th6 2.484597 1_555
O37 V9 1.704578 1_545
O37 Th7 2.484597 1_555
O38 V10 1.704578 1_555
O38 Th4 2.484597 1_555
O39 V11 1.704578 1_555
O39 Th5 2.484597 1_555
O40 V8 1.781016 1_565
O40 V12 1.784217 1_555
O41 V9 1.781016 1_545
O41 V13 1.784217 1_555
O42 V10 1.781016 1_455
O42 V14 1.784217 1_555
O43 V11 1.781016 1_655
O43 V15 1.784217 1_555
O44 V11 1.783992 1_555
O44 V12 1.810914 1_455
O45 V10 1.783992 1_555
O45 V13 1.810914 1_655
O46 V9 1.783992 1_555
O46 V14 1.810914 1_555
O47 V8 1.783992 1_555
O47 V15 1.810914 1_555
O48 V12 1.688861 1_445
O48 Th3 2.406133 1_555
O49 V13 1.688861 1_665
O49 Th2 2.406133 1_555
O50 V14 1.688861 1_555
O50 Th1 2.406133 1_555
O51 V15 1.688861 1_555
O51 Th0 2.406133 1_555
O52 V12 1.677925 1_545
O52 Th5 2.455413 1_655
O53 V13 1.677925 1_565
O53 Th4 2.455413 1_455
O54 V14 1.677925 1_555
O54 Th7 2.455413 1_555
O55 V15 1.677925 1_555
O55 Th6 2.455413 1_555
