# generated using pymatgen
data_HfCr2
_symmetry_space_group_name_H-M   'P 1'
_cell_length_a   4.98450612
_cell_length_b   4.98450492
_cell_length_c   4.98450557
_cell_angle_alpha   60.00000240
_cell_angle_beta   60.00001038
_cell_angle_gamma   60.00001073
_symmetry_Int_Tables_number   1
_chemical_formula_structural   HfCr2
_chemical_formula_sum   'Hf2 Cr4'
_cell_volume   87.56918908
_cell_formula_units_Z   2
loop_
 _symmetry_equiv_pos_site_id
 _symmetry_equiv_pos_as_xyz
  1  'x, y, z'
loop_
 _atom_site_type_symbol
 _atom_site_label
 _atom_site_symmetry_multiplicity
 _atom_site_fract_x
 _atom_site_fract_y
 _atom_site_fract_z
 _atom_site_occupancy
  Hf  Hf0  1  0.87500000  0.87500000  0.87500000  1
  Hf  Hf1  1  0.12500000  0.12500000  0.12500000  1
  Cr  Cr0  1  0.50000000  0.50000000  0.50000000  1
  Cr  Cr1  1  0.50000000  0.50000000  0.00000000  1
  Cr  Cr2  1  -0.00000000  0.50000000  0.50000000  1
  Cr  Cr3  1  0.50000000  0.00000000  0.50000000  1
loop_
_geom_bond_atom_site_label_1
_geom_bond_atom_site_label_2
_geom_bond_distance
_geom_bond_site_symmetry_2
Hf0 Hf1 3.052374 1_666
Hf0 Hf1 3.052374 1_656
Hf0 Hf1 3.052374 1_665
Hf0 Hf1 3.052375 1_566
Cr0 Cr3 2.492252 1_555
Cr0 Cr3 2.492252 1_565
Cr0 Cr1 2.492253 1_556
Cr0 Cr1 2.492253 1_555
Cr0 Cr2 2.492253 1_555
Cr0 Cr2 2.492253 1_655
Cr0 Hf0 2.922426 1_545
Cr0 Hf1 2.922426 1_565
Cr0 Hf0 2.922426 1_554
Cr0 Hf1 2.922426 1_556
Cr0 Hf1 2.922426 1_655
Cr0 Hf0 2.922426 1_455
Cr1 Cr3 2.492253 1_555
Cr1 Cr3 2.492253 1_564
Cr1 Cr2 2.492253 1_654
Cr1 Cr2 2.492253 1_555
Cr1 Hf1 2.922425 1_555
Cr1 Hf0 2.922425 1_554
Cr1 Hf1 2.922425 1_565
Cr1 Hf0 2.922425 1_544
Cr1 Hf0 2.922426 1_454
Cr1 Hf1 2.922426 1_655
Cr2 Cr3 2.492253 1_465
Cr2 Cr3 2.492253 1_555
Cr2 Hf0 2.922425 1_445
Cr2 Hf1 2.922425 1_565
Cr2 Hf1 2.922425 1_555
Cr2 Hf0 2.922425 1_455
Cr2 Hf1 2.922425 1_556
Cr2 Hf0 2.922425 1_454
Cr3 Hf0 2.922426 1_545
Cr3 Hf1 2.922426 1_555
Cr3 Hf1 2.922426 1_556
Cr3 Hf0 2.922426 1_544
Cr3 Hf1 2.922426 1_655
Cr3 Hf0 2.922426 1_445
