# generated using pymatgen
data_CsTi6O12
_symmetry_space_group_name_H-M   'P 1'
_cell_length_a   8.53421001
_cell_length_b   8.53420000
_cell_length_c   8.53424675
_cell_angle_alpha   105.77746465
_cell_angle_beta   105.77598578
_cell_angle_gamma   117.14364321
_symmetry_Int_Tables_number   1
_chemical_formula_structural   CsTi6O12
_chemical_formula_sum   'Cs2 Ti12 O24'
_cell_volume   471.96977733
_cell_formula_units_Z   2
loop_
 _symmetry_equiv_pos_site_id
 _symmetry_equiv_pos_as_xyz
  1  'x, y, z'
loop_
 _atom_site_type_symbol
 _atom_site_label
 _atom_site_symmetry_multiplicity
 _atom_site_fract_x
 _atom_site_fract_y
 _atom_site_fract_z
 _atom_site_occupancy
  Cs  Cs0  1  0.70704497  0.70704183  0.00000185  1
  Cs  Cs1  1  0.29296616  0.29296224  0.00001173  1
  Ti  Ti0  1  0.66610888  0.84574159  0.51185038  1
  Ti  Ti1  1  0.81720185  0.32835219  0.81513936  1
  Ti  Ti2  1  0.48678776  0.99793846  0.81513995  1
  Ti  Ti3  1  0.51321257  0.00207598  0.18487118  1
  Ti  Ti4  1  0.67164515  0.48680274  0.48886906  1
  Ti  Ti5  1  0.33388620  0.15425900  0.48814634  1
  Ti  Ti6  1  0.32833647  0.51319960  0.51113204  1
  Ti  Ti7  1  0.99793383  0.18280036  0.51112977  1
  Ti  Ti8  1  0.15423903  0.66612064  0.82035952  1
  Ti  Ti9  1  0.18279471  0.67165888  0.18487130  1
  Ti  Ti10  1  0.84574920  0.33390828  0.17965584  1
  Ti  Ti11  1  0.00206547  0.81721958  0.48887139  1
  O  O0  1  0.66495057  0.03673043  0.70168286  1
  O  O1  1  0.32436669  0.95493243  0.94946683  1
  O  O2  1  0.65600170  0.29304167  0.94904282  1
  O  O3  1  0.70458878  0.99952442  0.36920495  1
  O  O4  1  0.63033080  0.33538745  0.63077911  1
  O  O5  1  0.29539069  0.00044862  0.63077674  1
  O  O6  1  0.67562384  0.04507577  0.05054934  1
  O  O7  1  0.66461432  0.29542696  0.29496472  1
  O  O8  1  0.33505041  0.96325667  0.29830511  1
  O  O9  1  0.62508877  0.67560229  0.63052693  1
  O  O10  1  0.29304840  0.34397313  0.63701284  1
  O  O11  1  0.95492574  0.00543100  0.63052216  1
  O  O12  1  0.37493691  0.32438149  0.36946097  1
  O  O13  1  0.04507652  0.99452814  0.36946387  1
  O  O14  1  0.70698215  0.65599496  0.36298690  1
  O  O15  1  0.33537644  0.70456785  0.70504193  1
  O  O16  1  0.00047346  0.36966168  0.70503831  1
  O  O17  1  0.99453460  0.62510080  0.94946900  1
  O  O18  1  0.36967754  0.66461378  0.36920248  1
  O  O19  1  0.03674825  0.33504260  0.37178745  1
  O  O20  1  0.96323411  0.66493934  0.62817795  1
  O  O21  1  0.34399663  0.70697995  0.05097608  1
  O  O22  1  0.00547295  0.37492402  0.05054575  1
  O  O23  1  0.99953645  0.63035316  0.29496720  1
loop_
_geom_bond_atom_site_label_1
_geom_bond_atom_site_label_2
_geom_bond_distance
_geom_bond_site_symmetry_2
Cs0 O17 2.944743 1_554
Cs0 O6 2.944887 1_565
Cs0 O13 2.944933 1_655
Cs0 O9 2.945042 1_554
Cs0 O2 3.243328 1_554
Cs0 O10 3.243487 1_554
Cs0 O21 3.243522 1_555
Cs0 O14 3.243571 1_555
Cs1 O1 2.944753 1_544
Cs1 O12 2.944869 1_555
Cs1 O22 2.944878 1_555
Cs1 O11 2.945129 1_454
Cs1 O2 3.243336 1_554
Cs1 O14 3.243444 1_555
Cs1 O21 3.243511 1_555
Cs1 O10 3.243600 1_554
O0 Ti0 1.966945 1_545
O0 Ti2 1.968390 1_545
O0 Ti1 1.968395 1_555
O1 Ti8 1.945552 1_555
O1 Ti2 1.999727 1_555
O1 Ti3 2.000900 1_566
O2 Ti2 1.988244 1_545
O2 Ti1 1.988256 1_555
O2 Ti10 1.998951 1_556
O3 Ti3 1.948526 1_565
O3 Ti7 1.982161 1_565
O3 Ti0 2.001305 1_555
O4 Ti1 1.948548 1_555
O4 Ti4 1.982015 1_555
O4 Ti5 2.001399 1_555
O5 Ti2 1.948567 1_545
O5 Ti11 1.982008 1_545
O5 Ti5 2.001378 1_555
O6 Ti10 1.945688 1_555
O6 Ti3 1.999627 1_555
O6 Ti2 2.000918 1_544
O7 Ti4 1.948425 1_555
O7 Ti3 1.982185 1_555
O7 Ti10 2.001395 1_555
O8 Ti5 1.967090 1_565
O8 Ti3 1.968226 1_565
O8 Ti9 1.968229 1_555
O9 Ti0 1.945603 1_555
O9 Ti6 1.999773 1_555
O9 Ti4 2.000396 1_555
O10 Ti6 1.988303 1_555
O10 Ti7 1.988347 1_455
O10 Ti5 1.998485 1_555
O11 Ti0 1.945607 1_545
O11 Ti7 1.999844 1_555
O11 Ti11 2.000340 1_645
O12 Ti5 1.945541 1_555
O12 Ti4 1.999462 1_555
O12 Ti6 2.000836 1_555
O13 Ti5 1.945550 1_565
O13 Ti11 1.999521 1_555
O13 Ti7 2.000794 1_465
O14 Ti4 1.988063 1_555
O14 Ti11 1.988118 1_655
O14 Ti0 1.998889 1_555
O15 Ti6 1.948371 1_555
O15 Ti2 1.982319 1_555
O15 Ti8 2.001485 1_555
O16 Ti7 1.948331 1_455
O16 Ti1 1.982341 1_455
O16 Ti8 2.001504 1_555
O17 Ti8 1.945575 1_655
O17 Ti1 1.999723 1_555
O17 Ti9 2.000886 1_656
O18 Ti9 1.948514 1_555
O18 Ti6 1.982158 1_555
O18 Ti0 2.001321 1_555
O19 Ti10 1.967064 1_455
O19 Ti7 1.968166 1_455
O19 Ti6 1.968184 1_555
O20 Ti8 1.967113 1_655
O20 Ti11 1.968159 1_655
O20 Ti4 1.968168 1_555
O21 Ti3 1.988194 1_565
O21 Ti9 1.988210 1_555
O21 Ti8 1.999042 1_554
O22 Ti10 1.945706 1_455
O22 Ti9 1.999631 1_555
O22 Ti1 2.000901 1_454
O23 Ti11 1.948387 1_655
O23 Ti9 1.982215 1_655
O23 Ti10 2.001396 1_555
