# generated using pymatgen
data_LiFe4(BO3)4
_symmetry_space_group_name_H-M   'P 1'
_cell_length_a   5.22171900
_cell_length_b   5.25295269
_cell_length_c   20.13568067
_cell_angle_alpha   90.40468353
_cell_angle_beta   90.16342781
_cell_angle_gamma   118.81624134
_symmetry_Int_Tables_number   1
_chemical_formula_structural   LiFe4(BO3)4
_chemical_formula_sum   'Li2 Fe8 B8 O24'
_cell_volume   483.89352999
_cell_formula_units_Z   2
loop_
 _symmetry_equiv_pos_site_id
 _symmetry_equiv_pos_as_xyz
  1  'x, y, z'
loop_
 _atom_site_type_symbol
 _atom_site_label
 _atom_site_symmetry_multiplicity
 _atom_site_fract_x
 _atom_site_fract_y
 _atom_site_fract_z
 _atom_site_occupancy
  Li  Li0  1  0.67229900  0.65411600  0.32246000  1
  Li  Li1  1  0.34245000  0.34884900  0.45354800  1
  Fe  Fe0  1  0.00467700  0.67408500  0.18936700  1
  Fe  Fe1  1  0.00042400  0.67352500  0.68989900  1
  Fe  Fe2  1  0.32632800  0.99778400  0.06398600  1
  Fe  Fe3  1  0.32548800  0.99205100  0.56480100  1
  Fe  Fe4  1  0.68147200  0.00655300  0.43871300  1
  Fe  Fe5  1  0.67620300  0.00677600  0.93869400  1
  Fe  Fe6  1  0.00840700  0.32137700  0.31207500  1
  Fe  Fe7  1  0.99574100  0.32674500  0.81451000  1
  B  B0  1  0.99878200  0.34336900  0.06354100  1
  B  B1  1  0.99817100  0.33388600  0.56351600  1
  B  B2  1  0.66657700  0.00474800  0.18893100  1
  B  B3  1  0.65820000  0.00504400  0.68890900  1
  B  B4  1  0.34483800  0.99970500  0.31435100  1
  B  B5  1  0.33713500  0.99625400  0.81404300  1
  B  B6  1  0.00270500  0.66433000  0.43876200  1
  B  B7  1  0.00490900  0.66462600  0.93825500  1
  O  O0  1  0.88631600  0.27482000  0.20879800  1
  O  O1  1  0.87275600  0.26979400  0.71558800  1
  O  O2  1  0.73236400  0.12922400  0.03657000  1
  O  O3  1  0.00977300  0.60104000  0.08635600  1
  O  O4  1  0.72760200  0.11139500  0.54461100  1
  O  O5  1  0.02014700  0.59405800  0.58826900  1
  O  O6  1  0.40288400  0.98096100  0.16463700  1
  O  O7  1  0.73973800  0.66002400  0.43050400  1
  O  O8  1  0.39767300  0.99289900  0.66618100  1
  O  O9  1  0.77145600  0.70873700  0.93563400  1
  O  O10  1  0.69872000  0.76377700  0.19452500  1
  O  O11  1  0.70286300  0.77255200  0.68569800  1
  O  O12  1  0.35005500  0.26121700  0.31863600  1
  O  O13  1  0.29334900  0.22886900  0.81571400  1
  O  O14  1  0.23126300  0.29695700  0.06622000  1
  O  O15  1  0.59037900  0.97828000  0.33273600  1
  O  O16  1  0.24392300  0.30603400  0.55556400  1
  O  O17  1  0.59543000  0.01006900  0.83808000  1
  O  O18  1  0.02856700  0.42111700  0.42267300  1
  O  O19  1  0.99087900  0.40699600  0.91397600  1
  O  O20  1  0.25117300  0.91622500  0.46288700  1
  O  O21  1  0.27097800  0.87587900  0.96508700  1
  O  O22  1  0.09061300  0.74787000  0.29218500  1
  O  O23  1  0.12394100  0.72997600  0.78747700  1
loop_
_geom_bond_atom_site_label_1
_geom_bond_atom_site_label_2
_geom_bond_distance
_geom_bond_site_symmetry_2
Li0 O12 1.935484 1_555
Li0 O15 1.955274 1_555
Li0 O22 2.088115 1_655
Li0 O7 2.200473 1_555
Li1 O18 1.953019 1_555
Li1 O7 1.984467 1_555
Li1 O20 2.095093 1_545
Li1 O16 2.106149 1_555
Fe0 O10 1.873776 1_455
Fe0 O0 1.922811 1_455
Fe0 O6 1.989002 1_555
Fe0 O3 2.109299 1_555
Fe0 O22 2.110326 1_555
Fe1 O11 1.863064 1_455
Fe1 O1 1.965765 1_455
Fe1 O8 2.001914 1_555
Fe1 O23 2.040717 1_555
Fe1 O5 2.098368 1_555
Fe2 O14 1.862618 1_565
Fe2 O2 1.969163 1_565
Fe2 O3 1.993781 1_555
Fe2 O21 2.063868 1_554
Fe2 O6 2.075330 1_555
Fe3 O16 1.901939 1_565
Fe3 O4 1.925268 1_565
Fe3 O5 1.985223 1_555
Fe3 O8 2.074389 1_555
Fe3 O20 2.086933 1_555
Fe4 O7 1.990806 1_545
Fe4 O18 2.083261 1_655
Fe4 O20 2.119525 1_545
Fe4 O15 2.173374 1_545
Fe4 O4 2.181914 1_555
Fe5 O9 1.857881 1_545
Fe5 O21 1.959992 1_545
Fe5 O19 2.014154 1_555
Fe5 O2 2.044684 1_556
Fe5 O17 2.070083 1_555
Fe6 O12 1.960271 1_555
Fe6 O15 2.099838 1_445
Fe6 O22 2.109598 1_555
Fe6 O0 2.150753 1_455
Fe6 O18 2.274637 1_555
Fe7 O13 1.857446 1_655
Fe7 O23 1.970395 1_655
Fe7 O17 2.006639 1_555
Fe7 O19 2.046535 1_555
Fe7 O1 2.066036 1_555
B0 O14 1.349498 1_655
B0 O3 1.400918 1_655
B0 O2 1.405038 1_555
B1 O16 1.369525 1_655
B1 O4 1.380509 1_555
B1 O5 1.402942 1_655
B2 O10 1.360090 1_545
B2 O0 1.381803 1_555
B2 O6 1.407225 1_545
B3 O11 1.350411 1_545
B3 O1 1.400669 1_555
B3 O8 1.405903 1_545
B4 O12 1.362903 1_565
B4 O15 1.389458 1_555
B4 O22 1.416626 1_555
B5 O13 1.347319 1_565
B5 O17 1.400021 1_565
B5 O23 1.402455 1_555
B6 O7 1.371997 1_455
B6 O18 1.384247 1_555
B6 O20 1.415101 1_555
B7 O9 1.347072 1_455
B7 O21 1.398068 1_555
B7 O19 1.403819 1_455
