# generated using pymatgen
data_LiTi(Si2O5)2
_symmetry_space_group_name_H-M   'P 1'
_cell_length_a   5.00026500
_cell_length_b   7.10659500
_cell_length_c   11.70769800
_cell_angle_alpha   90.00000000
_cell_angle_beta   90.00000000
_cell_angle_gamma   90.00000000
_symmetry_Int_Tables_number   1
_chemical_formula_structural   LiTi(Si2O5)2
_chemical_formula_sum   'Li2 Ti2 Si8 O20'
_cell_volume   416.03138884
_cell_formula_units_Z   2
loop_
 _symmetry_equiv_pos_site_id
 _symmetry_equiv_pos_as_xyz
  1  'x, y, z'
loop_
 _atom_site_type_symbol
 _atom_site_label
 _atom_site_symmetry_multiplicity
 _atom_site_fract_x
 _atom_site_fract_y
 _atom_site_fract_z
 _atom_site_occupancy
  Li  Li0  1  0.50000000  0.50000000  0.29641700  1
  Li  Li1  1  0.50000000  0.00000000  0.79641700  1
  Ti  Ti0  1  0.00000000  0.50000000  0.37730100  1
  Ti  Ti1  1  0.00000000  0.00000000  0.87730100  1
  Si  Si0  1  0.08265200  0.21159000  0.16712300  1
  Si  Si1  1  0.08265200  0.28841000  0.66712300  1
  Si  Si2  1  0.41551400  0.70997700  0.01401000  1
  Si  Si3  1  0.41551400  0.79002300  0.51401000  1
  Si  Si4  1  0.58448600  0.29002300  0.01401000  1
  Si  Si5  1  0.58448600  0.20997700  0.51401000  1
  Si  Si6  1  0.91734800  0.71159000  0.66712300  1
  Si  Si7  1  0.91734800  0.78841000  0.16712300  1
  O  O0  1  0.00000000  0.00000000  0.20793400  1
  O  O1  1  0.00000000  0.50000000  0.70793400  1
  O  O2  1  0.81205700  0.31203100  0.11450900  1
  O  O3  1  0.81205700  0.18796900  0.61450900  1
  O  O4  1  0.19552700  0.33483600  0.27302600  1
  O  O5  1  0.19552700  0.16516400  0.77302600  1
  O  O6  1  0.29650400  0.66159900  0.41133900  1
  O  O7  1  0.29650400  0.83840100  0.91133900  1
  O  O8  1  0.68956300  0.80933000  0.06566000  1
  O  O9  1  0.68956300  0.69067000  0.56566000  1
  O  O10  1  0.50000000  0.50000000  0.97076700  1
  O  O11  1  0.50000000  0.00000000  0.47076700  1
  O  O12  1  0.31043700  0.30933000  0.56566000  1
  O  O13  1  0.31043700  0.19067000  0.06566000  1
  O  O14  1  0.70349600  0.33840100  0.41133900  1
  O  O15  1  0.70349600  0.16159900  0.91133900  1
  O  O16  1  0.80447300  0.83483600  0.77302600  1
  O  O17  1  0.80447300  0.66516400  0.27302600  1
  O  O18  1  0.18794300  0.81203100  0.61450900  1
  O  O19  1  0.18794300  0.68796900  0.11450900  1
loop_
_geom_bond_atom_site_label_1
_geom_bond_atom_site_label_2
_geom_bond_distance
_geom_bond_site_symmetry_2
Li0 O4 1.941787 1_555
Li0 O17 1.941787 1_555
Li0 O14 2.040719 1_555
Li0 O6 2.040719 1_555
Li1 O16 1.941787 1_545
Li1 O5 1.941787 1_555
Li1 O15 2.040719 1_555
Li1 O7 2.040719 1_545
O0 Si7 1.631001 1_445
O0 Si0 1.631001 1_555
O1 Si6 1.631001 1_455
O1 Si1 1.631001 1_555
O2 Si4 1.644302 1_555
O2 Si0 1.649145 1_655
O3 Si5 1.644302 1_555
O3 Si1 1.649145 1_655
O4 Si0 1.619563 1_555
O4 Ti0 1.955498 1_555
O5 Si1 1.619563 1_555
O5 Ti1 1.955498 1_555
O6 Si3 1.622334 1_555
O6 Ti0 1.917230 1_555
O7 Si2 1.622334 1_556
O7 Ti1 1.917230 1_565
O8 Si7 1.652420 1_555
O8 Si2 1.655886 1_555
O9 Si6 1.652420 1_555
O9 Si3 1.655886 1_555
O10 Si2 1.631412 1_556
O10 Si4 1.631412 1_556
O11 Si3 1.631412 1_545
O11 Si5 1.631412 1_555
O12 Si1 1.652420 1_555
O12 Si5 1.655886 1_555
O13 Si0 1.652420 1_555
O13 Si4 1.655886 1_555
O14 Si5 1.622334 1_555
O14 Ti0 1.917230 1_655
O15 Si4 1.622334 1_556
O15 Ti1 1.917230 1_655
O16 Si6 1.619563 1_555
O16 Ti1 1.955498 1_665
O17 Si7 1.619563 1_555
O17 Ti0 1.955498 1_655
O18 Si3 1.644302 1_555
O18 Si6 1.649145 1_455
O19 Si2 1.644302 1_555
O19 Si7 1.649145 1_455
