# generated using pymatgen
data_Na6(NiO2)7
_symmetry_space_group_name_H-M   'P 1'
_cell_length_a   6.86428883
_cell_length_b   6.86428801
_cell_length_c   6.86428850
_cell_angle_alpha   68.27568720
_cell_angle_beta   68.27568387
_cell_angle_gamma   68.27568360
_symmetry_Int_Tables_number   1
_chemical_formula_structural   Na6(NiO2)7
_chemical_formula_sum   'Na6 Ni7 O14'
_cell_volume   268.74458125
_cell_formula_units_Z   1
loop_
 _symmetry_equiv_pos_site_id
 _symmetry_equiv_pos_as_xyz
  1  'x, y, z'
loop_
 _atom_site_type_symbol
 _atom_site_label
 _atom_site_symmetry_multiplicity
 _atom_site_fract_x
 _atom_site_fract_y
 _atom_site_fract_z
 _atom_site_occupancy
  Na  Na0  1  0.72292077  0.86898882  0.42057637  1
  Na  Na1  1  0.13101118  0.57942363  0.27707923  1
  Na  Na2  1  0.42057637  0.72292077  0.86898882  1
  Na  Na3  1  0.57942363  0.27707923  0.13101118  1
  Na  Na4  1  0.86898882  0.42057637  0.72292077  1
  Na  Na5  1  0.27707923  0.13101118  0.57942363  1
  Ni  Ni0  1  0.35402743  0.92357785  0.21853293  1
  Ni  Ni1  1  0.78146707  0.64597257  0.07642215  1
  Ni  Ni2  1  0.07642215  0.78146707  0.64597257  1
  Ni  Ni3  1  0.50000000  0.50000000  0.50000000  1
  Ni  Ni4  1  0.92357785  0.21853293  0.35402743  1
  Ni  Ni5  1  0.21853293  0.35402743  0.92357785  1
  Ni  Ni6  1  0.64597257  0.07642215  0.78146707  1
  O  O0  1  0.06661288  0.89954775  0.35184160  1
  O  O1  1  0.64815840  0.93338712  0.10045225  1
  O  O2  1  0.46665613  0.62064223  0.21472937  1
  O  O3  1  0.37935777  0.78527063  0.53334387  1
  O  O4  1  0.22969423  0.22969423  0.22969423  1
  O  O5  1  0.78527063  0.53334387  0.37935777  1
  O  O6  1  0.21472937  0.46665613  0.62064223  1
  O  O7  1  0.10045225  0.64815840  0.93338712  1
  O  O8  1  0.89954775  0.35184160  0.06661288  1
  O  O9  1  0.77030577  0.77030577  0.77030577  1
  O  O10  1  0.53334387  0.37935777  0.78527063  1
  O  O11  1  0.62064223  0.21472937  0.46665613  1
  O  O12  1  0.35184160  0.06661288  0.89954775  1
  O  O13  1  0.93338712  0.10045225  0.64815840  1
loop_
_geom_bond_atom_site_label_1
_geom_bond_atom_site_label_2
_geom_bond_distance
_geom_bond_site_symmetry_2
Na0 O5 2.287889 1_555
Na0 O1 2.288064 1_555
Na0 O0 2.302502 1_655
Na0 O11 2.320170 1_565
Na0 O9 2.353477 1_555
Na0 O3 2.411152 1_555
Na1 O2 2.287889 1_555
Na1 O0 2.288064 1_555
Na1 O7 2.302502 1_554
Na1 O5 2.320170 1_455
Na1 O4 2.353477 1_555
Na1 O6 2.411152 1_555
Na2 O3 2.287889 1_555
Na2 O7 2.288064 1_555
Na2 O12 2.302502 1_565
Na2 O2 2.320170 1_556
Na2 O9 2.353477 1_555
Na2 O10 2.411152 1_555
Na3 O11 2.287889 1_555
Na3 O8 2.288064 1_555
Na3 O1 2.302502 1_545
Na3 O10 2.320170 1_554
Na3 O4 2.353477 1_555
Na3 O2 2.411152 1_555
Na4 O10 2.287889 1_555
Na4 O13 2.288064 1_555
Na4 O8 2.302502 1_556
Na4 O6 2.320170 1_655
Na4 O9 2.353477 1_555
Na4 O5 2.411152 1_555
Na5 O6 2.287889 1_555
Na5 O12 2.288064 1_555
Na5 O13 2.302502 1_455
Na5 O3 2.320170 1_545
Na5 O4 2.353477 1_555
Na5 O11 2.411152 1_555
Ni0 O0 1.884036 1_555
Ni0 O1 1.893845 1_555
Ni0 O2 1.938449 1_555
Ni0 O4 1.973015 1_565
Ni0 O12 2.044635 1_564
Ni0 O3 2.058758 1_555
Ni1 O1 1.884036 1_555
Ni1 O8 1.893845 1_555
Ni1 O5 1.938450 1_555
Ni1 O9 1.973015 1_554
Ni1 O7 2.044635 1_654
Ni1 O2 2.058758 1_555
Ni2 O7 1.884036 1_555
Ni2 O0 1.893845 1_555
Ni2 O3 1.938450 1_555
Ni2 O9 1.973015 1_455
Ni2 O13 2.044635 1_465
Ni2 O6 2.058758 1_555
Ni3 O11 1.887767 1_555
Ni3 O3 1.887767 1_555
Ni3 O10 1.887767 1_555
Ni3 O2 1.887767 1_555
Ni3 O5 1.887767 1_555
Ni3 O6 1.887767 1_555
Ni4 O8 1.884036 1_555
Ni4 O13 1.893845 1_555
Ni4 O11 1.938450 1_555
Ni4 O4 1.973015 1_655
Ni4 O0 2.044635 1_645
Ni4 O5 2.058758 1_555
Ni5 O12 1.884036 1_555
Ni5 O7 1.893845 1_555
Ni5 O6 1.938450 1_555
Ni5 O4 1.973015 1_556
Ni5 O8 2.044635 1_456
Ni5 O10 2.058758 1_555
Ni6 O13 1.884036 1_555
Ni6 O12 1.893845 1_555
Ni6 O10 1.938449 1_555
Ni6 O9 1.973015 1_545
Ni6 O1 2.044635 1_546
Ni6 O11 2.058758 1_555
