# generated using pymatgen
data_K2U(SO6)2
_symmetry_space_group_name_H-M   'P 1'
_cell_length_a   7.30281900
_cell_length_b   11.75282700
_cell_length_c   14.02710600
_cell_angle_alpha   90.00000000
_cell_angle_beta   90.00000000
_cell_angle_gamma   90.00000000
_symmetry_Int_Tables_number   1
_chemical_formula_structural   K2U(SO6)2
_chemical_formula_sum   'K8 U4 S8 O48'
_cell_volume   1203.92923106
_cell_formula_units_Z   4
loop_
 _symmetry_equiv_pos_site_id
 _symmetry_equiv_pos_as_xyz
  1  'x, y, z'
loop_
 _atom_site_type_symbol
 _atom_site_label
 _atom_site_symmetry_multiplicity
 _atom_site_fract_x
 _atom_site_fract_y
 _atom_site_fract_z
 _atom_site_occupancy
  K  K0  1  0.25963800  0.46908100  0.92864800  1
  K  K1  1  0.24036200  0.03091900  0.42864800  1
  K  K2  1  0.74036200  0.96908100  0.07135200  1
  K  K3  1  0.75963800  0.53091900  0.57135200  1
  K  K4  1  0.74036200  0.53091900  0.07135200  1
  K  K5  1  0.75963800  0.96908100  0.57135200  1
  K  K6  1  0.25963800  0.03091900  0.92864800  1
  K  K7  1  0.24036200  0.46908100  0.42864800  1
  U  U0  1  0.90951700  0.25000000  0.24451600  1
  U  U1  1  0.59048300  0.25000000  0.74451600  1
  U  U2  1  0.09048300  0.75000000  0.75548400  1
  U  U3  1  0.40951700  0.75000000  0.25548400  1
  S  S0  1  0.24253300  0.46896900  0.17510500  1
  S  S1  1  0.25746700  0.03103100  0.67510500  1
  S  S2  1  0.75746700  0.96896900  0.82489500  1
  S  S3  1  0.74253300  0.53103100  0.32489500  1
  S  S4  1  0.75746700  0.53103100  0.82489500  1
  S  S5  1  0.74253300  0.96896900  0.32489500  1
  S  S6  1  0.24253300  0.03103100  0.17510500  1
  S  S7  1  0.25746700  0.46896900  0.67510500  1
  O  O0  1  0.89390500  0.25000000  0.11467000  1
  O  O1  1  0.60609500  0.25000000  0.61467000  1
  O  O2  1  0.10609500  0.75000000  0.88533000  1
  O  O3  1  0.39390500  0.75000000  0.38533000  1
  O  O4  1  0.93596800  0.25000000  0.37312400  1
  O  O5  1  0.56403200  0.25000000  0.87312400  1
  O  O6  1  0.06403200  0.75000000  0.62687600  1
  O  O7  1  0.43596800  0.75000000  0.12687600  1
  O  O8  1  0.78881900  0.43540900  0.25486900  1
  O  O9  1  0.71118100  0.06459100  0.75486900  1
  O  O10  1  0.21118100  0.93540900  0.74513100  1
  O  O11  1  0.28881900  0.56459100  0.24513100  1
  O  O12  1  0.21118100  0.56459100  0.74513100  1
  O  O13  1  0.28881900  0.93540900  0.24513100  1
  O  O14  1  0.78881900  0.06459100  0.25486900  1
  O  O15  1  0.71118100  0.43540900  0.75486900  1
  O  O16  1  0.16843300  0.37575100  0.23742100  1
  O  O17  1  0.33156700  0.12424900  0.73742100  1
  O  O18  1  0.83156700  0.87575100  0.76257900  1
  O  O19  1  0.66843300  0.62424900  0.26257900  1
  O  O20  1  0.83156700  0.62424900  0.76257900  1
  O  O21  1  0.66843300  0.87575100  0.26257900  1
  O  O22  1  0.16843300  0.12424900  0.23742100  1
  O  O23  1  0.33156700  0.37575100  0.73742100  1
  O  O24  1  0.10506600  0.50854500  0.10658300  1
  O  O25  1  0.39493400  0.99145500  0.60658300  1
  O  O26  1  0.89493400  0.00854500  0.89341700  1
  O  O27  1  0.60506600  0.49145500  0.39341700  1
  O  O28  1  0.89493400  0.49145500  0.89341700  1
  O  O29  1  0.60506600  0.00854500  0.39341700  1
  O  O30  1  0.10506600  0.99145500  0.10658300  1
  O  O31  1  0.39493400  0.50854500  0.60658300  1
  O  O32  1  0.41157700  0.43287200  0.12693800  1
  O  O33  1  0.08842300  0.06712800  0.62693800  1
  O  O34  1  0.58842300  0.93287200  0.87306200  1
  O  O35  1  0.91157700  0.56712800  0.37306200  1
  O  O36  1  0.58842300  0.56712800  0.87306200  1
  O  O37  1  0.91157700  0.93287200  0.37306200  1
  O  O38  1  0.41157700  0.06712800  0.12693800  1
  O  O39  1  0.08842300  0.43287200  0.62693800  1
  O  O40  1  0.59444300  0.25000000  0.24706400  1
  O  O41  1  0.90555700  0.25000000  0.74706400  1
  O  O42  1  0.40555700  0.75000000  0.75293600  1
  O  O43  1  0.09444300  0.75000000  0.25293600  1
  O  O44  1  0.10037700  0.25000000  0.93018500  1
  O  O45  1  0.39962300  0.25000000  0.43018500  1
  O  O46  1  0.89962300  0.75000000  0.06981500  1
  O  O47  1  0.60037700  0.75000000  0.56981500  1
loop_
_geom_bond_atom_site_label_1
_geom_bond_atom_site_label_2
_geom_bond_distance
_geom_bond_site_symmetry_2
K0 O28 2.721561 1_455
K0 O36 2.775047 1_555
K0 O24 2.778294 1_556
K0 O44 2.825396 1_555
K0 O12 2.830518 1_555
K0 O23 2.945192 1_555
K0 O32 3.024674 1_556
K1 O29 2.721561 1_555
K1 O37 2.775047 1_445
K1 O25 2.778294 1_545
K1 O45 2.825396 1_555
K1 O13 2.830518 1_545
K1 O22 2.945192 1_555
K1 O33 3.024674 1_555
K2 O30 2.721561 1_655
K2 O38 2.775047 1_565
K2 O26 2.778294 1_564
K2 O46 2.825396 1_555
K2 O14 2.830518 1_565
K2 O21 2.945192 1_555
K2 O34 3.024674 1_554
K3 O31 2.721561 1_555
K3 O39 2.775047 1_655
K3 O27 2.778294 1_555
K3 O47 2.825396 1_555
K3 O15 2.830518 1_555
K3 O20 2.945192 1_555
K3 O35 3.024674 1_555
K4 O24 2.721561 1_655
K4 O32 2.775047 1_555
K4 O28 2.778294 1_554
K4 O46 2.825396 1_555
K4 O8 2.830518 1_555
K4 O19 2.945192 1_555
K4 O36 3.024674 1_554
K5 O25 2.721561 1_555
K5 O33 2.775047 1_665
K5 O29 2.778294 1_565
K5 O47 2.825396 1_555
K5 O9 2.830518 1_565
K5 O18 2.945192 1_555
K5 O37 3.024674 1_555
K6 O26 2.721561 1_455
K6 O34 2.775047 1_545
K6 O30 2.778294 1_546
K6 O44 2.825396 1_555
K6 O10 2.830518 1_545
K6 O17 2.945192 1_555
K6 O38 3.024674 1_556
K7 O27 2.721561 1_555
K7 O35 2.775047 1_455
K7 O31 2.778294 1_555
K7 O45 2.825396 1_555
K7 O11 2.830518 1_555
K7 O16 2.945192 1_555
K7 O39 3.024674 1_555
O0 U0 1.824929 1_555
O1 U1 1.824929 1_555
O2 U2 1.824929 1_555
O3 U3 1.824929 1_555
O4 U0 1.814310 1_555
O5 U1 1.814310 1_555
O6 U2 1.814310 1_555
O7 U3 1.814310 1_555
O8 S3 1.530388 1_555
O8 U0 2.355081 1_555
O9 S2 1.530388 1_545
O9 U1 2.355081 1_555
O10 S1 1.530388 1_565
O10 U2 2.355081 1_555
O11 S0 1.530388 1_555
O11 U3 2.355081 1_555
O12 S7 1.530388 1_555
O12 U2 2.355081 1_555
O13 S6 1.530388 1_565
O13 U3 2.355081 1_555
O14 S5 1.530388 1_545
O14 U0 2.355081 1_555
O15 S4 1.530388 1_555
O15 U1 2.355081 1_555
O16 S0 1.502395 1_555
O16 U0 2.401951 1_455
O17 S1 1.502395 1_555
O17 U1 2.401951 1_555
O18 S2 1.502395 1_555
O18 U2 2.401951 1_655
O19 S3 1.502395 1_555
O19 U3 2.401951 1_555
O20 S4 1.502395 1_555
O20 U2 2.401951 1_655
O21 S5 1.502395 1_555
O21 U3 2.401951 1_555
O22 S6 1.502395 1_555
O22 U0 2.401951 1_455
O23 S7 1.502395 1_555
O23 U1 2.401951 1_555
O24 S0 1.465603 1_555
O25 S1 1.465603 1_565
O26 S2 1.465603 1_545
O27 S3 1.465603 1_555
O28 S4 1.465603 1_555
O29 S5 1.465603 1_545
O30 S6 1.465603 1_565
O31 S7 1.465603 1_555
O32 S0 1.469850 1_555
O33 S1 1.469850 1_555
O34 S2 1.469850 1_555
O35 S3 1.469850 1_555
O36 S4 1.469850 1_555
O37 S5 1.469850 1_555
O38 S6 1.469850 1_555
O39 S7 1.469850 1_555
O40 U0 2.301206 1_555
O41 U1 2.301206 1_555
O42 U2 2.301206 1_555
O43 U3 2.301206 1_555
