# generated using pymatgen
data_Li5Co3(SnO5)2
_symmetry_space_group_name_H-M   'P 1'
_cell_length_a   5.26638700
_cell_length_b   5.27315033
_cell_length_c   8.01865509
_cell_angle_alpha   107.78389806
_cell_angle_beta   101.87734033
_cell_angle_gamma   100.79038948
_symmetry_Int_Tables_number   1
_chemical_formula_structural   Li5Co3(SnO5)2
_chemical_formula_sum   'Li5 Co3 Sn2 O10'
_cell_volume   199.88894498
_cell_formula_units_Z   1
loop_
 _symmetry_equiv_pos_site_id
 _symmetry_equiv_pos_as_xyz
  1  'x, y, z'
loop_
 _atom_site_type_symbol
 _atom_site_label
 _atom_site_symmetry_multiplicity
 _atom_site_fract_x
 _atom_site_fract_y
 _atom_site_fract_z
 _atom_site_occupancy
  Li  Li0  1  0.41958300  0.11296000  0.40114000  1
  Li  Li1  1  0.82313400  0.69845900  0.79706800  1
  Li  Li2  1  0.50000000  0.50000000  0.50000000  1
  Li  Li3  1  0.17686600  0.30154100  0.20293200  1
  Li  Li4  1  0.58041700  0.88704000  0.59886000  1
  Co  Co0  1  0.00000000  0.50000000  0.00000000  1
  Co  Co1  1  0.90444700  0.10016500  0.89922500  1
  Co  Co2  1  0.09555300  0.89983500  0.10077500  1
  Sn  Sn0  1  0.71012500  0.30983700  0.69862600  1
  Sn  Sn1  1  0.28987500  0.69016300  0.30137400  1
  O  O0  1  0.35640800  0.38625600  0.85141400  1
  O  O1  1  0.42277000  0.79530800  0.95065300  1
  O  O2  1  0.05009900  0.22251200  0.54619500  1
  O  O3  1  0.76946700  0.03962500  0.22298300  1
  O  O4  1  0.13648400  0.56837100  0.66107900  1
  O  O5  1  0.86351600  0.43162900  0.33892100  1
  O  O6  1  0.23053300  0.96037500  0.77701700  1
  O  O7  1  0.94990100  0.77748800  0.45380500  1
  O  O8  1  0.57723000  0.20469200  0.04934700  1
  O  O9  1  0.64359200  0.61374400  0.14858600  1
loop_
_geom_bond_atom_site_label_1
_geom_bond_atom_site_label_2
_geom_bond_distance
_geom_bond_site_symmetry_2
Li0 Li2 1.876964 1_555
Li0 Sn1 2.047552 1_545
Li0 Sn0 2.345061 1_555
Li0 O2 2.532793 1_555
Li0 O3 2.568764 1_555
Li1 Sn0 1.881117 1_555
Li1 O4 2.256221 1_655
Li1 O6 2.388456 1_655
Li2 Li4 1.876964 1_555
Li2 Sn0 2.330753 1_555
Li2 Sn1 2.330753 1_555
Li2 O4 2.540695 1_555
Li2 O5 2.540695 1_555
Li3 Sn1 1.881117 1_555
Li3 O5 2.256221 1_455
Li3 O3 2.388456 1_455
Li4 Sn0 2.047552 1_565
Li4 Sn1 2.345061 1_555
Li4 O7 2.532793 1_555
Li4 O6 2.568764 1_555
Co0 Co2 1.935493 1_555
Co0 Co1 1.935493 1_454
Co0 Li1 2.322065 1_454
Co0 Li3 2.322065 1_555
Co0 Sn1 2.367273 1_555
Co0 Sn0 2.367273 1_454
Co0 O0 2.491575 1_554
Co0 O9 2.491575 1_455
Co0 O8 2.641873 1_455
Co0 O1 2.641873 1_554
Co1 Li1 1.948697 1_545
Co1 O6 2.275569 1_645
Co1 O8 2.350898 1_556
Co1 Li3 2.351241 1_656
Co1 Sn0 2.385274 1_555
Co1 Li4 2.431592 1_545
Co2 Li3 1.948697 1_565
Co2 O3 2.275569 1_465
Co2 O1 2.350898 1_554
Co2 Li1 2.351241 1_454
Co2 Sn1 2.385274 1_555
Co2 Li0 2.431592 1_565
O0 Sn0 2.460160 1_555
O2 O4 1.694775 1_555
O2 Sn0 2.403626 1_455
O3 O5 1.906752 1_555
O4 O6 1.906752 1_555
O4 Sn0 2.524624 1_455
O5 O7 1.694775 1_555
O5 Sn1 2.524624 1_655
O7 Sn1 2.403626 1_655
O9 Sn1 2.460160 1_555
