# generated using pymatgen
data_SrNiSn2
_symmetry_space_group_name_H-M   'P 1'
_cell_length_a   4.55017116
_cell_length_b   4.61577782
_cell_length_c   9.57818272
_cell_angle_alpha   76.05722418
_cell_angle_beta   90.00000000
_cell_angle_gamma   90.00000000
_symmetry_Int_Tables_number   1
_chemical_formula_structural   SrNiSn2
_chemical_formula_sum   'Sr2 Ni2 Sn4'
_cell_volume   195.23954282
_cell_formula_units_Z   2
loop_
 _symmetry_equiv_pos_site_id
 _symmetry_equiv_pos_as_xyz
  1  'x, y, z'
loop_
 _atom_site_type_symbol
 _atom_site_label
 _atom_site_symmetry_multiplicity
 _atom_site_fract_x
 _atom_site_fract_y
 _atom_site_fract_z
 _atom_site_occupancy
  Sr  Sr0  1  0.25000100  0.89103985  0.21792129  1
  Sr  Sr1  1  0.75000000  0.10895915  0.78207871  1
  Ni  Ni0  1  0.75000000  0.31738663  0.36522475  1
  Ni  Ni1  1  0.25000100  0.68261237  0.63477425  1
  Sn  Sn0  1  0.75000000  0.45276716  0.09446568  1
  Sn  Sn1  1  0.25000100  0.25058126  0.49883647  1
  Sn  Sn2  1  0.75000000  0.74941774  0.50116453  1
  Sn  Sn3  1  0.25000100  0.54723184  0.90553432  1
loop_
_geom_bond_atom_site_label_1
_geom_bond_atom_site_label_2
_geom_bond_distance
_geom_bond_site_symmetry_2
Ni0 Sn0 2.516971 1_555
Ni0 Sn1 2.592043 1_555
Ni0 Sn1 2.592051 1_655
Ni0 Sn2 2.631207 1_545
Ni0 Sn2 2.631215 1_555
Ni0 Sr0 3.518150 1_545
Ni0 Sr0 3.518156 1_645
Ni0 Sr0 3.518159 1_555
Ni0 Sr0 3.518165 1_655
Ni1 Sn3 2.516980 1_555
Ni1 Sn2 2.592034 1_555
Ni1 Sn2 2.592042 1_455
Ni1 Sn1 2.631202 1_555
Ni1 Sn1 2.631202 1_565
Ni1 Sr1 3.518155 1_565
Ni1 Sr1 3.518161 1_465
Ni1 Sr1 3.518161 1_555
Ni1 Sr1 3.518167 1_455
Sn0 Sn3 2.874124 1_554
Sn0 Sn3 2.874132 1_654
Sn0 Sr0 3.437937 1_545
Sn0 Sr0 3.437941 1_555
Sn0 Sr0 3.437943 1_645
Sn0 Sr0 3.437947 1_655
Sn0 Sr1 3.709340 1_564
Sn0 Sr1 3.709349 1_554
Sn1 Sr1 3.479764 1_555
Sn1 Sr1 3.479770 1_455
Sn1 Sr0 3.485060 1_545
Sn1 Sr0 3.485066 1_555
Sn2 Sr0 3.479771 1_555
Sn2 Sr0 3.479777 1_655
Sn2 Sr1 3.485052 1_565
Sn2 Sr1 3.485061 1_555
Sn3 Sr1 3.437937 1_565
Sn3 Sr1 3.437941 1_555
Sn3 Sr1 3.437943 1_465
Sn3 Sr1 3.437947 1_455
Sn3 Sr0 3.709340 1_546
Sn3 Sr0 3.709349 1_556
