# generated using pymatgen
data_ZrCoP
_symmetry_space_group_name_H-M   'P 1'
_cell_length_a   3.68277707
_cell_length_b   6.31827727
_cell_length_c   7.10707519
_cell_angle_alpha   90.00000000
_cell_angle_beta   90.00000000
_cell_angle_gamma   90.00000000
_symmetry_Int_Tables_number   1
_chemical_formula_structural   ZrCoP
_chemical_formula_sum   'Zr4 Co4 P4'
_cell_volume   165.37315846
_cell_formula_units_Z   4
loop_
 _symmetry_equiv_pos_site_id
 _symmetry_equiv_pos_as_xyz
  1  'x, y, z'
loop_
 _atom_site_type_symbol
 _atom_site_label
 _atom_site_symmetry_multiplicity
 _atom_site_fract_x
 _atom_site_fract_y
 _atom_site_fract_z
 _atom_site_occupancy
  Zr  Zr0  1  0.25000000  0.51750724  0.31574419  1
  Zr  Zr1  1  0.25000000  0.01750724  0.18425581  1
  Zr  Zr2  1  0.75000000  0.98249276  0.81574419  1
  Zr  Zr3  1  0.75000000  0.48249276  0.68425581  1
  Co  Co0  1  0.75000000  0.36294220  0.06056608  1
  Co  Co1  1  0.25000000  0.13705780  0.56056608  1
  Co  Co2  1  0.75000000  0.86294220  0.43943392  1
  Co  Co3  1  0.25000000  0.63705780  0.93943392  1
  P  P0  1  0.25000000  0.77604043  0.61126356  1
  P  P1  1  0.25000000  0.27604043  0.88873644  1
  P  P2  1  0.75000000  0.22395957  0.38873644  1
  P  P3  1  0.75000000  0.72395957  0.11126356  1
loop_
_geom_bond_atom_site_label_1
_geom_bond_atom_site_label_2
_geom_bond_distance
_geom_bond_site_symmetry_2
Co0 P1 2.276737 1_554
Co0 P1 2.276737 1_654
Co0 P3 2.309290 1_555
Co0 P2 2.492164 1_555
Co0 Co3 2.670480 1_654
Co0 Co3 2.670480 1_554
Co0 Zr0 2.762873 1_555
Co0 Zr0 2.762873 1_655
Co0 Zr3 2.779087 1_554
Co0 Zr2 2.967435 1_544
Co0 Zr1 2.987812 1_655
Co0 Zr1 2.987812 1_555
Co1 P2 2.276737 1_555
Co1 P2 2.276737 1_455
Co1 P0 2.309290 1_545
Co1 P1 2.492164 1_555
Co1 Co2 2.670480 1_445
Co1 Co2 2.670480 1_545
Co1 Zr2 2.762873 1_445
Co1 Zr2 2.762873 1_545
Co1 Zr1 2.779087 1_555
Co1 Zr0 2.967435 1_555
Co1 Zr3 2.987812 1_455
Co1 Zr3 2.987812 1_555
Co2 P0 2.276737 1_555
Co2 P0 2.276737 1_655
Co2 P2 2.309290 1_565
Co2 P3 2.492164 1_555
Co2 Zr1 2.762873 1_565
Co2 Zr1 2.762873 1_665
Co2 Zr2 2.779087 1_555
Co2 Zr3 2.967435 1_555
Co2 Zr0 2.987812 1_555
Co2 Zr0 2.987812 1_655
Co3 P3 2.276737 1_456
Co3 P3 2.276737 1_556
Co3 P1 2.309290 1_555
Co3 P0 2.492164 1_555
Co3 Zr3 2.762873 1_455
Co3 Zr3 2.762873 1_555
Co3 Zr0 2.779087 1_556
Co3 Zr1 2.967435 1_566
Co3 Zr2 2.987812 1_555
Co3 Zr2 2.987812 1_455
P0 Zr0 2.660722 1_555
P0 Zr3 2.664544 1_555
P0 Zr3 2.664544 1_455
P0 Zr2 2.684063 1_455
P0 Zr2 2.684063 1_555
P1 Zr1 2.660722 1_556
P1 Zr2 2.664544 1_445
P1 Zr2 2.664544 1_545
P1 Zr3 2.684063 1_455
P1 Zr3 2.684063 1_555
P2 Zr3 2.660722 1_555
P2 Zr0 2.664544 1_555
P2 Zr0 2.664544 1_655
P2 Zr1 2.684063 1_555
P2 Zr1 2.684063 1_655
P3 Zr2 2.660722 1_554
P3 Zr1 2.664544 1_565
P3 Zr1 2.664544 1_665
P3 Zr0 2.684063 1_655
P3 Zr0 2.684063 1_555
