# generated using pymatgen
data_Sr2LiTl
_symmetry_space_group_name_H-M   'P 1'
_cell_length_a   5.79191070
_cell_length_b   5.79191070
_cell_length_c   5.79191070
_cell_angle_alpha   60.00000000
_cell_angle_beta   60.00000000
_cell_angle_gamma   60.00000000
_symmetry_Int_Tables_number   1
_chemical_formula_structural   Sr2LiTl
_chemical_formula_sum   'Sr2 Li1 Tl1'
_cell_volume   137.38856054
_cell_formula_units_Z   1
loop_
 _symmetry_equiv_pos_site_id
 _symmetry_equiv_pos_as_xyz
  1  'x, y, z'
loop_
 _atom_site_type_symbol
 _atom_site_label
 _atom_site_symmetry_multiplicity
 _atom_site_fract_x
 _atom_site_fract_y
 _atom_site_fract_z
 _atom_site_occupancy
  Sr  Sr0  1  0.00000000  0.00000000  0.00000000  1
  Sr  Sr1  1  0.50000000  0.50000000  0.50000000  1
  Li  Li0  1  0.25000000  0.25000000  0.25000000  1
  Tl  Tl0  1  0.75000000  0.75000000  0.75000000  1
loop_
_geom_bond_atom_site_label_1
_geom_bond_atom_site_label_2
_geom_bond_distance
_geom_bond_site_symmetry_2
Sr0 Tl0 3.546806 1_444
Sr0 Tl0 3.546806 1_445
Sr0 Tl0 3.546806 1_544
Sr0 Tl0 3.546806 1_454
Sr1 Tl0 3.546806 1_555
Sr1 Tl0 3.546806 1_554
Sr1 Tl0 3.546806 1_455
Sr1 Tl0 3.546806 1_545
Li0 Sr1 3.546806 1_554
Li0 Sr1 3.546806 1_555
Li0 Sr0 3.546806 1_555
Li0 Sr0 3.546806 1_556
Li0 Sr1 3.546806 1_545
Li0 Sr1 3.546806 1_455
Li0 Sr0 3.546806 1_565
Li0 Sr0 3.546806 1_655
