# generated using pymatgen
data_SrGa12O19
_symmetry_space_group_name_H-M   'P 1'
_cell_length_a   5.87580714
_cell_length_b   5.87580714
_cell_length_c   23.13297500
_cell_angle_alpha   90.00000000
_cell_angle_beta   90.00000000
_cell_angle_gamma   119.99999029
_symmetry_Int_Tables_number   1
_chemical_formula_structural   SrGa12O19
_chemical_formula_sum   'Sr2 Ga24 O38'
_cell_volume   691.66727387
_cell_formula_units_Z   2
loop_
 _symmetry_equiv_pos_site_id
 _symmetry_equiv_pos_as_xyz
  1  'x, y, z'
loop_
 _atom_site_type_symbol
 _atom_site_label
 _atom_site_symmetry_multiplicity
 _atom_site_fract_x
 _atom_site_fract_y
 _atom_site_fract_z
 _atom_site_occupancy
  Sr  Sr0  1  0.33333300  0.66666700  0.74923100  1
  Sr  Sr1  1  0.66666700  0.33333300  0.24923100  1
  Ga  Ga0  1  0.16899800  0.83100200  0.89099900  1
  Ga  Ga1  1  0.16768800  0.83231200  0.60975600  1
  Ga  Ga2  1  0.33333300  0.66666700  0.02743900  1
  Ga  Ga3  1  0.33333300  0.66666700  0.18943900  1
  Ga  Ga4  1  0.33333300  0.66666700  0.31008600  1
  Ga  Ga5  1  0.16768800  0.33537600  0.60975600  1
  Ga  Ga6  1  0.00000000  0.00000000  0.00030100  1
  Ga  Ga7  1  0.00000000  0.00000000  0.25719000  1
  Ga  Ga8  1  0.00000000  0.00000000  0.75719000  1
  Ga  Ga9  1  0.33333300  0.66666700  0.47295900  1
  Ga  Ga10  1  0.00000000  0.00000000  0.50030100  1
  Ga  Ga11  1  0.16899800  0.33799600  0.89099900  1
  Ga  Ga12  1  0.66462400  0.83231200  0.60975600  1
  Ga  Ga13  1  0.66200400  0.83100200  0.89099900  1
  Ga  Ga14  1  0.33537600  0.16768800  0.10975600  1
  Ga  Ga15  1  0.33799600  0.16899800  0.39099900  1
  Ga  Ga16  1  0.83100200  0.66200400  0.39099900  1
  Ga  Ga17  1  0.83231200  0.66462400  0.10975600  1
  Ga  Ga18  1  0.66666700  0.33333300  0.68943900  1
  Ga  Ga19  1  0.66666700  0.33333300  0.81008600  1
  Ga  Ga20  1  0.66666700  0.33333300  0.97295900  1
  Ga  Ga21  1  0.66666700  0.33333300  0.52743900  1
  Ga  Ga22  1  0.83231200  0.16768800  0.10975600  1
  Ga  Ga23  1  0.83100200  0.16899800  0.39099900  1
  O  O0  1  0.15575000  0.84425000  0.05219800  1
  O  O1  1  0.15516400  0.84483600  0.44719500  1
  O  O2  1  0.01000100  0.50500100  0.84987100  1
  O  O3  1  0.00949200  0.50474600  0.65034100  1
  O  O4  1  0.18194400  0.81805600  0.25055900  1
  O  O5  1  0.33333300  0.66666700  0.94488800  1
  O  O6  1  0.00000000  0.00000000  0.14880700  1
  O  O7  1  0.15575000  0.31150000  0.05219800  1
  O  O8  1  0.18194400  0.36388700  0.25055900  1
  O  O9  1  0.00000000  0.00000000  0.64880700  1
  O  O10  1  0.33333300  0.66666700  0.55518000  1
  O  O11  1  0.15516400  0.31032800  0.44719500  1
  O  O12  1  0.49525400  0.99050800  0.65034100  1
  O  O13  1  0.00000000  0.00000000  0.34967900  1
  O  O14  1  0.49499900  0.98999900  0.84987100  1
  O  O15  1  0.00000000  0.00000000  0.84967900  1
  O  O16  1  0.63611300  0.81805600  0.25055900  1
  O  O17  1  0.31150000  0.15575000  0.55219800  1
  O  O18  1  0.31032800  0.15516400  0.94719500  1
  O  O19  1  0.49525400  0.50474600  0.65034100  1
  O  O20  1  0.49499900  0.50500100  0.84987100  1
  O  O21  1  0.50474600  0.49525400  0.15034100  1
  O  O22  1  0.50500100  0.49499900  0.34987100  1
  O  O23  1  0.68850000  0.84425000  0.05219800  1
  O  O24  1  0.68967200  0.84483600  0.44719500  1
  O  O25  1  0.36388700  0.18194400  0.75055900  1
  O  O26  1  0.50474600  0.00949200  0.15034100  1
  O  O27  1  0.50500100  0.01000100  0.34987100  1
  O  O28  1  0.66666700  0.33333300  0.05518000  1
  O  O29  1  0.66666700  0.33333300  0.44488800  1
  O  O30  1  0.84483600  0.68967200  0.94719500  1
  O  O31  1  0.84425000  0.68850000  0.55219800  1
  O  O32  1  0.81805600  0.63611300  0.75055900  1
  O  O33  1  0.81805600  0.18194400  0.75055900  1
  O  O34  1  0.99050800  0.49525400  0.15034100  1
  O  O35  1  0.98999900  0.49499900  0.34987100  1
  O  O36  1  0.84483600  0.15516400  0.94719500  1
  O  O37  1  0.84425000  0.15575000  0.55219800  1
loop_
_geom_bond_atom_site_label_1
_geom_bond_atom_site_label_2
_geom_bond_distance
_geom_bond_site_symmetry_2
Ga0 O14 1.912498 1_555
Ga0 O2 1.912498 1_555
Ga0 O15 1.967690 1_565
Ga0 O5 2.085953 1_555
Ga0 O30 2.103751 1_455
Ga0 O18 2.103751 1_565
Ga1 O12 1.913352 1_555
Ga1 O3 1.913352 1_555
Ga1 O9 1.930941 1_565
Ga1 O10 2.106145 1_555
Ga1 O17 2.119609 1_565
Ga1 O31 2.119609 1_455
Ga2 O0 1.895881 1_555
Ga2 O7 1.895886 1_555
Ga2 O23 1.895886 1_555
Ga2 O5 1.909650 1_554
Ga3 O34 1.965022 1_455
Ga3 O26 1.965022 1_565
Ga3 O21 1.965026 1_555
Ga3 O4 2.091144 1_555
Ga3 O8 2.091151 1_555
Ga3 O16 2.091151 1_555
Ga4 O27 1.974679 1_565
Ga4 O35 1.974679 1_455
Ga4 O22 1.974687 1_555
Ga4 O4 2.066406 1_555
Ga4 O8 2.066414 1_555
Ga4 O16 2.066414 1_555
Ga5 O3 1.913352 1_555
Ga5 O19 1.913352 1_555
Ga5 O9 1.930941 1_555
Ga5 O10 2.106149 1_555
Ga5 O17 2.119608 1_555
Ga5 O37 2.119609 1_455
Ga6 O0 1.988420 1_545
Ga6 O23 1.988420 1_445
Ga6 O7 1.988420 1_555
Ga6 O36 2.000719 1_454
Ga6 O18 2.000719 1_554
Ga6 O30 2.000719 1_444
Ga7 O16 1.858018 1_445
Ga7 O8 1.858018 1_555
Ga7 O4 1.858023 1_545
Ga7 O13 2.139546 1_555
Ga7 O6 2.507221 1_555
Ga8 O32 1.858018 1_445
Ga8 O25 1.858018 1_555
Ga8 O33 1.858023 1_455
Ga8 O15 2.139546 1_555
Ga8 O9 2.507221 1_555
Ga9 O10 1.902016 1_555
Ga9 O1 1.908698 1_555
Ga9 O24 1.908703 1_555
Ga9 O11 1.908703 1_555
Ga10 O37 1.988420 1_455
Ga10 O17 1.988420 1_555
Ga10 O31 1.988420 1_445
Ga10 O1 2.000719 1_545
Ga10 O11 2.000719 1_555
Ga10 O24 2.000719 1_445
Ga11 O20 1.912499 1_555
Ga11 O2 1.912503 1_555
Ga11 O15 1.967690 1_555
Ga11 O5 2.085957 1_555
Ga11 O18 2.103750 1_555
Ga11 O36 2.103751 1_455
Ga12 O12 1.913352 1_555
Ga12 O19 1.913352 1_555
Ga12 O9 1.930941 1_665
Ga12 O10 2.106149 1_555
Ga12 O31 2.119608 1_555
Ga12 O37 2.119609 1_565
Ga13 O20 1.912499 1_555
Ga13 O14 1.912503 1_555
Ga13 O15 1.967690 1_665
Ga13 O5 2.085957 1_555
Ga13 O30 2.103750 1_555
Ga13 O36 2.103751 1_565
Ga14 O26 1.913352 1_555
Ga14 O21 1.913352 1_555
Ga14 O6 1.930941 1_555
Ga14 O28 2.106149 1_555
Ga14 O7 2.119608 1_555
Ga14 O0 2.119609 1_545
Ga15 O22 1.912499 1_555
Ga15 O27 1.912503 1_555
Ga15 O13 1.967690 1_555
Ga15 O29 2.085957 1_555
Ga15 O11 2.103750 1_555
Ga15 O1 2.103751 1_545
Ga16 O22 1.912499 1_555
Ga16 O35 1.912503 1_555
Ga16 O13 1.967690 1_665
Ga16 O29 2.085957 1_555
Ga16 O24 2.103750 1_555
Ga16 O1 2.103751 1_655
Ga17 O34 1.913352 1_555
Ga17 O21 1.913352 1_555
Ga17 O6 1.930941 1_665
Ga17 O28 2.106149 1_555
Ga17 O23 2.119608 1_555
Ga17 O0 2.119609 1_655
Ga18 O12 1.965022 1_545
Ga18 O3 1.965022 1_655
Ga18 O19 1.965026 1_555
Ga18 O33 2.091144 1_555
Ga18 O25 2.091151 1_555
Ga18 O32 2.091151 1_555
Ga19 O2 1.974679 1_655
Ga19 O14 1.974679 1_545
Ga19 O20 1.974687 1_555
Ga19 O33 2.066406 1_555
Ga19 O25 2.066414 1_555
Ga19 O32 2.066414 1_555
Ga20 O28 1.902016 1_556
Ga20 O36 1.908698 1_555
Ga20 O30 1.908703 1_555
Ga20 O18 1.908703 1_555
Ga21 O37 1.895881 1_555
Ga21 O31 1.895886 1_555
Ga21 O17 1.895886 1_555
Ga21 O29 1.909650 1_555
Ga22 O26 1.913352 1_555
Ga22 O34 1.913352 1_555
Ga22 O6 1.930941 1_655
Ga22 O28 2.106145 1_555
Ga22 O7 2.119609 1_655
Ga22 O23 2.119609 1_545
Ga23 O35 1.912498 1_555
Ga23 O27 1.912498 1_555
Ga23 O13 1.967690 1_655
Ga23 O29 2.085953 1_555
Ga23 O24 2.103751 1_545
Ga23 O11 2.103751 1_655
O2 Sr0 2.850806 1_555
O3 Sr0 2.819356 1_555
O4 Sr1 2.942176 1_455
O4 Sr1 2.942176 1_565
O8 Sr1 2.942175 1_555
O8 Sr1 2.942175 1_455
O12 Sr0 2.819356 1_555
O14 Sr0 2.850806 1_555
O16 Sr1 2.942175 1_555
O16 Sr1 2.942175 1_565
O19 Sr0 2.819359 1_555
O20 Sr0 2.850806 1_555
O21 Sr1 2.819359 1_555
O22 Sr1 2.850806 1_555
O25 Sr0 2.942175 1_555
O25 Sr0 2.942175 1_545
O26 Sr1 2.819356 1_555
O27 Sr1 2.850806 1_555
O32 Sr0 2.942175 1_555
O32 Sr0 2.942175 1_655
O33 Sr0 2.942176 1_545
O33 Sr0 2.942176 1_655
O34 Sr1 2.819356 1_555
O35 Sr1 2.850806 1_555
