# generated using pymatgen
data_PmAg2Sn
_symmetry_space_group_name_H-M   'P 1'
_cell_length_a   4.99981438
_cell_length_b   4.99981438
_cell_length_c   4.99981438
_cell_angle_alpha   60.00000000
_cell_angle_beta   60.00000000
_cell_angle_gamma   60.00000000
_symmetry_Int_Tables_number   1
_chemical_formula_structural   PmAg2Sn
_chemical_formula_sum   'Pm1 Ag2 Sn1'
_cell_volume   88.37850382
_cell_formula_units_Z   1
loop_
 _symmetry_equiv_pos_site_id
 _symmetry_equiv_pos_as_xyz
  1  'x, y, z'
loop_
 _atom_site_type_symbol
 _atom_site_label
 _atom_site_symmetry_multiplicity
 _atom_site_fract_x
 _atom_site_fract_y
 _atom_site_fract_z
 _atom_site_occupancy
  Pm  Pm0  1  0.25000000  0.25000000  0.25000000  1
  Ag  Ag0  1  0.50000000  0.50000000  0.50000000  1
  Ag  Ag1  1  0.00000000  -0.00000000  0.00000000  1
  Sn  Sn0  1  0.74999900  0.74999900  0.74999900  1
loop_
_geom_bond_atom_site_label_1
_geom_bond_atom_site_label_2
_geom_bond_distance
_geom_bond_site_symmetry_2
Pm0 Sn0 3.535396 1_554
Pm0 Sn0 3.535396 1_545
Pm0 Sn0 3.535396 1_455
Pm0 Sn0 3.535410 1_544
Pm0 Sn0 3.535410 1_454
Pm0 Sn0 3.535410 1_445
Ag0 Sn0 3.061736 1_555
Ag0 Pm0 3.061749 1_565
Ag0 Pm0 3.061749 1_655
Ag0 Pm0 3.061749 1_555
Ag0 Pm0 3.061749 1_556
Ag0 Sn0 3.061753 1_545
Ag0 Sn0 3.061753 1_455
Ag0 Sn0 3.061753 1_554
Ag1 Sn0 3.061744 1_544
Ag1 Sn0 3.061744 1_445
Ag1 Sn0 3.061744 1_454
Ag1 Pm0 3.061749 1_555
Ag1 Pm0 3.061749 1_545
Ag1 Pm0 3.061749 1_455
Ag1 Pm0 3.061749 1_554
Ag1 Sn0 3.061761 1_444
