# generated using pymatgen
data_Li2MnP2O7
_symmetry_space_group_name_H-M   'P 1'
_cell_length_a   7.83363800
_cell_length_b   7.83429600
_cell_length_c   10.24183700
_cell_angle_alpha   90.00072371
_cell_angle_beta   89.99986704
_cell_angle_gamma   90.00073138
_symmetry_Int_Tables_number   1
_chemical_formula_structural   Li2MnP2O7
_chemical_formula_sum   'Li8 Mn4 P8 O28'
_cell_volume   628.55217636
_cell_formula_units_Z   4
loop_
 _symmetry_equiv_pos_site_id
 _symmetry_equiv_pos_as_xyz
  1  'x, y, z'
loop_
 _atom_site_type_symbol
 _atom_site_label
 _atom_site_symmetry_multiplicity
 _atom_site_fract_x
 _atom_site_fract_y
 _atom_site_fract_z
 _atom_site_occupancy
  Li  Li0  1  0.22625400  0.72624700  0.27328200  1
  Li  Li1  1  0.22628000  0.72627000  0.77329200  1
  Li  Li2  1  0.27373400  0.22625800  0.22670500  1
  Li  Li3  1  0.27373900  0.22627000  0.72670100  1
  Li  Li4  1  0.72627400  0.77373800  0.22670400  1
  Li  Li5  1  0.72626700  0.77372800  0.72670200  1
  Li  Li6  1  0.77373600  0.27372800  0.27328900  1
  Li  Li7  1  0.77374600  0.27374700  0.77328500  1
  Mn  Mn0  1  0.99998100  0.00003100  0.50005300  1
  Mn  Mn1  1  0.49993800  0.49999900  0.00002700  1
  Mn  Mn2  1  0.99998000  0.00000300  0.99999200  1
  Mn  Mn3  1  0.49995900  0.50004600  0.50007200  1
  P  P0  1  0.14061900  0.35938600  0.44419100  1
  P  P1  1  0.14062400  0.35938200  0.94420000  1
  P  P2  1  0.35938000  0.85939500  0.05580200  1
  P  P3  1  0.35938000  0.85938500  0.55578400  1
  P  P4  1  0.64061900  0.14060800  0.05579600  1
  P  P5  1  0.64061800  0.14061900  0.55579000  1
  P  P6  1  0.85938500  0.64061100  0.44419100  1
  P  P7  1  0.85937600  0.64061400  0.94420000  1
  O  O0  1  0.00000600  0.49999500  0.40258600  1
  O  O1  1  0.00000500  0.49999800  0.90259000  1
  O  O2  1  0.50001300  0.00000400  0.09740700  1
  O  O3  1  0.49999500  0.99998400  0.59740300  1
  O  O4  1  0.15636600  0.34364500  0.09026400  1
  O  O5  1  0.15635000  0.34364800  0.59026900  1
  O  O6  1  0.34366000  0.84364100  0.40972000  1
  O  O7  1  0.34364900  0.84365300  0.90972800  1
  O  O8  1  0.65636200  0.15635400  0.40972900  1
  O  O9  1  0.65635700  0.15634500  0.90972300  1
  O  O10  1  0.84365300  0.65635500  0.09026500  1
  O  O11  1  0.84365100  0.65633700  0.59026900  1
  O  O12  1  0.07827800  0.19587100  0.37380900  1
  O  O13  1  0.07827200  0.19586200  0.87382200  1
  O  O14  1  0.19584600  0.92173800  0.12617600  1
  O  O15  1  0.19584000  0.92173100  0.62615400  1
  O  O16  1  0.30415800  0.42173200  0.37381300  1
  O  O17  1  0.30417300  0.42173300  0.87384300  1
  O  O18  1  0.42172200  0.69588600  0.12619600  1
  O  O19  1  0.42173500  0.69586400  0.62617400  1
  O  O20  1  0.57828000  0.30410900  0.12619300  1
  O  O21  1  0.57826700  0.30414000  0.62616600  1
  O  O22  1  0.69585800  0.57825800  0.37381400  1
  O  O23  1  0.69581900  0.57825400  0.87384900  1
  O  O24  1  0.80415400  0.07826300  0.12617800  1
  O  O25  1  0.80415900  0.07826900  0.62616200  1
  O  O26  1  0.92173500  0.80413900  0.37381700  1
  O  O27  1  0.92174500  0.80412400  0.87382300  1
loop_
_geom_bond_atom_site_label_1
_geom_bond_atom_site_label_2
_geom_bond_distance
_geom_bond_site_symmetry_2
Li0 O6 1.909014 1_555
Li0 O18 2.161146 1_555
Li0 O14 2.161564 1_555
Li1 O7 1.908818 1_555
Li1 O19 2.161341 1_555
Li1 O15 2.161654 1_555
Li2 O4 1.908895 1_555
Li2 O12 2.161230 1_555
Li2 O16 2.161467 1_555
Li3 O5 1.908873 1_555
Li3 O13 2.161431 1_555
Li3 O17 2.161657 1_555
Li4 O10 1.908887 1_555
Li4 O26 2.161335 1_555
Li4 O22 2.161533 1_555
Li5 O11 1.908891 1_555
Li5 O27 2.161482 1_555
Li5 O23 2.161792 1_555
Li6 O8 1.908847 1_555
Li6 O20 2.161177 1_555
Li6 O24 2.161436 1_555
Li7 O9 1.908994 1_555
Li7 O21 2.161479 1_555
Li7 O25 2.161590 1_555
Mn0 O25 2.096912 1_555
Mn0 O15 2.097230 1_645
Mn0 O12 2.098088 1_655
Mn0 O26 2.098197 1_545
Mn1 O17 2.097116 1_554
Mn1 O18 2.097686 1_555
Mn1 O23 2.097723 1_554
Mn1 O20 2.097999 1_555
Mn2 O24 2.097471 1_556
Mn2 O27 2.097674 1_545
Mn2 O14 2.097713 1_646
Mn2 O13 2.097719 1_655
Mn3 O19 2.096886 1_555
Mn3 O21 2.097558 1_555
Mn3 O16 2.097906 1_555
Mn3 O22 2.098232 1_555
O0 P0 1.615056 1_555
O0 P6 1.615127 1_455
O1 P1 1.615139 1_555
O1 P7 1.615184 1_455
O2 P4 1.614987 1_555
O2 P2 1.615136 1_545
O3 P3 1.615024 1_555
O3 P5 1.615249 1_565
O4 P1 1.506094 1_554
O5 P0 1.506230 1_555
O6 P3 1.506081 1_555
O7 P2 1.506189 1_556
O8 P5 1.506063 1_555
O9 P4 1.506183 1_556
O10 P7 1.506091 1_554
O11 P6 1.506221 1_555
O12 P0 1.548900 1_555
O13 P1 1.548941 1_555
O14 P2 1.548927 1_555
O15 P3 1.548954 1_555
O16 P0 1.548981 1_555
O17 P1 1.548958 1_555
O18 P2 1.548946 1_555
O19 P3 1.549037 1_555
O20 P4 1.548885 1_555
O21 P5 1.548944 1_555
O22 P6 1.548913 1_555
O23 P7 1.549001 1_555
O24 P4 1.548985 1_555
O25 P5 1.548989 1_555
O26 P6 1.548982 1_555
O27 P7 1.548927 1_555
