# generated using pymatgen
data_ErNbOs2
_symmetry_space_group_name_H-M   'P 1'
_cell_length_a   4.61371877
_cell_length_b   4.61401180
_cell_length_c   4.61357544
_cell_angle_alpha   59.99493765
_cell_angle_beta   59.99309461
_cell_angle_gamma   59.99818588
_symmetry_Int_Tables_number   1
_chemical_formula_structural   ErNbOs2
_chemical_formula_sum   'Er1 Nb1 Os2'
_cell_volume   69.43959966
_cell_formula_units_Z   1
loop_
 _symmetry_equiv_pos_site_id
 _symmetry_equiv_pos_as_xyz
  1  'x, y, z'
loop_
 _atom_site_type_symbol
 _atom_site_label
 _atom_site_symmetry_multiplicity
 _atom_site_fract_x
 _atom_site_fract_y
 _atom_site_fract_z
 _atom_site_occupancy
  Er  Er0  1  0.25000138  0.24999737  0.25000154  1
  Nb  Nb0  1  0.75000103  0.75000155  0.75000013  1
  Os  Os0  1  -0.00000247  -0.00000205  0.00000919  1
  Os  Os1  1  0.50000106  0.50000413  0.49999115  1
loop_
_geom_bond_atom_site_label_1
_geom_bond_atom_site_label_2
_geom_bond_distance
_geom_bond_site_symmetry_2
Er0 Os0 2.825013 1_556
Er0 Os1 2.825023 1_554
Er0 Os0 2.825150 1_655
Er0 Os1 2.825165 1_455
Er0 Os1 2.825371 1_545
Er0 Os0 2.825398 1_565
Er0 Os0 2.825426 1_555
Er0 Os1 2.825428 1_555
Nb0 Os0 2.824950 1_665
Nb0 Os1 2.824950 1_556
Nb0 Os1 2.825164 1_655
Nb0 Os0 2.825177 1_566
Nb0 Os1 2.825406 1_565
Nb0 Os0 2.825410 1_656
Nb0 Os0 2.825450 1_666
Nb0 Os1 2.825467 1_555
