# generated using pymatgen
data_Li3Ti2VO6
_symmetry_space_group_name_H-M   'P 1'
_cell_length_a   6.73245935
_cell_length_b   6.73245935
_cell_length_c   6.00934185
_cell_angle_alpha   74.46950153
_cell_angle_beta   74.46950153
_cell_angle_gamma   25.32919140
_symmetry_Int_Tables_number   1
_chemical_formula_structural   Li3Ti2VO6
_chemical_formula_sum   'Li3 Ti2 V1 O6'
_cell_volume   112.05513878
_cell_formula_units_Z   1
loop_
 _symmetry_equiv_pos_site_id
 _symmetry_equiv_pos_as_xyz
  1  'x, y, z'
loop_
 _atom_site_type_symbol
 _atom_site_label
 _atom_site_symmetry_multiplicity
 _atom_site_fract_x
 _atom_site_fract_y
 _atom_site_fract_z
 _atom_site_occupancy
  Li  Li0  1  0.00000000  0.00000000  0.00000000  1
  Li  Li1  1  0.66640400  0.66640400  0.67243300  1
  Li  Li2  1  0.33359600  0.33359600  0.32756700  1
  Ti  Ti0  1  0.65918700  0.65918700  0.18200100  1
  Ti  Ti1  1  0.34081300  0.34081300  0.81799900  1
  V  V0  1  0.00000000  0.00000000  0.50000000  1
  O  O0  1  0.16794600  0.16794600  0.40841800  1
  O  O1  1  0.82665200  0.82665200  0.06235700  1
  O  O2  1  0.83205400  0.83205400  0.59158200  1
  O  O3  1  0.49826100  0.49826100  0.74733400  1
  O  O4  1  0.50173900  0.50173900  0.25266600  1
  O  O5  1  0.17334800  0.17334800  0.93764300  1
loop_
_geom_bond_atom_site_label_1
_geom_bond_atom_site_label_2
_geom_bond_distance
_geom_bond_site_symmetry_2
Li0 O3 2.122188 1_544
Li0 O3 2.122188 1_454
Li0 O4 2.122188 1_545
Li0 O4 2.122188 1_455
Li0 O1 2.204147 1_445
Li0 O5 2.204147 1_554
Li1 O2 2.095608 1_555
Li1 O3 2.129869 1_555
Li1 O0 2.163018 1_655
Li1 O0 2.163018 1_565
Li1 O5 2.192449 1_565
Li1 O5 2.192449 1_655
Li2 O0 2.095608 1_555
Li2 O4 2.129869 1_555
Li2 O2 2.163018 1_455
Li2 O2 2.163018 1_545
Li2 O1 2.192449 1_545
Li2 O1 2.192449 1_455
O0 Ti0 2.032035 1_545
O0 Ti0 2.032035 1_455
O0 V0 2.122369 1_555
O1 Ti1 2.054185 1_564
O1 Ti1 2.054185 1_654
O1 Ti0 2.118712 1_555
O2 Ti1 2.032035 1_655
O2 Ti1 2.032035 1_565
O2 V0 2.122369 1_665
O3 Ti1 1.994165 1_555
O3 V0 2.090390 1_655
O3 V0 2.090390 1_565
O4 Ti0 1.994165 1_555
O4 V0 2.090390 1_565
O4 V0 2.090390 1_655
O5 Ti0 2.054185 1_456
O5 Ti0 2.054185 1_546
O5 Ti1 2.118712 1_555
