# generated using pymatgen
data_TiBeRh2
_symmetry_space_group_name_H-M   'P 1'
_cell_length_a   4.16337062
_cell_length_b   4.16337780
_cell_length_c   4.16337924
_cell_angle_alpha   59.99998854
_cell_angle_beta   59.99988578
_cell_angle_gamma   59.99987443
_symmetry_Int_Tables_number   1
_chemical_formula_structural   TiBeRh2
_chemical_formula_sum   'Ti1 Be1 Rh2'
_cell_volume   51.02946859
_cell_formula_units_Z   1
loop_
 _symmetry_equiv_pos_site_id
 _symmetry_equiv_pos_as_xyz
  1  'x, y, z'
loop_
 _atom_site_type_symbol
 _atom_site_label
 _atom_site_symmetry_multiplicity
 _atom_site_fract_x
 _atom_site_fract_y
 _atom_site_fract_z
 _atom_site_occupancy
  Ti  Ti0  1  0.75000100  0.75000000  0.75000000  1
  Be  Be0  1  0.25000000  0.25000000  0.25000000  1
  Rh  Rh0  1  -0.00000000  0.00000000  0.00000100  1
  Rh  Rh1  1  0.50000000  0.50000100  0.50000000  1
loop_
_geom_bond_atom_site_label_1
_geom_bond_atom_site_label_2
_geom_bond_distance
_geom_bond_site_symmetry_2
Be0 Rh1 2.549529 1_455
Be0 Rh0 2.549529 1_655
Be0 Rh1 2.549532 1_545
Be0 Rh0 2.549535 1_555
Be0 Rh0 2.549536 1_565
Be0 Rh1 2.549537 1_554
Be0 Rh0 2.549540 1_556
Be0 Rh1 2.549542 1_555
Rh0 Ti0 2.549532 1_544
Rh0 Ti0 2.549534 1_445
Rh0 Ti0 2.549536 1_454
Rh0 Ti0 2.549538 1_444
Rh1 Ti0 2.549525 1_455
Rh1 Ti0 2.549537 1_554
Rh1 Ti0 2.549538 1_555
Rh1 Ti0 2.549539 1_545
