# generated using pymatgen
data_Lu2InAg
_symmetry_space_group_name_H-M   'P 1'
_cell_length_a   5.10376627
_cell_length_b   5.10376627
_cell_length_c   5.10376627
_cell_angle_alpha   60.00000000
_cell_angle_beta   60.00000000
_cell_angle_gamma   60.00000000
_symmetry_Int_Tables_number   1
_chemical_formula_structural   Lu2InAg
_chemical_formula_sum   'Lu2 In1 Ag1'
_cell_volume   94.00638119
_cell_formula_units_Z   1
loop_
 _symmetry_equiv_pos_site_id
 _symmetry_equiv_pos_as_xyz
  1  'x, y, z'
loop_
 _atom_site_type_symbol
 _atom_site_label
 _atom_site_symmetry_multiplicity
 _atom_site_fract_x
 _atom_site_fract_y
 _atom_site_fract_z
 _atom_site_occupancy
  Lu  Lu0  1  0.49999900  0.49999900  0.49999900  1
  Lu  Lu1  1  0.00000000  0.00000000  -0.00000000  1
  In  In0  1  0.75000000  0.75000000  0.75000000  1
  Ag  Ag0  1  0.25000000  0.25000000  0.25000000  1
loop_
_geom_bond_atom_site_label_1
_geom_bond_atom_site_label_2
_geom_bond_distance
_geom_bond_site_symmetry_2
In0 Lu0 3.125402 1_556
In0 Lu0 3.125402 1_565
In0 Lu0 3.125402 1_655
In0 Lu1 3.125406 1_666
In0 Lu1 3.125406 1_665
In0 Lu1 3.125406 1_566
In0 Lu1 3.125406 1_656
In0 Lu0 3.125418 1_555
Ag0 Lu0 3.125393 1_555
Ag0 Lu1 3.125406 1_556
Ag0 Lu1 3.125406 1_555
Ag0 Lu1 3.125406 1_655
Ag0 Lu1 3.125406 1_565
Ag0 Lu0 3.125410 1_545
Ag0 Lu0 3.125410 1_554
Ag0 Lu0 3.125410 1_455
