# generated using pymatgen
data_LiFeP2O7
_symmetry_space_group_name_H-M   'P 1'
_cell_length_a   9.73130000
_cell_length_b   9.80888894
_cell_length_c   11.14129033
_cell_angle_alpha   89.63173869
_cell_angle_beta   78.49059037
_cell_angle_gamma   89.66672205
_symmetry_Int_Tables_number   1
_chemical_formula_structural   LiFeP2O7
_chemical_formula_sum   'Li8 Fe8 P16 O56'
_cell_volume   1042.05523398
_cell_formula_units_Z   8
loop_
 _symmetry_equiv_pos_site_id
 _symmetry_equiv_pos_as_xyz
  1  'x, y, z'
loop_
 _atom_site_type_symbol
 _atom_site_label
 _atom_site_symmetry_multiplicity
 _atom_site_fract_x
 _atom_site_fract_y
 _atom_site_fract_z
 _atom_site_occupancy
  Li  Li0  1  0.09037200  0.89202100  0.97300700  1
  Li  Li1  1  0.40511500  0.39279000  0.02930100  1
  Li  Li2  1  0.38541300  0.79491300  0.45658100  1
  Li  Li3  1  0.59026700  0.60342200  0.97070900  1
  Li  Li4  1  0.64780300  0.90551800  0.95067700  1
  Li  Li5  1  0.91001000  0.10960700  0.02802400  1
  Li  Li6  1  0.84202900  0.42266200  0.52845300  1
  Li  Li7  1  0.88558900  0.71638200  0.45275200  1
  Fe  Fe0  1  0.21064400  0.08699000  0.33525700  1
  Fe  Fe1  1  0.24765900  0.79677800  0.17603600  1
  Fe  Fe2  1  0.25234000  0.29018700  0.82546000  1
  Fe  Fe3  1  0.29033000  0.57457500  0.66829900  1
  Fe  Fe4  1  0.70408600  0.41011000  0.32149500  1
  Fe  Fe5  1  0.75034800  0.70441800  0.17665600  1
  Fe  Fe6  1  0.75317300  0.21162400  0.82372200  1
  Fe  Fe7  1  0.78997100  0.92820400  0.66441300  1
  P  P0  1  0.02308000  0.55353600  0.24936900  1
  P  P1  1  0.11531700  0.28789000  0.11844400  1
  P  P2  1  0.06101300  0.07765200  0.76211000  1
  P  P3  1  0.12254500  0.85464900  0.57416800  1
  P  P4  1  0.37791300  0.35583900  0.42840600  1
  P  P5  1  0.43673400  0.57530500  0.23876800  1
  P  P6  1  0.52657400  0.94307300  0.24543200  1
  P  P7  1  0.38290600  0.78919500  0.88105000  1
  P  P8  1  0.61357900  0.20632000  0.11567100  1
  P  P9  1  0.47561300  0.05531800  0.74664300  1
  P  P10  1  0.56143200  0.42396100  0.76250200  1
  P  P11  1  0.62179500  0.64758700  0.57684300  1
  P  P12  1  0.87793100  0.14262600  0.42606100  1
  P  P13  1  0.93654400  0.92600300  0.23812100  1
  P  P14  1  0.88483300  0.71274200  0.88392000  1
  P  P15  1  0.97598700  0.44726100  0.75384200  1
  O  O0  1  0.01627400  0.57870800  0.38294100  1
  O  O1  1  0.03240900  0.14878200  0.43330700  1
  O  O2  1  0.08842000  0.91594400  0.26408900  1
  O  O3  1  0.10381100  0.41332900  0.21393000  1
  O  O4  1  0.10770000  0.66001800  0.16216200  1
  O  O5  1  0.18201900  0.17534100  0.18439700  1
  O  O6  1  0.22108300  0.33588600  0.99992100  1
  O  O7  1  0.02589600  0.73944600  0.90931400  1
  O  O8  1  0.12452300  0.94185100  0.69526300  1
  O  O9  1  0.05938300  0.05931200  0.89634200  1
  O  O10  1  0.12876400  0.46375400  0.77905100  1
  O  O11  1  0.18877500  0.71773200  0.59788900  1
  O  O12  1  0.15630600  0.19678600  0.71085300  1
  O  O13  1  0.21412000  0.92549100  0.46504000  1
  O  O14  1  0.29357400  0.43543500  0.53453300  1
  O  O15  1  0.34581200  0.69765900  0.29444400  1
  O  O16  1  0.32066000  0.21683100  0.40418300  1
  O  O17  1  0.37257900  0.96007300  0.22042300  1
  O  O18  1  0.36925900  0.44133800  0.30326600  1
  O  O19  1  0.43602200  0.56459700  0.10431400  1
  O  O20  1  0.47337100  0.23708800  0.08871500  1
  O  O21  1  0.27645500  0.83552600  0.99945700  1
  O  O22  1  0.32672000  0.67071200  0.81700700  1
  O  O23  1  0.39415000  0.91204700  0.78435000  1
  O  O24  1  0.41105800  0.41142600  0.73465400  1
  O  O25  1  0.39448300  0.15696300  0.84181300  1
  O  O26  1  0.46958100  0.65966400  0.56170100  1
  O  O27  1  0.53426400  0.90043500  0.37225400  1
  O  O28  1  0.47838000  0.08249600  0.61603100  1
  O  O29  1  0.53542200  0.35010300  0.42942000  1
  O  O30  1  0.61433200  0.84961600  0.14402800  1
  O  O31  1  0.59058300  0.58529800  0.26450900  1
  O  O32  1  0.60122700  0.08861500  0.21886300  1
  O  O33  1  0.68459600  0.32162700  0.17312600  1
  O  O34  1  0.71735400  0.14727900  0.99864500  1
  O  O35  1  0.52511000  0.76733300  0.91230300  1
  O  O36  1  0.56305400  0.43195000  0.89708500  1
  O  O37  1  0.62038900  0.56634200  0.70372500  1
  O  O38  1  0.62805000  0.03499800  0.78301600  1
  O  O39  1  0.68883900  0.78461300  0.59556200  1
  O  O40  1  0.66614200  0.31287800  0.70336600  1
  O  O41  1  0.71922500  0.56615500  0.47689100  1
  O  O42  1  0.79005100  0.06542400  0.53285600  1
  O  O43  1  0.84457600  0.80424300  0.29550000  1
  O  O44  1  0.82093900  0.28635200  0.40525100  1
  O  O45  1  0.86943500  0.53928700  0.22002200  1
  O  O46  1  0.93140200  0.93607400  0.10438400  1
  O  O47  1  0.86759000  0.06116400  0.30221900  1
  O  O48  1  0.97376800  0.26009900  0.09312800  1
  O  O49  1  0.77618300  0.66494500  0.00176200  1
  O  O50  1  0.81330500  0.83082700  0.82510000  1
  O  O51  1  0.89314200  0.34319800  0.84624500  1
  O  O52  1  0.89308900  0.59025200  0.78794500  1
  O  O53  1  0.90817900  0.08916400  0.73494300  1
  O  O54  1  0.96700800  0.84013600  0.56612500  1
  O  O55  1  0.97080700  0.42106500  0.62373800  1
loop_
_geom_bond_atom_site_label_1
_geom_bond_atom_site_label_2
_geom_bond_distance
_geom_bond_site_symmetry_2
Li0 O7 1.827369 1_555
Li0 O9 1.895311 1_565
Li0 O46 1.954247 1_456
Li0 O21 1.967792 1_555
Li1 O20 1.833728 1_555
Li1 O19 1.937331 1_555
Li1 O36 1.943138 1_554
Li1 O6 1.968202 1_554
Li2 O27 1.874587 1_555
Li2 O26 2.037812 1_555
Li2 O13 2.083743 1_555
Li2 O15 2.150791 1_555
Li2 O11 2.347916 1_555
Li3 O35 1.884087 1_555
Li3 O36 1.918729 1_555
Li3 O19 1.929125 1_556
Li3 O49 2.005558 1_556
Li4 O35 1.917168 1_555
Li4 O50 2.046541 1_555
Li4 O30 2.180401 1_556
Li4 O38 2.291116 1_565
Li4 O34 2.558628 1_565
Li5 O48 1.814975 1_555
Li5 O9 1.912762 1_654
Li5 O46 1.926763 1_545
Li5 O34 1.998450 1_554
Li6 O55 1.796703 1_555
Li6 O44 1.962941 1_555
Li6 O41 1.995798 1_555
Li6 O40 2.559353 1_555
Li7 O0 1.909114 1_655
Li7 O54 2.031510 1_555
Li7 O43 2.055995 1_555
Li7 O41 2.171078 1_555
Li7 O39 2.329896 1_555
Fe0 O16 1.927291 1_555
Fe0 O1 1.951727 1_555
Fe0 O5 1.954212 1_555
Fe0 O13 2.142620 1_545
Fe0 O17 2.205230 1_545
Fe0 O2 2.296724 1_545
Fe1 O4 1.945854 1_555
Fe1 O21 1.965948 1_554
Fe1 O15 2.018284 1_555
Fe1 O2 2.029037 1_555
Fe1 O17 2.135565 1_555
Fe2 O25 1.931499 1_555
Fe2 O12 1.960686 1_555
Fe2 O6 1.960914 1_555
Fe2 O24 2.050778 1_555
Fe2 O10 2.196585 1_555
Fe3 O11 1.960334 1_555
Fe3 O22 2.004427 1_555
Fe3 O14 2.022781 1_555
Fe3 O26 2.080221 1_555
Fe3 O10 2.098717 1_555
Fe3 O24 2.190273 1_555
Fe4 O33 1.914996 1_555
Fe4 O29 1.923742 1_555
Fe4 O44 2.007557 1_555
Fe4 O45 2.179925 1_555
Fe4 O31 2.195387 1_555
Fe4 O41 2.345302 1_555
Fe5 O49 1.955255 1_555
Fe5 O43 2.016033 1_555
Fe5 O30 2.018899 1_555
Fe5 O31 2.034601 1_555
Fe5 O45 2.095604 1_555
Fe6 O51 1.935168 1_555
Fe6 O40 1.981934 1_555
Fe6 O34 2.008383 1_555
Fe6 O53 2.023690 1_555
Fe6 O38 2.223697 1_555
Fe7 O39 1.967746 1_555
Fe7 O42 1.983474 1_565
Fe7 O54 2.038485 1_555
Fe7 O50 2.075245 1_555
Fe7 O38 2.119890 1_565
Fe7 O53 2.198005 1_565
O0 P0 1.498394 1_555
O1 P12 1.523003 1_455
O2 P13 1.564081 1_455
O3 P0 1.592199 1_555
O3 P1 1.620464 1_555
O4 P0 1.546188 1_555
O5 P1 1.533494 1_555
O6 P1 1.574794 1_556
O7 P14 1.480930 1_455
O8 P2 1.590757 1_565
O8 P3 1.605493 1_555
O9 P2 1.502097 1_555
O10 P15 1.576515 1_455
O11 P3 1.530434 1_555
O12 P2 1.531115 1_555
O13 P3 1.522894 1_555
O14 P4 1.516038 1_555
O15 P5 1.544734 1_555
O16 P4 1.521836 1_555
O17 P6 1.585649 1_555
O18 P5 1.576040 1_555
O18 P4 1.638683 1_555
O19 P5 1.503739 1_555
O20 P8 1.483390 1_555
O21 P7 1.573794 1_555
O22 P7 1.527244 1_555
O23 P7 1.600816 1_555
O23 P9 1.628603 1_565
O24 P10 1.560926 1_555
O25 P9 1.553066 1_555
O26 P11 1.527739 1_555
O27 P6 1.487014 1_555
O28 P9 1.472692 1_555
O29 P4 1.535763 1_555
O30 P6 1.570108 1_555
O31 P5 1.583264 1_555
O32 P6 1.604449 1_545
O32 P8 1.612030 1_555
O33 P8 1.536728 1_555
O34 P8 1.591425 1_556
O35 P7 1.506680 1_555
O36 P10 1.505206 1_555
O37 P10 1.598787 1_555
O37 P11 1.616029 1_555
O38 P9 1.624766 1_555
O39 P11 1.530944 1_555
O40 P10 1.545319 1_555
O41 P11 1.535685 1_555
O42 P12 1.520000 1_555
O43 P13 1.552538 1_555
O44 P12 1.544951 1_555
O45 P0 1.600020 1_655
O46 P13 1.503387 1_555
O47 P13 1.590136 1_545
O47 P12 1.619525 1_555
O48 P1 1.487160 1_655
O49 P14 1.582827 1_554
O50 P14 1.555143 1_555
O51 P15 1.554531 1_555
O52 P14 1.604530 1_555
O52 P15 1.622883 1_555
O53 P2 1.579111 1_655
O54 P3 1.541430 1_655
O55 P15 1.484517 1_555
