# generated using pymatgen
data_Ni(CO)4
_symmetry_space_group_name_H-M   'P 1'
_cell_length_a   11.02351800
_cell_length_b   11.02351800
_cell_length_c   11.02351800
_cell_angle_alpha   90.00000000
_cell_angle_beta   90.00000000
_cell_angle_gamma   90.00000000
_symmetry_Int_Tables_number   1
_chemical_formula_structural   Ni(CO)4
_chemical_formula_sum   'Ni8 C32 O32'
_cell_volume   1339.55529919
_cell_formula_units_Z   8
loop_
 _symmetry_equiv_pos_site_id
 _symmetry_equiv_pos_as_xyz
  1  'x, y, z'
loop_
 _atom_site_type_symbol
 _atom_site_label
 _atom_site_symmetry_multiplicity
 _atom_site_fract_x
 _atom_site_fract_y
 _atom_site_fract_z
 _atom_site_occupancy
  Ni  Ni0  1  0.37812300  0.62187700  0.12187700  1
  Ni  Ni1  1  0.62187700  0.12187700  0.37812300  1
  Ni  Ni2  1  0.12187700  0.37812300  0.62187700  1
  Ni  Ni3  1  0.87812300  0.87812300  0.87812300  1
  Ni  Ni4  1  0.62187700  0.37812300  0.87812300  1
  Ni  Ni5  1  0.37812300  0.87812300  0.62187700  1
  Ni  Ni6  1  0.87812300  0.62187700  0.37812300  1
  Ni  Ni7  1  0.12187700  0.12187700  0.12187700  1
  C  C0  1  0.28410800  0.71589200  0.21589200  1
  C  C1  1  0.71589200  0.21589200  0.28410800  1
  C  C2  1  0.21589200  0.28410800  0.71589200  1
  C  C3  1  0.78410800  0.78410800  0.78410800  1
  C  C4  1  0.71589200  0.28410800  0.78410800  1
  C  C5  1  0.28410800  0.78410800  0.71589200  1
  C  C6  1  0.78410800  0.71589200  0.28410800  1
  C  C7  1  0.21589200  0.21589200  0.21589200  1
  C  C8  1  0.28379400  0.52604900  0.03031400  1
  C  C9  1  0.71620600  0.02604900  0.46968600  1
  C  C10  1  0.21620600  0.47395100  0.53031400  1
  C  C11  1  0.78379400  0.97395100  0.96968600  1
  C  C12  1  0.03031400  0.28379400  0.52604900  1
  C  C13  1  0.46968600  0.71620600  0.02604900  1
  C  C14  1  0.53031400  0.21620600  0.47395100  1
  C  C15  1  0.96968600  0.78379400  0.97395100  1
  C  C16  1  0.52604900  0.03031400  0.28379400  1
  C  C17  1  0.02604900  0.46968600  0.71620600  1
  C  C18  1  0.47395100  0.53031400  0.21620600  1
  C  C19  1  0.97395100  0.96968600  0.78379400  1
  C  C20  1  0.71620600  0.47395100  0.96968600  1
  C  C21  1  0.28379400  0.97395100  0.53031400  1
  C  C22  1  0.78379400  0.52604900  0.46968600  1
  C  C23  1  0.21620600  0.02604900  0.03031400  1
  C  C24  1  0.96968600  0.71620600  0.47395100  1
  C  C25  1  0.53031400  0.28379400  0.97395100  1
  C  C26  1  0.46968600  0.78379400  0.52604900  1
  C  C27  1  0.03031400  0.21620600  0.02604900  1
  C  C28  1  0.47395100  0.96968600  0.71620600  1
  C  C29  1  0.97395100  0.53031400  0.28379400  1
  C  C30  1  0.52604900  0.46968600  0.78379400  1
  C  C31  1  0.02604900  0.03031400  0.21620600  1
  O  O0  1  0.22368400  0.77631600  0.27631600  1
  O  O1  1  0.77631600  0.27631600  0.22368400  1
  O  O2  1  0.27631600  0.22368400  0.77631600  1
  O  O3  1  0.72368400  0.72368400  0.72368400  1
  O  O4  1  0.77631600  0.22368400  0.72368400  1
  O  O5  1  0.22368400  0.72368400  0.77631600  1
  O  O6  1  0.72368400  0.77631600  0.22368400  1
  O  O7  1  0.27631600  0.27631600  0.27631600  1
  O  O8  1  0.22356700  0.46386600  0.97144600  1
  O  O9  1  0.77643300  0.96386600  0.52855400  1
  O  O10  1  0.27643300  0.53613400  0.47144600  1
  O  O11  1  0.72356700  0.03613400  0.02855400  1
  O  O12  1  0.97144600  0.22356700  0.46386600  1
  O  O13  1  0.52855400  0.77643300  0.96386600  1
  O  O14  1  0.47144600  0.27643300  0.53613400  1
  O  O15  1  0.02855400  0.72356700  0.03613400  1
  O  O16  1  0.46386600  0.97144600  0.22356700  1
  O  O17  1  0.96386600  0.52855400  0.77643300  1
  O  O18  1  0.53613400  0.47144600  0.27643300  1
  O  O19  1  0.03613400  0.02855400  0.72356700  1
  O  O20  1  0.77643300  0.53613400  0.02855400  1
  O  O21  1  0.22356700  0.03613400  0.47144600  1
  O  O22  1  0.72356700  0.46386600  0.52855400  1
  O  O23  1  0.27643300  0.96386600  0.97144600  1
  O  O24  1  0.02855400  0.77643300  0.53613400  1
  O  O25  1  0.47144600  0.22356700  0.03613400  1
  O  O26  1  0.52855400  0.72356700  0.46386600  1
  O  O27  1  0.97144600  0.27643300  0.96386600  1
  O  O28  1  0.53613400  0.02855400  0.77643300  1
  O  O29  1  0.03613400  0.47144600  0.22356700  1
  O  O30  1  0.46386600  0.52855400  0.72356700  1
  O  O31  1  0.96386600  0.97144600  0.27643300  1
loop_
_geom_bond_atom_site_label_1
_geom_bond_atom_site_label_2
_geom_bond_distance
_geom_bond_site_symmetry_2
C0 O0 1.153693 1_555
C0 Ni0 1.795056 1_555
C1 O1 1.153693 1_555
C1 Ni1 1.795056 1_555
C2 O2 1.153693 1_555
C2 Ni2 1.795056 1_555
C3 O3 1.153693 1_555
C3 Ni3 1.795056 1_555
C4 O4 1.153693 1_555
C4 Ni4 1.795056 1_555
C5 O5 1.153693 1_555
C5 Ni5 1.795056 1_555
C6 O6 1.153693 1_555
C6 Ni6 1.795056 1_555
C7 O7 1.153693 1_555
C7 Ni7 1.795056 1_555
C8 O8 1.154024 1_554
C8 Ni0 1.793305 1_555
C9 O9 1.154024 1_545
C9 Ni1 1.793305 1_555
C10 O10 1.154024 1_555
C10 Ni2 1.793305 1_555
C11 O11 1.154024 1_566
C11 Ni3 1.793305 1_555
C12 O12 1.154024 1_455
C12 Ni2 1.793305 1_555
C13 O13 1.154024 1_554
C13 Ni0 1.793305 1_555
C14 O14 1.154024 1_555
C14 Ni1 1.793305 1_555
C15 O15 1.154024 1_656
C15 Ni3 1.793305 1_555
C16 O16 1.154024 1_545
C16 Ni1 1.793305 1_555
C17 O17 1.154024 1_455
C17 Ni2 1.793305 1_555
C18 O18 1.154024 1_555
C18 Ni0 1.793305 1_555
C19 O19 1.154024 1_665
C19 Ni3 1.793305 1_555
C20 O20 1.154024 1_556
C20 Ni4 1.793305 1_555
C21 O21 1.154024 1_565
C21 Ni5 1.793305 1_555
C22 O22 1.154024 1_555
C22 Ni6 1.793305 1_555
C23 O23 1.154024 1_544
C23 Ni7 1.793305 1_555
C24 O24 1.154024 1_655
C24 Ni6 1.793305 1_555
C25 O25 1.154024 1_556
C25 Ni4 1.793305 1_555
C26 O26 1.154024 1_555
C26 Ni5 1.793305 1_555
C27 O27 1.154024 1_454
C27 Ni7 1.793305 1_555
C28 O28 1.154024 1_565
C28 Ni5 1.793305 1_555
C29 O29 1.154024 1_655
C29 Ni6 1.793305 1_555
C30 O30 1.154024 1_555
C30 Ni4 1.793305 1_555
C31 O31 1.154024 1_445
C31 Ni7 1.793305 1_555
