# generated using pymatgen
data_Li4Mn3Cr2Cu3O16
_symmetry_space_group_name_H-M   'P 1'
_cell_length_a   5.87330735
_cell_length_b   5.80479779
_cell_length_c   9.43740590
_cell_angle_alpha   90.02035305
_cell_angle_beta   88.64004130
_cell_angle_gamma   119.57706483
_symmetry_Int_Tables_number   1
_chemical_formula_structural   Li4Mn3Cr2Cu3O16
_chemical_formula_sum   'Li4 Mn3 Cr2 Cu3 O16'
_cell_volume   279.72340375
_cell_formula_units_Z   1
loop_
 _symmetry_equiv_pos_site_id
 _symmetry_equiv_pos_as_xyz
  1  'x, y, z'
loop_
 _atom_site_type_symbol
 _atom_site_label
 _atom_site_symmetry_multiplicity
 _atom_site_fract_x
 _atom_site_fract_y
 _atom_site_fract_z
 _atom_site_occupancy
  Li  Li0  1  0.33482800  0.66771300  0.89548500  1
  Li  Li1  1  0.00229800  0.00108300  0.99836800  1
  Li  Li2  1  0.00558300  0.00263500  0.49024300  1
  Li  Li3  1  0.67282900  0.33621800  0.39670300  1
  Mn  Mn0  1  0.65502800  0.82749800  0.21441100  1
  Mn  Mn1  1  0.83181400  0.66277900  0.71518100  1
  Mn  Mn2  1  0.83189300  0.16944100  0.71509000  1
  Cr  Cr0  1  0.33517400  0.66752300  0.48977300  1
  Cr  Cr1  1  0.66272700  0.33139800  0.98997700  1
  Cu  Cu0  1  0.16804500  0.82856900  0.21330800  1
  Cu  Cu1  1  0.16821900  0.33924500  0.21337400  1
  Cu  Cu2  1  0.33811100  0.16922500  0.71466500  1
  O  O0  1  0.15255500  0.83139100  0.59739800  1
  O  O1  1  0.04313800  0.52125900  0.34539100  1
  O  O2  1  0.33611900  0.66763400  0.11109800  1
  O  O3  1  0.99398200  0.99711500  0.30062400  1
  O  O4  1  0.99006400  0.99521800  0.81054600  1
  O  O5  1  0.15251400  0.32115200  0.59730300  1
  O  O6  1  0.49509200  0.96610100  0.34440200  1
  O  O7  1  0.49497500  0.52867300  0.34416500  1
  O  O8  1  0.32001000  0.16006800  0.09093900  1
  O  O9  1  0.67872200  0.83949000  0.60467300  1
  O  O10  1  0.52887300  0.48960700  0.84110700  1
  O  O11  1  0.52896900  0.03967200  0.84107300  1
  O  O12  1  0.67995900  0.34022000  0.60923500  1
  O  O13  1  0.81655400  0.66730500  0.09379500  1
  O  O14  1  0.96539500  0.48280400  0.83549300  1
  O  O15  1  0.81652500  0.14926400  0.09401900  1
loop_
_geom_bond_atom_site_label_1
_geom_bond_atom_site_label_2
_geom_bond_distance
_geom_bond_site_symmetry_2
Li0 O10 1.940665 1_555
Li0 O11 1.941223 1_565
Li0 O14 1.984793 1_455
Li0 O2 2.035023 1_556
Li1 O4 1.775346 1_445
Li1 O8 1.863794 1_556
Li1 O13 1.903453 1_446
Li1 O15 1.903795 1_456
Li2 O3 1.792097 1_445
Li2 O0 1.909220 1_545
Li2 O5 1.910243 1_555
Li2 O9 1.963697 1_445
Li3 O6 1.938783 1_545
Li3 O7 1.939605 1_555
Li3 O1 1.939782 1_655
Li3 O12 2.007068 1_555
Mn0 O2 1.921006 1_555
Mn0 O6 1.930123 1_555
Mn0 O7 1.931121 1_555
Mn0 O3 1.932859 1_555
Mn0 O13 1.969594 1_555
Mn0 O15 1.969939 1_565
Mn1 O4 1.914584 1_555
Mn1 O12 1.921836 1_555
Mn1 O10 1.929618 1_555
Mn1 O0 1.955376 1_655
Mn1 O14 1.961748 1_555
Mn1 O9 1.975888 1_555
Mn2 O4 1.914469 1_545
Mn2 O12 1.921809 1_555
Mn2 O11 1.929678 1_555
Mn2 O5 1.954871 1_655
Mn2 O14 1.961524 1_555
Mn2 O9 1.976277 1_545
Cr0 O0 2.010393 1_555
Cr0 O5 2.010900 1_555
Cr0 O6 2.025287 1_555
Cr0 O7 2.025740 1_555
Cr0 O1 2.047433 1_555
Cr0 O9 2.087670 1_555
Cr1 O13 1.969719 1_556
Cr1 O8 1.970295 1_556
Cr1 O15 1.970649 1_556
Cr1 O11 2.048657 1_555
Cr1 O10 2.049737 1_555
Cr1 O14 2.096097 1_555
Cu0 O3 1.904796 1_455
Cu0 O2 1.908447 1_555
Cu0 O1 1.985062 1_555
Cu0 O8 2.022455 1_565
Cu0 O6 2.110898 1_555
Cu0 O13 2.147619 1_455
Cu1 O3 1.903751 1_445
Cu1 O2 1.907417 1_555
Cu1 O1 1.982454 1_555
Cu1 O8 2.019235 1_555
Cu1 O7 2.108081 1_555
Cu1 O15 2.147667 1_455
Cu2 O4 1.972881 1_445
Cu2 O12 1.986181 1_555
Cu2 O11 2.035090 1_555
Cu2 O10 2.035392 1_555
Cu2 O5 2.049339 1_555
Cu2 O0 2.050396 1_545
