# generated using pymatgen
data_Li3Co5OF11
_symmetry_space_group_name_H-M   'P 1'
_cell_length_a   5.18107800
_cell_length_b   5.55201493
_cell_length_c   9.13375145
_cell_angle_alpha   106.53637131
_cell_angle_beta   89.09425784
_cell_angle_gamma   116.90830595
_symmetry_Int_Tables_number   1
_chemical_formula_structural   Li3Co5OF11
_chemical_formula_sum   'Li3 Co5 O1 F11'
_cell_volume   222.62883722
_cell_formula_units_Z   1
loop_
 _symmetry_equiv_pos_site_id
 _symmetry_equiv_pos_as_xyz
  1  'x, y, z'
loop_
 _atom_site_type_symbol
 _atom_site_label
 _atom_site_symmetry_multiplicity
 _atom_site_fract_x
 _atom_site_fract_y
 _atom_site_fract_z
 _atom_site_occupancy
  Li  Li0  1  0.02187200  0.03581100  0.99939000  1
  Li  Li1  1  0.79676100  0.03267100  0.26623000  1
  Li  Li2  1  0.26936700  0.00334400  0.76095900  1
  Co  Co0  1  0.47609100  0.99740200  0.49802000  1
  Co  Co1  1  0.45884600  0.62574500  0.14608400  1
  Co  Co2  1  0.95070200  0.58498800  0.64761500  1
  Co  Co3  1  0.17201300  0.60365300  0.40110200  1
  Co  Co4  1  0.71503100  0.60089300  0.90652100  1
  O  O0  1  0.05988300  0.79680500  0.45706000  1
  F  F0  1  0.43187600  0.50254900  0.35222400  1
  F  F1  1  0.51227500  0.13525600  0.28868800  1
  F  F2  1  0.01084700  0.09582700  0.80281600  1
  F  F3  1  0.44909900  0.11712800  0.04214400  1
  F  F4  1  0.91984000  0.09559200  0.54260600  1
  F  F5  1  0.94514900  0.49949700  0.84706700  1
  F  F6  1  0.01505900  0.49656800  0.10310400  1
  F  F7  1  0.54671200  0.79914900  0.95067200  1
  F  F8  1  0.90461200  0.80721900  0.19511200  1
  F  F9  1  0.41811000  0.79719500  0.70909000  1
  F  F10  1  0.50049300  0.47222900  0.60837300  1
loop_
_geom_bond_atom_site_label_1
_geom_bond_atom_site_label_2
_geom_bond_distance
_geom_bond_site_symmetry_2
Co0 O0 1.909178 1_555
Co0 F4 2.125479 1_565
Co0 F1 2.229000 1_565
Co0 F9 2.437570 1_555
Co0 F10 2.484247 1_565
Co1 F8 2.054104 1_555
Co1 F6 2.081084 1_555
Co1 Li1 2.107825 1_565
Co1 F0 2.161177 1_555
Co1 F7 2.208068 1_554
Co2 F5 2.005761 1_555
Co2 Li2 2.099247 1_665
Co2 F10 2.130311 1_555
Co2 F9 2.156810 1_655
Co2 O0 2.294377 1_655
Co2 F4 2.540946 1_555
Co3 O0 1.411116 1_555
Co3 F0 1.688051 1_555
Co4 F5 1.564067 1_555
Co4 F7 1.655223 1_555
Co4 Li0 2.116512 1_665
F1 Li1 1.795205 1_555
F2 Li2 1.642680 1_555
F2 Li0 1.923276 1_555
F3 Li0 2.068413 1_554
F4 Li1 2.499657 1_555
F6 Li0 2.478681 1_554
F7 Li0 2.181533 1_665
F8 Li1 1.568354 1_565
F8 Li0 2.394766 1_664
F9 Li2 1.614458 1_565
