# generated using pymatgen
data_Er2NiOs
_symmetry_space_group_name_H-M   'P 1'
_cell_length_a   4.72834705
_cell_length_b   4.72834706
_cell_length_c   4.72834778
_cell_angle_alpha   60.00000514
_cell_angle_beta   59.99999490
_cell_angle_gamma   59.99999995
_symmetry_Int_Tables_number   1
_chemical_formula_structural   Er2NiOs
_chemical_formula_sum   'Er2 Ni1 Os1'
_cell_volume   74.75032864
_cell_formula_units_Z   1
loop_
 _symmetry_equiv_pos_site_id
 _symmetry_equiv_pos_as_xyz
  1  'x, y, z'
loop_
 _atom_site_type_symbol
 _atom_site_label
 _atom_site_symmetry_multiplicity
 _atom_site_fract_x
 _atom_site_fract_y
 _atom_site_fract_z
 _atom_site_occupancy
  Er  Er0  1  0.00000000  0.00000000  0.00000000  1
  Er  Er1  1  0.49999900  0.49999900  0.50000000  1
  Ni  Ni0  1  0.25000000  0.25000000  0.25000000  1
  Os  Os0  1  0.75000000  0.75000000  0.75000000  1
loop_
_geom_bond_atom_site_label_1
_geom_bond_atom_site_label_2
_geom_bond_distance
_geom_bond_site_symmetry_2
Er0 Os0 2.895509 1_544
Er0 Ni0 2.895509 1_455
Er0 Os0 2.895510 1_444
Er0 Ni0 2.895510 1_555
Er0 Os0 2.895510 1_454
Er0 Ni0 2.895510 1_545
Er0 Os0 2.895510 1_445
Er0 Ni0 2.895510 1_554
Er1 Ni0 2.895502 1_555
Er1 Os0 2.895505 1_455
Er1 Os0 2.895506 1_545
Er1 Os0 2.895510 1_554
Er1 Ni0 2.895510 1_556
Er1 Ni0 2.895513 1_655
Er1 Ni0 2.895513 1_565
Er1 Os0 2.895517 1_555
