# generated using pymatgen
data_Li5Mn6(BO3)6
_symmetry_space_group_name_H-M   'P 1'
_cell_length_a   14.58509880
_cell_length_b   14.58509880
_cell_length_c   8.33426750
_cell_angle_alpha   89.84628098
_cell_angle_beta   89.84628098
_cell_angle_gamma   25.22694034
_symmetry_Int_Tables_number   1
_chemical_formula_structural   Li5Mn6(BO3)6
_chemical_formula_sum   'Li10 Mn12 B12 O36'
_cell_volume   755.61882910
_cell_formula_units_Z   2
loop_
 _symmetry_equiv_pos_site_id
 _symmetry_equiv_pos_as_xyz
  1  'x, y, z'
loop_
 _atom_site_type_symbol
 _atom_site_label
 _atom_site_symmetry_multiplicity
 _atom_site_fract_x
 _atom_site_fract_y
 _atom_site_fract_z
 _atom_site_occupancy
  Li  Li0  1  0.74525800  0.74525800  0.71143300  1
  Li  Li1  1  0.92939500  0.92939500  0.66394600  1
  Li  Li2  1  0.42966300  0.42966300  0.65746100  1
  Li  Li3  1  0.07529100  0.07529100  0.63140900  1
  Li  Li4  1  0.57512500  0.57512500  0.63354500  1
  Li  Li5  1  0.49522100  0.49522100  0.21242800  1
  Li  Li6  1  0.17985300  0.17985300  0.16201000  1
  Li  Li7  1  0.67908900  0.67908900  0.15865300  1
  Li  Li8  1  0.32482000  0.32482000  0.13403100  1
  Li  Li9  1  0.82554000  0.82554000  0.13106900  1
  Mn  Mn0  1  0.25099900  0.75547300  0.87449700  1
  Mn  Mn1  1  0.75547300  0.25099900  0.87449700  1
  Mn  Mn2  1  0.40745000  0.91162400  0.81919600  1
  Mn  Mn3  1  0.91162400  0.40745000  0.81919600  1
  Mn  Mn4  1  0.58220000  0.09060300  0.80593200  1
  Mn  Mn5  1  0.09060300  0.58220000  0.80593200  1
  Mn  Mn6  1  0.00510900  0.50145700  0.37441500  1
  Mn  Mn7  1  0.50145700  0.00510900  0.37441500  1
  Mn  Mn8  1  0.15687000  0.66214600  0.31953700  1
  Mn  Mn9  1  0.66214600  0.15687000  0.31953700  1
  Mn  Mn10  1  0.33308300  0.83933600  0.30524300  1
  Mn  Mn11  1  0.83933600  0.33308300  0.30524300  1
  B  B0  1  0.58353300  0.58353300  0.99834000  1
  B  B1  1  0.08555600  0.08555600  0.99545700  1
  B  B2  1  0.41620500  0.41620500  0.99808800  1
  B  B3  1  0.91473500  0.91473500  0.99152700  1
  B  B4  1  0.74482400  0.25537700  0.50754200  1
  B  B5  1  0.25537700  0.74482400  0.50754200  1
  B  B6  1  0.66555600  0.66555600  0.49713900  1
  B  B7  1  0.83348900  0.83348900  0.49703200  1
  B  B8  1  0.33557600  0.33557600  0.49719100  1
  B  B9  1  0.16532100  0.16532100  0.49194900  1
  B  B10  1  0.50557200  0.99452500  0.00765600  1
  B  B11  1  0.99452500  0.50557200  0.00765600  1
  O  O0  1  0.46518500  0.46518500  0.98874100  1
  O  O1  1  0.63184300  0.63184300  0.98062200  1
  O  O2  1  0.13434500  0.13434500  0.97576800  1
  O  O3  1  0.96250000  0.96250000  0.96238400  1
  O  O4  1  0.55442800  0.55442800  0.86311200  1
  O  O5  1  0.05624800  0.05624800  0.86055700  1
  O  O6  1  0.88443400  0.88443400  0.86074200  1
  O  O7  1  0.95999600  0.50000400  0.85848200  1
  O  O8  1  0.50000400  0.95999600  0.85848200  1
  O  O9  1  0.38933100  0.38933100  0.85999300  1
  O  O10  1  0.64536700  0.64536700  0.64938100  1
  O  O11  1  0.31618300  0.31618300  0.64885700  1
  O  O12  1  0.81234500  0.81234500  0.64773900  1
  O  O13  1  0.14654900  0.14654900  0.64554500  1
  O  O14  1  0.72246700  0.22203900  0.64604700  1
  O  O15  1  0.22203900  0.72246700  0.64604700  1
  O  O16  1  0.79803600  0.30020300  0.52213800  1
  O  O17  1  0.30020300  0.79803600  0.52213800  1
  O  O18  1  0.71451300  0.71451300  0.48604800  1
  O  O19  1  0.88203400  0.88203400  0.48007400  1
  O  O20  1  0.38411600  0.38411600  0.47579700  1
  O  O21  1  0.21319000  0.21319000  0.46455500  1
  O  O22  1  0.30585500  0.30585500  0.36332700  1
  O  O23  1  0.80467700  0.80467700  0.36085600  1
  O  O24  1  0.63793000  0.63793000  0.36066400  1
  O  O25  1  0.13571400  0.13571400  0.35951900  1
  O  O26  1  0.71157300  0.24849900  0.35828000  1
  O  O27  1  0.24849900  0.71157300  0.35828000  1
  O  O28  1  0.56264900  0.56264900  0.15032100  1
  O  O29  1  0.06569000  0.06569000  0.14594300  1
  O  O30  1  0.39522700  0.39522700  0.14848400  1
  O  O31  1  0.89663100  0.89663100  0.14661100  1
  O  O32  1  0.47275900  0.97162700  0.14622400  1
  O  O33  1  0.97162700  0.47275900  0.14622400  1
  O  O34  1  0.04967300  0.54842800  0.02241900  1
  O  O35  1  0.54842800  0.04967200  0.02241900  1
loop_
_geom_bond_atom_site_label_1
_geom_bond_atom_site_label_2
_geom_bond_distance
_geom_bond_site_symmetry_2
Li0 O8 1.958088 1_555
Li0 O7 1.958088 1_555
Li0 O12 1.980711 1_555
Li0 O18 2.074478 1_555
Li1 O15 2.010313 1_655
Li1 O14 2.010313 1_565
Li1 O19 2.043853 1_555
Li1 O6 2.077646 1_555
Li2 O20 1.996031 1_555
Li2 O14 2.004656 1_555
Li2 O15 2.004656 1_555
Li2 O9 2.038791 1_555
Li3 O5 1.983790 1_555
Li3 O17 1.986502 1_545
Li3 O16 1.986502 1_455
Li3 O13 2.032185 1_555
Li4 O17 1.981917 1_555
Li4 O16 1.981917 1_555
Li4 O4 2.000382 1_555
Li4 O10 2.004235 1_555
Li5 O26 1.958789 1_555
Li5 O27 1.958789 1_555
Li5 O28 1.986613 1_555
Li5 O0 2.053120 1_554
Li6 O32 2.004150 1_545
Li6 O33 2.004150 1_455
Li6 O2 2.024479 1_554
Li6 O25 2.068082 1_555
Li7 O1 2.005319 1_554
Li7 O32 2.010010 1_555
Li7 O33 2.010010 1_555
Li7 O24 2.048524 1_555
Li8 O34 1.982565 1_555
Li8 O35 1.982573 1_555
Li8 O22 1.984377 1_555
Li8 O30 2.008166 1_555
Li9 O34 1.985195 1_655
Li9 O35 1.985197 1_565
Li9 O23 2.003518 1_555
Li9 O31 2.028186 1_555
Mn0 O3 2.089825 1_455
Mn0 O15 2.100558 1_555
Mn0 O0 2.157724 1_555
Mn0 O4 2.171041 1_555
Mn0 O5 2.186462 1_565
Mn1 O3 2.089825 1_545
Mn1 O14 2.100558 1_555
Mn1 O0 2.157724 1_555
Mn1 O4 2.171041 1_555
Mn1 O5 2.186462 1_655
Mn2 O8 2.038113 1_555
Mn2 O2 2.169282 1_565
Mn2 O13 2.174408 1_565
Mn2 O10 2.178859 1_555
Mn2 O1 2.237011 1_555
Mn3 O7 2.038113 1_555
Mn3 O2 2.169282 1_655
Mn3 O13 2.174408 1_655
Mn3 O10 2.178859 1_555
Mn3 O1 2.237011 1_555
Mn4 O35 2.091851 1_556
Mn4 O11 2.121476 1_555
Mn4 O6 2.168781 1_545
Mn4 O12 2.198668 1_545
Mn4 O9 2.219999 1_555
Mn5 O34 2.091843 1_556
Mn5 O11 2.121476 1_555
Mn5 O6 2.168781 1_455
Mn5 O12 2.198668 1_455
Mn5 O9 2.219999 1_555
Mn6 O21 2.088383 1_555
Mn6 O33 2.099904 1_455
Mn6 O18 2.156661 1_455
Mn6 O23 2.173803 1_455
Mn6 O22 2.178644 1_555
Mn7 O21 2.088383 1_555
Mn7 O32 2.099904 1_545
Mn7 O18 2.156661 1_545
Mn7 O23 2.173803 1_545
Mn7 O22 2.178644 1_555
Mn8 O27 2.038775 1_555
Mn8 O31 2.167293 1_455
Mn8 O30 2.188750 1_555
Mn8 O20 2.191607 1_555
Mn8 O19 2.208806 1_455
Mn9 O26 2.038775 1_555
Mn9 O31 2.167293 1_545
Mn9 O30 2.188750 1_555
Mn9 O20 2.191607 1_555
Mn9 O19 2.208806 1_545
Mn10 O17 2.091076 1_555
Mn10 O29 2.140351 1_565
Mn10 O25 2.160320 1_565
Mn10 O28 2.172908 1_555
Mn10 O24 2.232616 1_555
Mn11 O16 2.091076 1_555
Mn11 O29 2.140351 1_655
Mn11 O25 2.160320 1_655
Mn11 O28 2.172908 1_555
Mn11 O24 2.232616 1_555
B0 O1 1.382703 1_555
B0 O28 1.397740 1_556
B0 O4 1.400624 1_555
B1 O29 1.374371 1_556
B1 O2 1.398049 1_555
B1 O5 1.401865 1_555
B2 O9 1.383721 1_555
B2 O30 1.386940 1_556
B2 O0 1.396235 1_555
B3 O3 1.380553 1_555
B3 O31 1.390148 1_556
B3 O6 1.391856 1_555
B4 O26 1.372842 1_555
B4 O14 1.398957 1_555
B4 O16 1.401264 1_555
B5 O27 1.372842 1_555
B5 O15 1.398957 1_555
B5 O17 1.401264 1_555
B6 O24 1.384585 1_555
B6 O10 1.391472 1_555
B6 O18 1.396428 1_555
B7 O19 1.388713 1_555
B7 O12 1.391306 1_555
B7 O23 1.402089 1_555
B8 O11 1.377924 1_555
B8 O20 1.392719 1_555
B8 O22 1.402025 1_555
B9 O21 1.381023 1_555
B9 O13 1.385810 1_555
B9 O25 1.390537 1_555
B10 O8 1.372515 1_554
B10 O32 1.399437 1_555
B10 O35 1.401186 1_565
B11 O7 1.372515 1_554
B11 O33 1.399437 1_555
B11 O34 1.401200 1_655
