# generated using pymatgen
data_Li3Fe2(P2O7)2
_symmetry_space_group_name_H-M   'P 1'
_cell_length_a   9.83933100
_cell_length_b   9.84873856
_cell_length_c   11.15926781
_cell_angle_alpha   102.02070547
_cell_angle_beta   90.22298100
_cell_angle_gamma   89.95872430
_symmetry_Int_Tables_number   1
_chemical_formula_structural   Li3Fe2(P2O7)2
_chemical_formula_sum   'Li12 Fe8 P16 O56'
_cell_volume   1057.66855732
_cell_formula_units_Z   4
loop_
 _symmetry_equiv_pos_site_id
 _symmetry_equiv_pos_as_xyz
  1  'x, y, z'
loop_
 _atom_site_type_symbol
 _atom_site_label
 _atom_site_symmetry_multiplicity
 _atom_site_fract_x
 _atom_site_fract_y
 _atom_site_fract_z
 _atom_site_occupancy
  Li  Li0  1  0.28387800  0.87773700  0.54801800  1
  Li  Li1  1  0.89265100  0.91329700  0.97253800  1
  Li  Li2  1  0.60023200  0.85172900  0.95966900  1
  Li  Li3  1  0.38646100  0.58624400  0.03009000  1
  Li  Li4  1  0.78668100  0.62040700  0.44884300  1
  Li  Li5  1  0.21711700  0.39111800  0.54623000  1
  Li  Li6  1  0.92894400  0.33837100  0.46610200  1
  Li  Li7  1  0.60370200  0.41160200  0.97142400  1
  Li  Li8  1  0.90832700  0.35322900  0.95586300  1
  Li  Li9  1  0.10455200  0.08930600  0.02850900  1
  Li  Li10  1  0.43008900  0.15728000  0.53412600  1
  Li  Li11  1  0.72078700  0.10486200  0.45061500  1
  Fe  Fe0  1  0.07420300  0.78951600  0.32462300  1
  Fe  Fe1  1  0.79209000  0.74832400  0.17847200  1
  Fe  Fe2  1  0.28941400  0.75061500  0.82596400  1
  Fe  Fe3  1  0.57630100  0.70706100  0.66471200  1
  Fe  Fe4  1  0.42489500  0.29403000  0.31487200  1
  Fe  Fe5  1  0.71035800  0.24408900  0.17525900  1
  Fe  Fe6  1  0.21360100  0.25762500  0.83244900  1
  Fe  Fe7  1  0.92904100  0.20011500  0.67699200  1
  P  P0  1  0.54986300  0.97604300  0.24506200  1
  P  P1  1  0.28741900  0.88189500  0.11800900  1
  P  P2  1  0.07621900  0.94112300  0.76008900  1
  P  P3  1  0.85311700  0.87549100  0.57230300  1
  P  P4  1  0.35133700  0.62209600  0.42449000  1
  P  P5  1  0.57304500  0.56038200  0.24051900  1
  P  P6  1  0.94784200  0.47383400  0.24286300  1
  P  P7  1  0.79044800  0.62024000  0.88431400  1
  P  P8  1  0.20346700  0.38021400  0.11785900  1
  P  P9  1  0.04979900  0.52364100  0.75449400  1
  P  P10  1  0.42769400  0.44052700  0.75627700  1
  P  P11  1  0.64698800  0.37996200  0.57312000  1
  P  P12  1  0.15155700  0.11965000  0.42187100  1
  P  P13  1  0.92969800  0.06234700  0.24289800  1
  P  P14  1  0.70694300  0.12081800  0.88755400  1
  P  P15  1  0.44944900  0.02589600  0.75724000  1
  O  O0  1  0.58641900  0.97717100  0.37579500  1
  O  O1  1  0.15936100  0.96893300  0.43830200  1
  O  O2  1  0.91983000  0.91449900  0.27021600  1
  O  O3  1  0.40302900  0.90194000  0.22302100  1
  O  O4  1  0.64063800  0.89124200  0.14470700  1
  O  O5  1  0.17364200  0.81161200  0.17681500  1
  O  O6  1  0.34922200  0.77836500  0.00093000  1
  O  O7  1  0.72837100  0.97889400  0.91611000  1
  O  O8  1  0.93886400  0.87449900  0.69579200  1
  O  O9  1  0.06184500  0.93753500  0.89369600  1
  O  O10  1  0.46754800  0.87263200  0.78389800  1
  O  O11  1  0.71814900  0.80466100  0.59442900  1
  O  O12  1  0.19594600  0.84327800  0.70628600  1
  O  O13  1  0.92830800  0.78346300  0.46545900  1
  O  O14  1  0.42795700  0.71159900  0.53348400  1
  O  O15  1  0.68982200  0.65322600  0.30061600  1
  O  O16  1  0.21578400  0.69335600  0.40904000  1
  O  O17  1  0.96576500  0.62666100  0.22495100  1
  O  O18  1  0.43385300  0.62532600  0.30193000  1
  O  O19  1  0.55921500  0.56096100  0.10619600  1
  O  O20  1  0.23410100  0.51677400  0.08663900  1
  O  O21  1  0.83984300  0.72950400  0.99640100  1
  O  O22  1  0.66804200  0.68285000  0.82518100  1
  O  O23  1  0.90655700  0.60433000  0.78074500  1
  O  O24  1  0.41476400  0.59344000  0.73440400  1
  O  O25  1  0.15379600  0.61642400  0.83972500  1
  O  O26  1  0.65386200  0.53129100  0.55670400  1
  O  O27  1  0.90244800  0.46977600  0.37123600  1
  O  O28  1  0.07541400  0.50964400  0.62029800  1
  O  O29  1  0.33917400  0.46792000  0.43179900  1
  O  O30  1  0.86000100  0.38856400  0.14062300  1
  O  O31  1  0.58188100  0.41208300  0.26997900  1
  O  O32  1  0.09585900  0.40369700  0.23065700  1
  O  O33  1  0.32234100  0.31139500  0.17386300  1
  O  O34  1  0.13452200  0.27758800  0.00965400  1
  O  O35  1  0.76711200  0.48024800  0.91353300  1
  O  O36  1  0.42923200  0.43531900  0.89005600  1
  O  O37  1  0.57553200  0.38777500  0.70451100  1
  O  O38  1  0.03785900  0.38199400  0.79639100  1
  O  O39  1  0.78603400  0.31503800  0.58270200  1
  O  O40  1  0.32239100  0.34074800  0.68373800  1
  O  O41  1  0.55841200  0.28350700  0.47732500  1
  O  O42  1  0.06810400  0.21753200  0.51943800  1
  O  O43  1  0.82374300  0.16371300  0.31353400  1
  O  O44  1  0.29308800  0.18454600  0.41104700  1
  O  O45  1  0.53457200  0.12908400  0.22340100  1
  O  O46  1  0.92871700  0.06699200  0.10860800  1
  O  O47  1  0.07804800  0.11828300  0.29309900  1
  O  O48  1  0.25743100  0.01820200  0.08661300  1
  O  O49  1  0.64847400  0.22662000  0.99718800  1
  O  O50  1  0.83047100  0.18416900  0.83671400  1
  O  O51  1  0.35404400  0.11065700  0.84989800  1
  O  O52  1  0.59665700  0.09971000  0.77585700  1
  O  O53  1  0.09326600  0.08569800  0.73011200  1
  O  O54  1  0.83569900  0.02612900  0.56175000  1
  O  O55  1  0.41425800  0.01874200  0.62415300  1
loop_
_geom_bond_atom_site_label_1
_geom_bond_atom_site_label_2
_geom_bond_distance
_geom_bond_site_symmetry_2
Li0 O55 1.949032 1_565
Li0 O12 2.060345 1_555
Li0 O1 2.061928 1_555
Li0 O14 2.145048 1_555
Li0 O16 2.229871 1_555
Li1 O7 1.893854 1_555
Li1 O9 1.924041 1_655
Li1 O46 1.939610 1_566
Li1 O21 1.954653 1_555
Li2 O7 1.911823 1_555
Li2 O4 2.057278 1_556
Li2 O22 2.104845 1_555
Li2 O10 2.396254 1_555
Li3 O20 1.817245 1_555
Li3 O19 1.936181 1_555
Li3 O36 1.966015 1_554
Li3 O6 2.018640 1_555
Li4 O27 1.928325 1_555
Li4 O15 1.989669 1_555
Li4 O26 2.093055 1_555
Li4 O13 2.105315 1_555
Li4 O11 2.272864 1_555
Li5 O28 1.895928 1_555
Li5 O40 1.994405 1_555
Li5 O29 2.015109 1_555
Li5 O42 2.224665 1_555
Li5 O44 2.387837 1_555
Li6 O27 1.852457 1_555
Li6 O39 1.965282 1_555
Li6 O42 1.982875 1_655
Li6 O43 2.387057 1_555
Li6 O28 2.580387 1_655
Li7 O35 1.910802 1_555
Li7 O19 1.923544 1_556
Li7 O49 1.952397 1_555
Li7 O36 1.975252 1_555
Li8 O35 1.989273 1_555
Li8 O50 2.049098 1_555
Li8 O30 2.075257 1_556
Li8 O38 2.258261 1_655
Li8 O34 2.458069 1_656
Li9 O48 1.831267 1_555
Li9 O9 1.932212 1_544
Li9 O34 1.932251 1_555
Li9 O46 1.983660 1_455
Li10 O55 1.862174 1_555
Li10 O41 1.969307 1_555
Li10 O44 1.978466 1_555
Li10 O40 2.435112 1_555
Li11 O0 1.892890 1_545
Li11 O54 1.950925 1_555
Li11 O43 2.020996 1_555
Li11 O41 2.349078 1_555
Li11 O39 2.365003 1_555
Fe0 O5 1.971711 1_555
Fe0 O16 2.021003 1_555
Fe0 O17 2.048958 1_455
Fe0 O2 2.119518 1_455
Fe0 O1 2.119885 1_555
Fe0 O13 2.142652 1_455
Fe1 O21 2.057593 1_554
Fe1 O15 2.071570 1_555
Fe1 O4 2.134801 1_555
Fe1 O2 2.145094 1_555
Fe1 O17 2.207700 1_555
Fe2 O25 1.907750 1_555
Fe2 O12 1.989763 1_555
Fe2 O6 2.000559 1_556
Fe2 O24 2.075963 1_555
Fe2 O10 2.231795 1_555
Fe3 O11 1.952317 1_555
Fe3 O26 2.041578 1_555
Fe3 O22 2.059927 1_555
Fe3 O14 2.070620 1_555
Fe3 O10 2.162925 1_555
Fe3 O24 2.181278 1_555
Fe4 O33 1.903425 1_555
Fe4 O45 2.039822 1_555
Fe4 O31 2.059105 1_555
Fe4 O29 2.103003 1_555
Fe4 O44 2.119280 1_555
Fe4 O41 2.254456 1_555
Fe5 O49 2.048760 1_554
Fe5 O30 2.139737 1_555
Fe5 O31 2.175244 1_555
Fe5 O43 2.178618 1_555
Fe5 O45 2.196954 1_555
Fe6 O51 2.038381 1_555
Fe6 O34 2.098643 1_556
Fe6 O53 2.181771 1_555
Fe6 O38 2.202076 1_555
Fe6 O40 2.269566 1_555
Fe7 O50 2.066990 1_555
Fe7 O53 2.121410 1_655
Fe7 O54 2.123383 1_555
Fe7 O39 2.202356 1_555
Fe7 O38 2.264486 1_655
Fe7 O42 2.266614 1_655
O0 P0 1.499004 1_555
O1 P12 1.534917 1_565
O2 P13 1.551762 1_565
O3 P1 1.612381 1_555
O3 P0 1.613820 1_555
O4 P0 1.538359 1_555
O5 P1 1.535929 1_555
O6 P1 1.602134 1_555
O7 P14 1.511407 1_565
O8 P2 1.602964 1_655
O8 P3 1.614767 1_555
O9 P2 1.505920 1_555
O10 P15 1.607765 1_565
O11 P3 1.544925 1_555
O12 P2 1.561967 1_555
O13 P3 1.531728 1_555
O14 P4 1.540124 1_555
O15 P5 1.531725 1_555
O16 P4 1.532459 1_555
O17 P6 1.569239 1_555
O18 P4 1.599234 1_555
O18 P5 1.605583 1_555
O19 P5 1.505776 1_555
O20 P8 1.489187 1_555
O21 P7 1.547294 1_555
O22 P7 1.558355 1_555
O23 P7 1.612471 1_555
O23 P9 1.615053 1_655
O24 P10 1.579999 1_555
O25 P9 1.555140 1_555
O26 P11 1.540581 1_555
O27 P6 1.510675 1_555
O28 P9 1.497337 1_555
O29 P4 1.542257 1_555
O30 P6 1.532402 1_555
O31 P5 1.564756 1_555
O32 P6 1.605514 1_455
O32 P8 1.627182 1_555
O33 P8 1.545196 1_555
O34 P8 1.557583 1_555
O35 P7 1.499422 1_555
O36 P10 1.504412 1_555
O37 P10 1.612454 1_555
O37 P11 1.615864 1_555
O38 P9 1.565530 1_555
O39 P11 1.522538 1_555
O40 P10 1.535604 1_555
O41 P11 1.541331 1_555
O42 P12 1.535457 1_555
O43 P13 1.543362 1_555
O44 P12 1.548255 1_555
O45 P0 1.582418 1_545
O46 P13 1.508763 1_555
O47 P12 1.603793 1_555
O47 P13 1.616845 1_455
O48 P1 1.485437 1_545
O49 P14 1.545044 1_555
O50 P14 1.530469 1_555
O51 P15 1.514631 1_555
O52 P15 1.614269 1_555
O52 P14 1.629806 1_555
O53 P2 1.538395 1_545
O54 P3 1.522019 1_545
O55 P15 1.510955 1_555
