# generated using pymatgen
data_LiFe4(BO3)4
_symmetry_space_group_name_H-M   'P 1'
_cell_length_a   5.23888300
_cell_length_b   5.26686466
_cell_length_c   20.11006106
_cell_angle_alpha   90.48053589
_cell_angle_beta   90.06612216
_cell_angle_gamma   118.94263117
_symmetry_Int_Tables_number   1
_chemical_formula_structural   LiFe4(BO3)4
_chemical_formula_sum   'Li2 Fe8 B8 O24'
_cell_volume   485.55818801
_cell_formula_units_Z   2
loop_
 _symmetry_equiv_pos_site_id
 _symmetry_equiv_pos_as_xyz
  1  'x, y, z'
loop_
 _atom_site_type_symbol
 _atom_site_label
 _atom_site_symmetry_multiplicity
 _atom_site_fract_x
 _atom_site_fract_y
 _atom_site_fract_z
 _atom_site_occupancy
  Li  Li0  1  0.66485400  0.64246600  0.82864000  1
  Li  Li1  1  0.34471200  0.34554100  0.45008800  1
  Fe  Fe0  1  0.00545300  0.67548400  0.18925100  1
  Fe  Fe1  1  0.99881100  0.67242200  0.68986500  1
  Fe  Fe2  1  0.32821400  0.99703700  0.06506200  1
  Fe  Fe3  1  0.32473900  0.99398900  0.56426700  1
  Fe  Fe4  1  0.68331200  0.99692300  0.43846900  1
  Fe  Fe5  1  0.67827200  0.01880000  0.93852700  1
  Fe  Fe6  1  0.99432100  0.33184800  0.31508800  1
  Fe  Fe7  1  0.00588300  0.31424900  0.81187700  1
  B  B0  1  0.00050200  0.33959900  0.06417200  1
  B  B1  1  0.99763700  0.33784700  0.56315700  1
  B  B2  1  0.66620700  0.00691900  0.18865800  1
  B  B3  1  0.65863000  0.00350000  0.68817800  1
  B  B4  1  0.33964400  0.99962900  0.31414500  1
  B  B5  1  0.33628100  0.99477400  0.81395900  1
  B  B6  1  0.00162400  0.66492500  0.43991600  1
  B  B7  1  0.01051100  0.66946600  0.93752500  1
  O  O0  1  0.88055600  0.27385200  0.21435100  1
  O  O1  1  0.87993600  0.27172200  0.70985000  1
  O  O2  1  0.73325500  0.12353800  0.03795200  1
  O  O3  1  0.01229500  0.59679200  0.08767500  1
  O  O4  1  0.72656600  0.11614200  0.54342700  1
  O  O5  1  0.01970100  0.59836300  0.58700400  1
  O  O6  1  0.40612700  0.99112000  0.16473600  1
  O  O7  1  0.73759000  0.65261500  0.43976300  1
  O  O8  1  0.39460100  0.98506800  0.66638100  1
  O  O9  1  0.78621200  0.72653500  0.92660100  1
  O  O10  1  0.70825200  0.77324200  0.18669700  1
  O  O11  1  0.69426400  0.76395900  0.69065800  1
  O  O12  1  0.28538500  0.22524600  0.32162300  1
  O  O13  1  0.34996100  0.25815300  0.81511100  1
  O  O14  1  0.23482500  0.29681100  0.06607700  1
  O  O15  1  0.60436700  0.02435400  0.33449400  1
  O  O16  1  0.24020900  0.30499100  0.55518200  1
  O  O17  1  0.57515500  0.96587000  0.83724600  1
  O  O18  1  0.03237400  0.42673400  0.41711600  1
  O  O19  1  0.98357400  0.40495000  0.91728600  1
  O  O20  1  0.25600200  0.91274500  0.46272900  1
  O  O21  1  0.27284200  0.87825000  0.96600600  1
  O  O22  1  0.12777900  0.73315800  0.28725600  1
  O  O23  1  0.08621200  0.74296000  0.79090200  1
loop_
_geom_bond_atom_site_label_1
_geom_bond_atom_site_label_2
_geom_bond_distance
_geom_bond_site_symmetry_2
Li0 O13 1.910608 1_555
Li0 O17 1.980417 1_555
Li0 O9 2.047240 1_555
Li0 O23 2.146784 1_655
Li1 O7 1.918317 1_555
Li1 O18 1.994873 1_555
Li1 O20 2.112177 1_545
Li1 O16 2.170041 1_555
Fe0 O10 1.862298 1_455
Fe0 O0 1.958731 1_455
Fe0 O6 2.012843 1_555
Fe0 O22 2.045969 1_555
Fe0 O3 2.084713 1_555
Fe1 O11 1.876881 1_555
Fe1 O1 1.935462 1_555
Fe1 O8 1.986100 1_655
Fe1 O23 2.072844 1_655
Fe1 O5 2.114542 1_655
Fe2 O14 1.865407 1_565
Fe2 O2 1.970853 1_565
Fe2 O3 2.007695 1_555
Fe2 O6 2.048627 1_555
Fe2 O21 2.060540 1_554
Fe3 O16 1.902486 1_565
Fe3 O4 1.927907 1_565
Fe3 O5 1.974710 1_555
Fe3 O20 2.077687 1_555
Fe3 O8 2.090366 1_555
Fe4 O7 1.967207 1_555
Fe4 O20 2.119332 1_555
Fe4 O15 2.150552 1_565
Fe4 O18 2.159752 1_665
Fe4 O4 2.177080 1_565
Fe5 O9 1.892990 1_545
Fe5 O19 1.935136 1_555
Fe5 O21 1.962783 1_545
Fe5 O2 2.052176 1_556
Fe5 O17 2.088097 1_545
Fe6 O12 1.867372 1_655
Fe6 O15 1.938786 1_555
Fe6 O22 1.964698 1_655
Fe6 O0 2.088810 1_555
Fe6 O18 2.093983 1_655
Fe7 O13 1.963757 1_555
Fe7 O1 2.131060 1_455
Fe7 O23 2.133099 1_555
Fe7 O17 2.174837 1_445
Fe7 O19 2.184711 1_455
B0 O14 1.351676 1_555
B0 O3 1.403691 1_555
B0 O2 1.406910 1_455
B1 O16 1.372394 1_655
B1 O4 1.386940 1_555
B1 O5 1.400478 1_655
B2 O10 1.351443 1_545
B2 O0 1.401067 1_555
B2 O6 1.408162 1_545
B3 O11 1.363099 1_545
B3 O1 1.390361 1_555
B3 O8 1.408111 1_545
B4 O12 1.356277 1_565
B4 O15 1.389525 1_565
B4 O22 1.404371 1_555
B5 O13 1.353950 1_565
B5 O17 1.411665 1_555
B5 O23 1.413116 1_555
B6 O7 1.353056 1_455
B6 O20 1.412476 1_555
B6 O18 1.412844 1_555
B7 O9 1.364467 1_455
B7 O19 1.388007 1_455
B7 O21 1.396758 1_555
