# generated using pymatgen
data_Co(NiO2)2
_symmetry_space_group_name_H-M   'P 1'
_cell_length_a   5.87605700
_cell_length_b   5.04046000
_cell_length_c   10.59271718
_cell_angle_alpha   63.71585995
_cell_angle_beta   90.00000000
_cell_angle_gamma   90.00000000
_symmetry_Int_Tables_number   1
_chemical_formula_structural   Co(NiO2)2
_chemical_formula_sum   'Co4 Ni8 O16'
_cell_volume   281.29801252
_cell_formula_units_Z   4
loop_
 _symmetry_equiv_pos_site_id
 _symmetry_equiv_pos_as_xyz
  1  'x, y, z'
loop_
 _atom_site_type_symbol
 _atom_site_label
 _atom_site_symmetry_multiplicity
 _atom_site_fract_x
 _atom_site_fract_y
 _atom_site_fract_z
 _atom_site_occupancy
  Co  Co0  1  0.35728900  0.20550000  0.02852700  1
  Co  Co1  1  0.85728900  0.79450000  0.47147300  1
  Co  Co2  1  0.14271100  0.20550000  0.52852700  1
  Co  Co3  1  0.64271100  0.79450000  0.97147300  1
  Ni  Ni0  1  0.36973200  0.78199700  0.47041600  1
  Ni  Ni1  1  0.88020200  0.49215300  0.75179300  1
  Ni  Ni2  1  0.86973200  0.21800300  0.02958400  1
  Ni  Ni3  1  0.38020200  0.50784700  0.74820700  1
  Ni  Ni4  1  0.61979800  0.49215300  0.25179300  1
  Ni  Ni5  1  0.13026800  0.78199700  0.97041600  1
  Ni  Ni6  1  0.11979800  0.50784700  0.24820700  1
  Ni  Ni7  1  0.63026800  0.21800300  0.52958400  1
  O  O0  1  0.63287100  0.05081700  0.37540100  1
  O  O1  1  0.37810000  0.47666600  0.11307500  1
  O  O2  1  0.13268400  0.49754100  0.88726800  1
  O  O3  1  0.11077400  0.06271700  0.38473300  1
  O  O4  1  0.61077400  0.93728300  0.11526700  1
  O  O5  1  0.63268400  0.50245900  0.61273200  1
  O  O6  1  0.87810000  0.52333400  0.38692500  1
  O  O7  1  0.13287100  0.94918300  0.12459900  1
  O  O8  1  0.86712900  0.05081700  0.87540100  1
  O  O9  1  0.12190000  0.47666600  0.61307500  1
  O  O10  1  0.36731600  0.49754100  0.38726800  1
  O  O11  1  0.38922600  0.06271700  0.88473300  1
  O  O12  1  0.88922600  0.93728300  0.61526700  1
  O  O13  1  0.86731600  0.50245900  0.11273200  1
  O  O14  1  0.62190000  0.52333400  0.88692500  1
  O  O15  1  0.36712900  0.94918300  0.62459900  1
loop_
_geom_bond_atom_site_label_1
_geom_bond_atom_site_label_2
_geom_bond_distance
_geom_bond_site_symmetry_2
Co0 O7 1.810887 1_545
Co0 O1 1.941470 1_555
Co0 O4 1.946897 1_545
Co0 O11 1.960631 1_554
Co0 O2 2.048640 1_554
Co0 O14 2.259600 1_554
Co1 O0 1.810887 1_565
Co1 O6 1.941470 1_555
Co1 O3 1.946897 1_665
Co1 O12 1.960631 1_555
Co1 O5 2.048640 1_555
Co1 O9 2.259600 1_655
Co2 O15 1.810887 1_545
Co2 O9 1.941470 1_555
Co2 O12 1.946897 1_445
Co2 O3 1.960631 1_555
Co2 O10 2.048640 1_555
Co2 O6 2.259600 1_455
Co3 O8 1.810887 1_565
Co3 O14 1.941470 1_555
Co3 O11 1.946897 1_565
Co3 O4 1.960631 1_556
Co3 O13 2.048640 1_556
Co3 O1 2.259600 1_556
Ni0 O10 1.987490 1_555
Ni0 O3 2.000979 1_565
Ni0 O0 2.007970 1_565
Ni0 O15 2.143987 1_555
Ni0 O9 2.170974 1_555
Ni0 O5 2.182679 1_555
Ni1 O8 2.022187 1_555
Ni1 O5 2.054294 1_555
Ni1 O12 2.062661 1_555
Ni1 O9 2.069752 1_655
Ni1 O2 2.072603 1_655
Ni1 O14 2.139300 1_555
Ni2 O13 1.987490 1_555
Ni2 O4 2.000979 1_545
Ni2 O7 2.007970 1_645
Ni2 O8 2.143987 1_554
Ni2 O14 2.170974 1_554
Ni2 O2 2.182679 1_654
Ni3 O15 2.022187 1_555
Ni3 O2 2.054294 1_555
Ni3 O11 2.062661 1_555
Ni3 O14 2.069752 1_555
Ni3 O5 2.072603 1_555
Ni3 O9 2.139300 1_555
Ni4 O0 2.022187 1_555
Ni4 O13 2.054294 1_555
Ni4 O4 2.062661 1_555
Ni4 O1 2.069752 1_555
Ni4 O10 2.072603 1_555
Ni4 O6 2.139300 1_555
Ni5 O2 1.987490 1_555
Ni5 O11 2.000979 1_565
Ni5 O8 2.007970 1_465
Ni5 O7 2.143987 1_556
Ni5 O1 2.170974 1_556
Ni5 O13 2.182679 1_456
Ni6 O7 2.022187 1_555
Ni6 O10 2.054294 1_555
Ni6 O3 2.062661 1_555
Ni6 O6 2.069752 1_455
Ni6 O13 2.072603 1_455
Ni6 O1 2.139300 1_555
Ni7 O5 1.987490 1_555
Ni7 O12 2.000979 1_545
Ni7 O15 2.007970 1_545
Ni7 O0 2.143987 1_555
Ni7 O6 2.170974 1_555
Ni7 O10 2.182679 1_555
