# generated using pymatgen
data_La2Nb2N2O5
_symmetry_space_group_name_H-M   'P 1'
_cell_length_a   5.73433700
_cell_length_b   8.02207207
_cell_length_c   13.77037529
_cell_angle_alpha   98.40043305
_cell_angle_beta   90.47133243
_cell_angle_gamma   90.04116803
_symmetry_Int_Tables_number   1
_chemical_formula_structural   La2Nb2N2O5
_chemical_formula_sum   'La8 Nb8 N8 O20'
_cell_volume   626.63610407
_cell_formula_units_Z   4
loop_
 _symmetry_equiv_pos_site_id
 _symmetry_equiv_pos_as_xyz
  1  'x, y, z'
loop_
 _atom_site_type_symbol
 _atom_site_label
 _atom_site_symmetry_multiplicity
 _atom_site_fract_x
 _atom_site_fract_y
 _atom_site_fract_z
 _atom_site_occupancy
  La  La0  1  0.34468000  0.13302400  0.56877300  1
  La  La1  1  0.76309100  0.21564200  0.91178200  1
  La  La2  1  0.25095300  0.27380200  0.12299100  1
  La  La3  1  0.77276900  0.34085400  0.38330100  1
  La  La4  1  0.28318200  0.66523400  0.60796800  1
  La  La5  1  0.75037200  0.73222300  0.88308100  1
  La  La6  1  0.26421100  0.78043100  0.09500600  1
  La  La7  1  0.83366300  0.86221000  0.43019800  1
  Nb  Nb0  1  0.29439400  0.07040800  0.32186300  1
  Nb  Nb1  1  0.74207600  0.02305100  0.11729800  1
  Nb  Nb2  1  0.79169900  0.41396800  0.67552500  1
  Nb  Nb3  1  0.26361500  0.47254700  0.88249100  1
  Nb  Nb4  1  0.76746000  0.53609800  0.11838000  1
  Nb  Nb5  1  0.28199500  0.59768600  0.32457500  1
  Nb  Nb6  1  0.25887400  0.96922100  0.88311500  1
  Nb  Nb7  1  0.79474400  0.92505500  0.67568000  1
  N  N0  1  0.54994000  0.08734400  0.40986100  1
  N  N1  1  0.45039300  0.02603900  0.18488800  1
  N  N2  1  0.53405400  0.96199000  0.98159800  1
  N  N3  1  0.56117000  0.87043900  0.57340900  1
  N  N4  1  0.81724700  0.77089400  0.10589300  1
  N  N5  1  0.19405100  0.82196900  0.30343700  1
  N  N6  1  0.94395300  0.97469600  0.82119400  1
  N  N7  1  0.05047100  0.91691900  0.59044500  1
  O  O0  1  0.68659500  0.18201500  0.69717200  1
  O  O1  1  0.31991900  0.22771500  0.88729900  1
  O  O2  1  0.05892300  0.13461500  0.42796400  1
  O  O3  1  0.04394300  0.04842600  0.01896400  1
  O  O4  1  0.95578400  0.12524400  0.22261900  1
  O  O5  1  0.07404200  0.37375400  0.61381300  1
  O  O6  1  0.94455900  0.43121100  0.82042300  1
  O  O7  1  0.67206700  0.27543700  0.08489500  1
  O  O8  1  0.34864400  0.32825000  0.30211800  1
  O  O9  1  0.58606000  0.41266300  0.56348900  1
  O  O10  1  0.52257400  0.53356500  0.97897700  1
  O  O11  1  0.45335300  0.50052500  0.77476400  1
  O  O12  1  0.96081200  0.49882100  0.22725100  1
  O  O13  1  0.02964100  0.45962200  0.01907000  1
  O  O14  1  0.08274500  0.58559400  0.43789500  1
  O  O15  1  0.84461400  0.66557100  0.69681000  1
  O  O16  1  0.17065600  0.72180300  0.91271700  1
  O  O17  1  0.44501600  0.56243800  0.17809600  1
  O  O18  1  0.57770500  0.61901500  0.38652000  1
  O  O19  1  0.44827100  0.87197700  0.77638800  1
loop_
_geom_bond_atom_site_label_1
_geom_bond_atom_site_label_2
_geom_bond_distance
_geom_bond_site_symmetry_2
La0 N3 2.454425 1_545
La0 N7 2.469007 1_545
La0 N0 2.473245 1_555
La0 O5 2.488513 1_555
La0 O2 2.529810 1_555
La0 O0 2.619855 1_555
La0 O9 2.645447 1_555
La1 N6 2.384834 1_545
La1 O7 2.423204 1_556
La1 O6 2.512101 1_555
La1 O1 2.564573 1_555
La1 O3 2.667203 1_656
La1 N2 2.716287 1_545
La1 O13 2.731919 1_656
La1 O10 2.932486 1_555
La1 O0 2.957080 1_555
La2 O3 2.437656 1_555
La2 O7 2.475780 1_555
La2 O8 2.500212 1_555
La2 N1 2.543049 1_555
La2 O13 2.544915 1_555
La2 O17 2.577706 1_555
La2 O4 2.584628 1_455
La2 O12 2.715548 1_455
La3 O2 2.468335 1_655
La3 N0 2.474590 1_555
La3 O18 2.491570 1_555
La3 O8 2.663991 1_555
La3 O14 2.668535 1_655
La3 O9 2.694761 1_555
La3 O4 2.812734 1_555
La3 O12 2.866708 1_555
La4 N3 2.390613 1_555
La4 N7 2.460973 1_555
La4 O14 2.594519 1_555
La4 O5 2.639095 1_555
La4 O9 2.675230 1_555
La4 O19 2.804163 1_555
La4 O15 2.805540 1_455
La4 O11 2.970735 1_555
La5 O16 2.444575 1_655
La5 N2 2.465133 1_555
La5 N6 2.497767 1_555
La5 O10 2.574900 1_555
La5 O15 2.603800 1_555
La5 O19 2.618907 1_555
La5 O6 2.688179 1_555
La5 O11 2.779220 1_555
La5 N4 3.059337 1_556
La6 N1 2.411741 1_565
La6 O17 2.451521 1_555
La6 O16 2.538225 1_554
La6 N4 2.570390 1_455
La6 N2 2.766875 1_554
La6 O10 2.790762 1_554
La6 O3 2.820237 1_565
La6 N5 2.872375 1_555
La6 O13 2.951525 1_555
La6 N4 3.175109 1_555
La7 O18 2.441450 1_555
La7 N0 2.476232 1_565
La7 N7 2.505744 1_655
La7 N3 2.519492 1_555
La7 O2 2.541859 1_665
La7 O14 2.654473 1_655
La7 N5 2.705104 1_655
Nb0 O2 2.009173 1_555
Nb0 O8 2.147995 1_555
Nb0 O4 2.442256 1_455
Nb1 O4 1.974634 1_555
Nb1 O7 2.172944 1_555
Nb1 O3 2.233829 1_655
Nb2 O5 1.841422 1_655
Nb2 O9 1.932906 1_555
Nb2 O15 2.019067 1_555
Nb2 O0 2.019376 1_555
Nb2 O6 2.158496 1_555
Nb2 O11 2.425340 1_555
Nb3 O11 1.886332 1_555
Nb3 O10 1.996617 1_555
Nb3 O1 2.001177 1_555
Nb3 O6 2.019506 1_455
Nb3 O16 2.053680 1_555
Nb3 O13 2.333744 1_556
Nb4 O12 1.915840 1_555
Nb4 O17 2.028414 1_555
Nb4 O13 2.072888 1_655
Nb4 O7 2.144011 1_555
Nb4 O10 2.366760 1_554
Nb5 O18 1.888237 1_555
Nb5 O14 1.955326 1_555
Nb5 O8 2.172863 1_555
Nb5 O17 2.210694 1_555
Nb5 O12 2.337513 1_455
Nb6 O19 1.908015 1_555
Nb6 O1 2.095144 1_565
Nb6 O16 2.144729 1_555
Nb6 O3 2.261415 1_566
Nb7 O0 2.132597 1_565
Nb7 O15 2.162395 1_555
Nb7 O19 2.503691 1_555
N0 Nb0 1.885892 1_555
N1 Nb1 1.919276 1_555
N1 Nb0 2.077669 1_555
N2 Nb6 2.078561 1_555
N2 Nb1 2.202211 1_566
N3 Nb7 1.938326 1_555
N4 Nb4 1.937396 1_555
N4 Nb1 2.052273 1_565
N5 Nb5 1.930835 1_555
N5 Nb0 2.053216 1_565
N6 Nb6 1.993953 1_655
N6 Nb7 2.154985 1_555
N7 Nb7 1.881050 1_455
