# generated using pymatgen
data_LiNi(PO3)4
_symmetry_space_group_name_H-M   'P 1'
_cell_length_a   9.09041700
_cell_length_b   7.54325300
_cell_length_c   15.52554524
_cell_angle_alpha   66.14935353
_cell_angle_beta   90.00000000
_cell_angle_gamma   90.00000000
_symmetry_Int_Tables_number   1
_chemical_formula_structural   LiNi(PO3)4
_chemical_formula_sum   'Li4 Ni4 P16 O48'
_cell_volume   973.69238024
_cell_formula_units_Z   4
loop_
 _symmetry_equiv_pos_site_id
 _symmetry_equiv_pos_as_xyz
  1  'x, y, z'
loop_
 _atom_site_type_symbol
 _atom_site_label
 _atom_site_symmetry_multiplicity
 _atom_site_fract_x
 _atom_site_fract_y
 _atom_site_fract_z
 _atom_site_occupancy
  Li  Li0  1  0.57903800  0.89894600  0.08108000  1
  Li  Li1  1  0.07903800  0.10105400  0.41892000  1
  Li  Li2  1  0.92096200  0.89894600  0.58108000  1
  Li  Li3  1  0.42096200  0.10105400  0.91892000  1
  Ni  Ni0  1  0.63675000  0.35090100  0.64683800  1
  Ni  Ni1  1  0.86325000  0.35090100  0.14683800  1
  Ni  Ni2  1  0.13675000  0.64909900  0.85316200  1
  Ni  Ni3  1  0.36325000  0.64909900  0.35316200  1
  P  P0  1  0.28729300  0.36833800  0.57217700  1
  P  P1  1  0.05421400  0.65692500  0.22264800  1
  P  P2  1  0.23508500  0.77207400  0.04645000  1
  P  P3  1  0.06303800  0.07421300  0.69653700  1
  P  P4  1  0.73508500  0.22792600  0.45355000  1
  P  P5  1  0.55421400  0.34307500  0.27735200  1
  P  P6  1  0.56303800  0.92578700  0.80346300  1
  P  P7  1  0.21270700  0.36833800  0.07217700  1
  P  P8  1  0.78729300  0.63166200  0.92782300  1
  P  P9  1  0.43696200  0.07421300  0.19653700  1
  P  P10  1  0.44578600  0.65692500  0.72264800  1
  P  P11  1  0.26491500  0.77207400  0.54645000  1
  P  P12  1  0.93696200  0.92578700  0.30346300  1
  P  P13  1  0.76491500  0.22792600  0.95355000  1
  P  P14  1  0.94578600  0.34307500  0.77735200  1
  P  P15  1  0.71270700  0.63166200  0.42782300  1
  O  O0  1  0.37281100  0.88665200  0.04193200  1
  O  O1  1  0.12689700  0.79818500  0.12270700  1
  O  O2  1  0.05482300  0.18606800  0.76431100  1
  O  O3  1  0.30113800  0.42709500  0.46785400  1
  O  O4  1  0.16274100  0.58037800  0.30148300  1
  O  O5  1  0.77803300  0.45698700  0.40404800  1
  O  O6  1  0.42332500  0.28254400  0.62840900  1
  O  O7  1  0.45819000  0.49030200  0.29087900  1
  O  O8  1  0.15324200  0.21997300  0.60580000  1
  O  O9  1  0.65579600  0.10412400  0.75566300  1
  O  O10  1  0.95819000  0.50969800  0.20912100  1
  O  O11  1  0.91743400  0.03966000  0.66146200  1
  O  O12  1  0.65473400  0.18366500  0.54450700  1
  O  O13  1  0.27803300  0.54301300  0.09595200  1
  O  O14  1  0.66274100  0.41962200  0.19851700  1
  O  O15  1  0.80113800  0.57290500  0.03214600  1
  O  O16  1  0.15473400  0.81633500  0.95549300  1
  O  O17  1  0.41743400  0.96034000  0.83853800  1
  O  O18  1  0.62689700  0.20181500  0.37729300  1
  O  O19  1  0.15579600  0.89587600  0.74433700  1
  O  O20  1  0.87281100  0.11334800  0.45806800  1
  O  O21  1  0.65324200  0.78002700  0.89420000  1
  O  O22  1  0.44517700  0.18606800  0.26431100  1
  O  O23  1  0.92332500  0.71745600  0.87159100  1
  O  O24  1  0.07667500  0.28254400  0.12840900  1
  O  O25  1  0.55482300  0.81393200  0.73568900  1
  O  O26  1  0.34675800  0.21997300  0.10580000  1
  O  O27  1  0.12718900  0.88665200  0.54193200  1
  O  O28  1  0.84420400  0.10412400  0.25566300  1
  O  O29  1  0.37310300  0.79818500  0.62270700  1
  O  O30  1  0.58256600  0.03966000  0.16146200  1
  O  O31  1  0.84526600  0.18366500  0.04450700  1
  O  O32  1  0.19886200  0.42709500  0.96785400  1
  O  O33  1  0.33725900  0.58037800  0.80148300  1
  O  O34  1  0.72196700  0.45698700  0.90404800  1
  O  O35  1  0.34526600  0.81633500  0.45549300  1
  O  O36  1  0.08256600  0.96034000  0.33853800  1
  O  O37  1  0.04181000  0.49030200  0.79087900  1
  O  O38  1  0.34420400  0.89587600  0.24433700  1
  O  O39  1  0.84675800  0.78002700  0.39420000  1
  O  O40  1  0.54181000  0.50969800  0.70912100  1
  O  O41  1  0.57667500  0.71745600  0.37159100  1
  O  O42  1  0.22196700  0.54301300  0.59595200  1
  O  O43  1  0.83725900  0.41962200  0.69851700  1
  O  O44  1  0.69886200  0.57290500  0.53214600  1
  O  O45  1  0.94517700  0.81393200  0.23568900  1
  O  O46  1  0.87310300  0.20181500  0.87729300  1
  O  O47  1  0.62718900  0.11334800  0.95806800  1
loop_
_geom_bond_atom_site_label_1
_geom_bond_atom_site_label_2
_geom_bond_distance
_geom_bond_site_symmetry_2
Li0 O30 1.938139 1_565
Li0 O0 1.984454 1_555
Li0 O47 1.989163 1_564
Li1 O36 1.938139 1_545
Li1 O20 1.984454 1_455
Li1 O27 1.989163 1_545
Li2 O11 1.938139 1_565
Li2 O27 1.984454 1_655
Li2 O20 1.989163 1_565
Li3 O17 1.938139 1_545
Li3 O47 1.984454 1_555
Li3 O0 1.989163 1_546
Ni0 O9 1.950976 1_555
Ni0 O44 1.970383 1_555
Ni0 O40 2.012820 1_555
Ni0 O6 2.056971 1_555
Ni0 O43 2.138014 1_555
Ni0 O12 2.400634 1_555
Ni1 O28 1.950976 1_555
Ni1 O15 1.970383 1_555
Ni1 O10 2.012820 1_555
Ni1 O24 2.056971 1_655
Ni1 O14 2.138014 1_555
Ni1 O31 2.400634 1_555
Ni2 O19 1.950976 1_555
Ni2 O32 1.970383 1_555
Ni2 O37 2.012820 1_555
Ni2 O23 2.056971 1_455
Ni2 O33 2.138014 1_555
Ni2 O16 2.400634 1_555
Ni3 O38 1.950976 1_555
Ni3 O3 1.970383 1_555
Ni3 O7 2.012820 1_555
Ni3 O41 2.056971 1_555
Ni3 O4 2.138014 1_555
Ni3 O35 2.400634 1_555
O0 P2 1.506772 1_555
O1 P2 1.611301 1_555
O1 P1 1.625565 1_555
O2 P3 1.594573 1_555
O2 P14 1.618656 1_455
O3 P0 1.501690 1_555
O4 P1 1.494400 1_555
O5 P15 1.618127 1_555
O5 P4 1.629321 1_555
O6 P0 1.501080 1_555
O7 P5 1.492663 1_555
O8 P0 1.592948 1_555
O8 P3 1.616548 1_555
O9 P6 1.504679 1_545
O10 P1 1.492663 1_655
O11 P3 1.493714 1_655
O12 P4 1.502627 1_555
O13 P7 1.618127 1_555
O13 P2 1.629321 1_555
O14 P5 1.494400 1_555
O15 P8 1.501690 1_554
O16 P2 1.502627 1_556
O17 P6 1.493714 1_555
O18 P4 1.611301 1_555
O18 P5 1.625565 1_555
O19 P3 1.504679 1_565
O20 P4 1.506772 1_555
O21 P8 1.592948 1_555
O21 P6 1.616548 1_555
O22 P9 1.594573 1_555
O22 P5 1.618656 1_555
O23 P8 1.501080 1_555
O24 P7 1.501080 1_555
O25 P6 1.594573 1_555
O25 P10 1.618656 1_555
O26 P7 1.592948 1_555
O26 P9 1.616548 1_555
O27 P11 1.506772 1_555
O28 P12 1.504679 1_545
O29 P11 1.611301 1_555
O29 P10 1.625565 1_555
O30 P9 1.493714 1_555
O31 P13 1.502627 1_554
O32 P7 1.501690 1_556
O33 P10 1.494400 1_555
O34 P8 1.618127 1_555
O34 P13 1.629321 1_555
O35 P11 1.502627 1_555
O36 P12 1.493714 1_455
O37 P14 1.492663 1_455
O38 P9 1.504679 1_565
O39 P15 1.592948 1_555
O39 P12 1.616548 1_555
O40 P10 1.492663 1_555
O41 P15 1.501080 1_555
O42 P0 1.618127 1_555
O42 P11 1.629321 1_555
O43 P14 1.494400 1_555
O44 P15 1.501690 1_555
O45 P12 1.594573 1_555
O45 P1 1.618656 1_655
O46 P13 1.611301 1_555
O46 P14 1.625565 1_555
O47 P13 1.506772 1_555
