# generated using pymatgen
data_FeS2
_symmetry_space_group_name_H-M   'P 1'
_cell_length_a   5.67364300
_cell_length_b   5.75574000
_cell_length_c   6.41914264
_cell_angle_alpha   87.82262389
_cell_angle_beta   90.00000000
_cell_angle_gamma   90.00000000
_symmetry_Int_Tables_number   1
_chemical_formula_structural   FeS2
_chemical_formula_sum   'Fe4 S8'
_cell_volume   209.47226280
_cell_formula_units_Z   4
loop_
 _symmetry_equiv_pos_site_id
 _symmetry_equiv_pos_as_xyz
  1  'x, y, z'
loop_
 _atom_site_type_symbol
 _atom_site_label
 _atom_site_symmetry_multiplicity
 _atom_site_fract_x
 _atom_site_fract_y
 _atom_site_fract_z
 _atom_site_occupancy
  Fe  Fe0  1  0.24931300  0.01035600  0.39227100  1
  Fe  Fe1  1  0.75068700  0.51035600  0.39227100  1
  Fe  Fe2  1  0.24931300  0.48964400  0.60772900  1
  Fe  Fe3  1  0.75068700  0.98964400  0.60772900  1
  S  S0  1  0.88704300  0.35308400  0.72716300  1
  S  S1  1  0.61078800  0.87926900  0.27180200  1
  S  S2  1  0.11295700  0.85308400  0.72716300  1
  S  S3  1  0.38921200  0.37926900  0.27180200  1
  S  S4  1  0.11295700  0.64691600  0.27283700  1
  S  S5  1  0.88704300  0.14691600  0.27283700  1
  S  S6  1  0.61078800  0.62073100  0.72819800  1
  S  S7  1  0.38921200  0.12073100  0.72819800  1
loop_
_geom_bond_atom_site_label_1
_geom_bond_atom_site_label_2
_geom_bond_distance
_geom_bond_site_symmetry_2
Fe0 S5 2.320435 1_455
Fe0 S1 2.327600 1_545
Fe0 S3 2.368954 1_555
Fe0 S4 2.384125 1_545
Fe0 S7 2.405745 1_555
Fe0 S2 2.427212 1_545
Fe1 S4 2.320435 1_655
Fe1 S3 2.327600 1_555
Fe1 S1 2.368954 1_555
Fe1 S5 2.384125 1_555
Fe1 S6 2.405745 1_555
Fe1 S0 2.427212 1_555
Fe2 S0 2.320435 1_455
Fe2 S6 2.327600 1_555
Fe2 S7 2.368954 1_555
Fe2 S2 2.384125 1_555
Fe2 S3 2.405745 1_555
Fe2 S4 2.427212 1_555
Fe3 S2 2.320435 1_655
Fe3 S7 2.327600 1_565
Fe3 S6 2.368954 1_555
Fe3 S0 2.384125 1_565
Fe3 S1 2.405745 1_555
Fe3 S5 2.427212 1_565
S0 S6 2.197871 1_555
S1 S5 2.197871 1_565
S2 S7 2.197871 1_565
S3 S4 2.197871 1_555
