# generated using pymatgen
data_Yb2CdSn
_symmetry_space_group_name_H-M   'P 1'
_cell_length_a   5.37921160
_cell_length_b   5.37921160
_cell_length_c   5.37921160
_cell_angle_alpha   60.00000000
_cell_angle_beta   60.00000000
_cell_angle_gamma   60.00000000
_symmetry_Int_Tables_number   1
_chemical_formula_structural   Yb2CdSn
_chemical_formula_sum   'Yb2 Cd1 Sn1'
_cell_volume   110.06288364
_cell_formula_units_Z   1
loop_
 _symmetry_equiv_pos_site_id
 _symmetry_equiv_pos_as_xyz
  1  'x, y, z'
loop_
 _atom_site_type_symbol
 _atom_site_label
 _atom_site_symmetry_multiplicity
 _atom_site_fract_x
 _atom_site_fract_y
 _atom_site_fract_z
 _atom_site_occupancy
  Yb  Yb0  1  0.25000000  0.25000000  0.25000000  1
  Yb  Yb1  1  0.75000000  0.75000000  0.75000000  1
  Cd  Cd0  1  0.50000000  0.50000000  0.50000000  1
  Sn  Sn0  1  0.00000000  0.00000000  0.00000000  1
loop_
_geom_bond_atom_site_label_1
_geom_bond_atom_site_label_2
_geom_bond_distance
_geom_bond_site_symmetry_2
Cd0 Yb1 3.294081 1_455
Cd0 Yb0 3.294081 1_655
Cd0 Yb0 3.294081 1_555
Cd0 Yb0 3.294081 1_556
Cd0 Yb1 3.294081 1_545
Cd0 Yb1 3.294081 1_555
Cd0 Yb1 3.294081 1_554
Cd0 Yb0 3.294081 1_565
Sn0 Yb0 3.294081 1_455
Sn0 Yb1 3.294081 1_544
Sn0 Yb0 3.294081 1_545
Sn0 Yb0 3.294081 1_555
Sn0 Yb1 3.294081 1_454
Sn0 Yb0 3.294081 1_554
Sn0 Yb1 3.294081 1_444
Sn0 Yb1 3.294081 1_445
