# generated using pymatgen
data_GaNi3
_symmetry_space_group_name_H-M   'P 1'
_cell_length_a   3.53653239
_cell_length_b   3.53654747
_cell_length_c   3.53653541
_cell_angle_alpha   90.00000000
_cell_angle_beta   90.00000000
_cell_angle_gamma   90.00000000
_symmetry_Int_Tables_number   1
_chemical_formula_structural   GaNi3
_chemical_formula_sum   'Ga1 Ni3'
_cell_volume   44.23185393
_cell_formula_units_Z   1
loop_
 _symmetry_equiv_pos_site_id
 _symmetry_equiv_pos_as_xyz
  1  'x, y, z'
loop_
 _atom_site_type_symbol
 _atom_site_label
 _atom_site_symmetry_multiplicity
 _atom_site_fract_x
 _atom_site_fract_y
 _atom_site_fract_z
 _atom_site_occupancy
  Ga  Ga0  1  0.00000000  0.00000000  0.00000000  1
  Ni  Ni0  1  0.50000000  0.00000000  0.50000000  1
  Ni  Ni1  1  -0.00000000  0.50000000  0.50000000  1
  Ni  Ni2  1  0.50000000  0.50000000  -0.00000000  1
loop_
_geom_bond_atom_site_label_1
_geom_bond_atom_site_label_2
_geom_bond_distance
_geom_bond_site_symmetry_2
Ga0 Ni0 2.500707 1_454
Ga0 Ni0 2.500707 1_555
Ga0 Ni0 2.500707 1_455
Ga0 Ni0 2.500707 1_554
Ga0 Ni2 2.500711 1_455
Ga0 Ni2 2.500711 1_545
Ga0 Ni2 2.500711 1_555
Ga0 Ni2 2.500711 1_445
Ga0 Ni1 2.500712 1_545
Ga0 Ni1 2.500712 1_554
Ga0 Ni1 2.500712 1_544
Ga0 Ni1 2.500712 1_555
Ni0 Ni1 2.500711 1_555
Ni0 Ni1 2.500711 1_545
Ni0 Ni1 2.500711 1_655
Ni0 Ni1 2.500711 1_645
Ni0 Ni2 2.500712 1_545
Ni0 Ni2 2.500712 1_546
Ni0 Ni2 2.500712 1_556
Ni0 Ni2 2.500712 1_555
Ni1 Ni2 2.500707 1_456
Ni1 Ni2 2.500707 1_556
Ni1 Ni2 2.500707 1_455
Ni1 Ni2 2.500707 1_555
