# generated using pymatgen
data_Yb(ErS2)2
_symmetry_space_group_name_H-M   'P 1'
_cell_length_a   3.86007000
_cell_length_b   12.88656100
_cell_length_c   13.04410900
_cell_angle_alpha   90.00000000
_cell_angle_beta   90.00000000
_cell_angle_gamma   90.00000000
_symmetry_Int_Tables_number   1
_chemical_formula_structural   Yb(ErS2)2
_chemical_formula_sum   'Yb4 Er8 S16'
_cell_volume   648.85347295
_cell_formula_units_Z   4
loop_
 _symmetry_equiv_pos_site_id
 _symmetry_equiv_pos_as_xyz
  1  'x, y, z'
loop_
 _atom_site_type_symbol
 _atom_site_label
 _atom_site_symmetry_multiplicity
 _atom_site_fract_x
 _atom_site_fract_y
 _atom_site_fract_z
 _atom_site_occupancy
  Yb  Yb0  1  0.75000000  0.86952000  0.41722100  1
  Yb  Yb1  1  0.25000000  0.63048000  0.91722100  1
  Yb  Yb2  1  0.75000000  0.36952000  0.08277900  1
  Yb  Yb3  1  0.25000000  0.13048000  0.58277900  1
  Er  Er0  1  0.75000000  0.60757600  0.58371500  1
  Er  Er1  1  0.25000000  0.89242400  0.08371500  1
  Er  Er2  1  0.75000000  0.10757600  0.91628500  1
  Er  Er3  1  0.25000000  0.39242400  0.41628500  1
  Er  Er4  1  0.75000000  0.64674000  0.20218800  1
  Er  Er5  1  0.25000000  0.85326000  0.70218800  1
  Er  Er6  1  0.75000000  0.14674000  0.29781200  1
  Er  Er7  1  0.25000000  0.35326000  0.79781200  1
  S  S0  1  0.75000000  0.97065100  0.61673000  1
  S  S1  1  0.25000000  0.52934900  0.11673000  1
  S  S2  1  0.75000000  0.47065100  0.88327000  1
  S  S3  1  0.25000000  0.02934900  0.38327000  1
  S  S4  1  0.75000000  0.71692300  0.76401100  1
  S  S5  1  0.25000000  0.78307700  0.26401100  1
  S  S6  1  0.75000000  0.21692300  0.73598900  1
  S  S7  1  0.25000000  0.28307700  0.23598900  1
  S  S8  1  0.75000000  0.53414000  0.38224300  1
  S  S9  1  0.25000000  0.96586000  0.88224300  1
  S  S10  1  0.75000000  0.03414000  0.11775700  1
  S  S11  1  0.25000000  0.46586000  0.61775700  1
  S  S12  1  0.75000000  0.75655400  0.02468000  1
  S  S13  1  0.25000000  0.74344600  0.52468000  1
  S  S14  1  0.75000000  0.25655400  0.47532000  1
  S  S15  1  0.25000000  0.24344600  0.97532000  1
loop_
_geom_bond_atom_site_label_1
_geom_bond_atom_site_label_2
_geom_bond_distance
_geom_bond_site_symmetry_2
Er0 S11 2.693944 1_555
Er0 S11 2.693944 1_655
Er0 S13 2.717290 1_555
Er0 S13 2.717290 1_655
Er0 S4 2.741632 1_555
Er0 S8 2.793216 1_555
Er1 S10 2.693944 1_565
Er1 S10 2.693944 1_465
Er1 S12 2.717290 1_455
Er1 S12 2.717290 1_555
Er1 S5 2.741632 1_555
Er1 S9 2.793216 1_554
Er2 S9 2.693944 1_645
Er2 S9 2.693944 1_545
Er2 S15 2.717290 1_555
Er2 S15 2.717290 1_655
Er2 S6 2.741632 1_555
Er2 S10 2.793216 1_556
Er3 S8 2.693944 1_555
Er3 S8 2.693944 1_455
Er3 S14 2.717290 1_455
Er3 S14 2.717290 1_555
Er3 S7 2.741632 1_555
Er3 S11 2.793216 1_555
Er4 S1 2.693716 1_555
Er4 S1 2.693716 1_655
Er4 S12 2.713634 1_555
Er4 S5 2.731686 1_655
Er4 S5 2.731686 1_555
Er4 S8 2.760737 1_555
Er5 S0 2.693716 1_555
Er5 S0 2.693716 1_455
Er5 S13 2.713634 1_555
Er5 S4 2.731686 1_555
Er5 S4 2.731686 1_455
Er5 S9 2.760737 1_555
Er6 S3 2.693716 1_555
Er6 S3 2.693716 1_655
Er6 S14 2.713634 1_555
Er6 S7 2.731686 1_555
Er6 S7 2.731686 1_655
Er6 S10 2.760737 1_555
Er7 S2 2.693716 1_455
Er7 S2 2.693716 1_555
Er7 S15 2.713634 1_555
Er7 S6 2.731686 1_455
Er7 S6 2.731686 1_555
Er7 S11 2.760737 1_555
S0 Yb3 2.857149 1_565
S0 Yb3 2.857149 1_665
S0 Yb0 2.910496 1_555
S1 Yb2 2.857149 1_555
S1 Yb2 2.857149 1_455
S1 Yb1 2.910496 1_554
S2 Yb1 2.857149 1_555
S2 Yb1 2.857149 1_655
S2 Yb2 2.910496 1_556
S3 Yb0 2.857149 1_545
S3 Yb0 2.857149 1_445
S3 Yb3 2.910496 1_555
S4 Yb1 2.993306 1_655
S4 Yb1 2.993306 1_555
S5 Yb0 2.993306 1_455
S5 Yb0 2.993306 1_555
S6 Yb3 2.993306 1_555
S6 Yb3 2.993306 1_655
S7 Yb2 2.993306 1_455
S7 Yb2 2.993306 1_555
S12 Yb1 2.886059 1_654
S12 Yb1 2.886059 1_554
S13 Yb0 2.886059 1_455
S13 Yb0 2.886059 1_555
S14 Yb3 2.886059 1_555
S14 Yb3 2.886059 1_655
S15 Yb2 2.886059 1_456
S15 Yb2 2.886059 1_556
