# generated using pymatgen
data_Li2Fe4OF8
_symmetry_space_group_name_H-M   'P 1'
_cell_length_a   8.89966953
_cell_length_b   8.89966953
_cell_length_c   10.67449053
_cell_angle_alpha   85.71374648
_cell_angle_beta   85.71374648
_cell_angle_gamma   62.26936571
_symmetry_Int_Tables_number   1
_chemical_formula_structural   Li2Fe4OF8
_chemical_formula_sum   'Li8 Fe16 O4 F32'
_cell_volume   745.49954626
_cell_formula_units_Z   4
loop_
 _symmetry_equiv_pos_site_id
 _symmetry_equiv_pos_as_xyz
  1  'x, y, z'
loop_
 _atom_site_type_symbol
 _atom_site_label
 _atom_site_symmetry_multiplicity
 _atom_site_fract_x
 _atom_site_fract_y
 _atom_site_fract_z
 _atom_site_occupancy
  Li  Li0  1  0.67040600  0.67538300  0.70814100  1
  Li  Li1  1  0.67538300  0.67040600  0.20814100  1
  Li  Li2  1  0.00875600  0.00045600  0.49513500  1
  Li  Li3  1  0.00045600  0.00875600  0.99513500  1
  Li  Li4  1  0.35218800  0.32406700  0.79722300  1
  Li  Li5  1  0.32406700  0.35218800  0.29722300  1
  Li  Li6  1  0.30042000  0.00090000  0.74529300  1
  Li  Li7  1  0.00090000  0.30042000  0.24529300  1
  Fe  Fe0  1  0.99235000  0.68710000  0.75526600  1
  Fe  Fe1  1  0.68710000  0.99235000  0.25526600  1
  Fe  Fe2  1  0.66755800  0.90730600  0.94255500  1
  Fe  Fe3  1  0.90730600  0.66755800  0.44255500  1
  Fe  Fe4  1  0.84790700  0.49393900  0.95529300  1
  Fe  Fe5  1  0.49393900  0.84790700  0.45529300  1
  Fe  Fe6  1  0.35940100  0.68866200  0.94785100  1
  Fe  Fe7  1  0.68866200  0.35940100  0.44785100  1
  Fe  Fe8  1  0.83734200  0.15801100  0.74894800  1
  Fe  Fe9  1  0.15801100  0.83734200  0.24894800  1
  Fe  Fe10  1  0.32052500  0.64818300  0.53025800  1
  Fe  Fe11  1  0.64818300  0.32052500  0.03025800  1
  Fe  Fe12  1  0.51915300  0.14640700  0.54398300  1
  Fe  Fe13  1  0.14640700  0.51915300  0.04398300  1
  Fe  Fe14  1  0.05844100  0.35593900  0.58395500  1
  Fe  Fe15  1  0.35593900  0.05844100  0.08395500  1
  O  O0  1  0.78323700  0.70649200  0.85327600  1
  O  O1  1  0.91455800  0.58705100  0.61884600  1
  O  O2  1  0.70649200  0.78323700  0.35327600  1
  O  O3  1  0.58705100  0.91455800  0.11884600  1
  F  F0  1  0.93418400  0.92652600  0.66360000  1
  F  F1  1  0.92652600  0.93418400  0.16360000  1
  F  F2  1  0.56703900  0.91114100  0.61829900  1
  F  F3  1  0.91114100  0.56703900  0.11829900  1
  F  F4  1  0.42949000  0.76596100  0.79421800  1
  F  F5  1  0.73305900  0.39243000  0.83889900  1
  F  F6  1  0.76596100  0.42949000  0.29421800  1
  F  F7  1  0.39243000  0.73305900  0.33889900  1
  F  F8  1  0.26308500  0.90532400  0.55354700  1
  F  F9  1  0.57785300  0.57831700  0.55439100  1
  F  F10  1  0.90408000  0.23984200  0.56342200  1
  F  F11  1  0.90532400  0.26308500  0.05354700  1
  F  F12  1  0.57831700  0.57785300  0.05439100  1
  F  F13  1  0.23984200  0.90408000  0.06342200  1
  F  F14  1  0.75355200  0.09394700  0.93168100  1
  F  F15  1  0.40181900  0.43097100  0.95203200  1
  F  F16  1  0.10285000  0.74406100  0.93172200  1
  F  F17  1  0.09394700  0.75355200  0.43168100  1
  F  F18  1  0.43097100  0.40181900  0.45203200  1
  F  F19  1  0.74406100  0.10285000  0.43172200  1
  F  F20  1  0.59300500  0.23498700  0.68631000  1
  F  F21  1  0.24940300  0.57174800  0.69447600  1
  F  F22  1  0.23498700  0.59300500  0.18631000  1
  F  F23  1  0.57174800  0.24940300  0.19447600  1
  F  F24  1  0.11174800  0.42689300  0.88417800  1
  F  F25  1  0.41142200  0.08971800  0.88804100  1
  F  F26  1  0.42689300  0.11174800  0.38417800  1
  F  F27  1  0.28440700  0.21380900  0.65028100  1
  F  F28  1  0.08971800  0.41142200  0.38804100  1
  F  F29  1  0.21380900  0.28440700  0.15028100  1
  F  F30  1  0.06722600  0.07796100  0.81887800  1
  F  F31  1  0.07796100  0.06722600  0.31887800  1
loop_
_geom_bond_atom_site_label_1
_geom_bond_atom_site_label_2
_geom_bond_distance
_geom_bond_site_symmetry_2
Li0 O0 2.010104 1_555
Li0 O1 2.112031 1_555
Li1 O2 2.010104 1_555
Li1 O3 2.112031 1_555
Fe0 O0 2.006200 1_555
Fe0 O1 2.076268 1_555
Fe1 O2 2.006200 1_555
Fe1 O3 2.076268 1_555
Fe2 O0 1.886205 1_555
Fe2 O3 1.957634 1_556
Fe3 O2 1.886205 1_555
Fe3 O1 1.957634 1_555
Fe4 O0 1.966732 1_555
Fe5 O2 1.966732 1_555
Fe14 O1 1.897650 1_455
Fe15 O3 1.897650 1_545
F0 Li2 2.039184 1_665
F0 Fe8 2.080333 1_565
F0 Fe0 2.122100 1_555
F1 Li3 2.039184 1_664
F1 Fe9 2.080333 1_655
F1 Fe1 2.122100 1_555
F2 Fe12 2.041255 1_565
F2 Li0 2.050151 1_555
F2 Fe5 2.103296 1_555
F2 Li6 2.454204 1_565
F3 Fe13 2.041255 1_655
F3 Li1 2.050151 1_555
F3 Fe4 2.103296 1_554
F3 Li7 2.454204 1_655
F4 Fe6 1.905148 1_555
F4 Li6 1.911881 1_565
F4 Li0 2.073374 1_555
F5 Fe8 2.121334 1_555
F5 Fe4 2.149750 1_555
F5 Fe11 2.275164 1_556
F6 Fe7 1.905148 1_555
F6 Li7 1.911881 1_655
F6 Li1 2.073374 1_555
F7 Fe9 2.121334 1_555
F7 Fe5 2.149750 1_555
F7 Fe10 2.275164 1_555
F8 Fe5 2.088823 1_555
F8 Fe10 2.130154 1_555
F8 Li2 2.139489 1_565
F8 Li6 2.376592 1_565
F9 Fe10 2.106358 1_555
F9 Fe7 2.106464 1_555
F9 Li0 2.279133 1_555
F9 Fe5 2.346142 1_555
F10 Li2 2.054662 1_655
F10 Fe14 2.098241 1_655
F10 Fe7 2.142070 1_555
F10 Fe8 2.194595 1_555
F11 Fe4 2.088823 1_554
F11 Fe11 2.130154 1_555
F11 Li3 2.139489 1_654
F11 Li7 2.376592 1_655
F12 Fe11 2.106358 1_555
F12 Fe6 2.106464 1_554
F12 Li1 2.279133 1_555
F12 Fe4 2.346142 1_554
F13 Li3 2.054662 1_564
F13 Fe15 2.098241 1_565
F13 Fe6 2.142070 1_554
F13 Fe9 2.194595 1_555
F14 Li3 2.111238 1_655
F14 Fe11 2.112504 1_556
F14 Fe2 2.121130 1_545
F14 Fe8 2.167468 1_555
F15 Li4 2.136882 1_555
F15 Fe6 2.141388 1_555
F15 Fe11 2.148506 1_556
F15 Fe13 2.206285 1_556
F16 Fe6 2.117610 1_555
F16 Fe13 2.140445 1_556
F16 Li3 2.233004 1_565
F16 Fe0 2.378131 1_455
F17 Li2 2.111238 1_565
F17 Fe10 2.112504 1_555
F17 Fe3 2.121130 1_455
F17 Fe9 2.167468 1_555
F18 Li5 2.136882 1_555
F18 Fe7 2.141388 1_555
F18 Fe10 2.148506 1_555
F18 Fe12 2.206285 1_555
F19 Fe7 2.117610 1_555
F19 Fe12 2.140445 1_555
F19 Li2 2.233004 1_655
F19 Fe1 2.378131 1_545
F20 Fe12 2.042577 1_555
F20 Fe8 2.099388 1_555
F20 Li4 2.191639 1_555
F21 Fe10 1.998197 1_555
F21 Fe0 2.097748 1_455
F21 Li4 2.193313 1_555
F22 Fe13 2.042577 1_555
F22 Fe9 2.099388 1_555
F22 Li5 2.191639 1_555
F23 Fe11 1.998197 1_555
F23 Fe1 2.097748 1_545
F23 Li5 2.193313 1_555
F24 Fe13 2.050101 1_556
F24 Li4 2.070171 1_555
F24 Fe4 2.223338 1_455
F24 Fe0 2.416118 1_455
F25 Li4 2.078105 1_555
F25 Fe15 2.140398 1_556
F25 Fe2 2.187118 1_545
F25 Li6 2.248183 1_555
F26 Fe12 2.050101 1_555
F26 Li5 2.070171 1_555
F26 Fe5 2.223338 1_545
F26 Fe1 2.416118 1_545
F27 Fe14 1.963957 1_555
F27 Li6 2.030347 1_555
F27 Fe12 2.143141 1_555
F27 Li4 2.170118 1_555
F28 Li5 2.078105 1_555
F28 Fe14 2.140398 1_555
F28 Fe3 2.187118 1_455
F28 Li7 2.248183 1_555
F29 Fe15 1.963957 1_555
F29 Li7 2.030347 1_555
F29 Fe13 2.143141 1_555
F29 Li5 2.170118 1_555
F30 Li6 1.976532 1_555
F30 Fe8 2.010670 1_455
F30 Li3 2.067021 1_555
F31 Li7 1.976532 1_555
F31 Fe9 2.010670 1_545
F31 Li2 2.067021 1_555
