# generated using pymatgen
data_RbTlO2
_symmetry_space_group_name_H-M   'P 1'
_cell_length_a   6.71058260
_cell_length_b   6.71058288
_cell_length_c   6.71058303
_cell_angle_alpha   30.12543493
_cell_angle_beta   30.12542842
_cell_angle_gamma   30.12543144
_symmetry_Int_Tables_number   1
_chemical_formula_structural   RbTlO2
_chemical_formula_sum   'Rb1 Tl1 O2'
_cell_volume   67.43939834
_cell_formula_units_Z   1
loop_
 _symmetry_equiv_pos_site_id
 _symmetry_equiv_pos_as_xyz
  1  'x, y, z'
loop_
 _atom_site_type_symbol
 _atom_site_label
 _atom_site_symmetry_multiplicity
 _atom_site_fract_x
 _atom_site_fract_y
 _atom_site_fract_z
 _atom_site_occupancy
  Rb  Rb0  1  0.50000000  0.50000000  0.50000000  1
  Tl  Tl0  1  0.00000000  -0.00000000  0.00000000  1
  O  O0  1  0.72816061  0.72816061  0.72816061  1
  O  O1  1  0.27183939  0.27183939  0.27183939  1
loop_
_geom_bond_atom_site_label_1
_geom_bond_atom_site_label_2
_geom_bond_distance
_geom_bond_site_symmetry_2
O0 Tl0 2.334438 1_566
O0 Tl0 2.334438 1_665
O0 Tl0 2.334438 1_656
O0 Rb0 2.852075 1_655
O0 Rb0 2.852076 1_565
O0 Rb0 2.852076 1_556
O1 Tl0 2.334438 1_655
O1 Tl0 2.334438 1_556
O1 Tl0 2.334438 1_565
O1 Rb0 2.852075 1_455
O1 Rb0 2.852076 1_545
O1 Rb0 2.852076 1_554
