# generated using pymatgen
data_U2Al3C4
_symmetry_space_group_name_H-M   'P 1'
_cell_length_a   3.39821800
_cell_length_b   3.39821790
_cell_length_c   23.33249600
_cell_angle_alpha   90.00000000
_cell_angle_beta   90.00000000
_cell_angle_gamma   120.00000097
_symmetry_Int_Tables_number   1
_chemical_formula_structural   U2Al3C4
_chemical_formula_sum   'U4 Al6 C8'
_cell_volume   233.34273646
_cell_formula_units_Z   2
loop_
 _symmetry_equiv_pos_site_id
 _symmetry_equiv_pos_as_xyz
  1  'x, y, z'
loop_
 _atom_site_type_symbol
 _atom_site_label
 _atom_site_symmetry_multiplicity
 _atom_site_fract_x
 _atom_site_fract_y
 _atom_site_fract_z
 _atom_site_occupancy
  U  U0  1  0.66666700  0.33333300  0.43594800  1
  U  U1  1  0.33333300  0.66666700  0.93594800  1
  U  U2  1  0.66666700  0.33333300  0.06095100  1
  U  U3  1  0.33333300  0.66666700  0.56095100  1
  Al  Al0  1  0.00000000  0.00000000  0.33507100  1
  Al  Al1  1  0.00000000  0.00000000  0.83507100  1
  Al  Al2  1  0.66666700  0.33333300  0.74635800  1
  Al  Al3  1  0.33333300  0.66666700  0.24635800  1
  Al  Al4  1  0.00000000  0.00000000  0.16131000  1
  Al  Al5  1  0.00000000  0.00000000  0.66131000  1
  C  C0  1  0.00000000  0.00000000  0.74846100  1
  C  C1  1  0.00000000  0.00000000  0.24846100  1
  C  C2  1  0.00000000  0.00000000  0.49849000  1
  C  C3  1  0.00000000  0.00000000  0.99849000  1
  C  C4  1  0.66666700  0.33333300  0.63319700  1
  C  C5  1  0.33333300  0.66666700  0.13319700  1
  C  C6  1  0.33333300  0.66666700  0.36560200  1
  C  C7  1  0.66666700  0.33333300  0.86560200  1
loop_
_geom_bond_atom_site_label_1
_geom_bond_atom_site_label_2
_geom_bond_distance
_geom_bond_site_symmetry_2
Al0 C1 2.020827 1_555
Al0 C6 2.087283 1_545
Al0 C6 2.087286 1_555
Al0 C6 2.087286 1_445
Al1 C0 2.020827 1_555
Al1 C7 2.087283 1_455
Al1 C7 2.087286 1_445
Al1 C7 2.087286 1_555
Al2 C0 1.962574 1_655
Al2 C0 1.962576 1_665
Al2 C0 1.962577 1_555
Al3 C1 1.962574 1_565
Al3 C1 1.962576 1_555
Al3 C1 1.962577 1_665
Al4 C1 2.033450 1_555
Al4 C5 2.068708 1_545
Al4 C5 2.068711 1_555
Al4 C5 2.068711 1_445
Al5 C0 2.033450 1_555
Al5 C4 2.068708 1_455
Al5 C4 2.068711 1_445
Al5 C4 2.068711 1_555
C2 U3 2.444017 1_545
C2 U3 2.444019 1_555
C2 U3 2.444019 1_445
C2 U0 2.445144 1_455
C2 U0 2.445146 1_445
C2 U0 2.445147 1_555
C3 U2 2.444017 1_456
C3 U2 2.444019 1_446
C3 U2 2.444019 1_556
C3 U1 2.445144 1_545
C3 U1 2.445146 1_555
C3 U1 2.445147 1_445
C4 U3 2.586659 1_545
C4 U3 2.586659 1_655
C4 U3 2.586663 1_555
C5 U2 2.586659 1_565
C5 U2 2.586659 1_455
C5 U2 2.586663 1_555
C6 U0 2.557989 1_565
C6 U0 2.557989 1_455
C6 U0 2.557994 1_555
C7 U1 2.557989 1_545
C7 U1 2.557989 1_655
C7 U1 2.557994 1_555
