# generated using pymatgen
data_LiFe4(BO3)4
_symmetry_space_group_name_H-M   'P 1'
_cell_length_a   5.23290000
_cell_length_b   9.18009257
_cell_length_c   10.12394120
_cell_angle_alpha   89.14706580
_cell_angle_beta   89.76995470
_cell_angle_gamma   88.90169357
_symmetry_Int_Tables_number   1
_chemical_formula_structural   LiFe4(BO3)4
_chemical_formula_sum   'Li2 Fe8 B8 O24'
_cell_volume   486.19240286
_cell_formula_units_Z   2
loop_
 _symmetry_equiv_pos_site_id
 _symmetry_equiv_pos_as_xyz
  1  'x, y, z'
loop_
 _atom_site_type_symbol
 _atom_site_label
 _atom_site_symmetry_multiplicity
 _atom_site_fract_x
 _atom_site_fract_y
 _atom_site_fract_z
 _atom_site_occupancy
  Li  Li0  1  0.32095400  0.33389000  0.40782400  1
  Li  Li1  1  0.66058000  0.67277000  0.65441600  1
  Fe  Fe0  1  0.16559200  0.84423500  0.62538600  1
  Fe  Fe1  1  0.17052800  0.50272500  0.13174300  1
  Fe  Fe2  1  0.32887400  0.99573600  0.87890900  1
  Fe  Fe3  1  0.34507600  0.66865000  0.37442300  1
  Fe  Fe4  1  0.66034800  0.33279100  0.63154300  1
  Fe  Fe5  1  0.66616300  0.00192700  0.12664200  1
  Fe  Fe6  1  0.82997300  0.15690000  0.37678900  1
  Fe  Fe7  1  0.83146300  0.49196200  0.87942200  1
  B  B0  1  0.16282000  0.50825400  0.62704100  1
  B  B1  1  0.16567200  0.82969100  0.12468400  1
  B  B2  1  0.33394500  0.00668300  0.37971400  1
  B  B3  1  0.32171000  0.66661200  0.87360800  1
  B  B4  1  0.66095900  0.99468300  0.62599700  1
  B  B5  1  0.67410600  0.32973300  0.13021800  1
  B  B6  1  0.83841000  0.49234300  0.37647700  1
  B  B7  1  0.82995300  0.16723700  0.87976600  1
  O  O0  1  0.09408200  0.48710200  0.33108400  1
  O  O1  1  0.08455100  0.14421300  0.87151000  1
  O  O2  1  0.20803700  0.79870700  0.83202900  1
  O  O3  1  0.24039200  0.87943400  0.43406600  1
  O  O4  1  0.19268700  0.13402900  0.37727600  1
  O  O5  1  0.16853800  0.56048000  0.93157400  1
  O  O6  1  0.29463400  0.38342900  0.60323700  1
  O  O7  1  0.32673300  0.93824900  0.07415400  1
  O  O8  1  0.27521900  0.64351200  0.59504900  1
  O  O9  1  0.27818300  0.69970000  0.16774000  1
  O  O10  1  0.41954500  0.35248400  0.14152900  1
  O  O11  1  0.41153700  0.99466200  0.67776200  1
  O  O12  1  0.58225100  0.00498800  0.32680600  1
  O  O13  1  0.57580300  0.64023200  0.85262100  1
  O  O14  1  0.71761700  0.29819100  0.83771800  1
  O  O15  1  0.72741800  0.35712800  0.41318400  1
  O  O16  1  0.70644600  0.61708600  0.39028100  1
  O  O17  1  0.66927200  0.05897300  0.93007900  1
  O  O18  1  0.83056200  0.43807400  0.07628700  1
  O  O19  1  0.80466300  0.86830900  0.63368700  1
  O  O20  1  0.75158100  0.12095800  0.56947200  1
  O  O21  1  0.79140400  0.19859300  0.17293300  1
  O  O22  1  0.91096400  0.85379400  0.13132000  1
  O  O23  1  0.91252500  0.51018500  0.67792700  1
loop_
_geom_bond_atom_site_label_1
_geom_bond_atom_site_label_2
_geom_bond_distance
_geom_bond_site_symmetry_2
Li0 O0 1.975382 1_555
Li0 O4 1.994547 1_555
Li0 O6 2.040062 1_555
Li0 O15 2.142705 1_555
Li1 O19 1.968293 1_555
Li1 O23 1.984702 1_555
Li1 O13 2.071865 1_555
Li1 O8 2.129595 1_555
Fe0 O19 1.899049 1_455
Fe0 O8 1.947746 1_555
Fe0 O11 1.984929 1_555
Fe0 O3 1.997343 1_555
Fe0 O2 2.138877 1_555
Fe1 O10 1.881003 1_555
Fe1 O9 1.944288 1_555
Fe1 O18 1.972496 1_455
Fe1 O0 2.059245 1_555
Fe1 O5 2.087076 1_554
Fe2 O1 1.851756 1_565
Fe2 O17 1.958136 1_565
Fe2 O2 1.992100 1_555
Fe2 O7 2.038324 1_556
Fe2 O11 2.080264 1_555
Fe3 O16 1.947213 1_555
Fe3 O3 2.097730 1_555
Fe3 O9 2.136916 1_555
Fe3 O0 2.192159 1_555
Fe3 O8 2.270948 1_555
Fe4 O6 1.981658 1_555
Fe4 O20 2.098296 1_555
Fe4 O14 2.128185 1_555
Fe4 O23 2.173481 1_555
Fe4 O15 2.245475 1_555
Fe5 O22 1.850486 1_545
Fe5 O7 1.958474 1_545
Fe5 O21 1.995413 1_555
Fe5 O17 2.050274 1_554
Fe5 O12 2.072238 1_555
Fe6 O4 1.905637 1_655
Fe6 O15 1.945040 1_555
Fe6 O12 1.994207 1_555
Fe6 O20 2.015446 1_555
Fe6 O21 2.103205 1_555
Fe7 O13 1.907416 1_555
Fe7 O14 1.939699 1_555
Fe7 O5 1.961015 1_655
Fe7 O18 2.046376 1_556
Fe7 O23 2.086821 1_555
B0 O6 1.350386 1_555
B0 O23 1.405407 1_455
B0 O8 1.416727 1_555
B1 O22 1.348484 1_455
B1 O9 1.385755 1_555
B1 O7 1.406681 1_555
B2 O4 1.371074 1_555
B2 O3 1.381181 1_545
B2 O12 1.403343 1_555
B3 O13 1.363327 1_555
B3 O5 1.394720 1_555
B3 O2 1.400248 1_555
B4 O19 1.371778 1_555
B4 O20 1.376693 1_565
B4 O11 1.404531 1_555
B5 O10 1.349083 1_555
B5 O18 1.403232 1_555
B5 O21 1.404063 1_555
B6 O16 1.334707 1_555
B6 O0 1.413065 1_655
B6 O15 1.424221 1_555
B7 O1 1.347398 1_655
B7 O14 1.389844 1_555
B7 O17 1.402767 1_555
