# generated using pymatgen
data_ScZn3
_symmetry_space_group_name_H-M   'P 1'
_cell_length_a   5.86550128
_cell_length_b   5.86550071
_cell_length_c   4.33310712
_cell_angle_alpha   90.00000000
_cell_angle_beta   90.00000000
_cell_angle_gamma   119.99999737
_symmetry_Int_Tables_number   1
_chemical_formula_structural   ScZn3
_chemical_formula_sum   'Sc2 Zn6'
_cell_volume   129.10417721
_cell_formula_units_Z   2
loop_
 _symmetry_equiv_pos_site_id
 _symmetry_equiv_pos_as_xyz
  1  'x, y, z'
loop_
 _atom_site_type_symbol
 _atom_site_label
 _atom_site_symmetry_multiplicity
 _atom_site_fract_x
 _atom_site_fract_y
 _atom_site_fract_z
 _atom_site_occupancy
  Sc  Sc0  1  0.33333300  0.66666700  0.75000200  1
  Sc  Sc1  1  0.66666800  0.33333400  0.25000000  1
  Zn  Zn0  1  0.84266905  0.68533909  0.75000200  1
  Zn  Zn1  1  0.31466091  0.15732995  0.75000200  1
  Zn  Zn2  1  0.15733195  0.31466291  0.25000000  1
  Zn  Zn3  1  0.68533909  0.84266905  0.25000000  1
  Zn  Zn4  1  0.15733195  0.84266905  0.25000000  1
  Zn  Zn5  1  0.84266805  0.15732995  0.75000200  1
loop_
_geom_bond_atom_site_label_1
_geom_bond_atom_site_label_2
_geom_bond_distance
_geom_bond_site_symmetry_2
Sc0 Zn4 2.809106 1_556
Sc0 Zn2 2.809109 1_556
Sc0 Zn3 2.809116 1_556
Sc0 Zn4 2.809120 1_555
Sc0 Zn2 2.809123 1_555
Sc0 Zn3 2.809129 1_555
Sc0 Zn1 2.934278 1_565
Sc0 Zn5 2.934278 1_565
Sc0 Zn0 2.934284 1_455
Sc0 Zn0 2.934284 1_555
Sc0 Zn1 2.934290 1_555
Sc0 Zn5 2.934290 1_455
Sc1 Zn5 2.809109 1_554
Sc1 Zn0 2.809113 1_554
Sc1 Zn1 2.809119 1_554
Sc1 Zn5 2.809123 1_555
Sc1 Zn0 2.809126 1_555
Sc1 Zn1 2.809133 1_555
Sc1 Zn3 2.934281 1_555
Sc1 Zn2 2.934281 1_655
Sc1 Zn4 2.934281 1_655
Sc1 Zn3 2.934286 1_545
Sc1 Zn4 2.934287 1_545
Sc1 Zn2 2.934287 1_555
Zn0 Zn3 2.692341 1_556
Zn0 Zn4 2.692350 1_656
Zn0 Zn3 2.692355 1_555
Zn0 Zn4 2.692364 1_655
Zn0 Zn5 2.768466 1_565
Zn0 Zn1 2.768466 1_665
Zn0 Zn5 3.097035 1_555
Zn0 Zn1 3.097035 1_555
Zn1 Zn4 2.692344 1_546
Zn1 Zn2 2.692347 1_556
Zn1 Zn4 2.692358 1_545
Zn1 Zn2 2.692361 1_555
Zn1 Zn5 2.768475 1_455
Zn1 Zn5 3.097027 1_555
Zn2 Zn5 2.692353 1_454
Zn2 Zn5 2.692367 1_455
Zn2 Zn3 2.768478 1_445
Zn2 Zn4 2.768480 1_545
Zn2 Zn4 3.097020 1_555
Zn2 Zn3 3.097024 1_555
Zn3 Zn5 2.692344 1_564
Zn3 Zn5 2.692358 1_565
Zn3 Zn4 2.768475 1_655
Zn3 Zn4 3.097027 1_555
