# generated using pymatgen
data_Li5Mn6(BO3)6
_symmetry_space_group_name_H-M   'P 1'
_cell_length_a   8.79945300
_cell_length_b   8.85557531
_cell_length_c   10.48286051
_cell_angle_alpha   98.92468133
_cell_angle_beta   98.55014157
_cell_angle_gamma   107.65539428
_symmetry_Int_Tables_number   1
_chemical_formula_structural   Li5Mn6(BO3)6
_chemical_formula_sum   'Li10 Mn12 B12 O36'
_cell_volume   752.16368250
_cell_formula_units_Z   2
loop_
 _symmetry_equiv_pos_site_id
 _symmetry_equiv_pos_as_xyz
  1  'x, y, z'
loop_
 _atom_site_type_symbol
 _atom_site_label
 _atom_site_symmetry_multiplicity
 _atom_site_fract_x
 _atom_site_fract_y
 _atom_site_fract_z
 _atom_site_occupancy
  Li  Li0  1  0.09667200  0.79301500  0.81469900  1
  Li  Li1  1  0.81404800  0.10227400  0.80092800  1
  Li  Li2  1  0.22361800  0.23457200  0.51752700  1
  Li  Li3  1  0.84714200  0.54401300  0.55359400  1
  Li  Li4  1  0.56371000  0.85013300  0.54855200  1
  Li  Li5  1  0.59315000  0.29176800  0.30744000  1
  Li  Li6  1  0.96937400  0.98385200  0.26663000  1
  Li  Li7  1  0.33306800  0.03619200  0.05714300  1
  Li  Li8  1  0.06223400  0.33652700  0.03880400  1
  Li  Li9  1  0.72346100  0.74877400  0.02620000  1
  Mn  Mn0  1  0.20042400  0.18571400  0.80960400  1
  Mn  Mn1  1  0.81304500  0.48954300  0.83970600  1
  Mn  Mn2  1  0.48099800  0.83817700  0.83726400  1
  Mn  Mn3  1  0.58149900  0.23115700  0.59520100  1
  Mn  Mn4  1  0.23788400  0.59032400  0.58204500  1
  Mn  Mn5  1  0.93564900  0.92900700  0.56796000  1
  Mn  Mn6  1  0.33689100  0.96570400  0.34530600  1
  Mn  Mn7  1  0.99255700  0.34846100  0.33300000  1
  Mn  Mn8  1  0.68318000  0.68355700  0.31711000  1
  Mn  Mn9  1  0.08172700  0.70725200  0.10380900  1
  Mn  Mn10  1  0.72439600  0.10290900  0.08919600  1
  Mn  Mn11  1  0.42876600  0.43004600  0.07312200  1
  B  B0  1  0.00006200  0.99578800  0.99951400  1
  B  B1  1  0.53641200  0.20541200  0.87161300  1
  B  B2  1  0.19484100  0.53818300  0.87685800  1
  B  B3  1  0.76006100  0.76351600  0.75132400  1
  B  B4  1  0.96409900  0.29852000  0.63312600  1
  B  B5  1  0.29402300  0.95947500  0.62977600  1
  B  B6  1  0.50922900  0.50057100  0.49814900  1
  B  B7  1  0.03950600  0.70306100  0.37306600  1
  B  B8  1  0.71284000  0.04846500  0.37536900  1
  B  B9  1  0.24785100  0.23446000  0.24731100  1
  B  B10  1  0.79314900  0.46239900  0.12685000  1
  B  B11  1  0.44855500  0.79059000  0.11604800  1
  O  O0  1  0.01666700  0.11405500  0.92340400  1
  O  O1  1  0.39998100  0.18994500  0.93332200  1
  O  O2  1  0.07354700  0.54195900  0.94986500  1
  O  O3  1  0.09883700  0.89852900  0.99776300  1
  O  O4  1  0.26192100  0.41635200  0.89087600  1
  O  O5  1  0.62706500  0.10411300  0.88815300  1
  O  O6  1  0.57272100  0.32009500  0.79661400  1
  O  O7  1  0.24087500  0.64951300  0.80097500  1
  O  O8  1  0.65849400  0.73068400  0.83888000  1
  O  O9  1  0.05995200  0.19526900  0.64481000  1
  O  O10  1  0.84147900  0.28593000  0.70286000  1
  O  O11  1  0.17829100  0.96456900  0.70988500  1
  O  O12  1  0.86407800  0.67279700  0.73269300  1
  O  O13  1  0.32004900  0.06413100  0.54425500  1
  O  O14  1  0.37740000  0.85101600  0.63887000  1
  O  O15  1  0.76317700  0.88837700  0.68389300  1
  O  O16  1  0.37897700  0.44749400  0.55745600  1
  O  O17  1  0.99620300  0.40449800  0.54988200  1
  O  O18  1  0.58813300  0.02950200  0.44559400  1
  O  O19  1  0.61557100  0.40982300  0.48686200  1
  O  O20  1  0.53895400  0.64092500  0.45005700  1
  O  O21  1  0.12723500  0.60143200  0.38514700  1
  O  O22  1  0.13355700  0.19723200  0.32742500  1
  O  O23  1  0.92031800  0.70708300  0.44486600  1
  O  O24  1  0.74392900  0.16539700  0.29961400  1
  O  O25  1  0.06899300  0.81006500  0.28360400  1
  O  O26  1  0.36113100  0.15259200  0.24287800  1
  O  O27  1  0.80646900  0.94751100  0.38082800  1
  O  O28  1  0.24580500  0.34615000  0.17036800  1
  O  O29  1  0.66150600  0.44634600  0.18736400  1
  O  O30  1  0.31516900  0.77477200  0.17651100  1
  O  O31  1  0.54158100  0.69081400  0.12866700  1
  O  O32  1  0.88173300  0.35801300  0.12985600  1
  O  O33  1  0.83937000  0.59211900  0.06039300  1
  O  O34  1  0.48860100  0.91110300  0.04554000  1
  O  O35  1  0.88487700  0.97320200  0.07933300  1
loop_
_geom_bond_atom_site_label_1
_geom_bond_atom_site_label_2
_geom_bond_distance
_geom_bond_site_symmetry_2
Li0 O12 1.983063 1_455
Li0 O3 1.994520 1_555
Li0 O11 2.030218 1_555
Li0 O7 2.054610 1_555
Li1 O15 1.973531 1_545
Li1 O5 2.000621 1_555
Li1 O0 2.000771 1_655
Li1 O10 2.028460 1_555
Li2 O16 1.902834 1_555
Li2 O22 1.968672 1_555
Li2 O13 1.978401 1_555
Li2 O9 2.094514 1_555
Li3 O19 1.975627 1_555
Li3 O23 1.990970 1_555
Li3 O12 1.999276 1_555
Li3 O17 2.057091 1_555
Li4 O20 1.908053 1_555
Li4 O15 1.989519 1_555
Li4 O14 2.012763 1_555
Li4 O18 2.031736 1_565
Li5 O19 1.955492 1_555
Li5 O24 1.980892 1_555
Li5 O26 1.987296 1_555
Li5 O29 2.019988 1_555
Li6 O22 1.939229 1_665
Li6 O35 1.970438 1_555
Li6 O27 1.985318 1_555
Li6 O25 2.006352 1_655
Li7 O3 1.995172 1_544
Li7 O26 1.998592 1_555
Li7 O34 2.010536 1_545
Li7 O1 2.043201 1_554
Li8 O28 1.932935 1_555
Li8 O32 2.011897 1_455
Li8 O0 2.035361 1_554
Li8 O2 2.152375 1_554
Li8 O4 2.527612 1_554
Li9 O8 1.929105 1_554
Li9 O35 1.996641 1_555
Li9 O33 1.999278 1_555
Li9 O31 2.040249 1_555
Mn0 O4 1.960306 1_555
Mn0 O9 1.998299 1_555
Mn0 O1 2.008668 1_555
Mn0 O11 2.009676 1_545
Mn0 O0 2.150914 1_555
Mn1 O12 2.089553 1_555
Mn1 O6 2.123338 1_555
Mn1 O10 2.224754 1_555
Mn1 O2 2.281375 1_655
Mn1 O33 2.300381 1_556
Mn2 O8 2.060300 1_555
Mn2 O34 2.163639 1_556
Mn2 O14 2.177555 1_555
Mn2 O7 2.196148 1_555
Mn2 O5 2.247875 1_565
Mn3 O19 2.062539 1_555
Mn3 O6 2.157234 1_555
Mn3 O18 2.207595 1_555
Mn3 O13 2.256384 1_555
Mn3 O10 2.265349 1_555
Mn4 O16 2.038196 1_555
Mn4 O21 2.177501 1_555
Mn4 O14 2.197327 1_555
Mn4 O17 2.199132 1_455
Mn4 O7 2.267806 1_555
Mn5 O15 2.064608 1_555
Mn5 O23 2.132165 1_555
Mn5 O27 2.171825 1_555
Mn5 O9 2.233673 1_665
Mn5 O11 2.318102 1_655
Mn6 O26 2.083933 1_565
Mn6 O18 2.163100 1_565
Mn6 O13 2.176574 1_565
Mn6 O30 2.191225 1_555
Mn6 O25 2.274709 1_555
Mn7 O22 2.083625 1_655
Mn7 O21 2.130447 1_655
Mn7 O32 2.231921 1_555
Mn7 O24 2.232020 1_555
Mn7 O17 2.243854 1_555
Mn8 O20 2.023368 1_555
Mn8 O31 2.194310 1_555
Mn8 O27 2.201986 1_555
Mn8 O23 2.238303 1_555
Mn8 O29 2.256620 1_555
Mn9 O30 1.950898 1_555
Mn9 O2 1.980072 1_554
Mn9 O25 1.996522 1_555
Mn9 O33 2.010766 1_455
Mn9 O3 2.146387 1_554
Mn10 O35 2.077175 1_545
Mn10 O5 2.156621 1_554
Mn10 O24 2.156870 1_555
Mn10 O34 2.176763 1_545
Mn10 O32 2.197849 1_555
Mn11 O28 2.044653 1_555
Mn11 O31 2.162762 1_555
Mn11 O29 2.164957 1_555
Mn11 O4 2.192285 1_554
Mn11 O1 2.308432 1_554
B0 O35 1.395912 1_456
B0 O3 1.396969 1_555
B0 O0 1.398536 1_565
B1 O6 1.370115 1_555
B1 O5 1.382857 1_555
B1 O1 1.427283 1_555
B2 O7 1.365921 1_555
B2 O4 1.394162 1_555
B2 O2 1.408051 1_555
B3 O8 1.376522 1_555
B3 O15 1.397464 1_555
B3 O12 1.404212 1_555
B4 O17 1.374284 1_555
B4 O10 1.377635 1_555
B4 O9 1.426281 1_655
B5 O14 1.380185 1_555
B5 O13 1.380292 1_565
B5 O11 1.419420 1_555
B6 O16 1.377268 1_555
B6 O20 1.379797 1_555
B6 O19 1.412449 1_555
B7 O21 1.360023 1_555
B7 O23 1.384487 1_455
B7 O25 1.429573 1_555
B8 O24 1.387678 1_555
B8 O27 1.389224 1_545
B8 O18 1.393233 1_555
B9 O28 1.372293 1_555
B9 O22 1.400503 1_555
B9 O26 1.401093 1_555
B10 O32 1.379103 1_555
B10 O29 1.382416 1_555
B10 O33 1.421099 1_555
B11 O34 1.379672 1_555
B11 O31 1.382412 1_555
B11 O30 1.395711 1_555
