# generated using pymatgen
data_Nd2In8Pd
_symmetry_space_group_name_H-M   'P 1'
_cell_length_a   4.70314600
_cell_length_b   4.70314600
_cell_length_c   12.23093183
_cell_angle_alpha   90.00000000
_cell_angle_beta   90.00000000
_cell_angle_gamma   90.00000000
_symmetry_Int_Tables_number   1
_chemical_formula_structural   Nd2In8Pd
_chemical_formula_sum   'Nd2 In8 Pd1'
_cell_volume   270.54310319
_cell_formula_units_Z   1
loop_
 _symmetry_equiv_pos_site_id
 _symmetry_equiv_pos_as_xyz
  1  'x, y, z'
loop_
 _atom_site_type_symbol
 _atom_site_label
 _atom_site_symmetry_multiplicity
 _atom_site_fract_x
 _atom_site_fract_y
 _atom_site_fract_z
 _atom_site_occupancy
  Nd  Nd0  1  0.50000000  0.50000000  0.30960551  1
  Nd  Nd1  1  0.50000000  0.50000000  0.69039449  1
  In  In0  1  0.00000000  0.50000000  0.12272035  1
  In  In1  1  0.50000000  -0.00000000  0.12272035  1
  In  In2  1  0.00000000  -0.00000000  0.30600888  1
  In  In3  1  -0.00000000  0.50000000  0.50000000  1
  In  In4  1  0.50000000  -0.00000000  0.50000000  1
  In  In5  1  -0.00000000  0.00000000  0.69399112  1
  In  In6  1  -0.00000000  0.50000000  0.87727965  1
  In  In7  1  0.50000000  0.00000000  0.87727965  1
  Pd  Pd0  1  0.50000000  0.50000000  -0.00000000  1
loop_
_geom_bond_atom_site_label_1
_geom_bond_atom_site_label_2
_geom_bond_distance
_geom_bond_site_symmetry_2
In0 Pd0 2.789776 1_455
In0 Pd0 2.789776 1_555
In0 In2 3.248925 1_555
In0 In2 3.248925 1_565
In0 Nd0 3.279434 1_455
In0 Nd0 3.279434 1_555
In1 Pd0 2.789776 1_555
In1 Pd0 2.789776 1_545
In1 In2 3.248925 1_555
In1 In2 3.248925 1_655
In1 Nd0 3.279434 1_555
In1 Nd0 3.279434 1_545
In2 Nd0 3.325917 1_455
In2 Nd0 3.325917 1_445
In2 Nd0 3.325917 1_555
In2 Nd0 3.325917 1_545
In2 In4 3.340593 1_455
In2 In3 3.340593 1_555
In2 In4 3.340593 1_555
In2 In3 3.340593 1_545
In3 Nd1 3.309494 1_455
In3 Nd0 3.309494 1_455
In3 Nd0 3.309494 1_555
In3 Nd1 3.309494 1_555
In3 In4 3.325626 1_455
In3 In4 3.325626 1_555
In3 In4 3.325626 1_465
In3 In4 3.325626 1_565
In3 In5 3.340593 1_565
In3 In5 3.340593 1_555
In4 Nd1 3.309494 1_545
In4 Nd0 3.309494 1_555
In4 Nd0 3.309494 1_545
In4 Nd1 3.309494 1_555
In4 In5 3.340593 1_555
In4 In5 3.340593 1_655
In5 In6 3.248925 1_545
In5 In7 3.248925 1_455
In5 In7 3.248925 1_555
In5 In6 3.248925 1_555
In5 Nd1 3.325917 1_455
In5 Nd1 3.325917 1_545
In5 Nd1 3.325917 1_445
In5 Nd1 3.325917 1_555
In6 Pd0 2.789776 1_456
In6 Pd0 2.789776 1_556
In6 Nd1 3.279434 1_555
In6 Nd1 3.279434 1_455
In7 Pd0 2.789776 1_556
In7 Pd0 2.789776 1_546
In7 Nd1 3.279434 1_555
In7 Nd1 3.279434 1_545
