# generated using pymatgen
data_CrSbO4
_symmetry_space_group_name_H-M   'P 1'
_cell_length_a   6.13951391
_cell_length_b   6.13951391
_cell_length_c   6.13951391
_cell_angle_alpha   120.76753997
_cell_angle_beta   118.71499739
_cell_angle_gamma   90.45784228
_symmetry_Int_Tables_number   1
_chemical_formula_structural   CrSbO4
_chemical_formula_sum   'Cr2 Sb2 O8'
_cell_volume   164.20808203
_cell_formula_units_Z   2
loop_
 _symmetry_equiv_pos_site_id
 _symmetry_equiv_pos_as_xyz
  1  'x, y, z'
loop_
 _atom_site_type_symbol
 _atom_site_label
 _atom_site_symmetry_multiplicity
 _atom_site_fract_x
 _atom_site_fract_y
 _atom_site_fract_z
 _atom_site_occupancy
  Cr  Cr0  1  0.00000000  0.00000000  0.50000000  1
  Cr  Cr1  1  0.00000000  0.50000000  0.00000000  1
  Sb  Sb0  1  0.00000000  0.50000000  0.50000000  1
  Sb  Sb1  1  0.50000000  0.50000000  0.00000000  1
  O  O0  1  0.19440700  0.72942000  0.46498600  1
  O  O1  1  0.76084600  0.73423900  0.47339200  1
  O  O2  1  0.76084600  0.28745400  0.02660800  1
  O  O3  1  0.76443400  0.72942000  0.03501400  1
  O  O4  1  0.23556600  0.27058000  0.96498600  1
  O  O5  1  0.23915400  0.26576100  0.52660800  1
  O  O6  1  0.23915400  0.71254600  0.97339200  1
  O  O7  1  0.80559300  0.27058000  0.53501400  1
loop_
_geom_bond_atom_site_label_1
_geom_bond_atom_site_label_2
_geom_bond_distance
_geom_bond_site_symmetry_2
Cr0 O4 2.035521 1_555
Cr0 O3 2.035521 1_445
Cr0 O0 2.035525 1_545
Cr0 O7 2.035525 1_455
Cr0 O5 2.074450 1_555
Cr0 O1 2.074450 1_445
Cr1 O0 2.035520 1_555
Cr1 O7 2.035520 1_454
Cr1 O4 2.035521 1_554
Cr1 O3 2.035521 1_455
Cr1 O6 2.074455 1_554
Cr1 O2 2.074455 1_455
O0 Sb0 1.996053 1_555
O1 Sb1 2.072278 1_555
O1 Sb0 2.072282 1_655
O2 Sb1 2.072278 1_555
O2 Sb0 2.072278 1_655
O3 Sb1 1.996049 1_555
O4 Sb1 1.996049 1_556
O5 Sb1 2.072278 1_556
O5 Sb0 2.072282 1_555
O6 Sb0 2.072278 1_555
O6 Sb1 2.072278 1_556
O7 Sb0 1.996053 1_655
