# generated using pymatgen
data_SrSbPt
_symmetry_space_group_name_H-M   'P 1'
_cell_length_a   4.50717400
_cell_length_b   4.50717343
_cell_length_c   4.63998053
_cell_angle_alpha   90.00000000
_cell_angle_beta   90.00000000
_cell_angle_gamma   120.00001167
_symmetry_Int_Tables_number   1
_chemical_formula_structural   SrSbPt
_chemical_formula_sum   'Sr1 Sb1 Pt1'
_cell_volume   81.63104057
_cell_formula_units_Z   1
loop_
 _symmetry_equiv_pos_site_id
 _symmetry_equiv_pos_as_xyz
  1  'x, y, z'
loop_
 _atom_site_type_symbol
 _atom_site_label
 _atom_site_symmetry_multiplicity
 _atom_site_fract_x
 _atom_site_fract_y
 _atom_site_fract_z
 _atom_site_occupancy
  Sr  Sr0  1  0.00000000  -0.00000000  0.00000000  1
  Sb  Sb0  1  0.66666700  0.33333300  0.50000000  1
  Pt  Pt0  1  0.33333300  0.66666700  0.50000000  1
loop_
_geom_bond_atom_site_label_1
_geom_bond_atom_site_label_2
_geom_bond_distance
_geom_bond_site_symmetry_2
Sb0 Sr0 3.486242 1_656
Sb0 Sr0 3.486242 1_655
Sb0 Sr0 3.486244 1_665
Sb0 Sr0 3.486244 1_666
Sb0 Sr0 3.486244 1_555
Sb0 Sr0 3.486244 1_556
Pt0 Sb0 2.602215 1_565
Pt0 Sb0 2.602215 1_455
Pt0 Sb0 2.602223 1_555
Pt0 Sr0 3.486242 1_566
Pt0 Sr0 3.486242 1_565
Pt0 Sr0 3.486244 1_555
Pt0 Sr0 3.486244 1_556
Pt0 Sr0 3.486244 1_665
Pt0 Sr0 3.486244 1_666
