# generated using pymatgen
data_LiCoPO4
_symmetry_space_group_name_H-M   'P 1'
_cell_length_a   10.57721261
_cell_length_b   10.57721261
_cell_length_c   12.35876500
_cell_angle_alpha   90.00000000
_cell_angle_beta   90.00000000
_cell_angle_gamma   120.00000383
_symmetry_Int_Tables_number   1
_chemical_formula_structural   LiCoPO4
_chemical_formula_sum   'Li12 Co12 P12 O48'
_cell_volume   1197.42454894
_cell_formula_units_Z   12
loop_
 _symmetry_equiv_pos_site_id
 _symmetry_equiv_pos_as_xyz
  1  'x, y, z'
loop_
 _atom_site_type_symbol
 _atom_site_label
 _atom_site_symmetry_multiplicity
 _atom_site_fract_x
 _atom_site_fract_y
 _atom_site_fract_z
 _atom_site_occupancy
  Li  Li0  1  0.00000000  0.50000000  0.00560300  1
  Li  Li1  1  0.00000000  0.50000000  0.66106400  1
  Li  Li2  1  0.00000000  0.50000000  0.33333300  1
  Li  Li3  1  0.00000000  0.00000000  0.16666700  1
  Li  Li4  1  0.00000000  0.00000000  0.50000000  1
  Li  Li5  1  0.00000000  0.00000000  0.83333300  1
  Li  Li6  1  0.50000000  0.50000000  0.33893600  1
  Li  Li7  1  0.50000000  0.50000000  0.66666700  1
  Li  Li8  1  0.50000000  0.50000000  0.99439700  1
  Li  Li9  1  0.50000000  0.00000000  0.32773000  1
  Li  Li10  1  0.50000000  0.00000000  0.00000000  1
  Li  Li11  1  0.50000000  0.00000000  0.67227000  1
  Co  Co0  1  0.00000000  0.74945900  0.83333300  1
  Co  Co1  1  0.00000000  0.25054100  0.83333300  1
  Co  Co2  1  0.24943800  0.75056200  0.16666700  1
  Co  Co3  1  0.24943800  0.49887600  0.50000000  1
  Co  Co4  1  0.50112400  0.75056200  0.83333300  1
  Co  Co5  1  0.25054100  0.25054100  0.16666700  1
  Co  Co6  1  0.25054100  0.00000000  0.50000000  1
  Co  Co7  1  0.74945900  0.74945900  0.16666700  1
  Co  Co8  1  0.49887600  0.24943800  0.83333300  1
  Co  Co9  1  0.75056200  0.50112400  0.50000000  1
  Co  Co10  1  0.75056200  0.24943800  0.16666700  1
  Co  Co11  1  0.74945900  0.00000000  0.50000000  1
  P  P0  1  0.00000000  0.75541200  0.33333300  1
  P  P1  1  0.24792300  0.75207700  0.66666700  1
  P  P2  1  0.00000000  0.24458800  0.33333300  1
  P  P3  1  0.24792300  0.49584600  0.00000000  1
  P  P4  1  0.24458800  0.24458800  0.66666700  1
  P  P5  1  0.50415400  0.75207700  0.33333300  1
  P  P6  1  0.24458800  0.00000000  0.00000000  1
  P  P7  1  0.49584600  0.24792300  0.33333300  1
  P  P8  1  0.75541200  0.75541200  0.66666700  1
  P  P9  1  0.75207700  0.50415400  0.00000000  1
  P  P10  1  0.75207700  0.24792300  0.66666700  1
  P  P11  1  0.75541200  0.00000000  0.00000000  1
  O  O0  1  0.06721600  0.87728000  0.42062500  1
  O  O1  1  0.12272000  0.93278400  0.91270900  1
  O  O2  1  0.10362300  0.69810500  0.73080900  1
  O  O3  1  0.11103600  0.71695000  0.28233700  1
  O  O4  1  0.28305000  0.88896400  0.05099700  1
  O  O5  1  0.30189500  0.89637700  0.60252400  1
  O  O6  1  0.20228200  0.61881700  0.59183500  1
  O  O7  1  0.10362300  0.40551800  0.93585800  1
  O  O8  1  0.20228200  0.58346500  0.07483200  1
  O  O9  1  0.11103600  0.39408600  0.38433000  1
  O  O10  1  0.06721600  0.18993600  0.24604200  1
  O  O11  1  0.38118300  0.79771800  0.74149900  1
  O  O12  1  0.41653500  0.79771800  0.25850100  1
  O  O13  1  0.12272000  0.18993600  0.75395800  1
  O  O14  1  0.28305000  0.39408600  0.61567000  1
  O  O15  1  0.38118300  0.58346500  0.92516800  1
  O  O16  1  0.30189500  0.40551800  0.06414200  1
  O  O17  1  0.41653500  0.61881700  0.40816500  1
  O  O18  1  0.18993600  0.12272000  0.57937500  1
  O  O19  1  0.18993600  0.06721600  0.08729100  1
  O  O20  1  0.59448200  0.89637700  0.39747600  1
  O  O21  1  0.60591400  0.88896400  0.94900300  1
  O  O22  1  0.60591400  0.71695000  0.71766300  1
  O  O23  1  0.40551800  0.30189500  0.26919100  1
  O  O24  1  0.59448200  0.69810500  0.26919100  1
  O  O25  1  0.39408600  0.28305000  0.71766300  1
  O  O26  1  0.39408600  0.11103600  0.94900300  1
  O  O27  1  0.40551800  0.10362300  0.39747600  1
  O  O28  1  0.81006400  0.93278400  0.08729100  1
  O  O29  1  0.81006400  0.87728000  0.57937500  1
  O  O30  1  0.58346500  0.38118300  0.40816500  1
  O  O31  1  0.69810500  0.59448200  0.06414200  1
  O  O32  1  0.61881700  0.41653500  0.92516800  1
  O  O33  1  0.71695000  0.60591400  0.61567000  1
  O  O34  1  0.87728000  0.81006400  0.75395800  1
  O  O35  1  0.58346500  0.20228200  0.25850100  1
  O  O36  1  0.61881700  0.20228200  0.74149900  1
  O  O37  1  0.93278400  0.81006400  0.24604200  1
  O  O38  1  0.88896400  0.60591400  0.38433000  1
  O  O39  1  0.79771800  0.41653500  0.07483200  1
  O  O40  1  0.89637700  0.59448200  0.93585800  1
  O  O41  1  0.79771800  0.38118300  0.59183500  1
  O  O42  1  0.69810500  0.10362300  0.60252400  1
  O  O43  1  0.71695000  0.11103600  0.05099700  1
  O  O44  1  0.88896400  0.28305000  0.28233700  1
  O  O45  1  0.89637700  0.30189500  0.73080900  1
  O  O46  1  0.87728000  0.06721600  0.91270900  1
  O  O47  1  0.93278400  0.12272000  0.42062500  1
loop_
_geom_bond_atom_site_label_1
_geom_bond_atom_site_label_2
_geom_bond_distance
_geom_bond_site_symmetry_2
Li0 O7 2.009562 1_554
Li0 O40 2.009562 1_454
Li0 O8 2.049471 1_555
Li0 O39 2.049471 1_455
Li1 O2 2.009561 1_555
Li1 O45 2.009561 1_455
Li1 O6 2.049471 1_555
Li1 O41 2.049471 1_455
Li2 O44 2.085011 1_455
Li2 O3 2.085011 1_555
Li2 O38 2.085015 1_455
Li2 O9 2.085015 1_555
Li3 O10 2.018792 1_555
Li3 O37 2.018792 1_445
Li3 O19 2.018798 1_555
Li3 O28 2.018798 1_445
Li4 O29 2.018792 1_445
Li4 O18 2.018792 1_555
Li4 O0 2.018792 1_545
Li4 O47 2.018792 1_455
Li5 O34 2.018792 1_445
Li5 O13 2.018792 1_555
Li5 O46 2.018798 1_455
Li5 O1 2.018798 1_545
Li6 O24 2.009561 1_555
Li6 O23 2.009561 1_555
Li6 O17 2.049471 1_555
Li6 O30 2.049471 1_555
Li7 O25 2.085011 1_555
Li7 O22 2.085011 1_555
Li7 O14 2.085015 1_555
Li7 O33 2.085015 1_555
Li8 O31 2.009561 1_556
Li8 O16 2.009561 1_556
Li8 O32 2.049471 1_555
Li8 O15 2.049471 1_555
Li9 O27 2.009567 1_555
Li9 O20 2.009567 1_545
Li9 O35 2.049471 1_555
Li9 O12 2.049471 1_545
Li10 O4 2.085015 1_545
Li10 O43 2.085015 1_555
Li10 O21 2.085015 1_544
Li10 O26 2.085015 1_554
Li11 O42 2.009567 1_555
Li11 O5 2.009567 1_545
Li11 O36 2.049471 1_555
Li11 O11 2.049471 1_545
Co0 O2 1.922804 1_555
Co0 O40 1.922812 1_455
Co0 O34 1.972363 1_455
Co0 O1 1.972369 1_555
Co1 O45 1.922804 1_455
Co1 O7 1.922812 1_555
Co1 O13 1.972363 1_555
Co1 O46 1.972369 1_455
Co2 O12 1.943997 1_555
Co2 O8 1.944005 1_555
Co2 O4 1.947447 1_555
Co2 O3 1.947447 1_555
Co3 O17 1.944005 1_555
Co3 O6 1.944005 1_555
Co3 O9 1.947447 1_555
Co3 O14 1.947447 1_555
Co4 O11 1.943997 1_555
Co4 O15 1.944005 1_555
Co4 O21 1.947447 1_555
Co4 O22 1.947447 1_555
Co5 O23 1.922803 1_555
Co5 O16 1.922812 1_555
Co5 O10 1.972363 1_555
Co5 O19 1.972369 1_555
Co6 O27 1.922803 1_555
Co6 O5 1.922804 1_545
Co6 O0 1.972363 1_545
Co6 O18 1.972363 1_555
Co7 O24 1.922803 1_555
Co7 O31 1.922812 1_555
Co7 O37 1.972363 1_555
Co7 O28 1.972369 1_555
Co8 O36 1.943997 1_555
Co8 O32 1.944005 1_555
Co8 O26 1.947447 1_555
Co8 O25 1.947447 1_555
Co9 O30 1.944005 1_555
Co9 O41 1.944005 1_555
Co9 O38 1.947447 1_555
Co9 O33 1.947447 1_555
Co10 O35 1.943997 1_555
Co10 O39 1.944005 1_555
Co10 O43 1.947447 1_555
Co10 O44 1.947447 1_555
Co11 O20 1.922803 1_545
Co11 O42 1.922804 1_555
Co11 O47 1.972363 1_555
Co11 O29 1.972363 1_545
O0 P0 1.553852 1_555
O1 P6 1.553844 1_566
O2 P1 1.553236 1_555
O3 P0 1.555584 1_555
O4 P6 1.555589 1_565
O5 P1 1.553242 1_555
O6 P1 1.547468 1_555
O7 P3 1.553236 1_556
O8 P3 1.547468 1_555
O9 P2 1.555589 1_555
O10 P2 1.553844 1_555
O11 P1 1.547468 1_555
O12 P5 1.547468 1_555
O13 P4 1.553844 1_555
O14 P4 1.555589 1_555
O15 P3 1.547468 1_556
O16 P3 1.553236 1_555
O17 P5 1.547468 1_555
O18 P4 1.553852 1_555
O19 P6 1.553844 1_555
O20 P5 1.553242 1_555
O21 P11 1.555589 1_566
O22 P8 1.555584 1_555
O23 P7 1.553236 1_555
O24 P5 1.553236 1_555
O25 P4 1.555584 1_555
O26 P6 1.555589 1_556
O27 P7 1.553242 1_555
O28 P11 1.553844 1_565
O29 P8 1.553852 1_555
O30 P7 1.547468 1_555
O31 P9 1.553236 1_555
O32 P9 1.547468 1_556
O33 P8 1.555589 1_555
O34 P8 1.553844 1_555
O35 P7 1.547468 1_555
O36 P10 1.547468 1_555
O37 P0 1.553844 1_655
O38 P0 1.555589 1_655
O39 P9 1.547468 1_555
O40 P9 1.553236 1_556
O41 P10 1.547468 1_555
O42 P10 1.553242 1_555
O43 P11 1.555589 1_555
O44 P2 1.555584 1_655
O45 P10 1.553236 1_555
O46 P11 1.553844 1_556
O47 P2 1.553852 1_655
