# generated using pymatgen
data_Ti3Co2P6WO24
_symmetry_space_group_name_H-M   'P 1'
_cell_length_a   8.64580990
_cell_length_b   8.64580990
_cell_length_c   8.64581042
_cell_angle_alpha   60.48423124
_cell_angle_beta   60.48423124
_cell_angle_gamma   60.48422726
_symmetry_Int_Tables_number   1
_chemical_formula_structural   Ti3Co2P6WO24
_chemical_formula_sum   'Ti3 Co2 P6 W1 O24'
_cell_volume   461.98668801
_cell_formula_units_Z   1
loop_
 _symmetry_equiv_pos_site_id
 _symmetry_equiv_pos_as_xyz
  1  'x, y, z'
loop_
 _atom_site_type_symbol
 _atom_site_label
 _atom_site_symmetry_multiplicity
 _atom_site_fract_x
 _atom_site_fract_y
 _atom_site_fract_z
 _atom_site_occupancy
  Ti  Ti0  1  0.64399500  0.64399500  0.64399500  1
  Ti  Ti1  1  0.85740800  0.85740800  0.85740800  1
  Ti  Ti2  1  0.35628300  0.35628300  0.35628300  1
  Co  Co0  1  0.99517500  0.99517500  0.99517500  1
  Co  Co1  1  0.50057500  0.50057500  0.50057500  1
  P  P0  1  0.95472700  0.25225800  0.54603600  1
  P  P1  1  0.54603600  0.95472700  0.25225800  1
  P  P2  1  0.25225800  0.54603600  0.95472700  1
  P  P3  1  0.74397000  0.46209800  0.04248000  1
  P  P4  1  0.46209800  0.04248000  0.74397000  1
  P  P5  1  0.04248000  0.74397000  0.46209800  1
  W  W0  1  0.13937800  0.13937800  0.13937800  1
  O  O0  1  0.49732300  0.11947900  0.31356700  1
  O  O1  1  0.31356700  0.49732300  0.11947800  1
  O  O2  1  0.11947900  0.31356700  0.49732300  1
  O  O3  1  0.94136700  0.09058200  0.74028600  1
  O  O4  1  0.98300000  0.19208200  0.39480600  1
  O  O5  1  0.76268600  0.41572200  0.56671400  1
  O  O6  1  0.74028600  0.94136700  0.09058200  1
  O  O7  1  0.56671400  0.76268600  0.41572200  1
  O  O8  1  0.81125400  0.61967500  0.99930600  1
  O  O9  1  0.41572200  0.56671400  0.76268600  1
  O  O10  1  0.89864900  0.26739400  0.05021200  1
  O  O11  1  0.61967500  0.99930600  0.81125400  1
  O  O12  1  0.39480600  0.98300000  0.19208200  1
  O  O13  1  0.09058200  0.74028600  0.94136700  1
  O  O14  1  0.58175400  0.45033600  0.23556500  1
  O  O15  1  0.19208200  0.39480600  0.98300000  1
  O  O16  1  0.45033600  0.23556500  0.58175400  1
  O  O17  1  0.26739400  0.05021200  0.89864900  1
  O  O18  1  0.23556500  0.58175400  0.45033600  1
  O  O19  1  0.99930600  0.81125400  0.61967500  1
  O  O20  1  0.05021200  0.89864900  0.26739400  1
  O  O21  1  0.88341900  0.67605800  0.51439500  1
  O  O22  1  0.67605800  0.51439500  0.88341900  1
  O  O23  1  0.51439500  0.88341900  0.67605800  1
loop_
_geom_bond_atom_site_label_1
_geom_bond_atom_site_label_2
_geom_bond_distance
_geom_bond_site_symmetry_2
Co0 O13 2.143399 1_655
Co0 O6 2.143400 1_556
Co0 O3 2.143400 1_565
Co0 O10 2.288881 1_566
Co0 O17 2.288881 1_665
Co0 O20 2.288881 1_656
Co1 O18 2.242028 1_555
Co1 O16 2.242029 1_555
Co1 O14 2.242029 1_555
Co1 O5 2.286055 1_555
Co1 O7 2.286055 1_555
Co1 O9 2.286055 1_555
O0 P1 1.555694 1_545
O0 Ti2 1.912170 1_555
O1 P2 1.555686 1_554
O1 Ti2 1.912178 1_555
O2 P0 1.555694 1_455
O2 Ti2 1.912170 1_555
O3 P0 1.562888 1_555
O3 Ti1 2.079104 1_545
O4 P0 1.506668 1_555
O4 W0 2.086881 1_655
O5 P0 1.558991 1_555
O5 Ti0 2.005687 1_555
O6 P1 1.562888 1_555
O6 Ti1 2.079104 1_554
O7 P1 1.558991 1_555
O7 Ti0 2.005687 1_555
O8 P3 1.549091 1_556
O8 Ti1 1.931359 1_555
O9 P2 1.558991 1_555
O9 Ti0 2.005687 1_555
O10 P3 1.544564 1_555
O10 W0 2.149781 1_655
O11 P4 1.549091 1_565
O11 Ti1 1.931359 1_555
O12 P1 1.506668 1_555
O12 W0 2.086880 1_565
O13 P2 1.562888 1_555
O13 Ti1 2.079104 1_455
O14 P3 1.558995 1_555
O14 Ti2 2.066778 1_555
O15 P2 1.506668 1_555
O15 W0 2.086880 1_556
O16 P4 1.558995 1_555
O16 Ti2 2.066778 1_555
O17 P4 1.544564 1_555
O17 W0 2.149781 1_556
O18 P5 1.558995 1_555
O18 Ti2 2.066778 1_555
O19 P5 1.549091 1_655
O19 Ti1 1.931360 1_555
O20 P5 1.544564 1_555
O20 W0 2.149781 1_565
O21 P5 1.536797 1_655
O21 Ti0 1.895063 1_555
O22 P3 1.536797 1_556
O22 Ti0 1.895063 1_555
O23 P4 1.536797 1_565
O23 Ti0 1.895063 1_555
