# generated using pymatgen
data_Mn3Co3(SbO8)2
_symmetry_space_group_name_H-M   'P 1'
_cell_length_a   5.83081300
_cell_length_b   5.84395523
_cell_length_c   9.27510752
_cell_angle_alpha   90.52796718
_cell_angle_beta   89.89269283
_cell_angle_gamma   119.55006993
_symmetry_Int_Tables_number   1
_chemical_formula_structural   Mn3Co3(SbO8)2
_chemical_formula_sum   'Mn3 Co3 Sb2 O16'
_cell_volume   274.92630328
_cell_formula_units_Z   1
loop_
 _symmetry_equiv_pos_site_id
 _symmetry_equiv_pos_as_xyz
  1  'x, y, z'
loop_
 _atom_site_type_symbol
 _atom_site_label
 _atom_site_symmetry_multiplicity
 _atom_site_fract_x
 _atom_site_fract_y
 _atom_site_fract_z
 _atom_site_occupancy
  Mn  Mn0  1  0.33719400  0.17127700  0.21253100  1
  Mn  Mn1  1  0.17005000  0.33748500  0.71407200  1
  Mn  Mn2  1  0.17090500  0.83208200  0.71337200  1
  Co  Co0  1  0.83319500  0.17621800  0.21549200  1
  Co  Co1  1  0.82902800  0.66956600  0.20690400  1
  Co  Co2  1  0.66715300  0.83392000  0.70929900  1
  Sb  Sb0  1  0.67193500  0.33401600  0.48966800  1
  Sb  Sb1  1  0.33712200  0.67139500  0.99199100  1
  O  O0  1  0.83800200  0.16663100  0.60153900  1
  O  O1  1  0.96386500  0.46661500  0.33629800  1
  O  O2  1  0.66304700  0.31630300  0.10874600  1
  O  O3  1  0.00038300  0.01687400  0.30713100  1
  O  O4  1  0.01180300  0.00712400  0.81060200  1
  O  O5  1  0.84044900  0.67109000  0.59801600  1
  O  O6  1  0.52154200  0.03705700  0.33357400  1
  O  O7  1  0.51368800  0.47188500  0.34032900  1
  O  O8  1  0.67582500  0.84500100  0.09940700  1
  O  O9  1  0.33052000  0.16220900  0.60146400  1
  O  O10  1  0.47113800  0.50979600  0.84093200  1
  O  O11  1  0.46956900  0.96035500  0.83957600  1
  O  O12  1  0.31663900  0.65555100  0.60649400  1
  O  O13  1  0.16418500  0.32938900  0.10078900  1
  O  O14  1  0.03583500  0.51998900  0.83539400  1
  O  O15  1  0.16692800  0.83797300  0.10209700  1
loop_
_geom_bond_atom_site_label_1
_geom_bond_atom_site_label_2
_geom_bond_distance
_geom_bond_site_symmetry_2
Mn0 O2 1.916959 1_555
Mn0 O3 1.923832 1_555
Mn0 O7 1.932147 1_555
Mn0 O6 1.970649 1_555
Mn0 O13 1.971435 1_555
Mn0 O15 1.971904 1_545
Mn1 O12 1.909206 1_555
Mn1 O4 1.911001 1_555
Mn1 O10 1.929440 1_555
Mn1 O14 1.952962 1_555
Mn1 O0 1.979004 1_455
Mn1 O9 1.984321 1_555
Mn2 O12 1.900452 1_555
Mn2 O4 1.906881 1_565
Mn2 O11 1.915365 1_555
Mn2 O14 1.960992 1_555
Mn2 O9 1.981860 1_565
Mn2 O5 1.985865 1_455
Co0 O1 1.846295 1_555
Co0 O3 1.858217 1_655
Co0 O2 1.858613 1_555
Co0 O6 1.927264 1_555
Co0 O8 1.990294 1_545
Co0 O13 1.990889 1_655
Co1 O8 1.941319 1_555
Co1 O15 1.973125 1_655
Co1 O3 1.987561 1_665
Co1 O2 2.006340 1_555
Co1 O7 2.041933 1_555
Co1 O1 2.101114 1_555
Co2 O0 1.973171 1_565
Co2 O5 1.979463 1_555
Co2 O4 1.982173 1_665
Co2 O12 2.015054 1_555
Co2 O11 2.037465 1_555
Co2 O10 2.070454 1_555
O0 Sb0 1.981884 1_555
O1 Sb0 2.057107 1_555
O5 Sb0 1.978315 1_555
O6 Sb0 2.081856 1_555
O7 Sb0 2.043964 1_555
O8 Sb1 1.983584 1_554
O9 Sb0 2.021441 1_555
O10 Sb1 2.040816 1_555
O11 Sb1 2.049397 1_555
O13 Sb1 2.018719 1_554
O14 Sb1 2.105077 1_555
O15 Sb1 1.976398 1_554
