# generated using pymatgen
data_PrAgHg2
_symmetry_space_group_name_H-M   'P 1'
_cell_length_a   5.11032046
_cell_length_b   5.11031972
_cell_length_c   5.11032120
_cell_angle_alpha   60.00001900
_cell_angle_beta   60.00000481
_cell_angle_gamma   60.00001428
_symmetry_Int_Tables_number   1
_chemical_formula_structural   PrAgHg2
_chemical_formula_sum   'Pr1 Ag1 Hg2'
_cell_volume   94.36903890
_cell_formula_units_Z   1
loop_
 _symmetry_equiv_pos_site_id
 _symmetry_equiv_pos_as_xyz
  1  'x, y, z'
loop_
 _atom_site_type_symbol
 _atom_site_label
 _atom_site_symmetry_multiplicity
 _atom_site_fract_x
 _atom_site_fract_y
 _atom_site_fract_z
 _atom_site_occupancy
  Pr  Pr0  1  0.75000000  0.75000000  0.75000000  1
  Ag  Ag0  1  0.24999900  0.24999900  0.24999900  1
  Hg  Hg0  1  0.00000000  -0.00000000  0.00000000  1
  Hg  Hg1  1  0.50000000  0.50000000  0.50000000  1
loop_
_geom_bond_atom_site_label_1
_geom_bond_atom_site_label_2
_geom_bond_distance
_geom_bond_site_symmetry_2
Ag0 Hg0 3.129407 1_555
Ag0 Hg1 3.129416 1_545
Ag0 Hg1 3.129416 1_455
Ag0 Hg1 3.129416 1_554
Ag0 Hg0 3.129424 1_565
Ag0 Hg0 3.129424 1_655
Ag0 Hg0 3.129424 1_556
Ag0 Hg1 3.129432 1_555
Ag0 Pr0 3.613535 1_445
Ag0 Pr0 3.613535 1_544
Ag0 Pr0 3.613536 1_454
Ag0 Pr0 3.613549 1_554
Ag0 Pr0 3.613549 1_455
Ag0 Pr0 3.613551 1_545
Hg0 Pr0 3.129419 1_444
Hg0 Pr0 3.129420 1_454
Hg0 Pr0 3.129420 1_544
Hg0 Pr0 3.129420 1_445
Hg1 Pr0 3.129419 1_555
Hg1 Pr0 3.129420 1_545
Hg1 Pr0 3.129420 1_455
Hg1 Pr0 3.129420 1_554
