# generated using pymatgen
data_Li2Cr(SO4)2
_symmetry_space_group_name_H-M   'P 1'
_cell_length_a   9.42321100
_cell_length_b   9.44830900
_cell_length_c   13.98071000
_cell_angle_alpha   90.00000000
_cell_angle_beta   90.00000000
_cell_angle_gamma   90.00000000
_symmetry_Int_Tables_number   1
_chemical_formula_structural   Li2Cr(SO4)2
_chemical_formula_sum   'Li16 Cr8 S16 O64'
_cell_volume   1244.75027574
_cell_formula_units_Z   8
loop_
 _symmetry_equiv_pos_site_id
 _symmetry_equiv_pos_as_xyz
  1  'x, y, z'
loop_
 _atom_site_type_symbol
 _atom_site_label
 _atom_site_symmetry_multiplicity
 _atom_site_fract_x
 _atom_site_fract_y
 _atom_site_fract_z
 _atom_site_occupancy
  Li  Li0  1  0.03291900  0.21971100  0.37463900  1
  Li  Li1  1  0.03291900  0.28028900  0.87463900  1
  Li  Li2  1  0.22278600  0.95402000  0.37297700  1
  Li  Li3  1  0.22278600  0.54598000  0.87297700  1
  Li  Li4  1  0.27721400  0.04598000  0.87297700  1
  Li  Li5  1  0.27721400  0.45402000  0.37297700  1
  Li  Li6  1  0.46708100  0.71971100  0.37463900  1
  Li  Li7  1  0.46708100  0.78028900  0.87463900  1
  Li  Li8  1  0.53291900  0.21971100  0.12536100  1
  Li  Li9  1  0.53291900  0.28028900  0.62536100  1
  Li  Li10  1  0.72278600  0.54598000  0.62702300  1
  Li  Li11  1  0.72278600  0.95402000  0.12702300  1
  Li  Li12  1  0.77721400  0.45402000  0.12702300  1
  Li  Li13  1  0.77721400  0.04598000  0.62702300  1
  Li  Li14  1  0.96708100  0.78028900  0.62536100  1
  Li  Li15  1  0.96708100  0.71971100  0.12536100  1
  Cr  Cr0  1  0.14031500  0.10321000  0.12477300  1
  Cr  Cr1  1  0.14031500  0.39679000  0.62477300  1
  Cr  Cr2  1  0.35968500  0.60321000  0.12477300  1
  Cr  Cr3  1  0.35968500  0.89679000  0.62477300  1
  Cr  Cr4  1  0.64031500  0.10321000  0.37522700  1
  Cr  Cr5  1  0.64031500  0.39679000  0.87522700  1
  Cr  Cr6  1  0.85968500  0.60321000  0.37522700  1
  Cr  Cr7  1  0.85968500  0.89679000  0.87522700  1
  S  S0  1  0.07033500  0.06773700  0.73038300  1
  S  S1  1  0.07033500  0.43226300  0.23038300  1
  S  S2  1  0.16452900  0.69058200  0.49012700  1
  S  S3  1  0.16452900  0.80941800  0.99012700  1
  S  S4  1  0.33547100  0.19058200  0.49012700  1
  S  S5  1  0.33547100  0.30941800  0.99012700  1
  S  S6  1  0.42966500  0.93226300  0.23038300  1
  S  S7  1  0.42966500  0.56773700  0.73038300  1
  S  S8  1  0.57033500  0.43226300  0.26961700  1
  S  S9  1  0.57033500  0.06773700  0.76961700  1
  S  S10  1  0.66452900  0.69058200  0.00987300  1
  S  S11  1  0.66452900  0.80941800  0.50987300  1
  S  S12  1  0.83547100  0.19058200  0.00987300  1
  S  S13  1  0.83547100  0.30941800  0.50987300  1
  S  S14  1  0.92966500  0.56773700  0.76961700  1
  S  S15  1  0.92966500  0.93226300  0.26961700  1
  O  O0  1  0.00802400  0.70302400  0.47917500  1
  O  O1  1  0.00802400  0.79697600  0.97917500  1
  O  O2  1  0.01853900  0.99935600  0.34401800  1
  O  O3  1  0.01853900  0.50064400  0.84401800  1
  O  O4  1  0.01811200  0.46750700  0.32997700  1
  O  O5  1  0.01811200  0.03249300  0.82997700  1
  O  O6  1  0.06672100  0.22527900  0.72635600  1
  O  O7  1  0.06672100  0.27472100  0.22635600  1
  O  O8  1  0.19480600  0.73061400  0.08137500  1
  O  O9  1  0.19480600  0.76938600  0.58137500  1
  O  O10  1  0.20893400  0.95995300  0.99964600  1
  O  O11  1  0.20893400  0.54004700  0.49964600  1
  O  O12  1  0.21940800  0.01542200  0.72586100  1
  O  O13  1  0.21940800  0.48457800  0.22586100  1
  O  O14  1  0.24291200  0.75177400  0.40758600  1
  O  O15  1  0.24291200  0.74822600  0.90758600  1
  O  O16  1  0.25708800  0.25177400  0.40758600  1
  O  O17  1  0.25708800  0.24822600  0.90758600  1
  O  O18  1  0.28059200  0.98457800  0.22586100  1
  O  O19  1  0.28059200  0.51542200  0.72586100  1
  O  O20  1  0.29106600  0.04004700  0.49964600  1
  O  O21  1  0.29106600  0.45995300  0.99964600  1
  O  O22  1  0.30519400  0.23061400  0.08137500  1
  O  O23  1  0.30519400  0.26938600  0.58137500  1
  O  O24  1  0.43327900  0.77472100  0.22635600  1
  O  O25  1  0.43327900  0.72527900  0.72635600  1
  O  O26  1  0.48188800  0.53249300  0.82997700  1
  O  O27  1  0.48188800  0.96750700  0.32997700  1
  O  O28  1  0.48146100  0.49935600  0.34401800  1
  O  O29  1  0.48146100  0.00064400  0.84401800  1
  O  O30  1  0.49197600  0.20302400  0.47917500  1
  O  O31  1  0.49197600  0.29697600  0.97917500  1
  O  O32  1  0.50802400  0.70302400  0.02082500  1
  O  O33  1  0.50802400  0.79697600  0.52082500  1
  O  O34  1  0.51854000  0.50064400  0.65598200  1
  O  O35  1  0.51854000  0.99935600  0.15598200  1
  O  O36  1  0.51811200  0.46750700  0.17002300  1
  O  O37  1  0.51811200  0.03249300  0.67002300  1
  O  O38  1  0.56672100  0.27472100  0.27364400  1
  O  O39  1  0.56672100  0.22527900  0.77364400  1
  O  O40  1  0.69480600  0.73061400  0.41862500  1
  O  O41  1  0.69480600  0.76938600  0.91862500  1
  O  O42  1  0.70893400  0.54004700  0.00035400  1
  O  O43  1  0.70893400  0.95995300  0.50035400  1
  O  O44  1  0.71940800  0.48457800  0.27413900  1
  O  O45  1  0.71940800  0.01542200  0.77413900  1
  O  O46  1  0.74291200  0.75177400  0.09241400  1
  O  O47  1  0.74291200  0.74822600  0.59241400  1
  O  O48  1  0.75708800  0.25177400  0.09241400  1
  O  O49  1  0.75708800  0.24822600  0.59241400  1
  O  O50  1  0.78059200  0.51542200  0.77413900  1
  O  O51  1  0.78059200  0.98457800  0.27413900  1
  O  O52  1  0.79106600  0.45995300  0.50035400  1
  O  O53  1  0.79106600  0.04004700  0.00035400  1
  O  O54  1  0.80519400  0.23061400  0.41862500  1
  O  O55  1  0.80519400  0.26938600  0.91862500  1
  O  O56  1  0.93327900  0.72527900  0.77364400  1
  O  O57  1  0.93327900  0.77472100  0.27364400  1
  O  O58  1  0.98188800  0.53249300  0.67002300  1
  O  O59  1  0.98188800  0.96750700  0.17002300  1
  O  O60  1  0.98146000  0.00064400  0.65598200  1
  O  O61  1  0.98146000  0.49935600  0.15598200  1
  O  O62  1  0.99197600  0.20302400  0.02082500  1
  O  O63  1  0.99197600  0.29697600  0.52082500  1
loop_
_geom_bond_atom_site_label_1
_geom_bond_atom_site_label_2
_geom_bond_distance
_geom_bond_site_symmetry_2
Li0 O2 2.129855 1_545
Li0 O7 2.160868 1_555
Li0 O16 2.183150 1_555
Li0 O63 2.204278 1_455
Li0 O54 2.234653 1_455
Li0 O4 2.427101 1_555
Li1 O3 2.129855 1_555
Li1 O6 2.160868 1_555
Li1 O17 2.183150 1_555
Li1 O62 2.204278 1_456
Li1 O55 2.234653 1_455
Li1 O5 2.427101 1_555
Li2 O14 1.980293 1_555
Li2 O2 2.012890 1_555
Li2 O20 2.052026 1_565
Li2 O18 2.147195 1_555
Li2 O27 2.517722 1_555
Li3 O15 1.980293 1_555
Li3 O3 2.012890 1_555
Li3 O21 2.052026 1_555
Li3 O19 2.147195 1_555
Li3 O26 2.517722 1_555
Li4 O17 1.980293 1_555
Li4 O29 2.012890 1_555
Li4 O10 2.052026 1_545
Li4 O12 2.147195 1_555
Li4 O5 2.517722 1_555
Li5 O16 1.980293 1_555
Li5 O28 2.012890 1_555
Li5 O11 2.052026 1_555
Li5 O13 2.147195 1_555
Li5 O4 2.517722 1_555
Li6 O28 2.129855 1_555
Li6 O24 2.160868 1_555
Li6 O14 2.183150 1_555
Li6 O33 2.204278 1_555
Li6 O40 2.234653 1_555
Li6 O27 2.427101 1_555
Li7 O29 2.129855 1_565
Li7 O25 2.160868 1_555
Li7 O15 2.183150 1_555
Li7 O32 2.204278 1_556
Li7 O41 2.234653 1_555
Li7 O26 2.427101 1_555
Li8 O35 2.129855 1_545
Li8 O38 2.160868 1_555
Li8 O48 2.183150 1_555
Li8 O31 2.204278 1_554
Li8 O22 2.234653 1_555
Li8 O36 2.427101 1_555
Li9 O34 2.129855 1_555
Li9 O39 2.160868 1_555
Li9 O49 2.183150 1_555
Li9 O30 2.204278 1_555
Li9 O23 2.234653 1_555
Li9 O37 2.427101 1_555
Li10 O47 1.980293 1_555
Li10 O34 2.012881 1_555
Li10 O52 2.052026 1_555
Li10 O50 2.147195 1_555
Li10 O58 2.517722 1_555
Li11 O46 1.980293 1_555
Li11 O35 2.012881 1_555
Li11 O53 2.052026 1_565
Li11 O51 2.147195 1_555
Li11 O59 2.517722 1_555
Li12 O48 1.980293 1_555
Li12 O61 2.012881 1_555
Li12 O42 2.052026 1_555
Li12 O44 2.147195 1_555
Li12 O36 2.517722 1_555
Li13 O49 1.980293 1_555
Li13 O60 2.012881 1_555
Li13 O43 2.052026 1_545
Li13 O45 2.147195 1_555
Li13 O37 2.517722 1_555
Li14 O60 2.129855 1_565
Li14 O56 2.160868 1_555
Li14 O47 2.183150 1_555
Li14 O0 2.204278 1_655
Li14 O9 2.234653 1_655
Li14 O58 2.427101 1_555
Li15 O61 2.129855 1_555
Li15 O57 2.160868 1_555
Li15 O46 2.183150 1_555
Li15 O1 2.204278 1_654
Li15 O8 2.234653 1_655
Li15 O59 2.427101 1_555
Cr0 O22 2.056963 1_555
Cr0 O59 2.067096 1_445
Cr0 O62 2.226050 1_455
Cr0 O18 2.236299 1_545
Cr0 O7 2.263601 1_555
Cr0 O10 2.304440 1_544
Cr1 O23 2.056963 1_555
Cr1 O58 2.067096 1_455
Cr1 O63 2.226050 1_455
Cr1 O19 2.236299 1_555
Cr1 O6 2.263601 1_555
Cr1 O11 2.304440 1_555
Cr2 O8 2.056963 1_555
Cr2 O36 2.067096 1_555
Cr2 O32 2.226050 1_555
Cr2 O13 2.236299 1_555
Cr2 O24 2.263601 1_555
Cr2 O21 2.304440 1_554
Cr3 O9 2.056963 1_555
Cr3 O37 2.067096 1_565
Cr3 O33 2.226050 1_555
Cr3 O12 2.236299 1_565
Cr3 O25 2.263601 1_555
Cr3 O20 2.304440 1_565
Cr4 O54 2.056963 1_555
Cr4 O27 2.067096 1_545
Cr4 O30 2.226050 1_555
Cr4 O51 2.236299 1_545
Cr4 O38 2.263601 1_555
Cr4 O43 2.304440 1_545
Cr5 O55 2.056963 1_555
Cr5 O26 2.067096 1_555
Cr5 O31 2.226050 1_555
Cr5 O50 2.236299 1_555
Cr5 O39 2.263601 1_555
Cr5 O42 2.304440 1_556
Cr6 O40 2.056963 1_555
Cr6 O4 2.067096 1_655
Cr6 O0 2.226050 1_655
Cr6 O44 2.236299 1_555
Cr6 O57 2.263601 1_555
Cr6 O52 2.304440 1_555
Cr7 O41 2.056963 1_555
Cr7 O5 2.067096 1_665
Cr7 O1 2.226050 1_655
Cr7 O45 2.236299 1_565
Cr7 O56 2.263601 1_555
Cr7 O53 2.304440 1_566
O0 S2 1.487360 1_555
O1 S3 1.487360 1_555
O2 S15 1.478239 1_455
O3 S14 1.478239 1_455
O4 S1 1.513876 1_555
O5 S0 1.513876 1_555
O6 S0 1.489959 1_555
O7 S1 1.489959 1_555
O8 S3 1.504399 1_554
O9 S2 1.504399 1_555
O10 S3 1.488537 1_555
O11 S2 1.488537 1_555
O12 S0 1.490513 1_555
O13 S1 1.490513 1_555
O14 S2 1.487112 1_555
O15 S3 1.487112 1_555
O16 S4 1.487112 1_555
O17 S5 1.487112 1_555
O18 S6 1.490513 1_555
O19 S7 1.490513 1_555
O20 S4 1.488537 1_555
O21 S5 1.488537 1_555
O22 S5 1.504399 1_554
O23 S4 1.504399 1_555
O24 S6 1.489959 1_555
O25 S7 1.489959 1_555
O26 S7 1.513876 1_555
O27 S6 1.513876 1_555
O28 S8 1.478239 1_555
O29 S9 1.478239 1_555
O30 S4 1.487360 1_555
O31 S5 1.487360 1_555
O32 S10 1.487360 1_555
O33 S11 1.487360 1_555
O34 S7 1.478244 1_555
O35 S6 1.478244 1_555
O36 S8 1.513876 1_555
O37 S9 1.513876 1_555
O38 S8 1.489959 1_555
O39 S9 1.489959 1_555
O40 S11 1.504399 1_555
O41 S10 1.504399 1_556
O42 S10 1.488537 1_555
O43 S11 1.488537 1_555
O44 S8 1.490513 1_555
O45 S9 1.490513 1_555
O46 S10 1.487112 1_555
O47 S11 1.487112 1_555
O48 S12 1.487112 1_555
O49 S13 1.487112 1_555
O50 S14 1.490513 1_555
O51 S15 1.490513 1_555
O52 S13 1.488537 1_555
O53 S12 1.488537 1_555
O54 S13 1.504399 1_555
O55 S12 1.504399 1_556
O56 S14 1.489959 1_555
O57 S15 1.489959 1_555
O58 S14 1.513876 1_555
O59 S15 1.513876 1_555
O60 S0 1.478244 1_655
O61 S1 1.478244 1_655
O62 S12 1.487360 1_555
O63 S13 1.487360 1_555
