# generated using pymatgen
data_Sr17(Li2Hg3)3
_symmetry_space_group_name_H-M   'P 1'
_cell_length_a   14.43448708
_cell_length_b   14.43448708
_cell_length_c   14.43448708
_cell_angle_alpha   109.47122063
_cell_angle_beta   109.47122063
_cell_angle_gamma   109.47122063
_symmetry_Int_Tables_number   1
_chemical_formula_structural   Sr17(Li2Hg3)3
_chemical_formula_sum   'Sr34 Li12 Hg18'
_cell_volume   2315.16622148
_cell_formula_units_Z   2
loop_
 _symmetry_equiv_pos_site_id
 _symmetry_equiv_pos_as_xyz
  1  'x, y, z'
loop_
 _atom_site_type_symbol
 _atom_site_label
 _atom_site_symmetry_multiplicity
 _atom_site_fract_x
 _atom_site_fract_y
 _atom_site_fract_z
 _atom_site_occupancy
  Sr  Sr0  1  0.00000000  0.00000000  0.00000000  1
  Sr  Sr1  1  0.44886100  0.18778800  0.00000000  1
  Sr  Sr2  1  0.18778800  0.44886100  0.00000000  1
  Sr  Sr3  1  0.50000000  0.50000000  0.00000000  1
  Sr  Sr4  1  0.81221200  0.55113900  0.00000000  1
  Sr  Sr5  1  0.55113900  0.81221200  0.00000000  1
  Sr  Sr6  1  0.44886100  0.00000000  0.18778800  1
  Sr  Sr7  1  0.73892700  0.18778800  0.18778800  1
  Sr  Sr8  1  0.00000000  0.44886100  0.18778800  1
  Sr  Sr9  1  0.18778800  0.73892700  0.18778800  1
  Sr  Sr10  1  0.75000000  0.50000000  0.25000000  1
  Sr  Sr11  1  0.50000000  0.75000000  0.25000000  1
  Sr  Sr12  1  0.44886100  0.44886100  0.26107300  1
  Sr  Sr13  1  0.81221200  0.81221200  0.26107300  1
  Sr  Sr14  1  0.18778800  0.00000000  0.44886100  1
  Sr  Sr15  1  0.00000000  0.18778800  0.44886100  1
  Sr  Sr16  1  0.44886100  0.26107300  0.44886100  1
  Sr  Sr17  1  0.26107300  0.44886100  0.44886100  1
  Sr  Sr18  1  0.50000000  0.00000000  0.50000000  1
  Sr  Sr19  1  0.75000000  0.25000000  0.50000000  1
  Sr  Sr20  1  0.00000000  0.50000000  0.50000000  1
  Sr  Sr21  1  0.25000000  0.75000000  0.50000000  1
  Sr  Sr22  1  0.81221200  0.00000000  0.55113900  1
  Sr  Sr23  1  0.00000000  0.81221200  0.55113900  1
  Sr  Sr24  1  0.73892700  0.55113900  0.55113900  1
  Sr  Sr25  1  0.55113900  0.73892700  0.55113900  1
  Sr  Sr26  1  0.18778800  0.18778800  0.73892700  1
  Sr  Sr27  1  0.55113900  0.55113900  0.73892700  1
  Sr  Sr28  1  0.50000000  0.25000000  0.75000000  1
  Sr  Sr29  1  0.25000000  0.50000000  0.75000000  1
  Sr  Sr30  1  0.55113900  0.00000000  0.81221200  1
  Sr  Sr31  1  0.81221200  0.26107300  0.81221200  1
  Sr  Sr32  1  0.00000000  0.55113900  0.81221200  1
  Sr  Sr33  1  0.26107300  0.81221200  0.81221200  1
  Li  Li0  1  0.85203800  0.14796200  0.00000000  1
  Li  Li1  1  0.14796200  0.85203800  0.00000000  1
  Li  Li2  1  0.85203800  0.00000000  0.14796200  1
  Li  Li3  1  0.00000000  0.85203800  0.14796200  1
  Li  Li4  1  0.29592500  0.14796200  0.14796200  1
  Li  Li5  1  0.14796200  0.29592500  0.14796200  1
  Li  Li6  1  0.14796200  0.14796200  0.29592500  1
  Li  Li7  1  0.85203800  0.85203800  0.70407500  1
  Li  Li8  1  0.14796200  0.00000000  0.85203800  1
  Li  Li9  1  0.00000000  0.14796200  0.85203800  1
  Li  Li10  1  0.85203800  0.70407500  0.85203800  1
  Li  Li11  1  0.70407500  0.85203800  0.85203800  1
  Hg  Hg0  1  0.23116600  0.23116600  0.00000000  1
  Hg  Hg1  1  0.70467800  0.29532200  0.00000000  1
  Hg  Hg2  1  0.29532200  0.70467800  0.00000000  1
  Hg  Hg3  1  0.76883400  0.76883400  0.00000000  1
  Hg  Hg4  1  0.23116600  0.00000000  0.23116600  1
  Hg  Hg5  1  0.00000000  0.23116600  0.23116600  1
  Hg  Hg6  1  0.70467800  0.00000000  0.29532200  1
  Hg  Hg7  1  0.59064300  0.29532200  0.29532200  1
  Hg  Hg8  1  0.29532200  0.59064300  0.29532200  1
  Hg  Hg9  1  0.00000000  0.70467800  0.29532200  1
  Hg  Hg10  1  0.70467800  0.70467800  0.40935700  1
  Hg  Hg11  1  0.29532200  0.29532200  0.59064300  1
  Hg  Hg12  1  0.29532200  0.00000000  0.70467800  1
  Hg  Hg13  1  0.00000000  0.29532200  0.70467800  1
  Hg  Hg14  1  0.70467800  0.40935700  0.70467800  1
  Hg  Hg15  1  0.40935700  0.70467800  0.70467800  1
  Hg  Hg16  1  0.76883400  0.00000000  0.76883400  1
  Hg  Hg17  1  0.00000000  0.76883400  0.76883400  1
loop_
_geom_bond_atom_site_label_1
_geom_bond_atom_site_label_2
_geom_bond_distance
_geom_bond_site_symmetry_2
Sr1 Sr3 4.317031 1_555
Sr2 Sr3 4.317031 1_555
Sr3 Sr4 4.317031 1_555
Sr3 Sr5 4.317031 1_555
Sr10 Sr20 4.166878 1_655
Sr10 Sr3 4.166878 1_555
Sr11 Sr18 4.166878 1_565
Sr11 Sr3 4.166878 1_555
Sr12 Sr3 4.317031 1_555
Sr13 Sr3 4.317031 1_555
Sr14 Sr18 4.317031 1_555
Sr15 Sr20 4.317031 1_555
Sr16 Sr18 4.317031 1_555
Sr17 Sr20 4.317031 1_555
Sr18 Sr19 4.166878 1_555
Sr18 Sr21 4.166878 1_545
Sr18 Sr28 4.166878 1_555
Sr18 Sr6 4.317031 1_555
Sr18 Sr9 4.317031 1_545
Sr18 Sr30 4.317031 1_555
Sr18 Sr22 4.317031 1_555
Sr18 Sr25 4.317031 1_545
Sr18 Sr31 4.317031 1_555
Sr19 Sr20 4.166878 1_655
Sr20 Sr29 4.166878 1_555
Sr20 Sr21 4.166878 1_555
Sr20 Sr32 4.317031 1_555
Sr20 Sr23 4.317031 1_555
Sr20 Sr7 4.317031 1_455
Sr20 Sr24 4.317031 1_455
Sr20 Sr8 4.317031 1_555
Sr20 Sr33 4.317031 1_555
Sr26 Sr3 4.317031 1_556
Sr27 Sr3 4.317031 1_556
Sr28 Sr3 4.166878 1_556
Sr29 Sr3 4.166878 1_556
Li0 Sr0 3.487674 1_655
Li1 Sr0 3.487674 1_565
Li2 Sr0 3.487674 1_655
Li3 Sr0 3.487674 1_565
Li4 Sr0 3.487686 1_555
Li5 Sr0 3.487686 1_555
Li6 Sr0 3.487686 1_555
Li7 Sr0 3.487686 1_666
Li8 Sr0 3.487674 1_556
Li9 Sr0 3.487674 1_556
Li10 Sr0 3.487686 1_666
Li11 Sr0 3.487686 1_666
Hg0 Li9 2.829339 1_554
Hg0 Li8 2.829339 1_554
Hg0 Li4 2.829342 1_555
Hg0 Li5 2.829342 1_555
Hg0 Sr2 3.402629 1_555
Hg0 Sr26 3.402629 1_554
Hg0 Sr12 3.402629 1_555
Hg0 Sr1 3.402629 1_555
Hg0 Sr0 3.852962 1_555
Hg1 Sr28 3.494107 1_554
Hg1 Sr10 3.494107 1_555
Hg1 Sr1 3.496203 1_555
Hg1 Sr4 3.496203 1_555
Hg1 Sr7 3.524820 1_555
Hg1 Sr8 3.524820 1_655
Hg1 Sr31 3.524820 1_554
Hg1 Sr30 3.524820 1_554
Hg2 Sr11 3.494107 1_555
Hg2 Sr29 3.494107 1_554
Hg2 Sr2 3.496203 1_555
Hg2 Sr5 3.496203 1_555
Hg2 Sr33 3.524820 1_554
Hg2 Sr9 3.524820 1_555
Hg2 Sr32 3.524820 1_554
Hg2 Sr6 3.524820 1_565
Hg3 Li2 2.829339 1_565
Hg3 Li3 2.829339 1_655
Hg3 Li11 2.829342 1_554
Hg3 Li10 2.829342 1_554
Hg3 Sr27 3.402629 1_554
Hg3 Sr13 3.402629 1_555
Hg3 Sr4 3.402629 1_555
Hg3 Sr5 3.402629 1_555
Hg3 Sr0 3.852962 1_665
Hg4 Li3 2.829339 1_545
Hg4 Li1 2.829339 1_545
Hg4 Li6 2.829342 1_555
Hg4 Li4 2.829342 1_555
Hg4 Sr14 3.402629 1_555
Hg4 Sr16 3.402629 1_555
Hg4 Sr9 3.402629 1_545
Hg4 Sr6 3.402629 1_555
Hg4 Sr0 3.852962 1_555
Hg5 Li2 2.829339 1_455
Hg5 Li0 2.829339 1_455
Hg5 Li6 2.829342 1_555
Hg5 Li5 2.829342 1_555
Hg5 Sr15 3.402629 1_555
Hg5 Sr17 3.402629 1_555
Hg5 Sr7 3.402629 1_455
Hg5 Sr8 3.402629 1_555
Hg5 Sr0 3.852962 1_555
Hg6 Sr11 3.494107 1_545
Hg6 Sr19 3.494107 1_555
Hg6 Sr6 3.496203 1_555
Hg6 Sr22 3.496203 1_555
Hg6 Sr7 3.524820 1_555
Hg6 Sr13 3.524820 1_545
Hg6 Sr15 3.524820 1_655
Hg6 Sr5 3.524820 1_545
Hg7 Sr10 3.494113 1_555
Hg7 Sr19 3.494113 1_555
Hg7 Sr24 3.496202 1_555
Hg7 Sr7 3.496216 1_555
Hg7 Sr16 3.524809 1_555
Hg7 Sr12 3.524809 1_555
Hg7 Sr6 3.524819 1_555
Hg7 Sr1 3.524819 1_555
Hg8 Sr11 3.494113 1_555
Hg8 Sr21 3.494113 1_555
Hg8 Sr25 3.496202 1_555
Hg8 Sr9 3.496216 1_555
Hg8 Sr12 3.524809 1_555
Hg8 Sr17 3.524809 1_555
Hg8 Sr2 3.524819 1_555
Hg8 Sr8 3.524819 1_555
Hg9 Sr21 3.494107 1_555
Hg9 Sr10 3.494107 1_455
Hg9 Sr8 3.496203 1_555
Hg9 Sr23 3.496203 1_555
Hg9 Sr14 3.524820 1_565
Hg9 Sr4 3.524820 1_455
Hg9 Sr9 3.524820 1_555
Hg9 Sr13 3.524820 1_455
Hg10 Sr11 3.494113 1_555
Hg10 Sr10 3.494113 1_555
Hg10 Sr12 3.496202 1_555
Hg10 Sr13 3.496216 1_555
Hg10 Sr25 3.524809 1_555
Hg10 Sr24 3.524809 1_555
Hg10 Sr23 3.524819 1_655
Hg10 Sr22 3.524819 1_565
Hg11 Sr29 3.494113 1_555
Hg11 Sr28 3.494113 1_555
Hg11 Sr27 3.496202 1_555
Hg11 Sr26 3.496216 1_555
Hg11 Sr16 3.524809 1_555
Hg11 Sr17 3.524809 1_555
Hg11 Sr14 3.524819 1_555
Hg11 Sr15 3.524819 1_555
Hg12 Sr21 3.494107 1_545
Hg12 Sr28 3.494107 1_555
Hg12 Sr14 3.496203 1_555
Hg12 Sr30 3.496203 1_555
Hg12 Sr23 3.524820 1_545
Hg12 Sr1 3.524820 1_556
Hg12 Sr33 3.524820 1_545
Hg12 Sr26 3.524820 1_555
Hg13 Sr19 3.494107 1_455
Hg13 Sr29 3.494107 1_555
Hg13 Sr15 3.496203 1_555
Hg13 Sr32 3.496203 1_555
Hg13 Sr22 3.524820 1_455
Hg13 Sr31 3.524820 1_455
Hg13 Sr26 3.524820 1_555
Hg13 Sr2 3.524820 1_556
Hg14 Sr28 3.494113 1_555
Hg14 Sr19 3.494113 1_555
Hg14 Sr16 3.496202 1_555
Hg14 Sr31 3.496216 1_555
Hg14 Sr27 3.524809 1_555
Hg14 Sr24 3.524809 1_555
Hg14 Sr4 3.524819 1_556
Hg14 Sr32 3.524819 1_655
Hg15 Sr29 3.494113 1_555
Hg15 Sr21 3.494113 1_555
Hg15 Sr17 3.496202 1_555
Hg15 Sr33 3.496216 1_555
Hg15 Sr25 3.524809 1_555
Hg15 Sr27 3.524809 1_555
Hg15 Sr30 3.524819 1_565
Hg15 Sr5 3.524819 1_556
Hg16 Li0 2.829339 1_556
Hg16 Li9 2.829339 1_655
Hg16 Li11 2.829342 1_545
Hg16 Li7 2.829342 1_545
Hg16 Sr22 3.402629 1_555
Hg16 Sr31 3.402629 1_555
Hg16 Sr25 3.402629 1_545
Hg16 Sr30 3.402629 1_555
Hg16 Sr0 3.852962 1_656
Hg17 Li1 2.829339 1_556
Hg17 Li8 2.829339 1_565
Hg17 Li10 2.829342 1_455
Hg17 Li7 2.829342 1_455
Hg17 Sr24 3.402629 1_455
Hg17 Sr33 3.402629 1_555
Hg17 Sr23 3.402629 1_555
Hg17 Sr32 3.402629 1_555
Hg17 Sr0 3.852962 1_566
