# generated using pymatgen
data_V6O13
_symmetry_space_group_name_H-M   'P 1'
_cell_length_a   3.74320100
_cell_length_b   10.30036600
_cell_length_c   12.15976556
_cell_angle_alpha   79.15163326
_cell_angle_beta   90.00000000
_cell_angle_gamma   90.00000000
_symmetry_Int_Tables_number   1
_chemical_formula_structural   V6O13
_chemical_formula_sum   'V12 O26'
_cell_volume   460.45735914
_cell_formula_units_Z   2
loop_
 _symmetry_equiv_pos_site_id
 _symmetry_equiv_pos_as_xyz
  1  'x, y, z'
loop_
 _atom_site_type_symbol
 _atom_site_label
 _atom_site_symmetry_multiplicity
 _atom_site_fract_x
 _atom_site_fract_y
 _atom_site_fract_z
 _atom_site_occupancy
  V  V0  1  0.25000000  0.63485800  0.46341500  1
  V  V1  1  0.25000000  0.36527400  0.03625700  1
  V  V2  1  0.75000000  0.63472600  0.96374300  1
  V  V3  1  0.75000000  0.36514200  0.53658500  1
  V  V4  1  0.25000000  0.63614700  0.16273400  1
  V  V5  1  0.75000000  0.36385300  0.83726600  1
  V  V6  1  0.25000000  0.36394600  0.33698600  1
  V  V7  1  0.75000000  0.63605400  0.66301400  1
  V  V8  1  0.25000000  0.00164100  0.10295200  1
  V  V9  1  0.25000000  0.99917400  0.40023100  1
  V  V10  1  0.75000000  0.99835900  0.89704800  1
  V  V11  1  0.75000000  0.00082600  0.59976900  1
  O  O0  1  0.75000000  0.80213500  0.63688800  1
  O  O1  1  0.25000000  0.80205400  0.13563100  1
  O  O2  1  0.25000000  0.19786500  0.36311200  1
  O  O3  1  0.75000000  0.19794600  0.86436900  1
  O  O4  1  0.25000000  0.80162400  0.42626800  1
  O  O5  1  0.25000000  0.19807300  0.07235000  1
  O  O6  1  0.75000000  0.80192700  0.92765000  1
  O  O7  1  0.75000000  0.19837600  0.57373200  1
  O  O8  1  0.25000000  0.59104700  0.31012900  1
  O  O9  1  0.75000000  0.59102800  0.81050700  1
  O  O10  1  0.75000000  0.40895300  0.68987100  1
  O  O11  1  0.25000000  0.40897200  0.18949300  1
  O  O12  1  0.25000000  0.61541200  0.63018000  1
  O  O13  1  0.75000000  0.61475000  0.13014300  1
  O  O14  1  0.75000000  0.38458800  0.36982000  1
  O  O15  1  0.25000000  0.38525000  0.86985700  1
  O  O16  1  0.25000000  0.41036600  0.49650600  1
  O  O17  1  0.75000000  0.58963400  0.50349400  1
  O  O18  1  0.75000000  0.41060500  0.99654400  1
  O  O19  1  0.25000000  0.58939500  0.00345600  1
  O  O20  1  0.25000000  0.99964800  0.24571400  1
  O  O21  1  0.75000000  0.00035200  0.75428600  1
  O  O22  1  0.75000000  0.00047300  0.06648500  1
  O  O23  1  0.25000000  0.99959700  0.57166400  1
  O  O24  1  0.75000000  0.00040300  0.42833600  1
  O  O25  1  0.25000000  0.99952700  0.93351500  1
loop_
_geom_bond_atom_site_label_1
_geom_bond_atom_site_label_2
_geom_bond_distance
_geom_bond_site_symmetry_2
O0 V7 1.680128 1_555
O0 V11 2.011104 1_565
O1 V4 1.678381 1_555
O1 V8 2.019106 1_565
O2 V6 1.680128 1_555
O2 V9 2.011104 1_545
O3 V5 1.678381 1_555
O3 V10 2.019106 1_545
O4 V0 1.691932 1_555
O4 V9 1.999574 1_555
O5 V1 1.695340 1_555
O5 V8 1.987181 1_555
O6 V2 1.695340 1_555
O6 V10 1.987181 1_555
O7 V3 1.691932 1_555
O7 V11 1.999574 1_555
O8 V4 1.764849 1_555
O8 V0 1.998616 1_555
O8 V6 2.300230 1_555
O9 V7 1.765946 1_555
O9 V2 1.997557 1_555
O9 V5 2.301044 1_555
O10 V5 1.764849 1_555
O10 V3 1.998616 1_555
O10 V7 2.300230 1_555
O11 V6 1.765946 1_555
O11 V1 1.997557 1_555
O11 V4 2.301044 1_555
O12 V7 1.933767 1_555
O12 V7 1.933767 1_455
O12 V0 1.999824 1_555
O13 V4 1.934268 1_555
O13 V4 1.934268 1_655
O13 V2 1.994921 1_554
O14 V6 1.933767 1_555
O14 V6 1.933767 1_655
O14 V3 1.999824 1_555
O15 V5 1.934268 1_555
O15 V5 1.934268 1_455
O15 V1 1.994921 1_556
O16 V3 1.967724 1_455
O16 V3 1.967724 1_555
O16 V6 2.083333 1_555
O16 V0 2.271262 1_555
O17 V0 1.967724 1_655
O17 V0 1.967724 1_555
O17 V7 2.083333 1_555
O17 V3 2.271262 1_555
O18 V1 1.967035 1_556
O18 V1 1.967035 1_656
O18 V5 2.081853 1_555
O18 V2 2.267552 1_555
O19 V2 1.967035 1_454
O19 V2 1.967035 1_554
O19 V4 2.081853 1_555
O19 V1 2.267552 1_555
O20 V8 1.732206 1_565
O20 V9 1.877978 1_555
O21 V10 1.732206 1_545
O21 V11 1.877978 1_555
O22 V8 1.923973 1_555
O22 V8 1.923973 1_655
O22 V10 2.064523 1_544
O23 V11 1.903016 1_565
O23 V11 1.903016 1_465
O23 V9 2.085410 1_555
O24 V9 1.903016 1_645
O24 V9 1.903016 1_545
O24 V11 2.085410 1_555
O25 V10 1.923973 1_455
O25 V10 1.923973 1_555
O25 V8 2.064523 1_566
