# generated using pymatgen
data_BeSiRu2
_symmetry_space_group_name_H-M   'P 1'
_cell_length_a   4.02661865
_cell_length_b   4.02661865
_cell_length_c   4.02661865
_cell_angle_alpha   60.00000000
_cell_angle_beta   60.00000000
_cell_angle_gamma   60.00000000
_symmetry_Int_Tables_number   1
_chemical_formula_structural   BeSiRu2
_chemical_formula_sum   'Be1 Si1 Ru2'
_cell_volume   46.16432641
_cell_formula_units_Z   1
loop_
 _symmetry_equiv_pos_site_id
 _symmetry_equiv_pos_as_xyz
  1  'x, y, z'
loop_
 _atom_site_type_symbol
 _atom_site_label
 _atom_site_symmetry_multiplicity
 _atom_site_fract_x
 _atom_site_fract_y
 _atom_site_fract_z
 _atom_site_occupancy
  Be  Be0  1  0.25000000  0.25000000  0.25000000  1
  Si  Si0  1  0.75000000  0.75000000  0.75000000  1
  Ru  Ru0  1  0.00000000  -0.00000000  0.00000000  1
  Ru  Ru1  1  0.50000000  0.50000000  0.50000000  1
loop_
_geom_bond_atom_site_label_1
_geom_bond_atom_site_label_2
_geom_bond_distance
_geom_bond_site_symmetry_2
Be0 Ru0 2.465790 1_655
Be0 Ru0 2.465790 1_556
Be0 Ru1 2.465790 1_555
Be0 Ru1 2.465790 1_545
Be0 Ru1 2.465790 1_554
Be0 Ru0 2.465790 1_565
Be0 Ru0 2.465790 1_555
Be0 Ru1 2.465790 1_455
Ru0 Si0 2.465790 1_454
Ru0 Si0 2.465790 1_444
Ru0 Si0 2.465790 1_544
Ru0 Si0 2.465790 1_445
Ru1 Si0 2.465790 1_455
Ru1 Si0 2.465790 1_545
Ru1 Si0 2.465790 1_555
Ru1 Si0 2.465790 1_554
