# generated using pymatgen
data_NpSn3
_symmetry_space_group_name_H-M   'P 1'
_cell_length_a   4.69834795
_cell_length_b   4.69823578
_cell_length_c   4.69835230
_cell_angle_alpha   90.00000000
_cell_angle_beta   90.00000000
_cell_angle_gamma   90.00000000
_symmetry_Int_Tables_number   1
_chemical_formula_structural   NpSn3
_chemical_formula_sum   'Np1 Sn3'
_cell_volume   103.71117705
_cell_formula_units_Z   1
loop_
 _symmetry_equiv_pos_site_id
 _symmetry_equiv_pos_as_xyz
  1  'x, y, z'
loop_
 _atom_site_type_symbol
 _atom_site_label
 _atom_site_symmetry_multiplicity
 _atom_site_fract_x
 _atom_site_fract_y
 _atom_site_fract_z
 _atom_site_occupancy
  Np  Np0  1  -0.00000000  0.00000000  0.00000000  1
  Sn  Sn0  1  0.50000000  0.00000000  0.50000000  1
  Sn  Sn1  1  0.00000000  0.50000000  0.50000000  1
  Sn  Sn2  1  0.50000000  0.50000000  -0.00000000  1
loop_
_geom_bond_atom_site_label_1
_geom_bond_atom_site_label_2
_geom_bond_distance
_geom_bond_site_symmetry_2
Np0 Sn2 3.322194 1_545
Np0 Sn2 3.322194 1_445
Np0 Sn2 3.322194 1_455
Np0 Sn2 3.322194 1_555
Np0 Sn1 3.322196 1_544
Np0 Sn1 3.322196 1_555
Np0 Sn1 3.322196 1_545
Np0 Sn1 3.322196 1_554
Np0 Sn0 3.322235 1_454
Np0 Sn0 3.322235 1_455
Np0 Sn0 3.322235 1_554
Np0 Sn0 3.322235 1_555
Sn0 Sn1 3.322194 1_645
Sn0 Sn1 3.322194 1_555
Sn0 Sn1 3.322194 1_545
Sn0 Sn1 3.322194 1_655
Sn0 Sn2 3.322196 1_545
Sn0 Sn2 3.322196 1_555
Sn0 Sn2 3.322196 1_556
Sn0 Sn2 3.322196 1_546
Sn1 Sn2 3.322235 1_555
Sn1 Sn2 3.322235 1_456
Sn1 Sn2 3.322235 1_556
Sn1 Sn2 3.322235 1_455
