# generated using pymatgen
data_Cu2(SO4)3
_symmetry_space_group_name_H-M   'P 1'
_cell_length_a   8.41060701
_cell_length_b   8.49059402
_cell_length_c   24.01084703
_cell_angle_alpha   90.00549739
_cell_angle_beta   90.00129609
_cell_angle_gamma   90.00589865
_symmetry_Int_Tables_number   1
_chemical_formula_structural   Cu2(SO4)3
_chemical_formula_sum   'Cu16 S24 O96'
_cell_volume   1714.63977088
_cell_formula_units_Z   8
loop_
 _symmetry_equiv_pos_site_id
 _symmetry_equiv_pos_as_xyz
  1  'x, y, z'
loop_
 _atom_site_type_symbol
 _atom_site_label
 _atom_site_symmetry_multiplicity
 _atom_site_fract_x
 _atom_site_fract_y
 _atom_site_fract_z
 _atom_site_occupancy
  Cu  Cu0  1  0.00296700  0.40015500  0.06364200  1
  Cu  Cu1  1  0.00286900  0.09986400  0.56364500  1
  Cu  Cu2  1  0.99356000  0.79959700  0.17998700  1
  Cu  Cu3  1  0.99330200  0.69996600  0.67979800  1
  Cu  Cu4  1  0.50640300  0.29954100  0.17997900  1
  Cu  Cu5  1  0.50631200  0.20022400  0.67983000  1
  Cu  Cu6  1  0.49722000  0.59988100  0.56365400  1
  Cu  Cu7  1  0.49710500  0.90025100  0.06359000  1
  Cu  Cu8  1  0.50287800  0.40026400  0.43642700  1
  Cu  Cu9  1  0.50281100  0.09964500  0.93643000  1
  Cu  Cu10  1  0.49360800  0.70031100  0.81998600  1
  Cu  Cu11  1  0.49354600  0.79958600  0.31999700  1
  Cu  Cu12  1  0.00644000  0.29956200  0.31999500  1
  Cu  Cu13  1  0.00643000  0.20025300  0.82001600  1
  Cu  Cu14  1  0.99718100  0.90033800  0.43642400  1
  Cu  Cu15  1  0.99721400  0.59963000  0.93644200  1
  S  S0  1  0.14281800  0.94747000  0.29877400  1
  S  S1  1  0.14289800  0.55265100  0.79873800  1
  S  S2  1  0.14748800  0.25852700  0.44591200  1
  S  S3  1  0.14745500  0.24154600  0.94589700  1
  S  S4  1  0.19818600  0.08936700  0.11679000  1
  S  S5  1  0.19791800  0.41064900  0.61675400  1
  S  S6  1  0.30169800  0.58925000  0.11679900  1
  S  S7  1  0.30182800  0.91070100  0.61674700  1
  S  S8  1  0.35258000  0.74156600  0.94590300  1
  S  S9  1  0.35257900  0.75844400  0.44589600  1
  S  S10  1  0.35720800  0.44745900  0.29879500  1
  S  S11  1  0.35714300  0.05255200  0.79875700  1
  S  S12  1  0.64279600  0.55278000  0.70127300  1
  S  S13  1  0.64280300  0.94754000  0.20124300  1
  S  S14  1  0.64743500  0.25850000  0.05411300  1
  S  S15  1  0.64738900  0.24139800  0.55405200  1
  S  S16  1  0.69801500  0.08928800  0.38327900  1
  S  S17  1  0.69814600  0.41070400  0.88326400  1
  S  S18  1  0.80190800  0.58923300  0.38328000  1
  S  S19  1  0.80184300  0.91073700  0.88326300  1
  S  S20  1  0.85265700  0.75838300  0.05410000  1
  S  S21  1  0.85269700  0.74136900  0.55409100  1
  S  S22  1  0.85718600  0.44754600  0.20124300  1
  S  S23  1  0.85714200  0.05254900  0.70129400  1
  O  O0  1  0.05638400  0.39193400  0.46424700  1
  O  O1  1  0.05627500  0.10800200  0.96423400  1
  O  O2  1  0.08516100  0.10493300  0.27949400  1
  O  O3  1  0.08515200  0.39523300  0.77948400  1
  O  O4  1  0.08423800  0.10515300  0.47235100  1
  O  O5  1  0.08418700  0.39489600  0.97238500  1
  O  O6  1  0.08526300  0.90788900  0.35475100  1
  O  O7  1  0.08511400  0.59222600  0.85470600  1
  O  O8  1  0.09132200  0.18584500  0.08098900  1
  O  O9  1  0.09158400  0.31429700  0.58097900  1
  O  O10  1  0.08753000  0.82480800  0.25936100  1
  O  O11  1  0.08732900  0.67540100  0.75931500  1
  O  O12  1  0.09716300  0.00101800  0.15679500  1
  O  O13  1  0.09750000  0.49890600  0.65693000  1
  O  O14  1  0.14220900  0.23061500  0.38432500  1
  O  O15  1  0.14214100  0.26941100  0.88433600  1
  O  O16  1  0.17887500  0.45713300  0.29683700  1
  O  O17  1  0.17895300  0.04289800  0.79683200  1
  O  O18  1  0.19049700  0.68479700  0.14944200  1
  O  O19  1  0.19078600  0.81525300  0.64967100  1
  O  O20  1  0.18147400  0.73236900  0.96315700  1
  O  O21  1  0.18157400  0.76757300  0.46318000  1
  O  O22  1  0.21921300  0.01914500  0.57683300  1
  O  O23  1  0.21918300  0.48069000  0.07679200  1
  O  O24  1  0.28072200  0.51918800  0.57681400  1
  O  O25  1  0.28070000  0.98073300  0.07683200  1
  O  O26  1  0.31848000  0.23238600  0.96317400  1
  O  O27  1  0.31852700  0.26764900  0.46318200  1
  O  O28  1  0.30943200  0.18488300  0.14943900  1
  O  O29  1  0.30925400  0.31527000  0.64963100  1
  O  O30  1  0.32115300  0.95714600  0.29682400  1
  O  O31  1  0.32102600  0.54278500  0.79684100  1
  O  O32  1  0.35780300  0.73062400  0.38430400  1
  O  O33  1  0.35784900  0.76939700  0.88433200  1
  O  O34  1  0.40251400  0.99900300  0.65691100  1
  O  O35  1  0.40277000  0.50093100  0.15680400  1
  O  O36  1  0.41247300  0.32481300  0.25937900  1
  O  O37  1  0.41254600  0.17527800  0.75933100  1
  O  O38  1  0.40858200  0.68576800  0.08102200  1
  O  O39  1  0.40843600  0.81428300  0.58100700  1
  O  O40  1  0.41474900  0.09211200  0.85473400  1
  O  O41  1  0.41468600  0.40790300  0.35477000  1
  O  O42  1  0.41585400  0.89486900  0.97237700  1
  O  O43  1  0.41583300  0.60505100  0.47232000  1
  O  O44  1  0.41484300  0.60494400  0.27951100  1
  O  O45  1  0.41473800  0.89522300  0.77953500  1
  O  O46  1  0.44370000  0.60802500  0.96423600  1
  O  O47  1  0.44367700  0.89186000  0.46424500  1
  O  O48  1  0.55630200  0.39202300  0.03576400  1
  O  O49  1  0.55625100  0.10797800  0.53578600  1
  O  O50  1  0.58524200  0.10493000  0.22047500  1
  O  O51  1  0.58558400  0.39503100  0.72044400  1
  O  O52  1  0.58430400  0.10509900  0.02763100  1
  O  O53  1  0.58420500  0.39492800  0.52758700  1
  O  O54  1  0.58517600  0.59213900  0.64527000  1
  O  O55  1  0.58519800  0.90787200  0.14520400  1
  O  O56  1  0.59143600  0.18560700  0.41885900  1
  O  O57  1  0.59137900  0.31426400  0.91886200  1
  O  O58  1  0.58748100  0.82476900  0.24068900  1
  O  O59  1  0.58747900  0.67518100  0.74066900  1
  O  O60  1  0.59716800  0.00116000  0.34324000  1
  O  O61  1  0.59719300  0.49893300  0.84323500  1
  O  O62  1  0.64223000  0.23062500  0.11567000  1
  O  O63  1  0.64219700  0.26944800  0.61564600  1
  O  O64  1  0.67881600  0.45713900  0.20316800  1
  O  O65  1  0.67870400  0.04300300  0.70320000  1
  O  O66  1  0.69054200  0.68481300  0.35058100  1
  O  O67  1  0.69054600  0.81518800  0.85057600  1
  O  O68  1  0.68137200  0.76757200  0.03681400  1
  O  O69  1  0.68143900  0.73251800  0.53685700  1
  O  O70  1  0.71933100  0.48066700  0.42308100  1
  O  O71  1  0.71932300  0.01932400  0.92308900  1
  O  O72  1  0.78059700  0.98075800  0.42308500  1
  O  O73  1  0.78071600  0.51938300  0.92308300  1
  O  O74  1  0.81873000  0.26764800  0.03681300  1
  O  O75  1  0.81859200  0.23247800  0.53683000  1
  O  O76  1  0.80941400  0.18483900  0.35058500  1
  O  O77  1  0.80942000  0.31518800  0.85056800  1
  O  O78  1  0.82133000  0.54293000  0.70320400  1
  O  O79  1  0.82117100  0.95713000  0.20316900  1
  O  O80  1  0.85781400  0.73054900  0.11565800  1
  O  O81  1  0.85796600  0.76944600  0.61575300  1
  O  O82  1  0.90275700  0.50110100  0.34324600  1
  O  O83  1  0.90279700  0.99893700  0.84320400  1
  O  O84  1  0.91252500  0.32475000  0.24067800  1
  O  O85  1  0.91242000  0.17518800  0.74064900  1
  O  O86  1  0.90847700  0.68559700  0.41885300  1
  O  O87  1  0.90863000  0.81427300  0.91888800  1
  O  O88  1  0.91478500  0.40781400  0.14520700  1
  O  O89  1  0.91470100  0.09203500  0.64526800  1
  O  O90  1  0.91595300  0.60495800  0.02762300  1
  O  O91  1  0.91590000  0.89506500  0.52765500  1
  O  O92  1  0.91480500  0.60492200  0.22047100  1
  O  O93  1  0.91483900  0.89499700  0.72047100  1
  O  O94  1  0.94388700  0.60805700  0.53581200  1
  O  O95  1  0.94376000  0.89192100  0.03575500  1
loop_
_geom_bond_atom_site_label_1
_geom_bond_atom_site_label_2
_geom_bond_distance
_geom_bond_site_symmetry_2
Cu0 O23 1.968225 1_555
Cu0 O8 2.009262 1_555
Cu0 O74 2.020220 1_455
Cu0 O90 2.075534 1_455
Cu0 O88 2.095197 1_455
Cu0 O5 2.295618 1_554
Cu1 O22 1.970060 1_555
Cu1 O9 2.011054 1_555
Cu1 O75 2.021124 1_455
Cu1 O91 2.074817 1_445
Cu1 O89 2.096510 1_455
Cu1 O4 2.296849 1_555
Cu2 O12 1.998498 1_665
Cu2 O80 2.008126 1_555
Cu2 O92 2.028755 1_555
Cu2 O79 2.049720 1_555
Cu2 O18 2.057122 1_655
Cu2 O10 2.074246 1_655
Cu3 O13 1.995975 1_655
Cu3 O81 2.002156 1_555
Cu3 O93 2.032554 1_555
Cu3 O78 2.045833 1_555
Cu3 O19 2.059144 1_655
Cu3 O11 2.077080 1_655
Cu4 O35 1.998412 1_555
Cu4 O62 2.007926 1_555
Cu4 O50 2.028778 1_555
Cu4 O64 2.050056 1_555
Cu4 O28 2.056550 1_555
Cu4 O36 2.074795 1_555
Cu5 O34 1.995842 1_545
Cu5 O63 2.006679 1_555
Cu5 O51 2.032420 1_555
Cu5 O65 2.049294 1_555
Cu5 O29 2.056027 1_555
Cu5 O37 2.076236 1_555
Cu6 O24 1.970955 1_555
Cu6 O39 2.011272 1_555
Cu6 O69 2.020566 1_555
Cu6 O53 2.076870 1_555
Cu6 O54 2.095673 1_555
Cu6 O43 2.297764 1_555
Cu7 O25 1.970036 1_555
Cu7 O38 2.011408 1_555
Cu7 O68 2.021022 1_555
Cu7 O52 2.075691 1_565
Cu7 O55 2.095986 1_555
Cu7 O42 2.294675 1_554
Cu8 O70 1.970472 1_555
Cu8 O56 2.013602 1_555
Cu8 O27 2.020992 1_555
Cu8 O43 2.074129 1_555
Cu8 O41 2.097267 1_555
Cu8 O53 2.293654 1_555
Cu9 O71 1.970779 1_555
Cu9 O57 2.013275 1_555
Cu9 O26 2.021484 1_555
Cu9 O42 2.074341 1_545
Cu9 O40 2.097712 1_555
Cu9 O52 2.295019 1_556
Cu10 O61 1.998644 1_555
Cu10 O33 2.008705 1_555
Cu10 O45 2.030428 1_555
Cu10 O31 2.050377 1_555
Cu10 O67 2.057635 1_555
Cu10 O59 2.072650 1_555
Cu11 O60 1.999918 1_565
Cu11 O32 2.007619 1_555
Cu11 O44 2.028241 1_555
Cu11 O30 2.049887 1_555
Cu11 O66 2.057787 1_555
Cu11 O58 2.072724 1_555
Cu12 O82 2.000106 1_455
Cu12 O14 2.008160 1_555
Cu12 O2 2.028498 1_555
Cu12 O16 2.049923 1_555
Cu12 O76 2.057705 1_455
Cu12 O84 2.072847 1_455
Cu13 O83 1.997819 1_445
Cu13 O15 2.008065 1_555
Cu13 O3 2.031327 1_555
Cu13 O17 2.049545 1_555
Cu13 O77 2.058219 1_455
Cu13 O85 2.074093 1_455
Cu14 O72 1.971630 1_555
Cu14 O86 2.014571 1_555
Cu14 O21 2.022136 1_655
Cu14 O4 2.074563 1_665
Cu14 O6 2.097303 1_655
Cu14 O91 2.295182 1_555
Cu15 O73 1.970380 1_555
Cu15 O87 2.013571 1_555
Cu15 O20 2.020596 1_655
Cu15 O5 2.074162 1_655
Cu15 O7 2.098133 1_655
Cu15 O90 2.293990 1_556
O0 S2 1.436681 1_555
O1 S3 1.437896 1_555
O2 S0 1.495711 1_545
O3 S1 1.495250 1_555
O4 S2 1.543322 1_555
O5 S3 1.543677 1_555
O6 S0 1.467595 1_555
O7 S1 1.467985 1_555
O8 S4 1.489304 1_555
O9 S5 1.485475 1_555
O10 S0 1.481940 1_555
O11 S1 1.483556 1_555
O12 S4 1.485712 1_555
O13 S5 1.485072 1_555
O14 S2 1.498260 1_555
O15 S3 1.497636 1_555
O16 S10 1.502879 1_555
O17 S11 1.501628 1_555
O18 S6 1.465347 1_555
O19 S7 1.467629 1_555
O20 S8 1.499587 1_555
O21 S9 1.498953 1_555
O22 S7 1.499779 1_545
O23 S6 1.501221 1_555
O24 S5 1.501342 1_555
O25 S4 1.500959 1_565
O26 S3 1.499067 1_555
O27 S2 1.499098 1_555
O28 S4 1.465391 1_555
O29 S5 1.468357 1_555
O30 S0 1.502876 1_555
O31 S1 1.501205 1_555
O32 S9 1.498245 1_555
O33 S8 1.497816 1_555
O34 S7 1.486248 1_555
O35 S6 1.485883 1_555
O36 S10 1.481911 1_555
O37 S11 1.482966 1_555
O38 S6 1.489181 1_555
O39 S7 1.486812 1_555
O40 S11 1.467616 1_555
O41 S10 1.467291 1_555
O42 S8 1.543117 1_555
O43 S9 1.543404 1_555
O44 S10 1.495765 1_555
O45 S11 1.494021 1_565
O46 S8 1.437691 1_555
O47 S9 1.436682 1_555
O48 S14 1.437747 1_555
O49 S15 1.436279 1_555
O50 S13 1.494466 1_545
O51 S12 1.495784 1_555
O52 S14 1.543483 1_555
O53 S15 1.544588 1_555
O54 S12 1.467919 1_555
O55 S13 1.469187 1_555
O56 S16 1.483987 1_555
O57 S17 1.485746 1_555
O58 S13 1.483327 1_555
O59 S12 1.480280 1_555
O60 S16 1.484330 1_555
O61 S17 1.485298 1_555
O62 S14 1.497528 1_555
O63 S15 1.498593 1_555
O64 S22 1.503129 1_555
O65 S23 1.503648 1_555
O66 S18 1.467168 1_555
O67 S19 1.466308 1_555
O68 S20 1.501238 1_555
O69 S21 1.500510 1_555
O70 S18 1.498467 1_555
O71 S19 1.498713 1_545
O72 S16 1.498443 1_565
O73 S17 1.499173 1_555
O74 S14 1.501397 1_555
O75 S15 1.500049 1_555
O76 S16 1.467061 1_555
O77 S17 1.466274 1_555
O78 S12 1.504629 1_555
O79 S13 1.503093 1_555
O80 S20 1.497484 1_555
O81 S21 1.500256 1_555
O82 S18 1.484392 1_555
O83 S19 1.485581 1_555
O84 S22 1.483407 1_555
O85 S23 1.480888 1_555
O86 S18 1.483925 1_555
O87 S19 1.486412 1_555
O88 S22 1.469272 1_555
O89 S23 1.468499 1_555
O90 S20 1.544186 1_555
O91 S21 1.545464 1_555
O92 S22 1.494392 1_555
O93 S23 1.495732 1_565
O94 S21 1.436020 1_555
O95 S20 1.437569 1_555
