# generated using pymatgen
data_CaYHg2
_symmetry_space_group_name_H-M   'P 1'
_cell_length_a   5.25762058
_cell_length_b   5.25762061
_cell_length_c   5.25762059
_cell_angle_alpha   60.00001223
_cell_angle_beta   60.00001170
_cell_angle_gamma   60.00001094
_symmetry_Int_Tables_number   1
_chemical_formula_structural   CaYHg2
_chemical_formula_sum   'Ca1 Y1 Hg2'
_cell_volume   102.76680266
_cell_formula_units_Z   1
loop_
 _symmetry_equiv_pos_site_id
 _symmetry_equiv_pos_as_xyz
  1  'x, y, z'
loop_
 _atom_site_type_symbol
 _atom_site_label
 _atom_site_symmetry_multiplicity
 _atom_site_fract_x
 _atom_site_fract_y
 _atom_site_fract_z
 _atom_site_occupancy
  Ca  Ca0  1  0.25000079  0.25000079  0.25000079  1
  Y  Y0  1  0.75000003  0.75000003  0.75000003  1
  Hg  Hg0  1  0.00000006  0.00000006  0.00000006  1
  Hg  Hg1  1  0.49999912  0.49999912  0.49999912  1
loop_
_geom_bond_atom_site_label_1
_geom_bond_atom_site_label_2
_geom_bond_distance
_geom_bond_site_symmetry_2
Ca0 Hg1 3.219600 1_555
Ca0 Hg0 3.219619 1_655
Ca0 Hg0 3.219619 1_565
Ca0 Hg0 3.219619 1_556
Ca0 Hg1 3.219630 1_455
Ca0 Hg1 3.219630 1_545
Ca0 Hg1 3.219630 1_554
Ca0 Hg0 3.219631 1_555
Hg0 Y0 3.219622 1_444
Hg0 Y0 3.219622 1_544
Hg0 Y0 3.219622 1_454
Hg0 Y0 3.219622 1_445
Hg1 Y0 3.219618 1_455
Hg1 Y0 3.219619 1_545
Hg1 Y0 3.219619 1_554
Hg1 Y0 3.219633 1_555
