# generated using pymatgen
data_VP2NO8
_symmetry_space_group_name_H-M   'P 1'
_cell_length_a   8.54756000
_cell_length_b   5.06923500
_cell_length_c   14.86406834
_cell_angle_alpha   87.23784063
_cell_angle_beta   90.00000000
_cell_angle_gamma   90.00000000
_symmetry_Int_Tables_number   1
_chemical_formula_structural   VP2NO8
_chemical_formula_sum   'V4 P8 N4 O32'
_cell_volume   643.30571818
_cell_formula_units_Z   4
loop_
 _symmetry_equiv_pos_site_id
 _symmetry_equiv_pos_as_xyz
  1  'x, y, z'
loop_
 _atom_site_type_symbol
 _atom_site_label
 _atom_site_symmetry_multiplicity
 _atom_site_fract_x
 _atom_site_fract_y
 _atom_site_fract_z
 _atom_site_occupancy
  V  V0  1  0.46194900  0.75673200  0.84791700  1
  V  V1  1  0.96194900  0.24326800  0.65208300  1
  V  V2  1  0.53805100  0.24326800  0.15208300  1
  V  V3  1  0.03805100  0.75673200  0.34791700  1
  P  P0  1  0.32950000  0.76420400  0.05900900  1
  P  P1  1  0.82950000  0.23579600  0.44099100  1
  P  P2  1  0.67050000  0.23579600  0.94099100  1
  P  P3  1  0.17050000  0.76420400  0.55900900  1
  P  P4  1  0.77034100  0.73170200  0.17806700  1
  P  P5  1  0.27034100  0.26829800  0.32193300  1
  P  P6  1  0.22965900  0.26829800  0.82193300  1
  P  P7  1  0.72965900  0.73170200  0.67806700  1
  N  N0  1  0.52375900  0.75723800  0.40478100  1
  N  N1  1  0.02375900  0.24276200  0.09521900  1
  N  N2  1  0.47624100  0.24276200  0.59521900  1
  N  N3  1  0.97624100  0.75723800  0.90478100  1
  O  O0  1  0.56318200  0.45457200  0.89964000  1
  O  O1  1  0.06318200  0.54542800  0.60036000  1
  O  O2  1  0.43681800  0.54542800  0.10036000  1
  O  O3  1  0.93681800  0.45457200  0.39964000  1
  O  O4  1  0.60967000  0.96603900  0.91229600  1
  O  O5  1  0.10967000  0.03396100  0.58770400  1
  O  O6  1  0.39033000  0.03396100  0.08770400  1
  O  O7  1  0.89033000  0.96603900  0.41229600  1
  O  O8  1  0.35761000  0.05286500  0.80246200  1
  O  O9  1  0.85761000  0.94713500  0.69753800  1
  O  O10  1  0.64239000  0.94713500  0.19753800  1
  O  O11  1  0.14239000  0.05286500  0.30246200  1
  O  O12  1  0.31267100  0.53884300  0.79709000  1
  O  O13  1  0.81267100  0.46115700  0.70291000  1
  O  O14  1  0.68732900  0.46115700  0.20291000  1
  O  O15  1  0.18732900  0.53884300  0.29709000  1
  O  O16  1  0.66872800  0.75533800  0.58392700  1
  O  O17  1  0.16872800  0.24466200  0.91607300  1
  O  O18  1  0.33127200  0.24466200  0.41607300  1
  O  O19  1  0.83127200  0.75533800  0.08392700  1
  O  O20  1  0.60005900  0.75990700  0.75080900  1
  O  O21  1  0.10005900  0.24009300  0.74919100  1
  O  O22  1  0.39994100  0.24009300  0.24919100  1
  O  O23  1  0.89994100  0.75990700  0.25080900  1
  O  O24  1  0.33842500  0.75828600  0.95486900  1
  O  O25  1  0.83842500  0.24171400  0.54513100  1
  O  O26  1  0.66157500  0.24171400  0.04513100  1
  O  O27  1  0.16157500  0.75828600  0.45486900  1
  O  O28  1  0.83850400  0.27180300  0.90693300  1
  O  O29  1  0.33850400  0.72819700  0.59306700  1
  O  O30  1  0.16149600  0.72819700  0.09306700  1
  O  O31  1  0.66149600  0.27180300  0.40693300  1
loop_
_geom_bond_atom_site_label_1
_geom_bond_atom_site_label_2
_geom_bond_distance
_geom_bond_site_symmetry_2
O0 P2 1.543853 1_555
O0 V0 1.890100 1_555
O1 P3 1.543853 1_555
O1 V1 1.890100 1_455
O2 P0 1.543853 1_555
O2 V2 1.890100 1_555
O3 P1 1.543853 1_555
O3 V3 1.890100 1_655
O4 P2 1.542217 1_565
O4 V0 1.932266 1_555
O5 P3 1.542217 1_545
O5 V1 1.932266 1_455
O6 P0 1.542217 1_545
O6 V2 1.932266 1_555
O7 P1 1.542217 1_565
O7 V3 1.932266 1_655
O8 P6 1.582080 1_555
O8 V0 1.845978 1_545
O9 P7 1.582080 1_555
O9 V1 1.845978 1_565
O10 P4 1.582080 1_555
O10 V2 1.845978 1_565
O11 P5 1.582080 1_555
O11 V3 1.845978 1_545
O12 P6 1.572228 1_555
O12 V0 1.870633 1_555
O13 P7 1.572228 1_555
O13 V1 1.870633 1_555
O14 P4 1.572228 1_555
O14 V2 1.870633 1_555
O15 P5 1.572228 1_555
O15 V3 1.870633 1_555
O16 P7 1.492478 1_555
O17 P6 1.492478 1_555
O18 P5 1.492478 1_555
O19 P4 1.492478 1_555
O20 P7 1.559348 1_555
O20 V0 1.864154 1_555
O21 P6 1.559348 1_555
O21 V1 1.864154 1_455
O22 P5 1.559348 1_555
O22 V2 1.864154 1_555
O23 P4 1.559348 1_555
O23 V3 1.864154 1_655
O24 P0 1.551556 1_556
O24 V0 1.908749 1_555
O25 P1 1.551556 1_555
O25 V1 1.908749 1_555
O26 P2 1.551556 1_554
O26 V2 1.908749 1_555
O27 P3 1.551556 1_555
O27 V3 1.908749 1_555
O28 P2 1.530639 1_555
O29 P3 1.530639 1_555
O30 P0 1.530639 1_555
O31 P1 1.530639 1_555
