# generated using pymatgen
data_Ba8Fe8O21
_symmetry_space_group_name_H-M   'P 1'
_cell_length_a   5.74417800
_cell_length_b   5.78308913
_cell_length_c   19.04038149
_cell_angle_alpha   97.62177524
_cell_angle_beta   90.66556253
_cell_angle_gamma   119.39564278
_symmetry_Int_Tables_number   1
_chemical_formula_structural   Ba8Fe8O21
_chemical_formula_sum   'Ba8 Fe8 O21'
_cell_volume   544.04174090
_cell_formula_units_Z   1
loop_
 _symmetry_equiv_pos_site_id
 _symmetry_equiv_pos_as_xyz
  1  'x, y, z'
loop_
 _atom_site_type_symbol
 _atom_site_label
 _atom_site_symmetry_multiplicity
 _atom_site_fract_x
 _atom_site_fract_y
 _atom_site_fract_z
 _atom_site_occupancy
  Ba  Ba0  1  0.62040800  0.99720400  0.12698600  1
  Ba  Ba1  1  0.50000000  0.50000000  0.00000000  1
  Ba  Ba2  1  0.37959200  0.00279600  0.87301400  1
  Ba  Ba3  1  0.00000000  0.50000000  0.50000000  1
  Ba  Ba4  1  0.87578600  0.99647100  0.37179100  1
  Ba  Ba5  1  0.75381800  0.50203200  0.24635600  1
  Ba  Ba6  1  0.24618200  0.49796800  0.75364400  1
  Ba  Ba7  1  0.12421400  0.00352900  0.62820900  1
  Fe  Fe0  1  0.99614800  0.28449700  0.93082700  1
  Fe  Fe1  1  0.29772200  0.70735500  0.30437000  1
  Fe  Fe2  1  0.00385200  0.71550300  0.06917300  1
  Fe  Fe3  1  0.17146900  0.23612300  0.18627000  1
  Fe  Fe4  1  0.70227800  0.29264500  0.69563000  1
  Fe  Fe5  1  0.44224600  0.27120800  0.44361200  1
  Fe  Fe6  1  0.55775400  0.72879200  0.55638800  1
  Fe  Fe7  1  0.82853100  0.76387700  0.81373000  1
  O  O0  1  0.40162100  0.52111800  0.87307600  1
  O  O1  1  0.00000000  0.00000000  0.00000000  1
  O  O2  1  0.85948200  0.47491000  0.88262000  1
  O  O3  1  0.00000000  0.50000000  0.00000000  1
  O  O4  1  0.12235700  0.99312100  0.12342300  1
  O  O5  1  0.87764300  0.00687900  0.87657700  1
  O  O6  1  0.24812300  0.98848100  0.25855100  1
  O  O7  1  0.14051800  0.52509000  0.11738000  1
  O  O8  1  0.73955800  0.99347400  0.25077900  1
  O  O9  1  0.59837900  0.47888200  0.12692400  1
  O  O10  1  0.50000000  0.50000000  0.50000000  1
  O  O11  1  0.23558300  0.47869900  0.24730000  1
  O  O12  1  0.50000000  0.00000000  0.50000000  1
  O  O13  1  0.00000000  0.00000000  0.50000000  1
  O  O14  1  0.13896300  0.52023800  0.62438400  1
  O  O15  1  0.86103700  0.47976200  0.37561600  1
  O  O16  1  0.36980400  0.49509500  0.37447800  1
  O  O17  1  0.63019600  0.50490500  0.62552200  1
  O  O18  1  0.76441700  0.52130100  0.75270000  1
  O  O19  1  0.26044200  0.00652600  0.74922100  1
  O  O20  1  0.75187700  0.01151900  0.74144900  1
loop_
_geom_bond_atom_site_label_1
_geom_bond_atom_site_label_2
_geom_bond_distance
_geom_bond_site_symmetry_2
Ba0 O8 2.452582 1_555
Ba0 O9 2.849983 1_565
Ba0 O9 2.937302 1_555
Ba0 O1 3.270916 1_665
Ba1 O9 2.507773 1_555
Ba1 O0 2.507773 1_554
Ba1 Fe2 2.756722 1_655
Ba1 Fe0 2.756722 1_454
Ba1 O3 2.872089 1_555
Ba1 O3 2.872089 1_655
Ba1 O1 2.908150 1_555
Ba1 O1 2.908150 1_665
Ba1 O7 3.097636 1_555
Ba1 O2 3.097636 1_554
Ba2 O19 2.452582 1_555
Ba2 O0 2.849983 1_545
Ba2 O0 2.937302 1_555
Ba2 O1 3.270916 1_556
Ba3 O15 2.459805 1_455
Ba3 O14 2.459805 1_555
Ba3 O13 2.891545 1_555
Ba3 O13 2.891545 1_565
Ba4 O8 2.419873 1_555
Ba4 O13 2.529968 1_665
Ba4 O15 2.828892 1_565
Ba4 O15 2.958212 1_555
Ba5 O9 2.396055 1_555
Ba5 O15 2.565140 1_555
Ba5 O8 2.873372 1_555
Ba5 O8 2.914252 1_545
Ba6 O0 2.396055 1_555
Ba6 O14 2.565140 1_555
Ba6 O19 2.873372 1_555
Ba6 O19 2.914252 1_565
Ba7 O19 2.419873 1_555
Ba7 O13 2.529968 1_555
Ba7 O14 2.828892 1_545
Ba7 O14 2.958212 1_555
Fe0 O5 1.605876 1_555
Fe0 O3 1.680839 1_656
Fe0 O2 1.942000 1_555
Fe0 O1 2.247663 1_656
Fe0 O0 2.415841 1_655
Fe1 O11 1.484332 1_555
Fe1 O6 2.076196 1_555
Fe1 O16 2.093064 1_555
Fe1 O8 2.570205 1_555
Fe1 O15 2.678861 1_455
Fe2 O4 1.605876 1_555
Fe2 O3 1.680839 1_555
Fe2 O7 1.942000 1_555
Fe2 O1 2.247663 1_565
Fe2 O9 2.415841 1_455
Fe3 O11 1.582521 1_555
Fe3 O4 1.625817 1_545
Fe3 O6 2.294944 1_545
Fe3 O9 2.523261 1_555
Fe3 O8 2.596803 1_445
Fe4 O18 1.484332 1_555
Fe4 O20 2.076196 1_555
Fe4 O17 2.093064 1_555
Fe4 O19 2.570205 1_555
Fe4 O14 2.678861 1_655
Fe5 O10 1.482374 1_555
Fe5 O16 2.133209 1_555
Fe5 O12 2.161463 1_555
Fe5 O15 2.560495 1_555
Fe5 O13 2.581615 1_555
Fe6 O10 1.482374 1_555
Fe6 O17 2.133209 1_555
Fe6 O12 2.161463 1_565
Fe6 O14 2.560495 1_555
Fe6 O13 2.581615 1_665
Fe7 O18 1.582521 1_555
Fe7 O5 1.625817 1_565
Fe7 O20 2.294944 1_565
Fe7 O0 2.523261 1_555
Fe7 O19 2.596803 1_665
