# generated using pymatgen
data_ErCdRh2
_symmetry_space_group_name_H-M   'P 1'
_cell_length_a   4.62982019
_cell_length_b   4.62982019
_cell_length_c   4.62982019
_cell_angle_alpha   60.00000000
_cell_angle_beta   60.00000000
_cell_angle_gamma   60.00000000
_symmetry_Int_Tables_number   1
_chemical_formula_structural   ErCdRh2
_chemical_formula_sum   'Er1 Cd1 Rh2'
_cell_volume   70.17418458
_cell_formula_units_Z   1
loop_
 _symmetry_equiv_pos_site_id
 _symmetry_equiv_pos_as_xyz
  1  'x, y, z'
loop_
 _atom_site_type_symbol
 _atom_site_label
 _atom_site_symmetry_multiplicity
 _atom_site_fract_x
 _atom_site_fract_y
 _atom_site_fract_z
 _atom_site_occupancy
  Er  Er0  1  0.75000000  0.75000000  0.75000000  1
  Cd  Cd0  1  0.24999900  0.24999900  0.24999900  1
  Rh  Rh0  1  0.00000000  0.00000000  -0.00000000  1
  Rh  Rh1  1  0.50000100  0.50000100  0.50000100  1
loop_
_geom_bond_atom_site_label_1
_geom_bond_atom_site_label_2
_geom_bond_distance
_geom_bond_site_symmetry_2
Er0 Rh1 2.835163 1_555
Er0 Rh0 2.835174 1_656
Er0 Rh0 2.835174 1_666
Er0 Rh0 2.835174 1_665
Er0 Rh0 2.835174 1_566
Er0 Rh1 2.835178 1_565
Er0 Rh1 2.835178 1_655
Er0 Rh1 2.835178 1_556
Cd0 Rh0 2.835163 1_555
Cd0 Rh1 2.835167 1_545
Cd0 Rh1 2.835167 1_455
Cd0 Rh1 2.835167 1_554
Cd0 Rh0 2.835178 1_565
Cd0 Rh0 2.835178 1_655
Cd0 Rh0 2.835178 1_556
Cd0 Rh1 2.835197 1_555
