# generated using pymatgen
data_LiCrPO5
_symmetry_space_group_name_H-M   'P 1'
_cell_length_a   6.04002600
_cell_length_b   7.60206400
_cell_length_c   7.76738100
_cell_angle_alpha   90.00000000
_cell_angle_beta   90.00000000
_cell_angle_gamma   90.00000000
_symmetry_Int_Tables_number   1
_chemical_formula_structural   LiCrPO5
_chemical_formula_sum   'Li4 Cr4 P4 O20'
_cell_volume   356.65222520
_cell_formula_units_Z   4
loop_
 _symmetry_equiv_pos_site_id
 _symmetry_equiv_pos_as_xyz
  1  'x, y, z'
loop_
 _atom_site_type_symbol
 _atom_site_label
 _atom_site_symmetry_multiplicity
 _atom_site_fract_x
 _atom_site_fract_y
 _atom_site_fract_z
 _atom_site_occupancy
  Li  Li0  1  0.75000000  0.64006700  0.16413500  1
  Li  Li1  1  0.25000000  0.85993300  0.66413500  1
  Li  Li2  1  0.75000000  0.14006700  0.33586500  1
  Li  Li3  1  0.25000000  0.35993300  0.83586500  1
  Cr  Cr0  1  0.50000000  0.50000000  0.50000000  1
  Cr  Cr1  1  0.00000000  0.50000000  0.50000000  1
  Cr  Cr2  1  0.50000000  0.00000000  0.00000000  1
  Cr  Cr3  1  0.00000000  0.00000000  0.00000000  1
  P  P0  1  0.25000000  0.63991000  0.16579000  1
  P  P1  1  0.75000000  0.86009000  0.66579000  1
  P  P2  1  0.25000000  0.13991000  0.33421000  1
  P  P3  1  0.75000000  0.36009000  0.83421000  1
  O  O0  1  0.75000000  0.49914700  0.96941800  1
  O  O1  1  0.25000000  0.61299400  0.58912400  1
  O  O2  1  0.03924700  0.63337300  0.28300400  1
  O  O3  1  0.46075300  0.63337300  0.28300400  1
  O  O4  1  0.75000000  0.66876100  0.57990500  1
  O  O5  1  0.25000000  0.83123900  0.07990500  1
  O  O6  1  0.53924700  0.86662700  0.78300400  1
  O  O7  1  0.96075300  0.86662700  0.78300400  1
  O  O8  1  0.75000000  0.88700600  0.08912400  1
  O  O9  1  0.25000000  0.00085300  0.46941800  1
  O  O10  1  0.75000000  0.99914700  0.53058200  1
  O  O11  1  0.25000000  0.11299400  0.91087600  1
  O  O12  1  0.03924700  0.13337300  0.21699600  1
  O  O13  1  0.46075300  0.13337300  0.21699600  1
  O  O14  1  0.75000000  0.16876100  0.92009500  1
  O  O15  1  0.25000000  0.33123900  0.42009500  1
  O  O16  1  0.53924700  0.36662700  0.71699600  1
  O  O17  1  0.96075300  0.36662700  0.71699600  1
  O  O18  1  0.75000000  0.38700600  0.41087600  1
  O  O19  1  0.25000000  0.50085300  0.03058200  1
loop_
_geom_bond_atom_site_label_1
_geom_bond_atom_site_label_2
_geom_bond_distance
_geom_bond_site_symmetry_2
Li0 O0 1.853409 1_554
Li0 O8 1.965584 1_555
Li0 O2 1.976687 1_655
Li0 O3 1.976687 1_555
Li1 O9 1.853409 1_565
Li1 O1 1.965584 1_555
Li1 O6 1.976687 1_555
Li1 O7 1.976687 1_455
Li2 O10 1.853409 1_545
Li2 O18 1.965584 1_555
Li2 O12 1.976687 1_655
Li2 O13 1.976687 1_555
Li3 O19 1.853409 1_556
Li3 O11 1.965584 1_555
Li3 O16 1.976687 1_555
Li3 O17 1.976687 1_455
Cr0 O1 1.870081 1_555
Cr0 O18 1.870081 1_555
Cr0 O16 1.981183 1_555
Cr0 O3 1.981183 1_555
Cr0 O4 2.076353 1_555
Cr0 O15 2.076353 1_555
Cr1 O1 1.870081 1_555
Cr1 O18 1.870081 1_455
Cr1 O17 1.981183 1_455
Cr1 O2 1.981183 1_555
Cr1 O4 2.076353 1_455
Cr1 O15 2.076353 1_555
Cr2 O8 1.870081 1_545
Cr2 O11 1.870081 1_554
Cr2 O13 1.981183 1_555
Cr2 O6 1.981183 1_544
Cr2 O5 2.076353 1_545
Cr2 O14 2.076353 1_554
Cr3 O8 1.870081 1_445
Cr3 O11 1.870081 1_554
Cr3 O12 1.981183 1_555
Cr3 O7 1.981183 1_444
Cr3 O5 2.076353 1_545
Cr3 O14 2.076353 1_454
O0 P3 1.490117 1_555
O2 P0 1.565820 1_555
O3 P0 1.565820 1_555
O4 P1 1.600182 1_555
O5 P0 1.600182 1_555
O6 P1 1.565820 1_555
O7 P1 1.565820 1_555
O9 P2 1.490117 1_555
O10 P1 1.490117 1_555
O12 P2 1.565820 1_555
O13 P2 1.565820 1_555
O14 P3 1.600182 1_555
O15 P2 1.600182 1_555
O16 P3 1.565820 1_555
O17 P3 1.565820 1_555
O19 P0 1.490117 1_555
