# generated using pymatgen
data_Ce3MnAlS7
_symmetry_space_group_name_H-M   'P 1'
_cell_length_a   10.06224630
_cell_length_b   10.06224630
_cell_length_c   5.99889900
_cell_angle_alpha   90.00000000
_cell_angle_beta   90.00000000
_cell_angle_gamma   120.00000196
_symmetry_Int_Tables_number   1
_chemical_formula_structural   Ce3MnAlS7
_chemical_formula_sum   'Ce6 Mn2 Al2 S14'
_cell_volume   526.00764987
_cell_formula_units_Z   2
loop_
 _symmetry_equiv_pos_site_id
 _symmetry_equiv_pos_as_xyz
  1  'x, y, z'
loop_
 _atom_site_type_symbol
 _atom_site_label
 _atom_site_symmetry_multiplicity
 _atom_site_fract_x
 _atom_site_fract_y
 _atom_site_fract_z
 _atom_site_occupancy
  Ce  Ce0  1  0.14078100  0.37243800  0.24394500  1
  Ce  Ce1  1  0.85921900  0.62756200  0.74394500  1
  Ce  Ce2  1  0.62756200  0.76834300  0.24394500  1
  Ce  Ce3  1  0.23165700  0.85921900  0.24394500  1
  Ce  Ce4  1  0.76834300  0.14078100  0.74394500  1
  Ce  Ce5  1  0.37243800  0.23165700  0.74394500  1
  Mn  Mn0  1  0.00000000  0.00000000  0.02157200  1
  Mn  Mn1  1  0.00000000  0.00000000  0.52157200  1
  Al  Al0  1  0.33333300  0.66666700  0.66264500  1
  Al  Al1  1  0.66666700  0.33333300  0.16264500  1
  S  S0  1  0.33333300  0.66666700  0.03491400  1
  S  S1  1  0.66666700  0.33333300  0.53491400  1
  S  S2  1  0.09229500  0.23850200  0.78875600  1
  S  S3  1  0.90770500  0.76149800  0.28875600  1
  S  S4  1  0.76149800  0.85379300  0.78875600  1
  S  S5  1  0.14620700  0.90770500  0.78875600  1
  S  S6  1  0.85379300  0.09229500  0.28875600  1
  S  S7  1  0.23850200  0.14620700  0.28875600  1
  S  S8  1  0.42083700  0.51976400  0.51649800  1
  S  S9  1  0.57916300  0.48023600  0.01649800  1
  S  S10  1  0.48023600  0.90107300  0.51649800  1
  S  S11  1  0.09892700  0.57916300  0.51649800  1
  S  S12  1  0.90107300  0.42083700  0.01649800  1
  S  S13  1  0.51976400  0.09892700  0.01649800  1
loop_
_geom_bond_atom_site_label_1
_geom_bond_atom_site_label_2
_geom_bond_distance
_geom_bond_site_symmetry_2
Ce0 S11 2.837881 1_555
Ce0 S6 2.866561 1_455
Ce0 S0 2.890558 1_555
Ce0 S7 2.908513 1_555
Ce0 S8 2.938450 1_555
Ce0 S2 2.975425 1_554
Ce0 S12 3.015169 1_455
Ce0 S2 3.475394 1_555
Ce1 S12 2.837881 1_556
Ce1 S5 2.866561 1_655
Ce1 S1 2.890558 1_555
Ce1 S4 2.908513 1_555
Ce1 S9 2.938450 1_556
Ce1 S3 2.975425 1_555
Ce1 S11 3.015169 1_655
Ce1 S3 3.475394 1_556
Ce2 S8 2.837881 1_555
Ce2 S3 2.866562 1_555
Ce2 S0 2.890559 1_555
Ce2 S6 2.908513 1_565
Ce2 S10 2.938450 1_555
Ce2 S4 2.975425 1_554
Ce2 S9 3.015169 1_555
Ce2 S4 3.475394 1_555
Ce3 S10 2.837881 1_555
Ce3 S7 2.866562 1_565
Ce3 S0 2.890551 1_555
Ce3 S3 2.908513 1_455
Ce3 S11 2.938450 1_555
Ce3 S5 2.975425 1_554
Ce3 S13 3.015169 1_565
Ce3 S5 3.475394 1_555
Ce4 S13 2.837881 1_556
Ce4 S4 2.866562 1_545
Ce4 S1 2.890551 1_555
Ce4 S2 2.908513 1_655
Ce4 S12 2.938450 1_556
Ce4 S6 2.975425 1_555
Ce4 S10 3.015169 1_545
Ce4 S6 3.475394 1_556
Ce5 S9 2.837881 1_556
Ce5 S2 2.866562 1_555
Ce5 S1 2.890559 1_555
Ce5 S5 2.908513 1_545
Ce5 S13 2.938450 1_556
Ce5 S7 2.975425 1_555
Ce5 S8 3.015169 1_555
Ce5 S7 3.475394 1_556
Mn0 S4 2.518668 1_444
Mn0 S2 2.518668 1_554
Mn0 S5 2.518668 1_544
Mn0 S7 2.638577 1_555
Mn0 S3 2.638577 1_445
Mn0 S6 2.638577 1_455
Mn1 S7 2.518668 1_555
Mn1 S3 2.518668 1_445
Mn1 S6 2.518668 1_455
Mn1 S4 2.638577 1_445
Mn1 S2 2.638577 1_555
Mn1 S5 2.638577 1_545
Al0 S0 2.233204 1_556
Al0 S11 2.242849 1_555
Al0 S10 2.242850 1_555
Al0 S8 2.242857 1_555
Al1 S1 2.233204 1_555
Al1 S12 2.242849 1_555
Al1 S13 2.242850 1_555
Al1 S9 2.242857 1_555
