# generated using pymatgen
data_Mg3Sc
_symmetry_space_group_name_H-M   'P 1'
_cell_length_a   6.40637800
_cell_length_b   6.40637976
_cell_length_c   5.09164368
_cell_angle_alpha   90.00000000
_cell_angle_beta   90.00000000
_cell_angle_gamma   120.00001573
_symmetry_Int_Tables_number   1
_chemical_formula_structural   Mg3Sc
_chemical_formula_sum   'Mg6 Sc2'
_cell_volume   180.97300839
_cell_formula_units_Z   2
loop_
 _symmetry_equiv_pos_site_id
 _symmetry_equiv_pos_as_xyz
  1  'x, y, z'
loop_
 _atom_site_type_symbol
 _atom_site_label
 _atom_site_symmetry_multiplicity
 _atom_site_fract_x
 _atom_site_fract_y
 _atom_site_fract_z
 _atom_site_occupancy
  Mg  Mg0  1  0.16661327  0.33322754  0.25000100  1
  Mg  Mg1  1  0.16661327  0.83338773  0.25000100  1
  Mg  Mg2  1  0.66677346  0.83338773  0.25000100  1
  Mg  Mg3  1  0.33322754  0.16661327  0.75000000  1
  Mg  Mg4  1  0.83338673  0.16661327  0.75000000  1
  Mg  Mg5  1  0.83338673  0.66677346  0.75000000  1
  Sc  Sc0  1  0.66666700  0.33333300  0.25000100  1
  Sc  Sc1  1  0.33333300  0.66666600  0.75000000  1
loop_
_geom_bond_atom_site_label_1
_geom_bond_atom_site_label_2
_geom_bond_distance
_geom_bond_site_symmetry_2
Mg0 Mg4 3.146288 1_455
Mg0 Mg3 3.146295 1_555
Mg0 Mg4 3.146297 1_454
Mg0 Mg3 3.146304 1_554
Mg0 Sc1 3.146980 1_555
Mg0 Sc1 3.146988 1_554
Mg0 Mg2 3.202162 1_445
Mg0 Mg1 3.202164 1_545
Mg0 Sc0 3.203183 1_455
Mg0 Sc0 3.203195 1_555
Mg0 Mg2 3.204215 1_555
Mg0 Mg1 3.204216 1_555
Mg1 Mg3 3.146285 1_565
Mg1 Mg5 3.146288 1_455
Mg1 Mg3 3.146294 1_564
Mg1 Mg5 3.146297 1_454
Mg1 Sc1 3.146990 1_555
Mg1 Sc1 3.146998 1_554
Mg1 Mg2 3.202163 1_455
Mg1 Sc0 3.203186 1_565
Mg1 Sc0 3.203192 1_455
Mg1 Mg2 3.204215 1_555
Mg2 Mg4 3.146285 1_565
Mg2 Mg5 3.146292 1_555
Mg2 Mg4 3.146294 1_564
Mg2 Mg5 3.146300 1_554
Mg2 Sc1 3.146986 1_555
Mg2 Sc1 3.146994 1_554
Mg2 Sc0 3.203180 1_565
Mg2 Sc0 3.203200 1_555
Mg3 Sc0 3.146983 1_555
Mg3 Sc0 3.146991 1_556
Mg3 Mg5 3.202166 1_445
Mg3 Mg4 3.202169 1_455
Mg3 Sc1 3.203190 1_555
Mg3 Sc1 3.203190 1_545
Mg3 Mg4 3.204209 1_555
Mg3 Mg5 3.204212 1_555
Mg4 Sc0 3.146983 1_555
Mg4 Sc0 3.146991 1_556
Mg4 Mg5 3.202164 1_545
Mg4 Sc1 3.203186 1_655
Mg4 Sc1 3.203192 1_545
Mg4 Mg5 3.204216 1_555
Mg5 Sc0 3.146986 1_555
Mg5 Sc0 3.146994 1_556
Mg5 Sc1 3.203189 1_555
Mg5 Sc1 3.203189 1_655
