# generated using pymatgen
data_LiMnP2O7
_symmetry_space_group_name_H-M   'P 1'
_cell_length_a   9.70019900
_cell_length_b   9.74321359
_cell_length_c   11.18617200
_cell_angle_alpha   78.97594860
_cell_angle_beta   89.50920219
_cell_angle_gamma   89.55444723
_symmetry_Int_Tables_number   1
_chemical_formula_structural   LiMnP2O7
_chemical_formula_sum   'Li8 Mn8 P16 O56'
_cell_volume   1037.65034110
_cell_formula_units_Z   8
loop_
 _symmetry_equiv_pos_site_id
 _symmetry_equiv_pos_as_xyz
  1  'x, y, z'
loop_
 _atom_site_type_symbol
 _atom_site_label
 _atom_site_symmetry_multiplicity
 _atom_site_fract_x
 _atom_site_fract_y
 _atom_site_fract_z
 _atom_site_occupancy
  Li  Li0  1  0.59753400  0.58688300  0.97904200  1
  Li  Li1  1  0.91441100  0.66669800  0.45787700  1
  Li  Li2  1  0.21680500  0.61001200  0.54872300  1
  Li  Li3  1  0.58559500  0.15632800  0.95650300  1
  Li  Li4  1  0.10293800  0.35502600  0.04751400  1
  Li  Li5  1  0.90255500  0.08384600  0.97570300  1
  Li  Li6  1  0.58142100  0.16278400  0.46266400  1
  Li  Li7  1  0.28452700  0.10972500  0.54749000  1
  Mn  Mn0  1  0.92674100  0.79788500  0.67585000  1
  Mn  Mn1  1  0.21727400  0.72944500  0.83894000  1
  Mn  Mn2  1  0.72386900  0.77845300  0.16764800  1
  Mn  Mn3  1  0.42919100  0.69163000  0.33103300  1
  Mn  Mn4  1  0.57353400  0.30072500  0.67359300  1
  Mn  Mn5  1  0.27704000  0.22188100  0.83995900  1
  Mn  Mn6  1  0.77808000  0.28271300  0.16584200  1
  Mn  Mn7  1  0.06778900  0.19245500  0.33160200  1
  P  P0  1  0.44523800  0.97189200  0.75351400  1
  P  P1  1  0.70904500  0.88363200  0.88595700  1
  P  P2  1  0.93026400  0.93485200  0.24250300  1
  P  P3  1  0.15474900  0.86964500  0.42133500  1
  P  P4  1  0.64217400  0.62265300  0.57181800  1
  P  P5  1  0.42608500  0.56620700  0.75898200  1
  P  P6  1  0.05440300  0.47404000  0.75567500  1
  P  P7  1  0.21237600  0.62003600  0.11699800  1
  P  P8  1  0.79181900  0.38775700  0.88891900  1
  P  P9  1  0.94028500  0.53358800  0.24248800  1
  P  P10  1  0.56924700  0.43350800  0.24213600  1
  P  P11  1  0.34027200  0.36803700  0.41796400  1
  P  P12  1  0.85540900  0.12210300  0.57830000  1
  P  P13  1  0.07719800  0.06926600  0.75779900  1
  P  P14  1  0.28796200  0.10940300  0.11590700  1
  P  P15  1  0.56111300  0.03370600  0.23903800  1
  O  O0  1  0.42273600  0.98331800  0.62087200  1
  O  O1  1  0.84943000  0.96412500  0.57566500  1
  O  O2  1  0.08794100  0.92146600  0.73092400  1
  O  O3  1  0.34171600  0.89031500  0.84318000  1
  O  O4  1  0.59090900  0.89552700  0.78457800  1
  O  O5  1  0.83088400  0.82084300  0.82705500  1
  O  O6  1  0.65730700  0.77706200  0.99967300  1
  O  O7  1  0.25746600  0.97160100  0.08606500  1
  O  O8  1  0.07746500  0.87589000  0.29248700  1
  O  O9  1  0.91315800  0.93239300  0.10960800  1
  O  O10  1  0.55944700  0.88604500  0.20269500  1
  O  O11  1  0.29276300  0.79971500  0.40649700  1
  O  O12  1  0.82296700  0.82897100  0.31096400  1
  O  O13  1  0.06623100  0.77462100  0.51935400  1
  O  O14  1  0.56095200  0.70447700  0.46493000  1
  O  O15  1  0.30346800  0.65647500  0.69767100  1
  O  O16  1  0.78571600  0.67854700  0.58654000  1
  O  O17  1  0.04151100  0.62841300  0.78609600  1
  O  O18  1  0.56351800  0.63709600  0.69656000  1
  O  O19  1  0.42672700  0.57841500  0.89067000  1
  O  O20  1  0.76470300  0.52827600  0.91687800  1
  O  O21  1  0.16355600  0.72893600  0.00425200  1
  O  O22  1  0.33005500  0.68114800  0.18233400  1
  O  O23  1  0.08609300  0.60971300  0.21428100  1
  O  O24  1  0.57915200  0.58261200  0.27120700  1
  O  O25  1  0.83713800  0.62017700  0.15330100  1
  O  O26  1  0.08754300  0.47559000  0.62578700  1
  O  O27  1  0.32866400  0.51703400  0.43932500  1
  O  O28  1  0.64866400  0.46324900  0.57034300  1
  O  O29  1  0.91428400  0.52206400  0.37445100  1
  O  O30  1  0.15075600  0.38917700  0.85367100  1
  O  O31  1  0.42011900  0.41513000  0.73025800  1
  O  O32  1  0.90665700  0.40088600  0.78229700  1
  O  O33  1  0.67204600  0.31266800  0.84074800  1
  O  O34  1  0.85846100  0.28234300  0.00129100  1
  O  O35  1  0.23506100  0.47829600  0.08777200  1
  O  O36  1  0.58801300  0.42740400  0.10945000  1
  O  O37  1  0.42220100  0.37321800  0.28985700  1
  O  O38  1  0.94962900  0.38618800  0.20062600  1
  O  O39  1  0.20048000  0.30477100  0.39941500  1
  O  O40  1  0.67976200  0.32954700  0.30992900  1
  O  O41  1  0.42505100  0.27027600  0.51455400  1
  O  O42  1  0.93226500  0.20327700  0.46864200  1
  O  O43  1  0.19669100  0.16412700  0.69456300  1
  O  O44  1  0.70844300  0.17806800  0.59597500  1
  O  O45  1  0.46020600  0.12493900  0.79094400  1
  O  O46  1  0.07851200  0.08899400  0.88881100  1
  O  O47  1  0.93537400  0.13844300  0.70041300  1
  O  O48  1  0.72980800  0.02652600  0.91535500  1
  O  O49  1  0.34776400  0.21725000  0.00288800  1
  O  O50  1  0.16874200  0.18663400  0.17276900  1
  O  O51  1  0.40795200  0.09834900  0.21700600  1
  O  O52  1  0.65286300  0.12878500  0.14123900  1
  O  O53  1  0.91907000  0.08553800  0.27112000  1
  O  O54  1  0.16835800  0.01904500  0.44053500  1
  O  O55  1  0.59497700  0.03117100  0.36800100  1
loop_
_geom_bond_atom_site_label_1
_geom_bond_atom_site_label_2
_geom_bond_distance
_geom_bond_site_symmetry_2
Li0 O20 1.886068 1_555
Li0 O36 1.919372 1_556
Li0 O19 1.946945 1_555
Li0 O6 2.001356 1_555
Li1 O29 1.832958 1_555
Li1 O16 1.916690 1_555
Li1 O13 2.016282 1_655
Li1 O12 2.235346 1_555
Li2 O26 1.898913 1_555
Li2 O27 1.970151 1_555
Li2 O15 2.001521 1_555
Li2 O13 2.140980 1_555
Li2 O11 2.316639 1_555
Li3 O33 1.986738 1_555
Li3 O48 1.988037 1_555
Li3 O52 2.139265 1_556
Li3 O45 2.294275 1_555
Li3 O49 2.453534 1_556
Li4 O35 1.878440 1_555
Li4 O50 2.045067 1_555
Li4 O30 2.176441 1_554
Li4 O38 2.320651 1_455
Li4 O34 2.565133 1_455
Li5 O9 1.893858 1_546
Li5 O48 1.937430 1_555
Li5 O46 1.953144 1_655
Li5 O34 2.049871 1_556
Li6 O55 1.815841 1_555
Li6 O44 1.970634 1_555
Li6 O41 1.981727 1_555
Li6 O40 2.324551 1_555
Li7 O0 1.895934 1_545
Li7 O54 1.981079 1_555
Li7 O43 2.003995 1_555
Li7 O41 2.060325 1_555
Li7 O39 2.411417 1_555
Mn0 O1 1.934711 1_555
Mn0 O5 1.972305 1_555
Mn0 O2 2.145667 1_655
Mn0 O17 2.168618 1_655
Mn0 O16 2.171123 1_555
Mn0 O13 2.247927 1_655
Mn1 O21 1.916022 1_556
Mn1 O3 1.993720 1_555
Mn1 O15 2.024733 1_555
Mn1 O17 2.119230 1_555
Mn1 O2 2.378878 1_555
Mn1 O19 2.505225 1_555
Mn2 O25 1.917386 1_555
Mn2 O10 1.979106 1_555
Mn2 O6 1.994582 1_554
Mn2 O12 2.017910 1_555
Mn2 O9 2.385904 1_555
Mn2 O24 2.474254 1_555
Mn3 O22 1.948304 1_555
Mn3 O11 1.967766 1_555
Mn3 O24 1.980721 1_555
Mn3 O14 1.999900 1_555
Mn3 O27 2.128286 1_555
Mn3 O10 2.492323 1_555
Mn4 O28 1.917458 1_555
Mn4 O31 2.021668 1_555
Mn4 O44 2.060982 1_555
Mn4 O33 2.130371 1_555
Mn4 O45 2.238258 1_555
Mn4 O41 2.362179 1_555
Mn5 O49 1.945216 1_556
Mn5 O43 1.986936 1_555
Mn5 O30 2.059696 1_555
Mn5 O45 2.122463 1_555
Mn5 O46 2.331032 1_555
Mn5 O31 2.470853 1_555
Mn6 O40 1.990927 1_555
Mn6 O34 1.993497 1_555
Mn6 O52 1.998059 1_555
Mn6 O38 2.030795 1_555
Mn6 O36 2.328930 1_555
Mn6 O53 2.463630 1_555
Mn7 O39 1.945704 1_555
Mn7 O53 1.983342 1_455
Mn7 O42 2.028398 1_455
Mn7 O50 2.031458 1_555
Mn7 O54 2.120973 1_555
Mn7 O38 2.441460 1_455
O0 P0 1.484442 1_555
O1 P12 1.546667 1_565
O2 P13 1.528943 1_565
O3 P0 1.528542 1_555
O4 P0 1.601312 1_555
O4 P1 1.607048 1_555
O5 P1 1.527993 1_555
O6 P1 1.562097 1_555
O7 P14 1.476783 1_565
O8 P2 1.599865 1_455
O8 P3 1.620914 1_555
O9 P2 1.501984 1_555
O10 P15 1.568289 1_565
O11 P3 1.519645 1_555
O12 P2 1.560413 1_555
O13 P3 1.550698 1_555
O14 P4 1.525697 1_555
O15 P5 1.557435 1_555
O16 P4 1.520676 1_555
O17 P6 1.608047 1_555
O18 P5 1.598680 1_555
O18 P4 1.613762 1_555
O19 P5 1.500448 1_555
O20 P8 1.482634 1_555
O21 P7 1.559269 1_555
O22 P7 1.543705 1_555
O23 P9 1.602898 1_455
O23 P7 1.622381 1_555
O24 P10 1.552048 1_555
O25 P9 1.546044 1_555
O26 P6 1.482671 1_555
O27 P11 1.518847 1_555
O28 P4 1.557125 1_555
O29 P9 1.478494 1_555
O30 P6 1.554918 1_555
O31 P5 1.567108 1_555
O32 P6 1.605636 1_655
O32 P8 1.612722 1_555
O33 P8 1.533021 1_555
O34 P8 1.600840 1_554
O35 P7 1.493044 1_555
O36 P10 1.506197 1_555
O37 P10 1.595189 1_555
O37 P11 1.625163 1_555
O38 P9 1.595139 1_555
O39 P11 1.525948 1_555
O40 P10 1.566389 1_555
O41 P11 1.536370 1_555
O42 P12 1.519364 1_555
O43 P13 1.565476 1_555
O44 P12 1.546954 1_555
O45 P0 1.631920 1_545
O46 P13 1.514251 1_555
O47 P13 1.610654 1_655
O47 P12 1.611259 1_555
O48 P1 1.505872 1_545
O49 P14 1.589914 1_555
O50 P14 1.570067 1_555
O51 P15 1.611541 1_555
O51 P14 1.618426 1_555
O52 P15 1.567049 1_555
O53 P2 1.564110 1_545
O54 P3 1.518377 1_545
O55 P15 1.477830 1_555
