# generated using pymatgen
data_Dy2H16S3O20
_symmetry_space_group_name_H-M   'P 1'
_cell_length_a   7.62421599
_cell_length_b   7.62421599
_cell_length_c   18.27382198
_cell_angle_alpha   80.74861162
_cell_angle_beta   80.74861162
_cell_angle_gamma   52.26730336
_symmetry_Int_Tables_number   1
_chemical_formula_structural   Dy2H16S3O20
_chemical_formula_sum   'Dy4 H32 S6 O40'
_cell_volume   826.51339588
_cell_formula_units_Z   2
loop_
 _symmetry_equiv_pos_site_id
 _symmetry_equiv_pos_as_xyz
  1  'x, y, z'
loop_
 _atom_site_type_symbol
 _atom_site_label
 _atom_site_symmetry_multiplicity
 _atom_site_fract_x
 _atom_site_fract_y
 _atom_site_fract_z
 _atom_site_occupancy
  Dy  Dy0  1  0.84448800  0.83613300  0.38862300  1
  Dy  Dy1  1  0.83613300  0.84448800  0.88862300  1
  Dy  Dy2  1  0.16386700  0.15551200  0.11137700  1
  Dy  Dy3  1  0.15551200  0.16386700  0.61137700  1
  H  H0  1  0.31415300  0.67573500  0.39232700  1
  H  H1  1  0.19526400  0.80172100  0.46571400  1
  H  H2  1  0.69308100  0.30291700  0.16011200  1
  H  H3  1  0.43665100  0.26341000  0.50510500  1
  H  H4  1  0.84581900  0.04199200  0.14658000  1
  H  H5  1  0.67573500  0.31415300  0.89232700  1
  H  H6  1  0.80172100  0.19526400  0.96571400  1
  H  H7  1  0.30291700  0.69308100  0.66011200  1
  H  H8  1  0.46003900  0.23904600  0.05062100  1
  H  H9  1  0.26341000  0.43665100  0.00510500  1
  H  H10  1  0.25816200  0.38483100  0.20128500  1
  H  H11  1  0.04199200  0.84581900  0.64658000  1
  H  H12  1  0.78117400  0.77062000  0.24144200  1
  H  H13  1  0.22938000  0.21882600  0.25855800  1
  H  H14  1  0.61516900  0.74183800  0.29871500  1
  H  H15  1  0.76095400  0.53996100  0.44937900  1
  H  H16  1  0.23904600  0.46003900  0.55062100  1
  H  H17  1  0.38483100  0.25816200  0.70128500  1
  H  H18  1  0.77062000  0.78117400  0.74144200  1
  H  H19  1  0.21882600  0.22938000  0.75855800  1
  H  H20  1  0.95800800  0.15418100  0.35342000  1
  H  H21  1  0.74183800  0.61516900  0.79871500  1
  H  H22  1  0.73659000  0.56334900  0.99489500  1
  H  H23  1  0.53996100  0.76095400  0.94937900  1
  H  H24  1  0.69708300  0.30691900  0.33988800  1
  H  H25  1  0.19827900  0.80473600  0.03428600  1
  H  H26  1  0.32426500  0.68584700  0.10767300  1
  H  H27  1  0.15418100  0.95800800  0.85342000  1
  H  H28  1  0.56334900  0.73659000  0.49489500  1
  H  H29  1  0.30691900  0.69708300  0.83988800  1
  H  H30  1  0.80473600  0.19827900  0.53428600  1
  H  H31  1  0.68584700  0.32426500  0.60767300  1
  S  S0  1  0.23388300  0.20798400  0.41200900  1
  S  S1  1  0.79201600  0.76611700  0.08799100  1
  S  S2  1  0.20798400  0.23388300  0.91200900  1
  S  S3  1  0.76611700  0.79201600  0.58799100  1
  S  S4  1  0.31613300  0.68386700  0.25000000  1
  S  S5  1  0.68386700  0.31613300  0.75000000  1
  O  O0  1  0.82108100  0.16156900  0.36155600  1
  O  O1  1  0.19041700  0.71923700  0.43158700  1
  O  O2  1  0.40682900  0.51849700  0.19367300  1
  O  O3  1  0.10596100  0.72879300  0.28712300  1
  O  O4  1  0.16156900  0.82108100  0.86155600  1
  O  O5  1  0.71923700  0.19041700  0.93158700  1
  O  O6  1  0.45678800  0.16144200  0.40281900  1
  O  O7  1  0.87873200  0.79357400  0.14860300  1
  O  O8  1  0.05836200  0.45153300  0.41290000  1
  O  O9  1  0.51849700  0.40682900  0.69367300  1
  O  O10  1  0.89931800  0.79120600  0.01475200  1
  O  O11  1  0.30393000  0.36945900  0.05585400  1
  O  O12  1  0.72879300  0.10596100  0.78712300  1
  O  O13  1  0.71322000  0.78770600  0.29329000  1
  O  O14  1  0.21229400  0.28678000  0.20671000  1
  O  O15  1  0.63054100  0.69607000  0.44414600  1
  O  O16  1  0.20879400  0.10068200  0.48524800  1
  O  O17  1  0.16144200  0.45678800  0.90281900  1
  O  O18  1  0.54846700  0.94163800  0.08710000  1
  O  O19  1  0.20642600  0.12126800  0.35139700  1
  O  O20  1  0.79357400  0.87873200  0.64860300  1
  O  O21  1  0.45153300  0.05836200  0.91290000  1
  O  O22  1  0.83855800  0.54321200  0.09718100  1
  O  O23  1  0.79120600  0.89931800  0.51475200  1
  O  O24  1  0.36945900  0.30393000  0.55585400  1
  O  O25  1  0.78770600  0.71322000  0.79329000  1
  O  O26  1  0.28678000  0.21229400  0.70671000  1
  O  O27  1  0.27120700  0.89403900  0.21287700  1
  O  O28  1  0.69607000  0.63054100  0.94414600  1
  O  O29  1  0.10068200  0.20879400  0.98524800  1
  O  O30  1  0.48150300  0.59317100  0.30632700  1
  O  O31  1  0.94163800  0.54846700  0.58710000  1
  O  O32  1  0.12126800  0.20642600  0.85139700  1
  O  O33  1  0.54321200  0.83855800  0.59718100  1
  O  O34  1  0.28076300  0.80958300  0.06841300  1
  O  O35  1  0.83843100  0.17891900  0.13844400  1
  O  O36  1  0.89403900  0.27120700  0.71287700  1
  O  O37  1  0.59317100  0.48150300  0.80632700  1
  O  O38  1  0.80958300  0.28076300  0.56841300  1
  O  O39  1  0.17891900  0.83843100  0.63844400  1
loop_
_geom_bond_atom_site_label_1
_geom_bond_atom_site_label_2
_geom_bond_distance
_geom_bond_site_symmetry_2
Dy0 O3 2.320879 1_655
Dy0 O13 2.322186 1_555
Dy0 O8 2.327237 1_655
Dy0 O0 2.350456 1_565
Dy0 O23 2.350723 1_555
Dy0 O1 2.435279 1_655
Dy0 O6 2.437891 1_565
Dy0 O15 2.466174 1_555
Dy1 O12 2.320879 1_565
Dy1 O25 2.322186 1_555
Dy1 O21 2.327237 1_565
Dy1 O4 2.350456 1_655
Dy1 O10 2.350723 1_556
Dy1 O5 2.435279 1_565
Dy1 O17 2.437891 1_655
Dy1 O28 2.466174 1_555
Dy2 O27 2.320879 1_545
Dy2 O14 2.322186 1_555
Dy2 O18 2.327237 1_545
Dy2 O35 2.350456 1_455
Dy2 O29 2.350723 1_554
Dy2 O34 2.435279 1_545
Dy2 O22 2.437891 1_455
Dy2 O11 2.466174 1_555
Dy3 O36 2.320879 1_455
Dy3 O26 2.322186 1_555
Dy3 O31 2.327237 1_455
Dy3 O39 2.350456 1_545
Dy3 O16 2.350723 1_555
Dy3 O38 2.435279 1_455
Dy3 O33 2.437891 1_545
Dy3 O24 2.466174 1_555
H0 O1 0.995298 1_555
H1 O1 0.973510 1_555
H2 O35 0.987718 1_555
H3 O24 0.981613 1_555
H4 O35 0.997971 1_555
H5 O5 0.995298 1_555
H6 O5 0.973510 1_555
H7 O39 0.987718 1_555
H8 O11 0.979739 1_555
H9 O11 0.981613 1_555
H10 O14 0.987913 1_555
H11 O39 0.997971 1_555
H12 O13 0.991121 1_555
H13 O14 0.991121 1_555
H14 O13 0.987913 1_555
H15 O15 0.979739 1_555
H16 O24 0.979739 1_555
H17 O26 0.987913 1_555
H18 O25 0.991121 1_555
H19 O26 0.991121 1_555
H20 O0 0.997971 1_555
H21 O25 0.987913 1_555
H22 O28 0.981613 1_555
H23 O28 0.979739 1_555
H24 O0 0.987718 1_555
H25 O34 0.973510 1_555
H26 O34 0.995298 1_555
H27 O4 0.997971 1_555
H28 O15 0.981613 1_555
H29 O4 0.987718 1_555
H30 O38 0.973510 1_555
H31 O38 0.995298 1_555
O2 S4 1.499541 1_555
O3 S4 1.482771 1_555
O6 S0 1.493861 1_555
O7 S1 1.478899 1_555
O8 S0 1.483363 1_555
O9 S5 1.499541 1_555
O10 S1 1.501412 1_555
O12 S5 1.482771 1_555
O16 S0 1.501412 1_555
O17 S2 1.493861 1_555
O18 S1 1.483363 1_555
O19 S0 1.478899 1_555
O20 S3 1.478899 1_555
O21 S2 1.483363 1_555
O22 S1 1.493861 1_555
O23 S3 1.501412 1_555
O27 S4 1.482771 1_555
O29 S2 1.501412 1_555
O30 S4 1.499541 1_555
O31 S3 1.483363 1_555
O32 S2 1.478899 1_555
O33 S3 1.493861 1_555
O36 S5 1.482771 1_555
O37 S5 1.499541 1_555
