# generated using pymatgen
data_NiP5O14
_symmetry_space_group_name_H-M   'P 1'
_cell_length_a   8.21066900
_cell_length_b   9.79409800
_cell_length_c   13.22680423
_cell_angle_alpha   82.30417904
_cell_angle_beta   90.00000000
_cell_angle_gamma   90.00000000
_symmetry_Int_Tables_number   1
_chemical_formula_structural   NiP5O14
_chemical_formula_sum   'Ni4 P20 O56'
_cell_volume   1054.06765996
_cell_formula_units_Z   4
loop_
 _symmetry_equiv_pos_site_id
 _symmetry_equiv_pos_as_xyz
  1  'x, y, z'
loop_
 _atom_site_type_symbol
 _atom_site_label
 _atom_site_symmetry_multiplicity
 _atom_site_fract_x
 _atom_site_fract_y
 _atom_site_fract_z
 _atom_site_occupancy
  Ni  Ni0  1  0.28988600  0.69955600  0.50186100  1
  Ni  Ni1  1  0.21011400  0.19955600  0.00186100  1
  Ni  Ni2  1  0.71011400  0.30044400  0.49813900  1
  Ni  Ni3  1  0.78988600  0.80044400  0.99813900  1
  P  P0  1  0.56945200  0.03913900  0.66232900  1
  P  P1  1  0.93054800  0.53913900  0.16232900  1
  P  P2  1  0.43054800  0.96086100  0.33767100  1
  P  P3  1  0.06945200  0.46086100  0.83767100  1
  P  P4  1  0.22633000  0.93144800  0.66275500  1
  P  P5  1  0.27367000  0.43144800  0.16275500  1
  P  P6  1  0.77367000  0.06855200  0.33724500  1
  P  P7  1  0.72633000  0.56855200  0.83724500  1
  P  P8  1  0.56100300  0.50724700  0.64182800  1
  P  P9  1  0.93899700  0.00724700  0.14182800  1
  P  P10  1  0.43899700  0.49275300  0.35817200  1
  P  P11  1  0.06100300  0.99275300  0.85817200  1
  P  P12  1  0.22139000  0.40914700  0.64676200  1
  P  P13  1  0.27861000  0.90914700  0.14676200  1
  P  P14  1  0.77861000  0.59085300  0.35323800  1
  P  P15  1  0.72139000  0.09085300  0.85323800  1
  P  P16  1  0.09497200  0.19013600  0.53211000  1
  P  P17  1  0.40502800  0.69013600  0.03211000  1
  P  P18  1  0.90502800  0.80986400  0.46789000  1
  P  P19  1  0.59497200  0.30986400  0.96789000  1
  O  O0  1  0.50699600  0.61848400  0.56105600  1
  O  O1  1  0.99300400  0.11848400  0.06105600  1
  O  O2  1  0.49300400  0.38151600  0.43894400  1
  O  O3  1  0.00699600  0.88151600  0.93894400  1
  O  O4  1  0.40138100  0.41645100  0.68859600  1
  O  O5  1  0.09861900  0.91645100  0.18859600  1
  O  O6  1  0.59861900  0.58354900  0.31140400  1
  O  O7  1  0.90138100  0.08354900  0.81140400  1
  O  O8  1  0.16347000  0.52982400  0.57761700  1
  O  O9  1  0.33653000  0.02982400  0.07761700  1
  O  O10  1  0.83653000  0.47017600  0.42238300  1
  O  O11  1  0.66347000  0.97017600  0.92238300  1
  O  O12  1  0.30854800  0.59181600  0.37743000  1
  O  O13  1  0.19145200  0.09181600  0.87743000  1
  O  O14  1  0.69145200  0.40818400  0.62257000  1
  O  O15  1  0.80854800  0.90818400  0.12257000  1
  O  O16  1  0.37963500  0.01191600  0.69658100  1
  O  O17  1  0.12036500  0.51191600  0.19658100  1
  O  O18  1  0.62036500  0.98808400  0.30341900  1
  O  O19  1  0.87963500  0.48808400  0.80341900  1
  O  O20  1  0.22143900  0.26735800  0.60105500  1
  O  O21  1  0.27856100  0.76735800  0.10105500  1
  O  O22  1  0.77856100  0.73264200  0.39894500  1
  O  O23  1  0.72143900  0.23264200  0.89894500  1
  O  O24  1  0.25869900  0.79621400  0.63105300  1
  O  O25  1  0.24130100  0.29621400  0.13105300  1
  O  O26  1  0.74130100  0.20378600  0.36894700  1
  O  O27  1  0.75869900  0.70378600  0.86894700  1
  O  O28  1  0.42576600  0.86771300  0.43677400  1
  O  O29  1  0.07423400  0.36771300  0.93677400  1
  O  O30  1  0.57423400  0.13228700  0.56322600  1
  O  O31  1  0.92576600  0.63228700  0.06322600  1
  O  O32  1  0.61606400  0.13074300  0.75311100  1
  O  O33  1  0.88393600  0.63074300  0.25311100  1
  O  O34  1  0.38393600  0.86925700  0.24688900  1
  O  O35  1  0.11606400  0.36925700  0.74688900  1
  O  O36  1  0.10759700  0.92319100  0.75655300  1
  O  O37  1  0.39240300  0.42319100  0.25655300  1
  O  O38  1  0.89240300  0.07680900  0.24344700  1
  O  O39  1  0.60759700  0.57680900  0.74344700  1
  O  O40  1  0.66177100  0.90536500  0.67668600  1
  O  O41  1  0.83822900  0.40536500  0.17668600  1
  O  O42  1  0.33822900  0.09463500  0.32331400  1
  O  O43  1  0.16177100  0.59463500  0.82331400  1
  O  O44  1  0.07613100  0.78279100  0.43758900  1
  O  O45  1  0.42386900  0.28279100  0.93758900  1
  O  O46  1  0.92386900  0.21720900  0.56241100  1
  O  O47  1  0.57613100  0.71720900  0.06241100  1
  O  O48  1  0.14307000  0.03175800  0.57264800  1
  O  O49  1  0.35693000  0.53175800  0.07264800  1
  O  O50  1  0.85693000  0.96824200  0.42735200  1
  O  O51  1  0.64307000  0.46824200  0.92735200  1
  O  O52  1  0.13466500  0.21858200  0.42048400  1
  O  O53  1  0.36533500  0.71858200  0.92048400  1
  O  O54  1  0.86533500  0.78141800  0.57951600  1
  O  O55  1  0.63466500  0.28141800  0.07951600  1
loop_
_geom_bond_atom_site_label_1
_geom_bond_atom_site_label_2
_geom_bond_distance
_geom_bond_site_symmetry_2
Ni0 O0 2.062699 1_555
Ni0 O44 2.069282 1_555
Ni0 O12 2.076255 1_555
Ni0 O24 2.077262 1_555
Ni0 O28 2.078110 1_555
Ni0 O8 2.097317 1_555
Ni1 O1 2.062699 1_455
Ni1 O45 2.069282 1_554
Ni1 O13 2.076255 1_554
Ni1 O25 2.077262 1_555
Ni1 O29 2.078110 1_554
Ni1 O9 2.097317 1_555
Ni2 O2 2.062699 1_555
Ni2 O46 2.069282 1_555
Ni2 O14 2.076255 1_555
Ni2 O26 2.077262 1_555
Ni2 O30 2.078110 1_555
Ni2 O10 2.097317 1_555
Ni3 O3 2.062699 1_655
Ni3 O47 2.069282 1_556
Ni3 O15 2.076255 1_556
Ni3 O27 2.077262 1_555
Ni3 O31 2.078110 1_556
Ni3 O11 2.097317 1_555
O0 P8 1.487689 1_555
O1 P9 1.487689 1_555
O2 P10 1.487689 1_555
O3 P11 1.487689 1_555
O4 P12 1.583011 1_555
O4 P8 1.656442 1_555
O5 P13 1.583011 1_555
O5 P9 1.656442 1_465
O6 P14 1.583011 1_555
O6 P10 1.656442 1_555
O7 P15 1.583011 1_555
O7 P11 1.656442 1_645
O8 P12 1.473101 1_555
O9 P13 1.473101 1_545
O10 P14 1.473101 1_555
O11 P15 1.473101 1_565
O12 P10 1.489840 1_555
O13 P11 1.489840 1_545
O14 P8 1.489840 1_555
O15 P9 1.489840 1_565
O16 P4 1.581187 1_545
O16 P0 1.634927 1_555
O17 P5 1.581187 1_555
O17 P1 1.634927 1_455
O18 P6 1.581187 1_565
O18 P2 1.634927 1_555
O19 P7 1.581187 1_555
O19 P3 1.634927 1_655
O20 P12 1.587079 1_555
O20 P16 1.632965 1_555
O21 P13 1.587079 1_555
O21 P17 1.632965 1_555
O22 P14 1.587079 1_555
O22 P18 1.632965 1_555
O23 P15 1.587079 1_555
O23 P19 1.632965 1_555
O24 P4 1.466115 1_555
O25 P5 1.466115 1_555
O26 P6 1.466115 1_555
O27 P7 1.466115 1_555
O28 P2 1.493917 1_555
O29 P3 1.493917 1_555
O30 P0 1.493917 1_555
O31 P1 1.493917 1_555
O32 P15 1.586147 1_555
O32 P0 1.637603 1_555
O33 P14 1.586147 1_555
O33 P1 1.637603 1_555
O34 P13 1.586147 1_555
O34 P2 1.637603 1_555
O35 P12 1.586147 1_555
O35 P3 1.637603 1_555
O36 P4 1.571388 1_555
O36 P11 1.631678 1_555
O37 P5 1.571388 1_555
O37 P10 1.631678 1_555
O38 P6 1.571388 1_555
O38 P9 1.631678 1_555
O39 P7 1.571388 1_555
O39 P8 1.631678 1_555
O40 P0 1.503530 1_565
O41 P1 1.503530 1_555
O42 P2 1.503530 1_545
O43 P3 1.503530 1_555
O44 P18 1.494342 1_455
O45 P19 1.494342 1_555
O46 P16 1.494342 1_655
O47 P17 1.494342 1_555
O48 P4 1.593546 1_545
O48 P16 1.620749 1_555
O49 P5 1.593546 1_555
O49 P17 1.620749 1_555
O50 P6 1.593546 1_565
O50 P18 1.620749 1_555
O51 P7 1.593546 1_555
O51 P19 1.620749 1_555
O52 P16 1.501194 1_555
O53 P17 1.501194 1_556
O54 P18 1.501194 1_555
O55 P19 1.501194 1_554
