# generated using pymatgen
data_Li4Fe3OF8
_symmetry_space_group_name_H-M   'P 1'
_cell_length_a   5.31607800
_cell_length_b   5.76209200
_cell_length_c   24.30001000
_cell_angle_alpha   90.00000000
_cell_angle_beta   90.00000000
_cell_angle_gamma   90.00000000
_symmetry_Int_Tables_number   1
_chemical_formula_structural   Li4Fe3OF8
_chemical_formula_sum   'Li16 Fe12 O4 F32'
_cell_volume   744.35135784
_cell_formula_units_Z   4
loop_
 _symmetry_equiv_pos_site_id
 _symmetry_equiv_pos_as_xyz
  1  'x, y, z'
loop_
 _atom_site_type_symbol
 _atom_site_label
 _atom_site_symmetry_multiplicity
 _atom_site_fract_x
 _atom_site_fract_y
 _atom_site_fract_z
 _atom_site_occupancy
  Li  Li0  1  0.99665600  0.98846600  0.57388600  1
  Li  Li1  1  0.99665600  0.98846600  0.42611400  1
  Li  Li2  1  0.55127000  0.99869500  0.78217400  1
  Li  Li3  1  0.55127000  0.99869500  0.21782600  1
  Li  Li4  1  0.05127000  0.00130500  0.71782600  1
  Li  Li5  1  0.05127000  0.00130500  0.28217400  1
  Li  Li6  1  0.49665600  0.01153400  0.07388600  1
  Li  Li7  1  0.49665600  0.01153400  0.92611400  1
  Li  Li8  1  0.48328800  0.37969700  0.43566100  1
  Li  Li9  1  0.48328800  0.37969700  0.56433900  1
  Li  Li10  1  0.93690000  0.50402800  0.21710200  1
  Li  Li11  1  0.93690000  0.50402800  0.78289800  1
  Li  Li12  1  0.43690000  0.49597200  0.71710200  1
  Li  Li13  1  0.43690000  0.49597200  0.28289800  1
  Li  Li14  1  0.98328800  0.62030300  0.06433900  1
  Li  Li15  1  0.98328800  0.62030300  0.93566100  1
  Fe  Fe0  1  0.46704400  0.91875800  0.50000000  1
  Fe  Fe1  1  0.00005300  0.99387100  0.13832700  1
  Fe  Fe2  1  0.00005300  0.99387100  0.86167300  1
  Fe  Fe3  1  0.50005300  0.00612900  0.63832700  1
  Fe  Fe4  1  0.50005300  0.00612900  0.36167300  1
  Fe  Fe5  1  0.96704400  0.08124200  0.00000000  1
  Fe  Fe6  1  0.99077300  0.38533600  0.50000000  1
  Fe  Fe7  1  0.49473000  0.48524700  0.14215600  1
  Fe  Fe8  1  0.49473000  0.48524700  0.85784400  1
  Fe  Fe9  1  0.99473000  0.51475300  0.64215600  1
  Fe  Fe10  1  0.99473000  0.51475300  0.35784400  1
  Fe  Fe11  1  0.49077300  0.61466400  0.00000000  1
  O  O0  1  0.34461500  0.06204500  0.43305000  1
  O  O1  1  0.34461500  0.06204500  0.56695000  1
  O  O2  1  0.84461500  0.93795500  0.93305000  1
  O  O3  1  0.84461500  0.93795500  0.06695000  1
  F  F0  1  0.29052800  0.73272200  0.10104700  1
  F  F1  1  0.29052800  0.73272200  0.89895300  1
  F  F2  1  0.73355400  0.74336600  0.17719300  1
  F  F3  1  0.73355400  0.74336600  0.82280700  1
  F  F4  1  0.36424300  0.94470300  0.00000000  1
  F  F5  1  0.19068500  0.97369200  0.21046300  1
  F  F6  1  0.19068500  0.97369200  0.78953700  1
  F  F7  1  0.69068500  0.02630800  0.71046300  1
  F  F8  1  0.69068500  0.02630800  0.28953700  1
  F  F9  1  0.86424300  0.05529700  0.50000000  1
  F  F10  1  0.23355400  0.25663400  0.67719300  1
  F  F11  1  0.23355400  0.25663400  0.32280700  1
  F  F12  1  0.79052800  0.26727800  0.60104700  1
  F  F13  1  0.79052800  0.26727800  0.39895300  1
  F  F14  1  0.28295400  0.22042400  0.89063900  1
  F  F15  1  0.28295400  0.22042400  0.10936100  1
  F  F16  1  0.74812600  0.24496400  0.17732200  1
  F  F17  1  0.74812600  0.24496400  0.82267800  1
  F  F18  1  0.12526100  0.46043100  0.00000000  1
  F  F19  1  0.28882800  0.47732100  0.21407300  1
  F  F20  1  0.28882800  0.47732100  0.78592700  1
  F  F21  1  0.18415100  0.55329100  0.56026900  1
  F  F22  1  0.18415100  0.55329100  0.43973100  1
  F  F23  1  0.68415100  0.44670900  0.06026900  1
  F  F24  1  0.68415100  0.44670900  0.93973100  1
  F  F25  1  0.78882800  0.52267900  0.71407300  1
  F  F26  1  0.78882800  0.52267900  0.28592700  1
  F  F27  1  0.62526100  0.53956900  0.50000000  1
  F  F28  1  0.24812600  0.75503600  0.67732200  1
  F  F29  1  0.24812600  0.75503600  0.32267800  1
  F  F30  1  0.78295400  0.77957600  0.60936100  1
  F  F31  1  0.78295400  0.77957600  0.39063900  1
loop_
_geom_bond_atom_site_label_1
_geom_bond_atom_site_label_2
_geom_bond_distance
_geom_bond_site_symmetry_2
Li0 O1 1.905212 1_665
Li1 O0 1.905212 1_665
Li6 O3 1.905212 1_545
Li7 O2 1.905212 1_545
Li8 O0 1.974241 1_555
Li9 O1 1.974241 1_555
Li14 O3 1.974241 1_555
Li15 O2 1.974241 1_555
Fe0 O1 1.937014 1_565
Fe0 O0 1.937014 1_565
Fe1 O3 1.948069 1_455
Fe2 O2 1.948069 1_455
Fe3 O1 1.948069 1_555
Fe4 O0 1.948069 1_555
Fe5 O2 1.937014 1_544
Fe5 O3 1.937014 1_545
F0 Li14 1.970529 1_455
F0 Fe7 2.051762 1_555
F0 Li6 2.053619 1_565
F0 Fe1 2.338695 1_555
F1 Li15 1.970529 1_455
F1 Fe8 2.051762 1_555
F1 Li7 2.053619 1_565
F1 Fe2 2.338695 1_555
F2 Li10 2.002733 1_555
F2 Li3 2.019522 1_555
F2 Fe7 2.132806 1_555
F2 Fe1 2.232173 1_655
F3 Li11 2.002733 1_555
F3 Li2 2.019522 1_555
F3 Fe8 2.132806 1_555
F3 Fe2 2.232173 1_655
F4 Li6 1.966561 1_565
F4 Li7 1.966561 1_564
F4 Fe11 2.017169 1_555
F4 Fe5 2.253349 1_465
F5 Li5 1.900311 1_565
F5 Li3 1.930613 1_555
F5 Fe1 2.028104 1_555
F6 Li4 1.900311 1_565
F6 Li2 1.930613 1_555
F6 Fe2 2.028104 1_555
F7 Li2 1.900311 1_545
F7 Li4 1.930613 1_655
F7 Fe3 2.028104 1_555
F8 Li3 1.900311 1_545
F8 Li5 1.930613 1_655
F8 Fe4 2.028104 1_555
F9 Li1 1.966561 1_545
F9 Li0 1.966561 1_545
F9 Fe6 2.017169 1_555
F9 Fe0 2.253349 1_545
F10 Li12 2.002733 1_555
F10 Li4 2.019522 1_555
F10 Fe9 2.132806 1_455
F10 Fe3 2.232173 1_555
F11 Li13 2.002733 1_555
F11 Li5 2.019522 1_555
F11 Fe10 2.132806 1_455
F11 Fe4 2.232173 1_555
F12 Li9 1.970529 1_555
F12 Fe9 2.051762 1_555
F12 Li0 2.053619 1_545
F12 Fe3 2.338695 1_555
F13 Li8 1.970529 1_555
F13 Fe10 2.051762 1_555
F13 Li1 2.053619 1_545
F13 Fe4 2.338695 1_555
F14 Li7 1.866146 1_555
F14 Fe8 2.056945 1_555
F14 Fe2 2.112190 1_545
F15 Li6 1.866146 1_555
F15 Fe7 2.056945 1_555
F15 Fe1 2.112190 1_545
F16 Li3 2.019292 1_545
F16 Li10 2.042012 1_555
F16 Fe7 2.112289 1_555
F16 Fe1 2.187424 1_645
F17 Li2 2.019292 1_545
F17 Li11 2.042012 1_555
F17 Fe8 2.112289 1_555
F17 Fe2 2.187424 1_645
F18 Li14 1.965344 1_455
F18 Li15 1.965344 1_454
F18 Fe11 2.136679 1_555
F18 Fe5 2.341222 1_455
F19 Li13 1.851555 1_555
F19 Li10 1.878637 1_455
F19 Fe7 2.062587 1_555
F20 Li12 1.851555 1_555
F20 Li11 1.878637 1_455
F20 Fe8 2.062587 1_555
F21 Li9 1.881266 1_555
F21 Fe6 2.034272 1_455
F21 Fe9 2.241168 1_455
F22 Li8 1.881266 1_555
F22 Fe6 2.034272 1_455
F22 Fe10 2.241168 1_455
F23 Li14 1.881266 1_555
F23 Fe11 2.034272 1_555
F23 Fe7 2.241168 1_555
F24 Li15 1.881266 1_555
F24 Fe11 2.034272 1_556
F24 Fe8 2.241168 1_555
F25 Li11 1.851555 1_555
F25 Li12 1.878637 1_555
F25 Fe9 2.062587 1_555
F26 Li10 1.851555 1_555
F26 Li13 1.878637 1_555
F26 Fe10 2.062587 1_555
F27 Li8 1.965344 1_555
F27 Li9 1.965344 1_555
F27 Fe6 2.136679 1_555
F27 Fe0 2.341222 1_555
F28 Li4 2.019292 1_565
F28 Li12 2.042012 1_555
F28 Fe9 2.112289 1_455
F28 Fe3 2.187424 1_565
F29 Li5 2.019292 1_565
F29 Li13 2.042012 1_555
F29 Fe10 2.112289 1_455
F29 Fe4 2.187424 1_565
F30 Li0 1.866146 1_555
F30 Fe9 2.056945 1_555
F30 Fe3 2.112190 1_565
F31 Li1 1.866146 1_555
F31 Fe10 2.056945 1_555
F31 Fe4 2.112190 1_565
