# generated using pymatgen
data_Li4VCr3O8
_symmetry_space_group_name_H-M   'P 1'
_cell_length_a   5.94944708
_cell_length_b   10.32237480
_cell_length_c   5.95098642
_cell_angle_alpha   90.06725375
_cell_angle_beta   119.97327812
_cell_angle_gamma   73.24128465
_symmetry_Int_Tables_number   1
_chemical_formula_structural   Li4VCr3O8
_chemical_formula_sum   'Li8 V2 Cr6 O16'
_cell_volume   298.60921215
_cell_formula_units_Z   2
loop_
 _symmetry_equiv_pos_site_id
 _symmetry_equiv_pos_as_xyz
  1  'x, y, z'
loop_
 _atom_site_type_symbol
 _atom_site_label
 _atom_site_symmetry_multiplicity
 _atom_site_fract_x
 _atom_site_fract_y
 _atom_site_fract_z
 _atom_site_occupancy
  Li  Li0  1  0.49719000  0.24967300  0.24399700  1
  Li  Li1  1  0.49709200  0.74976200  0.74399300  1
  Li  Li2  1  0.99923300  0.24998000  0.24848900  1
  Li  Li3  1  0.99940600  0.74979400  0.74855700  1
  Li  Li4  1  0.49912700  0.24992700  0.74574000  1
  Li  Li5  1  0.49924500  0.74973900  0.24575500  1
  Li  Li6  1  0.99666400  0.24994000  0.74570400  1
  Li  Li7  1  0.99679600  0.74972700  0.24579100  1
  V  V0  1  0.99905900  0.49985200  0.49799500  1
  V  V1  1  0.99907300  0.99985300  0.99800100  1
  Cr  Cr0  1  0.49895900  0.99983400  0.99776500  1
  Cr  Cr1  1  0.49906700  0.99978200  0.49785400  1
  Cr  Cr2  1  0.99899600  0.99978800  0.49784900  1
  Cr  Cr3  1  0.49897700  0.49983600  0.49779100  1
  Cr  Cr4  1  0.49908200  0.49977700  0.99786200  1
  Cr  Cr5  1  0.99898900  0.49978100  0.99785300  1
  O  O0  1  0.74009500  0.38796000  0.86799300  1
  O  O1  1  0.73998400  0.88808800  0.36795400  1
  O  O2  1  0.25800600  0.11152300  0.62761600  1
  O  O3  1  0.25788300  0.61166400  0.12757700  1
  O  O4  1  0.25951300  0.11382300  0.12844400  1
  O  O5  1  0.25956100  0.61300100  0.62844300  1
  O  O6  1  0.24190900  0.38677600  0.36751600  1
  O  O7  1  0.24289600  0.88586300  0.86740400  1
  O  O8  1  0.75518900  0.11375300  0.62419600  1
  O  O9  1  0.75600900  0.61293400  0.12501200  1
  O  O10  1  0.24207000  0.38669700  0.87077900  1
  O  O11  1  0.24289900  0.88586200  0.37158800  1
  O  O12  1  0.75514300  0.11376100  0.12840500  1
  O  O13  1  0.75612500  0.61284600  0.62829100  1
  O  O14  1  0.73858800  0.38662200  0.36736800  1
  O  O15  1  0.73864700  0.88579700  0.86737200  1
loop_
_geom_bond_atom_site_label_1
_geom_bond_atom_site_label_2
_geom_bond_distance
_geom_bond_site_symmetry_2
Li0 O12 2.146528 1_555
Li0 O4 2.146738 1_555
Li0 O10 2.153650 1_554
Li0 O14 2.171366 1_555
Li0 O6 2.173337 1_555
Li0 O8 2.176952 1_555
Li1 O11 2.146029 1_555
Li1 O5 2.154074 1_555
Li1 O13 2.156022 1_555
Li1 O7 2.163865 1_555
Li1 O15 2.164071 1_555
Li1 O9 2.184462 1_556
Li2 O14 2.174175 1_555
Li2 O4 2.175201 1_655
Li2 O6 2.175238 1_655
Li2 O12 2.175996 1_555
Li2 O2 2.184300 1_655
Li2 O0 2.187642 1_554
Li3 O15 2.171472 1_555
Li3 O7 2.172287 1_655
Li3 O5 2.177869 1_655
Li3 O13 2.178991 1_555
Li3 O3 2.182341 1_656
Li3 O1 2.189534 1_555
Li4 O8 2.164151 1_555
Li4 O6 2.173158 1_555
Li4 O0 2.179013 1_555
Li4 O2 2.182897 1_555
Li4 O10 2.185230 1_555
Li4 O12 2.188267 1_556
Li5 O9 2.166655 1_555
Li5 O7 2.170338 1_554
Li5 O1 2.180838 1_555
Li5 O3 2.181013 1_555
Li5 O11 2.182641 1_555
Li5 O13 2.191024 1_555
Li6 O8 2.165017 1_555
Li6 O14 2.172846 1_555
Li6 O0 2.177795 1_555
Li6 O2 2.181994 1_655
Li6 O10 2.186033 1_655
Li6 O4 2.188360 1_656
Li7 O9 2.167474 1_555
Li7 O15 2.170370 1_554
Li7 O3 2.179825 1_655
Li7 O1 2.179855 1_555
Li7 O11 2.183523 1_655
Li7 O5 2.190754 1_655
Cr0 O2 2.033225 1_565
Cr0 O1 2.033614 1_556
Cr0 O15 2.038811 1_555
Cr0 O4 2.038826 1_566
Cr0 O7 2.038932 1_555
Cr0 O12 2.039104 1_566
Cr1 O1 2.033053 1_555
Cr1 O2 2.033255 1_565
Cr1 O11 2.038957 1_555
Cr1 O4 2.039043 1_565
Cr1 O8 2.039172 1_565
Cr1 O15 2.039294 1_555
Cr2 O1 2.033199 1_555
Cr2 O2 2.033473 1_665
Cr2 O11 2.038735 1_655
Cr2 O8 2.038838 1_565
Cr2 O12 2.038931 1_565
Cr2 O7 2.039226 1_655
Cr3 O3 2.034032 1_555
Cr3 O0 2.034161 1_555
Cr3 O5 2.035403 1_555
Cr3 O14 2.035436 1_555
Cr3 O13 2.035773 1_555
Cr3 O6 2.035828 1_555
Cr4 O0 2.033797 1_555
Cr4 O3 2.034199 1_556
Cr4 O10 2.035744 1_555
Cr4 O5 2.035919 1_555
Cr4 O9 2.036001 1_556
Cr4 O14 2.036032 1_556
Cr5 O0 2.033666 1_555
Cr5 O3 2.034168 1_656
Cr5 O10 2.035457 1_655
Cr5 O9 2.035648 1_556
Cr5 O13 2.035926 1_555
Cr5 O6 2.036135 1_656
O4 V1 2.057842 1_444
O5 V0 2.051437 1_455
O6 V0 2.049178 1_455
O7 V1 2.057376 1_455
O8 V1 2.057507 1_545
O9 V0 2.050825 1_555
O10 V0 2.050236 1_455
O11 V1 2.056908 1_454
O12 V1 2.056691 1_544
O13 V0 2.048438 1_555
O14 V0 2.051961 1_555
O15 V1 2.058482 1_555
