# generated using pymatgen
data_Pr(Al2Cu)4
_symmetry_space_group_name_H-M   'P 1'
_cell_length_a   5.13323311
_cell_length_b   6.73652684
_cell_length_c   6.73653145
_cell_angle_alpha   98.50488983
_cell_angle_beta   67.46287205
_cell_angle_gamma   112.53714602
_symmetry_Int_Tables_number   1
_chemical_formula_structural   Pr(Al2Cu)4
_chemical_formula_sum   'Pr1 Al8 Cu4'
_cell_volume   198.72859541
_cell_formula_units_Z   1
loop_
 _symmetry_equiv_pos_site_id
 _symmetry_equiv_pos_as_xyz
  1  'x, y, z'
loop_
 _atom_site_type_symbol
 _atom_site_label
 _atom_site_symmetry_multiplicity
 _atom_site_fract_x
 _atom_site_fract_y
 _atom_site_fract_z
 _atom_site_occupancy
  Pr  Pr0  1  -0.00000028  -0.00000006  -0.00000004  1
  Al  Al0  1  0.49999982  0.22182823  0.22182808  1
  Al  Al1  1  0.27835446  0.77804647  0.22195367  1
  Al  Al2  1  0.99999963  0.34970110  0.34970224  1
  Al  Al3  1  0.64991535  0.65033616  0.34966484  1
  Al  Al4  1  0.00000018  0.65029886  0.65029779  1
  Al  Al5  1  0.35008334  0.34966426  0.65033566  1
  Al  Al6  1  0.49999988  0.77817135  0.77817151  1
  Al  Al7  1  0.72164443  0.22195339  0.77804629  1
  Cu  Cu0  1  -0.00000010  0.49999981  0.00000009  1
  Cu  Cu1  1  0.49999993  0.50000010  0.00000014  1
  Cu  Cu2  1  0.99999967  0.00000011  0.49999977  1
  Cu  Cu3  1  0.49999970  0.00000024  0.49999995  1
loop_
_geom_bond_atom_site_label_1
_geom_bond_atom_site_label_2
_geom_bond_distance
_geom_bond_site_symmetry_2
Al0 Cu0 2.556063 1_655
Al0 Cu2 2.556064 1_455
Al0 Cu1 2.563771 1_555
Al0 Cu3 2.563771 1_555
Al0 Al1 2.761253 1_545
Al0 Al7 2.761256 1_554
Al0 Al5 2.781447 1_555
Al0 Al3 2.781448 1_555
Al0 Al2 2.802164 1_455
Al0 Al2 2.802168 1_555
Al0 Pr0 3.223845 1_655
Al0 Pr0 3.223845 1_555
Al1 Cu3 2.557277 1_565
Al1 Cu1 2.557277 1_555
Al1 Cu2 2.558000 1_465
Al1 Cu0 2.558000 1_555
Al1 Al6 2.761258 1_554
Al1 Al4 2.782082 1_555
Al1 Al2 2.782089 1_455
Al1 Al3 2.801941 1_455
Al1 Al3 2.802286 1_555
Al1 Pr0 3.219198 1_665
Al1 Pr0 3.232577 1_565
Al2 Al4 2.643518 1_655
Al2 Cu3 2.690881 1_555
Al2 Cu1 2.690889 1_655
Al2 Cu2 2.698200 1_555
Al2 Cu0 2.698212 1_655
Al2 Al7 2.782081 1_555
Al2 Pr0 3.075359 1_655
Al3 Al5 2.647275 1_555
Al3 Cu2 2.692242 1_565
Al3 Cu0 2.692252 1_655
Al3 Cu3 2.693110 1_565
Al3 Cu1 2.693116 1_555
Al3 Al6 2.781440 1_555
Al3 Pr0 3.078608 1_665
Al4 Cu3 2.690882 1_565
Al4 Cu1 2.690889 1_456
Al4 Cu2 2.698205 1_465
Al4 Cu0 2.698214 1_556
Al4 Al7 2.782089 1_455
Al4 Al6 2.802163 1_455
Al4 Al6 2.802166 1_555
Al4 Pr0 3.075358 1_566
Al5 Cu2 2.692245 1_455
Al5 Cu0 2.692245 1_556
Al5 Cu3 2.693112 1_555
Al5 Cu1 2.693117 1_556
Al5 Al6 2.781442 1_555
Al5 Al7 2.801940 1_455
Al5 Al7 2.802287 1_555
Al5 Pr0 3.078608 1_556
Al6 Cu0 2.556064 1_556
Al6 Cu2 2.556065 1_565
Al6 Cu1 2.563771 1_556
Al6 Cu3 2.563774 1_565
Al6 Al7 2.761255 1_565
Al6 Pr0 3.223846 1_666
Al6 Pr0 3.223848 1_566
Al7 Cu3 2.557275 1_555
Al7 Cu1 2.557278 1_556
Al7 Cu2 2.558001 1_555
Al7 Cu0 2.558003 1_656
Al7 Pr0 3.219195 1_556
Al7 Pr0 3.232579 1_656
Cu0 Cu1 2.566616 1_555
Cu0 Cu1 2.566617 1_455
Cu0 Pr0 3.368262 1_555
Cu0 Pr0 3.368265 1_565
Cu1 Pr0 3.362399 1_665
Cu1 Pr0 3.362402 1_555
Cu2 Cu3 2.566616 1_555
Cu2 Cu3 2.566617 1_655
Cu2 Pr0 3.368264 1_655
Cu2 Pr0 3.368267 1_656
Cu3 Pr0 3.362403 1_556
Cu3 Pr0 3.362403 1_655
