# generated using pymatgen
data_Ti2CoIr
_symmetry_space_group_name_H-M   'P 1'
_cell_length_a   4.32208532
_cell_length_b   4.32208532
_cell_length_c   4.32208532
_cell_angle_alpha   60.00000000
_cell_angle_beta   60.00000000
_cell_angle_gamma   60.00000000
_symmetry_Int_Tables_number   1
_chemical_formula_structural   Ti2CoIr
_chemical_formula_sum   'Ti2 Co1 Ir1'
_cell_volume   57.09065296
_cell_formula_units_Z   1
loop_
 _symmetry_equiv_pos_site_id
 _symmetry_equiv_pos_as_xyz
  1  'x, y, z'
loop_
 _atom_site_type_symbol
 _atom_site_label
 _atom_site_symmetry_multiplicity
 _atom_site_fract_x
 _atom_site_fract_y
 _atom_site_fract_z
 _atom_site_occupancy
  Ti  Ti0  1  0.00000000  -0.00000000  0.00000000  1
  Ti  Ti1  1  0.49999900  0.49999900  0.49999900  1
  Co  Co0  1  0.25000000  0.25000000  0.25000000  1
  Ir  Ir0  1  0.75000100  0.75000100  0.75000100  1
loop_
_geom_bond_atom_site_label_1
_geom_bond_atom_site_label_2
_geom_bond_distance
_geom_bond_site_symmetry_2
Co0 Ti1 2.646715 1_555
Co0 Ti0 2.646726 1_556
Co0 Ti0 2.646726 1_555
Co0 Ti0 2.646726 1_565
Co0 Ti0 2.646726 1_655
Co0 Ti1 2.646729 1_554
Co0 Ti1 2.646729 1_545
Co0 Ti1 2.646729 1_455
Ir0 Ti0 2.646715 1_666
Ir0 Ti1 2.646719 1_556
Ir0 Ti1 2.646719 1_565
Ir0 Ti1 2.646719 1_655
Ir0 Ti0 2.646729 1_566
Ir0 Ti0 2.646729 1_656
Ir0 Ti0 2.646729 1_665
Ir0 Ti1 2.646747 1_555
