# generated using pymatgen
data_Li7Mn4(P2O7)4
_symmetry_space_group_name_H-M   'P 1'
_cell_length_a   9.90579700
_cell_length_b   9.91138910
_cell_length_c   11.34523934
_cell_angle_alpha   102.65985336
_cell_angle_beta   90.11584167
_cell_angle_gamma   90.34443961
_symmetry_Int_Tables_number   1
_chemical_formula_structural   Li7Mn4(P2O7)4
_chemical_formula_sum   'Li14 Mn8 P16 O56'
_cell_volume   1086.77174608
_cell_formula_units_Z   2
loop_
 _symmetry_equiv_pos_site_id
 _symmetry_equiv_pos_as_xyz
  1  'x, y, z'
loop_
 _atom_site_type_symbol
 _atom_site_label
 _atom_site_symmetry_multiplicity
 _atom_site_fract_x
 _atom_site_fract_y
 _atom_site_fract_z
 _atom_site_occupancy
  Li  Li0  1  0.28823300  0.11454300  0.44988100  1
  Li  Li1  1  0.89386800  0.08534300  0.02835200  1
  Li  Li2  1  0.09117300  0.34520300  0.95637500  1
  Li  Li3  1  0.58790300  0.15022000  0.04258200  1
  Li  Li4  1  0.39105200  0.41497600  0.96977500  1
  Li  Li5  1  0.07801800  0.32942400  0.45478400  1
  Li  Li6  1  0.77470700  0.38120200  0.55236900  1
  Li  Li7  1  0.22228600  0.61229600  0.44885800  1
  Li  Li8  1  0.92104700  0.66995900  0.54687200  1
  Li  Li9  1  0.60619500  0.58589200  0.02767200  1
  Li  Li10  1  0.90785000  0.65706800  0.04156300  1
  Li  Li11  1  0.11072000  0.91259400  0.97252700  1
  Li  Li12  1  0.42782100  0.83826200  0.46158300  1
  Li  Li13  1  0.71859400  0.89597900  0.55370800  1
  Mn  Mn0  1  0.08111500  0.20331100  0.67566100  1
  Mn  Mn1  1  0.78332400  0.25321900  0.82115000  1
  Mn  Mn2  1  0.28528800  0.24073400  0.17362100  1
  Mn  Mn3  1  0.57338000  0.29381500  0.33288500  1
  Mn  Mn4  1  0.41935700  0.70607100  0.68246300  1
  Mn  Mn5  1  0.71060500  0.75858100  0.82573700  1
  Mn  Mn6  1  0.21674600  0.74430200  0.17399300  1
  Mn  Mn7  1  0.92018100  0.79937500  0.32594100  1
  P  P0  1  0.54565900  0.02400500  0.75588200  1
  P  P1  1  0.29482300  0.11717100  0.89109000  1
  P  P2  1  0.06903100  0.05852600  0.24411400  1
  P  P3  1  0.84856600  0.12427600  0.42530700  1
  P  P4  1  0.35154200  0.37893800  0.57303700  1
  P  P5  1  0.56893300  0.44160900  0.75703900  1
  P  P6  1  0.95078500  0.52545500  0.75987500  1
  P  P7  1  0.79436700  0.38090500  0.10810100  1
  P  P8  1  0.20510500  0.61877900  0.89017600  1
  P  P9  1  0.04717500  0.47444900  0.23954900  1
  P  P10  1  0.43268900  0.55797200  0.24325100  1
  P  P11  1  0.64902200  0.62234100  0.42614200  1
  P  P12  1  0.15061200  0.87720400  0.57427000  1
  P  P13  1  0.93251600  0.94012500  0.75667500  1
  P  P14  1  0.70568700  0.88063200  0.10858300  1
  P  P15  1  0.45276700  0.97272500  0.24120000  1
  O  O0  1  0.58413500  0.02211400  0.62812300  1
  O  O1  1  0.16201400  0.02349700  0.55333900  1
  O  O2  1  0.91354600  0.08532200  0.73087000  1
  O  O3  1  0.63821100  0.11045500  0.85500800  1
  O  O4  1  0.39855700  0.09287600  0.77638100  1
  O  O5  1  0.17346100  0.18699500  0.84450500  1
  O  O6  1  0.36641900  0.22332100  0.99657900  1
  O  O7  1  0.72430300  0.01932600  0.07617400  1
  O  O8  1  0.92265200  0.11243700  0.29529000  1
  O  O9  1  0.06579300  0.06360900  0.11185300  1
  O  O10  1  0.46776100  0.12295900  0.21641900  1
  O  O11  1  0.71368100  0.19191900  0.41181200  1
  O  O12  1  0.17459000  0.16330800  0.31314700  1
  O  O13  1  0.93601400  0.22360600  0.51871700  1
  O  O14  1  0.42819000  0.28234100  0.47348200  1
  O  O15  1  0.68114400  0.34482000  0.69546400  1
  O  O16  1  0.21030000  0.31701500  0.58306700  1
  O  O17  1  0.96285800  0.37770000  0.78707500  1
  O  O18  1  0.42443200  0.38243100  0.70111600  1
  O  O19  1  0.56069500  0.43900100  0.88952000  1
  O  O20  1  0.22199200  0.48085200  0.92494900  1
  O  O21  1  0.86416300  0.27708300  0.00200900  1
  O  O22  1  0.66971900  0.31686100  0.15370900  1
  O  O23  1  0.89854400  0.40536900  0.22324000  1
  O  O24  1  0.41453400  0.41271400  0.27081400  1
  O  O25  1  0.13754300  0.38484500  0.14382900  1
  O  O26  1  0.91324500  0.52190200  0.62931700  1
  O  O27  1  0.65717500  0.47371200  0.44424000  1
  O  O28  1  0.34232700  0.53104600  0.56103700  1
  O  O29  1  0.08550600  0.47675400  0.36968900  1
  O  O30  1  0.85960000  0.61596400  0.85488100  1
  O  O31  1  0.58511900  0.58754200  0.72907300  1
  O  O32  1  0.09842200  0.59518900  0.77663600  1
  O  O33  1  0.32788800  0.67757800  0.84040500  1
  O  O34  1  0.13476900  0.72196800  0.99687600  1
  O  O35  1  0.77674500  0.51994600  0.07593000  1
  O  O36  1  0.43516900  0.56158300  0.11118100  1
  O  O37  1  0.58011800  0.61415200  0.29502900  1
  O  O38  1  0.03748400  0.62350100  0.21409500  1
  O  O39  1  0.78999400  0.68491600  0.41839400  1
  O  O40  1  0.32685400  0.66197900  0.31082000  1
  O  O41  1  0.56374200  0.72295600  0.51805600  1
  O  O42  1  0.06465700  0.77478200  0.48237400  1
  O  O43  1  0.82738300  0.83488100  0.68735100  1
  O  O44  1  0.29059300  0.81218700  0.58320100  1
  O  O45  1  0.53597200  0.87299200  0.78079100  1
  O  O46  1  0.93568300  0.93569800  0.88892200  1
  O  O47  1  0.08010700  0.88664900  0.70458600  1
  O  O48  1  0.26968400  0.98192200  0.92349200  1
  O  O49  1  0.64517200  0.77158300  0.00273100  1
  O  O50  1  0.83089300  0.82077600  0.15775900  1
  O  O51  1  0.59928800  0.90170900  0.22110200  1
  O  O52  1  0.35517500  0.88893900  0.14836700  1
  O  O53  1  0.08773100  0.91243400  0.26908200  1
  O  O54  1  0.83778900  0.97665100  0.44486100  1
  O  O55  1  0.41562400  0.97529600  0.37065600  1
loop_
_geom_bond_atom_site_label_1
_geom_bond_atom_site_label_2
_geom_bond_distance
_geom_bond_site_symmetry_2
Li0 O55 1.945983 1_545
Li0 O1 2.052292 1_555
Li0 O12 2.058023 1_555
Li0 O14 2.129621 1_555
Li0 O16 2.366546 1_555
Li1 O7 1.920908 1_555
Li1 O46 1.963507 1_544
Li1 O9 1.982822 1_655
Li1 O21 2.010668 1_555
Li2 O20 1.950646 1_555
Li2 O5 1.970103 1_555
Li2 O25 2.125059 1_556
Li2 O17 2.382192 1_455
Li2 O21 2.433162 1_456
Li3 O7 1.972222 1_555
Li3 O22 2.010303 1_555
Li3 O3 2.138079 1_554
Li3 O10 2.370276 1_555
Li3 O6 2.406471 1_554
Li4 O20 1.909116 1_555
Li4 O19 1.950911 1_555
Li4 O36 1.960581 1_556
Li4 O6 2.002074 1_555
Li5 O29 1.920098 1_555
Li5 O16 1.980668 1_555
Li5 O13 1.981070 1_455
Li5 O12 2.252449 1_555
Li6 O15 1.970600 1_555
Li6 O26 2.007149 1_555
Li6 O27 2.049680 1_555
Li6 O13 2.215823 1_555
Li6 O11 2.258116 1_555
Li7 O29 1.972710 1_555
Li7 O40 2.026443 1_555
Li7 O28 2.033929 1_555
Li7 O42 2.222721 1_555
Li7 O44 2.315631 1_555
Li8 O26 1.906528 1_555
Li8 O39 1.980221 1_555
Li8 O42 1.989531 1_655
Li8 O43 2.226022 1_555
Li9 O35 1.935858 1_555
Li9 O19 1.941247 1_554
Li9 O49 1.958720 1_555
Li9 O36 1.981780 1_555
Li10 O35 1.974541 1_555
Li10 O50 2.008253 1_555
Li10 O30 2.120257 1_554
Li10 O34 2.419429 1_654
Li10 O38 2.423133 1_655
Li11 O48 1.849135 1_555
Li11 O9 1.977563 1_566
Li11 O34 1.984111 1_555
Li11 O46 2.012908 1_455
Li12 O55 1.881244 1_555
Li12 O41 1.966051 1_555
Li12 O44 1.994518 1_555
Li12 O40 2.375038 1_555
Li13 O0 1.900434 1_565
Li13 O54 1.996428 1_555
Li13 O43 2.056846 1_555
Li13 O41 2.262576 1_555
Li13 O39 2.418193 1_555
Mn0 O16 2.125607 1_555
Mn0 O5 2.159362 1_555
Mn0 O1 2.163776 1_555
Mn0 O2 2.194794 1_455
Mn0 O17 2.242805 1_455
Mn0 O13 2.329582 1_455
Mn1 O3 2.105247 1_555
Mn1 O15 2.110624 1_555
Mn1 O21 2.164666 1_556
Mn1 O2 2.183190 1_555
Mn1 O17 2.240521 1_555
Mn2 O25 2.128631 1_555
Mn2 O6 2.136896 1_554
Mn2 O12 2.196916 1_555
Mn2 O24 2.214665 1_555
Mn2 O10 2.266240 1_555
Mn3 O11 2.039987 1_555
Mn3 O27 2.110648 1_555
Mn3 O10 2.168073 1_555
Mn3 O14 2.170854 1_555
Mn3 O24 2.177643 1_555
Mn3 O22 2.303019 1_555
Mn4 O33 2.082520 1_555
Mn4 O28 2.102782 1_555
Mn4 O45 2.116320 1_555
Mn4 O44 2.128573 1_555
Mn4 O31 2.155903 1_555
Mn4 O41 2.386935 1_555
Mn5 O49 2.088490 1_556
Mn5 O30 2.124546 1_555
Mn5 O31 2.185387 1_555
Mn5 O45 2.193598 1_555
Mn5 O43 2.211845 1_555
Mn6 O52 2.044649 1_555
Mn6 O34 2.131319 1_554
Mn6 O53 2.194822 1_555
Mn6 O40 2.196401 1_555
Mn6 O38 2.238356 1_555
Mn7 O54 2.134533 1_555
Mn7 O39 2.135346 1_555
Mn7 O50 2.154257 1_555
Mn7 O53 2.173771 1_655
Mn7 O38 2.249382 1_655
Mn7 O42 2.332586 1_655
O0 P0 1.495644 1_555
O1 P12 1.523356 1_545
O2 P13 1.542642 1_545
O3 P0 1.550308 1_555
O4 P0 1.608449 1_555
O4 P1 1.636627 1_555
O5 P1 1.539896 1_555
O6 P1 1.574133 1_555
O7 P14 1.509184 1_545
O8 P2 1.613025 1_655
O8 P3 1.630257 1_555
O9 P2 1.512655 1_555
O10 P15 1.580922 1_545
O11 P3 1.520901 1_555
O12 P2 1.553202 1_555
O13 P3 1.539941 1_555
O14 P4 1.518894 1_555
O15 P5 1.538191 1_555
O16 P4 1.538858 1_555
O17 P6 1.566592 1_555
O18 P4 1.614744 1_555
O18 P5 1.618203 1_555
O19 P5 1.511265 1_555
O20 P8 1.513709 1_555
O21 P7 1.566737 1_555
O22 P7 1.527210 1_555
O23 P9 1.613060 1_655
O23 P7 1.637925 1_555
O24 P10 1.548335 1_555
O25 P9 1.536267 1_555
O26 P6 1.519297 1_555
O27 P11 1.533854 1_555
O28 P4 1.546383 1_555
O29 P9 1.519045 1_555
O30 P6 1.540215 1_555
O31 P5 1.554675 1_555
O32 P6 1.606789 1_455
O32 P8 1.640202 1_555
O33 P8 1.508732 1_555
O34 P8 1.570397 1_555
O35 P7 1.511927 1_555
O36 P10 1.506860 1_555
O37 P11 1.620941 1_555
O37 P10 1.622123 1_555
O38 P9 1.569603 1_555
O39 P11 1.535059 1_555
O40 P10 1.555403 1_555
O41 P11 1.534075 1_555
O42 P12 1.537717 1_555
O43 P13 1.554109 1_555
O44 P12 1.545008 1_555
O45 P0 1.585280 1_565
O46 P13 1.510865 1_555
O47 P12 1.620708 1_555
O47 P13 1.625773 1_455
O48 P1 1.485415 1_565
O49 P14 1.545991 1_555
O50 P14 1.533821 1_555
O51 P15 1.611607 1_555
O51 P14 1.635627 1_555
O52 P15 1.528496 1_555
O53 P2 1.547250 1_565
O54 P3 1.530350 1_565
O55 P15 1.509643 1_555
