# generated using pymatgen
data_TbGa3
_symmetry_space_group_name_H-M   'P 1'
_cell_length_a   6.28012838
_cell_length_b   6.28013022
_cell_length_c   4.48638519
_cell_angle_alpha   90.00000000
_cell_angle_beta   90.00000000
_cell_angle_gamma   120.00000132
_symmetry_Int_Tables_number   1
_chemical_formula_structural   TbGa3
_chemical_formula_sum   'Tb2 Ga6'
_cell_volume   153.23725203
_cell_formula_units_Z   2
loop_
 _symmetry_equiv_pos_site_id
 _symmetry_equiv_pos_as_xyz
  1  'x, y, z'
loop_
 _atom_site_type_symbol
 _atom_site_label
 _atom_site_symmetry_multiplicity
 _atom_site_fract_x
 _atom_site_fract_y
 _atom_site_fract_z
 _atom_site_occupancy
  Tb  Tb0  1  0.33333400  0.66666800  0.75000000  1
  Tb  Tb1  1  0.66666700  0.33333300  0.24999900  1
  Ga  Ga0  1  0.14457189  0.28914179  0.24999900  1
  Ga  Ga1  1  0.71085821  0.85542811  0.24999900  1
  Ga  Ga2  1  0.14457089  0.85542811  0.24999900  1
  Ga  Ga3  1  0.85542911  0.71085721  0.75000000  1
  Ga  Ga4  1  0.28914079  0.14457089  0.75000000  1
  Ga  Ga5  1  0.85542711  0.14457089  0.75000000  1
loop_
_geom_bond_atom_site_label_1
_geom_bond_atom_site_label_2
_geom_bond_distance
_geom_bond_site_symmetry_2
Ga0 Ga2 2.723775 1_545
Ga0 Ga1 2.723778 1_445
Ga0 Ga4 2.739496 1_554
Ga0 Ga4 2.739503 1_555
Ga0 Ga5 2.739511 1_454
Ga0 Ga5 2.739518 1_455
Ga0 Tb0 3.041022 1_554
Ga0 Tb0 3.041029 1_555
Ga0 Tb1 3.149246 1_555
Ga0 Tb1 3.149252 1_455
Ga1 Ga2 2.723771 1_655
Ga1 Ga3 2.739502 1_554
Ga1 Ga5 2.739505 1_564
Ga1 Ga3 2.739509 1_555
Ga1 Ga5 2.739512 1_565
Ga1 Tb0 3.041015 1_554
Ga1 Tb0 3.041021 1_555
Ga1 Tb1 3.149247 1_555
Ga1 Tb1 3.149253 1_565
Ga2 Ga3 2.739502 1_454
Ga2 Ga4 2.739505 1_564
Ga2 Ga3 2.739509 1_455
Ga2 Ga4 2.739512 1_565
Ga2 Tb0 3.041011 1_554
Ga2 Tb0 3.041018 1_555
Ga2 Tb1 3.149246 1_455
Ga2 Tb1 3.149252 1_565
Ga3 Ga4 2.723772 1_665
Ga3 Ga5 2.723785 1_565
Ga3 Tb1 3.041015 1_556
Ga3 Tb1 3.041022 1_555
Ga3 Tb0 3.149245 1_655
Ga3 Tb0 3.149251 1_555
Ga4 Ga5 2.723778 1_455
Ga4 Tb1 3.041022 1_556
Ga4 Tb1 3.041029 1_555
Ga4 Tb0 3.149247 1_545
Ga4 Tb0 3.149254 1_555
Ga5 Tb1 3.041008 1_556
Ga5 Tb1 3.041014 1_555
Ga5 Tb0 3.149236 1_545
Ga5 Tb0 3.149262 1_655
