# generated using pymatgen
data_RbTl2Bi
_symmetry_space_group_name_H-M   'P 1'
_cell_length_a   5.82184448
_cell_length_b   5.82184448
_cell_length_c   5.82184448
_cell_angle_alpha   60.00000000
_cell_angle_beta   60.00000000
_cell_angle_gamma   60.00000000
_symmetry_Int_Tables_number   1
_chemical_formula_structural   RbTl2Bi
_chemical_formula_sum   'Rb1 Tl2 Bi1'
_cell_volume   139.52974532
_cell_formula_units_Z   1
loop_
 _symmetry_equiv_pos_site_id
 _symmetry_equiv_pos_as_xyz
  1  'x, y, z'
loop_
 _atom_site_type_symbol
 _atom_site_label
 _atom_site_symmetry_multiplicity
 _atom_site_fract_x
 _atom_site_fract_y
 _atom_site_fract_z
 _atom_site_occupancy
  Rb  Rb0  1  0.74999900  0.74999900  0.74999900  1
  Tl  Tl0  1  0.00000000  -0.00000000  0.00000000  1
  Tl  Tl1  1  0.50000000  0.50000000  0.50000000  1
  Bi  Bi0  1  0.25000000  0.25000000  0.25000000  1
loop_
_geom_bond_atom_site_label_1
_geom_bond_atom_site_label_2
_geom_bond_distance
_geom_bond_site_symmetry_2
Rb0 Tl1 3.565123 1_555
Rb0 Tl0 3.565132 1_566
Rb0 Tl0 3.565132 1_656
Rb0 Tl0 3.565132 1_665
Rb0 Tl1 3.565142 1_556
Rb0 Tl1 3.565142 1_565
Rb0 Tl1 3.565142 1_655
Rb0 Tl0 3.565151 1_666
Bi0 Tl1 3.565137 1_554
Bi0 Tl1 3.565137 1_555
Bi0 Tl0 3.565137 1_556
Bi0 Tl0 3.565137 1_555
Bi0 Tl1 3.565137 1_545
Bi0 Tl0 3.565137 1_565
Bi0 Tl0 3.565137 1_655
Bi0 Tl1 3.565137 1_455
Bi0 Rb0 4.116657 1_545
Bi0 Rb0 4.116657 1_554
Bi0 Rb0 4.116657 1_455
Bi0 Rb0 4.116674 1_454
Bi0 Rb0 4.116674 1_544
Bi0 Rb0 4.116674 1_445
