# generated using pymatgen
data_Er2IrRu
_symmetry_space_group_name_H-M   'P 1'
_cell_length_a   4.74805715
_cell_length_b   4.74805724
_cell_length_c   4.74805703
_cell_angle_alpha   60.00001793
_cell_angle_beta   60.00001916
_cell_angle_gamma   60.00001808
_symmetry_Int_Tables_number   1
_chemical_formula_structural   Er2IrRu
_chemical_formula_sum   'Er2 Ir1 Ru1'
_cell_volume   75.68903924
_cell_formula_units_Z   1
loop_
 _symmetry_equiv_pos_site_id
 _symmetry_equiv_pos_as_xyz
  1  'x, y, z'
loop_
 _atom_site_type_symbol
 _atom_site_label
 _atom_site_symmetry_multiplicity
 _atom_site_fract_x
 _atom_site_fract_y
 _atom_site_fract_z
 _atom_site_occupancy
  Er  Er0  1  0.00000003  0.00000003  0.00000002  1
  Er  Er1  1  0.50000070  0.50000073  0.50000074  1
  Ir  Ir0  1  0.24999924  0.24999923  0.24999925  1
  Ru  Ru0  1  0.75000003  0.75000001  0.74999999  1
loop_
_geom_bond_atom_site_label_1
_geom_bond_atom_site_label_2
_geom_bond_distance
_geom_bond_site_symmetry_2
Er0 Ir0 2.907570 1_555
Er0 Ru0 2.907579 1_444
Er0 Ru0 2.907580 1_445
Er0 Ru0 2.907580 1_454
Er0 Ru0 2.907580 1_544
Er0 Ir0 2.907583 1_554
Er0 Ir0 2.907583 1_455
Er0 Ir0 2.907583 1_545
Er1 Ru0 2.907571 1_555
Er1 Ir0 2.907574 1_556
Er1 Ir0 2.907574 1_565
Er1 Ir0 2.907574 1_655
Er1 Ru0 2.907583 1_455
Er1 Ru0 2.907583 1_545
Er1 Ru0 2.907583 1_554
Er1 Ir0 2.907596 1_555
