# generated using pymatgen
data_Sc2ZnTc
_symmetry_space_group_name_H-M   'P 1'
_cell_length_a   4.62559942
_cell_length_b   4.62559942
_cell_length_c   4.62559942
_cell_angle_alpha   60.00000000
_cell_angle_beta   60.00000000
_cell_angle_gamma   60.00000000
_symmetry_Int_Tables_number   1
_chemical_formula_structural   Sc2ZnTc
_chemical_formula_sum   'Sc2 Zn1 Tc1'
_cell_volume   69.98243718
_cell_formula_units_Z   1
loop_
 _symmetry_equiv_pos_site_id
 _symmetry_equiv_pos_as_xyz
  1  'x, y, z'
loop_
 _atom_site_type_symbol
 _atom_site_label
 _atom_site_symmetry_multiplicity
 _atom_site_fract_x
 _atom_site_fract_y
 _atom_site_fract_z
 _atom_site_occupancy
  Sc  Sc0  1  -0.00000000  -0.00000000  -0.00000000  1
  Sc  Sc1  1  0.49999900  0.49999900  0.49999900  1
  Zn  Zn0  1  0.75000000  0.75000000  0.75000000  1
  Tc  Tc0  1  0.25000000  0.25000000  0.25000000  1
loop_
_geom_bond_atom_site_label_1
_geom_bond_atom_site_label_2
_geom_bond_distance
_geom_bond_site_symmetry_2
Sc0 Tc0 2.832590 1_545
Sc0 Zn0 2.832590 1_454
Sc0 Tc0 2.832590 1_555
Sc0 Tc0 2.832590 1_554
Sc0 Zn0 2.832590 1_445
Sc0 Zn0 2.832590 1_444
Sc0 Zn0 2.832590 1_544
Sc0 Tc0 2.832590 1_455
Sc1 Tc0 2.832578 1_555
Sc1 Zn0 2.832586 1_554
Sc1 Zn0 2.832586 1_545
Sc1 Zn0 2.832586 1_455
Sc1 Tc0 2.832593 1_565
Sc1 Tc0 2.832593 1_655
Sc1 Tc0 2.832593 1_556
Sc1 Zn0 2.832601 1_555
