# generated using pymatgen
data_LiPrHg2
_symmetry_space_group_name_H-M   'P 1'
_cell_length_a   5.14543596
_cell_length_b   5.14543684
_cell_length_c   5.14543764
_cell_angle_alpha   60.00031681
_cell_angle_beta   60.00034649
_cell_angle_gamma   60.00034099
_symmetry_Int_Tables_number   1
_chemical_formula_structural   LiPrHg2
_chemical_formula_sum   'Li1 Pr1 Hg2'
_cell_volume   96.32855538
_cell_formula_units_Z   1
loop_
 _symmetry_equiv_pos_site_id
 _symmetry_equiv_pos_as_xyz
  1  'x, y, z'
loop_
 _atom_site_type_symbol
 _atom_site_label
 _atom_site_symmetry_multiplicity
 _atom_site_fract_x
 _atom_site_fract_y
 _atom_site_fract_z
 _atom_site_occupancy
  Li  Li0  1  0.25000071  0.25000072  0.25000072  1
  Pr  Pr0  1  0.75000000  0.74999999  0.75000000  1
  Hg  Hg0  1  -0.00000013  -0.00000017  -0.00000012  1
  Hg  Hg1  1  0.49999941  0.49999946  0.49999940  1
loop_
_geom_bond_atom_site_label_1
_geom_bond_atom_site_label_2
_geom_bond_distance
_geom_bond_site_symmetry_2
Hg0 Pr0 3.150914 1_444
Hg0 Li0 3.150927 1_555
Hg0 Li0 3.150933 1_545
Hg0 Li0 3.150933 1_455
Hg0 Li0 3.150934 1_554
Hg0 Pr0 3.150937 1_454
Hg0 Pr0 3.150938 1_544
Hg0 Pr0 3.150938 1_445
Hg1 Li0 3.150899 1_555
Hg1 Pr0 3.150923 1_555
Hg1 Pr0 3.150934 1_545
Hg1 Pr0 3.150935 1_455
Hg1 Pr0 3.150935 1_554
Hg1 Li0 3.150942 1_565
Hg1 Li0 3.150942 1_655
Hg1 Li0 3.150943 1_556
