# generated using pymatgen
data_Ti2ZnRe
_symmetry_space_group_name_H-M   'P 1'
_cell_length_a   4.40817330
_cell_length_b   4.40817330
_cell_length_c   4.40817330
_cell_angle_alpha   60.00000000
_cell_angle_beta   60.00000000
_cell_angle_gamma   60.00000000
_symmetry_Int_Tables_number   1
_chemical_formula_structural   Ti2ZnRe
_chemical_formula_sum   'Ti2 Zn1 Re1'
_cell_volume   60.57047509
_cell_formula_units_Z   1
loop_
 _symmetry_equiv_pos_site_id
 _symmetry_equiv_pos_as_xyz
  1  'x, y, z'
loop_
 _atom_site_type_symbol
 _atom_site_label
 _atom_site_symmetry_multiplicity
 _atom_site_fract_x
 _atom_site_fract_y
 _atom_site_fract_z
 _atom_site_occupancy
  Ti  Ti0  1  0.50000100  0.50000100  0.50000100  1
  Ti  Ti1  1  -0.00000000  0.00000000  -0.00000000  1
  Zn  Zn0  1  0.75000000  0.75000000  0.75000000  1
  Re  Re0  1  0.24999900  0.24999900  0.24999900  1
loop_
_geom_bond_atom_site_label_1
_geom_bond_atom_site_label_2
_geom_bond_distance
_geom_bond_site_symmetry_2
Ti0 Zn0 2.699433 1_555
Ti0 Zn0 2.699447 1_455
Ti0 Zn0 2.699447 1_545
Ti0 Zn0 2.699447 1_554
Ti1 Zn0 2.699444 1_454
Ti1 Zn0 2.699444 1_445
Ti1 Zn0 2.699444 1_444
Ti1 Zn0 2.699444 1_544
Re0 Ti1 2.699433 1_555
Re0 Ti0 2.699437 1_545
Re0 Ti0 2.699437 1_455
Re0 Ti0 2.699437 1_554
Re0 Ti1 2.699447 1_655
Re0 Ti1 2.699447 1_565
Re0 Ti1 2.699447 1_556
Re0 Ti0 2.699465 1_555
