# generated using pymatgen
data_LuCdAg2
_symmetry_space_group_name_H-M   'P 1'
_cell_length_a   4.83472880
_cell_length_b   4.83472880
_cell_length_c   4.83472880
_cell_angle_alpha   60.00000000
_cell_angle_beta   60.00000000
_cell_angle_gamma   60.00000000
_symmetry_Int_Tables_number   1
_chemical_formula_structural   LuCdAg2
_chemical_formula_sum   'Lu1 Cd1 Ag2'
_cell_volume   79.91004136
_cell_formula_units_Z   1
loop_
 _symmetry_equiv_pos_site_id
 _symmetry_equiv_pos_as_xyz
  1  'x, y, z'
loop_
 _atom_site_type_symbol
 _atom_site_label
 _atom_site_symmetry_multiplicity
 _atom_site_fract_x
 _atom_site_fract_y
 _atom_site_fract_z
 _atom_site_occupancy
  Lu  Lu0  1  0.75000000  0.75000000  0.75000000  1
  Cd  Cd0  1  0.25000100  0.25000100  0.25000100  1
  Ag  Ag0  1  0.00000000  -0.00000000  0.00000000  1
  Ag  Ag1  1  0.49999900  0.49999900  0.49999900  1
loop_
_geom_bond_atom_site_label_1
_geom_bond_atom_site_label_2
_geom_bond_distance
_geom_bond_site_symmetry_2
Ag0 Cd0 2.960651 1_545
Ag0 Cd0 2.960651 1_455
Ag0 Cd0 2.960651 1_554
Ag0 Lu0 2.960655 1_544
Ag0 Lu0 2.960655 1_445
Ag0 Lu0 2.960655 1_444
Ag0 Lu0 2.960655 1_454
Ag0 Cd0 2.960666 1_555
Ag1 Cd0 2.960631 1_555
Ag1 Lu0 2.960651 1_545
Ag1 Lu0 2.960651 1_455
Ag1 Lu0 2.960651 1_554
Ag1 Cd0 2.960663 1_565
Ag1 Cd0 2.960663 1_655
Ag1 Cd0 2.960663 1_556
Ag1 Lu0 2.960666 1_555
