# generated using pymatgen
data_Li3CuNi3O8
_symmetry_space_group_name_H-M   'P 1'
_cell_length_a   5.83607280
_cell_length_b   5.83607280
_cell_length_c   5.83607304
_cell_angle_alpha   59.32933550
_cell_angle_beta   59.32933550
_cell_angle_gamma   59.32933117
_symmetry_Int_Tables_number   1
_chemical_formula_structural   Li3CuNi3O8
_chemical_formula_sum   'Li3 Cu1 Ni3 O8'
_cell_volume   138.40920615
_cell_formula_units_Z   1
loop_
 _symmetry_equiv_pos_site_id
 _symmetry_equiv_pos_as_xyz
  1  'x, y, z'
loop_
 _atom_site_type_symbol
 _atom_site_label
 _atom_site_symmetry_multiplicity
 _atom_site_fract_x
 _atom_site_fract_y
 _atom_site_fract_z
 _atom_site_occupancy
  Li  Li0  1  0.50000000  0.00000000  0.00000000  1
  Li  Li1  1  0.00000000  0.00000000  0.50000000  1
  Li  Li2  1  0.00000000  0.50000000  0.00000000  1
  Cu  Cu0  1  0.00000000  0.00000000  0.00000000  1
  Ni  Ni0  1  0.00000000  0.50000000  0.50000000  1
  Ni  Ni1  1  0.50000000  0.50000000  0.00000000  1
  Ni  Ni2  1  0.50000000  0.00000000  0.50000000  1
  O  O0  1  0.25437400  0.25437400  0.25437400  1
  O  O1  1  0.27534000  0.75870200  0.75870200  1
  O  O2  1  0.75870200  0.75870200  0.27534000  1
  O  O3  1  0.74562600  0.74562600  0.74562600  1
  O  O4  1  0.75870200  0.27534000  0.75870200  1
  O  O5  1  0.72466000  0.24129800  0.24129800  1
  O  O6  1  0.24129800  0.24129800  0.72466000  1
  O  O7  1  0.24129800  0.72466000  0.24129800  1
loop_
_geom_bond_atom_site_label_1
_geom_bond_atom_site_label_2
_geom_bond_distance
_geom_bond_site_symmetry_2
Li0 O3 2.090189 1_544
Li0 O0 2.090189 1_555
Li0 O2 2.200492 1_545
Li0 O6 2.200492 1_554
Li0 O4 2.200492 1_554
Li0 O7 2.200492 1_545
Li1 O3 2.090189 1_445
Li1 O0 2.090189 1_555
Li1 O1 2.200492 1_545
Li1 O4 2.200492 1_455
Li1 O5 2.200492 1_455
Li1 O7 2.200492 1_545
Li2 O3 2.090189 1_454
Li2 O0 2.090189 1_555
Li2 O2 2.200492 1_455
Li2 O6 2.200492 1_554
Li2 O1 2.200492 1_554
Li2 O5 2.200492 1_455
Cu0 O5 1.988551 1_455
Cu0 O7 1.988551 1_545
Cu0 O4 1.988551 1_454
Cu0 O1 1.988551 1_544
Cu0 O6 1.988551 1_554
Cu0 O2 1.988551 1_445
Ni0 O6 1.917476 1_555
Ni0 O2 1.917476 1_455
Ni0 O7 1.917476 1_555
Ni0 O4 1.917476 1_455
Ni0 O3 2.016909 1_455
Ni0 O0 2.016909 1_555
Ni1 O7 1.917476 1_555
Ni1 O5 1.917476 1_555
Ni1 O1 1.917476 1_554
Ni1 O4 1.917476 1_554
Ni1 O0 2.016909 1_555
Ni1 O3 2.016909 1_554
Ni2 O6 1.917476 1_555
Ni2 O2 1.917476 1_545
Ni2 O5 1.917476 1_555
Ni2 O1 1.917476 1_545
Ni2 O0 2.016909 1_555
Ni2 O3 2.016909 1_545
