# generated using pymatgen
data_TiNbRe2
_symmetry_space_group_name_H-M   'P 1'
_cell_length_a   4.46992384
_cell_length_b   4.46992384
_cell_length_c   4.46992384
_cell_angle_alpha   60.00000000
_cell_angle_beta   60.00000000
_cell_angle_gamma   60.00000000
_symmetry_Int_Tables_number   1
_chemical_formula_structural   TiNbRe2
_chemical_formula_sum   'Ti1 Nb1 Re2'
_cell_volume   63.15174761
_cell_formula_units_Z   1
loop_
 _symmetry_equiv_pos_site_id
 _symmetry_equiv_pos_as_xyz
  1  'x, y, z'
loop_
 _atom_site_type_symbol
 _atom_site_label
 _atom_site_symmetry_multiplicity
 _atom_site_fract_x
 _atom_site_fract_y
 _atom_site_fract_z
 _atom_site_occupancy
  Ti  Ti0  1  0.75000000  0.75000000  0.75000000  1
  Nb  Nb0  1  0.25000100  0.25000100  0.25000100  1
  Re  Re0  1  -0.00000000  0.00000000  0.00000000  1
  Re  Re1  1  0.50000000  0.50000000  0.50000000  1
loop_
_geom_bond_atom_site_label_1
_geom_bond_atom_site_label_2
_geom_bond_distance
_geom_bond_site_symmetry_2
Nb0 Re1 2.737247 1_555
Nb0 Re0 2.737255 1_556
Nb0 Re0 2.737255 1_565
Nb0 Re0 2.737255 1_655
Nb0 Re1 2.737262 1_455
Nb0 Re1 2.737262 1_545
Nb0 Re1 2.737262 1_554
Nb0 Re0 2.737269 1_555
Re0 Ti0 2.737258 1_445
Re0 Ti0 2.737258 1_454
Re0 Ti0 2.737258 1_544
Re0 Ti0 2.737258 1_444
Re1 Ti0 2.737258 1_455
Re1 Ti0 2.737258 1_555
Re1 Ti0 2.737258 1_554
Re1 Ti0 2.737258 1_545
