# generated using pymatgen
data_Mn3OF8
_symmetry_space_group_name_H-M   'P 1'
_cell_length_a   5.16248900
_cell_length_b   5.17460529
_cell_length_c   26.95172096
_cell_angle_alpha   89.11960463
_cell_angle_beta   88.98947404
_cell_angle_gamma   60.20883051
_symmetry_Int_Tables_number   1
_chemical_formula_structural   Mn3OF8
_chemical_formula_sum   'Mn12 O4 F32'
_cell_volume   624.71714899
_cell_formula_units_Z   4
loop_
 _symmetry_equiv_pos_site_id
 _symmetry_equiv_pos_as_xyz
  1  'x, y, z'
loop_
 _atom_site_type_symbol
 _atom_site_label
 _atom_site_symmetry_multiplicity
 _atom_site_fract_x
 _atom_site_fract_y
 _atom_site_fract_z
 _atom_site_occupancy
  Mn  Mn0  1  0.00675100  0.01413500  0.99716600  1
  Mn  Mn1  1  0.00360400  0.02026800  0.24763200  1
  Mn  Mn2  1  0.96928100  0.00716700  0.74712100  1
  Mn  Mn3  1  0.01755600  0.96872100  0.49727300  1
  Mn  Mn4  1  0.35979100  0.32172900  0.66948700  1
  Mn  Mn5  1  0.32574900  0.31756600  0.16941600  1
  Mn  Mn6  1  0.32965000  0.35939000  0.41950200  1
  Mn  Mn7  1  0.32264300  0.32255300  0.91916900  1
  Mn  Mn8  1  0.68432600  0.64510200  0.58370600  1
  Mn  Mn9  1  0.66254100  0.67018200  0.08341800  1
  Mn  Mn10  1  0.64929400  0.66222200  0.83307800  1
  Mn  Mn11  1  0.66268300  0.68982200  0.33364400  1
  O  O0  1  0.29526500  0.66160900  0.45796600  1
  O  O1  1  0.04392200  0.28386600  0.95726100  1
  O  O2  1  0.28950200  0.04973400  0.20872100  1
  O  O3  1  0.66134800  0.28636300  0.70802800  1
  F  F0  1  0.06090900  0.65569800  0.70598400  1
  F  F1  1  0.06888300  0.64682500  0.20620000  1
  F  F2  1  0.01095400  0.58206600  0.87670500  1
  F  F3  1  0.01534600  0.61097200  0.37771100  1
  F  F4  1  0.26773200  0.65855800  0.95789500  1
  F  F5  1  0.39713800  0.60129100  0.62602600  1
  F  F6  1  0.40121600  0.59785500  0.12435200  1
  F  F7  1  0.06705800  0.28150900  0.45678800  1
  F  F8  1  0.28281300  0.06292400  0.70682300  1
  F  F9  1  0.59543800  0.38324600  0.87490100  1
  F  F10  1  0.60572500  0.40326500  0.37628000  1
  F  F11  1  0.66028800  0.27994900  0.20585700  1
  F  F12  1  0.36449300  0.90449100  0.54287400  1
  F  F13  1  0.32156800  0.94834800  0.03895100  1
  F  F14  1  0.39496000  0.98012700  0.87707900  1
  F  F15  1  0.40100500  0.01586300  0.37437100  1
  F  F16  1  0.60458700  0.01262500  0.62725200  1
  F  F17  1  0.59879200  0.00328200  0.12500100  1
  F  F18  1  0.66113200  0.06127600  0.95922800  1
  F  F19  1  0.65829900  0.06235800  0.45619900  1
  F  F20  1  0.29260200  0.75152100  0.78892100  1
  F  F21  1  0.31833900  0.75072000  0.29070100  1
  F  F22  1  0.73155500  0.95875800  0.29055300  1
  F  F23  1  0.70107600  0.93700900  0.79287300  1
  F  F24  1  0.92955600  0.74141000  0.04291800  1
  F  F25  1  0.95718700  0.69590700  0.54230200  1
  F  F26  1  0.76412700  0.28735800  0.54007400  1
  F  F27  1  0.72890100  0.34454700  0.04348200  1
  F  F28  1  0.00694900  0.39560100  0.62606900  1
  F  F29  1  0.01498700  0.38963800  0.12835700  1
  F  F30  1  0.91954600  0.37015800  0.29361200  1
  F  F31  1  0.91292900  0.34441800  0.79107500  1
loop_
_geom_bond_atom_site_label_1
_geom_bond_atom_site_label_2
_geom_bond_distance
_geom_bond_site_symmetry_2
Mn0 O1 1.831502 1_555
Mn1 O2 1.861608 1_555
Mn2 O3 1.858667 1_555
Mn3 O0 1.854028 1_555
Mn4 O3 1.817735 1_555
Mn5 O2 1.812068 1_555
Mn6 O0 1.821908 1_555
Mn7 O1 1.841821 1_555
F0 Mn4 1.919358 1_555
F0 Mn2 1.987289 1_465
F1 Mn5 1.845177 1_555
F1 Mn1 2.121481 1_565
F2 Mn7 1.890210 1_555
F2 Mn10 2.081696 1_455
F3 Mn6 1.875267 1_555
F3 Mn11 2.053033 1_455
F4 Mn7 1.936067 1_555
F4 Mn0 1.966519 1_565
F5 Mn4 1.928487 1_555
F5 Mn8 1.953681 1_555
F6 Mn9 1.900997 1_555
F6 Mn5 2.054559 1_555
F7 Mn6 1.868791 1_555
F7 Mn3 2.054877 1_545
F8 Mn4 1.854000 1_555
F8 Mn2 2.067645 1_455
F9 Mn10 1.941547 1_555
F9 Mn7 1.968286 1_555
F10 Mn6 1.922158 1_555
F10 Mn11 1.993654 1_555
F11 Mn5 1.924869 1_555
F11 Mn1 1.967724 1_655
F12 Mn8 1.885582 1_555
F12 Mn3 2.074229 1_555
F13 Mn0 1.878450 1_564
F13 Mn9 2.027415 1_555
F14 Mn10 1.922294 1_555
F14 Mn7 1.988826 1_565
F15 Mn11 1.901601 1_545
F15 Mn6 2.043307 1_555
F16 Mn4 1.856828 1_555
F16 Mn8 2.106490 1_545
F17 Mn5 1.946050 1_555
F17 Mn9 1.953980 1_545
F18 Mn7 1.929044 1_555
F18 Mn0 1.978068 1_655
F19 Mn6 1.907992 1_555
F19 Mn3 2.015686 1_645
F20 Mn2 1.905683 1_465
F20 Mn10 2.058053 1_555
F21 Mn1 1.922945 1_565
F21 Mn11 2.025755 1_555
F22 Mn1 1.946160 1_665
F22 Mn11 1.959415 1_555
F23 Mn10 1.894102 1_555
F23 Mn2 1.998741 1_565
F24 Mn9 1.914915 1_555
F24 Mn0 2.039361 1_664
F25 Mn8 1.897937 1_555
F25 Mn3 1.983451 1_655
F26 Mn3 1.903334 1_645
F26 Mn8 2.066754 1_555
F27 Mn9 1.893232 1_555
F27 Mn0 2.025946 1_654
F28 Mn8 1.905130 1_455
F28 Mn4 2.050128 1_555
F29 Mn5 1.841975 1_555
F29 Mn9 2.069783 1_455
F30 Mn11 1.866398 1_555
F30 Mn1 2.066726 1_655
F31 Mn10 1.901874 1_555
F31 Mn2 2.020001 1_555
