# generated using pymatgen
data_Fe10O9F11
_symmetry_space_group_name_H-M   'P 1'
_cell_length_a   4.74689600
_cell_length_b   4.76005050
_cell_length_c   15.60544663
_cell_angle_alpha   89.77075258
_cell_angle_beta   89.85031912
_cell_angle_gamma   88.35635405
_symmetry_Int_Tables_number   1
_chemical_formula_structural   Fe10O9F11
_chemical_formula_sum   'Fe10 O9 F11'
_cell_volume   352.46331583
_cell_formula_units_Z   1
loop_
 _symmetry_equiv_pos_site_id
 _symmetry_equiv_pos_as_xyz
  1  'x, y, z'
loop_
 _atom_site_type_symbol
 _atom_site_label
 _atom_site_symmetry_multiplicity
 _atom_site_fract_x
 _atom_site_fract_y
 _atom_site_fract_z
 _atom_site_occupancy
  Fe  Fe0  1  0.00403700  0.01459400  0.00637800  1
  Fe  Fe1  1  0.04023400  0.97757600  0.79298700  1
  Fe  Fe2  1  0.98976400  0.05762000  0.59772700  1
  Fe  Fe3  1  0.05156000  0.99782300  0.40167500  1
  Fe  Fe4  1  0.02263700  0.02621400  0.20389300  1
  Fe  Fe5  1  0.49707200  0.51788100  0.90360700  1
  Fe  Fe6  1  0.48076900  0.48528300  0.50129000  1
  Fe  Fe7  1  0.47716400  0.47413600  0.70070100  1
  Fe  Fe8  1  0.47923400  0.49750000  0.30416900  1
  Fe  Fe9  1  0.47492700  0.47746100  0.08779800  1
  O  O0  1  0.18709500  0.19213800  0.70076900  1
  O  O1  1  0.19269100  0.19926500  0.50205400  1
  O  O2  1  0.19284900  0.18242900  0.29926900  1
  O  O3  1  0.18688600  0.19418300  0.10091100  1
  O  O4  1  0.29489700  0.70354300  0.99650600  1
  O  O5  1  0.32006800  0.68097600  0.80051100  1
  O  O6  1  0.31593400  0.69107800  0.40790500  1
  O  O7  1  0.69542600  0.30279400  0.99456200  1
  O  O8  1  0.67812900  0.32341600  0.60280600  1
  F  F0  1  0.19661500  0.18942800  0.89626000  1
  F  F1  1  0.28658000  0.70671300  0.60411600  1
  F  F2  1  0.29950800  0.69203200  0.19134400  1
  F  F3  1  0.70686500  0.28979700  0.80141300  1
  F  F4  1  0.71024400  0.28626700  0.40681100  1
  F  F5  1  0.68800700  0.30644100  0.19435400  1
  F  F6  1  0.81488900  0.81044100  0.89514400  1
  F  F7  1  0.80469900  0.80962900  0.50452400  1
  F  F8  1  0.80063000  0.80402700  0.70131500  1
  F  F9  1  0.79527200  0.80308300  0.10157300  1
  F  F10  1  0.81531900  0.80623100  0.29762900  1
loop_
_geom_bond_atom_site_label_1
_geom_bond_atom_site_label_2
_geom_bond_distance
_geom_bond_site_symmetry_2
Fe0 O3 1.928675 1_555
Fe0 O7 1.986486 1_454
Fe0 O4 2.001422 1_544
Fe1 O0 1.903671 1_565
Fe1 O5 1.914015 1_555
Fe2 O1 1.906119 1_655
Fe2 O8 1.920460 1_555
Fe2 O0 1.980823 1_655
Fe3 O6 1.900186 1_555
Fe3 O2 1.947526 1_565
Fe3 O1 1.968857 1_565
Fe4 O2 1.862969 1_555
Fe4 O3 1.961834 1_555
Fe5 O4 1.938585 1_555
Fe5 O5 1.963861 1_555
Fe5 O7 1.972180 1_555
Fe6 O6 1.909495 1_555
Fe6 O1 1.957114 1_555
Fe6 O8 1.984344 1_555
Fe7 O8 1.928860 1_555
Fe7 O0 1.950327 1_555
Fe7 O5 1.978790 1_555
Fe8 O6 2.008733 1_555
Fe8 O2 2.054655 1_555
Fe9 O3 1.957476 1_555
Fe9 O7 1.963571 1_554
Fe9 O4 1.964537 1_554
F0 Fe1 2.056086 1_545
F0 Fe0 2.122565 1_556
F0 Fe5 2.149859 1_555
F1 Fe7 2.062086 1_555
F1 Fe6 2.117928 1_555
F1 Fe2 2.156272 1_465
F2 Fe4 2.043843 1_565
F2 Fe9 2.074858 1_555
F2 Fe8 2.152855 1_555
F3 Fe7 2.090927 1_555
F3 Fe1 2.143784 1_645
F3 Fe5 2.158087 1_555
F4 Fe6 2.049730 1_555
F4 Fe3 2.095038 1_645
F4 Fe8 2.170760 1_555
F5 Fe4 2.050053 1_655
F5 Fe9 2.097992 1_555
F5 Fe8 2.167471 1_555
F6 Fe1 2.085287 1_655
F6 Fe5 2.085856 1_555
F6 Fe0 2.198956 1_666
F7 Fe2 2.088204 1_565
F7 Fe3 2.188739 1_655
F7 Fe6 2.210838 1_555
F8 Fe1 2.023485 1_655
F8 Fe2 2.217056 1_565
F8 Fe7 2.227572 1_555
F9 Fe0 2.059167 1_665
F9 Fe9 2.213726 1_555
F9 Fe4 2.220557 1_665
F10 Fe4 2.060113 1_665
F10 Fe3 2.192183 1_655
F10 Fe8 2.201746 1_555
