# generated using pymatgen
data_Co3OF5
_symmetry_space_group_name_H-M   'P 1'
_cell_length_a   4.71915300
_cell_length_b   5.69472028
_cell_length_c   7.90528300
_cell_angle_alpha   87.35846921
_cell_angle_beta   88.53203279
_cell_angle_gamma   88.27782488
_symmetry_Int_Tables_number   1
_chemical_formula_structural   Co3OF5
_chemical_formula_sum   'Co6 O2 F10'
_cell_volume   212.06451625
_cell_formula_units_Z   2
loop_
 _symmetry_equiv_pos_site_id
 _symmetry_equiv_pos_as_xyz
  1  'x, y, z'
loop_
 _atom_site_type_symbol
 _atom_site_label
 _atom_site_symmetry_multiplicity
 _atom_site_fract_x
 _atom_site_fract_y
 _atom_site_fract_z
 _atom_site_occupancy
  Co  Co0  1  0.50000000  0.50000000  0.00000000  1
  Co  Co1  1  0.48429300  0.17968700  0.33699100  1
  Co  Co2  1  0.51570700  0.82031300  0.66300900  1
  Co  Co3  1  0.97140800  0.34958800  0.67683400  1
  Co  Co4  1  0.02859200  0.65041200  0.32316600  1
  Co  Co5  1  0.00000000  0.00000000  0.00000000  1
  O  O0  1  0.70119400  0.53137700  0.76998300  1
  O  O1  1  0.29880600  0.46862300  0.23001700  1
  F  F0  1  0.80630900  0.36951000  0.43605500  1
  F  F1  1  0.80588600  0.03606400  0.76399200  1
  F  F2  1  0.80436100  0.70408800  0.10505900  1
  F  F3  1  0.69536400  0.20091700  0.10353800  1
  F  F4  1  0.70570900  0.86419200  0.42712400  1
  F  F5  1  0.29429100  0.13580800  0.57287600  1
  F  F6  1  0.30463600  0.79908300  0.89646200  1
  F  F7  1  0.19411400  0.96393600  0.23600800  1
  F  F8  1  0.19563900  0.29591200  0.89494100  1
  F  F9  1  0.19369100  0.63049000  0.56394500  1
loop_
_geom_bond_atom_site_label_1
_geom_bond_atom_site_label_2
_geom_bond_distance
_geom_bond_site_symmetry_2
Co0 O0 2.032633 1_554
Co0 O1 2.032633 1_555
Co0 F3 2.058298 1_555
Co0 F6 2.058298 1_554
Co0 F2 2.086622 1_555
Co0 F8 2.086622 1_554
Co1 O1 2.002957 1_555
Co1 F5 2.056335 1_555
Co1 F7 2.066311 1_545
Co1 F3 2.074894 1_555
Co1 F0 2.080597 1_555
Co1 F4 2.152855 1_545
Co2 O0 2.002957 1_555
Co2 F4 2.056335 1_555
Co2 F1 2.066311 1_565
Co2 F6 2.074894 1_555
Co2 F9 2.080597 1_555
Co2 F5 2.152855 1_565
Co3 O0 1.784055 1_555
Co3 F8 2.052193 1_655
Co3 F1 2.053172 1_555
Co3 F0 2.072126 1_555
Co3 F9 2.092129 1_655
Co3 F5 2.096620 1_655
Co4 O1 1.784055 1_555
Co4 F2 2.052193 1_455
Co4 F7 2.053172 1_555
Co4 F9 2.072126 1_555
Co4 F0 2.092129 1_455
Co4 F4 2.096620 1_455
Co5 F3 1.993234 1_455
Co5 F6 1.993234 1_544
Co5 F2 2.075347 1_445
Co5 F8 2.075347 1_554
Co5 F1 2.098368 1_454
Co5 F7 2.098368 1_545
