# generated using pymatgen
data_KIn(GeO3)2
_symmetry_space_group_name_H-M   'P 1'
_cell_length_a   7.13633558
_cell_length_b   7.13633558
_cell_length_c   5.72381140
_cell_angle_alpha   78.81997234
_cell_angle_beta   78.81997234
_cell_angle_gamma   85.06236057
_symmetry_Int_Tables_number   1
_chemical_formula_structural   KIn(GeO3)2
_chemical_formula_sum   'K2 In2 Ge4 O12'
_cell_volume   280.18339762
_cell_formula_units_Z   2
loop_
 _symmetry_equiv_pos_site_id
 _symmetry_equiv_pos_as_xyz
  1  'x, y, z'
loop_
 _atom_site_type_symbol
 _atom_site_label
 _atom_site_symmetry_multiplicity
 _atom_site_fract_x
 _atom_site_fract_y
 _atom_site_fract_z
 _atom_site_occupancy
  K  K0  1  0.31177600  0.68822400  0.75000000  1
  K  K1  1  0.68822400  0.31177600  0.25000000  1
  In  In0  1  0.89597900  0.10402100  0.75000000  1
  In  In1  1  0.10402100  0.89597900  0.25000000  1
  Ge  Ge0  1  0.19548800  0.37354800  0.29191500  1
  Ge  Ge1  1  0.80451200  0.62645200  0.70808500  1
  Ge  Ge2  1  0.62645200  0.80451200  0.20808500  1
  Ge  Ge3  1  0.37354800  0.19548800  0.79191500  1
  O  O0  1  0.63418400  0.66542100  0.97612900  1
  O  O1  1  0.33457900  0.36581600  0.52387100  1
  O  O2  1  0.36581600  0.33457900  0.02387100  1
  O  O3  1  0.66542100  0.63418400  0.47612900  1
  O  O4  1  0.39754100  0.90525500  0.28505500  1
  O  O5  1  0.09474500  0.60245900  0.21494500  1
  O  O6  1  0.60245900  0.09474500  0.71494500  1
  O  O7  1  0.90525500  0.39754100  0.78505500  1
  O  O8  1  0.96182400  0.81847100  0.62899600  1
  O  O9  1  0.18152900  0.03817600  0.87100400  1
  O  O10  1  0.03817600  0.18152900  0.37100400  1
  O  O11  1  0.81847100  0.96182400  0.12899600  1
loop_
_geom_bond_atom_site_label_1
_geom_bond_atom_site_label_2
_geom_bond_distance
_geom_bond_site_symmetry_2
K0 O3 2.740075 1_555
K0 O2 2.740075 1_556
K0 O9 2.757180 1_565
K0 O8 2.757180 1_455
K0 O4 2.790857 1_555
K0 O5 2.790857 1_556
K0 O0 2.829164 1_555
K0 O1 2.829164 1_555
K1 O0 2.740075 1_554
K1 O1 2.740075 1_555
K1 O10 2.757180 1_655
K1 O11 2.757180 1_545
K1 O6 2.790857 1_555
K1 O7 2.790857 1_554
K1 O3 2.829164 1_555
K1 O2 2.829164 1_555
In0 O6 2.150403 1_555
In0 O7 2.150403 1_555
In0 O11 2.195277 1_546
In0 O10 2.195277 1_655
In0 O8 2.260381 1_545
In0 O9 2.260381 1_655
In1 O5 2.150403 1_555
In1 O4 2.150403 1_555
In1 O8 2.195277 1_455
In1 O9 2.195277 1_564
In1 O11 2.260381 1_455
In1 O10 2.260381 1_565
Ge0 O5 1.738140 1_555
Ge0 O10 1.780498 1_555
Ge0 O1 1.795611 1_555
Ge0 O2 1.814602 1_555
Ge1 O7 1.738140 1_555
Ge1 O8 1.780498 1_555
Ge1 O3 1.795611 1_555
Ge1 O0 1.814602 1_555
Ge2 O4 1.738140 1_555
Ge2 O11 1.780498 1_555
Ge2 O0 1.795611 1_554
Ge2 O3 1.814602 1_555
Ge3 O6 1.738140 1_555
Ge3 O9 1.780498 1_555
Ge3 O2 1.795611 1_556
Ge3 O1 1.814602 1_555
