# generated using pymatgen
data_Lu2MgOs
_symmetry_space_group_name_H-M   'P 1'
_cell_length_a   4.86718857
_cell_length_b   4.86718857
_cell_length_c   4.86718857
_cell_angle_alpha   60.00000000
_cell_angle_beta   60.00000000
_cell_angle_gamma   60.00000000
_symmetry_Int_Tables_number   1
_chemical_formula_structural   Lu2MgOs
_chemical_formula_sum   'Lu2 Mg1 Os1'
_cell_volume   81.53038975
_cell_formula_units_Z   1
loop_
 _symmetry_equiv_pos_site_id
 _symmetry_equiv_pos_as_xyz
  1  'x, y, z'
loop_
 _atom_site_type_symbol
 _atom_site_label
 _atom_site_symmetry_multiplicity
 _atom_site_fract_x
 _atom_site_fract_y
 _atom_site_fract_z
 _atom_site_occupancy
  Lu  Lu0  1  0.00000000  -0.00000000  -0.00000000  1
  Lu  Lu1  1  0.50000000  0.50000000  0.50000000  1
  Mg  Mg0  1  0.24999900  0.24999900  0.24999900  1
  Os  Os0  1  0.74999900  0.74999900  0.74999900  1
loop_
_geom_bond_atom_site_label_1
_geom_bond_atom_site_label_2
_geom_bond_distance
_geom_bond_site_symmetry_2
Lu0 Mg0 2.980520 1_555
Lu0 Os0 2.980528 1_445
Lu0 Os0 2.980528 1_454
Lu0 Os0 2.980528 1_544
Lu0 Mg0 2.980536 1_545
Lu0 Mg0 2.980536 1_455
Lu0 Mg0 2.980536 1_554
Lu0 Os0 2.980544 1_444
Lu1 Os0 2.980520 1_555
Lu1 Mg0 2.980528 1_565
Lu1 Mg0 2.980528 1_655
Lu1 Mg0 2.980528 1_556
Lu1 Os0 2.980536 1_554
Lu1 Os0 2.980536 1_545
Lu1 Os0 2.980536 1_455
Lu1 Mg0 2.980544 1_555
