# generated using pymatgen
data_Li4VNi3O8
_symmetry_space_group_name_H-M   'P 1'
_cell_length_a   5.88043343
_cell_length_b   5.88043343
_cell_length_c   5.88043364
_cell_angle_alpha   59.97497076
_cell_angle_beta   59.97497076
_cell_angle_gamma   59.97496375
_symmetry_Int_Tables_number   1
_chemical_formula_structural   Li4VNi3O8
_chemical_formula_sum   'Li4 V1 Ni3 O8'
_cell_volume   143.70320299
_cell_formula_units_Z   1
loop_
 _symmetry_equiv_pos_site_id
 _symmetry_equiv_pos_as_xyz
  1  'x, y, z'
loop_
 _atom_site_type_symbol
 _atom_site_label
 _atom_site_symmetry_multiplicity
 _atom_site_fract_x
 _atom_site_fract_y
 _atom_site_fract_z
 _atom_site_occupancy
  Li  Li0  1  0.50394100  0.50394100  0.50394100  1
  Li  Li1  1  0.49893000  0.00643500  0.00643500  1
  Li  Li2  1  0.00643500  0.00643500  0.49893000  1
  Li  Li3  1  0.00643500  0.49893000  0.00643500  1
  V  V0  1  0.00000000  0.00000000  0.00000000  1
  Ni  Ni0  1  0.00000000  0.50000000  0.50000000  1
  Ni  Ni1  1  0.50000000  0.50000000  0.00000000  1
  Ni  Ni2  1  0.50000000  0.00000000  0.50000000  1
  O  O0  1  0.74170300  0.74170300  0.74170300  1
  O  O1  1  0.76575500  0.23690300  0.23690300  1
  O  O2  1  0.23690300  0.23690300  0.76575500  1
  O  O3  1  0.25829700  0.25829700  0.25829700  1
  O  O4  1  0.23690300  0.76575500  0.23690300  1
  O  O5  1  0.23424500  0.76309700  0.76309700  1
  O  O6  1  0.76309700  0.76309700  0.23424500  1
  O  O7  1  0.76309700  0.23424500  0.76309700  1
loop_
_geom_bond_atom_site_label_1
_geom_bond_atom_site_label_2
_geom_bond_distance
_geom_bond_site_symmetry_2
Li0 O5 2.155641 1_555
Li0 O7 2.155641 1_555
Li0 O6 2.155641 1_555
Li0 O1 2.220547 1_555
Li0 O4 2.220547 1_555
Li0 O2 2.220547 1_555
Li1 O6 2.048157 1_545
Li1 O7 2.048157 1_554
Li1 O2 2.094519 1_554
Li1 O4 2.094519 1_545
Li1 O3 2.095212 1_555
Li1 O0 2.204998 1_544
Li2 O7 2.048157 1_455
Li2 O5 2.048157 1_545
Li2 O1 2.094519 1_455
Li2 O4 2.094519 1_545
Li2 O3 2.095212 1_555
Li2 O0 2.204998 1_445
Li3 O6 2.048157 1_455
Li3 O5 2.048157 1_554
Li3 O2 2.094519 1_554
Li3 O1 2.094519 1_455
Li3 O3 2.095212 1_555
Li3 O0 2.204998 1_454
Ni0 O3 2.011983 1_555
Ni0 O0 2.011983 1_455
Ni0 O6 2.092531 1_455
Ni0 O2 2.092531 1_555
Ni0 O7 2.092532 1_455
Ni0 O4 2.092532 1_555
Ni1 O0 2.011983 1_554
Ni1 O3 2.011983 1_555
Ni1 O7 2.092531 1_554
Ni1 O5 2.092531 1_554
Ni1 O4 2.092531 1_555
Ni1 O1 2.092531 1_555
Ni2 O0 2.011983 1_545
Ni2 O3 2.011983 1_555
Ni2 O6 2.092531 1_545
Ni2 O2 2.092531 1_555
Ni2 O5 2.092532 1_545
Ni2 O1 2.092532 1_555
O1 V0 1.969828 1_655
O2 V0 1.969828 1_556
O4 V0 1.969828 1_565
O5 V0 1.969828 1_566
O6 V0 1.969828 1_665
O7 V0 1.969828 1_656
