# generated using pymatgen
data_VRh3
_symmetry_space_group_name_H-M   'P 1'
_cell_length_a   5.38854377
_cell_length_b   5.38854549
_cell_length_c   4.28573106
_cell_angle_alpha   90.00004162
_cell_angle_beta   89.99993259
_cell_angle_gamma   120.00012549
_symmetry_Int_Tables_number   1
_chemical_formula_structural   VRh3
_chemical_formula_sum   'V2 Rh6'
_cell_volume   107.77002043
_cell_formula_units_Z   2
loop_
 _symmetry_equiv_pos_site_id
 _symmetry_equiv_pos_as_xyz
  1  'x, y, z'
loop_
 _atom_site_type_symbol
 _atom_site_label
 _atom_site_symmetry_multiplicity
 _atom_site_fract_x
 _atom_site_fract_y
 _atom_site_fract_z
 _atom_site_occupancy
  V  V0  1  0.33333829  0.66665657  0.75000193  1
  V  V1  1  0.66665553  0.33333977  0.25000013  1
  Rh  Rh0  1  0.16722217  0.33442399  0.25000110  1
  Rh  Rh1  1  0.66557716  0.83278054  0.25000196  1
  Rh  Rh2  1  0.16721201  0.83279153  0.24999939  1
  Rh  Rh3  1  0.83276565  0.66554390  0.75000088  1
  Rh  Rh4  1  0.33445618  0.16723641  0.75000002  1
  Rh  Rh5  1  0.83277502  0.16722829  0.75000260  1
loop_
_geom_bond_atom_site_label_1
_geom_bond_atom_site_label_2
_geom_bond_distance
_geom_bond_site_symmetry_2
Rh0 V0 2.644920 1_554
Rh0 V0 2.644925 1_555
Rh0 Rh4 2.650922 1_555
Rh0 Rh4 2.650927 1_554
Rh0 Rh5 2.650989 1_454
Rh0 Rh5 2.650997 1_455
Rh0 Rh1 2.685407 1_555
Rh0 Rh2 2.685504 1_555
Rh0 V1 2.694144 1_555
Rh0 V1 2.694409 1_455
Rh0 Rh2 2.703042 1_545
Rh0 Rh1 2.703127 1_445
Rh1 V0 2.644938 1_555
Rh1 V0 2.644940 1_554
Rh1 Rh3 2.650932 1_555
Rh1 Rh3 2.650937 1_554
Rh1 Rh5 2.650993 1_564
Rh1 Rh5 2.650997 1_565
Rh1 Rh2 2.685492 1_555
Rh1 V1 2.694169 1_555
Rh1 V1 2.694385 1_565
Rh1 Rh2 2.703052 1_655
Rh2 V0 2.644992 1_554
Rh2 V0 2.645012 1_555
Rh2 Rh4 2.650985 1_564
Rh2 Rh3 2.650987 1_454
Rh2 Rh4 2.650989 1_565
Rh2 Rh3 2.650995 1_455
Rh2 V1 2.694250 1_565
Rh2 V1 2.694294 1_455
Rh3 V1 2.644842 1_556
Rh3 V1 2.644847 1_555
Rh3 Rh4 2.685152 1_555
Rh3 Rh5 2.685222 1_555
Rh3 V0 2.694189 1_555
Rh3 V0 2.694365 1_655
Rh3 Rh5 2.703324 1_565
Rh3 Rh4 2.703382 1_665
Rh4 V1 2.644830 1_555
Rh4 V1 2.644833 1_556
Rh4 Rh5 2.685235 1_555
Rh4 V0 2.694165 1_555
Rh4 V0 2.694390 1_545
Rh4 Rh5 2.703309 1_455
Rh5 V1 2.644910 1_556
Rh5 V1 2.644929 1_555
Rh5 V0 2.694250 1_655
Rh5 V0 2.694295 1_545
