# generated using pymatgen
data_LiTm2Rh
_symmetry_space_group_name_H-M   'P 1'
_cell_length_a   4.83547883
_cell_length_b   4.83547878
_cell_length_c   4.83547915
_cell_angle_alpha   60.00118989
_cell_angle_beta   60.00119352
_cell_angle_gamma   60.00120261
_symmetry_Int_Tables_number   1
_chemical_formula_structural   LiTm2Rh
_chemical_formula_sum   'Li1 Tm2 Rh1'
_cell_volume   79.94940842
_cell_formula_units_Z   1
loop_
 _symmetry_equiv_pos_site_id
 _symmetry_equiv_pos_as_xyz
  1  'x, y, z'
loop_
 _atom_site_type_symbol
 _atom_site_label
 _atom_site_symmetry_multiplicity
 _atom_site_fract_x
 _atom_site_fract_y
 _atom_site_fract_z
 _atom_site_occupancy
  Li  Li0  1  0.24999928  0.24999928  0.24999927  1
  Tm  Tm0  1  -0.00000029  -0.00000029  -0.00000029  1
  Tm  Tm1  1  0.50000098  0.50000098  0.50000097  1
  Rh  Rh0  1  0.75000003  0.75000004  0.75000005  1
loop_
_geom_bond_atom_site_label_1
_geom_bond_atom_site_label_2
_geom_bond_distance
_geom_bond_site_symmetry_2
Li0 Tm0 2.961082 1_555
Li0 Tm1 2.961107 1_555
Li0 Tm1 2.961152 1_554
Li0 Tm1 2.961152 1_545
Li0 Tm1 2.961152 1_455
Li0 Tm0 2.961160 1_556
Li0 Tm0 2.961160 1_565
Li0 Tm0 2.961160 1_655
Rh0 Tm1 2.961076 1_555
Rh0 Tm0 2.961083 1_666
Rh0 Tm0 2.961160 1_665
Rh0 Tm0 2.961160 1_656
Rh0 Tm0 2.961160 1_566
Rh0 Tm1 2.961162 1_556
Rh0 Tm1 2.961162 1_565
Rh0 Tm1 2.961162 1_655
