# generated using pymatgen
data_Li3Mn2(P2O7)2
_symmetry_space_group_name_H-M   'P 1'
_cell_length_a   9.86006300
_cell_length_b   9.86104973
_cell_length_c   11.37230221
_cell_angle_alpha   89.86241016
_cell_angle_beta   76.77793889
_cell_angle_gamma   89.57153195
_symmetry_Int_Tables_number   1
_chemical_formula_structural   Li3Mn2(P2O7)2
_chemical_formula_sum   'Li12 Mn8 P16 O56'
_cell_volume   1076.39303038
_cell_formula_units_Z   4
loop_
 _symmetry_equiv_pos_site_id
 _symmetry_equiv_pos_as_xyz
  1  'x, y, z'
loop_
 _atom_site_type_symbol
 _atom_site_label
 _atom_site_symmetry_multiplicity
 _atom_site_fract_x
 _atom_site_fract_y
 _atom_site_fract_z
 _atom_site_occupancy
  Li  Li0  1  0.88459800  0.27941700  0.44828500  1
  Li  Li1  1  0.82020200  0.58782800  0.55062800  1
  Li  Li2  1  0.91109000  0.89169000  0.02541900  1
  Li  Li3  1  0.58868600  0.39105600  0.97292000  1
  Li  Li4  1  0.64921900  0.06629200  0.47118000  1
  Li  Li5  1  0.35039800  0.93598900  0.52975700  1
  Li  Li6  1  0.41273400  0.60618300  0.03140400  1
  Li  Li7  1  0.14620300  0.41001800  0.95666200  1
  Li  Li8  1  0.35208500  0.91044600  0.04244900  1
  Li  Li9  1  0.08648000  0.10580400  0.97054700  1
  Li  Li10  1  0.18214900  0.41265300  0.44801600  1
  Li  Li11  1  0.11544400  0.72060400  0.55115900  1
  Mn  Mn0  1  0.79844300  0.07499900  0.67488300  1
  Mn  Mn1  1  0.74081800  0.78509300  0.82527200  1
  Mn  Mn2  1  0.75352600  0.28705900  0.17501800  1
  Mn  Mn3  1  0.70190800  0.57853100  0.32506400  1
  Mn  Mn4  1  0.29667500  0.42046500  0.67333000  1
  Mn  Mn5  1  0.24551700  0.71532000  0.82474200  1
  Mn  Mn6  1  0.25856000  0.21682500  0.17425900  1
  Mn  Mn7  1  0.20376400  0.92500600  0.32610700  1
  P  P0  1  0.97325400  0.54994500  0.75546400  1
  P  P1  1  0.87988300  0.29015900  0.88681300  1
  P  P2  1  0.93885900  0.06928000  0.24182900  1
  P  P3  1  0.87812500  0.85184600  0.42615200  1
  P  P4  1  0.62172200  0.35401600  0.57489000  1
  P  P5  1  0.56163000  0.56878500  0.75936400  1
  P  P6  1  0.47835200  0.95115500  0.75591100  1
  P  P7  1  0.61995900  0.79001100  0.11060600  1
  P  P8  1  0.38333600  0.20747100  0.89163900  1
  P  P9  1  0.52398800  0.04923900  0.24661300  1
  P  P10  1  0.43763700  0.42992200  0.24250400  1
  P  P11  1  0.38033500  0.64762100  0.42118200  1
  P  P12  1  0.12097700  0.14928100  0.57668900  1
  P  P13  1  0.06188600  0.92957200  0.75655000  1
  P  P14  1  0.11724800  0.70798400  0.11059100  1
  P  P15  1  0.02216100  0.45363900  0.24354400  1
  O  O0  1  0.97954200  0.58109800  0.62361500  1
  O  O1  1  0.96692900  0.16100600  0.56446100  1
  O  O2  1  0.91577900  0.91090700  0.73037600  1
  O  O3  1  0.88822000  0.65334800  0.84477600  1
  O  O4  1  0.89728900  0.40695600  0.78187100  1
  O  O5  1  0.82434500  0.17012200  0.82781600  1
  O  O6  1  0.77176100  0.34606200  0.99782900  1
  O  O7  1  0.98025800  0.73462600  0.08068000  1
  O  O8  1  0.88279800  0.92346500  0.29666800  1
  O  O9  1  0.93645300  0.06412100  0.10965600  1
  O  O10  1  0.86727900  0.46386900  0.22554700  1
  O  O11  1  0.81783200  0.71102500  0.41550600  1
  O  O12  1  0.83399100  0.17860000  0.30760000  1
  O  O13  1  0.78762000  0.94491000  0.52121400  1
  O  O14  1  0.72340100  0.43918000  0.47893300  1
  O  O15  1  0.67178700  0.67511700  0.69822300  1
  O  O16  1  0.68632800  0.21205400  0.58027300  1
  O  O17  1  0.63271700  0.95667600  0.77845700  1
  O  O18  1  0.62316500  0.42377600  0.70381100  1
  O  O19  1  0.55837300  0.56254700  0.89253100  1
  O  O20  1  0.51944400  0.23303500  0.92290100  1
  O  O21  1  0.72868700  0.84389100  0.99815400  1
  O  O22  1  0.67598000  0.66905900  0.16968300  1
  O  O23  1  0.60393600  0.90686300  0.21276600  1
  O  O24  1  0.58285200  0.41377900  0.27214700  1
  O  O25  1  0.60446000  0.15448300  0.15800000  1
  O  O26  1  0.47798300  0.91986800  0.62740600  1
  O  O27  1  0.53298000  0.64968800  0.43256300  1
  O  O28  1  0.47211500  0.34932700  0.56189100  1
  O  O29  1  0.51670600  0.07001600  0.37832400  1
  O  O30  1  0.39334000  0.85857200  0.85509200  1
  O  O31  1  0.41767500  0.58720300  0.72843400  1
  O  O32  1  0.41031100  0.10017700  0.77964800  1
  O  O33  1  0.31117600  0.32769500  0.84309500  1
  O  O34  1  0.27668100  0.13690000  0.99854200  1
  O  O35  1  0.48020500  0.77269700  0.07928000  1
  O  O36  1  0.43901400  0.43507800  0.10937000  1
  O  O37  1  0.37844800  0.57870400  0.29328700  1
  O  O38  1  0.37483000  0.03556600  0.21682200  1
  O  O39  1  0.31994400  0.79133300  0.41624500  1
  O  O40  1  0.32887900  0.32726600  0.30732600  1
  O  O41  1  0.27980900  0.56506600  0.51814900  1
  O  O42  1  0.21126300  0.05846700  0.48126800  1
  O  O43  1  0.16610400  0.82282900  0.68779700  1
  O  O44  1  0.17722800  0.29182500  0.58716200  1
  O  O45  1  0.12241000  0.53534800  0.78305000  1
  O  O46  1  0.06627900  0.93319700  0.88863100  1
  O  O47  1  0.11682700  0.07783500  0.70565800  1
  O  O48  1  0.01998500  0.27190100  0.91791500  1
  O  O49  1  0.22282300  0.63598700  0.00405800  1
  O  O50  1  0.18907000  0.82758300  0.15885300  1
  O  O51  1  0.09157500  0.60045500  0.22450800  1
  O  O52  1  0.10604500  0.36042600  0.14405200  1
  O  O53  1  0.08438400  0.08858000  0.26924700  1
  O  O54  1  0.03042800  0.83850800  0.43908200  1
  O  O55  1  0.02493500  0.41289500  0.37157500  1
loop_
_geom_bond_atom_site_label_1
_geom_bond_atom_site_label_2
_geom_bond_distance
_geom_bond_site_symmetry_2
Li0 O55 1.969197 1_655
Li0 O12 2.043851 1_555
Li0 O1 2.058399 1_555
Li0 O14 2.200333 1_555
Li0 O16 2.277809 1_555
Li1 O0 1.938153 1_555
Li1 O11 1.960800 1_555
Li1 O14 2.026593 1_555
Li1 O15 2.136402 1_555
Li2 O7 1.853238 1_555
Li2 O21 1.954843 1_554
Li2 O46 1.961188 1_654
Li2 O9 1.998802 1_565
Li3 O20 1.848152 1_555
Li3 O36 1.928824 1_556
Li3 O6 1.938281 1_555
Li3 O19 1.973545 1_555
Li4 O29 1.858463 1_555
Li4 O13 1.986508 1_545
Li4 O16 1.990773 1_555
Li4 O12 2.544844 1_555
Li4 O26 2.596907 1_545
Li5 O26 1.864468 1_555
Li5 O42 1.990704 1_565
Li5 O39 1.995978 1_555
Li5 O29 2.476114 1_565
Li5 O43 2.510800 1_555
Li6 O35 1.903029 1_555
Li6 O19 1.923033 1_554
Li6 O36 1.947196 1_555
Li6 O49 1.986755 1_555
Li7 O48 1.969027 1_555
Li7 O33 1.999312 1_555
Li7 O52 2.132890 1_556
Li7 O45 2.382522 1_555
Li7 O49 2.458409 1_556
Li8 O35 1.957054 1_555
Li8 O50 2.011147 1_555
Li8 O30 2.138358 1_554
Li8 O38 2.392551 1_565
Li8 O34 2.434822 1_564
Li9 O48 1.905142 1_555
Li9 O9 1.948164 1_456
Li9 O46 1.975391 1_545
Li9 O34 1.998671 1_555
Li10 O55 1.942940 1_555
Li10 O44 1.970460 1_555
Li10 O41 2.049624 1_555
Li10 O40 2.071560 1_555
Li11 O0 1.970808 1_455
Li11 O43 2.012550 1_555
Li11 O54 2.036186 1_555
Li11 O41 2.192522 1_555
Li11 O39 2.346690 1_555
Mn0 O1 2.029217 1_555
Mn0 O5 2.045611 1_555
Mn0 O17 2.135512 1_545
Mn0 O2 2.157819 1_545
Mn0 O16 2.172789 1_555
Mn0 O13 2.192972 1_545
Mn1 O3 1.991775 1_555
Mn1 O21 2.027995 1_555
Mn1 O15 2.048262 1_555
Mn1 O17 2.123833 1_555
Mn1 O2 2.203149 1_555
Mn2 O25 2.016676 1_555
Mn2 O6 2.064332 1_554
Mn2 O12 2.138569 1_555
Mn2 O24 2.176793 1_555
Mn2 O10 2.226435 1_555
Mn3 O27 1.953561 1_555
Mn3 O22 2.044594 1_555
Mn3 O10 2.086250 1_555
Mn3 O11 2.153596 1_555
Mn3 O24 2.176232 1_555
Mn3 O14 2.269115 1_555
Mn4 O28 2.018374 1_555
Mn4 O44 2.124333 1_555
Mn4 O33 2.168051 1_555
Mn4 O45 2.188526 1_555
Mn4 O31 2.212655 1_555
Mn4 O41 2.300851 1_555
Mn5 O30 2.121865 1_555
Mn5 O49 2.146340 1_556
Mn5 O43 2.167940 1_555
Mn5 O31 2.191169 1_555
Mn5 O45 2.268779 1_555
Mn6 O40 2.110921 1_555
Mn6 O34 2.118597 1_554
Mn6 O52 2.141680 1_555
Mn6 O53 2.211985 1_555
Mn6 O38 2.227656 1_555
Mn7 O54 2.076369 1_555
Mn7 O39 2.146784 1_555
Mn7 O38 2.154135 1_565
Mn7 O50 2.167646 1_555
Mn7 O53 2.172617 1_565
Mn7 O42 2.218870 1_565
O0 P0 1.517248 1_555
O1 P12 1.560049 1_655
O2 P13 1.548634 1_655
O3 P0 1.541730 1_555
O4 P0 1.596947 1_555
O4 P1 1.637956 1_555
O5 P1 1.527327 1_555
O6 P1 1.553451 1_555
O7 P14 1.487832 1_655
O8 P2 1.616135 1_565
O8 P3 1.622867 1_555
O9 P2 1.509699 1_555
O10 P15 1.588967 1_655
O11 P3 1.530519 1_555
O12 P2 1.556963 1_555
O13 P3 1.535727 1_555
O14 P4 1.552080 1_555
O15 P5 1.559069 1_555
O16 P4 1.540563 1_555
O17 P6 1.601613 1_555
O18 P5 1.621112 1_555
O18 P4 1.624033 1_555
O19 P5 1.508510 1_555
O20 P8 1.488203 1_555
O21 P7 1.563693 1_556
O22 P7 1.528107 1_555
O23 P9 1.608713 1_565
O23 P7 1.619329 1_555
O24 P10 1.551211 1_555
O25 P9 1.537428 1_555
O26 P6 1.495158 1_555
O27 P11 1.540144 1_555
O28 P4 1.516846 1_555
O29 P9 1.497586 1_555
O30 P6 1.543478 1_555
O31 P5 1.547789 1_555
O32 P6 1.608336 1_545
O32 P8 1.630804 1_555
O33 P8 1.542860 1_555
O34 P8 1.578049 1_555
O35 P7 1.511052 1_555
O36 P10 1.511729 1_555
O37 P11 1.610890 1_555
O37 P10 1.632093 1_555
O38 P9 1.589672 1_555
O39 P11 1.538939 1_555
O40 P10 1.539206 1_555
O41 P11 1.539146 1_555
O42 P12 1.524092 1_555
O43 P13 1.547736 1_555
O44 P12 1.529803 1_555
O45 P0 1.577889 1_455
O46 P13 1.513075 1_555
O47 P12 1.617773 1_555
O47 P13 1.621823 1_545
O48 P1 1.511726 1_455
O49 P14 1.572142 1_555
O50 P14 1.545011 1_555
O51 P15 1.599015 1_555
O51 P14 1.647463 1_555
O52 P15 1.541006 1_555
O53 P2 1.549638 1_455
O54 P3 1.546623 1_455
O55 P15 1.515709 1_555
