# generated using pymatgen
data_CrFe(PO4)2
_symmetry_space_group_name_H-M   'P 1'
_cell_length_a   5.84836300
_cell_length_b   4.83731200
_cell_length_c   9.96540350
_cell_angle_alpha   88.98505063
_cell_angle_beta   90.00000000
_cell_angle_gamma   90.00000000
_symmetry_Int_Tables_number   1
_chemical_formula_structural   CrFe(PO4)2
_chemical_formula_sum   'Cr2 Fe2 P4 O16'
_cell_volume   281.88058591
_cell_formula_units_Z   2
loop_
 _symmetry_equiv_pos_site_id
 _symmetry_equiv_pos_as_xyz
  1  'x, y, z'
loop_
 _atom_site_type_symbol
 _atom_site_label
 _atom_site_symmetry_multiplicity
 _atom_site_fract_x
 _atom_site_fract_y
 _atom_site_fract_z
 _atom_site_occupancy
  Cr  Cr0  1  0.75000000  0.47170500  0.77209200  1
  Cr  Cr1  1  0.25000000  0.52829500  0.22790800  1
  Fe  Fe0  1  0.25000000  0.96864300  0.72931900  1
  Fe  Fe1  1  0.75000000  0.03135700  0.27068100  1
  P  P0  1  0.25000000  0.40957600  0.90769100  1
  P  P1  1  0.75000000  0.91966700  0.59548500  1
  P  P2  1  0.25000000  0.08033300  0.40451500  1
  P  P3  1  0.75000000  0.59042400  0.09230900  1
  O  O0  1  0.75000000  0.66982000  0.94384800  1
  O  O1  1  0.25000000  0.72281600  0.88467900  1
  O  O2  1  0.04495300  0.26603900  0.83099500  1
  O  O3  1  0.45504700  0.26603900  0.83099500  1
  O  O4  1  0.95344500  0.76726100  0.67272200  1
  O  O5  1  0.54655500  0.76726100  0.67272200  1
  O  O6  1  0.75000000  0.23118000  0.61361400  1
  O  O7  1  0.25000000  0.15186900  0.55319300  1
  O  O8  1  0.75000000  0.84813100  0.44680700  1
  O  O9  1  0.25000000  0.76882000  0.38638600  1
  O  O10  1  0.04655500  0.23273900  0.32727800  1
  O  O11  1  0.45344500  0.23273900  0.32727800  1
  O  O12  1  0.54495300  0.73396100  0.16900500  1
  O  O13  1  0.95504700  0.73396100  0.16900500  1
  O  O14  1  0.75000000  0.27718400  0.11532100  1
  O  O15  1  0.25000000  0.33018000  0.05615200  1
loop_
_geom_bond_atom_site_label_1
_geom_bond_atom_site_label_2
_geom_bond_distance
_geom_bond_site_symmetry_2
Cr0 O0 1.976403 1_555
Cr0 O6 1.978129 1_555
Cr0 O2 2.071047 1_655
Cr0 O3 2.071047 1_555
Cr0 O4 2.095273 1_555
Cr0 O5 2.095273 1_555
Cr1 O15 1.976403 1_555
Cr1 O9 1.978129 1_555
Cr1 O13 2.071047 1_455
Cr1 O12 2.071047 1_555
Cr1 O10 2.095273 1_555
Cr1 O11 2.095273 1_555
Fe0 O1 1.935416 1_555
Fe0 O7 1.952195 1_565
Fe0 O5 2.072329 1_555
Fe0 O4 2.072329 1_455
Fe0 O3 2.141475 1_565
Fe0 O2 2.141475 1_565
Fe1 O14 1.935416 1_555
Fe1 O8 1.952195 1_545
Fe1 O10 2.072329 1_655
Fe1 O11 2.072329 1_555
Fe1 O12 2.141475 1_545
Fe1 O13 2.141475 1_545
O0 P3 1.521912 1_556
O1 P0 1.528473 1_555
O2 P0 1.588433 1_555
O3 P0 1.588433 1_555
O4 P1 1.591075 1_555
O5 P1 1.591075 1_555
O6 P1 1.520851 1_545
O7 P2 1.527467 1_555
O8 P1 1.527467 1_555
O9 P2 1.520851 1_565
O10 P2 1.591075 1_555
O11 P2 1.591075 1_555
O12 P3 1.588433 1_555
O13 P3 1.588433 1_555
O14 P3 1.528473 1_555
O15 P0 1.521912 1_554
