# generated using pymatgen
data_Li9V2P4HO18
_symmetry_space_group_name_H-M   'P 1'
_cell_length_a   10.71743101
_cell_length_b   10.71743101
_cell_length_c   10.71743101
_cell_angle_alpha   142.56960702
_cell_angle_beta   97.32732972
_cell_angle_gamma   94.49487695
_symmetry_Int_Tables_number   1
_chemical_formula_structural   Li9V2P4HO18
_chemical_formula_sum   'Li18 V4 P8 H2 O36'
_cell_volume   708.39420499
_cell_formula_units_Z   2
loop_
 _symmetry_equiv_pos_site_id
 _symmetry_equiv_pos_as_xyz
  1  'x, y, z'
loop_
 _atom_site_type_symbol
 _atom_site_label
 _atom_site_symmetry_multiplicity
 _atom_site_fract_x
 _atom_site_fract_y
 _atom_site_fract_z
 _atom_site_occupancy
  Li  Li0  1  0.02338800  0.24424600  0.75826600  1
  Li  Li1  1  0.02338800  0.76512200  0.27914200  1
  Li  Li2  1  0.75751100  0.87907400  0.37843700  1
  Li  Li3  1  0.99895900  0.61724000  0.88171900  1
  Li  Li4  1  0.24058300  0.87624700  0.86433600  1
  Li  Li5  1  0.50412000  0.00412000  0.50000000  1
  Li  Li6  1  0.27168800  0.27168800  0.00000000  1
  Li  Li7  1  0.74789200  0.74789200  0.00000000  1
  Li  Li8  1  0.99023700  0.99023700  0.00000000  1
  Li  Li9  1  0.27168800  0.77168800  0.50000000  1
  Li  Li10  1  0.50412000  0.50412000  0.00000000  1
  Li  Li11  1  0.99023700  0.49023700  0.50000000  1
  Li  Li12  1  0.74789200  0.24789200  0.50000000  1
  Li  Li13  1  0.01191100  0.37624700  0.13566400  1
  Li  Li14  1  0.73552200  0.11724000  0.11828100  1
  Li  Li15  1  0.50063800  0.37907400  0.62156300  1
  Li  Li16  1  0.48598000  0.74424600  0.72085800  1
  Li  Li17  1  0.48598000  0.26512200  0.24173400  1
  V  V0  1  0.24545900  0.99815500  0.24074800  1
  V  V1  1  0.75740700  0.49815500  0.25269600  1
  V  V2  1  0.24545900  0.50471100  0.74730400  1
  V  V3  1  0.75740700  0.00471100  0.75925200  1
  P  P0  1  0.97058900  0.10878100  0.36180800  1
  P  P1  1  0.75662200  0.39060800  0.86601400  1
  P  P2  1  0.24847200  0.38934400  0.35912800  1
  P  P3  1  0.48505200  0.11484100  0.87021100  1
  P  P4  1  0.24463000  0.61484100  0.12978900  1
  P  P5  1  0.03021500  0.88934400  0.64087200  1
  P  P6  1  0.74697300  0.60878100  0.63819200  1
  P  P7  1  0.52459300  0.89060800  0.13398600  1
  H  H0  1  0.58372400  0.68936200  0.39436200  1
  H  H1  1  0.29499900  0.18936200  0.60563800  1
  O  O0  1  0.16211000  0.51040200  0.15170800  1
  O  O1  1  0.15401600  0.99265900  0.66135800  1
  O  O2  1  0.20181500  0.44576400  0.88327600  1
  O  O3  1  0.20181500  0.81853900  0.25605100  1
  O  O4  1  0.94943300  0.68456400  0.39381700  1
  O  O5  1  0.94943300  0.05561600  0.76486900  1
  O  O6  1  0.20539600  0.75767100  0.94772500  1
  O  O7  1  0.67862000  0.74297900  0.43564000  1
  O  O8  1  0.94268300  0.01985200  0.42283100  1
  O  O9  1  0.90535000  0.48190300  0.92344700  1
  O  O10  1  0.72279700  0.52462500  0.07695500  1
  O  O11  1  0.04675400  0.35417400  0.56887000  1
  O  O12  1  0.04675400  0.97788500  0.19258000  1
  O  O13  1  0.72279700  0.14584100  0.69817200  1
  O  O14  1  0.45172700  0.17312900  0.77859800  1
  O  O15  1  0.09641600  0.32709400  0.26932200  1
  O  O16  1  0.84346900  0.08863800  0.25483000  1
  O  O17  1  0.66523400  0.40735000  0.75788400  1
  O  O18  1  0.83380800  0.58863800  0.74517000  1
  O  O19  1  0.64946600  0.90735000  0.24211600  1
  O  O20  1  0.39453100  0.67312900  0.22140200  1
  O  O21  1  0.05777200  0.82709400  0.73067800  1
  O  O22  1  0.78530500  0.47788500  0.43113000  1
  O  O23  1  0.78530500  0.85417400  0.80742000  1
  O  O24  1  0.44767000  0.64584100  0.92304500  1
  O  O25  1  0.44767000  0.02462500  0.30182800  1
  O  O26  1  0.55845600  0.98190300  0.07655300  1
  O  O27  1  0.59702100  0.51985200  0.57716900  1
  O  O28  1  0.30733900  0.24297900  0.56436000  1
  O  O29  1  0.80994600  0.25767100  0.05227500  1
  O  O30  1  0.29074700  0.55561600  0.60618300  1
  O  O31  1  0.29074700  0.18456400  0.23513100  1
  O  O32  1  0.56248800  0.31853900  0.11672400  1
  O  O33  1  0.56248800  0.94576400  0.74394900  1
  O  O34  1  0.35869400  0.01040200  0.84829200  1
  O  O35  1  0.33130100  0.49265900  0.33864200  1
loop_
_geom_bond_atom_site_label_1
_geom_bond_atom_site_label_2
_geom_bond_distance
_geom_bond_site_symmetry_2
Li0 O2 2.054248 1_555
Li0 O8 2.146079 1_455
Li0 O5 2.170388 1_455
Li0 O9 2.266489 1_455
Li1 O3 2.054248 1_555
Li1 O8 2.146079 1_465
Li1 O4 2.170388 1_455
Li1 O9 2.266489 1_454
Li2 O19 1.973300 1_555
Li2 O7 2.139467 1_555
Li2 O8 2.142669 1_565
Li2 O13 2.233216 1_565
Li2 O10 2.233216 1_555
Li3 O18 1.977450 1_555
Li3 O9 2.055950 1_555
Li3 O6 2.246905 1_655
Li3 O11 2.259316 1_655
Li3 O12 2.259322 1_656
Li4 O34 1.965220 1_565
Li4 O21 2.022885 1_555
Li4 O6 2.090598 1_555
Li4 O31 2.306886 1_566
Li4 O30 2.306886 1_555
Li5 O20 2.123471 1_545
Li5 O14 2.123471 1_555
Li5 O25 2.315083 1_555
Li5 O13 2.315085 1_555
Li6 O35 2.170176 1_555
Li6 O1 2.170179 1_544
Li6 O34 2.218055 1_554
Li6 O0 2.218055 1_555
Li7 O17 2.168995 1_554
Li7 O19 2.168995 1_555
Li7 O18 2.169006 1_554
Li7 O16 2.169007 1_565
Li8 O21 2.151395 1_654
Li8 O15 2.151395 1_665
Li8 O23 2.184486 1_554
Li8 O12 2.184486 1_655
Li9 O35 2.170176 1_555
Li9 O1 2.170184 1_555
Li9 O0 2.218055 1_555
Li9 O34 2.218055 1_565
Li10 O20 2.123471 1_555
Li10 O14 2.123471 1_554
Li10 O24 2.315073 1_554
Li10 O10 2.315083 1_555
Li11 O21 2.151395 1_655
Li11 O15 2.151395 1_655
Li11 O22 2.184488 1_555
Li11 O11 2.184495 1_655
Li12 O17 2.168995 1_555
Li12 O19 2.168995 1_545
Li12 O18 2.169006 1_555
Li12 O16 2.169013 1_555
Li13 O0 1.965220 1_555
Li13 O15 2.022885 1_555
Li13 O29 2.090598 1_455
Li13 O5 2.306886 1_454
Li13 O4 2.306886 1_455
Li14 O16 1.977450 1_555
Li14 O26 2.055959 1_545
Li14 O29 2.246902 1_555
Li14 O23 2.259316 1_544
Li14 O22 2.259322 1_555
Li15 O17 1.973292 1_555
Li15 O28 2.139481 1_555
Li15 O27 2.142664 1_555
Li15 O25 2.233216 1_555
Li15 O24 2.233221 1_555
Li16 O33 2.054248 1_555
Li16 O27 2.146079 1_555
Li16 O30 2.170388 1_555
Li16 O26 2.266489 1_556
Li17 O32 2.054248 1_555
Li17 O27 2.146079 1_555
Li17 O31 2.170388 1_555
Li17 O26 2.266489 1_545
H0 O7 0.974772 1_555
H1 O28 0.974764 1_555
O0 P4 1.551020 1_555
O1 P5 1.531027 1_555
O2 P4 1.559265 1_556
O2 V2 2.081167 1_555
O3 P4 1.559265 1_555
O3 V0 2.081167 1_555
O4 P5 1.570163 1_655
O4 V1 2.068088 1_555
O5 P5 1.570157 1_645
O5 V3 2.068088 1_555
O6 V0 1.821345 1_556
O6 V2 1.821345 1_555
O7 V1 2.010233 1_555
O7 V3 2.010239 1_565
O8 P0 1.555872 1_555
O9 P1 1.557493 1_555
O10 P1 1.561726 1_554
O10 V1 2.110097 1_555
O11 P0 1.562066 1_455
O11 V2 2.077946 1_555
O12 P0 1.562066 1_465
O12 V0 2.077948 1_555
O13 P1 1.561734 1_555
O13 V3 2.110087 1_555
O14 P3 1.549679 1_555
O15 P2 1.561062 1_555
O16 P0 1.542606 1_555
O17 P1 1.550086 1_555
O18 P6 1.542614 1_555
O19 P7 1.550094 1_555
O20 P4 1.549679 1_555
O21 P5 1.561063 1_555
O22 P6 1.562073 1_555
O22 V1 2.077938 1_555
O23 P6 1.562066 1_555
O23 V3 2.077948 1_565
O24 P7 1.561729 1_556
O24 V2 2.110098 1_555
O25 P7 1.561718 1_545
O25 V0 2.110097 1_545
O26 P7 1.557496 1_555
O27 P6 1.555872 1_555
O28 V2 2.010240 1_555
O28 V0 2.010240 1_545
O29 V3 1.821345 1_554
O29 V1 1.821345 1_555
O30 P2 1.570165 1_555
O30 V2 2.068088 1_555
O31 P2 1.570165 1_555
O31 V0 2.068088 1_545
O32 P3 1.559265 1_554
O32 V1 2.081167 1_555
O33 P3 1.559265 1_565
O33 V3 2.081167 1_565
O34 P3 1.551020 1_555
O35 P2 1.531027 1_555
