# generated using pymatgen
data_PaNi3
_symmetry_space_group_name_H-M   'P 1'
_cell_length_a   5.26624569
_cell_length_b   5.26623350
_cell_length_c   4.71847172
_cell_angle_alpha   90.00000000
_cell_angle_beta   90.00000000
_cell_angle_gamma   119.99454820
_symmetry_Int_Tables_number   1
_chemical_formula_structural   PaNi3
_chemical_formula_sum   'Pa2 Ni6'
_cell_volume   113.33317922
_cell_formula_units_Z   2
loop_
 _symmetry_equiv_pos_site_id
 _symmetry_equiv_pos_as_xyz
  1  'x, y, z'
loop_
 _atom_site_type_symbol
 _atom_site_label
 _atom_site_symmetry_multiplicity
 _atom_site_fract_x
 _atom_site_fract_y
 _atom_site_fract_z
 _atom_site_occupancy
  Pa  Pa0  1  0.33333327  0.66666643  0.74999900  1
  Pa  Pa1  1  0.66666553  0.33333146  0.25000000  1
  Ni  Ni0  1  0.15889328  0.31778847  0.24999900  1
  Ni  Ni1  1  0.68221051  0.84110587  0.24999900  1
  Ni  Ni2  1  0.15889269  0.84110614  0.24999900  1
  Ni  Ni3  1  0.84110518  0.68220894  0.75000000  1
  Ni  Ni4  1  0.31778924  0.15889292  0.75000000  1
  Ni  Ni5  1  0.84110530  0.15889278  0.75000000  1
loop_
_geom_bond_atom_site_label_1
_geom_bond_atom_site_label_2
_geom_bond_distance
_geom_bond_site_symmetry_2
Ni0 Ni2 2.510319 1_545
Ni0 Ni1 2.510532 1_445
Ni0 Pa1 2.634066 1_455
Ni0 Pa1 2.634088 1_555
Ni0 Ni2 2.755915 1_555
Ni0 Ni1 2.756141 1_555
Ni0 Ni4 2.768840 1_554
Ni0 Ni4 2.768848 1_555
Ni0 Ni5 2.768895 1_454
Ni0 Ni5 2.768903 1_455
Ni0 Pa0 2.845690 1_554
Ni0 Pa0 2.845690 1_555
Ni1 Ni2 2.510325 1_655
Ni1 Pa1 2.634054 1_565
Ni1 Pa1 2.634088 1_555
Ni1 Ni2 2.755921 1_555
Ni1 Ni3 2.768840 1_554
Ni1 Ni3 2.768848 1_555
Ni1 Ni5 2.768891 1_564
Ni1 Ni5 2.768899 1_565
Ni1 Pa0 2.845690 1_555
Ni1 Pa0 2.845690 1_554
Ni2 Pa1 2.634287 1_565
Ni2 Pa1 2.634296 1_455
Ni2 Ni4 2.768890 1_564
Ni2 Ni3 2.768894 1_454
Ni2 Ni4 2.768898 1_565
Ni2 Ni3 2.768902 1_455
Ni2 Pa0 2.845623 1_555
Ni2 Pa0 2.845623 1_554
Ni3 Ni5 2.510328 1_565
Ni3 Ni4 2.510539 1_665
Ni3 Pa0 2.634067 1_655
Ni3 Pa0 2.634087 1_555
Ni3 Ni5 2.755905 1_555
Ni3 Ni4 2.756134 1_555
Ni3 Pa1 2.845689 1_555
Ni3 Pa1 2.845689 1_556
Ni4 Ni5 2.510334 1_455
Ni4 Pa0 2.634056 1_545
Ni4 Pa0 2.634086 1_555
Ni4 Ni5 2.755911 1_555
Ni4 Pa1 2.845688 1_555
Ni4 Pa1 2.845688 1_556
Ni5 Pa0 2.634287 1_545
Ni5 Pa0 2.634295 1_655
Ni5 Pa1 2.845619 1_556
Ni5 Pa1 2.845619 1_555
