# generated using pymatgen
data_Fe3Re
_symmetry_space_group_name_H-M   'P 1'
_cell_length_a   5.09447545
_cell_length_b   5.09447545
_cell_length_c   4.05967700
_cell_angle_alpha   90.00000000
_cell_angle_beta   90.00000000
_cell_angle_gamma   119.99999286
_symmetry_Int_Tables_number   1
_chemical_formula_structural   Fe3Re
_chemical_formula_sum   'Fe6 Re2'
_cell_volume   91.24752461
_cell_formula_units_Z   2
loop_
 _symmetry_equiv_pos_site_id
 _symmetry_equiv_pos_as_xyz
  1  'x, y, z'
loop_
 _atom_site_type_symbol
 _atom_site_label
 _atom_site_symmetry_multiplicity
 _atom_site_fract_x
 _atom_site_fract_y
 _atom_site_fract_z
 _atom_site_occupancy
  Fe  Fe0  1  0.16257500  0.32515100  0.25000000  1
  Fe  Fe1  1  0.67484900  0.83742500  0.25000000  1
  Fe  Fe2  1  0.16257500  0.83742500  0.25000000  1
  Fe  Fe3  1  0.83742500  0.67484900  0.75000000  1
  Fe  Fe4  1  0.32515100  0.16257500  0.75000000  1
  Fe  Fe5  1  0.83742500  0.16257500  0.75000000  1
  Re  Re0  1  0.33333300  0.66666700  0.75000000  1
  Re  Re1  1  0.66666700  0.33333300  0.25000000  1
loop_
_geom_bond_atom_site_label_1
_geom_bond_atom_site_label_2
_geom_bond_distance
_geom_bond_site_symmetry_2
Fe0 Fe2 2.484708 1_545
Fe0 Fe1 2.484708 1_445
Fe0 Fe5 2.485591 1_454
Fe0 Fe5 2.485591 1_455
Fe0 Fe4 2.485596 1_555
Fe0 Fe4 2.485596 1_554
Fe0 Re0 2.527952 1_554
Fe0 Re0 2.527952 1_555
Fe0 Re1 2.547488 1_455
Fe0 Re1 2.547499 1_555
Fe0 Fe2 2.609767 1_555
Fe0 Fe1 2.609768 1_555
Fe1 Fe2 2.484708 1_655
Fe1 Fe5 2.485591 1_565
Fe1 Fe5 2.485591 1_564
Fe1 Fe3 2.485596 1_555
Fe1 Fe3 2.485596 1_554
Fe1 Re0 2.527952 1_555
Fe1 Re0 2.527952 1_554
Fe1 Re1 2.547488 1_565
Fe1 Re1 2.547499 1_555
Fe1 Fe2 2.609767 1_555
Fe2 Fe4 2.485591 1_565
Fe2 Fe4 2.485591 1_564
Fe2 Fe3 2.485591 1_455
Fe2 Fe3 2.485591 1_454
Fe2 Re0 2.527952 1_555
Fe2 Re0 2.527952 1_554
Fe2 Re1 2.547494 1_455
Fe2 Re1 2.547494 1_565
Fe3 Fe5 2.484708 1_565
Fe3 Fe4 2.484708 1_665
Fe3 Re1 2.527952 1_555
Fe3 Re1 2.527952 1_556
Fe3 Re0 2.547488 1_655
Fe3 Re0 2.547499 1_555
Fe3 Fe5 2.609767 1_555
Fe3 Fe4 2.609768 1_555
Fe4 Fe5 2.484708 1_455
Fe4 Re1 2.527952 1_555
Fe4 Re1 2.527952 1_556
Fe4 Re0 2.547488 1_545
Fe4 Re0 2.547499 1_555
Fe4 Fe5 2.609767 1_555
Fe5 Re1 2.527952 1_556
Fe5 Re1 2.527952 1_555
Fe5 Re0 2.547494 1_545
Fe5 Re0 2.547494 1_655
