# generated using pymatgen
data_LiNi4(PO4)3
_symmetry_space_group_name_H-M   'P 1'
_cell_length_a   8.51123724
_cell_length_b   8.51123724
_cell_length_c   6.42161334
_cell_angle_alpha   72.75747298
_cell_angle_beta   72.75747298
_cell_angle_gamma   93.95658068
_symmetry_Int_Tables_number   1
_chemical_formula_structural   LiNi4(PO4)3
_chemical_formula_sum   'Li2 Ni8 P6 O24'
_cell_volume   417.99452824
_cell_formula_units_Z   2
loop_
 _symmetry_equiv_pos_site_id
 _symmetry_equiv_pos_as_xyz
  1  'x, y, z'
loop_
 _atom_site_type_symbol
 _atom_site_label
 _atom_site_symmetry_multiplicity
 _atom_site_fract_x
 _atom_site_fract_y
 _atom_site_fract_z
 _atom_site_occupancy
  Li  Li0  1  0.98349500  0.02097300  0.74879400  1
  Li  Li1  1  0.02097300  0.98349500  0.24879400  1
  Ni  Ni0  1  0.94503000  0.62522300  0.63075900  1
  Ni  Ni1  1  0.62522300  0.94503000  0.13075900  1
  Ni  Ni2  1  0.26157000  0.73635700  0.75252400  1
  Ni  Ni3  1  0.50124600  0.51733800  0.52312700  1
  Ni  Ni4  1  0.73635700  0.26157000  0.25252400  1
  Ni  Ni5  1  0.51733800  0.50124600  0.02312700  1
  Ni  Ni6  1  0.37572400  0.05831500  0.86532700  1
  Ni  Ni7  1  0.05831500  0.37572400  0.36532700  1
  P  P0  1  0.66529300  0.87721800  0.62786500  1
  P  P1  1  0.87721800  0.66529300  0.12786500  1
  P  P2  1  0.70262100  0.29909900  0.75078700  1
  P  P3  1  0.29909900  0.70262100  0.25078700  1
  P  P4  1  0.12159600  0.33803200  0.86934600  1
  P  P5  1  0.33803200  0.12159600  0.36934600  1
  O  O0  1  0.60065700  0.95421800  0.81971300  1
  O  O1  1  0.84616200  0.84532700  0.60034600  1
  O  O2  1  0.95421800  0.60065700  0.31971300  1
  O  O3  1  0.84532700  0.84616200  0.10034600  1
  O  O4  1  0.33128700  0.99489800  0.60439500  1
  O  O5  1  0.53579400  0.71042400  0.69605200  1
  O  O6  1  0.72187700  0.47708100  0.77368500  1
  O  O7  1  0.99489800  0.33128700  0.10439500  1
  O  O8  1  0.73362000  0.18517700  0.96703900  1
  O  O9  1  0.81409700  0.26816800  0.53265900  1
  O  O10  1  0.71042400  0.53579400  0.19605200  1
  O  O11  1  0.47708100  0.72187700  0.27368500  1
  O  O12  1  0.52348900  0.28598700  0.73220400  1
  O  O13  1  0.28215900  0.47182700  0.80470200  1
  O  O14  1  0.18517700  0.73362000  0.46703900  1
  O  O15  1  0.26816800  0.81409700  0.03265900  1
  O  O16  1  0.00327400  0.66977300  0.89450800  1
  O  O17  1  0.28598700  0.52348900  0.23220400  1
  O  O18  1  0.47182700  0.28215900  0.30470200  1
  O  O19  1  0.66977300  0.00327400  0.39450800  1
  O  O20  1  0.15677100  0.15778500  0.89714500  1
  O  O21  1  0.04288900  0.39806700  0.67824600  1
  O  O22  1  0.15778400  0.15677100  0.39714500  1
  O  O23  1  0.39806700  0.04288900  0.17824600  1
loop_
_geom_bond_atom_site_label_1
_geom_bond_atom_site_label_2
_geom_bond_distance
_geom_bond_site_symmetry_2
Li0 O22 2.205880 1_655
Li0 O3 2.210546 1_546
Li0 O20 2.385799 1_655
Li0 O1 2.402957 1_545
Li1 O20 2.205883 1_564
Li1 O1 2.210546 1_455
Li1 O22 2.385794 1_565
Li1 O3 2.402957 1_455
Ni0 O6 1.997393 1_555
Ni0 O14 2.006248 1_655
Ni0 O16 2.027475 1_655
Ni0 O2 2.048597 1_555
Ni0 O1 2.086574 1_555
Ni0 O21 2.132592 1_655
Ni1 O11 1.997393 1_555
Ni1 O8 2.006248 1_564
Ni1 O19 2.027475 1_565
Ni1 O0 2.048597 1_554
Ni1 O3 2.086574 1_555
Ni1 O23 2.132592 1_565
Ni2 O16 2.078213 1_555
Ni2 O4 2.084090 1_555
Ni2 O15 2.106528 1_556
Ni2 O14 2.124636 1_555
Ni2 O13 2.203215 1_555
Ni2 O5 2.290084 1_555
Ni3 O11 2.056782 1_555
Ni3 O12 2.085804 1_555
Ni3 O13 2.093530 1_555
Ni3 O10 2.270421 1_555
Ni3 O5 2.286725 1_555
Ni4 O19 2.078213 1_555
Ni4 O7 2.084090 1_555
Ni4 O9 2.106528 1_555
Ni4 O8 2.124636 1_554
Ni4 O18 2.203215 1_555
Ni4 O10 2.290084 1_555
Ni5 O6 2.056782 1_554
Ni5 O17 2.085804 1_555
Ni5 O18 2.093530 1_555
Ni5 O5 2.270421 1_554
Ni5 O10 2.286725 1_555
Ni6 O12 2.027739 1_555
Ni6 O4 2.031190 1_545
Ni6 O15 2.035525 1_546
Ni6 O23 2.040796 1_556
Ni6 O20 2.079881 1_555
Ni6 O0 2.142760 1_545
Ni7 O17 2.027739 1_555
Ni7 O7 2.031190 1_455
Ni7 O9 2.035525 1_455
Ni7 O21 2.040796 1_555
Ni7 O22 2.079877 1_555
Ni7 O2 2.142760 1_455
O0 P0 1.541597 1_555
O1 P0 1.549045 1_555
O2 P1 1.541597 1_555
O3 P1 1.549045 1_555
O4 P5 1.555497 1_565
O5 P0 1.597292 1_555
O6 P2 1.566946 1_555
O7 P4 1.555497 1_654
O8 P2 1.546766 1_555
O9 P2 1.548153 1_555
O10 P1 1.597292 1_555
O11 P3 1.566946 1_555
O12 P2 1.563164 1_555
O13 P4 1.582830 1_555
O14 P3 1.546766 1_555
O15 P3 1.548153 1_555
O16 P1 1.550963 1_456
O17 P3 1.563164 1_555
O18 P5 1.582830 1_555
O19 P0 1.550963 1_545
O20 P4 1.551692 1_555
O21 P4 1.542288 1_555
O22 P5 1.551700 1_555
O23 P5 1.542288 1_555
