# generated using pymatgen
data_Sm3SiAgS7
_symmetry_space_group_name_H-M   'P 1'
_cell_length_a   10.18990647
_cell_length_b   10.18990647
_cell_length_c   5.75705000
_cell_angle_alpha   90.00000000
_cell_angle_beta   90.00000000
_cell_angle_gamma   120.00000305
_symmetry_Int_Tables_number   1
_chemical_formula_structural   Sm3SiAgS7
_chemical_formula_sum   'Sm6 Si2 Ag2 S14'
_cell_volume   517.69147714
_cell_formula_units_Z   2
loop_
 _symmetry_equiv_pos_site_id
 _symmetry_equiv_pos_as_xyz
  1  'x, y, z'
loop_
 _atom_site_type_symbol
 _atom_site_label
 _atom_site_symmetry_multiplicity
 _atom_site_fract_x
 _atom_site_fract_y
 _atom_site_fract_z
 _atom_site_occupancy
  Sm  Sm0  1  0.12656600  0.35996000  0.24356700  1
  Sm  Sm1  1  0.87343400  0.64004000  0.74356700  1
  Sm  Sm2  1  0.64004000  0.76660600  0.24356700  1
  Sm  Sm3  1  0.23339400  0.87343400  0.24356700  1
  Sm  Sm4  1  0.76660600  0.12656600  0.74356700  1
  Sm  Sm5  1  0.35996000  0.23339400  0.74356700  1
  Si  Si0  1  0.33333300  0.66666700  0.65623100  1
  Si  Si1  1  0.66666700  0.33333300  0.15623100  1
  Ag  Ag0  1  0.00000000  0.00000000  0.33927100  1
  Ag  Ag1  1  0.00000000  0.00000000  0.83927100  1
  S  S0  1  0.33333300  0.66666700  0.02405000  1
  S  S1  1  0.66666700  0.33333300  0.52405000  1
  S  S2  1  0.41180800  0.52433200  0.50826100  1
  S  S3  1  0.58819200  0.47566800  0.00826100  1
  S  S4  1  0.47566800  0.88747500  0.50826100  1
  S  S5  1  0.11252500  0.58819200  0.50826100  1
  S  S6  1  0.88747500  0.41180800  0.00826100  1
  S  S7  1  0.52433200  0.11252500  0.00826100  1
  S  S8  1  0.09644400  0.27132000  0.76701400  1
  S  S9  1  0.90355600  0.72868000  0.26701400  1
  S  S10  1  0.72868000  0.82512300  0.76701400  1
  S  S11  1  0.17487700  0.90355600  0.76701400  1
  S  S12  1  0.82512300  0.09644400  0.26701400  1
  S  S13  1  0.27132000  0.17487700  0.26701400  1
loop_
_geom_bond_atom_site_label_1
_geom_bond_atom_site_label_2
_geom_bond_distance
_geom_bond_site_symmetry_2
Ag0 S9 2.462826 1_445
Ag0 S13 2.462827 1_555
Ag0 S12 2.462835 1_455
Ag1 S8 2.462826 1_555
Ag1 S10 2.462827 1_445
Ag1 S11 2.462835 1_545
S0 Si0 2.117552 1_554
S0 Sm3 3.036282 1_555
S0 Sm0 3.036289 1_555
S0 Sm2 3.036291 1_555
S1 Si1 2.117552 1_555
S1 Sm4 3.036282 1_555
S1 Sm1 3.036289 1_555
S1 Sm5 3.036291 1_555
S2 Si0 2.151402 1_555
S2 Sm2 2.843254 1_555
S2 Sm0 2.950840 1_555
S2 Sm5 3.055650 1_555
S3 Si1 2.151402 1_555
S3 Sm5 2.843254 1_554
S3 Sm1 2.950840 1_554
S3 Sm2 3.055650 1_555
S4 Si0 2.151388 1_555
S4 Sm3 2.843258 1_555
S4 Sm2 2.950833 1_555
S4 Sm4 3.055654 1_565
S5 Si0 2.151385 1_555
S5 Sm0 2.843249 1_555
S5 Sm3 2.950841 1_555
S5 Sm1 3.055659 1_455
S6 Si1 2.151385 1_555
S6 Sm1 2.843249 1_554
S6 Sm4 2.950841 1_554
S6 Sm0 3.055659 1_655
S7 Si1 2.151388 1_555
S7 Sm4 2.843258 1_554
S7 Sm5 2.950833 1_554
S7 Sm3 3.055654 1_545
S8 Sm0 2.856539 1_556
S8 Sm5 2.900969 1_555
S8 Sm4 2.921092 1_455
S8 Sm0 3.116737 1_555
S9 Sm1 2.856539 1_555
S9 Sm2 2.900969 1_555
S9 Sm3 2.921092 1_655
S9 Sm1 3.116737 1_554
S10 Sm2 2.856538 1_556
S10 Sm4 2.900979 1_565
S10 Sm1 2.921083 1_555
S10 Sm2 3.116737 1_555
S11 Sm3 2.856536 1_556
S11 Sm1 2.900975 1_455
S11 Sm5 2.921091 1_565
S11 Sm3 3.116735 1_555
S12 Sm4 2.856536 1_555
S12 Sm0 2.900975 1_655
S12 Sm2 2.921091 1_545
S12 Sm4 3.116735 1_554
S13 Sm5 2.856538 1_555
S13 Sm3 2.900979 1_545
S13 Sm0 2.921083 1_555
S13 Sm5 3.116737 1_554
