# generated using pymatgen
data_LiMnP2O7
_symmetry_space_group_name_H-M   'P 1'
_cell_length_a   9.74508500
_cell_length_b   9.82504024
_cell_length_c   11.16766309
_cell_angle_alpha   77.88409814
_cell_angle_beta   89.73506478
_cell_angle_gamma   89.57425374
_symmetry_Int_Tables_number   1
_chemical_formula_structural   LiMnP2O7
_chemical_formula_sum   'Li8 Mn8 P16 O56'
_cell_volume   1045.40573770
_cell_formula_units_Z   8
loop_
 _symmetry_equiv_pos_site_id
 _symmetry_equiv_pos_as_xyz
  1  'x, y, z'
loop_
 _atom_site_type_symbol
 _atom_site_label
 _atom_site_symmetry_multiplicity
 _atom_site_fract_x
 _atom_site_fract_y
 _atom_site_fract_z
 _atom_site_occupancy
  Li  Li0  1  0.10923300  0.91369600  0.02306600  1
  Li  Li1  1  0.59123000  0.58770600  0.97599600  1
  Li  Li2  1  0.92230200  0.65942100  0.46415400  1
  Li  Li3  1  0.04856200  0.37039000  0.50893400  1
  Li  Li4  1  0.11409700  0.35537100  0.04295600  1
  Li  Li5  1  0.89148400  0.09409300  0.97464700  1
  Li  Li6  1  0.58031100  0.15152100  0.46812700  1
  Li  Li7  1  0.28297200  0.10416300  0.54913800  1
  Mn  Mn0  1  0.93200600  0.79689700  0.67366600  1
  Mn  Mn1  1  0.22852300  0.72735200  0.83850200  1
  Mn  Mn2  1  0.71310000  0.77276400  0.16962800  1
  Mn  Mn3  1  0.42302600  0.68897900  0.33783300  1
  Mn  Mn4  1  0.57179700  0.29754000  0.67588800  1
  Mn  Mn5  1  0.28814300  0.24165700  0.82805100  1
  Mn  Mn6  1  0.77267700  0.28368700  0.16406400  1
  Mn  Mn7  1  0.07310700  0.18635400  0.33172600  1
  P  P0  1  0.44714900  0.97729300  0.75337400  1
  P  P1  1  0.71414500  0.88062600  0.88288500  1
  P  P2  1  0.93351700  0.93611400  0.24321300  1
  P  P3  1  0.15448100  0.86453800  0.43049300  1
  P  P4  1  0.64103300  0.61883400  0.57166400  1
  P  P5  1  0.41881500  0.57176200  0.75434000  1
  P  P6  1  0.05362000  0.47685400  0.75507800  1
  P  P7  1  0.21188100  0.61930700  0.11952700  1
  P  P8  1  0.78505200  0.38636500  0.88229600  1
  P  P9  1  0.94091700  0.52856800  0.24465600  1
  P  P10  1  0.56880200  0.43353900  0.24411400  1
  P  P11  1  0.34798700  0.36784000  0.42464600  1
  P  P12  1  0.85682800  0.11730400  0.57732500  1
  P  P13  1  0.07597900  0.06636400  0.75993400  1
  P  P14  1  0.29158000  0.11627700  0.11495100  1
  P  P15  1  0.56327100  0.03151600  0.23972900  1
  O  O0  1  0.42473000  0.98534500  0.62019100  1
  O  O1  1  0.85290600  0.96326400  0.57082400  1
  O  O2  1  0.09154400  0.92054300  0.73297300  1
  O  O3  1  0.34417100  0.89699600  0.84453200  1
  O  O4  1  0.59264500  0.90234800  0.78325400  1
  O  O5  1  0.82807800  0.80916200  0.82039700  1
  O  O6  1  0.65942600  0.77274100  0.99721200  1
  O  O7  1  0.25908400  0.97597500  0.09371400  1
  O  O8  1  0.07470000  0.87075300  0.30129200  1
  O  O9  1  0.93857200  0.94063500  0.10768100  1
  O  O10  1  0.55678600  0.88551300  0.20261600  1
  O  O11  1  0.29229900  0.80204600  0.40966300  1
  O  O12  1  0.81966900  0.83319100  0.30178400  1
  O  O13  1  0.05863500  0.77730200  0.52760300  1
  O  O14  1  0.56316300  0.70271000  0.46169300  1
  O  O15  1  0.30123200  0.67085300  0.69442700  1
  O  O16  1  0.78442800  0.67297200  0.58525600  1
  O  O17  1  0.04452900  0.62648100  0.78651800  1
  O  O18  1  0.55988300  0.63478100  0.69436400  1
  O  O19  1  0.41751800  0.58854300  0.88689300  1
  O  O20  1  0.75022400  0.52427100  0.90987400  1
  O  O21  1  0.16473200  0.73091400  0.00412900  1
  O  O22  1  0.32566200  0.67965000  0.18683900  1
  O  O23  1  0.08310800  0.60855600  0.21303400  1
  O  O24  1  0.57512800  0.58164000  0.27218300  1
  O  O25  1  0.83334500  0.61811900  0.16271400  1
  O  O26  1  0.08340100  0.47640600  0.62470600  1
  O  O27  1  0.33293600  0.51406700  0.44332100  1
  O  O28  1  0.64348700  0.46074700  0.57092600  1
  O  O29  1  0.92699900  0.51065900  0.38107000  1
  O  O30  1  0.15020700  0.38671300  0.85282500  1
  O  O31  1  0.40807600  0.42224800  0.73338800  1
  O  O32  1  0.90722400  0.40381000  0.78274800  1
  O  O33  1  0.67444700  0.31008600  0.82516600  1
  O  O34  1  0.84861600  0.28336900  0.99823300  1
  O  O35  1  0.23536800  0.48140700  0.08789400  1
  O  O36  1  0.58498700  0.42997100  0.11063500  1
  O  O37  1  0.42398800  0.36858500  0.29512500  1
  O  O38  1  0.94769400  0.38521300  0.20182800  1
  O  O39  1  0.20621800  0.30054000  0.41191700  1
  O  O40  1  0.68086100  0.32965700  0.31053200  1
  O  O41  1  0.43403400  0.27006800  0.52327200  1
  O  O42  1  0.94624400  0.20541700  0.47408100  1
  O  O43  1  0.18910500  0.16843700  0.69474200  1
  O  O44  1  0.71424000  0.17660900  0.58753700  1
  O  O45  1  0.45683700  0.13259300  0.78264300  1
  O  O46  1  0.07145300  0.07607800  0.89313600  1
  O  O47  1  0.93244300  0.13151900  0.70248300  1
  O  O48  1  0.74639200  0.01721100  0.91193400  1
  O  O49  1  0.33584900  0.22528400  0.99938100  1
  O  O50  1  0.17290200  0.19014500  0.17538000  1
  O  O51  1  0.41425700  0.10458300  0.21113800  1
  O  O52  1  0.66419200  0.12208000  0.14978300  1
  O  O53  1  0.92046200  0.08327500  0.27487000  1
  O  O54  1  0.16838200  0.01507300  0.44485800  1
  O  O55  1  0.58618100  0.02364100  0.37217800  1
loop_
_geom_bond_atom_site_label_1
_geom_bond_atom_site_label_2
_geom_bond_distance
_geom_bond_site_symmetry_2
Li0 O7 1.831936 1_555
Li0 O21 1.925153 1_555
Li0 O46 1.952117 1_564
Li0 O9 1.952645 1_455
Li1 O20 1.871537 1_555
Li1 O36 1.920582 1_556
Li1 O19 1.966691 1_555
Li1 O6 2.000766 1_555
Li2 O29 1.888692 1_555
Li2 O16 1.925656 1_555
Li2 O13 1.996162 1_655
Li2 O12 2.427974 1_555
Li3 O26 1.856462 1_555
Li3 O42 2.016271 1_455
Li3 O39 2.070350 1_555
Li3 O29 2.122964 1_455
Li4 O35 1.862797 1_555
Li4 O50 2.033950 1_555
Li4 O30 2.108878 1_554
Li4 O38 2.459304 1_455
Li5 O48 1.818625 1_555
Li5 O9 1.935659 1_546
Li5 O34 1.973634 1_555
Li5 O46 1.996013 1_655
Li6 O55 1.814817 1_555
Li6 O44 1.923886 1_555
Li6 O41 2.009020 1_555
Li6 O40 2.416051 1_555
Li6 O0 2.587922 1_545
Li7 O0 1.870333 1_545
Li7 O54 1.955463 1_555
Li7 O43 2.070823 1_555
Li7 O41 2.177523 1_555
Li7 O39 2.319149 1_555
Mn0 O1 1.945881 1_555
Mn0 O5 1.947084 1_555
Mn0 O13 2.080933 1_655
Mn0 O17 2.166534 1_655
Mn0 O2 2.169550 1_655
Mn0 O16 2.251532 1_555
Mn1 O15 1.938441 1_555
Mn1 O21 1.955800 1_556
Mn1 O3 2.031867 1_555
Mn1 O17 2.193574 1_555
Mn1 O19 2.281803 1_555
Mn1 O2 2.410698 1_555
Mn2 O25 1.926027 1_555
Mn2 O10 1.955588 1_555
Mn2 O6 1.997643 1_554
Mn2 O12 2.000093 1_555
Mn2 O24 2.401279 1_555
Mn2 O9 2.754563 1_555
Mn3 O22 1.957823 1_555
Mn3 O11 1.960634 1_555
Mn3 O14 1.973588 1_555
Mn3 O24 2.034224 1_555
Mn3 O27 2.067582 1_555
Mn3 O10 2.550130 1_555
Mn4 O28 1.911386 1_555
Mn4 O33 1.974476 1_555
Mn4 O45 2.122820 1_555
Mn4 O31 2.179656 1_555
Mn4 O44 2.183356 1_555
Mn4 O41 2.236002 1_555
Mn5 O49 1.944440 1_555
Mn5 O30 2.012005 1_555
Mn5 O43 2.034347 1_555
Mn5 O45 2.074159 1_555
Mn5 O31 2.205396 1_555
Mn5 O46 2.678518 1_555
Mn6 O52 1.948589 1_555
Mn6 O34 1.991752 1_554
Mn6 O40 1.992660 1_555
Mn6 O38 2.071306 1_555
Mn6 O36 2.319090 1_555
Mn6 O53 2.536546 1_555
Mn7 O53 1.985615 1_455
Mn7 O50 1.988287 1_555
Mn7 O42 2.047986 1_455
Mn7 O39 2.048759 1_555
Mn7 O54 2.094123 1_555
Mn7 O38 2.491293 1_455
O0 P0 1.489810 1_555
O1 P12 1.531101 1_565
O2 P13 1.530919 1_565
O3 P0 1.526765 1_555
O4 P0 1.596752 1_555
O4 P1 1.610651 1_555
O5 P1 1.549082 1_555
O6 P1 1.572266 1_555
O7 P14 1.483624 1_565
O8 P2 1.595710 1_455
O8 P3 1.631796 1_555
O9 P2 1.505467 1_555
O10 P15 1.576290 1_565
O11 P3 1.509862 1_555
O12 P2 1.553583 1_555
O13 P3 1.547735 1_555
O14 P4 1.528961 1_555
O15 P5 1.557426 1_555
O16 P4 1.518415 1_555
O17 P6 1.583272 1_555
O18 P5 1.597462 1_555
O18 P4 1.614262 1_555
O19 P5 1.523451 1_555
O20 P8 1.487702 1_555
O21 P7 1.574520 1_555
O22 P7 1.533163 1_555
O23 P9 1.599233 1_455
O23 P7 1.618628 1_555
O24 P10 1.553176 1_555
O25 P9 1.538714 1_555
O26 P6 1.484184 1_555
O27 P11 1.500480 1_555
O28 P4 1.554968 1_555
O29 P9 1.502032 1_555
O30 P6 1.566267 1_555
O31 P5 1.539612 1_555
O32 P6 1.601211 1_655
O32 P8 1.610457 1_555
O33 P8 1.532833 1_555
O34 P8 1.591287 1_555
O35 P7 1.486078 1_555
O36 P10 1.505928 1_555
O37 P10 1.605207 1_555
O37 P11 1.620658 1_555
O38 P9 1.580512 1_555
O39 P11 1.555943 1_555
O40 P10 1.567653 1_555
O41 P11 1.546440 1_555
O42 P12 1.555971 1_555
O43 P13 1.566411 1_555
O44 P12 1.515820 1_555
O45 P0 1.629631 1_545
O46 P13 1.510895 1_555
O47 P13 1.612630 1_655
O47 P12 1.615276 1_555
O48 P1 1.481482 1_545
O49 P14 1.555757 1_556
O50 P14 1.582911 1_555
O51 P14 1.598222 1_555
O51 P15 1.618220 1_555
O52 P15 1.548110 1_555
O53 P2 1.563048 1_545
O54 P3 1.527856 1_545
O55 P15 1.482720 1_555
