# generated using pymatgen
data_Ti7(WO5)6
_symmetry_space_group_name_H-M   'P 1'
_cell_length_a   5.23598473
_cell_length_b   5.23598473
_cell_length_c   23.46266500
_cell_angle_alpha   90.00000000
_cell_angle_beta   90.00000000
_cell_angle_gamma   120.00000922
_symmetry_Int_Tables_number   1
_chemical_formula_structural   Ti7(WO5)6
_chemical_formula_sum   'Ti7 W6 O30'
_cell_volume   557.06346180
_cell_formula_units_Z   1
loop_
 _symmetry_equiv_pos_site_id
 _symmetry_equiv_pos_as_xyz
  1  'x, y, z'
loop_
 _atom_site_type_symbol
 _atom_site_label
 _atom_site_symmetry_multiplicity
 _atom_site_fract_x
 _atom_site_fract_y
 _atom_site_fract_z
 _atom_site_occupancy
  Ti  Ti0  1  0.00000000  0.00000000  0.28286200  1
  Ti  Ti1  1  0.00000000  0.00000000  0.01299500  1
  Ti  Ti2  1  0.00000000  0.00000000  0.89134400  1
  Ti  Ti3  1  0.66666700  0.33333300  0.98240800  1
  Ti  Ti4  1  0.66666700  0.33333300  0.71942100  1
  Ti  Ti5  1  0.00000000  0.00000000  0.69298500  1
  Ti  Ti6  1  0.66666700  0.33333300  0.30843900  1
  W  W0  1  0.00000000  0.00000000  0.40729500  1
  W  W1  1  0.66666700  0.33333300  0.11078400  1
  W  W2  1  0.66666700  0.33333300  0.59391000  1
  W  W3  1  0.33333300  0.66666700  0.20315600  1
  W  W4  1  0.33333300  0.66666700  0.50046800  1
  W  W5  1  0.33333300  0.66666700  0.80412500  1
  O  O0  1  0.60593900  0.60821200  0.15038400  1
  O  O1  1  0.42271400  0.00039700  0.55048300  1
  O  O2  1  0.76318700  0.68006100  0.34798200  1
  O  O3  1  0.64526100  0.65826600  0.74791700  1
  O  O4  1  0.31125400  0.07353700  0.94795900  1
  O  O5  1  0.66346500  0.93281500  0.84480700  1
  O  O6  1  0.66516800  0.90912500  0.45085000  1
  O  O7  1  0.34798000  0.24943000  0.65389100  1
  O  O8  1  0.66328300  0.99193200  0.25364600  1
  O  O9  1  0.90624900  0.64573200  0.04870300  1
  O  O10  1  0.73948300  0.09375100  0.04870300  1
  O  O11  1  0.26935000  0.33653500  0.84480700  1
  O  O12  1  0.75057000  0.09855000  0.65389100  1
  O  O13  1  0.32864900  0.33671700  0.25364600  1
  O  O14  1  0.09087500  0.75604300  0.45085000  1
  O  O15  1  0.57768400  0.57728600  0.55048300  1
  O  O16  1  0.34173400  0.98699500  0.74791700  1
  O  O17  1  0.91687500  0.23681300  0.34798200  1
  O  O18  1  0.39178800  0.99772700  0.15038400  1
  O  O19  1  0.92646300  0.23771700  0.94795900  1
  O  O20  1  0.76228300  0.68874600  0.94795900  1
  O  O21  1  0.01300500  0.35473900  0.74791700  1
  O  O22  1  0.31993900  0.08312500  0.34798200  1
  O  O23  1  0.99960300  0.42231600  0.55048300  1
  O  O24  1  0.00227300  0.39406100  0.15038400  1
  O  O25  1  0.35426800  0.26051700  0.04870300  1
  O  O26  1  0.00806800  0.67135100  0.25364600  1
  O  O27  1  0.90145000  0.65202000  0.65389100  1
  O  O28  1  0.24395700  0.33483200  0.45085000  1
  O  O29  1  0.06718500  0.73065000  0.84480700  1
loop_
_geom_bond_atom_site_label_1
_geom_bond_atom_site_label_2
_geom_bond_distance
_geom_bond_site_symmetry_2
O0 W1 1.869088 1_555
O0 W3 2.025087 1_555
O1 W2 1.866003 1_555
O1 W4 1.957481 1_545
O2 Ti6 1.869385 1_555
O2 W0 2.050186 1_665
O2 Ti0 2.145004 1_665
O3 Ti4 1.882774 1_555
O3 W5 2.116717 1_555
O3 Ti5 2.233665 1_665
O4 Ti3 1.853470 1_555
O4 Ti2 1.985252 1_555
O4 Ti1 2.122538 1_556
O5 W5 1.852609 1_555
O5 Ti2 1.949630 1_665
O6 W0 1.873538 1_665
O6 W4 1.944233 1_555
O7 Ti5 1.867401 1_555
O7 W2 2.055440 1_555
O7 Ti4 2.146679 1_555
O8 Ti0 1.872305 1_665
O8 W3 2.084758 1_555
O8 Ti6 2.194719 1_565
O9 Ti1 1.863635 1_665
O9 W1 2.078203 1_555
O9 Ti3 2.148659 1_554
O10 Ti1 1.863635 1_655
O10 W1 2.078201 1_555
O10 Ti3 2.148656 1_554
O11 W5 1.852611 1_555
O11 Ti2 1.949629 1_555
O12 Ti5 1.867401 1_655
O12 W2 2.055436 1_555
O12 Ti4 2.146676 1_555
O13 Ti0 1.872304 1_555
O13 W3 2.084761 1_555
O13 Ti6 2.194723 1_555
O14 W0 1.873538 1_565
O14 W4 1.944230 1_555
O15 W2 1.866004 1_555
O15 W4 1.957489 1_555
O16 Ti4 1.882771 1_565
O16 W5 2.116713 1_555
O16 Ti5 2.233665 1_565
O17 Ti6 1.869385 1_555
O17 W0 2.050183 1_655
O17 Ti0 2.145001 1_655
O18 W1 1.869085 1_565
O18 W3 2.025083 1_555
O19 Ti3 1.853467 1_555
O19 Ti2 1.985252 1_655
O19 Ti1 2.122538 1_656
O20 Ti3 1.853472 1_555
O20 Ti2 1.985252 1_665
O20 Ti1 2.122537 1_666
O21 Ti4 1.882769 1_455
O21 W5 2.116714 1_555
O21 Ti5 2.233665 1_555
O22 Ti6 1.869385 1_555
O22 W0 2.050187 1_555
O22 Ti0 2.145005 1_555
O23 W2 1.866004 1_555
O23 W4 1.957483 1_655
O24 W1 1.869084 1_455
O24 W3 2.025084 1_555
O25 Ti1 1.863635 1_555
O25 W1 2.078204 1_555
O25 Ti3 2.148660 1_554
O26 Ti0 1.872305 1_565
O26 W3 2.084756 1_555
O26 Ti6 2.194721 1_455
O27 Ti5 1.867401 1_665
O27 W2 2.055439 1_555
O27 Ti4 2.146678 1_555
O28 W0 1.873538 1_555
O28 W4 1.944234 1_555
O29 W5 1.852607 1_555
O29 Ti2 1.949630 1_565
