# generated using pymatgen
data_Ti2TcPd
_symmetry_space_group_name_H-M   'P 1'
_cell_length_a   4.40398315
_cell_length_b   4.40398315
_cell_length_c   4.40398315
_cell_angle_alpha   60.00000000
_cell_angle_beta   60.00000000
_cell_angle_gamma   60.00000000
_symmetry_Int_Tables_number   1
_chemical_formula_structural   Ti2TcPd
_chemical_formula_sum   'Ti2 Tc1 Pd1'
_cell_volume   60.39791524
_cell_formula_units_Z   1
loop_
 _symmetry_equiv_pos_site_id
 _symmetry_equiv_pos_as_xyz
  1  'x, y, z'
loop_
 _atom_site_type_symbol
 _atom_site_label
 _atom_site_symmetry_multiplicity
 _atom_site_fract_x
 _atom_site_fract_y
 _atom_site_fract_z
 _atom_site_occupancy
  Ti  Ti0  1  -0.00000000  -0.00000000  -0.00000000  1
  Ti  Ti1  1  0.50000000  0.50000000  0.50000000  1
  Tc  Tc0  1  0.74999900  0.74999900  0.74999900  1
  Pd  Pd0  1  0.25000000  0.25000000  0.25000000  1
loop_
_geom_bond_atom_site_label_1
_geom_bond_atom_site_label_2
_geom_bond_distance
_geom_bond_site_symmetry_2
Tc0 Ti1 2.696867 1_555
Tc0 Ti0 2.696874 1_566
Tc0 Ti0 2.696874 1_665
Tc0 Ti0 2.696874 1_656
Tc0 Ti1 2.696881 1_556
Tc0 Ti1 2.696881 1_565
Tc0 Ti1 2.696881 1_655
Tc0 Ti0 2.696889 1_666
Pd0 Ti0 2.696878 1_556
Pd0 Ti0 2.696878 1_555
Pd0 Ti0 2.696878 1_655
Pd0 Ti1 2.696878 1_455
Pd0 Ti1 2.696878 1_545
Pd0 Ti0 2.696878 1_565
Pd0 Ti1 2.696878 1_555
Pd0 Ti1 2.696878 1_554
