# generated using pymatgen
data_K2HfF6
_symmetry_space_group_name_H-M   'P 1'
_cell_length_a   6.52044834
_cell_length_b   6.52044834
_cell_length_c   3.50025000
_cell_angle_alpha   90.00000000
_cell_angle_beta   90.00000000
_cell_angle_gamma   120.00000341
_symmetry_Int_Tables_number   1
_chemical_formula_structural   K2HfF6
_chemical_formula_sum   'K2 Hf1 F6'
_cell_volume   128.87972402
_cell_formula_units_Z   1
loop_
 _symmetry_equiv_pos_site_id
 _symmetry_equiv_pos_as_xyz
  1  'x, y, z'
loop_
 _atom_site_type_symbol
 _atom_site_label
 _atom_site_symmetry_multiplicity
 _atom_site_fract_x
 _atom_site_fract_y
 _atom_site_fract_z
 _atom_site_occupancy
  K  K0  1  0.66666700  0.33333300  0.50000000  1
  K  K1  1  0.33333300  0.66666700  0.50000000  1
  Hf  Hf0  1  0.00000000  0.00000000  0.00000000  1
  F  F0  1  0.00000000  0.21636100  0.50000000  1
  F  F1  1  0.78363900  0.78363900  0.50000000  1
  F  F2  1  0.21636100  0.00000000  0.50000000  1
  F  F3  1  0.68180500  0.00000000  0.00000000  1
  F  F4  1  0.31819500  0.31819500  0.00000000  1
  F  F5  1  0.00000000  0.68180500  0.00000000  1
loop_
_geom_bond_atom_site_label_1
_geom_bond_atom_site_label_2
_geom_bond_distance
_geom_bond_site_symmetry_2
F0 Hf0 2.247935 1_556
F0 Hf0 2.247935 1_555
F0 K0 2.638841 1_455
F0 K1 2.638845 1_555
F1 Hf0 2.247935 1_666
F1 Hf0 2.247935 1_665
F1 K1 2.638847 1_555
F1 K0 2.638847 1_555
F2 Hf0 2.247935 1_556
F2 Hf0 2.247935 1_555
F2 K1 2.638841 1_545
F2 K0 2.638845 1_555
F3 Hf0 2.074774 1_655
F3 K0 2.830413 1_554
F3 K0 2.830413 1_555
F3 K1 2.830415 1_544
F3 K1 2.830415 1_545
F4 Hf0 2.074774 1_555
F4 K0 2.830418 1_554
F4 K0 2.830418 1_555
F4 K1 2.830418 1_555
F4 K1 2.830418 1_554
F5 Hf0 2.074774 1_565
F5 K1 2.830413 1_555
F5 K1 2.830413 1_554
F5 K0 2.830415 1_455
F5 K0 2.830415 1_454
