# generated using pymatgen
data_PaZnPt2
_symmetry_space_group_name_H-M   'P 1'
_cell_length_a   4.72637515
_cell_length_b   4.72637515
_cell_length_c   4.72637515
_cell_angle_alpha   60.00000000
_cell_angle_beta   60.00000000
_cell_angle_gamma   60.00000000
_symmetry_Int_Tables_number   1
_chemical_formula_structural   PaZnPt2
_chemical_formula_sum   'Pa1 Zn1 Pt2'
_cell_volume   74.65683479
_cell_formula_units_Z   1
loop_
 _symmetry_equiv_pos_site_id
 _symmetry_equiv_pos_as_xyz
  1  'x, y, z'
loop_
 _atom_site_type_symbol
 _atom_site_label
 _atom_site_symmetry_multiplicity
 _atom_site_fract_x
 _atom_site_fract_y
 _atom_site_fract_z
 _atom_site_occupancy
  Pa  Pa0  1  0.25000000  0.25000000  0.25000000  1
  Zn  Zn0  1  0.74999900  0.74999900  0.74999900  1
  Pt  Pt0  1  -0.00000000  0.00000000  0.00000000  1
  Pt  Pt1  1  0.49999900  0.49999900  0.49999900  1
loop_
_geom_bond_atom_site_label_1
_geom_bond_atom_site_label_2
_geom_bond_distance
_geom_bond_site_symmetry_2
Pa0 Pt1 2.894290 1_555
Pa0 Pt0 2.894302 1_555
Pa0 Pt0 2.894302 1_556
Pa0 Pt0 2.894302 1_565
Pa0 Pt0 2.894302 1_655
Pa0 Pt1 2.894306 1_545
Pa0 Pt1 2.894306 1_554
Pa0 Pt1 2.894306 1_455
Pt0 Zn0 2.894298 1_445
Pt0 Zn0 2.894298 1_454
Pt0 Zn0 2.894298 1_544
Pt0 Zn0 2.894313 1_444
Pt1 Zn0 2.894302 1_555
Pt1 Zn0 2.894302 1_554
Pt1 Zn0 2.894302 1_455
Pt1 Zn0 2.894302 1_545
