# generated using pymatgen
data_PaGaCu2
_symmetry_space_group_name_H-M   'P 1'
_cell_length_a   4.55754620
_cell_length_b   4.55777722
_cell_length_c   4.55737969
_cell_angle_alpha   59.99969958
_cell_angle_beta   60.00015671
_cell_angle_gamma   60.00013220
_symmetry_Int_Tables_number   1
_chemical_formula_structural   PaGaCu2
_chemical_formula_sum   'Pa1 Ga1 Cu2'
_cell_volume   66.93979085
_cell_formula_units_Z   1
loop_
 _symmetry_equiv_pos_site_id
 _symmetry_equiv_pos_as_xyz
  1  'x, y, z'
loop_
 _atom_site_type_symbol
 _atom_site_label
 _atom_site_symmetry_multiplicity
 _atom_site_fract_x
 _atom_site_fract_y
 _atom_site_fract_z
 _atom_site_occupancy
  Pa  Pa0  1  0.75000134  0.75000158  0.74999763  1
  Ga  Ga0  1  0.24999709  0.25000221  0.24999921  1
  Cu  Cu0  1  0.50001058  0.49996694  0.50002725  1
  Cu  Cu1  1  0.99999199  0.00003028  0.99997491  1
loop_
_geom_bond_atom_site_label_1
_geom_bond_atom_site_label_2
_geom_bond_distance
_geom_bond_site_symmetry_2
Ga0 Pa0 3.222596 1_454
Ga0 Pa0 3.222614 1_545
Ga0 Pa0 3.222702 1_455
Ga0 Pa0 3.222716 1_544
Ga0 Pa0 3.222735 1_445
Ga0 Pa0 3.222758 1_554
Cu0 Ga0 2.790705 1_556
Cu0 Ga0 2.790874 1_655
Cu0 Pa0 2.790913 1_555
Cu0 Pa0 2.790920 1_554
Cu0 Pa0 2.790924 1_545
Cu0 Ga0 2.790952 1_555
Cu0 Pa0 2.790958 1_455
Cu0 Ga0 2.791184 1_565
Cu1 Ga0 2.790719 1_655
Cu1 Pa0 2.790894 1_546
Cu1 Ga0 2.790905 1_556
Cu1 Pa0 2.790916 1_545
Cu1 Ga0 2.790934 1_656
Cu1 Pa0 2.790946 1_555
Cu1 Pa0 2.790959 1_645
Cu1 Ga0 2.791157 1_646
