# generated using pymatgen
data_AcMgCd2
_symmetry_space_group_name_H-M   'P 1'
_cell_length_a   5.39411966
_cell_length_b   5.39411966
_cell_length_c   5.39411966
_cell_angle_alpha   60.00000000
_cell_angle_beta   60.00000000
_cell_angle_gamma   60.00000000
_symmetry_Int_Tables_number   1
_chemical_formula_structural   AcMgCd2
_chemical_formula_sum   'Ac1 Mg1 Cd2'
_cell_volume   110.98051382
_cell_formula_units_Z   1
loop_
 _symmetry_equiv_pos_site_id
 _symmetry_equiv_pos_as_xyz
  1  'x, y, z'
loop_
 _atom_site_type_symbol
 _atom_site_label
 _atom_site_symmetry_multiplicity
 _atom_site_fract_x
 _atom_site_fract_y
 _atom_site_fract_z
 _atom_site_occupancy
  Ac  Ac0  1  0.25000000  0.25000000  0.25000000  1
  Mg  Mg0  1  0.75000000  0.75000000  0.75000000  1
  Cd  Cd0  1  0.50000100  0.50000100  0.50000100  1
  Cd  Cd1  1  -0.00000000  0.00000000  -0.00000000  1
loop_
_geom_bond_atom_site_label_1
_geom_bond_atom_site_label_2
_geom_bond_distance
_geom_bond_site_symmetry_2
Ac0 Cd0 3.303206 1_455
Ac0 Cd0 3.303206 1_545
Ac0 Cd0 3.303206 1_554
Ac0 Cd1 3.303210 1_565
Ac0 Cd1 3.303210 1_556
Ac0 Cd1 3.303210 1_555
Ac0 Cd1 3.303210 1_655
Ac0 Cd0 3.303223 1_555
Cd0 Mg0 3.303197 1_555
Cd0 Mg0 3.303215 1_545
Cd0 Mg0 3.303215 1_554
Cd0 Mg0 3.303215 1_455
Cd1 Mg0 3.303210 1_444
Cd1 Mg0 3.303210 1_445
Cd1 Mg0 3.303210 1_454
Cd1 Mg0 3.303210 1_544
