# generated using pymatgen
data_ErSnRh2
_symmetry_space_group_name_H-M   'P 1'
_cell_length_a   4.64452975
_cell_length_b   4.64545156
_cell_length_c   4.64929171
_cell_angle_alpha   59.96038329
_cell_angle_beta   59.96588129
_cell_angle_gamma   60.05532413
_symmetry_Int_Tables_number   1
_chemical_formula_structural   ErSnRh2
_chemical_formula_sum   'Er1 Sn1 Rh2'
_cell_volume   70.92188912
_cell_formula_units_Z   1
loop_
 _symmetry_equiv_pos_site_id
 _symmetry_equiv_pos_as_xyz
  1  'x, y, z'
loop_
 _atom_site_type_symbol
 _atom_site_label
 _atom_site_symmetry_multiplicity
 _atom_site_fract_x
 _atom_site_fract_y
 _atom_site_fract_z
 _atom_site_occupancy
  Er  Er0  1  0.24999988  0.24999948  0.25000048  1
  Sn  Sn0  1  0.75000094  0.75000004  0.74999993  1
  Rh  Rh0  1  0.99999420  0.99994893  0.99998100  1
  Rh  Rh1  1  0.50000698  0.50005255  0.50001960  1
loop_
_geom_bond_atom_site_label_1
_geom_bond_atom_site_label_2
_geom_bond_distance
_geom_bond_site_symmetry_2
Er0 Rh1 2.844896 1_455
Er0 Rh0 2.844901 1_544
Er0 Rh0 2.845043 1_445
Er0 Rh1 2.845044 1_554
Er0 Rh1 2.845127 1_545
Er0 Rh0 2.845137 1_454
Er0 Rh0 2.845762 1_444
Er0 Rh1 2.845775 1_555
Er0 Sn0 3.281293 1_445
Er0 Sn0 3.281304 1_554
Er0 Sn0 3.287097 1_454
Er0 Sn0 3.287100 1_545
Er0 Sn0 3.287698 1_544
Er0 Sn0 3.287698 1_455
Rh0 Sn0 2.844947 1_655
Rh0 Sn0 2.845183 1_555
Rh0 Sn0 2.845189 1_556
Rh0 Sn0 2.845522 1_565
Rh1 Sn0 2.844945 1_455
Rh1 Sn0 2.845178 1_555
Rh1 Sn0 2.845192 1_554
Rh1 Sn0 2.845528 1_545
