# generated using pymatgen
data_Li3Mn(PO4)2
_symmetry_space_group_name_H-M   'P 1'
_cell_length_a   7.25628000
_cell_length_b   8.39271257
_cell_length_c   8.57678018
_cell_angle_alpha   118.91104352
_cell_angle_beta   95.47161249
_cell_angle_gamma   91.89678359
_symmetry_Int_Tables_number   1
_chemical_formula_structural   Li3Mn(PO4)2
_chemical_formula_sum   'Li9 Mn3 P6 O24'
_cell_volume   453.26110698
_cell_formula_units_Z   3
loop_
 _symmetry_equiv_pos_site_id
 _symmetry_equiv_pos_as_xyz
  1  'x, y, z'
loop_
 _atom_site_type_symbol
 _atom_site_label
 _atom_site_symmetry_multiplicity
 _atom_site_fract_x
 _atom_site_fract_y
 _atom_site_fract_z
 _atom_site_occupancy
  Li  Li0  1  0.29745100  0.69500700  0.03317200  1
  Li  Li1  1  0.31951000  0.35463700  0.32016800  1
  Li  Li2  1  0.50000000  0.00000000  0.00000000  1
  Li  Li3  1  0.51836800  0.32431800  0.67593400  1
  Li  Li4  1  0.64487800  0.03591600  0.33877200  1
  Li  Li5  1  0.35512200  0.96408400  0.66122800  1
  Li  Li6  1  0.48163200  0.67568200  0.32406600  1
  Li  Li7  1  0.68049000  0.64536300  0.67983200  1
  Li  Li8  1  0.70254900  0.30499300  0.96682800  1
  Mn  Mn0  1  0.00000000  0.00000000  0.00000000  1
  Mn  Mn1  1  0.95327100  0.33256300  0.65466900  1
  Mn  Mn2  1  0.04672900  0.66743700  0.34533100  1
  P  P0  1  0.26309500  0.64077700  0.68356200  1
  P  P1  1  0.21972000  0.03088500  0.34902100  1
  P  P2  1  0.24917700  0.30771100  0.96086300  1
  P  P3  1  0.75082300  0.69228900  0.03913700  1
  P  P4  1  0.78028000  0.96911500  0.65097900  1
  P  P5  1  0.73690500  0.35922300  0.31643800  1
  O  O0  1  0.80853200  0.79909300  0.93799900  1
  O  O1  1  0.44052200  0.55202900  0.69653800  1
  O  O2  1  0.10331600  0.56628500  0.74777700  1
  O  O3  1  0.72595600  0.48908500  0.89611500  1
  O  O4  1  0.78065600  0.40922000  0.51930000  1
  O  O5  1  0.71212800  0.15077800  0.19393900  1
  O  O6  1  0.09013600  0.26756400  0.81099600  1
  O  O7  1  0.06016300  0.14728200  0.42230000  1
  O  O8  1  0.18247000  0.93076300  0.13691400  1
  O  O9  1  0.40672500  0.14908100  0.41129100  1
  O  O10  1  0.42536000  0.22962400  0.87045300  1
  O  O11  1  0.75587400  0.12516100  0.59939100  1
  O  O12  1  0.24412600  0.87483900  0.40060900  1
  O  O13  1  0.57464000  0.77037600  0.12954700  1
  O  O14  1  0.59327500  0.85091900  0.58870900  1
  O  O15  1  0.81753000  0.06923700  0.86308600  1
  O  O16  1  0.93983700  0.85271800  0.57770000  1
  O  O17  1  0.90986400  0.73243600  0.18900400  1
  O  O18  1  0.28787200  0.84922200  0.80606100  1
  O  O19  1  0.21934400  0.59078000  0.48070000  1
  O  O20  1  0.27404400  0.51091500  0.10388500  1
  O  O21  1  0.89668400  0.43371500  0.25222300  1
  O  O22  1  0.55947800  0.44797100  0.30346200  1
  O  O23  1  0.19146800  0.20090700  0.06200100  1
loop_
_geom_bond_atom_site_label_1
_geom_bond_atom_site_label_2
_geom_bond_distance
_geom_bond_site_symmetry_2
Li0 O20 1.921485 1_555
Li0 O8 1.987810 1_555
Li0 O13 2.054776 1_555
Li0 O2 2.414108 1_554
Li1 O22 1.931833 1_555
Li1 O19 1.999904 1_555
Li1 O23 2.048605 1_555
Li1 O9 2.295464 1_555
Li2 O18 2.021142 1_544
Li2 O5 2.021142 1_555
Li3 O1 1.940777 1_555
Li3 O9 2.077005 1_555
Li3 O3 2.131222 1_555
Li3 O10 2.309049 1_555
Li3 O11 2.353805 1_555
Li4 O5 1.988167 1_555
Li4 O9 2.004420 1_555
Li4 O11 2.050381 1_555
Li4 O13 2.080902 1_545
Li5 O18 1.988167 1_555
Li5 O14 2.004420 1_555
Li5 O12 2.050381 1_555
Li5 O10 2.080902 1_565
Li6 O22 1.940777 1_555
Li6 O14 2.077005 1_555
Li6 O20 2.131222 1_555
Li6 O13 2.309049 1_555
Li6 O12 2.353805 1_555
Li7 O1 1.931833 1_555
Li7 O4 1.999904 1_555
Li7 O0 2.048605 1_555
Li7 O14 2.295464 1_555
Li8 O3 1.921485 1_555
Li8 O15 1.987810 1_555
Li8 O10 2.054776 1_555
Li8 O21 2.414108 1_556
Mn0 O15 1.970764 1_454
Mn0 O8 1.970764 1_545
Mn0 O0 1.973128 1_444
Mn0 O23 1.973128 1_555
Mn1 O6 1.889639 1_655
Mn1 O4 1.956788 1_555
Mn1 O2 1.961905 1_655
Mn1 O11 2.052770 1_555
Mn1 O7 2.090394 1_655
Mn1 O3 2.626645 1_555
Mn2 O17 1.889639 1_455
Mn2 O19 1.956788 1_555
Mn2 O21 1.961905 1_455
Mn2 O12 2.052770 1_555
Mn2 O16 2.090394 1_455
Mn2 O20 2.626645 1_555
O0 P3 1.589821 1_556
O1 P0 1.530041 1_555
O2 P0 1.563691 1_555
O3 P3 1.536370 1_556
O4 P5 1.576086 1_555
O5 P5 1.537081 1_555
O6 P2 1.539530 1_555
O7 P1 1.519798 1_555
O8 P1 1.581693 1_565
O9 P1 1.539817 1_555
O10 P2 1.555097 1_555
O11 P4 1.582091 1_545
O12 P1 1.582091 1_565
O13 P3 1.555097 1_555
O14 P4 1.539817 1_555
O15 P4 1.581693 1_545
O16 P4 1.519798 1_555
O17 P3 1.539530 1_555
O18 P0 1.537081 1_555
O19 P0 1.576086 1_555
O20 P2 1.536370 1_554
O21 P5 1.563691 1_555
O22 P5 1.530041 1_555
O23 P2 1.589821 1_554
