# generated using pymatgen
data_PaGa3
_symmetry_space_group_name_H-M   'P 1'
_cell_length_a   4.27257520
_cell_length_b   4.27246621
_cell_length_c   4.27254638
_cell_angle_alpha   90.00010916
_cell_angle_beta   89.99978141
_cell_angle_gamma   90.00010916
_symmetry_Int_Tables_number   1
_chemical_formula_structural   PaGa3
_chemical_formula_sum   'Pa1 Ga3'
_cell_volume   77.99291237
_cell_formula_units_Z   1
loop_
 _symmetry_equiv_pos_site_id
 _symmetry_equiv_pos_as_xyz
  1  'x, y, z'
loop_
 _atom_site_type_symbol
 _atom_site_label
 _atom_site_symmetry_multiplicity
 _atom_site_fract_x
 _atom_site_fract_y
 _atom_site_fract_z
 _atom_site_occupancy
  Pa  Pa0  1  0.99999900  0.00000100  0.00000000  1
  Ga  Ga0  1  0.50000000  -0.00000000  0.50000000  1
  Ga  Ga1  1  -0.00000000  0.50000000  0.50000000  1
  Ga  Ga2  1  0.50000100  0.49999900  0.00000100  1
loop_
_geom_bond_atom_site_label_1
_geom_bond_atom_site_label_2
_geom_bond_distance
_geom_bond_site_symmetry_2
Ga0 Ga2 3.021115 1_555
Ga0 Ga2 3.021115 1_545
Ga0 Ga2 3.021115 1_556
Ga0 Ga1 3.021125 1_545
Ga0 Ga1 3.021125 1_655
Ga0 Ga2 3.021127 1_546
Ga0 Ga1 3.021131 1_555
Ga0 Ga1 3.021131 1_645
Ga0 Pa0 3.021148 1_555
Ga0 Pa0 3.021154 1_456
Ga0 Pa0 3.021159 1_556
Ga0 Pa0 3.021165 1_455
Ga1 Pa0 3.021112 1_455
Ga1 Pa0 3.021118 1_456
Ga1 Pa0 3.021118 1_466
Ga1 Pa0 3.021124 1_465
Ga1 Ga2 3.021151 1_456
Ga1 Ga2 3.021151 1_555
Ga1 Ga2 3.021156 1_455
Ga1 Ga2 3.021169 1_556
Ga2 Pa0 3.021119 1_555
Ga2 Pa0 3.021125 1_565
Ga2 Pa0 3.021125 1_455
Ga2 Pa0 3.021143 1_465
