# generated using pymatgen
data_LiNi(PO3)3
_symmetry_space_group_name_H-M   'P 1'
_cell_length_a   8.10985300
_cell_length_b   9.04429700
_cell_length_c   12.31996300
_cell_angle_alpha   90.00000000
_cell_angle_beta   90.00000000
_cell_angle_gamma   90.00000000
_symmetry_Int_Tables_number   1
_chemical_formula_structural   LiNi(PO3)3
_chemical_formula_sum   'Li4 Ni4 P12 O36'
_cell_volume   903.64365016
_cell_formula_units_Z   4
loop_
 _symmetry_equiv_pos_site_id
 _symmetry_equiv_pos_as_xyz
  1  'x, y, z'
loop_
 _atom_site_type_symbol
 _atom_site_label
 _atom_site_symmetry_multiplicity
 _atom_site_fract_x
 _atom_site_fract_y
 _atom_site_fract_z
 _atom_site_occupancy
  Li  Li0  1  0.99752000  0.33122100  0.00750700  1
  Li  Li1  1  0.50248000  0.66877900  0.50750700  1
  Li  Li2  1  0.49752000  0.16877900  0.99249300  1
  Li  Li3  1  0.00248000  0.83122100  0.49249300  1
  Ni  Ni0  1  0.17821700  0.20830000  0.62402500  1
  Ni  Ni1  1  0.32178300  0.79170000  0.12402500  1
  Ni  Ni2  1  0.67821700  0.29170000  0.37597500  1
  Ni  Ni3  1  0.82178300  0.70830000  0.87597500  1
  P  P0  1  0.17448500  0.99986000  0.31890300  1
  P  P1  1  0.18246200  0.48736400  0.18374400  1
  P  P2  1  0.21474100  0.69480800  0.87341700  1
  P  P3  1  0.28525900  0.30519200  0.37341700  1
  P  P4  1  0.31753800  0.51263600  0.68374400  1
  P  P5  1  0.32551500  0.00014000  0.81890300  1
  P  P6  1  0.67448500  0.50014000  0.68109700  1
  P  P7  1  0.68246200  0.01263600  0.81625600  1
  P  P8  1  0.71474100  0.80519200  0.12658300  1
  P  P9  1  0.78525900  0.19480800  0.62658300  1
  P  P10  1  0.81753800  0.98736400  0.31625600  1
  P  P11  1  0.82551500  0.49986000  0.18109700  1
  O  O0  1  0.00730200  0.57565400  0.18466300  1
  O  O1  1  0.04442700  0.62897500  0.86443400  1
  O  O2  1  0.16367600  0.39514900  0.29598300  1
  O  O3  1  0.18747600  0.39635000  0.70201800  1
  O  O4  1  0.20744400  0.85683900  0.82000400  1
  O  O5  1  0.20224700  0.93074100  0.20966200  1
  O  O6  1  0.19199500  0.90978200  0.42056400  1
  O  O7  1  0.18920500  0.38341500  0.08917900  1
  O  O8  1  0.20319600  0.29823600  0.48175700  1
  O  O9  1  0.29680400  0.70176400  0.98175700  1
  O  O10  1  0.31079500  0.61658500  0.58917900  1
  O  O11  1  0.30800500  0.09021800  0.92056400  1
  O  O12  1  0.29775300  0.06925900  0.70966200  1
  O  O13  1  0.29255600  0.14316100  0.32000400  1
  O  O14  1  0.31252400  0.60365000  0.20201800  1
  O  O15  1  0.33632400  0.60485100  0.79598300  1
  O  O16  1  0.45557300  0.37102500  0.36443400  1
  O  O17  1  0.49269800  0.42434600  0.68466300  1
  O  O18  1  0.50730200  0.92434600  0.81533700  1
  O  O19  1  0.54442700  0.87102500  0.13556600  1
  O  O20  1  0.66367600  0.10485100  0.70401700  1
  O  O21  1  0.68747600  0.10365000  0.29798200  1
  O  O22  1  0.70744400  0.64316100  0.17999600  1
  O  O23  1  0.70224700  0.56925900  0.79033800  1
  O  O24  1  0.69199500  0.59021800  0.57943600  1
  O  O25  1  0.68920500  0.11658500  0.91082100  1
  O  O26  1  0.70319600  0.20176400  0.51824300  1
  O  O27  1  0.79680400  0.79823600  0.01824300  1
  O  O28  1  0.81079500  0.88341500  0.41082100  1
  O  O29  1  0.80800500  0.40978200  0.07943600  1
  O  O30  1  0.79775300  0.43074100  0.29033800  1
  O  O31  1  0.79255600  0.35683900  0.67999600  1
  O  O32  1  0.81252400  0.89635000  0.79798200  1
  O  O33  1  0.83632400  0.89514900  0.20401700  1
  O  O34  1  0.95557300  0.12897500  0.63556600  1
  O  O35  1  0.99269800  0.07565400  0.31533700  1
loop_
_geom_bond_atom_site_label_1
_geom_bond_atom_site_label_2
_geom_bond_distance
_geom_bond_site_symmetry_2
Li0 O7 1.910983 1_655
Li0 O29 1.911103 1_555
Li1 O10 1.910983 1_555
Li1 O24 1.911103 1_555
Li2 O25 1.910983 1_555
Li2 O11 1.911103 1_555
Li3 O28 1.910983 1_455
Li3 O6 1.911103 1_555
Ni0 O12 1.906376 1_555
Ni0 O8 1.942873 1_555
Ni0 O34 1.948118 1_455
Ni0 O3 1.954882 1_555
Ni1 O5 1.906376 1_555
Ni1 O9 1.942873 1_554
Ni1 O19 1.948118 1_555
Ni1 O14 1.954882 1_555
Ni2 O30 1.906376 1_555
Ni2 O26 1.942873 1_555
Ni2 O16 1.948118 1_555
Ni2 O21 1.954882 1_555
Ni3 O23 1.906376 1_555
Ni3 O27 1.942873 1_556
Ni3 O1 1.948118 1_655
Ni3 O32 1.954882 1_555
O0 P11 1.626439 1_455
O0 P1 1.629615 1_555
O1 P2 1.508157 1_555
O2 P3 1.595075 1_555
O2 P1 1.621999 1_555
O3 P4 1.506446 1_555
O4 P2 1.607510 1_555
O4 P5 1.611467 1_565
O5 P0 1.500927 1_555
O6 P0 1.500848 1_555
O7 P1 1.498057 1_555
O8 P3 1.492788 1_555
O9 P2 1.492788 1_555
O10 P4 1.498057 1_555
O11 P5 1.500848 1_555
O12 P5 1.500927 1_555
O13 P3 1.607510 1_555
O13 P0 1.611467 1_545
O14 P1 1.506446 1_555
O15 P2 1.595075 1_555
O15 P4 1.621999 1_555
O16 P3 1.508157 1_555
O17 P6 1.626439 1_555
O17 P4 1.629615 1_555
O18 P5 1.626439 1_565
O18 P7 1.629615 1_565
O19 P8 1.508157 1_555
O20 P9 1.595075 1_555
O20 P7 1.621999 1_555
O21 P10 1.506446 1_545
O22 P8 1.607510 1_555
O22 P11 1.611467 1_555
O23 P6 1.500927 1_555
O24 P6 1.500848 1_555
O25 P7 1.498057 1_555
O26 P9 1.492788 1_555
O27 P8 1.492788 1_555
O28 P10 1.498057 1_555
O29 P11 1.500848 1_555
O30 P11 1.500927 1_555
O31 P9 1.607510 1_555
O31 P6 1.611467 1_555
O32 P7 1.506446 1_565
O33 P8 1.595075 1_555
O33 P10 1.621999 1_555
O34 P9 1.508157 1_555
O35 P0 1.626439 1_645
O35 P10 1.629615 1_545
