# generated using pymatgen
data_Sr(BO2)2
_symmetry_space_group_name_H-M   'P 1'
_cell_length_a   9.21976394
_cell_length_b   9.21976394
_cell_length_c   9.21976394
_cell_angle_alpha   90.00000000
_cell_angle_beta   90.00000000
_cell_angle_gamma   90.00000000
_symmetry_Int_Tables_number   1
_chemical_formula_structural   Sr(BO2)2
_chemical_formula_sum   'Sr12 B24 O48'
_cell_volume   783.71724829
_cell_formula_units_Z   12
loop_
 _symmetry_equiv_pos_site_id
 _symmetry_equiv_pos_as_xyz
  1  'x, y, z'
loop_
 _atom_site_type_symbol
 _atom_site_label
 _atom_site_symmetry_multiplicity
 _atom_site_fract_x
 _atom_site_fract_y
 _atom_site_fract_z
 _atom_site_occupancy
  Sr  Sr0  1  0.37039782  0.12960218  0.87039782  1
  Sr  Sr1  1  0.12960218  0.87039782  0.37039782  1
  Sr  Sr2  1  0.87039782  0.37039782  0.12960218  1
  Sr  Sr3  1  0.62960218  0.62960218  0.62960218  1
  Sr  Sr4  1  0.62960218  0.87039782  0.12960218  1
  Sr  Sr5  1  0.87039782  0.12960218  0.62960218  1
  Sr  Sr6  1  0.12960218  0.62960218  0.87039782  1
  Sr  Sr7  1  0.37039782  0.37039782  0.37039782  1
  Sr  Sr8  1  -0.00000000  0.50000000  0.50000000  1
  Sr  Sr9  1  0.50000000  0.50000000  -0.00000000  1
  Sr  Sr10  1  0.50000000  0.00000000  0.50000000  1
  Sr  Sr11  1  -0.00000000  0.00000000  -0.00000000  1
  B  B0  1  0.81245601  0.83830127  0.38719671  1
  B  B1  1  0.61280329  0.18754399  0.16169873  1
  B  B2  1  0.11280329  0.31245601  0.83830127  1
  B  B3  1  0.38719671  0.68754399  0.33830127  1
  B  B4  1  0.31245601  0.83830127  0.11280329  1
  B  B5  1  0.33830127  0.38719671  0.68754399  1
  B  B6  1  0.83830127  0.11280329  0.31245601  1
  B  B7  1  0.18754399  0.16169873  0.61280329  1
  B  B8  1  0.16169873  0.61280329  0.18754399  1
  B  B9  1  0.68754399  0.33830127  0.38719671  1
  B  B10  1  0.81245601  0.66169873  0.88719671  1
  B  B11  1  0.66169873  0.88719671  0.81245601  1
  B  B12  1  0.11280329  0.18754399  0.33830127  1
  B  B13  1  0.33830127  0.11280329  0.18754399  1
  B  B14  1  0.18754399  0.33830127  0.11280329  1
  B  B15  1  0.31245601  0.66169873  0.61280329  1
  B  B16  1  0.83830127  0.38719671  0.81245601  1
  B  B17  1  0.88719671  0.81245601  0.66169873  1
  B  B18  1  0.16169873  0.88719671  0.68754399  1
  B  B19  1  0.66169873  0.61280329  0.31245601  1
  B  B20  1  0.68754399  0.16169873  0.88719671  1
  B  B21  1  0.61280329  0.31245601  0.66169873  1
  B  B22  1  0.88719671  0.68754399  0.16169873  1
  B  B23  1  0.38719671  0.81245601  0.83830127  1
  O  O0  1  0.59304934  0.28117198  0.50422074  1
  O  O1  1  0.90695066  0.71882702  0.00422074  1
  O  O2  1  0.00422074  0.90695066  0.71882702  1
  O  O3  1  0.71882702  0.00422074  0.90695066  1
  O  O4  1  0.78117298  0.99577926  0.40695066  1
  O  O5  1  0.50422074  0.59304934  0.28117198  1
  O  O6  1  0.28117198  0.50422074  0.59304934  1
  O  O7  1  0.49577926  0.09304934  0.21882702  1
  O  O8  1  0.99577926  0.40695066  0.78117298  1
  O  O9  1  0.21882702  0.49577926  0.09304934  1
  O  O10  1  0.40695066  0.78117298  0.99577926  1
  O  O11  1  0.09304934  0.21882702  0.49577926  1
  O  O12  1  0.32412923  0.25728666  0.11533043  1
  O  O13  1  0.11533043  0.32412923  0.25728666  1
  O  O14  1  0.25728666  0.11533043  0.32412923  1
  O  O15  1  0.24271334  0.88466957  0.82412923  1
  O  O16  1  0.61533043  0.17587077  0.74271334  1
  O  O17  1  0.74271334  0.61533043  0.17587077  1
  O  O18  1  0.38466957  0.67587077  0.75728666  1
  O  O19  1  0.88466957  0.82412923  0.24271334  1
  O  O20  1  0.75728666  0.38466957  0.67587077  1
  O  O21  1  0.82412923  0.24271334  0.88466957  1
  O  O22  1  0.67587077  0.75728666  0.38466957  1
  O  O23  1  0.17587077  0.74271334  0.61533043  1
  O  O24  1  0.67587077  0.74271334  0.88466957  1
  O  O25  1  0.88466957  0.67587077  0.74271334  1
  O  O26  1  0.74271334  0.88466957  0.67587077  1
  O  O27  1  0.75728666  0.11533043  0.17587077  1
  O  O28  1  0.38466957  0.82412923  0.25728666  1
  O  O29  1  0.25728666  0.38466957  0.82412923  1
  O  O30  1  0.61533043  0.32412923  0.24271334  1
  O  O31  1  0.11533043  0.17587077  0.75728666  1
  O  O32  1  0.24271334  0.61533043  0.32412923  1
  O  O33  1  0.17587077  0.75728666  0.11533043  1
  O  O34  1  0.32412923  0.24271334  0.61533043  1
  O  O35  1  0.82412923  0.25728666  0.38466957  1
  O  O36  1  0.09304934  0.28117198  0.99577926  1
  O  O37  1  0.99577926  0.09304934  0.28117198  1
  O  O38  1  0.28117198  0.99577926  0.09304934  1
  O  O39  1  0.40695066  0.71882702  0.49577926  1
  O  O40  1  0.49577926  0.40695066  0.71882702  1
  O  O41  1  0.71882702  0.49577926  0.40695066  1
  O  O42  1  0.50422074  0.90695066  0.78117298  1
  O  O43  1  0.00422074  0.59304934  0.21882702  1
  O  O44  1  0.78117298  0.50422074  0.90695066  1
  O  O45  1  0.59304934  0.21882702  0.00422074  1
  O  O46  1  0.90695066  0.78117298  0.50422074  1
  O  O47  1  0.21882702  0.00422074  0.59304934  1
loop_
_geom_bond_atom_site_label_1
_geom_bond_atom_site_label_2
_geom_bond_distance
_geom_bond_site_symmetry_2
B0 O22 1.464326 1_555
B0 O46 1.483423 1_555
B0 O4 1.491442 1_555
B0 O19 1.494941 1_555
B1 O30 1.464326 1_555
B1 O7 1.483423 1_555
B1 O45 1.491442 1_555
B1 O27 1.494941 1_555
B2 O31 1.464326 1_555
B2 O8 1.483423 1_455
B2 O36 1.491444 1_555
B2 O29 1.494941 1_555
B3 O28 1.464326 1_555
B3 O5 1.483426 1_555
B3 O39 1.491442 1_555
B3 O32 1.494941 1_555
B4 O33 1.464326 1_555
B4 O10 1.483423 1_554
B4 O38 1.491444 1_555
B4 O28 1.494941 1_555
B5 O29 1.464326 1_555
B5 O6 1.483426 1_555
B5 O40 1.491442 1_555
B5 O34 1.494941 1_555
B6 O27 1.464326 1_555
B6 O4 1.483423 1_545
B6 O37 1.491444 1_555
B6 O35 1.494941 1_555
B7 O34 1.464326 1_555
B7 O11 1.483423 1_555
B7 O47 1.491442 1_555
B7 O31 1.494941 1_555
B8 O32 1.464326 1_555
B8 O9 1.483423 1_555
B8 O43 1.491442 1_555
B8 O33 1.494941 1_555
B9 O35 1.464326 1_555
B9 O0 1.483426 1_555
B9 O41 1.491442 1_555
B9 O30 1.494941 1_555
B10 O24 1.464326 1_555
B10 O1 1.483423 1_556
B10 O44 1.491442 1_555
B10 O25 1.494941 1_555
B11 O26 1.464326 1_555
B11 O3 1.483423 1_565
B11 O42 1.491442 1_555
B11 O24 1.494941 1_555
B12 O13 1.464326 1_555
B12 O37 1.483426 1_455
B12 O11 1.491442 1_555
B12 O14 1.494941 1_555
B13 O14 1.464326 1_555
B13 O38 1.483426 1_545
B13 O7 1.491442 1_555
B13 O12 1.494941 1_555
B14 O12 1.464326 1_555
B14 O36 1.483426 1_554
B14 O9 1.491442 1_555
B14 O13 1.494941 1_555
B15 O23 1.464326 1_555
B15 O39 1.483423 1_555
B15 O6 1.491444 1_555
B15 O18 1.494941 1_555
B16 O20 1.464326 1_555
B16 O44 1.483423 1_555
B16 O8 1.491442 1_555
B16 O21 1.494941 1_555
B17 O25 1.464326 1_555
B17 O2 1.483423 1_655
B17 O46 1.491442 1_555
B17 O26 1.494941 1_555
B18 O15 1.464326 1_555
B18 O47 1.483423 1_565
B18 O2 1.491442 1_555
B18 O23 1.494941 1_555
B19 O17 1.464326 1_555
B19 O41 1.483423 1_555
B19 O5 1.491444 1_555
B19 O22 1.494941 1_555
B20 O21 1.464326 1_555
B20 O45 1.483423 1_556
B20 O3 1.491442 1_555
B20 O16 1.494941 1_555
B21 O16 1.464326 1_555
B21 O40 1.483423 1_555
B21 O0 1.491444 1_555
B21 O20 1.494941 1_555
B22 O19 1.464326 1_555
B22 O43 1.483423 1_655
B22 O1 1.491442 1_555
B22 O17 1.494941 1_555
B23 O18 1.464326 1_555
B23 O42 1.483423 1_555
B23 O10 1.491442 1_555
B23 O15 1.494941 1_555
O0 Sr7 2.532391 1_555
O0 Sr10 2.730882 1_555
O1 Sr6 2.532388 1_654
O1 Sr11 2.730891 1_665
O2 Sr5 2.532388 1_465
O2 Sr11 2.730891 1_566
O3 Sr4 2.532388 1_546
O3 Sr11 2.730891 1_656
O4 Sr5 2.532388 1_565
O4 Sr10 2.730891 1_565
O5 Sr7 2.532391 1_555
O5 Sr9 2.730882 1_555
O6 Sr7 2.532391 1_555
O6 Sr8 2.730882 1_555
O7 Sr4 2.532388 1_545
O7 Sr10 2.730891 1_555
O8 Sr6 2.532388 1_655
O8 Sr8 2.730891 1_655
O9 Sr6 2.532388 1_554
O9 Sr9 2.730891 1_555
O10 Sr4 2.532388 1_556
O10 Sr9 2.730891 1_556
O11 Sr5 2.532388 1_455
O11 Sr8 2.730891 1_555
O12 Sr0 2.582128 1_554
O12 Sr7 2.607650 1_555
O12 Sr9 2.960986 1_555
O13 Sr2 2.582128 1_455
O13 Sr7 2.607650 1_555
O13 Sr8 2.960986 1_555
O14 Sr1 2.582128 1_545
O14 Sr7 2.607650 1_555
O14 Sr10 2.960986 1_555
O15 Sr0 2.582128 1_565
O15 Sr6 2.607650 1_555
O15 Sr11 2.960986 1_566
O16 Sr0 2.582128 1_555
O16 Sr5 2.607650 1_555
O16 Sr10 2.960986 1_555
O17 Sr2 2.582128 1_555
O17 Sr4 2.607650 1_555
O17 Sr9 2.960986 1_555
O18 Sr3 2.582128 1_555
O18 Sr6 2.607650 1_555
O18 Sr9 2.960986 1_556
O19 Sr1 2.582128 1_655
O19 Sr4 2.607650 1_555
O19 Sr11 2.960986 1_665
O20 Sr3 2.582128 1_555
O20 Sr5 2.607650 1_555
O20 Sr8 2.960986 1_655
O21 Sr2 2.582128 1_556
O21 Sr5 2.607650 1_555
O21 Sr11 2.960986 1_656
O22 Sr3 2.582128 1_555
O22 Sr4 2.607650 1_555
O22 Sr10 2.960986 1_565
O23 Sr1 2.582128 1_555
O23 Sr6 2.607650 1_555
O23 Sr8 2.960986 1_555
O24 Sr4 2.582128 1_556
O24 Sr3 2.607650 1_555
O24 Sr9 2.960986 1_556
O25 Sr6 2.582128 1_655
O25 Sr3 2.607650 1_555
O25 Sr8 2.960986 1_655
O26 Sr5 2.582128 1_565
O26 Sr3 2.607650 1_555
O26 Sr10 2.960986 1_565
O27 Sr4 2.582128 1_545
O27 Sr2 2.607650 1_555
O27 Sr11 2.960986 1_655
O28 Sr4 2.582128 1_555
O28 Sr1 2.607650 1_555
O28 Sr10 2.960986 1_565
O29 Sr6 2.582128 1_555
O29 Sr0 2.607650 1_555
O29 Sr9 2.960986 1_556
O30 Sr7 2.582128 1_555
O30 Sr2 2.607650 1_555
O30 Sr9 2.960986 1_555
O31 Sr5 2.582128 1_455
O31 Sr0 2.607650 1_555
O31 Sr11 2.960986 1_556
O32 Sr7 2.582128 1_555
O32 Sr1 2.607650 1_555
O32 Sr8 2.960986 1_555
O33 Sr6 2.582128 1_554
O33 Sr1 2.607650 1_555
O33 Sr11 2.960986 1_565
O34 Sr7 2.582128 1_555
O34 Sr0 2.607650 1_555
O34 Sr10 2.960986 1_555
O35 Sr5 2.582128 1_555
O35 Sr2 2.607650 1_555
O35 Sr8 2.960986 1_655
O36 Sr2 2.532391 1_456
O36 Sr11 2.730882 1_556
O37 Sr1 2.532391 1_645
O37 Sr11 2.730882 1_655
O38 Sr0 2.532391 1_564
O38 Sr11 2.730882 1_565
O39 Sr3 2.532388 1_555
O39 Sr10 2.730891 1_565
O40 Sr3 2.532388 1_555
O40 Sr9 2.730891 1_556
O41 Sr3 2.532388 1_555
O41 Sr8 2.730891 1_655
O42 Sr0 2.532388 1_565
O42 Sr10 2.730891 1_565
O43 Sr2 2.532388 1_455
O43 Sr8 2.730891 1_555
O44 Sr2 2.532388 1_556
O44 Sr9 2.730891 1_556
O45 Sr0 2.532388 1_554
O45 Sr9 2.730891 1_555
O46 Sr1 2.532388 1_655
O46 Sr8 2.730891 1_655
O47 Sr1 2.532388 1_545
O47 Sr10 2.730891 1_555
