# generated using pymatgen
data_Pr2CdCu2
_symmetry_space_group_name_H-M   'P 1'
_cell_length_a   5.68278439
_cell_length_b   5.68275506
_cell_length_c   7.57790665
_cell_angle_alpha   102.13009739
_cell_angle_beta   77.86987879
_cell_angle_gamma   96.59454809
_symmetry_Int_Tables_number   1
_chemical_formula_structural   Pr2CdCu2
_chemical_formula_sum   'Pr4 Cd2 Cu4'
_cell_volume   233.27367612
_cell_formula_units_Z   2
loop_
 _symmetry_equiv_pos_site_id
 _symmetry_equiv_pos_as_xyz
  1  'x, y, z'
loop_
 _atom_site_type_symbol
 _atom_site_label
 _atom_site_symmetry_multiplicity
 _atom_site_fract_x
 _atom_site_fract_y
 _atom_site_fract_z
 _atom_site_occupancy
  Pr  Pr0  1  0.67311548  0.32673998  0.26623962  1
  Pr  Pr1  1  0.32688201  0.67299949  0.73358379  1
  Pr  Pr2  1  0.19626336  0.80353360  0.25853496  1
  Pr  Pr3  1  0.80360990  0.19621496  0.74125935  1
  Cd  Cd0  1  0.22649814  0.22642155  0.99988500  1
  Cd  Cd1  1  0.77349856  0.77343201  0.99985096  1
  Cu  Cu0  1  0.33785080  0.13367099  0.59308055  1
  Cu  Cu1  1  0.13371703  0.33777150  0.40682471  1
  Cu  Cu2  1  0.66222638  0.86622959  0.40687711  1
  Cu  Cu3  1  0.86624734  0.66216432  0.59304394  1
loop_
_geom_bond_atom_site_label_1
_geom_bond_atom_site_label_2
_geom_bond_distance
_geom_bond_site_symmetry_2
Cd0 Cu0 2.958946 1_555
Cd0 Cu1 2.959926 1_556
Cd0 Pr3 3.374757 1_455
Cd0 Pr2 3.374852 1_546
Cd0 Pr0 3.398390 1_456
Cd0 Pr1 3.398470 1_545
Cd0 Cd1 3.425140 1_445
Cd0 Pr3 3.451506 1_555
Cd0 Pr2 3.451567 1_556
Cd0 Pr1 3.489145 1_555
Cd0 Pr0 3.489640 1_556
Cd1 Cu3 2.958958 1_555
Cd1 Cu2 2.960547 1_556
Cd1 Pr3 3.374147 1_565
Cd1 Pr2 3.374585 1_656
Cd1 Pr0 3.398179 1_566
Cd1 Pr1 3.398249 1_655
Cd1 Pr3 3.451880 1_555
Cd1 Pr2 3.452228 1_556
Cd1 Pr1 3.489148 1_555
Cd1 Pr0 3.490145 1_556
Cu0 Cu2 2.519499 1_545
Cu0 Cu1 2.523539 1_555
Cu0 Pr1 3.016101 1_545
Cu0 Pr2 3.017585 1_545
Cu0 Pr1 3.029112 1_555
Cu0 Pr3 3.041670 1_455
Cu0 Pr3 3.042704 1_555
Cu0 Pr0 3.105936 1_555
Cu1 Cu3 2.519689 1_455
Cu1 Pr0 3.016015 1_455
Cu1 Pr3 3.016806 1_455
Cu1 Pr0 3.029607 1_555
Cu1 Pr2 3.041756 1_545
Cu1 Pr2 3.043149 1_555
Cu1 Pr1 3.105636 1_555
Cu2 Cu3 2.522501 1_555
Cu2 Pr3 3.015849 1_565
Cu2 Pr0 3.015850 1_565
Cu2 Pr0 3.030082 1_555
Cu2 Pr2 3.040888 1_655
Cu2 Pr2 3.044387 1_555
Cu2 Pr1 3.105776 1_555
Cu3 Pr1 3.016181 1_655
Cu3 Pr2 3.016628 1_655
Cu3 Pr1 3.029313 1_555
Cu3 Pr3 3.040765 1_565
Cu3 Pr3 3.043814 1_555
Cu3 Pr0 3.106258 1_555
