# generated using pymatgen
data_SrSn(PO4)2
_symmetry_space_group_name_H-M   'P 1'
_cell_length_a   8.85158647
_cell_length_b   8.85158647
_cell_length_c   8.15698031
_cell_angle_alpha   65.82260961
_cell_angle_beta   65.82260961
_cell_angle_gamma   34.90732242
_symmetry_Int_Tables_number   1
_chemical_formula_structural   SrSn(PO4)2
_chemical_formula_sum   'Sr2 Sn2 P4 O16'
_cell_volume   330.30630577
_cell_formula_units_Z   2
loop_
 _symmetry_equiv_pos_site_id
 _symmetry_equiv_pos_as_xyz
  1  'x, y, z'
loop_
 _atom_site_type_symbol
 _atom_site_label
 _atom_site_symmetry_multiplicity
 _atom_site_fract_x
 _atom_site_fract_y
 _atom_site_fract_z
 _atom_site_occupancy
  Sr  Sr0  1  0.21990700  0.78009300  0.25000000  1
  Sr  Sr1  1  0.78009300  0.21990700  0.75000000  1
  Sn  Sn0  1  0.50000000  0.00000000  0.00000000  1
  Sn  Sn1  1  0.00000000  0.50000000  0.50000000  1
  P  P0  1  0.88842100  0.39360000  0.24107300  1
  P  P1  1  0.60640000  0.11157900  0.25892700  1
  P  P2  1  0.11157900  0.60640000  0.75892700  1
  P  P3  1  0.39360000  0.88842100  0.74107300  1
  O  O0  1  0.96622200  0.47741700  0.28236500  1
  O  O1  1  0.52258300  0.03377800  0.21763500  1
  O  O2  1  0.03377800  0.52258300  0.71763500  1
  O  O3  1  0.47741700  0.96622200  0.78236500  1
  O  O4  1  0.81542800  0.28608600  0.39946400  1
  O  O5  1  0.71391400  0.18457200  0.10053600  1
  O  O6  1  0.18457200  0.71391400  0.60053600  1
  O  O7  1  0.28608600  0.81542800  0.89946400  1
  O  O8  1  0.64463100  0.64617400  0.13159500  1
  O  O9  1  0.35382600  0.35536900  0.36840500  1
  O  O10  1  0.35536900  0.35382600  0.86840500  1
  O  O11  1  0.64617400  0.64463100  0.63159500  1
  O  O12  1  0.13451400  0.16814400  0.11611400  1
  O  O13  1  0.83185600  0.86548600  0.38388600  1
  O  O14  1  0.86548600  0.83185600  0.88388600  1
  O  O15  1  0.16814400  0.13451400  0.61611400  1
loop_
_geom_bond_atom_site_label_1
_geom_bond_atom_site_label_2
_geom_bond_distance
_geom_bond_site_symmetry_2
O0 P0 1.539750 1_555
O0 Sn1 2.025913 1_655
O1 P1 1.539750 1_555
O1 Sn0 2.025913 1_555
O2 P2 1.539750 1_555
O2 Sn1 2.025913 1_555
O3 P3 1.539750 1_555
O3 Sn0 2.025913 1_566
O4 P0 1.519847 1_555
O4 Sr1 2.610098 1_555
O4 Sr0 2.993561 1_645
O5 P1 1.519847 1_555
O5 Sr1 2.610098 1_554
O5 Sr0 2.993561 1_645
O6 P2 1.519847 1_555
O6 Sr0 2.610098 1_555
O6 Sr1 2.993561 1_465
O7 P3 1.519847 1_555
O7 Sr0 2.610098 1_556
O7 Sr1 2.993561 1_465
O8 P0 1.575651 1_555
O8 Sn0 2.096594 1_565
O8 Sr0 2.669442 1_555
O9 P1 1.575651 1_555
O9 Sn1 2.096594 1_555
O9 Sr0 2.669442 1_555
O10 P2 1.575651 1_555
O10 Sn0 2.096594 1_556
O10 Sr1 2.669442 1_555
O11 P3 1.575651 1_555
O11 Sn1 2.096594 1_655
O11 Sr1 2.669442 1_555
O12 P0 1.576098 1_455
O12 Sn0 2.079850 1_555
O12 Sr0 2.628202 1_545
O13 P1 1.576098 1_565
O13 Sn1 2.079850 1_655
O13 Sr0 2.628202 1_655
O14 P2 1.576098 1_655
O14 Sn0 2.079850 1_566
O14 Sr1 2.628202 1_565
O15 P3 1.576098 1_545
O15 Sn1 2.079850 1_555
O15 Sr1 2.628202 1_455
