# generated using pymatgen
data_NaAl6Fe3Si6B3H3O30F
_symmetry_space_group_name_H-M   'P 1'
_cell_length_a   9.59169321
_cell_length_b   9.59169321
_cell_length_c   9.59169275
_cell_angle_alpha   113.84691733
_cell_angle_beta   113.84691733
_cell_angle_gamma   113.84692016
_symmetry_Int_Tables_number   1
_chemical_formula_structural   NaAl6Fe3Si6B3H3O30F
_chemical_formula_sum   'Na1 Al6 Fe3 Si6 B3 H3 O30 F1'
_cell_volume   542.16022317
_cell_formula_units_Z   1
loop_
 _symmetry_equiv_pos_site_id
 _symmetry_equiv_pos_as_xyz
  1  'x, y, z'
loop_
 _atom_site_type_symbol
 _atom_site_label
 _atom_site_symmetry_multiplicity
 _atom_site_fract_x
 _atom_site_fract_y
 _atom_site_fract_z
 _atom_site_occupancy
  Na  Na0  1  0.21919300  0.21919300  0.21919300  1
  Al  Al0  1  0.90640500  0.57286000  0.34926300  1
  Al  Al1  1  0.34926300  0.90640500  0.57286000  1
  Al  Al2  1  0.57286000  0.34926300  0.90640500  1
  Al  Al3  1  0.34926300  0.57286000  0.90640500  1
  Al  Al4  1  0.90640500  0.34926300  0.57286000  1
  Al  Al5  1  0.57286000  0.90640500  0.34926300  1
  Fe  Fe0  1  0.57669300  0.74364800  0.57669300  1
  Fe  Fe1  1  0.57669300  0.57669300  0.74364800  1
  Fe  Fe2  1  0.74364800  0.57669300  0.57669300  1
  Si  Si0  1  0.18773500  0.99407200  0.80532200  1
  Si  Si1  1  0.80532200  0.18773500  0.99407200  1
  Si  Si2  1  0.99407200  0.80532200  0.18773500  1
  Si  Si3  1  0.80532200  0.99407200  0.18773500  1
  Si  Si4  1  0.18773500  0.80532200  0.99407200  1
  Si  Si5  1  0.99407200  0.18773500  0.80532200  1
  B  B0  1  0.56019300  0.22657500  0.56019300  1
  B  B1  1  0.56019300  0.56019300  0.22657500  1
  B  B2  1  0.22657500  0.56019300  0.56019300  1
  H  H0  1  0.24506600  0.64283400  0.24506600  1
  H  H1  1  0.24506600  0.24506600  0.64283400  1
  H  H2  1  0.64283400  0.24506600  0.24506600  1
  O  O0  1  0.52830400  0.34208700  0.52830300  1
  O  O1  1  0.52830400  0.52830400  0.34208700  1
  O  O2  1  0.34208700  0.52830400  0.52830400  1
  O  O3  1  0.37559400  0.78193400  0.37559400  1
  O  O4  1  0.37559400  0.37559400  0.78193400  1
  O  O5  1  0.78193400  0.37559400  0.37559400  1
  O  O6  1  0.16021300  0.88070500  0.16021300  1
  O  O7  1  0.16021300  0.16021300  0.88070500  1
  O  O8  1  0.88070500  0.16021300  0.16021300  1
  O  O9  1  0.99316900  0.27316600  0.99316900  1
  O  O10  1  0.99316900  0.99316900  0.27316600  1
  O  O11  1  0.27316600  0.99316900  0.99316900  1
  O  O12  1  0.96922000  0.76545100  0.58535600  1
  O  O13  1  0.58535600  0.96922000  0.76545100  1
  O  O14  1  0.76545100  0.58535600  0.96922000  1
  O  O15  1  0.58535600  0.76545100  0.96922000  1
  O  O16  1  0.96922000  0.58535600  0.76545100  1
  O  O17  1  0.76545100  0.96922000  0.58535600  1
  O  O18  1  0.36417800  0.07873600  0.79300600  1
  O  O19  1  0.79300600  0.36417800  0.07873600  1
  O  O20  1  0.07873600  0.79300600  0.36417800  1
  O  O21  1  0.79300600  0.07873600  0.36417800  1
  O  O22  1  0.36417800  0.79300600  0.07873600  1
  O  O23  1  0.07873600  0.36417800  0.79300600  1
  O  O24  1  0.65184200  0.50260600  0.16836900  1
  O  O25  1  0.16836900  0.65184200  0.50260600  1
  O  O26  1  0.50260600  0.16836900  0.65184200  1
  O  O27  1  0.16836900  0.50260600  0.65184200  1
  O  O28  1  0.65184200  0.16836900  0.50260600  1
  O  O29  1  0.50260600  0.65184200  0.16836900  1
  F  F0  1  0.84942200  0.84942200  0.84942200  1
loop_
_geom_bond_atom_site_label_1
_geom_bond_atom_site_label_2
_geom_bond_distance
_geom_bond_site_symmetry_2
Na0 O0 2.492150 1_555
Na0 O2 2.492155 1_555
Na0 O1 2.492155 1_555
Na0 O10 2.771763 1_445
Na0 O9 2.771764 1_454
Na0 O11 2.771764 1_544
Na0 O7 2.819913 1_554
Na0 O8 2.819913 1_455
Na0 O6 2.819913 1_545
Al0 O12 1.875596 1_555
Al0 O25 1.903243 1_655
Al0 O19 1.918435 1_555
Al0 O24 1.930032 1_555
Al0 O5 1.967965 1_555
Al0 O20 1.988401 1_655
Al1 O13 1.875596 1_555
Al1 O26 1.903243 1_565
Al1 O20 1.918435 1_555
Al1 O25 1.930032 1_555
Al1 O3 1.967965 1_555
Al1 O18 1.988401 1_565
Al2 O14 1.875596 1_555
Al2 O24 1.903242 1_556
Al2 O18 1.918435 1_555
Al2 O26 1.930032 1_555
Al2 O4 1.967965 1_555
Al2 O19 1.988401 1_556
Al3 O15 1.875596 1_555
Al3 O29 1.903242 1_556
Al3 O23 1.918435 1_555
Al3 O27 1.930032 1_555
Al3 O4 1.967965 1_555
Al3 O22 1.988401 1_556
Al4 O16 1.875596 1_555
Al4 O27 1.903243 1_655
Al4 O21 1.918435 1_555
Al4 O28 1.930032 1_555
Al4 O5 1.967965 1_555
Al4 O23 1.988401 1_655
Al5 O17 1.875596 1_555
Al5 O28 1.903243 1_565
Al5 O22 1.918435 1_555
Al5 O29 1.930032 1_555
Al5 O3 1.967965 1_555
Al5 O21 1.988401 1_565
Fe0 O2 2.041447 1_555
Fe0 O1 2.041447 1_555
Fe0 O17 2.128763 1_555
Fe0 O13 2.128763 1_555
Fe0 O3 2.390210 1_555
Fe1 O2 2.041447 1_555
Fe1 O0 2.041452 1_555
Fe1 O14 2.128763 1_555
Fe1 O15 2.128763 1_555
Fe1 O4 2.390210 1_555
Fe2 O0 2.041441 1_555
Fe2 O1 2.041447 1_555
Fe2 O12 2.128763 1_555
Fe2 O16 2.128763 1_555
Fe2 O5 2.390210 1_555
B0 O0 1.373713 1_555
B0 O26 1.389122 1_555
B0 O28 1.389122 1_555
B1 O1 1.373708 1_555
B1 O24 1.389122 1_555
B1 O29 1.389122 1_555
B2 O2 1.373708 1_555
B2 O27 1.389122 1_555
B2 O25 1.389122 1_555
H0 O3 0.972758 1_555
H1 O4 0.972758 1_555
H2 O5 0.972758 1_555
O6 Si4 1.641576 1_554
O6 Si2 1.641576 1_455
O7 Si5 1.641576 1_455
O7 Si0 1.641576 1_545
O8 Si1 1.641576 1_554
O8 Si3 1.641576 1_545
O9 Si5 1.656036 1_555
O9 Si1 1.656036 1_555
O10 Si2 1.656036 1_555
O10 Si3 1.656036 1_555
O11 Si0 1.656036 1_555
O11 Si4 1.656036 1_555
O12 Si0 1.618642 1_655
O13 Si1 1.618642 1_565
O14 Si2 1.618642 1_556
O15 Si3 1.618642 1_556
O16 Si4 1.618642 1_655
O17 Si5 1.618642 1_565
O18 Si0 1.632648 1_545
O19 Si1 1.632648 1_554
O20 Si2 1.632648 1_455
O21 Si3 1.632648 1_545
O22 Si4 1.632648 1_554
O23 Si5 1.632648 1_455
F0 Fe0 2.211397 1_555
F0 Fe2 2.211397 1_555
F0 Fe1 2.211397 1_555
F0 Na0 2.687648 1_666
