# generated using pymatgen
data_LiPm2Rh
_symmetry_space_group_name_H-M   'P 1'
_cell_length_a   5.05246880
_cell_length_b   5.05246880
_cell_length_c   5.05246880
_cell_angle_alpha   60.00000000
_cell_angle_beta   60.00000000
_cell_angle_gamma   60.00000000
_symmetry_Int_Tables_number   1
_chemical_formula_structural   LiPm2Rh
_chemical_formula_sum   'Li1 Pm2 Rh1'
_cell_volume   91.20022780
_cell_formula_units_Z   1
loop_
 _symmetry_equiv_pos_site_id
 _symmetry_equiv_pos_as_xyz
  1  'x, y, z'
loop_
 _atom_site_type_symbol
 _atom_site_label
 _atom_site_symmetry_multiplicity
 _atom_site_fract_x
 _atom_site_fract_y
 _atom_site_fract_z
 _atom_site_occupancy
  Li  Li0  1  0.24999900  0.24999900  0.24999900  1
  Pm  Pm0  1  0.00000000  0.00000000  -0.00000000  1
  Pm  Pm1  1  0.50000000  0.50000000  0.50000000  1
  Rh  Rh0  1  0.75000000  0.75000000  0.75000000  1
loop_
_geom_bond_atom_site_label_1
_geom_bond_atom_site_label_2
_geom_bond_distance
_geom_bond_site_symmetry_2
Li0 Pm0 3.093980 1_555
Li0 Pm1 3.093988 1_545
Li0 Pm1 3.093988 1_455
Li0 Pm1 3.093988 1_554
Li0 Pm0 3.093997 1_565
Li0 Pm0 3.093997 1_655
Li0 Pm0 3.093997 1_556
Li0 Pm1 3.094005 1_555
Pm0 Rh0 3.093993 1_445
Pm0 Rh0 3.093993 1_444
Pm0 Rh0 3.093993 1_454
Pm0 Rh0 3.093993 1_544
Pm1 Rh0 3.093993 1_545
Pm1 Rh0 3.093993 1_554
Pm1 Rh0 3.093993 1_555
Pm1 Rh0 3.093993 1_455
