# generated using pymatgen
data_ScTlRh2
_symmetry_space_group_name_H-M   'P 1'
_cell_length_a   4.56922457
_cell_length_b   4.56922454
_cell_length_c   4.56922488
_cell_angle_alpha   59.99999135
_cell_angle_beta   59.99999145
_cell_angle_gamma   59.99998710
_symmetry_Int_Tables_number   1
_chemical_formula_structural   ScTlRh2
_chemical_formula_sum   'Sc1 Tl1 Rh2'
_cell_volume   67.45473492
_cell_formula_units_Z   1
loop_
 _symmetry_equiv_pos_site_id
 _symmetry_equiv_pos_as_xyz
  1  'x, y, z'
loop_
 _atom_site_type_symbol
 _atom_site_label
 _atom_site_symmetry_multiplicity
 _atom_site_fract_x
 _atom_site_fract_y
 _atom_site_fract_z
 _atom_site_occupancy
  Sc  Sc0  1  0.25000080  0.25000082  0.25000082  1
  Tl  Tl0  1  0.74999995  0.74999995  0.74999995  1
  Rh  Rh0  1  -0.00000007  -0.00000007  -0.00000008  1
  Rh  Rh1  1  0.49999932  0.49999930  0.49999931  1
loop_
_geom_bond_atom_site_label_1
_geom_bond_atom_site_label_2
_geom_bond_distance
_geom_bond_site_symmetry_2
Rh0 Sc0 2.798063 1_545
Rh0 Sc0 2.798064 1_455
Rh0 Sc0 2.798064 1_554
Rh0 Tl0 2.798067 1_454
Rh0 Tl0 2.798067 1_544
Rh0 Tl0 2.798067 1_444
Rh0 Tl0 2.798067 1_445
Rh0 Sc0 2.798077 1_555
Rh1 Sc0 2.798051 1_555
Rh1 Tl0 2.798064 1_545
Rh1 Tl0 2.798064 1_455
Rh1 Tl0 2.798065 1_554
Rh1 Sc0 2.798072 1_655
Rh1 Sc0 2.798072 1_565
Rh1 Sc0 2.798073 1_556
Rh1 Tl0 2.798075 1_555
