# generated using pymatgen
data_Cr2N
_symmetry_space_group_name_H-M   'P 1'
_cell_length_a   4.75137275
_cell_length_b   4.75136667
_cell_length_c   4.37583802
_cell_angle_alpha   90.00049796
_cell_angle_beta   89.99976068
_cell_angle_gamma   120.00007748
_symmetry_Int_Tables_number   1
_chemical_formula_structural   Cr2N
_chemical_formula_sum   'Cr6 N3'
_cell_volume   85.55180559
_cell_formula_units_Z   3
loop_
 _symmetry_equiv_pos_site_id
 _symmetry_equiv_pos_as_xyz
  1  'x, y, z'
loop_
 _atom_site_type_symbol
 _atom_site_label
 _atom_site_symmetry_multiplicity
 _atom_site_fract_x
 _atom_site_fract_y
 _atom_site_fract_z
 _atom_site_occupancy
  Cr  Cr0  1  0.00000048  0.67398878  0.74719564  1
  Cr  Cr1  1  0.67399250  0.00000161  0.74719827  1
  Cr  Cr2  1  0.32600679  0.32600853  0.74719856  1
  Cr  Cr3  1  0.67399271  0.67399217  0.25280197  1
  Cr  Cr4  1  0.00000036  0.32600911  0.25280220  1
  Cr  Cr5  1  0.32600700  -0.00000013  0.25280342  1
  N  N0  1  -0.00000004  0.00000038  0.00000229  1
  N  N1  1  0.66666971  0.33333518  0.50000037  1
  N  N2  1  0.33333050  0.66666637  0.50000029  1
loop_
_geom_bond_atom_site_label_1
_geom_bond_atom_site_label_2
_geom_bond_distance
_geom_bond_site_symmetry_2
Cr0 N0 1.903456 1_566
Cr0 N2 1.932534 1_555
Cr0 N1 1.932535 1_455
Cr1 N0 1.903448 1_656
Cr1 N1 1.932565 1_555
Cr1 N2 1.932567 1_545
Cr2 N0 1.903443 1_556
Cr2 N2 1.932570 1_555
Cr2 N1 1.932574 1_555
Cr3 N0 1.903434 1_665
Cr3 N1 1.932568 1_555
Cr3 N2 1.932574 1_555
Cr4 N0 1.903426 1_555
Cr4 N2 1.932548 1_555
Cr4 N1 1.932551 1_455
Cr5 N0 1.903438 1_555
Cr5 N2 1.932564 1_545
Cr5 N1 1.932566 1_555
