# generated using pymatgen
data_Ba2Sc2O5
_symmetry_space_group_name_H-M   'P 1'
_cell_length_a   4.18656300
_cell_length_b   4.18656300
_cell_length_c   8.30715400
_cell_angle_alpha   90.00000000
_cell_angle_beta   90.00000000
_cell_angle_gamma   90.00000000
_symmetry_Int_Tables_number   1
_chemical_formula_structural   Ba2Sc2O5
_chemical_formula_sum   'Ba2 Sc2 O5'
_cell_volume   145.60206132
_cell_formula_units_Z   1
loop_
 _symmetry_equiv_pos_site_id
 _symmetry_equiv_pos_as_xyz
  1  'x, y, z'
loop_
 _atom_site_type_symbol
 _atom_site_label
 _atom_site_symmetry_multiplicity
 _atom_site_fract_x
 _atom_site_fract_y
 _atom_site_fract_z
 _atom_site_occupancy
  Ba  Ba0  1  0.00000000  0.00000000  0.00000000  1
  Ba  Ba1  1  0.00000000  0.00000000  0.50000000  1
  Sc  Sc0  1  0.50000000  0.50000000  0.26134100  1
  Sc  Sc1  1  0.50000000  0.50000000  0.73865900  1
  O  O0  1  0.50000000  0.00000000  0.22069600  1
  O  O1  1  0.50000000  0.00000000  0.77930400  1
  O  O2  1  0.00000000  0.50000000  0.22069600  1
  O  O3  1  0.00000000  0.50000000  0.77930400  1
  O  O4  1  0.50000000  0.50000000  0.50000000  1
loop_
_geom_bond_atom_site_label_1
_geom_bond_atom_site_label_2
_geom_bond_distance
_geom_bond_site_symmetry_2
Ba0 O1 2.782628 1_454
Ba0 O0 2.782628 1_555
Ba0 O0 2.782628 1_455
Ba0 O3 2.782628 1_554
Ba0 O2 2.782628 1_545
Ba0 O2 2.782628 1_555
Ba0 O3 2.782628 1_544
Ba0 O1 2.782628 1_554
Ba1 O4 2.960347 1_455
Ba1 O4 2.960347 1_555
Ba1 O4 2.960347 1_445
Ba1 O4 2.960347 1_545
Ba1 O3 3.124941 1_545
Ba1 O1 3.124941 1_555
Ba1 O0 3.124941 1_455
Ba1 O3 3.124941 1_555
Ba1 O0 3.124941 1_555
Ba1 O2 3.124941 1_545
Ba1 O2 3.124941 1_555
Ba1 O1 3.124941 1_455
O0 Sc0 2.120337 1_545
O0 Sc0 2.120337 1_555
O1 Sc1 2.120337 1_555
O1 Sc1 2.120337 1_545
O2 Sc0 2.120337 1_555
O2 Sc0 2.120337 1_455
O3 Sc1 2.120337 1_555
O3 Sc1 2.120337 1_455
O4 Sc1 1.982577 1_555
O4 Sc0 1.982577 1_555
