# generated using pymatgen
data_Sr2SmNbO6
_symmetry_space_group_name_H-M   'P 1'
_cell_length_a   6.03565000
_cell_length_b   5.89447600
_cell_length_c   10.24870961
_cell_angle_alpha   55.15869545
_cell_angle_beta   90.00000000
_cell_angle_gamma   90.00000000
_symmetry_Int_Tables_number   1
_chemical_formula_structural   Sr2SmNbO6
_chemical_formula_sum   'Sr4 Sm2 Nb2 O12'
_cell_volume   299.25592119
_cell_formula_units_Z   2
loop_
 _symmetry_equiv_pos_site_id
 _symmetry_equiv_pos_as_xyz
  1  'x, y, z'
loop_
 _atom_site_type_symbol
 _atom_site_label
 _atom_site_symmetry_multiplicity
 _atom_site_fract_x
 _atom_site_fract_y
 _atom_site_fract_z
 _atom_site_occupancy
  Sr  Sr0  1  0.95640900  0.74032500  0.74865700  1
  Sr  Sr1  1  0.45640900  0.25967500  0.75134300  1
  Sr  Sr2  1  0.04359100  0.25967500  0.25134300  1
  Sr  Sr3  1  0.54359100  0.74032500  0.24865700  1
  Sm  Sm0  1  0.50000000  0.00000000  0.50000000  1
  Sm  Sm1  1  0.00000000  0.00000000  0.00000000  1
  Nb  Nb0  1  0.50000000  0.50000000  0.00000000  1
  Nb  Nb1  1  0.00000000  0.50000000  0.50000000  1
  O  O0  1  0.22415000  0.36590900  0.94735700  1
  O  O1  1  0.72415000  0.63409100  0.55264300  1
  O  O2  1  0.77585000  0.63409100  0.05264300  1
  O  O3  1  0.27585000  0.36590900  0.44735700  1
  O  O4  1  0.96699100  0.82344300  0.26838600  1
  O  O5  1  0.46699100  0.17655700  0.23161400  1
  O  O6  1  0.03300900  0.17655700  0.73161400  1
  O  O7  1  0.53300900  0.82344300  0.76838600  1
  O  O8  1  0.30985800  0.73080400  0.04562100  1
  O  O9  1  0.80985800  0.26919600  0.45437900  1
  O  O10  1  0.69014200  0.26919600  0.95437900  1
  O  O11  1  0.19014200  0.73080400  0.54562100  1
loop_
_geom_bond_atom_site_label_1
_geom_bond_atom_site_label_2
_geom_bond_distance
_geom_bond_site_symmetry_2
Nb0 O8 2.028139 1_555
Nb0 O10 2.028139 1_554
Nb0 O7 2.034255 1_554
Nb0 O5 2.034255 1_555
Nb0 O2 2.043298 1_555
Nb0 O0 2.043298 1_554
Nb1 O9 2.028139 1_455
Nb1 O11 2.028139 1_555
Nb1 O4 2.034255 1_455
Nb1 O6 2.034255 1_555
Nb1 O1 2.043298 1_455
Nb1 O3 2.043298 1_555
O0 Sm1 2.333184 1_556
O0 Sr0 2.548318 1_455
O0 Sr1 2.798259 1_555
O0 Sr2 3.009448 1_556
O1 Sm0 2.333184 1_565
O1 Sr1 2.548318 1_555
O1 Sr0 2.798259 1_555
O1 Sr3 3.009448 1_555
O2 Sm1 2.333184 1_665
O2 Sr2 2.548318 1_655
O2 Sr3 2.798259 1_555
O2 Sr0 3.009448 1_554
O3 Sm0 2.333184 1_555
O3 Sr3 2.548318 1_555
O3 Sr2 2.798259 1_555
O3 Sr1 3.009448 1_555
O4 Sm1 2.327617 1_665
O4 Sr2 2.518523 1_665
O4 Sr3 2.631476 1_555
O5 Sm0 2.327617 1_555
O5 Sr3 2.518523 1_545
O5 Sr2 2.631476 1_555
O6 Sm1 2.327617 1_556
O6 Sr0 2.518523 1_445
O6 Sr1 2.631476 1_555
O7 Sm0 2.327617 1_565
O7 Sr1 2.518523 1_565
O7 Sr0 2.631476 1_555
O8 Sm1 2.320854 1_565
O8 Sr3 2.541006 1_555
O8 Sr2 2.837249 1_555
O8 Sr1 2.975549 1_564
O9 Sm0 2.320854 1_555
O9 Sr2 2.541006 1_655
O9 Sr3 2.837249 1_555
O9 Sr0 2.975549 1_545
O10 Sm1 2.320854 1_656
O10 Sr1 2.541006 1_555
O10 Sr0 2.837249 1_555
O10 Sr3 2.975549 1_546
O11 Sm0 2.320854 1_565
O11 Sr0 2.541006 1_455
O11 Sr1 2.837249 1_555
O11 Sr2 2.975549 1_565
