# generated using pymatgen
data_CrGaSe3
_symmetry_space_group_name_H-M   'P 1'
_cell_length_a   3.76641143
_cell_length_b   10.26003063
_cell_length_c   12.49218408
_cell_angle_alpha   90.00000000
_cell_angle_beta   90.00000000
_cell_angle_gamma   90.00000000
_symmetry_Int_Tables_number   1
_chemical_formula_structural   CrGaSe3
_chemical_formula_sum   'Cr4 Ga4 Se12'
_cell_volume   482.74167348
_cell_formula_units_Z   4
loop_
 _symmetry_equiv_pos_site_id
 _symmetry_equiv_pos_as_xyz
  1  'x, y, z'
loop_
 _atom_site_type_symbol
 _atom_site_label
 _atom_site_symmetry_multiplicity
 _atom_site_fract_x
 _atom_site_fract_y
 _atom_site_fract_z
 _atom_site_occupancy
  Cr  Cr0  1  0.25000000  0.40383641  0.61046166  1
  Cr  Cr1  1  0.75000000  0.59616359  0.38953834  1
  Cr  Cr2  1  0.25000000  0.90383641  0.88953834  1
  Cr  Cr3  1  0.75000000  0.09616359  0.11046166  1
  Ga  Ga0  1  0.75000000  0.26675881  0.79405342  1
  Ga  Ga1  1  0.25000000  0.73324119  0.20594658  1
  Ga  Ga2  1  0.75000000  0.76675881  0.70594658  1
  Ga  Ga3  1  0.25000000  0.23324119  0.29405342  1
  Se  Se0  1  0.25000000  0.92672059  0.09521555  1
  Se  Se1  1  0.75000000  0.07327941  0.90478445  1
  Se  Se2  1  0.25000000  0.42672059  0.40478445  1
  Se  Se3  1  0.75000000  0.57327941  0.59521555  1
  Se  Se4  1  0.75000000  0.08964872  0.31875217  1
  Se  Se5  1  0.25000000  0.91035128  0.68124783  1
  Se  Se6  1  0.75000000  0.58964872  0.18124783  1
  Se  Se7  1  0.25000000  0.41035128  0.81875217  1
  Se  Se8  1  0.25000000  0.26474656  0.10499726  1
  Se  Se9  1  0.75000000  0.73525344  0.89500274  1
  Se  Se10  1  0.25000000  0.76474656  0.39500274  1
  Se  Se11  1  0.75000000  0.23525344  0.60499726  1
loop_
_geom_bond_atom_site_label_1
_geom_bond_atom_site_label_2
_geom_bond_distance
_geom_bond_site_symmetry_2
Cr0 Se11 2.557903 1_455
Cr0 Se11 2.557903 1_555
Cr0 Se3 2.570036 1_555
Cr0 Se3 2.570036 1_455
Cr0 Se2 2.580063 1_555
Cr0 Se7 2.602862 1_555
Cr1 Se10 2.557903 1_555
Cr1 Se10 2.557903 1_655
Cr1 Se2 2.570036 1_555
Cr1 Se2 2.570036 1_655
Cr1 Se3 2.580063 1_555
Cr1 Se6 2.602862 1_555
Cr2 Se9 2.557903 1_455
Cr2 Se9 2.557903 1_555
Cr2 Se1 2.570036 1_465
Cr2 Se1 2.570036 1_565
Cr2 Se0 2.580063 1_556
Cr2 Se5 2.602862 1_555
Cr3 Se8 2.557903 1_655
Cr3 Se8 2.557903 1_555
Cr3 Se0 2.570036 1_645
Cr3 Se0 2.570036 1_545
Cr3 Se1 2.580063 1_554
Cr3 Se4 2.602862 1_555
Ga0 Se11 2.383743 1_555
Ga0 Se7 2.410843 1_655
Ga0 Se7 2.410843 1_555
Ga0 Se1 2.419521 1_555
Ga1 Se10 2.383743 1_555
Ga1 Se6 2.410843 1_555
Ga1 Se6 2.410843 1_455
Ga1 Se0 2.419521 1_555
Ga2 Se9 2.383743 1_555
Ga2 Se5 2.410843 1_555
Ga2 Se5 2.410843 1_655
Ga2 Se3 2.419521 1_555
Ga3 Se8 2.383743 1_555
Ga3 Se4 2.410843 1_455
Ga3 Se4 2.410843 1_555
Ga3 Se2 2.419521 1_555
