# generated using pymatgen
data_Li6CoNi5O12
_symmetry_space_group_name_H-M   'P 1'
_cell_length_a   4.89213500
_cell_length_b   5.04206359
_cell_length_c   9.87708632
_cell_angle_alpha   95.75731840
_cell_angle_beta   90.64700895
_cell_angle_gamma   117.78485403
_symmetry_Int_Tables_number   1
_chemical_formula_structural   Li6CoNi5O12
_chemical_formula_sum   'Li6 Co1 Ni5 O12'
_cell_volume   213.98870734
_cell_formula_units_Z   1
loop_
 _symmetry_equiv_pos_site_id
 _symmetry_equiv_pos_as_xyz
  1  'x, y, z'
loop_
 _atom_site_type_symbol
 _atom_site_label
 _atom_site_symmetry_multiplicity
 _atom_site_fract_x
 _atom_site_fract_y
 _atom_site_fract_z
 _atom_site_occupancy
  Li  Li0  1  0.14683500  0.50547900  0.24830800  1
  Li  Li1  1  0.52122600  0.83496600  0.75109100  1
  Li  Li2  1  0.18186600  0.15385300  0.74770800  1
  Li  Li3  1  0.81813400  0.84614700  0.25229200  1
  Li  Li4  1  0.47877400  0.16503400  0.24890900  1
  Li  Li5  1  0.85316500  0.49452100  0.75169200  1
  Co  Co0  1  0.00000000  0.00000000  0.00000000  1
  Ni  Ni0  1  0.33775400  0.67188800  0.99999800  1
  Ni  Ni1  1  0.16684300  0.33367400  0.49965800  1
  Ni  Ni2  1  0.50000000  0.00000000  0.50000000  1
  Ni  Ni3  1  0.66224600  0.32811200  0.00000200  1
  Ni  Ni4  1  0.83315700  0.66632600  0.50034200  1
  O  O0  1  0.17509600  0.00167100  0.39059300  1
  O  O1  1  0.15783100  0.66281100  0.60991100  1
  O  O2  1  0.97980900  0.30252400  0.89827800  1
  O  O3  1  0.31435800  0.98450000  0.88725000  1
  O  O4  1  0.68564200  0.01550000  0.11275000  1
  O  O5  1  0.34411900  0.33735800  0.10671900  1
  O  O6  1  0.50809100  0.66963300  0.38999200  1
  O  O7  1  0.49190900  0.33036700  0.61000800  1
  O  O8  1  0.65588100  0.66264200  0.89328100  1
  O  O9  1  0.82490400  0.99832900  0.60940700  1
  O  O10  1  0.02019100  0.69747600  0.10172200  1
  O  O11  1  0.84216900  0.33718900  0.39008900  1
loop_
_geom_bond_atom_site_label_1
_geom_bond_atom_site_label_2
_geom_bond_distance
_geom_bond_site_symmetry_2
Li0 O11 2.002253 1_455
Li0 O6 2.028510 1_555
Li0 O5 2.039903 1_555
Li0 O10 2.058485 1_555
Li1 O8 1.979605 1_555
Li1 O3 1.984935 1_555
Li1 O9 1.995324 1_555
Li1 O1 2.030005 1_555
Li2 O3 1.944431 1_545
Li2 O7 1.993339 1_555
Li2 O9 1.996249 1_445
Li2 O2 2.061826 1_455
Li3 O4 1.944431 1_565
Li3 O6 1.993339 1_555
Li3 O0 1.996249 1_665
Li3 O10 2.061826 1_655
Li4 O5 1.979605 1_555
Li4 O4 1.984935 1_555
Li4 O0 1.995324 1_555
Li4 O11 2.030005 1_555
Li5 O1 2.002253 1_655
Li5 O7 2.028510 1_555
Li5 O8 2.039903 1_555
Li5 O2 2.058485 1_555
Co0 O3 1.935111 1_544
Co0 O4 1.935111 1_455
Co0 O5 1.941388 1_555
Co0 O8 1.941388 1_444
Co0 O10 1.947201 1_545
Co0 O2 1.947201 1_454
Ni0 O8 1.905299 1_555
Ni0 O10 1.906779 1_556
Ni0 O4 1.989840 1_566
Ni0 O2 2.022035 1_455
Ni0 O3 2.062807 1_555
Ni0 O5 2.088552 1_556
Ni1 O1 1.910125 1_555
Ni1 O0 1.914809 1_555
Ni1 O11 1.919803 1_455
Ni1 O7 1.925204 1_555
Ni1 O6 2.145266 1_555
Ni1 O9 2.145687 1_445
Ni2 O7 1.912107 1_555
Ni2 O6 1.912107 1_545
Ni2 O9 1.915663 1_545
Ni2 O0 1.915663 1_555
Ni2 O1 2.151537 1_545
Ni2 O11 2.151537 1_555
Ni3 O5 1.905299 1_555
Ni3 O2 1.906779 1_554
Ni3 O3 1.989840 1_544
Ni3 O10 2.022035 1_655
Ni3 O4 2.062807 1_555
Ni3 O8 2.088552 1_554
Ni4 O11 1.910125 1_555
Ni4 O9 1.914809 1_555
Ni4 O1 1.919803 1_655
Ni4 O6 1.925204 1_555
Ni4 O7 2.145266 1_555
Ni4 O0 2.145687 1_665
