# generated using pymatgen
data_Mn3VSn2(PO4)6
_symmetry_space_group_name_H-M   'P 1'
_cell_length_a   8.87510521
_cell_length_b   8.87510521
_cell_length_c   8.87510570
_cell_angle_alpha   58.95444870
_cell_angle_beta   58.95444870
_cell_angle_gamma   58.95444881
_symmetry_Int_Tables_number   1
_chemical_formula_structural   Mn3VSn2(PO4)6
_chemical_formula_sum   'Mn3 V1 Sn2 P6 O24'
_cell_volume   482.52466019
_cell_formula_units_Z   1
loop_
 _symmetry_equiv_pos_site_id
 _symmetry_equiv_pos_as_xyz
  1  'x, y, z'
loop_
 _atom_site_type_symbol
 _atom_site_label
 _atom_site_symmetry_multiplicity
 _atom_site_fract_x
 _atom_site_fract_y
 _atom_site_fract_z
 _atom_site_occupancy
  Mn  Mn0  1  0.65191200  0.65191200  0.65191200  1
  Mn  Mn1  1  0.85141100  0.85141100  0.85141100  1
  Mn  Mn2  1  0.34949800  0.34949800  0.34949800  1
  V  V0  1  0.14546100  0.14546100  0.14546100  1
  Sn  Sn0  1  0.99499600  0.99499600  0.99499600  1
  Sn  Sn1  1  0.49906600  0.49906600  0.49906600  1
  P  P0  1  0.53708000  0.95111100  0.24815000  1
  P  P1  1  0.24815000  0.53708000  0.95111100  1
  P  P2  1  0.95111100  0.24815000  0.53708000  1
  P  P3  1  0.05274900  0.75363000  0.45833900  1
  P  P4  1  0.75363000  0.45833900  0.05274900  1
  P  P5  1  0.45833900  0.05274900  0.75363000  1
  O  O0  1  0.31418900  0.51361700  0.09061800  1
  O  O1  1  0.09061800  0.31418900  0.51361700  1
  O  O2  1  0.51361700  0.09061800  0.31418900  1
  O  O3  1  0.72987700  0.92702300  0.08413700  1
  O  O4  1  0.37888100  0.00980100  0.18221800  1
  O  O5  1  0.54230600  0.75315200  0.40749200  1
  O  O6  1  0.08413700  0.72987700  0.92702300  1
  O  O7  1  0.40749200  0.54230600  0.75315200  1
  O  O8  1  0.00930100  0.80808300  0.61792500  1
  O  O9  1  0.75315200  0.40749200  0.54230600  1
  O  O10  1  0.08276100  0.91902200  0.26710500  1
  O  O11  1  0.80808300  0.61792500  0.00930100  1
  O  O12  1  0.18221800  0.37888100  0.00980100  1
  O  O13  1  0.92702300  0.08413700  0.72987700  1
  O  O14  1  0.25217600  0.59357000  0.44078500  1
  O  O15  1  0.00980100  0.18221800  0.37888100  1
  O  O16  1  0.59357000  0.44078500  0.25217600  1
  O  O17  1  0.91902200  0.26710500  0.08276100  1
  O  O18  1  0.44078500  0.25217600  0.59357000  1
  O  O19  1  0.61792500  0.00930100  0.80808300  1
  O  O20  1  0.26710500  0.08276100  0.91902200  1
  O  O21  1  0.47650200  0.90817200  0.69789700  1
  O  O22  1  0.90817200  0.69789700  0.47650200  1
  O  O23  1  0.69789700  0.47650200  0.90817200  1
loop_
_geom_bond_atom_site_label_1
_geom_bond_atom_site_label_2
_geom_bond_distance
_geom_bond_site_symmetry_2
Mn0 O22 2.100674 1_555
Mn0 O21 2.100674 1_555
Mn0 O23 2.100674 1_555
Mn0 O7 2.392460 1_555
Mn0 O9 2.392460 1_555
Mn0 O5 2.392461 1_555
Mn1 O11 1.917446 1_556
Mn1 O19 1.917446 1_565
Mn1 O8 1.917446 1_655
Mn1 O13 2.065203 1_565
Mn1 O6 2.065203 1_655
Mn1 O3 2.065203 1_556
Mn2 O1 2.078156 1_555
Mn2 O2 2.078156 1_555
Mn2 O0 2.078156 1_555
Mn2 O16 2.291998 1_555
Mn2 O14 2.291998 1_555
Mn2 O18 2.291998 1_555
O0 P1 1.508822 1_554
O1 P2 1.508822 1_455
O2 P0 1.508822 1_545
O3 P0 1.570685 1_555
O3 Sn0 2.361785 1_554
O4 P0 1.537443 1_545
O4 V0 1.888639 1_555
O5 P0 1.584198 1_555
O5 Sn1 2.138586 1_555
O6 P1 1.570685 1_555
O6 Sn0 2.361785 1_455
O7 P1 1.584198 1_555
O7 Sn1 2.138587 1_555
O8 P3 1.529296 1_555
O9 P2 1.584198 1_555
O9 Sn1 2.138586 1_555
O10 P3 1.572742 1_555
O10 V0 1.951907 1_565
O10 Sn0 2.571482 1_454
O11 P4 1.529296 1_555
O12 P1 1.537443 1_554
O12 V0 1.888639 1_555
O13 P2 1.570685 1_555
O13 Sn0 2.361785 1_545
O14 P3 1.589161 1_555
O14 Sn1 2.144346 1_555
O15 P2 1.537443 1_455
O15 V0 1.888639 1_555
O16 P4 1.589161 1_555
O16 Sn1 2.144347 1_555
O17 P4 1.572742 1_555
O17 V0 1.951907 1_655
O17 Sn0 2.571482 1_544
O18 P5 1.589161 1_555
O18 Sn1 2.144346 1_555
O19 P5 1.529296 1_555
O20 P5 1.572742 1_555
O20 V0 1.951907 1_556
O20 Sn0 2.571482 1_445
O21 P5 1.508689 1_565
O22 P3 1.508689 1_655
O23 P4 1.508689 1_556
