# generated using pymatgen
data_Li9Mn7V12O48
_symmetry_space_group_name_H-M   'P 1'
_cell_length_a   5.02933600
_cell_length_b   10.20009905
_cell_length_c   17.15220124
_cell_angle_alpha   90.02997901
_cell_angle_beta   90.57636135
_cell_angle_gamma   90.04430269
_symmetry_Int_Tables_number   1
_chemical_formula_structural   Li9Mn7V12O48
_chemical_formula_sum   'Li9 Mn7 V12 O48'
_cell_volume   879.85830669
_cell_formula_units_Z   1
loop_
 _symmetry_equiv_pos_site_id
 _symmetry_equiv_pos_as_xyz
  1  'x, y, z'
loop_
 _atom_site_type_symbol
 _atom_site_label
 _atom_site_symmetry_multiplicity
 _atom_site_fract_x
 _atom_site_fract_y
 _atom_site_fract_z
 _atom_site_occupancy
  Li  Li0  1  0.09735100  0.74946700  0.74933300  1
  Li  Li1  1  0.24777700  0.58252900  0.03231000  1
  Li  Li2  1  0.25714500  0.42044400  0.52794000  1
  Li  Li3  1  0.25865000  0.07940900  0.52753100  1
  Li  Li4  1  0.24493400  0.74464700  0.19579700  1
  Li  Li5  1  0.74852000  0.24671200  0.80823500  1
  Li  Li6  1  0.75388900  0.08129600  0.97062400  1
  Li  Li7  1  0.75260600  0.74730000  0.29909400  1
  Li  Li8  1  0.90216700  0.24981100  0.25147500  1
  Mn  Mn0  1  0.20361500  0.24856200  0.69961400  1
  Mn  Mn1  1  0.23785100  0.93472500  0.02543200  1
  Mn  Mn2  1  0.40396600  0.25067500  0.24946900  1
  Mn  Mn3  1  0.59726200  0.75034100  0.75150900  1
  Mn  Mn4  1  0.76001600  0.93211800  0.47248600  1
  Mn  Mn5  1  0.75822400  0.56741700  0.47266700  1
  Mn  Mn6  1  0.76398000  0.43341700  0.97746800  1
  V  V0  1  0.22533900  0.25286800  0.05643000  1
  V  V1  1  0.22529600  0.97146700  0.34496300  1
  V  V2  1  0.22410400  0.52847300  0.34520500  1
  V  V3  1  0.28867400  0.47508300  0.84690600  1
  V  V4  1  0.28574700  0.02441000  0.84284500  1
  V  V5  1  0.28765900  0.74972700  0.55621100  1
  V  V6  1  0.71239400  0.24959700  0.44100200  1
  V  V7  1  0.71644200  0.52492600  0.15810400  1
  V  V8  1  0.71307100  0.97525200  0.15365400  1
  V  V9  1  0.77338000  0.47220900  0.65651300  1
  V  V10  1  0.77544600  0.02702300  0.65605100  1
  V  V11  1  0.77299700  0.75249700  0.94432700  1
  O  O0  1  0.06298400  0.76639100  0.00477000  1
  O  O1  1  0.06593500  0.38513600  0.63129700  1
  O  O2  1  0.06636000  0.11577300  0.62975200  1
  O  O3  1  0.10516100  0.37389300  0.78722800  1
  O  O4  1  0.08663800  0.12452000  0.78349600  1
  O  O5  1  0.07915700  0.88093900  0.53413500  1
  O  O6  1  0.07821100  0.61908800  0.53399600  1
  O  O7  1  0.08704700  0.98875100  0.92626600  1
  O  O8  1  0.06986800  0.50655500  0.92517700  1
  O  O9  1  0.17270500  0.25265000  0.15726400  1
  O  O10  1  0.17566600  0.37607000  0.29618100  1
  O  O11  1  0.17324600  0.12187800  0.29534300  1
  O  O12  1  0.36455400  0.87701000  0.79227800  1
  O  O13  1  0.36508400  0.62020500  0.79625200  1
  O  O14  1  0.36802300  0.74853400  0.65536300  1
  O  O15  1  0.43845300  0.50170400  0.42726400  1
  O  O16  1  0.44151900  0.99720500  0.42667800  1
  O  O17  1  0.40047200  0.10854800  0.03383700  1
  O  O18  1  0.44780200  0.37596900  0.03241800  1
  O  O19  1  0.39662100  0.87428800  0.28765700  1
  O  O20  1  0.40621300  0.62596000  0.29142500  1
  O  O21  1  0.41960200  0.88897700  0.11968300  1
  O  O22  1  0.44794600  0.61245500  0.12953800  1
  O  O23  1  0.44963900  0.24988100  0.50030000  1
  O  O24  1  0.58342800  0.74975300  0.49131500  1
  O  O25  1  0.57602300  0.39028600  0.87922800  1
  O  O26  1  0.55660200  0.10887400  0.87051900  1
  O  O27  1  0.57070500  0.37393600  0.70839100  1
  O  O28  1  0.56776500  0.12485600  0.70558900  1
  O  O29  1  0.55464900  0.87632500  0.96766600  1
  O  O30  1  0.59983400  0.60782400  0.96592700  1
  O  O31  1  0.59695900  0.98448400  0.57032500  1
  O  O32  1  0.59551100  0.51474800  0.57076200  1
  O  O33  1  0.62750200  0.24822900  0.34168900  1
  O  O34  1  0.63399900  0.37583200  0.20787100  1
  O  O35  1  0.63318700  0.12109500  0.20371900  1
  O  O36  1  0.82809000  0.87755700  0.70761900  1
  O  O37  1  0.82857300  0.62012700  0.70878700  1
  O  O38  1  0.82480800  0.75302700  0.84217300  1
  O  O39  1  0.91984000  0.48737000  0.07167900  1
  O  O40  1  0.93175200  0.00830400  0.07289800  1
  O  O41  1  0.90810600  0.39412900  0.46251900  1
  O  O42  1  0.90920400  0.10563100  0.46271400  1
  O  O43  1  0.89094400  0.87944300  0.21184300  1
  O  O44  1  0.91762300  0.61775300  0.21464900  1
  O  O45  1  0.92616000  0.88784000  0.37830000  1
  O  O46  1  0.92518900  0.61213100  0.37898200  1
  O  O47  1  0.93614200  0.26566800  0.99404700  1
loop_
_geom_bond_atom_site_label_1
_geom_bond_atom_site_label_2
_geom_bond_distance
_geom_bond_site_symmetry_2
Li0 O12 2.004339 1_555
Li0 O37 2.007192 1_455
Li0 O36 2.009237 1_455
Li0 O13 2.044803 1_555
Li0 O38 2.111839 1_455
Li0 O14 2.120201 1_555
Li1 O22 1.962908 1_555
Li1 O39 2.034437 1_455
Li1 O30 2.130315 1_554
Li1 O0 2.144493 1_555
Li1 O8 2.177648 1_554
Li1 O18 2.335473 1_555
Li2 O23 2.049329 1_555
Li2 O1 2.057120 1_555
Li2 O32 2.081419 1_555
Li2 O41 2.090948 1_455
Li2 O15 2.128942 1_555
Li2 O6 2.220487 1_555
Li3 O23 2.042458 1_555
Li3 O2 2.044736 1_555
Li3 O31 2.085530 1_545
Li3 O42 2.087584 1_455
Li3 O16 2.138457 1_545
Li3 O5 2.219341 1_545
Li4 O22 2.043539 1_555
Li4 O44 2.120739 1_455
Li4 O21 2.160205 1_555
Li4 O19 2.187510 1_555
Li4 O20 2.188769 1_555
Li4 O43 2.269147 1_455
Li5 O26 2.017394 1_555
Li5 O25 2.097955 1_555
Li5 O4 2.154638 1_655
Li5 O3 2.244960 1_655
Li5 O27 2.321614 1_555
Li5 O28 2.331270 1_555
Li6 O26 1.994607 1_555
Li6 O7 2.074802 1_645
Li6 O40 2.098246 1_556
Li6 O17 2.109836 1_556
Li6 O47 2.127774 1_555
Li6 O29 2.318065 1_545
Li7 O46 2.124100 1_555
Li7 O44 2.134630 1_555
Li7 O43 2.135904 1_555
Li7 O20 2.139169 1_555
Li7 O45 2.152840 1_555
Li7 O19 2.217761 1_555
Li8 O34 2.003519 1_555
Li8 O11 2.027524 1_655
Li8 O10 2.028206 1_655
Li8 O35 2.049045 1_555
Li8 O33 2.084664 1_555
Li8 O9 2.123107 1_655
Mn0 O2 1.930592 1_555
Mn0 O1 1.944241 1_555
Mn0 O4 2.008673 1_555
Mn0 O3 2.037578 1_555
Mn0 O28 2.226377 1_555
Mn0 O27 2.248809 1_555
Mn1 O40 1.903273 1_465
Mn1 O21 1.907474 1_555
Mn1 O7 1.935898 1_554
Mn1 O17 1.956628 1_565
Mn1 O0 1.959077 1_555
Mn1 O29 1.976795 1_554
Mn2 O34 1.868835 1_555
Mn2 O10 1.901566 1_555
Mn2 O11 1.925768 1_555
Mn2 O35 1.926455 1_555
Mn2 O33 1.931542 1_555
Mn2 O9 1.953829 1_555
Mn3 O12 1.883073 1_555
Mn3 O36 1.901189 1_555
Mn3 O37 1.916494 1_555
Mn3 O38 1.921669 1_555
Mn3 O13 1.931626 1_555
Mn3 O14 2.002706 1_555
Mn4 O45 1.881224 1_555
Mn4 O16 1.897582 1_555
Mn4 O42 1.929825 1_565
Mn4 O31 1.949729 1_555
Mn4 O5 1.983586 1_655
Mn4 O24 2.087350 1_555
Mn5 O46 1.876862 1_555
Mn5 O15 1.901251 1_555
Mn5 O41 1.930583 1_555
Mn5 O32 1.953770 1_555
Mn5 O6 1.984515 1_655
Mn5 O24 2.083681 1_555
Mn6 O39 1.871216 1_556
Mn6 O8 1.937622 1_655
Mn6 O47 1.938076 1_555
Mn6 O18 1.946693 1_556
Mn6 O30 1.970988 1_555
Mn6 O25 1.973070 1_555
O0 V11 1.786352 1_454
O1 V9 1.776287 1_455
O2 V10 1.781938 1_455
O3 V3 1.715620 1_555
O4 V4 1.750400 1_555
O5 V5 1.740390 1_555
O6 V5 1.737719 1_555
O7 V4 1.790823 1_565
O8 V3 1.773758 1_555
O9 V0 1.752298 1_555
O10 V2 1.782381 1_555
O11 V1 1.773184 1_545
O12 V4 1.782226 1_565
O13 V3 1.760935 1_555
O14 V5 1.744134 1_555
O15 V2 1.785518 1_555
O16 V1 1.784505 1_555
O17 V0 1.761044 1_555
O18 V0 1.733698 1_555
O19 V1 1.645743 1_555
O20 V2 1.641673 1_555
O21 V8 1.809014 1_555
O22 V7 1.688089 1_555
O23 V6 1.675662 1_555
O24 V5 1.866827 1_555
O25 V3 1.769270 1_555
O26 V4 1.675696 1_555
O27 V9 1.689140 1_555
O28 V10 1.681469 1_555
O29 V11 1.723935 1_555
O30 V11 1.754544 1_555
O31 V10 1.768702 1_565
O32 V9 1.768225 1_555
O33 V6 1.752002 1_555
O34 V7 1.794668 1_555
O35 V8 1.765883 1_545
O36 V10 1.781595 1_565
O37 V9 1.774912 1_555
O38 V11 1.774037 1_555
O39 V7 1.849636 1_555
O40 V8 1.808991 1_545
O41 V6 1.807850 1_555
O42 V6 1.808380 1_555
O43 V8 1.654047 1_555
O44 V7 1.684854 1_555
O45 V1 1.825868 1_655
O46 V2 1.828342 1_655
O47 V0 1.801824 1_656
