# generated using pymatgen
data_La2Ti2O7
_symmetry_space_group_name_H-M   'P 1'
_cell_length_a   12.94738024
_cell_length_b   12.94738024
_cell_length_c   5.56971758
_cell_angle_alpha   90.00000000
_cell_angle_beta   90.00000000
_cell_angle_gamma   162.61405211
_symmetry_Int_Tables_number   1
_chemical_formula_structural   La2Ti2O7
_chemical_formula_sum   'La4 Ti4 O14'
_cell_volume   278.98919518
_cell_formula_units_Z   2
loop_
 _symmetry_equiv_pos_site_id
 _symmetry_equiv_pos_as_xyz
  1  'x, y, z'
loop_
 _atom_site_type_symbol
 _atom_site_label
 _atom_site_symmetry_multiplicity
 _atom_site_fract_x
 _atom_site_fract_y
 _atom_site_fract_z
 _atom_site_occupancy
  La  La0  1  0.29760363  0.70239637  0.66218711  1
  La  La1  1  0.70239637  0.29760363  0.16218711  1
  La  La2  1  0.44724350  0.55275650  0.24452334  1
  La  La3  1  0.55275650  0.44724350  0.74452334  1
  Ti  Ti0  1  0.83729533  0.16270467  0.20353185  1
  Ti  Ti1  1  0.16270467  0.83729533  0.70353185  1
  Ti  Ti2  1  0.93973541  0.06026459  0.74102735  1
  Ti  Ti3  1  0.06026459  0.93973541  0.24102735  1
  O  O0  1  0.78040884  0.21959116  0.41847340  1
  O  O1  1  0.21959116  0.78040884  0.91847340  1
  O  O2  1  0.88313606  0.11686394  0.55056089  1
  O  O3  1  0.11686394  0.88313606  0.05056089  1
  O  O4  1  0.34662904  0.65337096  0.24321303  1
  O  O5  1  0.65337096  0.34662904  0.74321303  1
  O  O6  1  0.45065198  0.54934802  0.76859641  1
  O  O7  1  0.54934802  0.45065198  0.26859641  1
  O  O8  1  0.98903570  0.01096430  0.47623307  1
  O  O9  1  0.01096430  0.98903570  0.97623307  1
  O  O10  1  0.09207168  0.90792832  0.55961533  1
  O  O11  1  0.90792832  0.09207168  0.05961533  1
  O  O12  1  0.20243435  0.79756565  0.43643725  1
  O  O13  1  0.79756565  0.20243435  0.93643725  1
loop_
_geom_bond_atom_site_label_1
_geom_bond_atom_site_label_2
_geom_bond_distance
_geom_bond_site_symmetry_2
La0 O0 2.421902 1_455
La0 O0 2.421902 1_565
La0 O1 2.454635 1_555
La0 O13 2.482449 1_455
La0 O13 2.482449 1_565
La0 O4 2.649595 1_555
La0 O12 2.741428 1_555
La0 O2 3.001553 1_455
La0 O2 3.001553 1_565
La1 O1 2.421902 1_654
La1 O1 2.421902 1_544
La1 O0 2.454635 1_555
La1 O12 2.482449 1_545
La1 O12 2.482449 1_655
La1 O5 2.649595 1_554
La1 O13 2.741428 1_554
La1 O3 3.001553 1_655
La1 O3 3.001553 1_545
La2 O11 2.429555 1_455
La2 O11 2.429555 1_565
La2 O4 2.575468 1_555
La2 O8 2.576674 1_455
La2 O8 2.576674 1_565
La2 O7 2.617036 1_555
La2 O6 2.652214 1_554
La2 O6 2.920243 1_555
La2 O9 2.953416 1_544
La2 O9 2.953416 1_654
La2 O2 3.070436 1_455
La2 O2 3.070436 1_565
La3 O10 2.429555 1_545
La3 O10 2.429555 1_655
La3 O5 2.575468 1_555
La3 O9 2.576674 1_545
La3 O9 2.576674 1_655
La3 O6 2.617036 1_555
La3 O7 2.652214 1_555
La3 O7 2.920243 1_556
La3 O8 2.953416 1_455
La3 O8 2.953416 1_565
La3 O3 3.070436 1_546
La3 O3 3.070436 1_656
O0 Ti0 1.885085 1_555
O1 Ti1 1.885085 1_555
O2 Ti2 1.795657 1_555
O2 Ti0 2.261147 1_555
O3 Ti3 1.795657 1_555
O3 Ti1 2.261147 1_554
O4 Ti0 1.983743 1_455
O4 Ti0 1.983743 1_565
O5 Ti1 1.983743 1_545
O5 Ti1 1.983743 1_655
O6 Ti2 1.982667 1_455
O6 Ti2 1.982667 1_565
O7 Ti3 1.982667 1_655
O7 Ti3 1.982667 1_545
O8 Ti2 1.941043 1_555
O8 Ti3 2.245101 1_645
O9 Ti3 1.941043 1_556
O9 Ti2 2.245101 1_465
O10 Ti3 1.952316 1_555
O10 Ti1 1.977734 1_555
O11 Ti2 1.952316 1_554
O11 Ti0 1.977734 1_555
O12 Ti1 1.802029 1_555
O13 Ti0 1.802029 1_556
