# generated using pymatgen
data_Mn3VNi2(PO4)6
_symmetry_space_group_name_H-M   'P 1'
_cell_length_a   8.47032864
_cell_length_b   8.58563098
_cell_length_c   8.58563214
_cell_angle_alpha   60.00000310
_cell_angle_beta   59.54866958
_cell_angle_gamma   59.54866465
_symmetry_Int_Tables_number   1
_chemical_formula_structural   Mn3VNi2(PO4)6
_chemical_formula_sum   'Mn3 V1 Ni2 P6 O24'
_cell_volume   438.46317413
_cell_formula_units_Z   1
loop_
 _symmetry_equiv_pos_site_id
 _symmetry_equiv_pos_as_xyz
  1  'x, y, z'
loop_
 _atom_site_type_symbol
 _atom_site_label
 _atom_site_symmetry_multiplicity
 _atom_site_fract_x
 _atom_site_fract_y
 _atom_site_fract_z
 _atom_site_occupancy
  Mn  Mn0  1  0.07442800  0.64185700  0.64185700  1
  Mn  Mn1  1  0.42757200  0.85747600  0.85747600  1
  Mn  Mn2  1  0.92704600  0.35765200  0.35765200  1
  V  V0  1  0.57311900  0.14229400  0.14229400  1
  Ni  Ni0  1  0.00011900  0.99996000  0.99996000  1
  Ni  Ni1  1  0.50183100  0.49939000  0.49939000  1
  P  P0  1  0.25003400  0.24908700  0.54406200  1
  P  P1  1  0.25003400  0.95681700  0.24908700  1
  P  P2  1  0.25003400  0.54406200  0.95681700  1
  P  P3  1  0.74980600  0.45798600  0.04324100  1
  P  P4  1  0.74980600  0.04324100  0.74896600  1
  P  P5  1  0.74980600  0.74896600  0.45798600  1
  O  O0  1  0.06282800  0.11493200  0.31027200  1
  O  O1  1  0.06282800  0.51196800  0.11493200  1
  O  O2  1  0.06282800  0.31027200  0.51196800  1
  O  O3  1  0.22859800  0.08652100  0.74244200  1
  O  O4  1  0.43412600  0.18079600  0.38348200  1
  O  O5  1  0.27993500  0.40938600  0.55159000  1
  O  O6  1  0.22859800  0.94243900  0.08652100  1
  O  O7  1  0.27993500  0.75908900  0.40938600  1
  O  O8  1  0.56292400  0.61721000  0.00954700  1
  O  O9  1  0.27993500  0.55159000  0.75908900  1
  O  O10  1  0.76709000  0.25823400  0.06096300  1
  O  O11  1  0.56292400  0.00954700  0.81031800  1
  O  O12  1  0.43412600  0.00159500  0.18079600  1
  O  O13  1  0.22859800  0.74244200  0.94243900  1
  O  O14  1  0.72567800  0.44117800  0.24340300  1
  O  O15  1  0.43412600  0.38348200  0.00159500  1
  O  O16  1  0.72567800  0.24340300  0.58974100  1
  O  O17  1  0.76709000  0.06096300  0.91371300  1
  O  O18  1  0.72567800  0.58974100  0.44117800  1
  O  O19  1  0.56292400  0.81031800  0.61721000  1
  O  O20  1  0.76709000  0.91371300  0.25823400  1
  O  O21  1  0.93761000  0.68857000  0.48789100  1
  O  O22  1  0.93761000  0.48789100  0.88592900  1
  O  O23  1  0.93761000  0.88592900  0.68857000  1
loop_
_geom_bond_atom_site_label_1
_geom_bond_atom_site_label_2
_geom_bond_distance
_geom_bond_site_symmetry_2
Mn0 O21 1.950079 1_455
Mn0 O22 1.950083 1_455
Mn0 O23 1.950086 1_455
Mn0 O5 2.066924 1_555
Mn0 O7 2.066928 1_555
Mn0 O9 2.066930 1_555
Mn1 O11 1.923827 1_565
Mn1 O8 1.923831 1_556
Mn1 O19 1.923834 1_555
Mn1 O3 2.017087 1_565
Mn1 O13 2.017087 1_555
Mn1 O6 2.017087 1_556
Mn2 O2 1.942928 1_655
Mn2 O1 1.942935 1_655
Mn2 O0 1.942943 1_655
Mn2 O18 2.034267 1_555
Mn2 O16 2.034274 1_555
Mn2 O14 2.034279 1_555
Ni0 O13 2.159538 1_555
Ni0 O3 2.159541 1_565
Ni0 O6 2.159544 1_556
Ni0 O17 2.182760 1_465
Ni0 O20 2.182763 1_456
Ni0 O10 2.182765 1_466
Ni1 O18 2.142236 1_555
Ni1 O16 2.142240 1_555
Ni1 O14 2.142242 1_555
Ni1 O9 2.145373 1_555
Ni1 O7 2.145376 1_555
Ni1 O5 2.145379 1_555
O0 P1 1.523194 1_545
O1 P2 1.523195 1_554
O2 P0 1.523194 1_555
O3 P0 1.564660 1_555
O4 P0 1.542266 1_555
O4 V0 1.897968 1_555
O5 P0 1.556051 1_555
O6 P1 1.564660 1_555
O7 P1 1.556051 1_555
O8 P3 1.527579 1_555
O9 P2 1.556052 1_555
O10 P3 1.578904 1_555
O10 V0 1.994407 1_555
O11 P4 1.527579 1_555
O12 P1 1.542261 1_545
O12 V0 1.897982 1_555
O13 P2 1.564660 1_555
O14 P3 1.562625 1_555
O15 P2 1.542263 1_554
O15 V0 1.897975 1_555
O16 P4 1.562621 1_555
O17 P4 1.578913 1_555
O17 V0 1.994414 1_556
O18 P5 1.562616 1_555
O19 P5 1.527579 1_555
O20 P5 1.578908 1_555
O20 V0 1.994410 1_565
O21 P5 1.519896 1_555
O22 P3 1.519894 1_556
O23 P4 1.519891 1_565
