# generated using pymatgen
data_BeVCo2
_symmetry_space_group_name_H-M   'P 1'
_cell_length_a   3.86747325
_cell_length_b   3.86747325
_cell_length_c   3.86747325
_cell_angle_alpha   59.99811032
_cell_angle_beta   59.99811032
_cell_angle_gamma   59.99811032
_symmetry_Int_Tables_number   1
_chemical_formula_structural   BeVCo2
_chemical_formula_sum   'Be1 V1 Co2'
_cell_volume   40.90235842
_cell_formula_units_Z   1
loop_
 _symmetry_equiv_pos_site_id
 _symmetry_equiv_pos_as_xyz
  1  'x, y, z'
loop_
 _atom_site_type_symbol
 _atom_site_label
 _atom_site_symmetry_multiplicity
 _atom_site_fract_x
 _atom_site_fract_y
 _atom_site_fract_z
 _atom_site_occupancy
  Be  Be0  1  0.24999801  0.24999801  0.24999801  1
  V  V0  1  0.75000154  0.75000154  0.75000154  1
  Co  Co0  1  0.50002725  0.50002725  0.50002725  1
  Co  Co1  1  0.99997420  0.99997420  0.99997420  1
loop_
_geom_bond_atom_site_label_1
_geom_bond_atom_site_label_2
_geom_bond_distance
_geom_bond_site_symmetry_2
Be0 Co0 2.368185 1_455
Be0 Co0 2.368185 1_545
Be0 Co0 2.368185 1_554
Be0 Co1 2.368202 1_544
Be0 Co1 2.368202 1_454
Be0 Co1 2.368202 1_445
Be0 Co1 2.368593 1_444
Be0 Co0 2.368645 1_555
Co0 V0 2.368124 1_555
Co0 V0 2.368359 1_554
Co0 V0 2.368359 1_545
Co0 V0 2.368359 1_455
Co1 V0 2.368109 1_555
Co1 V0 2.368364 1_565
Co1 V0 2.368364 1_556
Co1 V0 2.368364 1_655
