# generated using pymatgen
data_Ba9La5Br33
_symmetry_space_group_name_H-M   'P 1'
_cell_length_a   12.24150400
_cell_length_b   12.28783351
_cell_length_c   23.49405107
_cell_angle_alpha   99.96532803
_cell_angle_beta   99.56563558
_cell_angle_gamma   108.49781304
_symmetry_Int_Tables_number   1
_chemical_formula_structural   Ba9La5Br33
_chemical_formula_sum   'Ba18 La10 Br66'
_cell_volume   3207.06690799
_cell_formula_units_Z   2
loop_
 _symmetry_equiv_pos_site_id
 _symmetry_equiv_pos_as_xyz
  1  'x, y, z'
loop_
 _atom_site_type_symbol
 _atom_site_label
 _atom_site_symmetry_multiplicity
 _atom_site_fract_x
 _atom_site_fract_y
 _atom_site_fract_z
 _atom_site_occupancy
  Ba  Ba0  1  0.92381500  0.25409800  0.92851400  1
  Ba  Ba1  1  0.31983600  0.09250700  0.96566200  1
  Ba  Ba2  1  0.47252600  0.02281200  0.19479000  1
  Ba  Ba3  1  0.86883900  0.26632900  0.33939700  1
  Ba  Ba4  1  0.25051000  0.12513800  0.37667200  1
  Ba  Ba5  1  0.67669600  0.39823600  0.53998600  1
  Ba  Ba6  1  0.07528700  0.24328400  0.56483700  1
  Ba  Ba7  1  0.75801500  0.35985700  0.12215000  1
  Ba  Ba8  1  0.13680000  0.22978800  0.16065900  1
  Ba  Ba9  1  0.86320000  0.77021200  0.83934100  1
  Ba  Ba10  1  0.24198500  0.64014300  0.87785000  1
  Ba  Ba11  1  0.92471300  0.75671600  0.43516300  1
  Ba  Ba12  1  0.32330400  0.60176400  0.46001400  1
  Ba  Ba13  1  0.74949000  0.87486200  0.62332800  1
  Ba  Ba14  1  0.13116100  0.73367100  0.66060300  1
  Ba  Ba15  1  0.52747400  0.97718800  0.80521000  1
  Ba  Ba16  1  0.68016400  0.90749300  0.03433800  1
  Ba  Ba17  1  0.07618500  0.74590200  0.07148600  1
  La  La0  1  0.38107000  0.04490600  0.58659000  1
  La  La1  1  0.18261500  0.14166000  0.76466500  1
  La  La2  1  0.85703700  0.35091900  0.73258500  1
  La  La3  1  0.62535100  0.45779000  0.92595800  1
  La  La4  1  0.46211500  0.53465800  0.68693000  1
  La  La5  1  0.53788500  0.46534200  0.31307000  1
  La  La6  1  0.37464900  0.54221000  0.07404200  1
  La  La7  1  0.14296300  0.64908100  0.26741500  1
  La  La8  1  0.81738500  0.85834000  0.23533500  1
  La  La9  1  0.61893000  0.95509400  0.41341000  1
  Br  Br0  1  0.77204200  0.14073600  0.78316300  1
  Br  Br1  1  0.95106200  0.15455800  0.67545800  1
  Br  Br2  1  0.62122800  0.21093200  0.91898300  1
  Br  Br3  1  0.74254000  0.04797700  0.19433800  1
  Br  Br4  1  0.15860000  0.01439800  0.63600600  1
  Br  Br5  1  0.06474500  0.07929800  0.87285800  1
  Br  Br6  1  0.65355700  0.18344400  0.62860000  1
  Br  Br7  1  0.43649800  0.17939500  0.73696300  1
  Br  Br8  1  0.80847800  0.22094000  0.47494700  1
  Br  Br9  1  0.58024800  0.11643400  0.33976000  1
  Br  Br10  1  0.47821000  0.11818900  0.47551000  1
  Br  Br11  1  0.15990100  0.03817500  0.48842900  1
  Br  Br12  1  0.35841900  0.29947200  0.87861300  1
  Br  Br13  1  0.88725100  0.18517500  0.06095700  1
  Br  Br14  1  0.81725100  0.45383700  0.85442600  1
  Br  Br15  1  0.55044300  0.10546200  0.07322500  1
  Br  Br16  1  0.94428000  0.42918300  0.62596100  1
  Br  Br17  1  0.23962900  0.03567000  0.09338600  1
  Br  Br18  1  0.39677900  0.30204600  0.59027300  1
  Br  Br19  1  0.98151800  0.38171600  0.22663400  1
  Br  Br20  1  0.35247100  0.21295600  0.26355900  1
  Br  Br21  1  0.65718600  0.31711700  0.24187200  1
  Br  Br22  1  0.03304300  0.11669700  0.27485500  1
  Br  Br23  1  0.25003300  0.35906000  0.71070200  1
  Br  Br24  1  0.70299200  0.49786200  0.69335200  1
  Br  Br25  1  0.07532900  0.35442400  0.82182900  1
  Br  Br26  1  0.75179700  0.46587400  0.40555300  1
  Br  Br27  1  0.56634200  0.55810600  0.82085300  1
  Br  Br28  1  0.45169800  0.39474100  0.42336900  1
  Br  Br29  1  0.79778900  0.71356800  0.96935800  1
  Br  Br30  1  0.47263300  0.61087500  0.96530800  1
  Br  Br31  1  0.12633300  0.31822600  0.43706300  1
  Br  Br32  1  0.14841700  0.52887800  0.98412000  1
  Br  Br33  1  0.85158300  0.47112200  0.01588000  1
  Br  Br34  1  0.87366700  0.68177400  0.56293700  1
  Br  Br35  1  0.52736700  0.38912500  0.03469200  1
  Br  Br36  1  0.20221100  0.28643200  0.03064200  1
  Br  Br37  1  0.54830200  0.60525900  0.57663100  1
  Br  Br38  1  0.43365800  0.44189400  0.17914700  1
  Br  Br39  1  0.24820300  0.53412600  0.59444700  1
  Br  Br40  1  0.92467100  0.64557600  0.17817100  1
  Br  Br41  1  0.29700800  0.50213800  0.30664800  1
  Br  Br42  1  0.74996700  0.64094000  0.28929800  1
  Br  Br43  1  0.96695700  0.88330300  0.72514500  1
  Br  Br44  1  0.34281400  0.68288300  0.75812800  1
  Br  Br45  1  0.64752900  0.78704400  0.73644100  1
  Br  Br46  1  0.01848200  0.61828400  0.77336600  1
  Br  Br47  1  0.60322100  0.69795400  0.40972700  1
  Br  Br48  1  0.76037100  0.96433000  0.90661400  1
  Br  Br49  1  0.05572000  0.57081700  0.37403900  1
  Br  Br50  1  0.44955700  0.89453800  0.92677500  1
  Br  Br51  1  0.18274900  0.54616300  0.14557400  1
  Br  Br52  1  0.11274900  0.81482500  0.93904300  1
  Br  Br53  1  0.64158100  0.70052800  0.12138700  1
  Br  Br54  1  0.84009900  0.96182500  0.51157100  1
  Br  Br55  1  0.52179000  0.88181100  0.52449000  1
  Br  Br56  1  0.41975200  0.88356600  0.66024000  1
  Br  Br57  1  0.19152200  0.77906000  0.52505300  1
  Br  Br58  1  0.56350200  0.82060500  0.26303700  1
  Br  Br59  1  0.34644300  0.81655600  0.37140000  1
  Br  Br60  1  0.93525500  0.92070200  0.12714200  1
  Br  Br61  1  0.84140000  0.98560200  0.36399400  1
  Br  Br62  1  0.25746000  0.95202300  0.80566200  1
  Br  Br63  1  0.37877200  0.78906800  0.08101700  1
  Br  Br64  1  0.04893800  0.84544200  0.32454200  1
  Br  Br65  1  0.22795800  0.85926400  0.21683700  1
loop_
_geom_bond_atom_site_label_1
_geom_bond_atom_site_label_2
_geom_bond_distance
_geom_bond_site_symmetry_2
Ba0 Br5 3.380622 1_655
Ba0 Br48 3.383673 1_545
Ba0 Br0 3.414158 1_555
Ba0 Br13 3.425527 1_556
Ba0 Br32 3.472108 1_655
Ba0 Br33 3.508776 1_556
Ba0 Br25 3.522200 1_655
Ba0 Br2 3.533910 1_555
Ba0 Br14 3.675723 1_555
Ba0 Br36 3.690868 1_656
Ba1 Br50 3.382028 1_545
Ba1 Br15 3.403726 1_556
Ba1 Br52 3.421400 1_545
Ba1 Br17 3.424291 1_556
Ba1 Br36 3.425053 1_556
Ba1 Br5 3.438681 1_555
Ba1 Br12 3.497462 1_555
Ba1 Br35 3.616363 1_556
Ba1 Br62 3.695561 1_545
Ba1 Br2 3.927208 1_555
Ba2 Br65 3.213751 1_545
Ba2 Br3 3.222653 1_555
Ba2 Br9 3.294131 1_555
Ba2 Br63 3.308049 1_545
Ba2 Br15 3.375332 1_555
Ba2 Br20 3.448303 1_555
Ba2 Br17 3.462323 1_555
Ba2 Br21 3.465377 1_555
Ba2 Br58 3.539221 1_545
Ba3 Br31 3.379612 1_655
Ba3 Br9 3.429246 1_555
Ba3 Br21 3.449671 1_555
Ba3 Br22 3.480479 1_655
Ba3 Br26 3.482971 1_555
Ba3 Br8 3.483413 1_555
Ba3 Br19 3.493583 1_555
Ba3 Br61 3.516423 1_545
Ba3 Br49 3.576418 1_655
Ba3 Br3 3.695360 1_555
Ba4 Br22 3.231445 1_555
Ba4 Br11 3.233107 1_555
Ba4 Br28 3.303179 1_555
Ba4 Br20 3.320365 1_555
Ba4 Br10 3.352232 1_555
Ba4 Br64 3.399743 1_545
Ba4 Br31 3.434163 1_555
Ba5 Br8 3.403049 1_555
Ba5 Br16 3.420396 1_555
Ba5 Br10 3.421568 1_555
Ba5 Br34 3.439548 1_555
Ba5 Br37 3.451318 1_555
Ba5 Br24 3.524631 1_555
Ba5 Br28 3.531402 1_555
Ba5 Br26 3.591661 1_555
Ba5 Br6 3.606105 1_555
Ba5 Br18 3.713936 1_555
Ba6 Br11 3.369885 1_555
Ba6 Br31 3.386022 1_555
Ba6 Br1 3.390845 1_455
Ba6 Br39 3.403921 1_555
Ba6 Br16 3.436102 1_455
Ba6 Br8 3.484383 1_455
Ba6 Br23 3.505579 1_555
Ba6 Br54 3.578089 1_445
Ba6 Br18 3.692269 1_555
Ba6 Br4 3.824538 1_555
Ba7 Br15 3.208589 1_555
Ba7 Br33 3.248537 1_555
Ba7 Br19 3.264511 1_555
Ba7 Br21 3.311299 1_555
Ba7 Br13 3.319594 1_555
Ba7 Br40 3.344236 1_555
Ba7 Br35 3.360843 1_555
Ba8 Br17 3.321719 1_555
Ba8 Br13 3.351748 1_455
Ba8 Br20 3.354973 1_555
Ba8 Br36 3.413428 1_555
Ba8 Br19 3.425001 1_455
Ba8 Br22 3.470652 1_555
Ba8 Br38 3.641582 1_555
Ba8 Br60 3.674954 1_445
Ba8 Br51 3.835455 1_555
Ba9 Br48 3.321719 1_555
Ba9 Br52 3.351748 1_655
Ba9 Br45 3.354973 1_555
Ba9 Br29 3.413428 1_555
Ba9 Br46 3.425001 1_655
Ba9 Br43 3.470652 1_555
Ba9 Br27 3.641582 1_555
Ba9 Br5 3.674954 1_665
Ba9 Br14 3.835455 1_555
Ba10 Br50 3.208589 1_555
Ba10 Br32 3.248537 1_555
Ba10 Br46 3.264511 1_555
Ba10 Br44 3.311299 1_555
Ba10 Br52 3.319594 1_555
Ba10 Br25 3.344236 1_555
Ba10 Br30 3.360843 1_555
Ba11 Br54 3.369885 1_555
Ba11 Br34 3.386022 1_555
Ba11 Br64 3.390845 1_655
Ba11 Br26 3.403921 1_555
Ba11 Br49 3.436102 1_655
Ba11 Br57 3.484383 1_655
Ba11 Br42 3.505579 1_555
Ba11 Br11 3.578089 1_665
Ba11 Br47 3.692269 1_555
Ba11 Br61 3.824538 1_555
Ba12 Br57 3.403049 1_555
Ba12 Br49 3.420396 1_555
Ba12 Br55 3.421568 1_555
Ba12 Br31 3.439548 1_555
Ba12 Br28 3.451318 1_555
Ba12 Br41 3.524631 1_555
Ba12 Br37 3.531402 1_555
Ba12 Br39 3.591661 1_555
Ba12 Br59 3.606105 1_555
Ba12 Br47 3.713936 1_555
Ba13 Br43 3.231445 1_555
Ba13 Br54 3.233107 1_555
Ba13 Br37 3.303179 1_555
Ba13 Br45 3.320365 1_555
Ba13 Br55 3.352232 1_555
Ba13 Br1 3.399743 1_565
Ba13 Br34 3.434163 1_555
Ba14 Br34 3.379612 1_455
Ba14 Br56 3.429246 1_555
Ba14 Br44 3.449671 1_555
Ba14 Br43 3.480479 1_455
Ba14 Br39 3.482971 1_555
Ba14 Br57 3.483413 1_555
Ba14 Br46 3.493583 1_555
Ba14 Br4 3.516423 1_565
Ba14 Br16 3.576418 1_455
Ba14 Br62 3.695360 1_555
Ba15 Br0 3.213751 1_565
Ba15 Br62 3.222653 1_555
Ba15 Br56 3.294131 1_555
Ba15 Br2 3.308049 1_565
Ba15 Br50 3.375332 1_555
Ba15 Br45 3.448303 1_555
Ba15 Br48 3.462323 1_555
Ba15 Br44 3.465377 1_555
Ba15 Br7 3.539221 1_565
Ba16 Br15 3.382028 1_565
Ba16 Br50 3.403726 1_554
Ba16 Br13 3.421400 1_565
Ba16 Br48 3.424291 1_554
Ba16 Br29 3.425053 1_554
Ba16 Br60 3.438681 1_555
Ba16 Br53 3.497462 1_555
Ba16 Br30 3.616363 1_554
Ba16 Br3 3.695561 1_565
Ba16 Br63 3.927208 1_555
Ba17 Br60 3.380622 1_455
Ba17 Br17 3.383673 1_565
Ba17 Br65 3.414158 1_555
Ba17 Br52 3.425527 1_554
Ba17 Br33 3.472108 1_455
Ba17 Br32 3.508776 1_554
Ba17 Br40 3.522200 1_455
Ba17 Br63 3.533910 1_555
Ba17 Br51 3.675723 1_555
Ba17 Br29 3.690868 1_454
Br0 La2 2.988788 1_555
Br1 La2 3.178501 1_555
Br1 La1 3.298172 1_655
Br2 La3 2.993105 1_555
Br3 La8 3.005891 1_545
Br4 La1 3.073374 1_555
Br4 La0 3.075515 1_555
Br5 La1 3.212777 1_555
Br6 La2 3.064760 1_555
Br6 La0 3.117657 1_555
Br7 La1 3.187472 1_555
Br7 La0 3.484781 1_555
Br8 La9 3.253641 1_545
Br9 La9 2.942674 1_545
Br10 La0 3.193878 1_555
Br10 La9 3.335616 1_545
Br11 La0 3.220611 1_555
Br12 La1 3.033003 1_555
Br12 La3 3.115884 1_555
Br14 La2 3.103532 1_555
Br14 La3 3.114713 1_555
Br16 La2 3.067875 1_555
Br18 La0 3.089081 1_555
Br18 La4 3.108960 1_555
Br19 La7 3.127065 1_655
Br20 La5 3.087089 1_555
Br21 La5 3.113442 1_555
Br22 La8 3.279796 1_445
Br23 La4 3.008711 1_555
Br23 La1 3.089609 1_555
Br24 La4 3.105438 1_555
Br24 La2 3.134445 1_555
Br25 La2 3.093925 1_455
Br25 La1 3.451583 1_555
Br26 La5 3.109890 1_555
Br27 La3 3.027307 1_555
Br27 La4 3.119208 1_555
Br28 La5 3.112382 1_555
Br29 La3 3.056048 1_555
Br30 La6 3.130310 1_556
Br30 La3 3.176818 1_555
Br32 La6 3.131699 1_556
Br33 La3 3.131699 1_554
Br35 La3 3.130310 1_554
Br35 La6 3.176818 1_555
Br36 La6 3.056048 1_555
Br37 La4 3.112382 1_555
Br38 La6 3.027307 1_555
Br38 La5 3.119208 1_555
Br39 La4 3.109890 1_555
Br40 La7 3.093925 1_655
Br40 La8 3.451583 1_555
Br41 La5 3.105438 1_555
Br41 La7 3.134445 1_555
Br42 La5 3.008711 1_555
Br42 La8 3.089609 1_555
Br43 La1 3.279796 1_665
Br44 La4 3.113442 1_555
Br45 La4 3.087089 1_555
Br46 La2 3.127065 1_455
Br47 La9 3.089081 1_555
Br47 La5 3.108960 1_555
Br49 La7 3.067875 1_555
Br51 La7 3.103532 1_555
Br51 La6 3.114713 1_555
Br53 La8 3.033003 1_555
Br53 La6 3.115884 1_555
Br54 La9 3.220611 1_555
Br55 La9 3.193878 1_555
Br55 La0 3.335616 1_565
Br56 La0 2.942674 1_565
Br57 La0 3.253641 1_565
Br58 La8 3.187472 1_555
Br58 La9 3.484781 1_555
Br59 La7 3.064760 1_555
Br59 La9 3.117657 1_555
Br60 La8 3.212777 1_555
Br61 La8 3.073374 1_555
Br61 La9 3.075515 1_555
Br62 La1 3.005891 1_565
Br63 La6 2.993105 1_555
Br64 La7 3.178501 1_555
Br64 La8 3.298172 1_455
Br65 La7 2.988788 1_555
