# generated using pymatgen
data_SeS2(NO)2
_symmetry_space_group_name_H-M   'P 1'
_cell_length_a   8.72589346
_cell_length_b   8.72589346
_cell_length_c   7.85704359
_cell_angle_alpha   84.98323439
_cell_angle_beta   84.98323439
_cell_angle_gamma   31.40866693
_symmetry_Int_Tables_number   1
_chemical_formula_structural   SeS2(NO)2
_chemical_formula_sum   'Se2 S4 N4 O4'
_cell_volume   310.47961795
_cell_formula_units_Z   2
loop_
 _symmetry_equiv_pos_site_id
 _symmetry_equiv_pos_as_xyz
  1  'x, y, z'
loop_
 _atom_site_type_symbol
 _atom_site_label
 _atom_site_symmetry_multiplicity
 _atom_site_fract_x
 _atom_site_fract_y
 _atom_site_fract_z
 _atom_site_occupancy
  Se  Se0  1  0.13102700  0.86897300  0.75000000  1
  Se  Se1  1  0.86897300  0.13102700  0.25000000  1
  S  S0  1  0.17856500  0.51102400  0.63516100  1
  S  S1  1  0.48897600  0.82143500  0.86483900  1
  S  S2  1  0.82143500  0.48897600  0.36483900  1
  S  S3  1  0.51102400  0.17856500  0.13516100  1
  N  N0  1  0.32636500  0.52746200  0.69866000  1
  N  N1  1  0.47253800  0.67363500  0.80134000  1
  N  N2  1  0.67363500  0.47253800  0.30134000  1
  N  N3  1  0.52746200  0.32636500  0.19866000  1
  O  O0  1  0.85716600  0.78786900  0.61178300  1
  O  O1  1  0.21213100  0.14283400  0.88821700  1
  O  O2  1  0.78786900  0.85716600  0.11178300  1
  O  O3  1  0.14283400  0.21213100  0.38821700  1
loop_
_geom_bond_atom_site_label_1
_geom_bond_atom_site_label_2
_geom_bond_distance
_geom_bond_site_symmetry_2
N0 S0 1.540648 1_555
N0 Se0 1.835244 1_555
N1 S1 1.540648 1_555
N1 Se0 1.835244 1_555
N2 S2 1.540648 1_555
N2 Se1 1.835244 1_555
N3 S3 1.540648 1_555
N3 Se1 1.835244 1_555
O0 S0 1.477427 1_655
O1 S1 1.477427 1_545
O2 S3 1.477427 1_565
O3 S2 1.477427 1_455
