# generated using pymatgen
data_Li4VCr3O8
_symmetry_space_group_name_H-M   'P 1'
_cell_length_a   5.15659600
_cell_length_b   5.96221625
_cell_length_c   10.71702966
_cell_angle_alpha   105.90492066
_cell_angle_beta   94.61416383
_cell_angle_gamma   107.03158305
_symmetry_Int_Tables_number   1
_chemical_formula_structural   Li4VCr3O8
_chemical_formula_sum   'Li8 V2 Cr6 O16'
_cell_volume   298.31807233
_cell_formula_units_Z   2
loop_
 _symmetry_equiv_pos_site_id
 _symmetry_equiv_pos_as_xyz
  1  'x, y, z'
loop_
 _atom_site_type_symbol
 _atom_site_label
 _atom_site_symmetry_multiplicity
 _atom_site_fract_x
 _atom_site_fract_y
 _atom_site_fract_z
 _atom_site_occupancy
  Li  Li0  1  0.00000000  0.00000000  0.00000000  1
  Li  Li1  1  0.50261700  0.62712900  0.74862000  1
  Li  Li2  1  0.49738300  0.37287100  0.25138000  1
  Li  Li3  1  0.99943300  0.74884500  0.50052500  1
  Li  Li4  1  0.00000000  0.50000000  0.00000000  1
  Li  Li5  1  0.49876600  0.12413500  0.74926600  1
  Li  Li6  1  0.50123400  0.87586500  0.25073400  1
  Li  Li7  1  0.00056700  0.25115500  0.49947500  1
  V  V0  1  0.74779800  0.30864800  0.87598000  1
  V  V1  1  0.25220200  0.69135200  0.12402000  1
  Cr  Cr0  1  0.75004500  0.06350600  0.37514700  1
  Cr  Cr1  1  0.75043200  0.81035400  0.87447400  1
  Cr  Cr2  1  0.24995000  0.43615000  0.62502200  1
  Cr  Cr3  1  0.24956800  0.18964600  0.12552600  1
  Cr  Cr4  1  0.75005000  0.56385000  0.37497800  1
  Cr  Cr5  1  0.24995500  0.93649400  0.62485300  1
  O  O0  1  0.39712400  0.15961000  0.43942000  1
  O  O1  1  0.10357900  0.46750200  0.31078600  1
  O  O2  1  0.39401400  0.90639000  0.93816000  1
  O  O3  1  0.10645500  0.21209100  0.80991400  1
  O  O4  1  0.60287600  0.84039000  0.56058000  1
  O  O5  1  0.89642100  0.53249800  0.68921400  1
  O  O6  1  0.89627600  0.28525900  0.18987900  1
  O  O7  1  0.60955800  0.59290500  0.05878600  1
  O  O8  1  0.39679800  0.65972100  0.43967400  1
  O  O9  1  0.10272900  0.96733200  0.31104600  1
  O  O10  1  0.39044200  0.40709500  0.94121400  1
  O  O11  1  0.10372400  0.71474100  0.81012100  1
  O  O12  1  0.89727100  0.03266800  0.68895400  1
  O  O13  1  0.89354500  0.78790900  0.19008600  1
  O  O14  1  0.60320200  0.34027900  0.56032600  1
  O  O15  1  0.60598600  0.09361000  0.06184000  1
loop_
_geom_bond_atom_site_label_1
_geom_bond_atom_site_label_2
_geom_bond_distance
_geom_bond_site_symmetry_2
Li0 O2 2.357333 1_544
Li0 O15 2.357333 1_455
Li0 O13 2.689901 1_445
Li0 O3 2.689901 1_554
Li1 O5 2.351523 1_555
Li1 O11 2.365817 1_555
Li1 O14 2.462242 1_555
Li1 O2 2.467316 1_555
Li1 O4 2.670602 1_555
Li2 O1 2.351523 1_555
Li2 O6 2.365817 1_555
Li2 O8 2.462242 1_555
Li2 O15 2.467316 1_555
Li2 O0 2.670602 1_555
Li3 O4 2.359392 1_555
Li3 O8 2.359905 1_655
Li3 O12 2.457546 1_565
Li3 O1 2.463935 1_655
Li3 O5 2.690045 1_555
Li3 O9 2.705844 1_655
Li4 V0 1.667673 1_454
Li4 V1 1.667673 1_555
Li4 O10 2.328828 1_554
Li4 O7 2.328828 1_455
Li4 O13 2.492648 1_455
Li4 O3 2.492648 1_554
Li5 V0 1.666286 1_555
Li5 O3 2.331555 1_555
Li5 O12 2.369579 1_555
Li5 O4 2.463949 1_545
Li5 O14 2.692578 1_555
Li6 V1 1.666286 1_555
Li6 O13 2.331555 1_555
Li6 O9 2.369579 1_555
Li6 O0 2.463949 1_565
Li6 O8 2.692578 1_555
Li7 O0 2.359392 1_555
Li7 O14 2.359905 1_455
Li7 O9 2.457546 1_545
Li7 O5 2.463935 1_455
Li7 O1 2.690045 1_555
Li7 O12 2.705844 1_455
Cr0 Li6 1.655867 1_545
Cr0 Li7 1.659908 1_655
Cr0 O9 2.168920 1_645
Cr0 O0 2.170469 1_555
Cr0 O13 2.518590 1_545
Cr0 O14 2.532550 1_555
Cr0 O4 2.719383 1_545
Cr1 Li1 1.656183 1_555
Cr1 Li0 1.667262 1_666
Cr1 O11 2.171303 1_655
Cr1 O2 2.185334 1_555
Cr1 O5 2.534055 1_555
Cr1 O12 2.716976 1_565
Cr2 Li7 1.660712 1_555
Cr2 Li1 1.665916 1_555
Cr2 O14 2.172911 1_555
Cr2 O5 2.173765 1_455
Cr2 O0 2.535621 1_555
Cr2 O3 2.714053 1_555
Cr2 O8 2.719903 1_555
Cr3 Li2 1.656183 1_555
Cr3 Li0 1.667262 1_555
Cr3 O6 2.171303 1_455
Cr3 O15 2.185334 1_555
Cr3 O1 2.534055 1_555
Cr3 O9 2.716976 1_545
Cr4 Li3 1.660712 1_555
Cr4 Li2 1.665916 1_555
Cr4 O8 2.172911 1_555
Cr4 O1 2.173765 1_655
Cr4 O4 2.535621 1_555
Cr4 O13 2.714053 1_555
Cr4 O14 2.719903 1_555
Cr5 Li5 1.655867 1_565
Cr5 Li3 1.659908 1_455
Cr5 O12 2.168920 1_465
Cr5 O4 2.170469 1_555
Cr5 O3 2.518590 1_565
Cr5 O8 2.532550 1_555
Cr5 O0 2.719383 1_565
O0 O14 1.520351 1_555
O0 O9 1.814287 1_545
O1 O6 1.525587 1_455
O1 O8 1.813515 1_555
O1 V1 2.736182 1_555
O2 V1 2.689031 1_556
O3 V0 2.205489 1_455
O4 O8 1.520351 1_555
O5 V0 2.736182 1_555
O7 V1 2.201126 1_555
O9 V1 2.550090 1_555
O10 O7 1.537604 1_556
O10 O3 1.802975 1_555
O10 V0 2.201126 1_555
O11 O5 1.525587 1_455
O11 O2 1.799305 1_555
O12 O3 1.525582 1_655
O12 O4 1.814287 1_545
O12 V0 2.550090 1_555
O13 O9 1.525582 1_655
O13 O7 1.802975 1_555
O13 V1 2.205489 1_655
O14 O5 1.813515 1_555
O15 O2 1.561700 1_544
O15 O6 1.799305 1_555
O15 V0 2.689031 1_554
