# generated using pymatgen
data_U6Co12Ge4C
_symmetry_space_group_name_H-M   'P 1'
_cell_length_a   7.51843592
_cell_length_b   7.51843592
_cell_length_c   7.51843592
_cell_angle_alpha   109.47122063
_cell_angle_beta   109.47122063
_cell_angle_gamma   109.47122063
_symmetry_Int_Tables_number   1
_chemical_formula_structural   U6Co12Ge4C
_chemical_formula_sum   'U6 Co12 Ge4 C1'
_cell_volume   327.16031393
_cell_formula_units_Z   1
loop_
 _symmetry_equiv_pos_site_id
 _symmetry_equiv_pos_as_xyz
  1  'x, y, z'
loop_
 _atom_site_type_symbol
 _atom_site_label
 _atom_site_symmetry_multiplicity
 _atom_site_fract_x
 _atom_site_fract_y
 _atom_site_fract_z
 _atom_site_occupancy
  U  U0  1  0.00000000  0.27926500  0.27926500  1
  U  U1  1  0.00000000  0.72073500  0.72073500  1
  U  U2  1  0.27926500  0.00000000  0.27926500  1
  U  U3  1  0.27926500  0.27926500  0.00000000  1
  U  U4  1  0.72073500  0.00000000  0.72073500  1
  U  U5  1  0.72073500  0.72073500  0.00000000  1
  Co  Co0  1  0.70211200  0.35105600  0.35105600  1
  Co  Co1  1  0.00000000  0.35105600  0.64894400  1
  Co  Co2  1  0.29788800  0.64894400  0.64894400  1
  Co  Co3  1  0.00000000  0.64894400  0.35105600  1
  Co  Co4  1  0.35105600  0.70211200  0.35105600  1
  Co  Co5  1  0.35105600  0.35105600  0.70211200  1
  Co  Co6  1  0.35105600  0.00000000  0.64894400  1
  Co  Co7  1  0.35105600  0.64894400  0.00000000  1
  Co  Co8  1  0.64894400  0.00000000  0.35105600  1
  Co  Co9  1  0.64894400  0.64894400  0.29788800  1
  Co  Co10  1  0.64894400  0.29788800  0.64894400  1
  Co  Co11  1  0.64894400  0.35105600  0.00000000  1
  Ge  Ge0  1  0.50000000  0.50000000  0.50000000  1
  Ge  Ge1  1  0.00000000  0.00000000  0.50000000  1
  Ge  Ge2  1  0.50000000  0.00000000  0.00000000  1
  Ge  Ge3  1  0.00000000  0.50000000  0.00000000  1
  C  C0  1  0.00000000  0.00000000  0.00000000  1
loop_
_geom_bond_atom_site_label_1
_geom_bond_atom_site_label_2
_geom_bond_distance
_geom_bond_site_symmetry_2
Co0 Ge2 2.499992 1_555
Co0 Ge0 2.499992 1_555
Co0 Co10 2.534325 1_555
Co0 Co8 2.534325 1_555
Co0 Co11 2.534325 1_555
Co0 Co9 2.534325 1_555
Co0 Co3 2.586127 1_655
Co0 Co1 2.586127 1_655
Co0 U1 2.648832 1_655
Co0 U0 2.648832 1_655
Co0 U3 3.110783 1_555
Co0 U2 3.110783 1_555
Co1 Ge1 2.499992 1_555
Co1 Ge3 2.499992 1_556
Co1 Co5 2.534325 1_555
Co1 Co7 2.534325 1_556
Co1 Co8 2.534325 1_455
Co1 Co10 2.534325 1_455
Co1 Co2 2.586127 1_555
Co1 U0 2.648832 1_555
Co1 U1 2.648832 1_555
Co1 U3 3.110783 1_556
Co1 U4 3.110783 1_455
Co2 Ge0 2.499992 1_555
Co2 Ge2 2.499992 1_566
Co2 Co4 2.534325 1_555
Co2 Co5 2.534325 1_555
Co2 Co7 2.534325 1_556
Co2 Co6 2.534325 1_565
Co2 Co3 2.586127 1_555
Co2 U0 2.648832 1_555
Co2 U1 2.648832 1_555
Co2 U5 3.110783 1_556
Co2 U4 3.110783 1_565
Co3 Ge3 2.499992 1_555
Co3 Ge1 2.499992 1_565
Co3 Co4 2.534325 1_555
Co3 Co9 2.534325 1_455
Co3 Co6 2.534325 1_565
Co3 U0 2.648832 1_555
Co3 U1 2.648832 1_555
Co3 U2 3.110783 1_565
Co3 U5 3.110783 1_455
Co4 Ge3 2.499992 1_555
Co4 Ge0 2.499992 1_555
Co4 Co7 2.534325 1_555
Co4 Co9 2.534325 1_555
Co4 Co6 2.586127 1_565
Co4 Co8 2.586127 1_565
Co4 U2 2.648832 1_565
Co4 U4 2.648832 1_565
Co4 U0 3.110783 1_555
Co4 U3 3.110783 1_555
Co5 Ge0 2.499992 1_555
Co5 Ge1 2.499992 1_555
Co5 Co6 2.534325 1_555
Co5 Co7 2.586127 1_556
Co5 U5 2.648832 1_556
Co5 U3 2.648832 1_556
Co5 U2 3.110783 1_555
Co5 U0 3.110783 1_555
Co6 Ge1 2.499992 1_555
Co6 Ge2 2.499992 1_556
Co6 U2 2.648832 1_555
Co6 U4 2.648832 1_555
Co6 U3 3.110783 1_556
Co6 U1 3.110783 1_545
Co7 Ge3 2.499992 1_555
Co7 Ge2 2.499992 1_565
Co7 Co8 2.534325 1_565
Co7 Co9 2.586127 1_555
Co7 U3 2.648832 1_555
Co7 U5 2.648832 1_555
Co7 U2 3.110783 1_565
Co7 U1 3.110783 1_554
Co8 Ge2 2.499992 1_555
Co8 Ge1 2.499992 1_655
Co8 Co9 2.534325 1_545
Co8 U2 2.648832 1_555
Co8 U4 2.648832 1_555
Co8 U5 3.110783 1_545
Co8 U0 3.110783 1_655
Co9 Ge0 2.499992 1_555
Co9 Ge1 2.499992 1_665
Co9 U3 2.648832 1_555
Co9 U5 2.648832 1_555
Co9 U4 3.110783 1_565
Co9 U1 3.110783 1_655
Co10 Ge0 2.499992 1_555
Co10 Ge3 2.499992 1_656
Co10 Co5 2.534325 1_555
Co10 Co11 2.534325 1_556
Co10 Co8 2.586127 1_555
Co10 Co6 2.586127 1_555
Co10 U2 2.648832 1_555
Co10 U4 2.648832 1_555
Co10 U1 3.110783 1_655
Co10 U5 3.110783 1_556
Co11 Ge2 2.499992 1_555
Co11 Ge3 2.499992 1_655
Co11 Co6 2.534325 1_554
Co11 Co3 2.534325 1_655
Co11 Co9 2.586127 1_555
Co11 Co5 2.586127 1_554
Co11 U3 2.648832 1_555
Co11 U5 2.648832 1_555
Co11 U4 3.110783 1_554
Co11 U0 3.110783 1_655
Ge0 U5 3.079886 1_556
Ge0 U3 3.079886 1_555
Ge0 U4 3.079886 1_565
Ge0 U0 3.079886 1_555
Ge0 U1 3.079886 1_655
Ge0 U2 3.079886 1_555
Ge1 U3 3.079886 1_556
Ge1 U2 3.079886 1_555
Ge1 U4 3.079886 1_455
Ge1 U5 3.079886 1_445
Ge1 U1 3.079886 1_545
Ge1 U0 3.079886 1_555
Ge2 U5 3.079886 1_545
Ge2 U3 3.079886 1_555
Ge2 U2 3.079886 1_555
Ge2 U4 3.079886 1_554
Ge2 U1 3.079886 1_544
Ge2 U0 3.079886 1_655
Ge3 U3 3.079886 1_555
Ge3 U2 3.079886 1_565
Ge3 U4 3.079886 1_454
Ge3 U5 3.079886 1_455
Ge3 U1 3.079886 1_554
Ge3 U0 3.079886 1_555
C0 U0 2.424451 1_555
C0 U5 2.424451 1_445
C0 U4 2.424451 1_454
C0 U2 2.424451 1_555
C0 U3 2.424451 1_555
C0 U1 2.424451 1_544
