# generated using pymatgen
data_W3O10
_symmetry_space_group_name_H-M   'P 1'
_cell_length_a   5.38101000
_cell_length_b   5.40001578
_cell_length_c   7.46180798
_cell_angle_alpha   110.81290344
_cell_angle_beta   110.98427639
_cell_angle_gamma   88.36824443
_symmetry_Int_Tables_number   1
_chemical_formula_structural   W3O10
_chemical_formula_sum   'W3 O10'
_cell_volume   188.01602303
_cell_formula_units_Z   1
loop_
 _symmetry_equiv_pos_site_id
 _symmetry_equiv_pos_as_xyz
  1  'x, y, z'
loop_
 _atom_site_type_symbol
 _atom_site_label
 _atom_site_symmetry_multiplicity
 _atom_site_fract_x
 _atom_site_fract_y
 _atom_site_fract_z
 _atom_site_occupancy
  W  W0  1  0.50441700  0.01561400  0.49975400  1
  W  W1  1  0.00047300  0.51225300  0.49214400  1
  W  W2  1  0.96299600  0.94850800  0.99367100  1
  O  O0  1  0.71876900  0.71688900  0.42271400  1
  O  O1  1  0.29123100  0.28875800  0.56978500  1
  O  O2  1  0.71732900  0.06751500  0.78158000  1
  O  O3  1  0.29121500  0.93096400  0.20903400  1
  O  O4  1  0.06952400  0.70603200  0.78073700  1
  O  O5  1  0.93660200  0.28887700  0.20556300  1
  O  O6  1  0.75501300  0.24924900  0.48987400  1
  O  O7  1  0.25533800  0.75275200  0.49602500  1
  O  O8  1  0.23511500  0.28438100  0.03730400  1
  O  O9  1  0.73726800  0.74250400  0.01071900  1
loop_
_geom_bond_atom_site_label_1
_geom_bond_atom_site_label_2
_geom_bond_distance
_geom_bond_site_symmetry_2
O0 W1 1.880501 1_655
O0 W0 1.993231 1_565
O1 W0 1.884106 1_555
O1 W1 1.995045 1_555
O2 W0 1.920239 1_555
O2 W2 1.959855 1_545
O3 W0 1.942598 1_565
O3 W2 1.943342 1_454
O4 W2 1.923206 1_455
O4 W1 1.928217 1_555
O5 W1 1.951953 1_655
O5 W2 1.994768 1_544
O6 W0 1.910414 1_555
O6 W1 1.958473 1_655
O7 W1 1.901195 1_555
O7 W0 1.966114 1_565
O8 W2 2.220325 1_444
O9 W2 1.737013 1_554
