# generated using pymatgen
data_LiErHg2
_symmetry_space_group_name_H-M   'P 1'
_cell_length_a   4.94284816
_cell_length_b   4.94284816
_cell_length_c   4.94284816
_cell_angle_alpha   60.00000000
_cell_angle_beta   60.00000000
_cell_angle_gamma   60.00000000
_symmetry_Int_Tables_number   1
_chemical_formula_structural   LiErHg2
_chemical_formula_sum   'Li1 Er1 Hg2'
_cell_volume   85.39192615
_cell_formula_units_Z   1
loop_
 _symmetry_equiv_pos_site_id
 _symmetry_equiv_pos_as_xyz
  1  'x, y, z'
loop_
 _atom_site_type_symbol
 _atom_site_label
 _atom_site_symmetry_multiplicity
 _atom_site_fract_x
 _atom_site_fract_y
 _atom_site_fract_z
 _atom_site_occupancy
  Li  Li0  1  0.75000000  0.75000000  0.75000000  1
  Er  Er0  1  0.24999900  0.24999900  0.24999900  1
  Hg  Hg0  1  0.00000000  0.00000000  -0.00000000  1
  Hg  Hg1  1  0.50000100  0.50000100  0.50000100  1
loop_
_geom_bond_atom_site_label_1
_geom_bond_atom_site_label_2
_geom_bond_distance
_geom_bond_site_symmetry_2
Er0 Hg0 3.026852 1_555
Er0 Hg1 3.026856 1_545
Er0 Hg1 3.026856 1_455
Er0 Hg1 3.026856 1_554
Er0 Hg0 3.026868 1_556
Er0 Hg0 3.026868 1_565
Er0 Hg0 3.026868 1_655
Er0 Hg1 3.026888 1_555
Hg0 Li0 3.026864 1_454
Hg0 Li0 3.026864 1_544
Hg0 Li0 3.026864 1_444
Hg0 Li0 3.026864 1_445
Hg1 Li0 3.026852 1_555
Hg1 Li0 3.026868 1_554
Hg1 Li0 3.026868 1_545
Hg1 Li0 3.026868 1_455
