# generated using pymatgen
data_Li5Mn6(BO3)6
_symmetry_space_group_name_H-M   'P 1'
_cell_length_a   8.90657301
_cell_length_b   8.90657301
_cell_length_c   14.28378686
_cell_angle_alpha   89.86587590
_cell_angle_beta   89.86587590
_cell_angle_gamma   41.85915648
_symmetry_Int_Tables_number   1
_chemical_formula_structural   Li5Mn6(BO3)6
_chemical_formula_sum   'Li10 Mn12 B12 O36'
_cell_volume   756.11100381
_cell_formula_units_Z   2
loop_
 _symmetry_equiv_pos_site_id
 _symmetry_equiv_pos_as_xyz
  1  'x, y, z'
loop_
 _atom_site_type_symbol
 _atom_site_label
 _atom_site_symmetry_multiplicity
 _atom_site_fract_x
 _atom_site_fract_y
 _atom_site_fract_z
 _atom_site_occupancy
  Li  Li0  1  0.39493800  0.39493800  0.00919200  1
  Li  Li1  1  0.42025100  0.42025100  0.64074500  1
  Li  Li2  1  0.92061200  0.92061200  0.64032400  1
  Li  Li3  1  0.93384900  0.93384900  0.35088700  1
  Li  Li4  1  0.43389200  0.43389200  0.35012800  1
  Li  Li5  1  0.64450300  0.64450300  0.50880900  1
  Li  Li6  1  0.67024800  0.67024800  0.14089900  1
  Li  Li7  1  0.17061300  0.17061300  0.14010000  1
  Li  Li8  1  0.68347300  0.68347300  0.85128400  1
  Li  Li9  1  0.18424300  0.18424300  0.84961500  1
  Mn  Mn0  1  0.06541200  0.56043900  0.49428300  1
  Mn  Mn1  1  0.56043900  0.06541200  0.49428300  1
  Mn  Mn2  1  0.08779500  0.59166600  0.18186800  1
  Mn  Mn3  1  0.59166600  0.08779500  0.18186800  1
  Mn  Mn4  1  0.60032600  0.09400200  0.82463400  1
  Mn  Mn5  1  0.09400200  0.60032600  0.82463400  1
  Mn  Mn6  1  0.31081700  0.81519400  0.99426100  1
  Mn  Mn7  1  0.81519400  0.31081700  0.99426100  1
  Mn  Mn8  1  0.33775000  0.84204600  0.68182500  1
  Mn  Mn9  1  0.84204600  0.33775000  0.68182500  1
  Mn  Mn10  1  0.34390100  0.85051800  0.32460900  1
  Mn  Mn11  1  0.85051800  0.34390100  0.32460900  1
  B  B0  1  0.00153600  0.49415500  0.00022000  1
  B  B1  1  0.49415500  0.00153600  0.00022000  1
  B  B2  1  0.75019900  0.75019900  0.66740400  1
  B  B3  1  0.25339600  0.25339600  0.66939500  1
  B  B4  1  0.75041900  0.75041900  0.33293900  1
  B  B5  1  0.25116300  0.25116300  0.32997200  1
  B  B6  1  0.25191700  0.74368800  0.50014100  1
  B  B7  1  0.74368800  0.25191700  0.50014100  1
  B  B8  1  0.50077900  0.50077900  0.83317700  1
  B  B9  1  0.00074200  0.00074200  0.82978500  1
  B  B10  1  0.50128600  0.50128600  0.16865700  1
  B  B11  1  0.00210900  0.00210900  0.16808300  1
  O  O0  1  0.26614000  0.26614000  0.57397700  1
  O  O1  1  0.75584600  0.75584600  0.57009900  1
  O  O2  1  0.26196000  0.26196000  0.23301400  1
  O  O3  1  0.75985200  0.75985200  0.23638000  1
  O  O4  1  0.81774900  0.81774900  0.39141200  1
  O  O5  1  0.31830600  0.31830600  0.38923100  1
  O  O6  1  0.81903300  0.81903300  0.72160800  1
  O  O7  1  0.32016300  0.32016300  0.72816400  1
  O  O8  1  0.08960800  0.55405700  0.04156200  1
  O  O9  1  0.55405700  0.08960800  0.04156200  1
  O  O10  1  0.92450700  0.92450700  0.86705200  1
  O  O11  1  0.42461400  0.42461400  0.87413200  1
  O  O12  1  0.92559700  0.92559700  0.20736800  1
  O  O13  1  0.42571100  0.42571100  0.20959000  1
  O  O14  1  0.17521300  0.68002000  0.55470800  1
  O  O15  1  0.68002000  0.17521300  0.55470800  1
  O  O16  1  0.74046500  0.24143900  0.40225600  1
  O  O17  1  0.24143900  0.74046500  0.40225600  1
  O  O18  1  0.01460600  0.01460600  0.07274800  1
  O  O19  1  0.50723200  0.50723200  0.07123800  1
  O  O20  1  0.51001600  0.51001600  0.73678500  1
  O  O21  1  0.01180900  0.01180900  0.73267200  1
  O  O22  1  0.56819400  0.56819400  0.89183400  1
  O  O23  1  0.06791100  0.06791100  0.88887900  1
  O  O24  1  0.56999800  0.56999800  0.22351900  1
  O  O25  1  0.06906500  0.06906500  0.22620300  1
  O  O26  1  0.34013200  0.80330100  0.54154300  1
  O  O27  1  0.80330100  0.34013200  0.54154300  1
  O  O28  1  0.67393400  0.67393400  0.37319300  1
  O  O29  1  0.17515400  0.17515400  0.36782000  1
  O  O30  1  0.67474900  0.67474900  0.70918600  1
  O  O31  1  0.17673300  0.17673300  0.70784300  1
  O  O32  1  0.92520400  0.43016700  0.05487500  1
  O  O33  1  0.43016700  0.92520400  0.05487500  1
  O  O34  1  0.49107600  0.99074000  0.90238100  1
  O  O35  1  0.99074000  0.49107600  0.90238100  1
loop_
_geom_bond_atom_site_label_1
_geom_bond_atom_site_label_2
_geom_bond_distance
_geom_bond_site_symmetry_2
Li0 O8 1.968241 1_555
Li0 O9 1.968241 1_555
Li0 O11 1.990151 1_554
Li0 O19 2.069878 1_555
Li1 O14 2.025856 1_555
Li1 O15 2.025856 1_555
Li1 O20 2.030437 1_555
Li1 O7 2.078898 1_555
Li2 O14 1.997657 1_655
Li2 O15 1.997657 1_565
Li2 O21 2.013024 1_665
Li2 O6 2.048041 1_555
Li3 O16 1.996255 1_565
Li3 O17 1.996255 1_655
Li3 O4 2.015129 1_555
Li3 O12 2.054931 1_555
Li4 O17 1.995002 1_555
Li4 O16 1.995002 1_555
Li4 O5 2.001225 1_555
Li4 O13 2.012365 1_555
Li5 O27 1.963132 1_555
Li5 O26 1.963132 1_555
Li5 O28 1.996851 1_555
Li5 O1 2.050934 1_555
Li6 O32 2.001260 1_555
Li6 O33 2.001260 1_555
Li6 O3 2.023057 1_555
Li6 O24 2.040800 1_555
Li7 O33 2.018955 1_545
Li7 O32 2.018955 1_455
Li7 O2 2.020227 1_555
Li7 O25 2.087277 1_555
Li8 O35 1.994143 1_555
Li8 O34 1.994143 1_555
Li8 O22 2.002152 1_555
Li8 O30 2.035244 1_555
Li9 O34 1.998630 1_545
Li9 O35 1.998630 1_455
Li9 O23 2.013780 1_555
Li9 O31 2.029205 1_555
Mn0 O0 2.092331 1_555
Mn0 O14 2.096528 1_555
Mn0 O1 2.156558 1_455
Mn0 O5 2.177046 1_555
Mn0 O4 2.178577 1_455
Mn1 O0 2.092331 1_555
Mn1 O15 2.096528 1_555
Mn1 O1 2.156558 1_545
Mn1 O5 2.177046 1_555
Mn1 O4 2.178577 1_545
Mn2 O8 2.030719 1_555
Mn2 O12 2.160531 1_455
Mn2 O2 2.184773 1_555
Mn2 O13 2.185416 1_555
Mn2 O3 2.204307 1_455
Mn3 O9 2.030719 1_555
Mn3 O12 2.160531 1_545
Mn3 O2 2.184773 1_555
Mn3 O13 2.185416 1_555
Mn3 O3 2.204307 1_545
Mn4 O34 2.085460 1_545
Mn4 O10 2.119897 1_545
Mn4 O7 2.167663 1_555
Mn4 O11 2.181745 1_555
Mn4 O6 2.203445 1_545
Mn5 O35 2.085460 1_455
Mn5 O10 2.119897 1_455
Mn5 O7 2.167663 1_555
Mn5 O11 2.181745 1_555
Mn5 O6 2.203445 1_455
Mn6 O18 2.094592 1_566
Mn6 O33 2.097460 1_556
Mn6 O19 2.154086 1_556
Mn6 O22 2.173127 1_555
Mn6 O23 2.181371 1_565
Mn7 O18 2.094592 1_656
Mn7 O32 2.097460 1_556
Mn7 O19 2.154086 1_556
Mn7 O22 2.173127 1_555
Mn7 O23 2.181371 1_655
Mn8 O26 2.031431 1_555
Mn8 O21 2.167516 1_565
Mn8 O31 2.171510 1_565
Mn8 O30 2.173209 1_555
Mn8 O20 2.225263 1_555
Mn9 O27 2.031431 1_555
Mn9 O21 2.167516 1_655
Mn9 O31 2.171510 1_655
Mn9 O30 2.173209 1_555
Mn9 O20 2.225263 1_555
Mn10 O17 2.084777 1_555
Mn10 O29 2.128579 1_565
Mn10 O25 2.159266 1_565
Mn10 O28 2.171091 1_555
Mn10 O24 2.211633 1_555
Mn11 O16 2.084777 1_555
Mn11 O29 2.128579 1_655
Mn11 O25 2.159266 1_655
Mn11 O28 2.171091 1_555
Mn11 O24 2.211633 1_555
B0 O8 1.369566 1_555
B0 O35 1.402773 1_454
B0 O32 1.403229 1_455
B1 O9 1.369566 1_555
B1 O34 1.402773 1_544
B1 O33 1.403229 1_545
B2 O6 1.384010 1_555
B2 O30 1.388619 1_555
B2 O1 1.392821 1_555
B3 O0 1.378800 1_555
B3 O31 1.387447 1_555
B3 O7 1.394040 1_555
B4 O3 1.387738 1_555
B4 O28 1.395100 1_555
B4 O4 1.398993 1_555
B5 O29 1.374086 1_555
B5 O2 1.396083 1_555
B5 O5 1.403264 1_555
B6 O26 1.368936 1_555
B6 O14 1.402955 1_555
B6 O17 1.403281 1_555
B7 O27 1.368936 1_555
B7 O15 1.402955 1_555
B7 O16 1.403281 1_555
B8 O20 1.385011 1_555
B8 O11 1.394399 1_555
B8 O22 1.401702 1_555
B9 O10 1.374327 1_445
B9 O21 1.398851 1_555
B9 O23 1.402184 1_555
B10 O13 1.385363 1_555
B10 O24 1.387634 1_555
B10 O19 1.394777 1_555
B11 O18 1.377012 1_555
B11 O12 1.389896 1_445
B11 O25 1.390981 1_555
