# generated using pymatgen
data_CoPO4
_symmetry_space_group_name_H-M   'P 1'
_cell_length_a   4.96680636
_cell_length_b   4.96680636
_cell_length_c   8.75827633
_cell_angle_alpha   74.49771138
_cell_angle_beta   74.49771138
_cell_angle_gamma   63.38629024
_symmetry_Int_Tables_number   1
_chemical_formula_structural   CoPO4
_chemical_formula_sum   'Co2 P2 O8'
_cell_volume   183.38972834
_cell_formula_units_Z   2
loop_
 _symmetry_equiv_pos_site_id
 _symmetry_equiv_pos_as_xyz
  1  'x, y, z'
loop_
 _atom_site_type_symbol
 _atom_site_label
 _atom_site_symmetry_multiplicity
 _atom_site_fract_x
 _atom_site_fract_y
 _atom_site_fract_z
 _atom_site_occupancy
  Co  Co0  1  0.71371016  0.29357295  0.74384903  1
  Co  Co1  1  0.29357295  0.71371016  0.24384903  1
  P  P0  1  0.92488475  0.32388282  0.37492156  1
  P  P1  1  0.32388282  0.92488475  0.87492156  1
  O  O0  1  0.68015937  0.43816312  0.26950109  1
  O  O1  1  0.80446876  0.19131211  0.54464809  1
  O  O2  1  0.07898227  0.21509925  0.79894917  1
  O  O3  1  0.58052008  0.00676536  0.88616807  1
  O  O4  1  0.21509925  0.07898227  0.29894917  1
  O  O5  1  0.43816312  0.68015937  0.76950109  1
  O  O6  1  0.00676536  0.58052008  0.38616807  1
  O  O7  1  0.19131211  0.80446876  0.04464809  1
loop_
_geom_bond_atom_site_label_1
_geom_bond_atom_site_label_2
_geom_bond_distance
_geom_bond_site_symmetry_2
Co0 O5 1.822673 1_555
Co0 O1 1.831161 1_555
Co0 O2 1.846666 1_655
Co0 O3 1.864113 1_555
Co1 O0 1.822673 1_555
Co1 O7 1.831161 1_555
Co1 O4 1.846666 1_565
Co1 O6 1.864113 1_555
O0 P0 1.534192 1_555
O1 P0 1.534713 1_555
O2 P1 1.532681 1_545
O3 P1 1.533900 1_545
O4 P0 1.532681 1_455
O5 P1 1.534192 1_555
O6 P0 1.533900 1_455
O7 P1 1.534713 1_554
