# generated using pymatgen
data_Li2MnV(PO4)3
_symmetry_space_group_name_H-M   'P 1'
_cell_length_a   8.22387600
_cell_length_b   8.41617074
_cell_length_c   8.88430480
_cell_angle_alpha   117.58026689
_cell_angle_beta   90.29570549
_cell_angle_gamma   118.29393588
_symmetry_Int_Tables_number   1
_chemical_formula_structural   Li2MnV(PO4)3
_chemical_formula_sum   'Li4 Mn2 V2 P6 O24'
_cell_volume   459.61553574
_cell_formula_units_Z   2
loop_
 _symmetry_equiv_pos_site_id
 _symmetry_equiv_pos_as_xyz
  1  'x, y, z'
loop_
 _atom_site_type_symbol
 _atom_site_label
 _atom_site_symmetry_multiplicity
 _atom_site_fract_x
 _atom_site_fract_y
 _atom_site_fract_z
 _atom_site_occupancy
  Li  Li0  1  0.91529500  0.87350700  0.85880700  1
  Li  Li1  1  0.67176300  0.19989600  0.86781800  1
  Li  Li2  1  0.32823700  0.80010400  0.13218200  1
  Li  Li3  1  0.08470500  0.12649300  0.14119300  1
  Mn  Mn0  1  0.64933300  0.40558200  0.94874800  1
  Mn  Mn1  1  0.35066700  0.59441800  0.05125200  1
  V  V0  1  0.14440500  0.41066900  0.43644500  1
  V  V1  1  0.85559500  0.58933100  0.56355500  1
  P  P0  1  0.24675700  0.28578900  0.74518100  1
  P  P1  1  0.96151000  0.70069300  0.75392800  1
  P  P2  1  0.53483800  0.99752500  0.75138100  1
  P  P3  1  0.46516200  0.00247500  0.24861900  1
  P  P4  1  0.03849000  0.29930700  0.24607200  1
  P  P5  1  0.75324300  0.71421100  0.25481900  1
  O  O0  1  0.20526200  0.93043200  0.90861000  1
  O  O1  1  0.09745200  0.40587900  0.71187300  1
  O  O2  1  0.45425100  0.36431100  0.79478500  1
  O  O3  1  0.81845000  0.70413800  0.79113800  1
  O  O4  1  0.14231400  0.53286600  0.91247600  1
  O  O5  1  0.51282000  0.89906600  0.89193400  1
  O  O6  1  0.19465500  0.40943500  0.57873100  1
  O  O7  1  0.85940500  0.53099500  0.72532000  1
  O  O8  1  0.00842800  0.02842000  0.58390100  1
  O  O9  1  0.51254900  0.73894300  0.80229300  1
  O  O10  1  0.73769300  0.15757900  0.73033500  1
  O  O11  1  0.38145700  0.23260300  0.57238700  1
  O  O12  1  0.61854300  0.76739700  0.42761300  1
  O  O13  1  0.26230700  0.84242100  0.26966500  1
  O  O14  1  0.48745100  0.26105700  0.19770700  1
  O  O15  1  0.99157200  0.97158000  0.41609900  1
  O  O16  1  0.14059500  0.46900500  0.27468000  1
  O  O17  1  0.80534500  0.59056500  0.42126900  1
  O  O18  1  0.48718000  0.10093400  0.10806600  1
  O  O19  1  0.85768600  0.46713400  0.08752400  1
  O  O20  1  0.18155000  0.29586200  0.20886200  1
  O  O21  1  0.54574900  0.63568900  0.20521500  1
  O  O22  1  0.90254800  0.59412100  0.28812700  1
  O  O23  1  0.79473800  0.06956800  0.09139000  1
loop_
_geom_bond_atom_site_label_1
_geom_bond_atom_site_label_2
_geom_bond_distance
_geom_bond_site_symmetry_2
Li0 O3 1.073741 1_555
Li0 P1 1.549459 1_555
Li0 O0 2.195824 1_655
Li0 O23 2.527897 1_566
Li1 O10 1.303772 1_555
Li1 P2 1.333166 1_545
Li1 Mn0 1.642927 1_555
Li1 O19 1.962244 1_556
Li2 O13 1.303772 1_555
Li2 P3 1.333166 1_565
Li2 Mn1 1.642927 1_555
Li2 O4 1.962244 1_554
Li3 O20 1.073741 1_555
Li3 P4 1.549459 1_555
Li3 O23 2.195824 1_455
Li3 O0 2.527897 1_544
Mn0 O19 1.808246 1_556
Mn0 O2 1.890682 1_555
Mn1 O4 1.808246 1_554
Mn1 O21 1.890682 1_555
P1 V1 1.496915 1_555
P4 V0 1.496915 1_555
O0 P1 1.866066 1_455
O1 O6 1.434909 1_555
O1 O4 1.519967 1_555
O1 P0 2.016528 1_555
O2 P0 1.481986 1_555
O3 P1 1.233602 1_555
O5 O9 1.205683 1_555
O5 P2 1.759825 1_555
O6 V0 1.334052 1_555
O7 P1 1.155096 1_555
O8 P0 1.912823 1_555
O10 P2 1.654893 1_545
O11 O2 1.679802 1_555
O11 P0 1.906699 1_555
O12 O21 1.679802 1_555
O12 P5 1.906699 1_555
O13 P3 1.654893 1_565
O14 O18 1.205683 1_555
O15 O8 1.321053 1_665
O15 P5 1.912823 1_555
O16 P4 1.155096 1_555
O17 V1 1.334052 1_555
O17 O22 1.434909 1_555
O18 P3 1.759825 1_555
O19 O22 1.519967 1_555
O20 P4 1.233602 1_555
O21 P5 1.481986 1_555
O22 P5 2.016528 1_555
O23 P4 1.866066 1_655
