# generated using pymatgen
data_Li3CrP2O9
_symmetry_space_group_name_H-M   'P 1'
_cell_length_a   8.83854700
_cell_length_b   6.82362400
_cell_length_c   11.68512585
_cell_angle_alpha   89.46476665
_cell_angle_beta   90.00000000
_cell_angle_gamma   90.00000000
_symmetry_Int_Tables_number   1
_chemical_formula_structural   Li3CrP2O9
_chemical_formula_sum   'Li12 Cr4 P8 O36'
_cell_volume   704.70995757
_cell_formula_units_Z   4
loop_
 _symmetry_equiv_pos_site_id
 _symmetry_equiv_pos_as_xyz
  1  'x, y, z'
loop_
 _atom_site_type_symbol
 _atom_site_label
 _atom_site_symmetry_multiplicity
 _atom_site_fract_x
 _atom_site_fract_y
 _atom_site_fract_z
 _atom_site_occupancy
  Li  Li0  1  0.38974300  0.39279100  0.92055000  1
  Li  Li1  1  0.24518700  0.31668600  0.50808300  1
  Li  Li2  1  0.90559200  0.24058400  0.25652900  1
  Li  Li3  1  0.09431600  0.26003000  0.75637500  1
  Li  Li4  1  0.75457200  0.18353900  0.00901800  1
  Li  Li5  1  0.61062300  0.10709900  0.42086200  1
  Li  Li6  1  0.11062300  0.89290100  0.57913800  1
  Li  Li7  1  0.25457200  0.81646100  0.99098200  1
  Li  Li8  1  0.59431600  0.73997000  0.24362500  1
  Li  Li9  1  0.40559200  0.75941600  0.74347100  1
  Li  Li10  1  0.74518700  0.68331400  0.49191700  1
  Li  Li11  1  0.88974300  0.60720900  0.07945000  1
  Cr  Cr0  1  0.75517400  0.48103200  0.75486700  1
  Cr  Cr1  1  0.24531500  0.02067100  0.25331900  1
  Cr  Cr2  1  0.74531500  0.97932900  0.74668100  1
  Cr  Cr3  1  0.25517400  0.51896800  0.24513300  1
  P  P0  1  0.12751400  0.26919700  0.03820300  1
  P  P1  1  0.53648200  0.26436600  0.16842900  1
  P  P2  1  0.46361900  0.23528200  0.66904900  1
  P  P3  1  0.87193500  0.23081000  0.53850300  1
  P  P4  1  0.37193500  0.76919000  0.46149700  1
  P  P5  1  0.96361900  0.76471800  0.33095100  1
  P  P6  1  0.03648200  0.73563400  0.83157100  1
  P  P7  1  0.62751400  0.73080300  0.96179700  1
  O  O0  1  0.21736300  0.45102500  0.08769700  1
  O  O1  1  0.46921800  0.45595400  0.22329100  1
  O  O2  1  0.80173500  0.42234600  0.59112300  1
  O  O3  1  0.53644400  0.41188200  0.73507500  1
  O  O4  1  0.95988900  0.28968700  0.06916200  1
  O  O5  1  0.20717500  0.28454700  0.29611400  1
  O  O6  1  0.70471500  0.25562200  0.19385600  1
  O  O7  1  0.16865100  0.26655100  0.91201600  1
  O  O8  1  0.48779800  0.24570500  0.53931600  1
  O  O9  1  0.51264000  0.25331300  0.03896700  1
  O  O10  1  0.83158500  0.23421600  0.41190700  1
  O  O11  1  0.29501400  0.24255900  0.69336100  1
  O  O12  1  0.79237800  0.23661700  0.79301600  1
  O  O13  1  0.03980700  0.20798600  0.56919000  1
  O  O14  1  0.45939300  0.08599500  0.23345400  1
  O  O15  1  0.19862500  0.07671100  0.09349600  1
  O  O16  1  0.53314500  0.04135900  0.72298400  1
  O  O17  1  0.78408200  0.04559700  0.58909700  1
  O  O18  1  0.28408200  0.95440300  0.41090300  1
  O  O19  1  0.03314500  0.95864100  0.27701600  1
  O  O20  1  0.69862500  0.92328900  0.90650400  1
  O  O21  1  0.95939300  0.91400500  0.76654600  1
  O  O22  1  0.53980700  0.79201400  0.43081000  1
  O  O23  1  0.29237800  0.76338300  0.20698400  1
  O  O24  1  0.79501400  0.75744100  0.30663900  1
  O  O25  1  0.33158500  0.76578400  0.58809300  1
  O  O26  1  0.01264000  0.74668700  0.96103300  1
  O  O27  1  0.66865100  0.73344900  0.08798400  1
  O  O28  1  0.98779800  0.75429500  0.46068400  1
  O  O29  1  0.20471500  0.74437800  0.80614400  1
  O  O30  1  0.70717500  0.71545300  0.70388600  1
  O  O31  1  0.45988900  0.71031300  0.93083800  1
  O  O32  1  0.03644400  0.58811800  0.26492500  1
  O  O33  1  0.30173500  0.57765400  0.40887700  1
  O  O34  1  0.96921800  0.54404600  0.77670900  1
  O  O35  1  0.71736300  0.54897500  0.91230300  1
loop_
_geom_bond_atom_site_label_1
_geom_bond_atom_site_label_2
_geom_bond_distance
_geom_bond_site_symmetry_2
Li0 O9 1.993938 1_556
Li0 O7 2.138274 1_555
Li0 O31 2.257893 1_555
Li0 O0 2.511664 1_556
Li0 O3 2.527867 1_555
Li1 O13 2.084537 1_555
Li1 O33 2.173964 1_555
Li1 O8 2.227697 1_555
Li1 O11 2.261979 1_555
Li1 O5 2.511190 1_555
Li2 O6 1.922943 1_555
Li2 O10 1.929955 1_555
Li2 O19 2.240755 1_645
Li2 O4 2.263266 1_555
Li2 O32 2.641078 1_655
Li3 O11 1.924753 1_555
Li3 O7 1.934625 1_555
Li3 O34 2.245777 1_455
Li3 O13 2.270889 1_555
Li4 O4 2.078751 1_555
Li4 O20 2.207451 1_544
Li4 O9 2.219169 1_555
Li4 O6 2.262950 1_555
Li4 O12 2.568343 1_554
Li5 O8 2.003341 1_555
Li5 O10 2.139107 1_555
Li5 O22 2.241250 1_545
Li5 O17 2.525022 1_555
Li5 O14 2.570773 1_555
Li6 O28 2.003341 1_455
Li6 O25 2.139107 1_555
Li6 O13 2.241250 1_565
Li6 O18 2.525022 1_555
Li6 O21 2.570773 1_455
Li7 O31 2.078751 1_555
Li7 O15 2.207451 1_566
Li7 O26 2.219169 1_555
Li7 O29 2.262950 1_555
Li7 O23 2.568343 1_556
Li8 O24 1.924753 1_555
Li8 O27 1.934625 1_555
Li8 O1 2.245777 1_555
Li8 O22 2.270889 1_555
Li9 O29 1.922943 1_555
Li9 O25 1.929955 1_555
Li9 O16 2.240755 1_565
Li9 O31 2.263266 1_555
Li9 O3 2.641078 1_555
Li10 O22 2.084537 1_555
Li10 O2 2.173964 1_555
Li10 O28 2.227697 1_555
Li10 O24 2.261979 1_555
Li10 O30 2.511190 1_555
Li11 O26 1.993938 1_654
Li11 O27 2.138274 1_555
Li11 O4 2.257893 1_555
Li11 O35 2.511664 1_554
Li11 O32 2.527867 1_655
Cr0 O12 1.753425 1_555
Cr0 O30 1.753791 1_555
Cr0 O35 1.930520 1_555
Cr0 O34 1.957327 1_555
Cr0 O2 2.001254 1_555
Cr0 O3 2.003908 1_555
Cr1 O23 1.888437 1_545
Cr1 O5 1.903326 1_555
Cr1 O18 1.922768 1_545
Cr1 O19 1.941725 1_545
Cr1 O15 1.947032 1_555
Cr1 O14 1.957250 1_555
Cr2 O12 1.888437 1_565
Cr2 O30 1.903326 1_555
Cr2 O17 1.922768 1_565
Cr2 O16 1.941725 1_565
Cr2 O20 1.947032 1_555
Cr2 O21 1.957250 1_555
Cr3 O23 1.753425 1_555
Cr3 O5 1.753791 1_555
Cr3 O0 1.930520 1_555
Cr3 O1 1.957327 1_555
Cr3 O33 2.001254 1_555
Cr3 O32 2.003908 1_555
O0 P0 1.586801 1_555
O1 P1 1.577712 1_555
O2 P3 1.576778 1_555
O3 P2 1.574508 1_555
O4 P0 1.531792 1_655
O6 P1 1.517394 1_555
O7 P0 1.518949 1_556
O8 P2 1.531930 1_555
O9 P1 1.529944 1_555
O10 P3 1.521639 1_555
O11 P2 1.517959 1_555
O13 P3 1.534044 1_455
O14 P1 1.582947 1_555
O15 P0 1.588014 1_555
O16 P2 1.584377 1_555
O17 P3 1.592403 1_555
O18 P4 1.592403 1_555
O19 P5 1.584377 1_455
O20 P7 1.588014 1_555
O21 P6 1.582947 1_655
O22 P4 1.534044 1_555
O24 P5 1.517959 1_555
O25 P4 1.521639 1_555
O26 P6 1.529944 1_555
O27 P7 1.518949 1_554
O28 P5 1.531930 1_555
O29 P6 1.517394 1_555
O31 P7 1.531792 1_555
O32 P5 1.574508 1_455
O33 P4 1.576778 1_555
O34 P6 1.577712 1_655
O35 P7 1.586801 1_555
