# generated using pymatgen
data_KNpCuS3
_symmetry_space_group_name_H-M   'P 1'
_cell_length_a   7.25251361
_cell_length_b   7.25251361
_cell_length_c   10.19044200
_cell_angle_alpha   90.00000000
_cell_angle_beta   90.00000000
_cell_angle_gamma   148.18979697
_symmetry_Int_Tables_number   1
_chemical_formula_structural   KNpCuS3
_chemical_formula_sum   'K2 Np2 Cu2 S6'
_cell_volume   282.53289519
_cell_formula_units_Z   2
loop_
 _symmetry_equiv_pos_site_id
 _symmetry_equiv_pos_as_xyz
  1  'x, y, z'
loop_
 _atom_site_type_symbol
 _atom_site_label
 _atom_site_symmetry_multiplicity
 _atom_site_fract_x
 _atom_site_fract_y
 _atom_site_fract_z
 _atom_site_occupancy
  K  K0  1  0.74298700  0.25701300  0.25000000  1
  K  K1  1  0.25701300  0.74298700  0.75000000  1
  Np  Np0  1  0.00000000  0.00000000  0.50000000  1
  Np  Np1  1  0.00000000  0.00000000  0.00000000  1
  Cu  Cu0  1  0.46579400  0.53420600  0.25000000  1
  Cu  Cu1  1  0.53420600  0.46579400  0.75000000  1
  S  S0  1  0.37644900  0.62355100  0.43931300  1
  S  S1  1  0.06097900  0.93902100  0.25000000  1
  S  S2  1  0.37644900  0.62355100  0.06068700  1
  S  S3  1  0.62355100  0.37644900  0.93931300  1
  S  S4  1  0.93902100  0.06097900  0.75000000  1
  S  S5  1  0.62355100  0.37644900  0.56068700  1
loop_
_geom_bond_atom_site_label_1
_geom_bond_atom_site_label_2
_geom_bond_distance
_geom_bond_site_symmetry_2
K0 S1 3.224367 1_545
K0 S1 3.224367 1_655
K0 S2 3.337380 1_545
K0 S0 3.337380 1_545
K0 S0 3.337380 1_655
K0 S2 3.337380 1_655
K0 S5 3.577665 1_555
K0 S3 3.577665 1_554
K1 S4 3.224367 1_455
K1 S4 3.224367 1_565
K1 S5 3.337380 1_455
K1 S3 3.337380 1_455
K1 S5 3.337380 1_565
K1 S3 3.337380 1_565
K1 S2 3.577665 1_556
K1 S0 3.577665 1_555
Np0 S4 2.685872 1_455
Np0 S1 2.685872 1_545
Np0 S0 2.702430 1_445
Np0 S5 2.702430 1_445
Np0 S0 2.702430 1_555
Np0 S5 2.702430 1_555
Np1 S4 2.685872 1_454
Np1 S1 2.685872 1_545
Np1 S2 2.702430 1_445
Np1 S2 2.702430 1_555
Np1 S3 2.702430 1_554
Np1 S3 2.702430 1_444
Cu0 S2 2.296760 1_555
Cu0 S0 2.296760 1_555
Cu0 S1 2.390246 1_655
Cu0 S1 2.390246 1_545
Cu1 S5 2.296760 1_555
Cu1 S3 2.296760 1_555
Cu1 S4 2.390246 1_565
Cu1 S4 2.390246 1_455
