# generated using pymatgen
data_Cd(PO3)2
_symmetry_space_group_name_H-M   'P 1'
_cell_length_a   7.57599934
_cell_length_b   7.57599934
_cell_length_c   10.44956844
_cell_angle_alpha   65.96801028
_cell_angle_beta   65.96801028
_cell_angle_gamma   69.68253713
_symmetry_Int_Tables_number   1
_chemical_formula_structural   Cd(PO3)2
_chemical_formula_sum   'Cd4 P8 O24'
_cell_volume   488.32141452
_cell_formula_units_Z   4
loop_
 _symmetry_equiv_pos_site_id
 _symmetry_equiv_pos_as_xyz
  1  'x, y, z'
loop_
 _atom_site_type_symbol
 _atom_site_label
 _atom_site_symmetry_multiplicity
 _atom_site_fract_x
 _atom_site_fract_y
 _atom_site_fract_z
 _atom_site_occupancy
  Cd  Cd0  1  0.96427835  0.03572165  0.25000000  1
  Cd  Cd1  1  0.03572165  0.96427835  0.75000000  1
  Cd  Cd2  1  0.00000000  0.50000000  -0.00000000  1
  Cd  Cd3  1  0.50000000  -0.00000000  0.50000000  1
  P  P0  1  0.27981800  0.74013233  0.02092689  1
  P  P1  1  0.25986767  0.72018200  0.47907311  1
  P  P2  1  0.72018200  0.25986767  0.97907311  1
  P  P3  1  0.74013233  0.27981800  0.52092689  1
  P  P4  1  0.30978339  0.31273583  0.19161032  1
  P  P5  1  0.68726417  0.69021661  0.30838968  1
  P  P6  1  0.69021661  0.68726417  0.80838968  1
  P  P7  1  0.31273583  0.30978339  0.69161032  1
  O  O0  1  0.18969394  0.91356205  0.07381615  1
  O  O1  1  0.08643795  0.81030606  0.42618385  1
  O  O2  1  0.81030606  0.08643795  0.92618385  1
  O  O3  1  0.91356205  0.18969394  0.57381615  1
  O  O4  1  0.20050893  0.71854311  0.91861050  1
  O  O5  1  0.28145689  0.79949107  0.58138950  1
  O  O6  1  0.79949107  0.28145689  0.08138950  1
  O  O7  1  0.71854311  0.20050893  0.41861050  1
  O  O8  1  0.48838267  0.27060778  0.05198158  1
  O  O9  1  0.72939222  0.51161733  0.44801842  1
  O  O10  1  0.51161733  0.72939222  0.94801842  1
  O  O11  1  0.27060778  0.48838267  0.55198158  1
  O  O12  1  0.27562868  0.54483052  0.16069148  1
  O  O13  1  0.45516948  0.72437132  0.33930852  1
  O  O14  1  0.72437132  0.45516948  0.83930852  1
  O  O15  1  0.54483052  0.27562868  0.66069148  1
  O  O16  1  0.35761221  0.20689579  0.32982282  1
  O  O17  1  0.79310421  0.64238779  0.17017718  1
  O  O18  1  0.64238779  0.79310421  0.67017718  1
  O  O19  1  0.20689579  0.35761221  0.82982282  1
  O  O20  1  0.13412702  0.27873001  0.17937002  1
  O  O21  1  0.72126999  0.86587298  0.32062998  1
  O  O22  1  0.86587298  0.72126999  0.82062998  1
  O  O23  1  0.27873001  0.13412702  0.67937002  1
loop_
_geom_bond_atom_site_label_1
_geom_bond_atom_site_label_2
_geom_bond_distance
_geom_bond_site_symmetry_2
Cd0 O0 2.211738 1_645
Cd0 O1 2.211738 1_645
Cd0 O20 2.314041 1_655
Cd0 O21 2.314041 1_545
Cd0 O7 2.373751 1_555
Cd0 O6 2.373751 1_555
Cd1 O3 2.211738 1_465
Cd1 O2 2.211738 1_465
Cd1 O22 2.314041 1_455
Cd1 O23 2.314041 1_565
Cd1 O4 2.373751 1_555
Cd1 O5 2.373751 1_555
Cd2 O19 2.213766 1_554
Cd2 O17 2.213766 1_455
Cd2 O22 2.272669 1_454
Cd2 O20 2.272669 1_555
Cd2 O4 2.306410 1_554
Cd2 O6 2.306410 1_455
Cd3 O16 2.213766 1_555
Cd3 O18 2.213766 1_545
Cd3 O21 2.272669 1_545
Cd3 O23 2.272669 1_555
Cd3 O5 2.306410 1_545
Cd3 O7 2.306410 1_555
O0 P0 1.469382 1_555
O1 P1 1.469382 1_555
O2 P2 1.469382 1_555
O3 P3 1.469382 1_555
O4 P0 1.504920 1_556
O5 P1 1.504920 1_555
O6 P2 1.504920 1_554
O7 P3 1.504920 1_555
O8 P2 1.591390 1_554
O8 P4 1.591519 1_555
O9 P3 1.591390 1_555
O9 P5 1.591519 1_555
O10 P0 1.591390 1_556
O10 P6 1.591519 1_555
O11 P1 1.591390 1_555
O11 P7 1.591519 1_555
O12 P4 1.597670 1_555
O12 P0 1.599385 1_555
O13 P5 1.597670 1_555
O13 P1 1.599385 1_555
O14 P6 1.597670 1_555
O14 P2 1.599385 1_555
O15 P7 1.597670 1_555
O15 P3 1.599385 1_555
O16 P4 1.463345 1_555
O17 P5 1.463345 1_555
O18 P6 1.463345 1_555
O19 P7 1.463345 1_555
O20 P4 1.502415 1_555
O21 P5 1.502415 1_555
O22 P6 1.502415 1_555
O23 P7 1.502415 1_555
