# generated using pymatgen
data_Dy(Ni2P)2
_symmetry_space_group_name_H-M   'P 1'
_cell_length_a   7.05739774
_cell_length_b   7.05739774
_cell_length_c   3.55693878
_cell_angle_alpha   90.00000000
_cell_angle_beta   90.00000000
_cell_angle_gamma   90.00000000
_symmetry_Int_Tables_number   1
_chemical_formula_structural   Dy(Ni2P)2
_chemical_formula_sum   'Dy2 Ni8 P4'
_cell_volume   177.15996202
_cell_formula_units_Z   2
loop_
 _symmetry_equiv_pos_site_id
 _symmetry_equiv_pos_as_xyz
  1  'x, y, z'
loop_
 _atom_site_type_symbol
 _atom_site_label
 _atom_site_symmetry_multiplicity
 _atom_site_fract_x
 _atom_site_fract_y
 _atom_site_fract_z
 _atom_site_occupancy
  Dy  Dy0  1  0.49999900  0.49999900  -0.00000000  1
  Dy  Dy1  1  -0.00000000  -0.00000000  0.50000000  1
  Ni  Ni0  1  0.33627676  0.08400183  0.00000000  1
  Ni  Ni1  1  0.08400183  0.33627676  0.00000000  1
  Ni  Ni2  1  0.91599817  0.66372324  0.00000000  1
  Ni  Ni3  1  0.66372324  0.91599817  -0.00000000  1
  Ni  Ni4  1  0.58400183  0.16372324  0.50000000  1
  Ni  Ni5  1  0.83627676  0.41599817  0.50000000  1
  Ni  Ni6  1  0.16372324  0.58400183  0.50000000  1
  Ni  Ni7  1  0.41599817  0.83627676  0.50000000  1
  P  P0  1  0.77950790  0.22049210  0.00000000  1
  P  P1  1  0.22049210  0.77950790  0.00000000  1
  P  P2  1  0.27950890  0.27950890  0.50000000  1
  P  P3  1  0.72049110  0.72049110  0.50000000  1
loop_
_geom_bond_atom_site_label_1
_geom_bond_atom_site_label_2
_geom_bond_distance
_geom_bond_site_symmetry_2
Dy0 P1 2.789675 1_555
Dy0 P0 2.789675 1_555
Dy0 P2 2.829446 1_555
Dy0 P2 2.829446 1_554
Dy0 P3 2.829461 1_554
Dy0 P3 2.829461 1_555
Dy1 P2 2.789685 1_555
Dy1 P3 2.789685 1_445
Dy1 P1 2.829461 1_545
Dy1 P0 2.829461 1_455
Dy1 P0 2.829461 1_456
Dy1 P1 2.829461 1_546
Ni0 P2 2.286313 1_554
Ni0 P2 2.286313 1_555
Ni0 P1 2.299051 1_545
Ni1 P2 2.286313 1_554
Ni1 P2 2.286313 1_555
Ni1 P0 2.299051 1_455
Ni2 P3 2.286313 1_554
Ni2 P3 2.286313 1_555
Ni2 P1 2.299051 1_655
Ni3 P3 2.286313 1_554
Ni3 P3 2.286313 1_555
Ni3 P0 2.299051 1_565
Ni4 P0 2.286310 1_556
Ni4 P0 2.286310 1_555
Ni4 P2 2.299047 1_555
Ni5 P0 2.286310 1_555
Ni5 P0 2.286310 1_556
Ni5 P3 2.299047 1_555
Ni6 P1 2.286310 1_556
Ni6 P1 2.286310 1_555
Ni6 P2 2.299047 1_555
Ni7 P1 2.286310 1_555
Ni7 P1 2.286310 1_556
Ni7 P3 2.299047 1_555
