# generated using pymatgen
data_Mg3Tl
_symmetry_space_group_name_H-M   'P 1'
_cell_length_a   6.31400941
_cell_length_b   6.31396724
_cell_length_c   5.17040739
_cell_angle_alpha   90.00000000
_cell_angle_beta   90.00000000
_cell_angle_gamma   120.00086213
_symmetry_Int_Tables_number   1
_chemical_formula_structural   Mg3Tl
_chemical_formula_sum   'Mg6 Tl2'
_cell_volume   178.50861130
_cell_formula_units_Z   2
loop_
 _symmetry_equiv_pos_site_id
 _symmetry_equiv_pos_as_xyz
  1  'x, y, z'
loop_
 _atom_site_type_symbol
 _atom_site_label
 _atom_site_symmetry_multiplicity
 _atom_site_fract_x
 _atom_site_fract_y
 _atom_site_fract_z
 _atom_site_occupancy
  Mg  Mg0  1  0.16590272  0.33197332  0.25000000  1
  Mg  Mg1  1  0.16603612  0.83393832  0.25000000  1
  Mg  Mg2  1  0.66793570  0.83389988  0.25000000  1
  Mg  Mg3  1  0.33204712  0.16609965  0.74999900  1
  Mg  Mg4  1  0.83397883  0.16605887  0.74999900  1
  Mg  Mg5  1  0.83409400  0.66800778  0.74999900  1
  Tl  Tl0  1  0.66658318  0.33329241  0.25000000  1
  Tl  Tl1  1  0.33342633  0.66672577  0.74999900  1
loop_
_geom_bond_atom_site_label_1
_geom_bond_atom_site_label_2
_geom_bond_distance
_geom_bond_site_symmetry_2
Mg0 Mg2 3.144453 1_445
Mg0 Mg1 3.144998 1_545
Mg0 Tl0 3.156881 1_455
Mg0 Tl0 3.157145 1_555
Mg0 Mg4 3.158700 1_455
Mg0 Mg4 3.158708 1_454
Mg0 Mg3 3.159006 1_555
Mg0 Mg3 3.159014 1_554
Mg0 Tl1 3.167605 1_555
Mg0 Tl1 3.167614 1_554
Mg0 Mg1 3.168969 1_555
Mg0 Mg2 3.169453 1_555
Mg1 Mg2 3.144889 1_455
Mg1 Tl0 3.156648 1_565
Mg1 Tl0 3.157272 1_455
Mg1 Mg5 3.158757 1_455
Mg1 Mg5 3.158766 1_454
Mg1 Mg3 3.159439 1_565
Mg1 Mg3 3.159448 1_564
Mg1 Tl1 3.167150 1_555
Mg1 Tl1 3.167158 1_554
Mg1 Mg2 3.169120 1_555
Mg2 Tl0 3.156558 1_555
Mg2 Tl0 3.157427 1_565
Mg2 Mg5 3.159108 1_555
Mg2 Mg5 3.159116 1_554
Mg2 Mg4 3.159432 1_565
Mg2 Mg4 3.159440 1_564
Mg2 Tl1 3.166844 1_555
Mg2 Tl1 3.166853 1_554
Mg3 Mg5 3.144467 1_445
Mg3 Mg4 3.144679 1_455
Mg3 Tl1 3.156592 1_555
Mg3 Tl1 3.157394 1_545
Mg3 Tl0 3.166929 1_555
Mg3 Tl0 3.166937 1_556
Mg3 Mg4 3.169330 1_555
Mg3 Mg5 3.169439 1_555
Mg4 Mg5 3.145042 1_545
Mg4 Tl1 3.156599 1_545
Mg4 Tl1 3.157321 1_655
Mg4 Tl0 3.167233 1_555
Mg4 Tl0 3.167242 1_556
Mg4 Mg5 3.168925 1_555
Mg5 Tl1 3.156844 1_655
Mg5 Tl1 3.157181 1_555
Mg5 Tl0 3.167488 1_555
Mg5 Tl0 3.167497 1_556
