# generated using pymatgen
data_Na3NiO3
_symmetry_space_group_name_H-M   'P 1'
_cell_length_a   9.18631600
_cell_length_b   9.18631600
_cell_length_c   4.45453800
_cell_angle_alpha   90.00000000
_cell_angle_beta   90.00000000
_cell_angle_gamma   90.00000000
_symmetry_Int_Tables_number   1
_chemical_formula_structural   Na3NiO3
_chemical_formula_sum   'Na12 Ni4 O12'
_cell_volume   375.91134192
_cell_formula_units_Z   4
loop_
 _symmetry_equiv_pos_site_id
 _symmetry_equiv_pos_as_xyz
  1  'x, y, z'
loop_
 _atom_site_type_symbol
 _atom_site_label
 _atom_site_symmetry_multiplicity
 _atom_site_fract_x
 _atom_site_fract_y
 _atom_site_fract_z
 _atom_site_occupancy
  Na  Na0  1  0.62661300  0.12945700  0.00000000  1
  Na  Na1  1  0.37054300  0.12661300  0.50000000  1
  Na  Na2  1  0.85102400  0.14897600  0.50000000  1
  Na  Na3  1  0.35102400  0.35102400  0.00000000  1
  Na  Na4  1  0.87054300  0.37338700  0.00000000  1
  Na  Na5  1  0.12661300  0.37054300  0.50000000  1
  Na  Na6  1  0.87338700  0.62945700  0.50000000  1
  Na  Na7  1  0.12945700  0.62661300  0.00000000  1
  Na  Na8  1  0.64897600  0.64897600  0.00000000  1
  Na  Na9  1  0.14897600  0.85102400  0.50000000  1
  Na  Na10  1  0.62945700  0.87338700  0.50000000  1
  Na  Na11  1  0.37338700  0.87054300  0.00000000  1
  Ni  Ni0  1  0.10886500  0.10886500  0.00000000  1
  Ni  Ni1  1  0.60886500  0.39113500  0.50000000  1
  Ni  Ni2  1  0.39113500  0.60886500  0.50000000  1
  Ni  Ni3  1  0.89113500  0.89113500  0.00000000  1
  O  O0  1  0.90678400  0.09321600  0.00000000  1
  O  O1  1  0.30760500  0.10538800  0.00000000  1
  O  O2  1  0.60538800  0.19239500  0.50000000  1
  O  O3  1  0.10538800  0.30760500  0.00000000  1
  O  O4  1  0.80760500  0.39461200  0.50000000  1
  O  O5  1  0.40678400  0.40678400  0.50000000  1
  O  O6  1  0.59321600  0.59321600  0.50000000  1
  O  O7  1  0.19239500  0.60538800  0.50000000  1
  O  O8  1  0.89461200  0.69239500  0.00000000  1
  O  O9  1  0.39461200  0.80760500  0.50000000  1
  O  O10  1  0.69239500  0.89461200  0.00000000  1
  O  O11  1  0.09321600  0.90678400  0.00000000  1
loop_
_geom_bond_atom_site_label_1
_geom_bond_atom_site_label_2
_geom_bond_distance
_geom_bond_site_symmetry_2
Na0 O10 2.240396 1_545
Na0 O2 2.309334 1_554
Na0 O2 2.309334 1_555
Na0 O0 2.595182 1_555
Na0 O1 2.938838 1_555
Na1 O2 2.240396 1_555
Na1 O1 2.309334 1_556
Na1 O1 2.309334 1_555
Na1 O5 2.595182 1_555
Na1 O9 2.938838 1_545
Na2 O4 2.291470 1_555
Na2 O2 2.291470 1_555
Na2 O0 2.342111 1_555
Na2 O0 2.342111 1_556
Na3 O1 2.291470 1_555
Na3 O3 2.291470 1_555
Na3 O5 2.342111 1_555
Na3 O5 2.342111 1_554
Na4 O3 2.240396 1_655
Na4 O4 2.309334 1_554
Na4 O4 2.309334 1_555
Na4 O0 2.595182 1_555
Na4 O8 2.938838 1_555
Na5 O7 2.240396 1_555
Na5 O3 2.309334 1_556
Na5 O3 2.309334 1_555
Na5 O5 2.595182 1_555
Na5 O4 2.938838 1_455
Na6 O4 2.240396 1_555
Na6 O8 2.309334 1_556
Na6 O8 2.309334 1_555
Na6 O6 2.595182 1_555
Na6 O7 2.938838 1_655
Na7 O8 2.240396 1_455
Na7 O7 2.309334 1_555
Na7 O7 2.309334 1_554
Na7 O11 2.595182 1_555
Na7 O3 2.938838 1_555
Na8 O8 2.291470 1_555
Na8 O10 2.291470 1_555
Na8 O6 2.342111 1_554
Na8 O6 2.342111 1_555
Na9 O9 2.291470 1_555
Na9 O7 2.291470 1_555
Na9 O11 2.342111 1_556
Na9 O11 2.342111 1_555
Na10 O9 2.240396 1_555
Na10 O10 2.309334 1_555
Na10 O10 2.309334 1_556
Na10 O6 2.595182 1_555
Na10 O2 2.938838 1_565
Na11 O1 2.240396 1_565
Na11 O9 2.309334 1_555
Na11 O9 2.309334 1_554
Na11 O11 2.595182 1_555
Na11 O10 2.938838 1_555
Ni0 O3 1.825968 1_555
Ni0 O1 1.825968 1_555
Ni0 O11 1.861938 1_545
Ni0 O0 1.861938 1_455
Ni1 O4 1.825968 1_555
Ni1 O2 1.825968 1_555
Ni1 O5 1.861938 1_555
Ni1 O6 1.861938 1_555
Ni2 O7 1.825968 1_555
Ni2 O9 1.825968 1_555
Ni2 O5 1.861938 1_555
Ni2 O6 1.861938 1_555
Ni3 O8 1.825968 1_555
Ni3 O10 1.825968 1_555
Ni3 O0 1.861938 1_565
Ni3 O11 1.861938 1_655
