# generated using pymatgen
data_SmAg3
_symmetry_space_group_name_H-M   'P 1'
_cell_length_a   4.92328654
_cell_length_b   4.92328654
_cell_length_c   4.92328654
_cell_angle_alpha   60.00000000
_cell_angle_beta   60.00000000
_cell_angle_gamma   60.00000000
_symmetry_Int_Tables_number   1
_chemical_formula_structural   SmAg3
_chemical_formula_sum   'Sm1 Ag3'
_cell_volume   84.38210235
_cell_formula_units_Z   1
loop_
 _symmetry_equiv_pos_site_id
 _symmetry_equiv_pos_as_xyz
  1  'x, y, z'
loop_
 _atom_site_type_symbol
 _atom_site_label
 _atom_site_symmetry_multiplicity
 _atom_site_fract_x
 _atom_site_fract_y
 _atom_site_fract_z
 _atom_site_occupancy
  Sm  Sm0  1  0.75000000  0.75000000  0.75000000  1
  Ag  Ag0  1  -0.00000000  0.00000000  -0.00000000  1
  Ag  Ag1  1  0.50000000  0.50000000  0.50000000  1
  Ag  Ag2  1  0.24999900  0.24999900  0.24999900  1
loop_
_geom_bond_atom_site_label_1
_geom_bond_atom_site_label_2
_geom_bond_distance
_geom_bond_site_symmetry_2
Ag0 Ag2 3.014873 1_555
Ag0 Sm0 3.014885 1_544
Ag0 Sm0 3.014885 1_445
Ag0 Sm0 3.014885 1_444
Ag0 Sm0 3.014885 1_454
Ag0 Ag2 3.014889 1_554
Ag0 Ag2 3.014889 1_455
Ag0 Ag2 3.014889 1_545
Ag1 Ag2 3.014881 1_556
Ag1 Ag2 3.014881 1_565
Ag1 Ag2 3.014881 1_655
Ag1 Sm0 3.014885 1_455
Ag1 Sm0 3.014885 1_555
Ag1 Sm0 3.014885 1_545
Ag1 Sm0 3.014885 1_554
Ag1 Ag2 3.014897 1_555
Ag2 Sm0 3.481282 1_544
Ag2 Sm0 3.481282 1_445
Ag2 Sm0 3.481282 1_454
Ag2 Sm0 3.481296 1_545
Ag2 Sm0 3.481296 1_455
Ag2 Sm0 3.481296 1_554
