# generated using pymatgen
data_LiV2CrO6
_symmetry_space_group_name_H-M   'P 1'
_cell_length_a   5.46424309
_cell_length_b   5.46601160
_cell_length_c   5.46578323
_cell_angle_alpha   54.88151304
_cell_angle_beta   54.89930550
_cell_angle_gamma   54.88097638
_symmetry_Int_Tables_number   1
_chemical_formula_structural   LiV2CrO6
_chemical_formula_sum   'Li1 V2 Cr1 O6'
_cell_volume   101.69688695
_cell_formula_units_Z   1
loop_
 _symmetry_equiv_pos_site_id
 _symmetry_equiv_pos_as_xyz
  1  'x, y, z'
loop_
 _atom_site_type_symbol
 _atom_site_label
 _atom_site_symmetry_multiplicity
 _atom_site_fract_x
 _atom_site_fract_y
 _atom_site_fract_z
 _atom_site_occupancy
  Li  Li0  1  0.28973300  0.28972300  0.28975400  1
  V  V0  1  0.00282900  0.00288900  0.00258300  1
  V  V1  1  0.49702300  0.49712900  0.49694900  1
  Cr  Cr0  1  0.80099200  0.80112100  0.80092100  1
  O  O0  1  0.10416400  0.71756200  0.39671100  1
  O  O1  1  0.39672800  0.10413800  0.71744600  1
  O  O2  1  0.71749000  0.39674500  0.10417400  1
  O  O3  1  0.22479900  0.61433400  0.85248900  1
  O  O4  1  0.61449400  0.85254800  0.22461800  1
  O  O5  1  0.85254900  0.22461000  0.61435400  1
loop_
_geom_bond_atom_site_label_1
_geom_bond_atom_site_label_2
_geom_bond_distance
_geom_bond_site_symmetry_2
Li0 O3 2.087604 1_554
Li0 O5 2.087746 1_455
Li0 O4 2.087907 1_545
Li0 O1 2.235310 1_555
Li0 O2 2.235681 1_555
Li0 O0 2.236467 1_555
Cr0 O1 1.977671 1_565
Cr0 O0 1.978740 1_655
Cr0 O2 1.979018 1_556
Cr0 O5 2.044898 1_565
Cr0 O3 2.045466 1_655
Cr0 O4 2.045957 1_556
O0 V0 1.972898 1_565
O0 V1 1.994317 1_555
O1 V0 1.971874 1_556
O1 V1 1.995855 1_555
O2 V0 1.972744 1_655
O2 V1 1.995417 1_555
O3 V1 1.846920 1_555
O3 V0 2.133393 1_566
O4 V1 1.846815 1_555
O4 V0 2.132631 1_665
O5 V1 1.846374 1_555
O5 V0 2.132121 1_656
