# generated using pymatgen
data_Li2VCrO4
_symmetry_space_group_name_H-M   'P 1'
_cell_length_a   5.16718300
_cell_length_b   6.01438833
_cell_length_c   7.88029918
_cell_angle_alpha   101.29690357
_cell_angle_beta   96.53977974
_cell_angle_gamma   106.63168596
_symmetry_Int_Tables_number   1
_chemical_formula_structural   Li2VCrO4
_chemical_formula_sum   'Li6 V3 Cr3 O12'
_cell_volume   226.31181807
_cell_formula_units_Z   3
loop_
 _symmetry_equiv_pos_site_id
 _symmetry_equiv_pos_as_xyz
  1  'x, y, z'
loop_
 _atom_site_type_symbol
 _atom_site_label
 _atom_site_symmetry_multiplicity
 _atom_site_fract_x
 _atom_site_fract_y
 _atom_site_fract_z
 _atom_site_occupancy
  Li  Li0  1  0.50154300  0.58218000  0.83498100  1
  Li  Li1  1  0.49845700  0.41782000  0.16501900  1
  Li  Li2  1  0.49855100  0.24515900  0.50219500  1
  Li  Li3  1  0.49851200  0.08325200  0.83309100  1
  Li  Li4  1  0.50148800  0.91674800  0.16690900  1
  Li  Li5  1  0.50144900  0.75484100  0.49780500  1
  V  V0  1  0.00000000  0.50000000  0.00000000  1
  V  V1  1  0.00062200  0.33498600  0.33325600  1
  V  V2  1  0.99937800  0.66501400  0.66674400  1
  Cr  Cr0  1  0.00132700  0.16342900  0.66713600  1
  Cr  Cr1  1  0.00000000  0.00000000  0.00000000  1
  Cr  Cr2  1  0.99867300  0.83657100  0.33286400  1
  O  O0  1  0.77480500  0.55022000  0.41789500  1
  O  O1  1  0.77482900  0.21552900  0.08440700  1
  O  O2  1  0.22519500  0.44978000  0.58210500  1
  O  O3  1  0.77309200  0.37219500  0.75386100  1
  O  O4  1  0.22855500  0.27765600  0.91336000  1
  O  O5  1  0.77394700  0.04660000  0.42144000  1
  O  O6  1  0.22422400  0.12094600  0.24843000  1
  O  O7  1  0.77144500  0.72234400  0.08664000  1
  O  O8  1  0.22517100  0.78447100  0.91559300  1
  O  O9  1  0.77577600  0.87905400  0.75157000  1
  O  O10  1  0.22605300  0.95340000  0.57856000  1
  O  O11  1  0.22690800  0.62780500  0.24613900  1
loop_
_geom_bond_atom_site_label_1
_geom_bond_atom_site_label_2
_geom_bond_distance
_geom_bond_site_symmetry_2
Li0 O7 2.151869 1_556
Li0 O2 2.173328 1_555
Li0 O8 2.195811 1_555
Li0 O9 2.202655 1_555
Li0 O3 2.207909 1_555
Li0 O4 2.210990 1_555
Li1 O4 2.151869 1_554
Li1 O0 2.173328 1_555
Li1 O1 2.195811 1_555
Li1 O6 2.202655 1_555
Li1 O11 2.207909 1_555
Li1 O7 2.210990 1_555
Li2 O10 2.148547 1_545
Li2 O3 2.162022 1_555
Li2 O6 2.174672 1_555
Li2 O5 2.176563 1_555
Li2 O2 2.190945 1_555
Li2 O0 2.244897 1_555
Li3 O4 2.134909 1_555
Li3 O3 2.153670 1_555
Li3 O1 2.163801 1_556
Li3 O10 2.174573 1_545
Li3 O8 2.204705 1_545
Li3 O9 2.209363 1_545
Li4 O7 2.134909 1_555
Li4 O11 2.153670 1_555
Li4 O8 2.163801 1_554
Li4 O5 2.174573 1_565
Li4 O1 2.204705 1_565
Li4 O6 2.209363 1_565
Li5 O5 2.148547 1_565
Li5 O11 2.162022 1_555
Li5 O9 2.174672 1_555
Li5 O10 2.176563 1_555
Li5 O0 2.190945 1_555
Li5 O2 2.244897 1_555
Cr0 O5 2.024623 1_455
Cr0 O10 2.027340 1_545
Cr0 O4 2.027918 1_555
Cr0 O3 2.032108 1_455
Cr0 O9 2.051272 1_445
Cr0 O2 2.059475 1_555
Cr1 O9 2.036434 1_444
Cr1 O6 2.036434 1_555
Cr1 O7 2.037392 1_445
Cr1 O4 2.037392 1_554
Cr1 O1 2.044095 1_455
Cr1 O8 2.044095 1_544
Cr2 O10 2.024623 1_655
Cr2 O5 2.027340 1_565
Cr2 O7 2.027918 1_555
Cr2 O11 2.032108 1_655
Cr2 O6 2.051272 1_665
Cr2 O0 2.059475 1_555
O0 V2 2.039942 1_555
O0 V1 2.045913 1_655
O1 V1 2.042048 1_655
O1 V0 2.050860 1_655
O2 V1 2.039942 1_555
O2 V2 2.045913 1_455
O3 V0 2.027245 1_656
O3 V2 2.101854 1_555
O4 V0 2.092642 1_556
O5 V1 2.087549 1_655
O6 V1 2.032034 1_555
O7 V0 2.092642 1_655
O8 V2 2.042048 1_455
O8 V0 2.050860 1_556
O9 V2 2.032034 1_555
O10 V2 2.087549 1_455
O11 V0 2.027245 1_555
O11 V1 2.101854 1_555
