# generated using pymatgen
data_VP4
_symmetry_space_group_name_H-M   'P 1'
_cell_length_a   5.24153411
_cell_length_b   5.84497789
_cell_length_c   6.07179658
_cell_angle_alpha   81.27831955
_cell_angle_beta   64.42279337
_cell_angle_gamma   69.41173956
_symmetry_Int_Tables_number   1
_chemical_formula_structural   VP4
_chemical_formula_sum   'V2 P8'
_cell_volume   157.07390161
_cell_formula_units_Z   2
loop_
 _symmetry_equiv_pos_site_id
 _symmetry_equiv_pos_as_xyz
  1  'x, y, z'
loop_
 _atom_site_type_symbol
 _atom_site_label
 _atom_site_symmetry_multiplicity
 _atom_site_fract_x
 _atom_site_fract_y
 _atom_site_fract_z
 _atom_site_occupancy
  V  V0  1  0.06326349  0.25006108  0.87349391  1
  V  V1  1  0.93673651  0.74993892  0.12650609  1
  P  P0  1  0.49864194  0.31065557  0.55284479  1
  P  P1  1  0.94851969  0.18934990  0.55286184  1
  P  P2  1  0.18627601  0.32244628  0.17823198  1
  P  P3  1  0.63540835  0.17764033  0.17805198  1
  P  P4  1  0.81372399  0.67755372  0.82176802  1
  P  P5  1  0.36459165  0.82235967  0.82194802  1
  P  P6  1  0.05148031  0.81065010  0.44713816  1
  P  P7  1  0.50135806  0.68934443  0.44715521  1
loop_
_geom_bond_atom_site_label_1
_geom_bond_atom_site_label_2
_geom_bond_distance
_geom_bond_site_symmetry_2
P0 P1 2.210756 1_555
P0 P7 2.212416 1_555
P0 P3 2.243436 1_555
P0 V0 2.376279 1_555
P1 P6 2.212358 1_645
P1 P2 2.242747 1_655
P1 V0 2.376622 1_655
P2 P3 2.203425 1_555
P2 V0 2.340465 1_554
P2 V1 2.423021 1_455
P3 V0 2.340415 1_654
P3 V1 2.423964 1_545
P4 P5 2.203425 1_555
P4 P6 2.242747 1_655
P4 V1 2.340465 1_556
P4 V0 2.423021 1_655
P5 P7 2.243436 1_555
P5 V1 2.340415 1_456
P5 V0 2.423964 1_565
P6 P7 2.210756 1_555
P6 V1 2.376622 1_455
P7 V1 2.376279 1_555
