# generated using pymatgen
data_MgSc2
_symmetry_space_group_name_H-M   'P 1'
_cell_length_a   6.66598417
_cell_length_b   16.81877980
_cell_length_c   10.46605290
_cell_angle_alpha   90.00000741
_cell_angle_beta   90.00000991
_cell_angle_gamma   78.56420973
_symmetry_Int_Tables_number   1
_chemical_formula_structural   MgSc2
_chemical_formula_sum   'Mg16 Sc32'
_cell_volume   1150.09345303
_cell_formula_units_Z   16
loop_
 _symmetry_equiv_pos_site_id
 _symmetry_equiv_pos_as_xyz
  1  'x, y, z'
loop_
 _atom_site_type_symbol
 _atom_site_label
 _atom_site_symmetry_multiplicity
 _atom_site_fract_x
 _atom_site_fract_y
 _atom_site_fract_z
 _atom_site_occupancy
  Mg  Mg0_0  1  0.16278164  0.17162606  0.00000000  1
  Mg  Mg0_1  1  0.16278164  0.17162606  0.50000000  1
  Mg  Mg0_2  1  0.16278164  0.67162606  0.00000000  1
  Mg  Mg0_3  1  0.16278164  0.67162606  0.50000000  1
  Mg  Mg0_4  1  0.66278164  0.17162606  0.00000000  1
  Mg  Mg0_5  1  0.66278164  0.17162606  0.50000000  1
  Mg  Mg0_6  1  0.66278164  0.67162606  0.00000000  1
  Mg  Mg0_7  1  0.66278164  0.67162606  0.50000000  1
  Mg  Mg1_0  1  0.22403492  0.05034003  0.24999998  1
  Mg  Mg1_1  1  0.22403492  0.05034003  0.74999998  1
  Mg  Mg1_2  1  0.22403492  0.55034004  0.24999998  1
  Mg  Mg1_3  1  0.22403492  0.55034004  0.74999998  1
  Mg  Mg1_4  1  0.72403492  0.05034003  0.24999998  1
  Mg  Mg1_5  1  0.72403492  0.05034003  0.74999998  1
  Mg  Mg1_6  1  0.72403492  0.55034003  0.24999998  1
  Mg  Mg1_7  1  0.72403492  0.55034004  0.74999998  1
  Sc  Sc0_0  1  0.49672791  0.00724962  0.00000001  1
  Sc  Sc0_1  1  0.49672791  0.00724962  0.50000002  1
  Sc  Sc0_2  1  0.49672791  0.50724962  0.00000001  1
  Sc  Sc0_3  1  0.49672791  0.50724962  0.50000001  1
  Sc  Sc0_4  1  0.99672791  0.00724962  0.00000001  1
  Sc  Sc0_5  1  0.99672791  0.00724962  0.50000002  1
  Sc  Sc0_6  1  0.99672791  0.50724961  0.00000002  1
  Sc  Sc0_7  1  0.99672791  0.50724962  0.50000001  1
  Sc  Sc1_0  1  0.33262765  0.33605970  0.99999997  1
  Sc  Sc1_1  1  0.33262765  0.33605970  0.49999997  1
  Sc  Sc1_2  1  0.33262765  0.83605970  0.99999997  1
  Sc  Sc1_3  1  0.33262764  0.83605970  0.49999997  1
  Sc  Sc1_4  1  0.83262765  0.33605970  0.99999997  1
  Sc  Sc1_5  1  0.83262765  0.33605970  0.49999997  1
  Sc  Sc1_6  1  0.83262764  0.83605970  0.99999997  1
  Sc  Sc1_7  1  0.83262765  0.83605970  0.49999997  1
  Sc  Sc2_0  1  0.39278373  0.21508189  0.24999998  1
  Sc  Sc2_1  1  0.39278373  0.21508190  0.74999998  1
  Sc  Sc2_2  1  0.39278373  0.71508190  0.24999998  1
  Sc  Sc2_3  1  0.39278373  0.71508190  0.74999998  1
  Sc  Sc2_4  1  0.89278373  0.21508189  0.24999998  1
  Sc  Sc2_5  1  0.89278373  0.21508190  0.74999998  1
  Sc  Sc2_6  1  0.89278373  0.71508189  0.24999998  1
  Sc  Sc2_7  1  0.89278373  0.71508190  0.74999998  1
  Sc  Sc3_0  1  0.05770915  0.38630970  0.25000005  1
  Sc  Sc3_1  1  0.05770915  0.38630970  0.75000006  1
  Sc  Sc3_2  1  0.05770915  0.88630970  0.25000005  1
  Sc  Sc3_3  1  0.05770915  0.88630970  0.75000005  1
  Sc  Sc3_4  1  0.55770915  0.38630970  0.25000005  1
  Sc  Sc3_5  1  0.55770915  0.38630970  0.75000005  1
  Sc  Sc3_6  1  0.55770915  0.88630970  0.25000006  1
  Sc  Sc3_7  1  0.55770915  0.88630970  0.75000005  1
loop_
_geom_bond_atom_site_label_1
_geom_bond_atom_site_label_2
_geom_bond_distance
_geom_bond_site_symmetry_2
Mg0_0 Sc1_4 3.174649 1_454
Mg0_0 Sc0_4 3.175187 1_455
Mg0_0 Sc2_5 3.177733 1_454
Mg0_0 Sc2_4 3.177733 1_455
Mg0_0 Sc0_0 3.187179 1_555
Mg0_0 Sc1_0 3.189338 1_554
Mg0_0 Sc2_0 3.189880 1_555
Mg0_0 Sc2_1 3.189881 1_554
Mg0_0 Mg1_0 3.292978 1_555
Mg0_0 Mg1_1 3.292978 1_554
Mg0_0 Mg0_4 3.332992 1_455
Mg0_0 Mg0_4 3.332992 1_555
Mg0_1 Sc1_5 3.174649 1_455
Mg0_1 Sc0_5 3.175187 1_455
Mg0_1 Sc2_4 3.177733 1_455
Mg0_1 Sc2_5 3.177733 1_455
Mg0_1 Sc0_1 3.187179 1_555
Mg0_1 Sc1_1 3.189338 1_555
Mg0_1 Sc2_1 3.189880 1_555
Mg0_1 Sc2_0 3.189881 1_555
Mg0_1 Mg1_1 3.292978 1_555
Mg0_1 Mg1_0 3.292978 1_555
Mg0_1 Mg0_5 3.332992 1_555
Mg0_1 Mg0_5 3.332992 1_455
Mg0_2 Sc1_6 3.174649 1_454
Mg0_2 Sc0_6 3.175187 1_455
Mg0_2 Sc2_7 3.177733 1_454
Mg0_2 Sc2_6 3.177733 1_455
Mg0_2 Sc0_2 3.187179 1_555
Mg0_2 Sc1_2 3.189338 1_554
Mg0_2 Sc2_2 3.189880 1_555
Mg0_2 Sc2_3 3.189881 1_554
Mg0_2 Mg1_2 3.292978 1_555
Mg0_2 Mg1_3 3.292978 1_554
Mg0_2 Mg0_6 3.332992 1_555
Mg0_2 Mg0_6 3.332992 1_455
Mg0_3 Sc1_7 3.174649 1_455
Mg0_3 Sc0_7 3.175187 1_455
Mg0_3 Sc2_6 3.177733 1_455
Mg0_3 Sc2_7 3.177733 1_455
Mg0_3 Sc0_3 3.187179 1_555
Mg0_3 Sc1_3 3.189338 1_555
Mg0_3 Sc2_3 3.189880 1_555
Mg0_3 Sc2_2 3.189881 1_555
Mg0_3 Mg1_3 3.292978 1_555
Mg0_3 Mg1_2 3.292978 1_555
Mg0_3 Mg0_7 3.332992 1_555
Mg0_3 Mg0_7 3.332992 1_455
Mg0_4 Sc1_0 3.174649 1_554
Mg0_4 Sc0_0 3.175187 1_555
Mg0_4 Sc2_1 3.177733 1_554
Mg0_4 Sc2_0 3.177733 1_555
Mg0_4 Sc0_4 3.187179 1_555
Mg0_4 Sc1_4 3.189338 1_554
Mg0_4 Sc2_4 3.189880 1_555
Mg0_4 Sc2_5 3.189881 1_554
Mg0_4 Mg1_4 3.292978 1_555
Mg0_4 Mg1_5 3.292978 1_554
Mg0_5 Sc1_1 3.174649 1_555
Mg0_5 Sc0_1 3.175187 1_555
Mg0_5 Sc2_0 3.177733 1_555
Mg0_5 Sc2_1 3.177733 1_555
Mg0_5 Sc0_5 3.187179 1_555
Mg0_5 Sc1_5 3.189338 1_555
Mg0_5 Sc2_5 3.189880 1_555
Mg0_5 Sc2_4 3.189881 1_555
Mg0_5 Mg1_5 3.292978 1_555
Mg0_5 Mg1_4 3.292978 1_555
Mg0_6 Sc1_2 3.174649 1_554
Mg0_6 Sc0_2 3.175187 1_555
Mg0_6 Sc2_3 3.177733 1_554
Mg0_6 Sc2_2 3.177733 1_555
Mg0_6 Sc0_6 3.187179 1_555
Mg0_6 Sc1_6 3.189338 1_554
Mg0_6 Sc2_6 3.189880 1_555
Mg0_6 Sc2_7 3.189881 1_554
Mg0_6 Mg1_6 3.292978 1_555
Mg0_6 Mg1_7 3.292978 1_554
Mg0_7 Sc1_3 3.174649 1_555
Mg0_7 Sc0_3 3.175187 1_555
Mg0_7 Sc2_2 3.177733 1_555
Mg0_7 Sc2_3 3.177733 1_555
Mg0_7 Sc0_7 3.187179 1_555
Mg0_7 Sc1_7 3.189338 1_555
Mg0_7 Sc2_7 3.189880 1_555
Mg0_7 Sc2_6 3.189881 1_555
Mg0_7 Mg1_7 3.292978 1_555
Mg0_7 Mg1_6 3.292978 1_555
Mg1_0 Sc3_2 3.170663 1_545
Mg1_0 Sc0_4 3.178479 1_455
Mg1_0 Sc0_5 3.178480 1_455
Mg1_0 Sc3_6 3.181982 1_545
Mg1_0 Sc2_4 3.182260 1_455
Mg1_0 Sc0_0 3.186417 1_555
Mg1_0 Sc0_1 3.186417 1_555
Mg1_0 Sc2_0 3.190354 1_555
Mg1_0 Mg1_4 3.332992 1_455
Mg1_0 Mg1_4 3.332992 1_555
Mg1_1 Sc3_3 3.170663 1_545
Mg1_1 Sc0_5 3.178479 1_455
Mg1_1 Sc0_4 3.178480 1_456
Mg1_1 Sc3_7 3.181982 1_545
Mg1_1 Sc2_5 3.182260 1_455
Mg1_1 Sc0_1 3.186417 1_555
Mg1_1 Sc0_0 3.186417 1_556
Mg1_1 Sc2_1 3.190354 1_555
Mg1_1 Mg1_5 3.332992 1_455
Mg1_1 Mg1_5 3.332992 1_555
Mg1_2 Sc3_0 3.170663 1_555
Mg1_2 Sc0_6 3.178479 1_455
Mg1_2 Sc0_7 3.178480 1_455
Mg1_2 Sc3_4 3.181982 1_555
Mg1_2 Sc2_6 3.182260 1_455
Mg1_2 Sc0_2 3.186417 1_555
Mg1_2 Sc0_3 3.186417 1_555
Mg1_2 Sc2_2 3.190354 1_555
Mg1_2 Mg1_6 3.332992 1_555
Mg1_2 Mg1_6 3.332992 1_455
Mg1_3 Sc3_1 3.170663 1_555
Mg1_3 Sc0_7 3.178479 1_455
Mg1_3 Sc0_6 3.178480 1_456
Mg1_3 Sc3_5 3.181982 1_555
Mg1_3 Sc2_7 3.182260 1_455
Mg1_3 Sc0_3 3.186417 1_555
Mg1_3 Sc0_2 3.186417 1_556
Mg1_3 Sc2_3 3.190354 1_555
Mg1_3 Mg1_7 3.332992 1_555
Mg1_3 Mg1_7 3.332992 1_455
Mg1_4 Sc3_6 3.170663 1_545
Mg1_4 Sc0_0 3.178479 1_555
Mg1_4 Sc0_1 3.178480 1_555
Mg1_4 Sc3_2 3.181982 1_645
Mg1_4 Sc2_0 3.182260 1_555
Mg1_4 Sc0_4 3.186417 1_555
Mg1_4 Sc0_5 3.186417 1_555
Mg1_4 Sc2_4 3.190354 1_555
Mg1_5 Sc3_7 3.170663 1_545
Mg1_5 Sc0_1 3.178479 1_555
Mg1_5 Sc0_0 3.178480 1_556
Mg1_5 Sc3_3 3.181982 1_645
Mg1_5 Sc2_1 3.182260 1_555
Mg1_5 Sc0_5 3.186417 1_555
Mg1_5 Sc0_4 3.186417 1_556
Mg1_5 Sc2_5 3.190354 1_555
Mg1_6 Sc3_4 3.170663 1_555
Mg1_6 Sc0_2 3.178479 1_555
Mg1_6 Sc0_3 3.178480 1_555
Mg1_6 Sc3_0 3.181982 1_655
Mg1_6 Sc2_2 3.182260 1_555
Mg1_6 Sc0_6 3.186417 1_555
Mg1_6 Sc0_7 3.186417 1_555
Mg1_6 Sc2_6 3.190354 1_555
Mg1_7 Sc3_5 3.170663 1_555
Mg1_7 Sc0_3 3.178479 1_555
Mg1_7 Sc0_2 3.178480 1_556
Mg1_7 Sc3_1 3.181982 1_655
Mg1_7 Sc2_3 3.182260 1_555
Mg1_7 Sc0_7 3.186417 1_555
Mg1_7 Sc0_6 3.186417 1_556
Mg1_7 Sc2_7 3.190354 1_555
Sc0_0 Sc1_2 3.276482 1_544
Sc0_0 Sc1_6 3.278259 1_544
Sc0_0 Sc3_7 3.289515 1_544
Sc0_0 Sc3_6 3.289516 1_545
Sc0_0 Sc0_4 3.332992 1_455
Sc0_0 Sc0_4 3.332992 1_555
Sc0_1 Sc1_3 3.276482 1_545
Sc0_1 Sc1_7 3.278259 1_545
Sc0_1 Sc3_6 3.289515 1_545
Sc0_1 Sc3_7 3.289516 1_545
Sc0_1 Sc0_5 3.332992 1_455
Sc0_1 Sc0_5 3.332992 1_555
Sc0_2 Sc1_0 3.276482 1_554
Sc0_2 Sc1_4 3.278259 1_554
Sc0_2 Sc3_5 3.289515 1_554
Sc0_2 Sc3_4 3.289516 1_555
Sc0_2 Sc0_6 3.332992 1_555
Sc0_2 Sc0_6 3.332992 1_455
Sc0_3 Sc1_1 3.276482 1_555
Sc0_3 Sc1_5 3.278259 1_555
Sc0_3 Sc3_4 3.289515 1_555
Sc0_3 Sc3_5 3.289516 1_555
Sc0_3 Sc0_7 3.332992 1_555
Sc0_3 Sc0_7 3.332992 1_455
Sc0_4 Sc1_6 3.276482 1_544
Sc0_4 Sc1_2 3.278259 1_644
Sc0_4 Sc3_3 3.289515 1_644
Sc0_4 Sc3_2 3.289516 1_645
Sc0_5 Sc1_7 3.276482 1_545
Sc0_5 Sc1_3 3.278259 1_645
Sc0_5 Sc3_2 3.289515 1_645
Sc0_5 Sc3_3 3.289516 1_645
Sc0_6 Sc1_4 3.276482 1_554
Sc0_6 Sc1_0 3.278259 1_654
Sc0_6 Sc3_1 3.289515 1_654
Sc0_6 Sc3_0 3.289516 1_655
Sc0_7 Sc1_5 3.276482 1_555
Sc0_7 Sc1_1 3.278259 1_655
Sc0_7 Sc3_0 3.289515 1_655
Sc0_7 Sc3_1 3.289516 1_655
Sc1_0 Sc3_1 3.210089 1_555
Sc1_0 Sc3_0 3.210091 1_556
Sc1_0 Sc3_5 3.211605 1_555
Sc1_0 Sc3_4 3.211606 1_556
Sc1_0 Sc2_1 3.289893 1_555
Sc1_0 Sc2_0 3.289894 1_556
Sc1_0 Sc1_4 3.332992 1_455
Sc1_0 Sc1_4 3.332992 1_555
Sc1_1 Sc3_0 3.210089 1_555
Sc1_1 Sc3_1 3.210091 1_555
Sc1_1 Sc3_4 3.211605 1_555
Sc1_1 Sc3_5 3.211606 1_555
Sc1_1 Sc2_0 3.289893 1_555
Sc1_1 Sc2_1 3.289894 1_555
Sc1_1 Sc1_5 3.332992 1_455
Sc1_1 Sc1_5 3.332992 1_555
Sc1_2 Sc3_3 3.210089 1_555
Sc1_2 Sc3_2 3.210091 1_556
Sc1_2 Sc3_7 3.211605 1_555
Sc1_2 Sc3_6 3.211606 1_556
Sc1_2 Sc2_3 3.289893 1_555
Sc1_2 Sc2_2 3.289894 1_556
Sc1_2 Sc1_6 3.332992 1_555
Sc1_2 Sc1_6 3.332992 1_455
Sc1_3 Sc3_2 3.210089 1_555
Sc1_3 Sc3_3 3.210091 1_555
Sc1_3 Sc3_6 3.211605 1_555
Sc1_3 Sc3_7 3.211606 1_555
Sc1_3 Sc2_2 3.289893 1_555
Sc1_3 Sc2_3 3.289894 1_555
Sc1_3 Sc1_7 3.332992 1_455
Sc1_3 Sc1_7 3.332992 1_555
Sc1_4 Sc3_5 3.210089 1_555
Sc1_4 Sc3_4 3.210091 1_556
Sc1_4 Sc3_1 3.211605 1_655
Sc1_4 Sc3_0 3.211606 1_656
Sc1_4 Sc2_5 3.289893 1_555
Sc1_4 Sc2_4 3.289894 1_556
Sc1_5 Sc3_4 3.210089 1_555
Sc1_5 Sc3_5 3.210091 1_555
Sc1_5 Sc3_0 3.211605 1_655
Sc1_5 Sc3_1 3.211606 1_655
Sc1_5 Sc2_4 3.289893 1_555
Sc1_5 Sc2_5 3.289894 1_555
Sc1_6 Sc3_7 3.210089 1_555
Sc1_6 Sc3_6 3.210091 1_556
Sc1_6 Sc3_3 3.211605 1_655
Sc1_6 Sc3_2 3.211606 1_656
Sc1_6 Sc2_7 3.289893 1_555
Sc1_6 Sc2_6 3.289894 1_556
Sc1_7 Sc3_6 3.210089 1_555
Sc1_7 Sc3_7 3.210091 1_555
Sc1_7 Sc3_2 3.211605 1_655
Sc1_7 Sc3_3 3.211606 1_655
Sc1_7 Sc2_6 3.289893 1_555
Sc1_7 Sc2_7 3.289894 1_555
Sc2_0 Sc3_0 3.275937 1_555
Sc2_0 Sc3_4 3.279882 1_555
Sc2_0 Sc2_4 3.332992 1_555
Sc2_0 Sc2_4 3.332992 1_455
Sc2_1 Sc3_1 3.275937 1_555
Sc2_1 Sc3_5 3.279882 1_555
Sc2_1 Sc2_5 3.332992 1_555
Sc2_1 Sc2_5 3.332992 1_455
Sc2_2 Sc3_2 3.275937 1_555
Sc2_2 Sc3_6 3.279882 1_555
Sc2_2 Sc2_6 3.332992 1_455
Sc2_2 Sc2_6 3.332992 1_555
Sc2_3 Sc3_3 3.275937 1_555
Sc2_3 Sc3_7 3.279882 1_555
Sc2_3 Sc2_7 3.332992 1_455
Sc2_3 Sc2_7 3.332992 1_555
Sc2_4 Sc3_4 3.275937 1_555
Sc2_4 Sc3_0 3.279882 1_655
Sc2_5 Sc3_5 3.275937 1_555
Sc2_5 Sc3_1 3.279882 1_655
Sc2_6 Sc3_6 3.275937 1_555
Sc2_6 Sc3_2 3.279882 1_655
Sc2_7 Sc3_7 3.275937 1_555
Sc2_7 Sc3_3 3.279882 1_655
Sc3_0 Sc3_4 3.332992 1_455
Sc3_0 Sc3_4 3.332992 1_555
Sc3_1 Sc3_5 3.332992 1_455
Sc3_1 Sc3_5 3.332992 1_555
Sc3_2 Sc3_6 3.332992 1_455
Sc3_2 Sc3_6 3.332992 1_555
Sc3_3 Sc3_7 3.332992 1_555
Sc3_3 Sc3_7 3.332992 1_455
