# generated using pymatgen
data_Ce3MgAlS7
_symmetry_space_group_name_H-M   'P 1'
_cell_length_a   10.11437998
_cell_length_b   10.11437998
_cell_length_c   6.10121100
_cell_angle_alpha   90.00000000
_cell_angle_beta   90.00000000
_cell_angle_gamma   119.99999987
_symmetry_Int_Tables_number   1
_chemical_formula_structural   Ce3MgAlS7
_chemical_formula_sum   'Ce6 Mg2 Al2 S14'
_cell_volume   540.53672679
_cell_formula_units_Z   2
loop_
 _symmetry_equiv_pos_site_id
 _symmetry_equiv_pos_as_xyz
  1  'x, y, z'
loop_
 _atom_site_type_symbol
 _atom_site_label
 _atom_site_symmetry_multiplicity
 _atom_site_fract_x
 _atom_site_fract_y
 _atom_site_fract_z
 _atom_site_occupancy
  Ce  Ce0  1  0.62424200  0.76461200  0.24217900  1
  Ce  Ce1  1  0.23538800  0.85963000  0.24217900  1
  Ce  Ce2  1  0.14037000  0.37575800  0.24217900  1
  Ce  Ce3  1  0.37575800  0.23538800  0.74217900  1
  Ce  Ce4  1  0.76461200  0.14037000  0.74217900  1
  Ce  Ce5  1  0.85963000  0.62424200  0.74217900  1
  Mg  Mg0  1  0.00000000  0.00000000  0.03444500  1
  Mg  Mg1  1  0.00000000  0.00000000  0.53444500  1
  Al  Al0  1  0.66666700  0.33333300  0.16150300  1
  Al  Al1  1  0.33333300  0.66666700  0.66150300  1
  S  S0  1  0.90072100  0.41950100  0.01257000  1
  S  S1  1  0.51878000  0.09927900  0.01257000  1
  S  S2  1  0.58049900  0.48122000  0.01257000  1
  S  S3  1  0.33333300  0.66666700  0.02943100  1
  S  S4  1  0.85314200  0.09082800  0.29154400  1
  S  S5  1  0.90917200  0.76231400  0.29154400  1
  S  S6  1  0.23768600  0.14685800  0.29154400  1
  S  S7  1  0.09927900  0.58049900  0.51257000  1
  S  S8  1  0.48122000  0.90072100  0.51257000  1
  S  S9  1  0.41950100  0.51878000  0.51257000  1
  S  S10  1  0.66666700  0.33333300  0.52943100  1
  S  S11  1  0.09082800  0.23768600  0.79154400  1
  S  S12  1  0.14685800  0.90917200  0.79154400  1
  S  S13  1  0.76231400  0.85314200  0.79154400  1
loop_
_geom_bond_atom_site_label_1
_geom_bond_atom_site_label_2
_geom_bond_distance
_geom_bond_site_symmetry_2
Ce0 S9 2.836066 1_555
Ce0 S3 2.899810 1_555
Ce0 S5 2.909214 1_555
Ce0 S4 2.949308 1_565
Ce0 S8 2.949707 1_555
Ce0 S13 3.010128 1_554
Ce0 S2 3.017608 1_555
Ce1 S8 2.836066 1_555
Ce1 S3 2.899801 1_555
Ce1 S6 2.909214 1_565
Ce1 S5 2.949308 1_455
Ce1 S7 2.949707 1_555
Ce1 S12 3.010128 1_554
Ce1 S1 3.017608 1_565
Ce2 S7 2.836066 1_555
Ce2 S3 2.899808 1_555
Ce2 S4 2.909214 1_455
Ce2 S6 2.949308 1_555
Ce2 S9 2.949707 1_555
Ce2 S11 3.010128 1_554
Ce2 S0 3.017608 1_455
Ce3 S2 2.836066 1_556
Ce3 S10 2.899810 1_555
Ce3 S11 2.909214 1_555
Ce3 S12 2.949308 1_545
Ce3 S1 2.949707 1_556
Ce3 S6 3.010128 1_555
Ce3 S9 3.017608 1_555
Ce4 S1 2.836066 1_556
Ce4 S10 2.899801 1_555
Ce4 S13 2.909214 1_545
Ce4 S11 2.949308 1_655
Ce4 S0 2.949707 1_556
Ce4 S4 3.010128 1_555
Ce4 S8 3.017608 1_545
Ce5 S0 2.836066 1_556
Ce5 S10 2.899808 1_555
Ce5 S12 2.909214 1_655
Ce5 S13 2.949308 1_555
Ce5 S2 2.949707 1_556
Ce5 S5 3.010128 1_555
Ce5 S7 3.017608 1_655
Mg0 S12 2.571218 1_544
Mg0 S11 2.571218 1_554
Mg0 S13 2.571218 1_444
Mg0 S4 2.622103 1_455
Mg0 S5 2.622103 1_445
Mg0 S6 2.622103 1_555
Mg1 S4 2.571218 1_455
Mg1 S5 2.571218 1_445
Mg1 S6 2.571218 1_555
Mg1 S12 2.622103 1_545
Mg1 S11 2.622103 1_555
Mg1 S13 2.622103 1_445
Al0 S10 2.244806 1_555
Al0 S0 2.264117 1_555
Al0 S1 2.264118 1_555
Al0 S2 2.264125 1_555
Al1 S3 2.244806 1_556
Al1 S7 2.264117 1_555
Al1 S8 2.264118 1_555
Al1 S9 2.264125 1_555
