# generated using pymatgen
data_TiGeRu2
_symmetry_space_group_name_H-M   'P 1'
_cell_length_a   4.27514131
_cell_length_b   4.27594961
_cell_length_c   4.27454267
_cell_angle_alpha   59.99190532
_cell_angle_beta   59.98962574
_cell_angle_gamma   59.99106318
_symmetry_Int_Tables_number   1
_chemical_formula_structural   TiGeRu2
_chemical_formula_sum   'Ti1 Ge1 Ru2'
_cell_volume   55.24179051
_cell_formula_units_Z   1
loop_
 _symmetry_equiv_pos_site_id
 _symmetry_equiv_pos_as_xyz
  1  'x, y, z'
loop_
 _atom_site_type_symbol
 _atom_site_label
 _atom_site_symmetry_multiplicity
 _atom_site_fract_x
 _atom_site_fract_y
 _atom_site_fract_z
 _atom_site_occupancy
  Ti  Ti0  1  0.75001862  0.74999995  0.74999955  1
  Ge  Ge0  1  0.25001503  0.25000971  0.24997420  1
  Ru  Ru0  1  0.00000472  -0.00000392  -0.00003071  1
  Ru  Ru1  1  0.49996063  0.49999825  0.50005896  1
loop_
_geom_bond_atom_site_label_1
_geom_bond_atom_site_label_2
_geom_bond_distance
_geom_bond_site_symmetry_2
Ge0 Ru1 2.617010 1_554
Ge0 Ru0 2.617289 1_556
Ge0 Ru0 2.617614 1_655
Ge0 Ru1 2.617840 1_455
Ge0 Ru0 2.618158 1_565
Ge0 Ru1 2.618245 1_545
Ge0 Ru1 2.618268 1_555
Ge0 Ru0 2.618303 1_555
Ge0 Ti0 3.022530 1_454
Ge0 Ti0 3.022705 1_545
Ge0 Ti0 3.022752 1_544
Ge0 Ti0 3.022846 1_455
Ge0 Ti0 3.023031 1_554
Ge0 Ti0 3.023068 1_445
Ru0 Ti0 2.617411 1_445
Ru0 Ti0 2.617699 1_544
Ru0 Ti0 2.618035 1_444
Ru0 Ti0 2.618219 1_454
Ru1 Ti0 2.617448 1_455
Ru1 Ti0 2.617513 1_554
Ru1 Ti0 2.618199 1_545
Ru1 Ti0 2.618203 1_555
