# generated using pymatgen
data_Na2CoO3
_symmetry_space_group_name_H-M   'P 1'
_cell_length_a   5.42085400
_cell_length_b   5.98825737
_cell_length_c   6.60578181
_cell_angle_alpha   111.78047102
_cell_angle_beta   95.48824422
_cell_angle_gamma   96.24069378
_symmetry_Int_Tables_number   1
_chemical_formula_structural   Na2CoO3
_chemical_formula_sum   'Na4 Co2 O6'
_cell_volume   195.78616417
_cell_formula_units_Z   2
loop_
 _symmetry_equiv_pos_site_id
 _symmetry_equiv_pos_as_xyz
  1  'x, y, z'
loop_
 _atom_site_type_symbol
 _atom_site_label
 _atom_site_symmetry_multiplicity
 _atom_site_fract_x
 _atom_site_fract_y
 _atom_site_fract_z
 _atom_site_occupancy
  Na  Na0  1  0.93887500  0.75313500  0.57240000  1
  Na  Na1  1  0.78370400  0.77744400  0.01626700  1
  Na  Na2  1  0.21629600  0.22255600  0.98373300  1
  Na  Na3  1  0.06112500  0.24686500  0.42760000  1
  Co  Co0  1  0.65011400  0.16561000  0.66740600  1
  Co  Co1  1  0.34988600  0.83439000  0.33259400  1
  O  O0  1  0.78648400  0.07602700  0.86578000  1
  O  O1  1  0.78947200  0.44948400  0.68688400  1
  O  O2  1  0.69376400  0.92803000  0.37945800  1
  O  O3  1  0.30623600  0.07197000  0.62054200  1
  O  O4  1  0.21052800  0.55051600  0.31311600  1
  O  O5  1  0.21351600  0.92397300  0.13422000  1
loop_
_geom_bond_atom_site_label_1
_geom_bond_atom_site_label_2
_geom_bond_distance
_geom_bond_site_symmetry_2
Na0 O1 2.313371 1_555
Na0 O2 2.335803 1_555
Na0 O4 2.429609 1_655
Na0 O0 2.459594 1_565
Na0 O3 2.512727 1_665
Na1 O1 2.333971 1_554
Na1 O0 2.345501 1_564
Na1 O5 2.346611 1_655
Na1 O2 2.349609 1_555
Na2 O4 2.333971 1_556
Na2 O5 2.345501 1_546
Na2 O0 2.346611 1_455
Na2 O3 2.349609 1_555
Na3 O4 2.313371 1_555
Na3 O3 2.335803 1_555
Na3 O1 2.429609 1_455
Na3 O5 2.459594 1_545
Na3 O2 2.512727 1_445
Co0 O0 1.724539 1_555
Co0 O1 1.736905 1_555
Co0 O3 1.848977 1_555
Co0 O2 1.961927 1_545
Co1 O5 1.724539 1_555
Co1 O4 1.736905 1_555
Co1 O2 1.848977 1_555
Co1 O3 1.961927 1_565
