# generated using pymatgen
data_LiVCrP2(O4F)2
_symmetry_space_group_name_H-M   'P 1'
_cell_length_a   6.91362208
_cell_length_b   7.91504669
_cell_length_c   7.33573115
_cell_angle_alpha   92.69456365
_cell_angle_beta   117.76675143
_cell_angle_gamma   87.81257618
_symmetry_Int_Tables_number   1
_chemical_formula_structural   LiVCrP2(O4F)2
_chemical_formula_sum   'Li2 V2 Cr2 P4 O16 F4'
_cell_volume   354.74712806
_cell_formula_units_Z   2
loop_
 _symmetry_equiv_pos_site_id
 _symmetry_equiv_pos_as_xyz
  1  'x, y, z'
loop_
 _atom_site_type_symbol
 _atom_site_label
 _atom_site_symmetry_multiplicity
 _atom_site_fract_x
 _atom_site_fract_y
 _atom_site_fract_z
 _atom_site_occupancy
  Li  Li0  1  0.74732800  0.82105500  0.18022400  1
  Li  Li1  1  0.24735000  0.32103300  0.18026700  1
  V  V0  1  0.49681600  0.49966600  0.99383500  1
  V  V1  1  0.99706200  0.99976800  0.99410300  1
  Cr  Cr0  1  0.00255500  0.49824600  0.50251000  1
  Cr  Cr1  1  0.50275300  0.99810900  0.50258900  1
  P  P0  1  0.27555600  0.84179200  0.75600800  1
  P  P1  1  0.77564700  0.34175100  0.75609200  1
  P  P2  1  0.72429900  0.16253100  0.24369800  1
  P  P3  1  0.22428400  0.66251000  0.24368900  1
  O  O0  1  0.19549400  0.93295300  0.90729100  1
  O  O1  1  0.69544800  0.43287500  0.90726000  1
  O  O2  1  0.58810400  0.23548500  0.59741200  1
  O  O3  1  0.08791900  0.73564000  0.59723200  1
  O  O4  1  0.34211400  0.98291700  0.66450900  1
  O  O5  1  0.84206200  0.48288500  0.66452000  1
  O  O6  1  0.51813300  0.27689800  0.12532500  1
  O  O7  1  0.01815400  0.77691000  0.12530600  1
  O  O8  1  0.47876300  0.73247700  0.90196400  1
  O  O9  1  0.97896000  0.23261800  0.90208200  1
  O  O10  1  0.66547900  0.01309400  0.33611100  1
  O  O11  1  0.16534600  0.51311100  0.33605500  1
  O  O12  1  0.42093300  0.76360600  0.39538200  1
  O  O13  1  0.92089800  0.26363500  0.39537000  1
  O  O14  1  0.78903600  0.06397100  0.08635200  1
  O  O15  1  0.28888700  0.56388900  0.08633100  1
  F  F0  1  0.23395700  0.09094400  0.26005000  1
  F  F1  1  0.73385200  0.59100400  0.25990600  1
  F  F2  1  0.76732000  0.91198000  0.73844900  1
  F  F3  1  0.26702700  0.41204800  0.73796500  1
loop_
_geom_bond_atom_site_label_1
_geom_bond_atom_site_label_2
_geom_bond_distance
_geom_bond_site_symmetry_2
Li0 O10 2.076571 1_565
Li0 O7 2.104728 1_655
Li0 O8 2.130531 1_554
Li0 O14 2.146138 1_565
Li1 O11 2.076855 1_555
Li1 O6 2.104535 1_555
Li1 O9 2.129297 1_454
Li1 O15 2.145527 1_555
Cr0 F3 1.965968 1_555
Cr0 O5 1.977622 1_455
Cr0 O13 1.978409 1_455
Cr0 O3 1.985324 1_555
Cr0 O11 2.018824 1_555
Cr0 F1 2.023767 1_455
Cr1 F2 1.967482 1_555
Cr1 O4 1.977754 1_555
Cr1 O12 1.977875 1_555
Cr1 O2 1.985298 1_565
Cr1 O10 2.018695 1_565
Cr1 F0 2.024087 1_565
O0 P0 1.589080 1_555
O0 V1 1.815012 1_455
O1 P1 1.588875 1_555
O1 V0 1.815024 1_555
O2 P1 1.525949 1_555
O3 P0 1.526031 1_555
O4 P0 1.519045 1_555
O5 P1 1.518900 1_555
O6 P2 1.557971 1_555
O6 V0 2.017099 1_554
O7 P3 1.557975 1_555
O7 V1 2.017000 1_454
O8 P0 1.568921 1_555
O8 V0 1.971342 1_555
O9 P1 1.568611 1_555
O9 V1 1.971982 1_545
O10 P2 1.546912 1_555
O11 P3 1.546872 1_555
O12 P3 1.522057 1_555
O13 P2 1.521848 1_555
O14 P2 1.584677 1_555
O14 V1 1.898247 1_544
O15 P3 1.584408 1_555
O15 V0 1.898933 1_554
F0 Li1 1.957380 1_555
F0 V1 1.997495 1_444
F1 Li0 1.956953 1_555
F1 V0 1.998834 1_554
F2 V1 1.925892 1_555
F3 V0 1.926459 1_555
