# generated using pymatgen
data_Sr2Cu2O3
_symmetry_space_group_name_H-M   'P 1'
_cell_length_a   9.32885823
_cell_length_b   7.60616626
_cell_length_c   6.15035205
_cell_angle_alpha   84.69342135
_cell_angle_beta   54.27637594
_cell_angle_gamma   41.03020271
_symmetry_Int_Tables_number   1
_chemical_formula_structural   Sr2Cu2O3
_chemical_formula_sum   'Sr2 Cu2 O3'
_cell_volume   176.16126300
_cell_formula_units_Z   1
loop_
 _symmetry_equiv_pos_site_id
 _symmetry_equiv_pos_as_xyz
  1  'x, y, z'
loop_
 _atom_site_type_symbol
 _atom_site_label
 _atom_site_symmetry_multiplicity
 _atom_site_fract_x
 _atom_site_fract_y
 _atom_site_fract_z
 _atom_site_occupancy
  Sr  Sr0  1  0.39037800  0.39037800  0.60962200  1
  Sr  Sr1  1  0.60962200  0.60962200  0.39037800  1
  Cu  Cu0  1  0.82992300  0.17007700  0.82992300  1
  Cu  Cu1  1  0.17007700  0.82992300  0.17007700  1
  O  O0  1  0.33800200  0.66199800  0.33800200  1
  O  O1  1  0.66199800  0.33800200  0.66199800  1
  O  O2  1  0.00000000  0.00000000  0.00000000  1
loop_
_geom_bond_atom_site_label_1
_geom_bond_atom_site_label_2
_geom_bond_distance
_geom_bond_site_symmetry_2
Cu0 O1 1.943882 1_555
Cu0 O2 1.968793 1_656
Cu0 O0 2.082125 1_556
Cu0 O0 2.082125 1_645
Cu1 O0 1.943882 1_555
Cu1 O2 1.968793 1_565
Cu1 O1 2.082125 1_465
Cu1 O1 2.082125 1_554
O0 Sr0 2.467709 1_555
O0 Sr1 2.467709 1_555
O1 Sr0 2.467709 1_555
O1 Sr1 2.467709 1_555
O2 Sr1 2.626679 1_544
O2 Sr0 2.626679 1_455
O2 Sr1 2.626679 1_455
O2 Sr0 2.626679 1_544
