# generated using pymatgen
data_Li8PrO6
_symmetry_space_group_name_H-M   'P 1'
_cell_length_a   6.51694497
_cell_length_b   6.51694497
_cell_length_c   6.51694484
_cell_angle_alpha   52.12642424
_cell_angle_beta   52.12642424
_cell_angle_gamma   52.12642181
_symmetry_Int_Tables_number   1
_chemical_formula_structural   Li8PrO6
_chemical_formula_sum   'Li8 Pr1 O6'
_cell_volume   159.49619030
_cell_formula_units_Z   1
loop_
 _symmetry_equiv_pos_site_id
 _symmetry_equiv_pos_as_xyz
  1  'x, y, z'
loop_
 _atom_site_type_symbol
 _atom_site_label
 _atom_site_symmetry_multiplicity
 _atom_site_fract_x
 _atom_site_fract_y
 _atom_site_fract_z
 _atom_site_occupancy
  Li  Li0  1  0.37125900  0.37125900  0.37125900  1
  Li  Li1  1  0.90471600  0.50052500  0.22174000  1
  Li  Li2  1  0.50052500  0.22174000  0.90471600  1
  Li  Li3  1  0.22174000  0.90471600  0.50052500  1
  Li  Li4  1  0.09528400  0.49947500  0.77826000  1
  Li  Li5  1  0.49947500  0.77826000  0.09528400  1
  Li  Li6  1  0.62874100  0.62874100  0.62874100  1
  Li  Li7  1  0.77826000  0.09528400  0.49947500  1
  Pr  Pr0  1  0.00000000  0.00000000  0.00000000  1
  O  O0  1  0.88622200  0.24398900  0.60058300  1
  O  O1  1  0.39941700  0.11377800  0.75601100  1
  O  O2  1  0.11377800  0.75601100  0.39941700  1
  O  O3  1  0.24398900  0.60058300  0.88622200  1
  O  O4  1  0.60058300  0.88622200  0.24398900  1
  O  O5  1  0.75601100  0.39941700  0.11377800  1
loop_
_geom_bond_atom_site_label_1
_geom_bond_atom_site_label_2
_geom_bond_distance
_geom_bond_site_symmetry_2
Li0 O2 2.038937 1_555
Li0 O1 2.038938 1_555
Li0 O5 2.038938 1_555
Li1 O0 1.928479 1_555
Li1 O5 2.014654 1_555
Li1 O3 2.044114 1_654
Li1 O4 2.060349 1_555
Li2 O3 1.928479 1_555
Li2 O1 2.014653 1_555
Li2 O4 2.044113 1_546
Li2 O0 2.060349 1_555
Li3 O4 1.928479 1_555
Li3 O2 2.014654 1_555
Li3 O0 2.044113 1_465
Li3 O3 2.060349 1_555
Li4 O2 1.928479 1_555
Li4 O3 2.014654 1_555
Li4 O5 2.044114 1_456
Li4 O1 2.060349 1_555
Li5 O5 1.928479 1_555
Li5 O4 2.014653 1_555
Li5 O1 2.044113 1_564
Li5 O2 2.060349 1_555
Li6 O0 2.038937 1_555
Li6 O4 2.038938 1_555
Li6 O3 2.038938 1_555
Li7 O1 1.928479 1_555
Li7 O0 2.014654 1_555
Li7 O2 2.044113 1_645
Li7 O5 2.060349 1_555
O0 Pr0 2.386182 1_656
O1 Pr0 2.386182 1_556
O2 Pr0 2.386182 1_565
O3 Pr0 2.386182 1_566
O4 Pr0 2.386182 1_665
O5 Pr0 2.386182 1_655
