# generated using pymatgen
data_BaSm2PdO5
_symmetry_space_group_name_H-M   'P 1'
_cell_length_a   6.72815300
_cell_length_b   6.72815300
_cell_length_c   5.96205900
_cell_angle_alpha   90.00000000
_cell_angle_beta   90.00000000
_cell_angle_gamma   90.00000000
_symmetry_Int_Tables_number   1
_chemical_formula_structural   BaSm2PdO5
_chemical_formula_sum   'Ba2 Sm4 Pd2 O10'
_cell_volume   269.89074194
_cell_formula_units_Z   2
loop_
 _symmetry_equiv_pos_site_id
 _symmetry_equiv_pos_as_xyz
  1  'x, y, z'
loop_
 _atom_site_type_symbol
 _atom_site_label
 _atom_site_symmetry_multiplicity
 _atom_site_fract_x
 _atom_site_fract_y
 _atom_site_fract_z
 _atom_site_occupancy
  Ba  Ba0  1  0.50000000  0.50000000  0.00000000  1
  Ba  Ba1  1  0.00000000  0.00000000  0.00000000  1
  Sm  Sm0  1  0.67375000  0.17375000  0.50000000  1
  Sm  Sm1  1  0.17375000  0.32625000  0.50000000  1
  Sm  Sm2  1  0.82625000  0.67375000  0.50000000  1
  Sm  Sm3  1  0.32625000  0.82625000  0.50000000  1
  Pd  Pd0  1  0.00000000  0.50000000  0.00000000  1
  Pd  Pd1  1  0.50000000  0.00000000  0.00000000  1
  O  O0  1  0.50000000  0.50000000  0.50000000  1
  O  O1  1  0.00000000  0.00000000  0.50000000  1
  O  O2  1  0.14048700  0.64048700  0.25490300  1
  O  O3  1  0.85951300  0.35951300  0.25490300  1
  O  O4  1  0.35951300  0.14048700  0.25490300  1
  O  O5  1  0.64048700  0.85951300  0.25490300  1
  O  O6  1  0.14048700  0.64048700  0.74509700  1
  O  O7  1  0.64048700  0.85951300  0.74509700  1
  O  O8  1  0.85951300  0.35951300  0.74509700  1
  O  O9  1  0.35951300  0.14048700  0.74509700  1
loop_
_geom_bond_atom_site_label_1
_geom_bond_atom_site_label_2
_geom_bond_distance
_geom_bond_site_symmetry_2
Ba0 O0 2.981029 1_554
Ba0 O0 2.981029 1_555
Ba0 O5 3.008977 1_555
Ba0 O2 3.008977 1_555
Ba0 O6 3.008977 1_554
Ba0 O7 3.008977 1_554
Ba0 O9 3.008977 1_554
Ba0 O8 3.008977 1_554
Ba0 O3 3.008977 1_555
Ba0 O4 3.008977 1_555
Ba1 O1 2.981029 1_554
Ba1 O1 2.981029 1_555
Ba1 O4 3.008977 1_555
Ba1 O9 3.008977 1_554
Ba1 O3 3.008977 1_455
Ba1 O8 3.008977 1_454
Ba1 O6 3.008977 1_544
Ba1 O2 3.008977 1_545
Ba1 O5 3.008977 1_445
Ba1 O7 3.008977 1_444
O0 Sm1 2.486943 1_555
O0 Sm3 2.486943 1_555
O0 Sm2 2.486943 1_555
O0 Sm0 2.486943 1_555
O1 Sm0 2.486943 1_455
O1 Sm2 2.486943 1_445
O1 Sm3 2.486943 1_545
O1 Sm1 2.486943 1_555
O2 Pd0 2.023982 1_555
O2 Sm3 2.293372 1_555
O2 Sm1 2.579810 1_555
O2 Sm2 2.579810 1_455
O3 Pd0 2.023982 1_655
O3 Sm0 2.293372 1_555
O3 Sm1 2.579810 1_655
O3 Sm2 2.579810 1_555
O4 Pd1 2.023982 1_555
O4 Sm1 2.293372 1_555
O4 Sm3 2.579810 1_545
O4 Sm0 2.579810 1_555
O5 Pd1 2.023982 1_565
O5 Sm2 2.293372 1_555
O5 Sm3 2.579810 1_555
O5 Sm0 2.579810 1_565
O6 Pd0 2.023982 1_556
O6 Sm3 2.293372 1_555
O6 Sm1 2.579810 1_555
O6 Sm2 2.579810 1_455
O7 Pd1 2.023982 1_566
O7 Sm2 2.293372 1_555
O7 Sm3 2.579810 1_555
O7 Sm0 2.579810 1_565
O8 Pd0 2.023982 1_656
O8 Sm0 2.293372 1_555
O8 Sm1 2.579810 1_655
O8 Sm2 2.579810 1_555
O9 Pd1 2.023982 1_556
O9 Sm1 2.293372 1_555
O9 Sm3 2.579810 1_545
O9 Sm0 2.579810 1_555
