# generated using pymatgen
data_Zr2N2O
_symmetry_space_group_name_H-M   'P 1'
_cell_length_a   8.87927400
_cell_length_b   8.87558432
_cell_length_c   8.88080171
_cell_angle_alpha   109.60125024
_cell_angle_beta   109.44376037
_cell_angle_gamma   109.35556690
_symmetry_Int_Tables_number   1
_chemical_formula_structural   Zr2N2O
_chemical_formula_sum   'Zr16 N16 O8'
_cell_volume   538.85667484
_cell_formula_units_Z   8
loop_
 _symmetry_equiv_pos_site_id
 _symmetry_equiv_pos_as_xyz
  1  'x, y, z'
loop_
 _atom_site_type_symbol
 _atom_site_label
 _atom_site_symmetry_multiplicity
 _atom_site_fract_x
 _atom_site_fract_y
 _atom_site_fract_z
 _atom_site_occupancy
  Zr  Zr0  1  0.71085000  0.17904500  0.03318000  1
  Zr  Zr1  1  0.99603700  0.99672500  0.99665500  1
  Zr  Zr2  1  0.04696700  0.79716800  0.24434500  1
  Zr  Zr3  1  0.48595900  0.98897000  0.50250000  1
  Zr  Zr4  1  0.51220100  0.50669700  0.98979400  1
  Zr  Zr5  1  0.46106700  0.71071600  0.75045500  1
  Zr  Zr6  1  0.30965100  0.01952900  0.72125600  1
  Zr  Zr7  1  0.33595200  0.55407500  0.21079500  1
  Zr  Zr8  1  0.77697200  0.81482300  0.46843700  1
  Zr  Zr9  1  0.20214100  0.17212700  0.54138200  1
  Zr  Zr10  1  0.68248900  0.96168800  0.29040700  1
  Zr  Zr11  1  0.68875800  0.47498500  0.77899700  1
  Zr  Zr12  1  0.99363500  0.48147700  0.50947200  1
  Zr  Zr13  1  0.97136200  0.22120700  0.74560600  1
  Zr  Zr14  1  0.54108800  0.29111400  0.25001700  1
  Zr  Zr15  1  0.28831700  0.82370900  0.95865700  1
  N  N0  1  0.20951300  0.67646300  0.27604500  1
  N  N1  1  0.99880200  0.03092400  0.22872100  1
  N  N2  1  0.49032900  0.50174500  0.27093000  1
  N  N3  1  0.18589900  0.69639200  0.77127500  1
  N  N4  1  0.51011700  0.49919000  0.72726200  1
  N  N5  1  0.25625800  0.48624800  0.48417600  1
  N  N6  1  0.55489900  0.28306800  0.98905700  1
  N  N7  1  0.81905500  0.30730200  0.22771900  1
  N  N8  1  0.99801700  0.96280700  0.77386700  1
  N  N9  1  0.02868900  0.80119200  0.96442400  1
  N  N10  1  0.42074300  0.68210100  0.54746600  1
  N  N11  1  0.69962900  0.74973300  0.76372000  1
  N  N12  1  0.53903400  0.99260300  0.73625900  1
  N  N13  1  0.81876500  0.05778800  0.95522100  1
  N  N14  1  0.19587600  0.92296800  0.53399700  1
  N  N15  1  0.77652800  0.31030400  0.73123000  1
  O  O0  1  0.81095800  0.07976000  0.46391600  1
  O  O1  1  0.17143600  0.93575500  0.05194000  1
  O  O2  1  0.46813900  0.01830500  0.25794900  1
  O  O3  1  0.58755000  0.32404900  0.45167200  1
  O  O4  1  0.28900700  0.24495100  0.24232000  1
  O  O5  1  0.97654800  0.20641500  0.03449400  1
  O  O6  1  0.75196800  0.52629100  0.50848700  1
  O  O7  1  0.43879500  0.70958900  0.01589700  1
loop_
_geom_bond_atom_site_label_1
_geom_bond_atom_site_label_2
_geom_bond_distance
_geom_bond_site_symmetry_2
N0 Zr7 1.896142 1_555
N0 Zr2 2.065640 1_555
N0 Zr3 2.494174 1_555
N1 Zr1 1.970236 1_544
N1 Zr2 2.290942 1_645
N1 Zr9 2.316909 1_655
N1 Zr10 2.944879 1_545
N2 Zr7 1.575109 1_555
N2 Zr14 2.028260 1_555
N2 Zr8 2.519054 1_555
N2 Zr4 2.581474 1_554
N3 Zr15 1.386648 1_555
N3 Zr12 2.044988 1_455
N3 Zr5 2.476018 1_555
N4 Zr11 1.606300 1_555
N4 Zr5 2.024617 1_555
N4 Zr4 2.303667 1_555
N4 Zr9 2.673449 1_555
N5 Zr5 2.107791 1_555
N5 Zr12 2.404105 1_455
N5 Zr9 2.913213 1_555
N6 Zr0 1.911120 1_556
N6 Zr4 2.138949 1_555
N6 Zr6 2.304938 1_555
N6 Zr14 2.339888 1_556
N7 Zr0 1.433230 1_555
N7 Zr12 2.070659 1_555
N7 Zr14 2.502203 1_555
N8 Zr1 1.905932 1_555
N8 Zr8 2.300286 1_555
N8 Zr13 2.466857 1_565
N8 Zr6 2.867692 1_665
N9 O1 1.164010 1_556
N9 Zr1 1.798144 1_455
N9 Zr2 2.449946 1_556
N10 N5 1.608035 1_555
N10 Zr5 1.626427 1_555
N11 Zr5 1.985213 1_555
N11 Zr1 2.349481 1_555
N11 Zr11 2.459454 1_555
N12 Zr3 1.956131 1_555
N12 Zr6 2.094415 1_565
N12 Zr0 2.177074 1_566
N12 Zr5 2.424119 1_555
N13 O5 1.301454 1_556
N13 Zr0 1.783555 1_556
N13 Zr1 1.794555 1_545
N14 Zr6 1.368214 1_565
N14 Zr2 2.107570 1_555
N14 Zr9 2.171760 1_565
N15 Zr11 1.866243 1_555
N15 Zr13 2.112347 1_555
N15 Zr3 2.581309 1_545
O0 Zr10 1.314439 1_545
O0 Zr13 2.048971 1_555
O0 Zr8 2.285418 1_545
O1 Zr1 1.785293 1_454
O1 Zr15 1.859059 1_554
O2 Zr10 2.079411 1_545
O2 Zr15 2.205370 1_544
O2 Zr3 2.233271 1_545
O2 Zr14 2.322198 1_555
O3 Zr14 1.593664 1_555
O3 O6 1.665190 1_555
O4 Zr14 2.110442 1_555
O4 Zr1 2.361856 1_444
O5 Zr1 1.854514 1_544
O5 Zr13 2.598612 1_554
O6 Zr14 2.113071 1_555
O6 Zr12 2.306176 1_555
O6 Zr8 2.649675 1_555
O6 Zr11 2.784939 1_555
O7 Zr15 1.964673 1_554
O7 Zr4 2.078444 1_554
O7 Zr10 2.291444 1_555
O7 Zr5 2.433337 1_554
O7 Zr7 2.748564 1_555
