# generated using pymatgen
data_Y2CuIr
_symmetry_space_group_name_H-M   'P 1'
_cell_length_a   4.89100245
_cell_length_b   4.89100245
_cell_length_c   4.89100245
_cell_angle_alpha   60.00000000
_cell_angle_beta   60.00000000
_cell_angle_gamma   60.00000000
_symmetry_Int_Tables_number   1
_chemical_formula_structural   Y2CuIr
_chemical_formula_sum   'Y2 Cu1 Ir1'
_cell_volume   82.73297541
_cell_formula_units_Z   1
loop_
 _symmetry_equiv_pos_site_id
 _symmetry_equiv_pos_as_xyz
  1  'x, y, z'
loop_
 _atom_site_type_symbol
 _atom_site_label
 _atom_site_symmetry_multiplicity
 _atom_site_fract_x
 _atom_site_fract_y
 _atom_site_fract_z
 _atom_site_occupancy
  Y  Y0  1  0.25000000  0.25000000  0.25000000  1
  Y  Y1  1  0.75000000  0.75000000  0.75000000  1
  Cu  Cu0  1  0.50000000  0.50000000  0.50000000  1
  Ir  Ir0  1  0.00000000  0.00000000  0.00000000  1
loop_
_geom_bond_atom_site_label_1
_geom_bond_atom_site_label_2
_geom_bond_distance
_geom_bond_site_symmetry_2
Cu0 Y0 2.995115 1_556
Cu0 Y0 2.995115 1_555
Cu0 Y1 2.995115 1_554
Cu0 Y0 2.995115 1_565
Cu0 Y1 2.995115 1_455
Cu0 Y1 2.995115 1_545
Cu0 Y0 2.995115 1_655
Cu0 Y1 2.995115 1_555
Ir0 Y0 2.995115 1_455
Ir0 Y0 2.995115 1_555
Ir0 Y1 2.995115 1_444
Ir0 Y1 2.995115 1_445
Ir0 Y1 2.995115 1_454
Ir0 Y1 2.995115 1_544
Ir0 Y0 2.995115 1_545
Ir0 Y0 2.995115 1_554
