# generated using pymatgen
data_Mn6O7F5
_symmetry_space_group_name_H-M   'P 1'
_cell_length_a   4.67392700
_cell_length_b   5.69043457
_cell_length_c   15.19510311
_cell_angle_alpha   89.73003197
_cell_angle_beta   89.86500221
_cell_angle_gamma   85.61255855
_symmetry_Int_Tables_number   1
_chemical_formula_structural   Mn6O7F5
_chemical_formula_sum   'Mn12 O14 F10'
_cell_volume   402.94963832
_cell_formula_units_Z   2
loop_
 _symmetry_equiv_pos_site_id
 _symmetry_equiv_pos_as_xyz
  1  'x, y, z'
loop_
 _atom_site_type_symbol
 _atom_site_label
 _atom_site_symmetry_multiplicity
 _atom_site_fract_x
 _atom_site_fract_y
 _atom_site_fract_z
 _atom_site_occupancy
  Mn  Mn0  1  0.98195700  0.83109500  0.42171800  1
  Mn  Mn1  1  0.97419800  0.14641400  0.24521200  1
  Mn  Mn2  1  0.01335100  0.85071100  0.08360600  1
  Mn  Mn3  1  0.98013400  0.83153300  0.74767000  1
  Mn  Mn4  1  0.97878800  0.15802900  0.58317900  1
  Mn  Mn5  1  0.96676300  0.14416900  0.91223200  1
  Mn  Mn6  1  0.53169900  0.65760900  0.59037600  1
  Mn  Mn7  1  0.53264700  0.65841400  0.92345600  1
  Mn  Mn8  1  0.46715000  0.64819300  0.25536600  1
  Mn  Mn9  1  0.51788600  0.35117200  0.07839500  1
  Mn  Mn10  1  0.52212900  0.36000400  0.41629400  1
  Mn  Mn11  1  0.51296000  0.36898600  0.75191000  1
  O  O0  1  0.78906100  0.88891500  0.63828800  1
  O  O1  1  0.79397200  0.89120900  0.97228900  1
  O  O2  1  0.77121600  0.11522000  0.13493700  1
  O  O3  1  0.77529100  0.11288100  0.47333600  1
  O  O4  1  0.76327200  0.11184400  0.80543600  1
  O  O5  1  0.71568200  0.38611100  0.30447200  1
  O  O6  1  0.72784800  0.60827100  0.48029100  1
  O  O7  1  0.73043300  0.39169700  0.64542700  1
  O  O8  1  0.71496100  0.60349300  0.81112600  1
  O  O9  1  0.74045200  0.38452900  0.97261100  1
  O  O10  1  0.29543900  0.62276600  0.02658100  1
  O  O11  1  0.26027600  0.60404600  0.36423300  1
  O  O12  1  0.28244800  0.62172900  0.69338100  1
  O  O13  1  0.21725700  0.88509500  0.19476200  1
  F  F0  1  0.74350800  0.88649900  0.30979700  1
  F  F1  1  0.72573400  0.61950500  0.14994300  1
  F  F2  1  0.26430500  0.37843300  0.18295500  1
  F  F3  1  0.27014900  0.37717200  0.52598300  1
  F  F4  1  0.25220000  0.37027900  0.85687100  1
  F  F5  1  0.25831300  0.88675000  0.53101800  1
  F  F6  1  0.21512100  0.10810600  0.35688100  1
  F  F7  1  0.23495700  0.12633200  0.01147500  1
  F  F8  1  0.23390100  0.87513200  0.85667400  1
  F  F9  1  0.24454400  0.13765500  0.69181600  1
loop_
_geom_bond_atom_site_label_1
_geom_bond_atom_site_label_2
_geom_bond_distance
_geom_bond_site_symmetry_2
Mn0 O11 1.967890 1_655
Mn0 O3 1.972486 1_565
Mn0 O6 2.006308 1_555
Mn1 O2 1.943042 1_555
Mn1 O13 1.958992 1_645
Mn1 O5 1.971171 1_555
Mn2 O13 1.959238 1_555
Mn2 O2 1.975089 1_465
Mn2 O10 1.978684 1_555
Mn2 O1 1.983407 1_454
Mn3 O0 1.903660 1_555
Mn3 O12 1.961652 1_655
Mn3 O4 2.025782 1_565
Mn3 O8 2.092455 1_555
Mn4 O7 1.944391 1_555
Mn4 O3 1.950737 1_555
Mn4 O0 2.006210 1_545
Mn5 O4 1.899654 1_555
Mn5 O9 1.901906 1_555
Mn5 O1 1.928487 1_545
Mn6 O7 1.904957 1_555
Mn6 O6 1.917092 1_555
Mn6 O12 1.968100 1_555
Mn6 O0 1.991190 1_555
Mn7 O9 1.921219 1_555
Mn7 O8 1.922135 1_555
Mn7 O10 1.936246 1_556
Mn7 O1 2.014543 1_555
Mn8 O11 1.939142 1_555
Mn8 O13 1.944732 1_555
Mn8 O5 1.964390 1_555
Mn9 O2 1.921866 1_555
Mn9 O9 1.929081 1_554
Mn9 O10 1.958552 1_555
Mn10 O5 1.933522 1_555
Mn10 O11 1.945855 1_555
Mn10 O3 1.966632 1_555
Mn10 O6 2.022670 1_555
Mn11 O7 1.917875 1_555
Mn11 O8 1.920900 1_555
Mn11 O12 1.943087 1_555
Mn11 O4 1.975529 1_555
F0 Mn0 2.045440 1_555
F0 Mn8 2.115422 1_555
F0 Mn1 2.130383 1_565
F1 Mn8 2.004158 1_555
F1 Mn9 2.169055 1_555
F1 Mn2 2.192235 1_655
F2 Mn9 1.979498 1_555
F2 Mn8 2.170113 1_555
F2 Mn1 2.175487 1_455
F3 Mn10 2.036982 1_555
F3 Mn4 2.099744 1_455
F3 Mn6 2.305913 1_555
F4 Mn11 2.004676 1_555
F4 Mn5 2.095268 1_455
F4 Mn7 2.404346 1_555
F5 Mn6 1.971261 1_555
F5 Mn4 2.101467 1_465
F5 Mn0 2.145856 1_455
F6 Mn1 2.040267 1_455
F6 Mn0 2.210470 1_445
F6 Mn10 2.293843 1_555
F7 Mn5 1.960535 1_454
F7 Mn9 2.167287 1_555
F7 Mn2 2.227332 1_545
F8 Mn7 2.057107 1_555
F8 Mn3 2.066381 1_455
F8 Mn5 2.080906 1_465
F9 Mn4 2.065700 1_455
F9 Mn11 2.099993 1_555
F9 Mn3 2.364855 1_445
