# generated using pymatgen
data_Li4V3P8O29
_symmetry_space_group_name_H-M   'P 1'
_cell_length_a   9.74402900
_cell_length_b   9.76614793
_cell_length_c   14.21076329
_cell_angle_alpha   89.69552772
_cell_angle_beta   89.83442749
_cell_angle_gamma   60.34214753
_symmetry_Int_Tables_number   1
_chemical_formula_structural   Li4V3P8O29
_chemical_formula_sum   'Li8 V6 P16 O58'
_cell_volume   1175.14314108
_cell_formula_units_Z   2
loop_
 _symmetry_equiv_pos_site_id
 _symmetry_equiv_pos_as_xyz
  1  'x, y, z'
loop_
 _atom_site_type_symbol
 _atom_site_label
 _atom_site_symmetry_multiplicity
 _atom_site_fract_x
 _atom_site_fract_y
 _atom_site_fract_z
 _atom_site_occupancy
  Li  Li0  1  0.66870800  0.09470000  0.06018000  1
  Li  Li1  1  0.23215600  0.09129900  0.55474400  1
  Li  Li2  1  0.23914700  0.66434700  0.05891800  1
  Li  Li3  1  0.89732800  0.33658300  0.44242200  1
  Li  Li4  1  0.09441200  0.66690600  0.56278800  1
  Li  Li5  1  0.32920700  0.90508700  0.94432800  1
  Li  Li6  1  0.97055900  0.05168300  0.00104200  1
  Li  Li7  1  0.96256300  0.99283900  0.49380300  1
  V  V0  1  0.00262600  0.43313400  0.24282400  1
  V  V1  1  0.99999300  0.56512100  0.75681000  1
  V  V2  1  0.56666300  0.43327300  0.74527500  1
  V  V3  1  0.43851100  0.56433300  0.25573500  1
  V  V4  1  0.56650800  0.99955600  0.25213500  1
  V  V5  1  0.43965700  0.99986200  0.74733500  1
  P  P0  1  0.68957600  0.08893800  0.84161900  1
  P  P1  1  0.69458100  0.22069300  0.34239500  1
  P  P2  1  0.22149800  0.08836100  0.34067600  1
  P  P3  1  0.33737900  0.33605800  0.13137200  1
  P  P4  1  0.32997500  0.33597100  0.63199200  1
  P  P5  1  0.08745200  0.21692900  0.84109000  1
  P  P6  1  0.91559400  0.31479600  0.65914800  1
  P  P7  1  0.23136900  0.68367200  0.84274600  1
  P  P8  1  0.77521500  0.30902200  0.15857100  1
  P  P9  1  0.08638300  0.68490500  0.34403000  1
  P  P10  1  0.91715000  0.78063000  0.16171900  1
  P  P11  1  0.67485800  0.66140300  0.36712900  1
  P  P12  1  0.66013000  0.66796300  0.86616900  1
  P  P13  1  0.78502400  0.91392300  0.66058600  1
  P  P14  1  0.30565700  0.77885800  0.65963800  1
  P  P15  1  0.31312400  0.91145300  0.16003100  1
  O  O0  1  0.79874800  0.99794100  0.57725800  1
  O  O1  1  0.65551000  0.08655200  0.33487500  1
  O  O2  1  0.78702200  0.21077800  0.07534900  1
  O  O3  1  0.65689900  0.25974000  0.82825700  1
  O  O4  1  0.53226500  0.08640400  0.82472900  1
  O  O5  1  0.48854300  0.18673600  0.16706700  1
  O  O6  1  0.37577900  0.09112700  0.32783600  1
  O  O7  1  0.22982600  0.98480000  0.06984200  1
  O  O8  1  0.26347800  0.07762300  0.83385400  1
  O  O9  1  0.48019000  0.33265100  0.67550400  1
  O  O10  1  0.53852400  0.38076800  0.33049800  1
  O  O11  1  0.32724500  0.18531400  0.67395300  1
  O  O12  1  0.32773400  0.34955100  0.02694200  1
  O  O13  1  0.32726600  0.33170000  0.52739700  1
  O  O14  1  0.18861600  0.33364200  0.17735600  1
  O  O15  1  0.38445200  0.52698400  0.82446600  1
  O  O16  1  0.33182600  0.48570400  0.17621600  1
  O  O17  1  0.07763700  0.26021000  0.33153000  1
  O  O18  1  0.00839900  0.19667000  0.74421000  1
  O  O19  1  0.99537800  0.23659000  0.56820100  1
  O  O20  1  0.00939700  0.19078400  0.92337800  1
  O  O21  1  0.08507200  0.37382700  0.83276000  1
  O  O22  1  0.18595500  0.48656800  0.67236900  1
  O  O23  1  0.91267000  0.34675200  0.16221900  1
  O  O24  1  0.08375000  0.53032600  0.32730900  1
  O  O25  1  0.25917900  0.65292400  0.33112500  1
  O  O26  1  0.79948500  0.20333700  0.25072000  1
  O  O27  1  0.79301600  0.20813100  0.42590300  1
  O  O28  1  0.19994500  0.79155900  0.58029700  1
  O  O29  1  0.74366200  0.34508800  0.66395800  1
  O  O30  1  0.91415100  0.47097900  0.67585400  1
  O  O31  1  0.08875600  0.65658500  0.83626800  1
  O  O32  1  0.81843300  0.51016800  0.32219700  1
  O  O33  1  0.91841000  0.62051600  0.17264700  1
  O  O34  1  0.01295800  0.78656100  0.08140400  1
  O  O35  1  0.02048100  0.76344600  0.43613300  1
  O  O36  1  0.98906700  0.80255600  0.25977400  1
  O  O37  1  0.91905000  0.74105700  0.66480100  1
  O  O38  1  0.65965900  0.52314400  0.81793800  1
  O  O39  1  0.61643400  0.46232700  0.17117300  1
  O  O40  1  0.80722300  0.67055400  0.82958800  1
  O  O41  1  0.63057600  0.68198600  0.96923100  1
  O  O42  1  0.67705000  0.64370400  0.47107000  1
  O  O43  1  0.67421200  0.80702200  0.32533300  1
  O  O44  1  0.46096600  0.61960900  0.66885800  1
  O  O45  1  0.52383400  0.66190200  0.32103100  1
  O  O46  1  0.74591700  0.91853700  0.16016100  1
  O  O47  1  0.80459700  0.99082900  0.75738200  1
  O  O48  1  0.76359100  0.02271300  0.93481600  1
  O  O49  1  0.62088000  0.92148500  0.67260400  1
  O  O50  1  0.51146100  0.81733400  0.81778200  1
  O  O51  1  0.46885800  0.91447000  0.17414900  1
  O  O52  1  0.34605700  0.73784300  0.16542600  1
  O  O53  1  0.23388200  0.76229800  0.93301200  1
  O  O54  1  0.21234000  0.80208900  0.75816300  1
  O  O55  1  0.34187600  0.91785900  0.65734400  1
  O  O56  1  0.20518700  0.01777400  0.43070300  1
  O  O57  1  0.20275500  0.99712100  0.25031900  1
loop_
_geom_bond_atom_site_label_1
_geom_bond_atom_site_label_2
_geom_bond_distance
_geom_bond_site_symmetry_2
Li0 O48 1.970631 1_554
Li0 O2 1.989492 1_555
Li0 O46 2.060063 1_545
Li0 O5 2.152791 1_555
Li1 O56 1.973500 1_555
Li1 O19 2.033104 1_455
Li1 O55 2.080517 1_545
Li1 O11 2.332133 1_555
Li2 O34 1.944458 1_555
Li2 O53 2.013158 1_554
Li2 O52 2.156829 1_555
Li2 O16 2.248657 1_555
Li3 O27 1.981998 1_555
Li3 O19 2.032063 1_555
Li3 O17 2.196839 1_655
Li3 O32 2.251863 1_555
Li4 O28 1.960851 1_555
Li4 O35 1.991151 1_555
Li4 O37 2.077984 1_455
Li4 O22 2.178678 1_555
Li5 O7 1.995974 1_556
Li5 O53 2.029373 1_555
Li5 O8 2.150301 1_565
Li5 O50 2.369371 1_555
Li6 O20 1.922807 1_654
Li6 O2 1.996027 1_555
Li6 O48 2.368820 1_554
Li6 O7 2.477741 1_645
Li6 O34 2.663006 1_645
Li7 O0 1.966690 1_555
Li7 O27 2.152033 1_565
Li7 O35 2.185095 1_655
Li7 O28 2.493220 1_655
Li7 O56 2.647202 1_665
O0 P13 1.480110 1_555
O1 P1 1.538787 1_555
O1 V4 1.897932 1_545
O2 P8 1.494824 1_555
O3 P0 1.546377 1_555
O3 V2 1.883067 1_555
O4 P0 1.564468 1_555
O4 V5 1.873131 1_545
O5 P3 1.556994 1_555
O5 V4 1.996918 1_545
O6 P2 1.527266 1_555
O6 V4 1.940314 1_545
O7 P15 1.495129 1_555
O8 P5 1.579414 1_555
O8 V5 1.934675 1_545
O9 P4 1.576027 1_555
O9 V2 1.869045 1_555
O10 P1 1.559144 1_555
O10 V3 1.883911 1_555
O11 P4 1.597008 1_555
O11 V5 1.894930 1_545
O12 P3 1.488292 1_555
O13 P4 1.487858 1_555
O14 P3 1.599057 1_555
O14 V0 1.830642 1_555
O15 P7 1.541810 1_555
O15 V2 1.909883 1_555
O16 P3 1.573645 1_555
O16 V3 1.937340 1_555
O17 P2 1.571332 1_555
O17 V0 1.932995 1_555
O18 P6 1.602776 1_455
O18 P5 1.639439 1_555
O19 P6 1.508362 1_555
O20 P5 1.481546 1_555
O21 P5 1.524920 1_555
O21 V1 1.947660 1_455
O22 P4 1.556739 1_555
O22 V1 1.983277 1_455
O23 P8 1.556078 1_555
O23 V0 1.881476 1_655
O24 P9 1.542179 1_555
O24 V0 1.930643 1_555
O25 P9 1.563496 1_555
O25 V3 1.858132 1_555
O26 P8 1.606831 1_555
O26 P1 1.610589 1_555
O27 P1 1.493952 1_555
O28 P14 1.492126 1_555
O29 P6 1.551750 1_555
O29 V2 1.892275 1_555
O30 P6 1.538091 1_555
O30 V1 1.909540 1_555
O31 P7 1.540879 1_555
O31 V1 1.897869 1_455
O32 P11 1.583147 1_555
O32 V0 1.928875 1_655
O33 P10 1.564560 1_555
O33 V0 1.875106 1_655
O34 P10 1.491371 1_455
O35 P9 1.494045 1_555
O36 P9 1.602090 1_655
O36 P10 1.623546 1_555
O37 P13 1.541656 1_555
O37 V1 1.981132 1_555
O38 P12 1.576975 1_555
O38 V2 1.860066 1_555
O39 P8 1.541504 1_555
O39 V3 1.932259 1_555
O40 P12 1.535126 1_555
O40 V1 1.934973 1_555
O41 P12 1.485723 1_555
O42 P11 1.485233 1_555
O43 P11 1.535408 1_555
O43 V4 1.936910 1_555
O44 P14 1.547871 1_555
O44 V2 1.918925 1_555
O45 P11 1.610329 1_555
O45 V3 1.805005 1_555
O46 P10 1.540881 1_555
O46 V4 2.004831 1_555
O47 P0 1.596512 1_565
O47 P13 1.626920 1_555
O48 P0 1.492406 1_555
O49 P13 1.573034 1_555
O49 V5 1.868707 1_555
O50 P12 1.613428 1_555
O50 V5 1.849372 1_555
O51 P15 1.545938 1_555
O51 V4 1.903263 1_555
O52 P15 1.563294 1_555
O52 V3 1.950085 1_555
O53 P7 1.504969 1_555
O54 P7 1.609628 1_555
O54 P14 1.621867 1_555
O55 P14 1.562697 1_555
O55 V5 1.989384 1_555
O56 P2 1.495027 1_555
O57 P15 1.617339 1_555
O57 P2 1.628090 1_565
