# generated using pymatgen
data_Ba2ZrO4
_symmetry_space_group_name_H-M   'P 1'
_cell_length_a   4.20354290
_cell_length_b   4.20354347
_cell_length_c   7.40138631
_cell_angle_alpha   106.49729563
_cell_angle_beta   106.49729275
_cell_angle_gamma   89.99998167
_symmetry_Int_Tables_number   1
_chemical_formula_structural   Ba2ZrO4
_chemical_formula_sum   'Ba2 Zr1 O4'
_cell_volume   119.77140138
_cell_formula_units_Z   1
loop_
 _symmetry_equiv_pos_site_id
 _symmetry_equiv_pos_as_xyz
  1  'x, y, z'
loop_
 _atom_site_type_symbol
 _atom_site_label
 _atom_site_symmetry_multiplicity
 _atom_site_fract_x
 _atom_site_fract_y
 _atom_site_fract_z
 _atom_site_occupancy
  Ba  Ba0  1  0.64716992  0.64716992  0.29433984  1
  Ba  Ba1  1  0.35283008  0.35283008  0.70566016  1
  Zr  Zr0  1  -0.00000000  -0.00000000  -0.00000000  1
  O  O0  1  0.84361869  0.84361869  0.68723837  1
  O  O1  1  0.15638131  0.15638131  0.31276163  1
  O  O2  1  -0.00000000  0.50000000  -0.00000000  1
  O  O3  1  0.50000000  -0.00000000  -0.00000000  1
loop_
_geom_bond_atom_site_label_1
_geom_bond_atom_site_label_2
_geom_bond_distance
_geom_bond_site_symmetry_2
Ba0 O0 2.663192 1_555
Ba0 O2 2.897928 1_655
Ba0 O2 2.897928 1_555
Ba0 O3 2.897928 1_565
Ba0 O3 2.897928 1_555
Ba0 O1 2.974973 1_555
Ba0 O1 2.974975 1_565
Ba0 O1 2.974975 1_655
Ba0 O1 2.974979 1_665
Ba1 O1 2.663192 1_555
Ba1 O2 2.897928 1_556
Ba1 O2 2.897928 1_656
Ba1 O3 2.897928 1_556
Ba1 O3 2.897928 1_566
Ba1 O0 2.974973 1_555
Ba1 O0 2.974975 1_545
Ba1 O0 2.974975 1_455
Ba1 O0 2.974979 1_445
O0 Zr0 2.119999 1_666
O1 Zr0 2.119999 1_555
O2 Zr0 2.101772 1_565
O2 Zr0 2.101772 1_555
O3 Zr0 2.101771 1_655
O3 Zr0 2.101771 1_555
