# generated using pymatgen
data_Li3VSiO5
_symmetry_space_group_name_H-M   'P 1'
_cell_length_a   5.11237000
_cell_length_b   5.81504240
_cell_length_c   6.26906756
_cell_angle_alpha   76.02185167
_cell_angle_beta   76.07641223
_cell_angle_gamma   73.66680640
_symmetry_Int_Tables_number   1
_chemical_formula_structural   Li3VSiO5
_chemical_formula_sum   'Li6 V2 Si2 O10'
_cell_volume   170.54276352
_cell_formula_units_Z   2
loop_
 _symmetry_equiv_pos_site_id
 _symmetry_equiv_pos_as_xyz
  1  'x, y, z'
loop_
 _atom_site_type_symbol
 _atom_site_label
 _atom_site_symmetry_multiplicity
 _atom_site_fract_x
 _atom_site_fract_y
 _atom_site_fract_z
 _atom_site_occupancy
  Li  Li0  1  0.51754300  0.23877000  0.99276000  1
  Li  Li1  1  0.30610900  0.44921300  0.39786200  1
  Li  Li2  1  0.32290000  0.94912300  0.39177300  1
  Li  Li3  1  0.67710000  0.05087700  0.60822700  1
  Li  Li4  1  0.69389100  0.55078700  0.60213800  1
  Li  Li5  1  0.48245700  0.76123000  0.00724000  1
  V  V0  1  0.90226700  0.34451500  0.21769500  1
  V  V1  1  0.09773300  0.65548500  0.78230500  1
  Si  Si0  1  0.89901400  0.85004500  0.21297500  1
  Si  Si1  1  0.10098600  0.14995500  0.78702500  1
  O  O0  1  0.64819600  0.11649300  0.28380000  1
  O  O1  1  0.64895600  0.67113800  0.28038500  1
  O  O2  1  0.15869800  0.04172100  0.09497500  1
  O  O3  1  0.00138200  0.75723400  0.47642100  1
  O  O4  1  0.15971400  0.58346300  0.10859000  1
  O  O5  1  0.84028600  0.41653700  0.89141000  1
  O  O6  1  0.99861800  0.24276600  0.52357900  1
  O  O7  1  0.84130200  0.95827900  0.90502500  1
  O  O8  1  0.35104400  0.32886200  0.71961500  1
  O  O9  1  0.35180400  0.88350700  0.71620000  1
loop_
_geom_bond_atom_site_label_1
_geom_bond_atom_site_label_2
_geom_bond_distance
_geom_bond_site_symmetry_2
Li0 O8 1.987074 1_555
Li0 O0 1.993326 1_556
Li0 O7 2.044345 1_545
Li0 O5 2.081397 1_555
Li0 O2 2.313225 1_556
Li0 O4 2.427544 1_556
Li1 O8 2.015395 1_555
Li1 O4 2.024565 1_555
Li1 O3 2.089316 1_555
Li1 O6 2.131117 1_455
Li1 O1 2.339187 1_555
Li1 O0 2.340224 1_555
Li2 O9 2.010474 1_555
Li2 O0 2.054617 1_565
Li2 O1 2.085399 1_555
Li2 O2 2.114257 1_565
Li2 O3 2.134075 1_555
Li2 O6 2.185663 1_465
Li3 O0 2.010474 1_555
Li3 O9 2.054617 1_545
Li3 O8 2.085399 1_555
Li3 O7 2.114257 1_545
Li3 O6 2.134075 1_555
Li3 O3 2.185663 1_645
Li4 O1 2.015395 1_555
Li4 O5 2.024565 1_555
Li4 O6 2.089316 1_555
Li4 O3 2.131117 1_655
Li4 O8 2.339187 1_555
Li4 O9 2.340224 1_555
Li5 O1 1.987074 1_555
Li5 O9 1.993326 1_554
Li5 O2 2.044345 1_565
Li5 O4 2.081397 1_555
Li5 O7 2.313225 1_554
Li5 O5 2.427544 1_554
O0 Si0 1.784078 1_545
O0 V0 2.015251 1_555
O1 Si0 1.780687 1_555
O1 V0 2.042357 1_555
O2 Si0 1.874408 1_445
O2 Si1 1.947540 1_554
O2 V0 2.069190 1_455
O3 Si0 1.766156 1_455
O3 V1 2.003114 1_555
O4 Si0 1.875082 1_455
O4 V0 2.065680 1_455
O4 V1 2.069617 1_554
O5 Si1 1.875082 1_655
O5 V1 2.065680 1_655
O5 V0 2.069617 1_556
O6 Si1 1.766156 1_655
O6 V0 2.003114 1_555
O7 Si1 1.874408 1_665
O7 Si0 1.947540 1_556
O7 V1 2.069190 1_655
O8 Si1 1.780687 1_555
O8 V1 2.042357 1_555
O9 Si1 1.784078 1_565
O9 V1 2.015251 1_555
