# generated using pymatgen
data_Li2MnOF3
_symmetry_space_group_name_H-M   'P 1'
_cell_length_a   5.72417795
_cell_length_b   5.72380093
_cell_length_c   5.86132749
_cell_angle_alpha   63.10161056
_cell_angle_beta   82.05652139
_cell_angle_gamma   113.28069313
_symmetry_Int_Tables_number   1
_chemical_formula_structural   Li2MnOF3
_chemical_formula_sum   'Li4 Mn2 O2 F6'
_cell_volume   145.06326210
_cell_formula_units_Z   2
loop_
 _symmetry_equiv_pos_site_id
 _symmetry_equiv_pos_as_xyz
  1  'x, y, z'
loop_
 _atom_site_type_symbol
 _atom_site_label
 _atom_site_symmetry_multiplicity
 _atom_site_fract_x
 _atom_site_fract_y
 _atom_site_fract_z
 _atom_site_occupancy
  Li  Li0  1  0.47629000  0.97633600  0.50479100  1
  Li  Li1  1  0.50857100  0.50056200  0.49082400  1
  Li  Li2  1  0.88888100  0.74807300  0.86310900  1
  Li  Li3  1  0.01890700  0.51889400  0.50485300  1
  Mn  Mn0  1  0.51045100  0.98801400  0.00145200  1
  Mn  Mn1  1  0.04052700  0.27500700  0.18444400  1
  O  O0  1  0.71518100  0.96258000  0.22878200  1
  O  O1  1  0.30851500  0.55588900  0.22879900  1
  F  F0  1  0.79746900  0.03813700  0.66439500  1
  F  F1  1  0.80269200  0.45975500  0.23756800  1
  F  F2  1  0.70917500  0.43984800  0.76687500  1
  F  F3  1  0.29326600  0.02391700  0.76690700  1
  F  F4  1  0.20881000  0.99635700  0.29507500  1
  F  F5  1  0.22126300  0.51663100  0.76212400  1
loop_
_geom_bond_atom_site_label_1
_geom_bond_atom_site_label_2
_geom_bond_distance
_geom_bond_site_symmetry_2
Li0 O0 2.020460 1_555
Li1 O0 2.025259 1_555
Li1 O1 2.025609 1_555
Li3 O1 2.020451 1_555
Mn0 O0 1.887046 1_555
Mn0 O1 1.887217 1_555
Mn1 O1 1.882667 1_555
Mn1 O0 1.883327 1_445
F0 Li2 1.868783 1_545
F0 Li3 2.154117 1_655
F0 Li0 2.154301 1_545
F0 Mn0 2.214051 1_546
F0 Mn1 2.379878 1_655
F1 Li2 1.887825 1_554
F1 Mn1 2.094605 1_655
F1 Li0 2.187130 1_545
F1 Li3 2.187539 1_655
F1 Li1 2.241957 1_555
F2 Li3 1.921292 1_655
F2 Mn0 1.974261 1_546
F2 Li2 2.028552 1_555
F2 Li1 2.092258 1_555
F3 Li0 1.921299 1_545
F3 Mn0 1.973936 1_546
F3 Li2 2.028226 1_445
F3 Li1 2.092127 1_555
F4 Mn1 2.084114 1_565
F4 Li0 2.097570 1_555
F4 Li3 2.098585 1_555
F4 Mn0 2.294279 1_555
F5 Li3 2.023054 1_555
F5 Li0 2.023286 1_555
F5 Mn1 2.043036 1_556
F5 Li1 2.184245 1_555
