# generated using pymatgen
data_ZnFe2(PO4)3
_symmetry_space_group_name_H-M   'P 1'
_cell_length_a   5.95641600
_cell_length_b   4.89371600
_cell_length_c   29.86220092
_cell_angle_alpha   89.98575769
_cell_angle_beta   90.00000000
_cell_angle_gamma   90.00000000
_symmetry_Int_Tables_number   1
_chemical_formula_structural   ZnFe2(PO4)3
_chemical_formula_sum   'Zn4 Fe8 P12 O48'
_cell_volume   870.45351511
_cell_formula_units_Z   4
loop_
 _symmetry_equiv_pos_site_id
 _symmetry_equiv_pos_as_xyz
  1  'x, y, z'
loop_
 _atom_site_type_symbol
 _atom_site_label
 _atom_site_symmetry_multiplicity
 _atom_site_fract_x
 _atom_site_fract_y
 _atom_site_fract_z
 _atom_site_occupancy
  Zn  Zn0  1  0.00000000  0.45726700  0.92491000  1
  Zn  Zn1  1  0.50000000  0.95716300  0.90850800  1
  Zn  Zn2  1  0.00000000  0.45231900  0.59175600  1
  Zn  Zn3  1  0.00000000  0.45258400  0.25861300  1
  Fe  Fe0  1  0.00000000  0.03671800  0.75787600  1
  Fe  Fe1  1  0.50000000  0.53568800  0.74178800  1
  Fe  Fe2  1  0.50000000  0.96587500  0.57526200  1
  Fe  Fe3  1  0.00000000  0.03277900  0.42511800  1
  Fe  Fe4  1  0.50000000  0.53414500  0.40908100  1
  Fe  Fe5  1  0.50000000  0.96620500  0.24204200  1
  Fe  Fe6  1  0.00000000  0.03464200  0.09193800  1
  Fe  Fe7  1  0.50000000  0.53633500  0.07582800  1
  P  P0  1  0.50000000  0.41642800  0.96885200  1
  P  P1  1  0.00000000  0.91639600  0.86452000  1
  P  P2  1  0.50000000  0.08319000  0.80078400  1
  P  P3  1  0.00000000  0.58264000  0.69897800  1
  P  P4  1  0.50000000  0.41218800  0.63412200  1
  P  P5  1  0.00000000  0.92552600  0.53208600  1
  P  P6  1  0.50000000  0.08233000  0.46809000  1
  P  P7  1  0.00000000  0.58210600  0.36590700  1
  P  P8  1  0.50000000  0.41143300  0.30092500  1
  P  P9  1  0.00000000  0.92533400  0.19893700  1
  P  P10  1  0.50000000  0.08187500  0.13474400  1
  P  P11  1  0.00000000  0.58277400  0.03294800  1
  O  O0  1  0.00000000  0.66018200  0.98320100  1
  O  O1  1  0.50000000  0.72841600  0.96367600  1
  O  O2  1  0.29773800  0.27248600  0.94508900  1
  O  O3  1  0.70226200  0.27248600  0.94508900  1
  O  O4  1  0.79757800  0.77209500  0.88820500  1
  O  O5  1  0.20242200  0.77209500  0.88820500  1
  O  O6  1  0.00000000  0.22928500  0.86955500  1
  O  O7  1  0.50000000  0.16228800  0.85038100  1
  O  O8  1  0.00000000  0.84684900  0.81423000  1
  O  O9  1  0.50000000  0.77429200  0.79379200  1
  O  O10  1  0.29952100  0.22598500  0.77501000  1
  O  O11  1  0.70047900  0.22598500  0.77501000  1
  O  O12  1  0.79879700  0.72626600  0.72440100  1
  O  O13  1  0.20120300  0.72626600  0.72440100  1
  O  O14  1  0.00000000  0.27349800  0.70634100  1
  O  O15  1  0.50000000  0.35288900  0.68455600  1
  O  O16  1  0.00000000  0.65358700  0.64928700  1
  O  O17  1  0.50000000  0.71982900  0.62627000  1
  O  O18  1  0.30137200  0.25980200  0.60975100  1
  O  O19  1  0.69862800  0.25980200  0.60975100  1
  O  O20  1  0.20473900  0.78716300  0.55627600  1
  O  O21  1  0.79526100  0.78716300  0.55627600  1
  O  O22  1  0.00000000  0.23690300  0.53578300  1
  O  O23  1  0.50000000  0.15685200  0.51773400  1
  O  O24  1  0.00000000  0.84714300  0.48198900  1
  O  O25  1  0.50000000  0.77282000  0.46110600  1
  O  O26  1  0.29878400  0.22637200  0.44281200  1
  O  O27  1  0.70121600  0.22637200  0.44281200  1
  O  O28  1  0.79871200  0.72622900  0.39142400  1
  O  O29  1  0.20128800  0.72622900  0.39142400  1
  O  O30  1  0.00000000  0.27314000  0.37370100  1
  O  O31  1  0.50000000  0.35267300  0.35141500  1
  O  O32  1  0.00000000  0.65325100  0.31625400  1
  O  O33  1  0.50000000  0.71946700  0.29308200  1
  O  O34  1  0.30159900  0.25982800  0.27657300  1
  O  O35  1  0.69840100  0.25982800  0.27657300  1
  O  O36  1  0.20430000  0.78737000  0.22296000  1
  O  O37  1  0.79570000  0.78737000  0.22296000  1
  O  O38  1  0.00000000  0.23671500  0.20252300  1
  O  O39  1  0.50000000  0.15508200  0.18431900  1
  O  O40  1  0.00000000  0.84727900  0.14876300  1
  O  O41  1  0.50000000  0.77253400  0.12770600  1
  O  O42  1  0.29858100  0.22570900  0.10956800  1
  O  O43  1  0.70141900  0.22570900  0.10956800  1
  O  O44  1  0.79919900  0.72560700  0.05856600  1
  O  O45  1  0.20080100  0.72560700  0.05856600  1
  O  O46  1  0.00000000  0.27409500  0.04026100  1
  O  O47  1  0.50000000  0.34716700  0.01919300  1
loop_
_geom_bond_atom_site_label_1
_geom_bond_atom_site_label_2
_geom_bond_distance
_geom_bond_site_symmetry_2
Fe0 O8 1.922126 1_545
Fe0 O14 1.926173 1_555
Fe0 O10 2.074325 1_555
Fe0 O11 2.074325 1_455
Fe0 O13 2.178181 1_545
Fe0 O12 2.178181 1_445
Fe1 O15 1.929233 1_555
Fe1 O9 1.943193 1_555
Fe1 O12 2.075257 1_555
Fe1 O13 2.075257 1_555
Fe1 O11 2.169442 1_555
Fe1 O10 2.169442 1_555
Fe2 O17 1.941409 1_555
Fe2 O23 1.955474 1_565
Fe2 O20 2.044401 1_555
Fe2 O21 2.044401 1_555
Fe2 O18 2.128426 1_565
Fe2 O19 2.128426 1_565
Fe3 O24 1.925802 1_545
Fe3 O30 1.933964 1_555
Fe3 O27 2.084286 1_455
Fe3 O26 2.084286 1_555
Fe3 O29 2.168212 1_545
Fe3 O28 2.168212 1_445
Fe4 O31 1.937739 1_555
Fe4 O25 1.943903 1_555
Fe4 O29 2.080174 1_555
Fe4 O28 2.080174 1_555
Fe4 O27 2.172286 1_555
Fe4 O26 2.172286 1_555
Fe5 O33 1.944259 1_555
Fe5 O39 1.955715 1_565
Fe5 O36 2.047705 1_555
Fe5 O37 2.047705 1_555
Fe5 O34 2.127277 1_565
Fe5 O35 2.127277 1_565
Fe6 O40 1.928593 1_545
Fe6 O46 1.937443 1_555
Fe6 O42 2.077175 1_555
Fe6 O43 2.077175 1_455
Fe6 O45 2.170615 1_545
Fe6 O44 2.170615 1_445
Fe7 O47 1.928231 1_555
Fe7 O41 1.933124 1_555
Fe7 O44 2.073519 1_555
Fe7 O45 2.073519 1_555
Fe7 O43 2.182776 1_555
Fe7 O42 2.182776 1_555
O0 P11 1.533001 1_556
O0 Zn0 2.004234 1_555
O1 P0 1.534546 1_555
O1 Zn1 1.991543 1_555
O2 P0 1.565706 1_555
O2 Zn0 2.079824 1_555
O2 Zn1 2.242042 1_545
O3 P0 1.565706 1_555
O3 Zn0 2.079824 1_655
O3 Zn1 2.242042 1_545
O4 P1 1.566019 1_655
O4 Zn1 2.080830 1_555
O4 Zn0 2.242321 1_655
O5 P1 1.566019 1_555
O5 Zn1 2.080830 1_555
O5 Zn0 2.242321 1_555
O6 P1 1.538592 1_545
O6 Zn0 1.994527 1_555
O7 P2 1.530916 1_555
O7 Zn1 2.004943 1_545
O8 P1 1.539935 1_555
O9 P2 1.526062 1_565
O10 P2 1.583162 1_555
O11 P2 1.583162 1_555
O12 P3 1.583328 1_655
O13 P3 1.583328 1_555
O14 P3 1.528694 1_555
O15 P4 1.533702 1_555
O16 P3 1.523875 1_555
O16 Zn2 1.980529 1_555
O17 P4 1.523600 1_555
O18 P4 1.576639 1_555
O18 Zn2 2.097257 1_555
O19 P4 1.576639 1_555
O19 Zn2 2.097257 1_655
O20 P5 1.570749 1_555
O20 Zn2 2.300874 1_555
O21 P5 1.570749 1_655
O21 Zn2 2.300874 1_655
O22 P5 1.527812 1_545
O22 Zn2 1.976365 1_555
O23 P6 1.526765 1_555
O24 P5 1.544493 1_555
O25 P6 1.528996 1_565
O26 P6 1.582054 1_555
O27 P6 1.582054 1_555
O28 P7 1.586140 1_655
O29 P7 1.586140 1_555
O30 P7 1.529743 1_555
O31 P8 1.534848 1_555
O32 P7 1.522991 1_555
O32 Zn3 1.981920 1_555
O33 P8 1.525459 1_555
O34 P8 1.573557 1_555
O34 Zn3 2.098672 1_555
O35 P8 1.573557 1_555
O35 Zn3 2.098672 1_655
O36 P9 1.565588 1_555
O36 Zn3 2.301671 1_555
O37 P9 1.565588 1_655
O37 Zn3 2.301671 1_655
O38 P9 1.527595 1_545
O38 Zn3 1.980503 1_555
O39 P10 1.523236 1_555
O40 P9 1.546323 1_555
O41 P10 1.528398 1_565
O42 P10 1.581067 1_555
O43 P10 1.581067 1_555
O44 P11 1.582602 1_655
O45 P11 1.582602 1_555
O46 P11 1.526238 1_555
O47 P0 1.540948 1_554
