# generated using pymatgen
data_Li3V4(OF3)3
_symmetry_space_group_name_H-M   'P 1'
_cell_length_a   5.18967900
_cell_length_b   5.54213370
_cell_length_c   17.28372055
_cell_angle_alpha   88.97683212
_cell_angle_beta   97.46133533
_cell_angle_gamma   117.48653275
_symmetry_Int_Tables_number   1
_chemical_formula_structural   Li3V4(OF3)3
_chemical_formula_sum   'Li6 V8 O6 F18'
_cell_volume   436.76351159
_cell_formula_units_Z   2
loop_
 _symmetry_equiv_pos_site_id
 _symmetry_equiv_pos_as_xyz
  1  'x, y, z'
loop_
 _atom_site_type_symbol
 _atom_site_label
 _atom_site_symmetry_multiplicity
 _atom_site_fract_x
 _atom_site_fract_y
 _atom_site_fract_z
 _atom_site_occupancy
  Li  Li0  1  0.93527100  0.55217100  0.31677100  1
  Li  Li1  1  0.63591000  0.32509700  0.94115100  1
  Li  Li2  1  0.32751700  0.10231300  0.54832400  1
  Li  Li3  1  0.80397100  0.82847200  0.79917600  1
  Li  Li4  1  0.68722700  0.91862200  0.44996100  1
  Li  Li5  1  0.43332900  0.82616100  0.07232500  1
  V  V0  1  0.97906200  0.01801800  0.00293700  1
  V  V1  1  0.74790600  0.37913800  0.12820700  1
  V  V2  1  0.53378500  0.24927700  0.75058500  1
  V  V3  1  0.50391100  0.72602600  0.24722600  1
  V  V4  1  0.75840100  0.89490800  0.63207100  1
  V  V5  1  0.24846600  0.11701300  0.38073500  1
  V  V6  1  0.03617900  0.51512700  0.49492300  1
  V  V7  1  0.21418100  0.60919400  0.87038600  1
  O  O0  1  0.78878200  0.20470300  0.03331700  1
  O  O1  1  0.70178200  0.03917800  0.72023100  1
  O  O2  1  0.68750700  0.53450500  0.21645700  1
  O  O3  1  0.80936600  0.41904800  0.84665100  1
  O  O4  1  0.17166500  0.27171800  0.46721400  1
  O  O5  1  0.27499900  0.83599200  0.44188900  1
  F  F0  1  0.72718400  0.05166000  0.18746700  1
  F  F1  1  0.74288500  0.19236500  0.55811000  1
  F  F2  1  0.71940800  0.68041200  0.05630400  1
  F  F3  1  0.70357900  0.35122900  0.39911900  1
  F  F4  1  0.83179200  0.73878500  0.53238900  1
  F  F5  1  0.80030200  0.87049400  0.34863300  1
  F  F6  1  0.31169400  0.13224500  0.09300000  1
  F  F7  1  0.77420000  0.58803700  0.69303500  1
  F  F8  1  0.22660300  0.42086500  0.30832600  1
  F  F9  1  0.67042600  0.84669400  0.90326800  1
  F  F10  1  0.20896300  0.10856400  0.65312300  1
  F  F11  1  0.19130400  0.59951100  0.14815000  1
  F  F12  1  0.34451700  0.48425800  0.78257300  1
  F  F13  1  0.33170800  0.67804700  0.59276000  1
  F  F14  1  0.29291100  0.92670200  0.28551600  1
  F  F15  1  0.25508000  0.31322000  0.93786800  1
  F  F16  1  0.23805000  0.94073200  0.81589600  1
  F  F17  1  0.17197500  0.78200800  0.97147800  1
loop_
_geom_bond_atom_site_label_1
_geom_bond_atom_site_label_2
_geom_bond_distance
_geom_bond_site_symmetry_2
Li0 O2 1.994951 1_555
Li1 O3 1.915194 1_555
Li1 O0 1.932521 1_556
Li2 O4 1.964793 1_555
Li2 O5 2.287430 1_545
Li3 O1 1.957932 1_565
Li3 O3 2.410186 1_555
Li4 O5 1.956104 1_555
Li4 O4 2.350264 1_665
Li5 O0 2.226854 1_565
O0 V0 1.848915 1_555
O0 V1 2.001411 1_555
O1 V4 1.850422 1_545
O1 V2 1.862493 1_555
O2 V3 1.844614 1_555
O2 V1 1.893781 1_555
O3 V7 1.854835 1_655
O3 V2 1.970906 1_555
O4 V6 1.878738 1_555
O4 V5 1.908924 1_555
O5 V5 1.913945 1_565
O5 V6 1.934155 1_555
F0 V3 1.995080 1_545
F0 V1 2.033871 1_555
F0 Li5 2.321485 1_545
F1 Li2 1.959505 1_555
F1 V4 2.092567 1_545
F1 V6 2.134930 1_655
F1 Li4 2.331438 1_545
F2 V0 2.025160 1_565
F2 Li5 2.038412 1_555
F2 V1 2.111945 1_555
F3 Li0 1.965584 1_555
F3 V5 2.086676 1_555
F3 V6 2.100105 1_655
F3 Li4 2.506795 1_545
F4 Li4 1.986917 1_555
F4 V4 2.095209 1_555
F4 V6 2.121694 1_655
F4 Li2 2.409317 1_665
F5 Li4 1.977556 1_555
F5 V3 2.071733 1_555
F5 V5 2.083900 1_665
F5 Li0 2.276355 1_555
F6 V0 2.032815 1_455
F6 V1 2.044505 1_555
F6 Li5 2.114824 1_545
F7 V4 2.012885 1_555
F7 V2 2.040652 1_555
F7 Li3 2.233510 1_555
F8 Li0 1.978257 1_455
F8 V3 2.032448 1_555
F8 V5 2.116403 1_555
F9 Li3 2.030321 1_555
F9 V0 2.091064 1_566
F9 V7 2.112393 1_555
F10 Li2 1.992977 1_555
F10 V4 2.059284 1_445
F10 V2 2.093639 1_555
F11 Li5 1.945590 1_555
F11 V1 2.029855 1_455
F11 V3 2.080206 1_555
F12 V7 1.994230 1_555
F12 V2 2.077009 1_555
F12 Li3 2.247235 1_555
F13 V4 1.997850 1_555
F13 V6 2.032147 1_555
F13 Li2 2.469311 1_565
F14 V3 2.052473 1_555
F14 V5 2.063796 1_565
F14 Li0 2.170102 1_455
F15 Li1 1.940251 1_555
F15 V0 2.045178 1_456
F15 V7 2.069985 1_555
F16 V7 2.009192 1_555
F16 Li3 2.022124 1_455
F16 V2 2.124210 1_565
F17 Li5 2.008109 1_556
F17 V7 2.090682 1_555
F17 V0 2.093891 1_466
