# generated using pymatgen
data_Ca4PtO6
_symmetry_space_group_name_H-M   'P 1'
_cell_length_a   6.56732771
_cell_length_b   6.56732771
_cell_length_c   6.56732827
_cell_angle_alpha   90.67182087
_cell_angle_beta   90.67182087
_cell_angle_gamma   90.67181668
_symmetry_Int_Tables_number   1
_chemical_formula_structural   Ca4PtO6
_chemical_formula_sum   'Ca8 Pt2 O12'
_cell_volume   283.18863590
_cell_formula_units_Z   2
loop_
 _symmetry_equiv_pos_site_id
 _symmetry_equiv_pos_as_xyz
  1  'x, y, z'
loop_
 _atom_site_type_symbol
 _atom_site_label
 _atom_site_symmetry_multiplicity
 _atom_site_fract_x
 _atom_site_fract_y
 _atom_site_fract_z
 _atom_site_occupancy
  Ca  Ca0  1  0.75000000  0.11384721  0.38615279  1
  Ca  Ca1  1  0.38615279  0.75000000  0.11384721  1
  Ca  Ca2  1  0.11384721  0.38615279  0.75000000  1
  Ca  Ca3  1  0.25000000  0.88615279  0.61384721  1
  Ca  Ca4  1  0.61384721  0.25000000  0.88615279  1
  Ca  Ca5  1  0.88615279  0.61384721  0.25000000  1
  Ca  Ca6  1  0.25000000  0.25000000  0.25000000  1
  Ca  Ca7  1  0.75000000  0.75000000  0.75000000  1
  Pt  Pt0  1  0.50000000  0.50000000  0.50000000  1
  Pt  Pt1  1  0.00000000  0.00000000  0.00000000  1
  O  O0  1  0.42884663  0.20251464  0.55401254  1
  O  O1  1  0.55401254  0.42884663  0.20251464  1
  O  O2  1  0.20251464  0.55401254  0.42884663  1
  O  O3  1  0.07115337  0.94598746  0.29748536  1
  O  O4  1  0.29748536  0.07115337  0.94598746  1
  O  O5  1  0.94598746  0.29748536  0.07115337  1
  O  O6  1  0.57115337  0.79748536  0.44598746  1
  O  O7  1  0.44598746  0.57115337  0.79748536  1
  O  O8  1  0.79748536  0.44598746  0.57115337  1
  O  O9  1  0.92884663  0.05401254  0.70251464  1
  O  O10  1  0.05401254  0.70251464  0.92884663  1
  O  O11  1  0.70251464  0.92884663  0.05401254  1
loop_
_geom_bond_atom_site_label_1
_geom_bond_atom_site_label_2
_geom_bond_distance
_geom_bond_site_symmetry_2
Ca0 O6 2.413161 1_545
Ca0 O9 2.413162 1_555
Ca0 O3 2.463940 1_645
Ca0 O0 2.463940 1_555
Ca0 O8 2.498870 1_555
Ca0 O11 2.498870 1_545
Ca0 O1 2.734083 1_555
Ca0 O5 2.734083 1_555
Ca1 O11 2.413161 1_555
Ca1 O7 2.413162 1_554
Ca1 O1 2.463940 1_555
Ca1 O4 2.463940 1_564
Ca1 O10 2.498870 1_554
Ca1 O6 2.498870 1_555
Ca1 O3 2.734083 1_555
Ca1 O2 2.734083 1_555
Ca2 O8 2.413161 1_455
Ca2 O10 2.413161 1_555
Ca2 O2 2.463941 1_555
Ca2 O5 2.463941 1_456
Ca2 O9 2.498870 1_455
Ca2 O7 2.498870 1_555
Ca2 O0 2.734083 1_555
Ca2 O4 2.734083 1_555
Ca3 O0 2.413161 1_565
Ca3 O3 2.413162 1_555
Ca3 O9 2.463940 1_465
Ca3 O6 2.463940 1_555
Ca3 O2 2.498870 1_555
Ca3 O4 2.498870 1_565
Ca3 O7 2.734083 1_555
Ca3 O10 2.734083 1_555
Ca4 O4 2.413161 1_555
Ca4 O1 2.413162 1_556
Ca4 O7 2.463940 1_555
Ca4 O11 2.463940 1_546
Ca4 O5 2.498870 1_556
Ca4 O0 2.498870 1_555
Ca4 O9 2.734083 1_555
Ca4 O8 2.734083 1_555
Ca5 O5 2.413161 1_555
Ca5 O2 2.413161 1_655
Ca5 O10 2.463941 1_654
Ca5 O8 2.463941 1_555
Ca5 O3 2.498870 1_655
Ca5 O1 2.498870 1_555
Ca5 O6 2.734083 1_555
Ca5 O11 2.734083 1_555
Ca6 O5 2.330497 1_455
Ca6 O2 2.330497 1_555
Ca6 O3 2.330497 1_545
Ca6 O1 2.330497 1_555
Ca6 O4 2.330497 1_554
Ca6 O0 2.330497 1_555
Ca7 O8 2.330497 1_555
Ca7 O10 2.330497 1_655
Ca7 O9 2.330497 1_565
Ca7 O7 2.330497 1_555
Ca7 O11 2.330497 1_556
Ca7 O6 2.330497 1_555
O0 Pt0 2.039557 1_555
O1 Pt0 2.039557 1_555
O2 Pt0 2.039557 1_555
O3 Pt1 2.039557 1_565
O4 Pt1 2.039557 1_556
O5 Pt1 2.039557 1_655
O6 Pt0 2.039557 1_555
O7 Pt0 2.039557 1_555
O8 Pt0 2.039557 1_555
O9 Pt1 2.039557 1_656
O10 Pt1 2.039557 1_566
O11 Pt1 2.039557 1_665
