# generated using pymatgen
data_Li3Ni2OF5
_symmetry_space_group_name_H-M   'P 1'
_cell_length_a   9.72731041
_cell_length_b   9.26753479
_cell_length_c   5.11540876
_cell_angle_alpha   79.40443095
_cell_angle_beta   69.47005291
_cell_angle_gamma   31.12551615
_symmetry_Int_Tables_number   1
_chemical_formula_structural   Li3Ni2OF5
_chemical_formula_sum   'Li6 Ni4 O2 F10'
_cell_volume   216.69121533
_cell_formula_units_Z   2
loop_
 _symmetry_equiv_pos_site_id
 _symmetry_equiv_pos_as_xyz
  1  'x, y, z'
loop_
 _atom_site_type_symbol
 _atom_site_label
 _atom_site_symmetry_multiplicity
 _atom_site_fract_x
 _atom_site_fract_y
 _atom_site_fract_z
 _atom_site_occupancy
  Li  Li0  1  0.82314500  0.82314500  0.17685500  1
  Li  Li1  1  0.42027700  0.42027700  0.07972300  1
  Li  Li2  1  0.17685500  0.17685500  0.82314500  1
  Li  Li3  1  0.75000000  0.75000000  0.75000000  1
  Li  Li4  1  0.07972300  0.07972300  0.42027700  1
  Li  Li5  1  0.50000000  0.50000000  0.50000000  1
  Ni  Ni0  1  0.92187600  0.92187600  0.57812400  1
  Ni  Ni1  1  0.25000000  0.25000000  0.25000000  1
  Ni  Ni2  1  0.57812400  0.57812400  0.92187600  1
  Ni  Ni3  1  0.00000000  0.00000000  0.00000000  1
  O  O0  1  0.75856900  0.24143100  0.75856900  1
  O  O1  1  0.24143100  0.75856900  0.24143100  1
  F  F0  1  0.06200100  0.60005900  0.40642900  1
  F  F1  1  0.67390200  0.16048800  0.33258800  1
  F  F2  1  0.16048800  0.67390200  0.83302100  1
  F  F3  1  0.40642900  0.93151100  0.06200100  1
  F  F4  1  0.01372700  0.48627300  0.01372700  1
  F  F5  1  0.60005900  0.06200100  0.93151100  1
  F  F6  1  0.93151100  0.40642900  0.60005900  1
  F  F7  1  0.48627300  0.01372700  0.48627300  1
  F  F8  1  0.33258800  0.83302100  0.67390200  1
  F  F9  1  0.83302100  0.33258800  0.16048800  1
loop_
_geom_bond_atom_site_label_1
_geom_bond_atom_site_label_2
_geom_bond_distance
_geom_bond_site_symmetry_2
Li1 O1 2.036242 1_555
Li1 O0 2.036242 1_554
Li4 O0 2.036242 1_455
Li4 O1 2.036242 1_545
Li5 O0 2.160275 1_555
Li5 O1 2.160275 1_555
Ni0 O0 2.017020 1_565
Ni0 O1 2.017020 1_655
Ni2 O1 2.017020 1_556
Ni2 O0 2.017020 1_555
Ni3 O1 2.017091 1_545
Ni3 O0 2.017091 1_454
F0 Li0 1.961795 1_455
F0 Li3 2.041375 1_455
F0 Ni1 2.068895 1_555
F0 Ni0 2.165179 1_455
F0 Li1 2.170765 1_555
F1 Ni3 2.058294 1_655
F1 Ni0 2.063313 1_545
F1 Li5 2.087411 1_555
F1 Li1 2.116586 1_555
F1 Li0 2.202375 1_545
F2 Ni3 2.058296 1_566
F2 Ni0 2.063309 1_455
F2 Li5 2.087409 1_555
F2 Li1 2.116590 1_556
F2 Li0 2.202377 1_456
F3 Li2 1.961795 1_564
F3 Li3 2.041375 1_554
F3 Ni1 2.068895 1_565
F3 Ni2 2.165179 1_554
F3 Li4 2.170765 1_565
F4 Li2 1.960589 1_554
F4 Li0 1.960589 1_455
F4 Ni1 1.973998 1_555
F4 Li3 2.203368 1_454
F5 Li0 1.961795 1_546
F5 Li3 2.041375 1_545
F5 Ni1 2.068895 1_556
F5 Ni0 2.165179 1_545
F5 Li1 2.170765 1_556
F6 Li2 1.961795 1_655
F6 Li3 2.041375 1_555
F6 Ni1 2.068895 1_655
F6 Ni2 2.165179 1_555
F6 Li4 2.170765 1_655
F7 Li2 1.960589 1_555
F7 Li0 1.960589 1_545
F7 Ni1 1.973998 1_555
F7 Li3 2.203368 1_545
F8 Ni3 2.058289 1_566
F8 Ni2 2.063313 1_555
F8 Li5 2.087403 1_555
F8 Li4 2.116585 1_565
F8 Li2 2.202384 1_565
F9 Ni3 2.058287 1_655
F9 Ni2 2.063308 1_554
F9 Li5 2.087405 1_555
F9 Li4 2.116590 1_655
F9 Li2 2.202382 1_654
