# generated using pymatgen
data_NaSc(BH4)4
_symmetry_space_group_name_H-M   'P 1'
_cell_length_a   7.19696227
_cell_length_b   7.19696227
_cell_length_c   8.73494300
_cell_angle_alpha   90.00000000
_cell_angle_beta   90.00000000
_cell_angle_gamma   110.28171667
_symmetry_Int_Tables_number   1
_chemical_formula_structural   NaSc(BH4)4
_chemical_formula_sum   'Na2 Sc2 B8 H32'
_cell_volume   424.38612707
_cell_formula_units_Z   2
loop_
 _symmetry_equiv_pos_site_id
 _symmetry_equiv_pos_as_xyz
  1  'x, y, z'
loop_
 _atom_site_type_symbol
 _atom_site_label
 _atom_site_symmetry_multiplicity
 _atom_site_fract_x
 _atom_site_fract_y
 _atom_site_fract_z
 _atom_site_occupancy
  Na  Na0  1  0.00000000  0.00000000  0.00000000  1
  Na  Na1  1  0.00000000  0.00000000  0.50000000  1
  Sc  Sc0  1  0.35931900  0.64068100  0.25000000  1
  Sc  Sc1  1  0.64068100  0.35931900  0.75000000  1
  B  B0  1  0.24834200  0.75165800  0.46648500  1
  B  B1  1  0.75165800  0.24834200  0.96648500  1
  B  B2  1  0.75165800  0.24834200  0.53351500  1
  B  B3  1  0.24834200  0.75165800  0.03351500  1
  B  B4  1  0.70384800  0.75653400  0.25000000  1
  B  B5  1  0.29615200  0.24346600  0.75000000  1
  B  B6  1  0.75653400  0.70384800  0.75000000  1
  B  B7  1  0.24346600  0.29615200  0.25000000  1
  H  H0  1  0.35037000  0.64963000  0.49822900  1
  H  H1  1  0.64963000  0.35037000  0.99822900  1
  H  H2  1  0.64963000  0.35037000  0.50177100  1
  H  H3  1  0.35037000  0.64963000  0.00177100  1
  H  H4  1  0.35259900  0.88936200  0.38499400  1
  H  H5  1  0.64740100  0.11063800  0.88499400  1
  H  H6  1  0.88936200  0.35259900  0.61500600  1
  H  H7  1  0.11063800  0.64740100  0.11500600  1
  H  H8  1  0.64740100  0.11063800  0.61500600  1
  H  H9  1  0.35259900  0.88936200  0.11500600  1
  H  H10  1  0.11063800  0.64740100  0.38499400  1
  H  H11  1  0.88936200  0.35259900  0.88499400  1
  H  H12  1  0.19259800  0.80740200  0.58184000  1
  H  H13  1  0.80740200  0.19259800  0.08184000  1
  H  H14  1  0.80740200  0.19259800  0.41816000  1
  H  H15  1  0.19259800  0.80740200  0.91816000  1
  H  H16  1  0.63833000  0.65278300  0.36357800  1
  H  H17  1  0.36167000  0.34721700  0.86357800  1
  H  H18  1  0.65278300  0.63833000  0.63642200  1
  H  H19  1  0.34721700  0.36167000  0.13642200  1
  H  H20  1  0.36167000  0.34721700  0.63642200  1
  H  H21  1  0.63833000  0.65278300  0.13642200  1
  H  H22  1  0.34721700  0.36167000  0.36357800  1
  H  H23  1  0.65278300  0.63833000  0.86357800  1
  H  H24  1  0.88297500  0.81889100  0.25000000  1
  H  H25  1  0.11702500  0.18110900  0.75000000  1
  H  H26  1  0.81889100  0.88297500  0.75000000  1
  H  H27  1  0.18110900  0.11702500  0.25000000  1
  H  H28  1  0.63452300  0.89154000  0.25000000  1
  H  H29  1  0.36547700  0.10846000  0.75000000  1
  H  H30  1  0.89154000  0.63452300  0.75000000  1
  H  H31  1  0.10846000  0.36547700  0.25000000  1
loop_
_geom_bond_atom_site_label_1
_geom_bond_atom_site_label_2
_geom_bond_distance
_geom_bond_site_symmetry_2
B0 H12 1.203654 1_555
B0 H0 1.236550 1_555
B0 H4 1.239491 1_555
B0 H10 1.239491 1_555
B1 H13 1.203654 1_556
B1 H1 1.236550 1_555
B1 H11 1.239491 1_555
B1 H5 1.239491 1_555
B2 H14 1.203654 1_555
B2 H2 1.236550 1_555
B2 H6 1.239491 1_555
B2 H8 1.239491 1_555
B3 H15 1.203654 1_554
B3 H3 1.236550 1_555
B3 H9 1.239491 1_555
B3 H7 1.239491 1_555
B4 H24 1.209243 1_555
B4 H21 1.232905 1_555
B4 H16 1.232905 1_555
B4 H28 1.236561 1_555
B5 H25 1.209243 1_555
B5 H20 1.232905 1_555
B5 H17 1.232905 1_555
B5 H29 1.236561 1_555
B6 H26 1.209243 1_555
B6 H23 1.232905 1_555
B6 H18 1.232905 1_555
B6 H30 1.236561 1_555
B7 H27 1.209243 1_555
B7 H19 1.232905 1_555
B7 H22 1.232905 1_555
B7 H31 1.236561 1_555
H0 Sc0 2.170841 1_555
H1 Sc1 2.170841 1_555
H2 Sc1 2.170841 1_555
H3 Sc0 2.170841 1_555
H4 Sc0 2.157771 1_555
H5 Sc1 2.157771 1_555
H6 Sc1 2.157771 1_555
H7 Sc0 2.157771 1_555
H8 Sc1 2.157771 1_555
H9 Sc0 2.157771 1_555
H10 Sc0 2.157771 1_555
H11 Sc1 2.157771 1_555
H12 Na1 2.384471 1_565
H13 Na0 2.384471 1_655
H14 Na1 2.384471 1_655
H15 Na0 2.384471 1_566
H16 Sc0 2.214223 1_555
H17 Sc1 2.214223 1_555
H18 Sc1 2.214223 1_555
H19 Sc0 2.214223 1_555
H20 Sc1 2.214223 1_555
H21 Sc0 2.214223 1_555
H22 Sc0 2.214223 1_555
H23 Sc1 2.214223 1_555
H24 Na0 2.532967 1_665
H24 Na1 2.532967 1_665
H25 Na1 2.532967 1_555
H25 Na0 2.532967 1_556
H26 Na1 2.532967 1_665
H26 Na0 2.532967 1_666
H27 Na0 2.532967 1_555
H27 Na1 2.532967 1_555
H28 Sc0 2.168732 1_555
H29 Sc1 2.168732 1_555
H30 Sc1 2.168732 1_555
H31 Sc0 2.168732 1_555
