# generated using pymatgen
data_NaCr6O11
_symmetry_space_group_name_H-M   'P 1'
_cell_length_a   5.82414789
_cell_length_b   5.82414789
_cell_length_c   12.99973200
_cell_angle_alpha   90.00000000
_cell_angle_beta   90.00000000
_cell_angle_gamma   119.99999879
_symmetry_Int_Tables_number   1
_chemical_formula_structural   NaCr6O11
_chemical_formula_sum   'Na2 Cr12 O22'
_cell_volume   381.88255989
_cell_formula_units_Z   2
loop_
 _symmetry_equiv_pos_site_id
 _symmetry_equiv_pos_as_xyz
  1  'x, y, z'
loop_
 _atom_site_type_symbol
 _atom_site_label
 _atom_site_symmetry_multiplicity
 _atom_site_fract_x
 _atom_site_fract_y
 _atom_site_fract_z
 _atom_site_occupancy
  Na  Na0  1  0.33333300  0.66666700  0.25000000  1
  Na  Na1  1  0.66666700  0.33333300  0.75000000  1
  Cr  Cr0  1  0.00000000  0.50000000  0.00000000  1
  Cr  Cr1  1  0.33333300  0.66666700  0.75000000  1
  Cr  Cr2  1  0.00000000  0.00000000  0.14581600  1
  Cr  Cr3  1  0.00000000  0.00000000  0.35418400  1
  Cr  Cr4  1  0.00000000  0.00000000  0.64581600  1
  Cr  Cr5  1  0.00000000  0.00000000  0.85418400  1
  Cr  Cr6  1  0.50000000  0.00000000  0.00000000  1
  Cr  Cr7  1  0.50000000  0.50000000  0.00000000  1
  Cr  Cr8  1  0.50000000  0.50000000  0.50000000  1
  Cr  Cr9  1  0.66666700  0.33333300  0.25000000  1
  Cr  Cr10  1  0.50000000  0.00000000  0.50000000  1
  Cr  Cr11  1  0.00000000  0.50000000  0.50000000  1
  O  O0  1  0.15431100  0.84568900  0.75000000  1
  O  O1  1  0.17550500  0.82449500  0.42237700  1
  O  O2  1  0.17550500  0.82449500  0.07762300  1
  O  O3  1  0.33333300  0.66666700  0.91310100  1
  O  O4  1  0.33333300  0.66666700  0.58689900  1
  O  O5  1  0.15431100  0.30862200  0.75000000  1
  O  O6  1  0.17550500  0.35101000  0.42237700  1
  O  O7  1  0.17550500  0.35101000  0.07762300  1
  O  O8  1  0.30862200  0.15431100  0.25000000  1
  O  O9  1  0.64899000  0.82449500  0.07762300  1
  O  O10  1  0.64899000  0.82449500  0.42237700  1
  O  O11  1  0.35101000  0.17550500  0.92237700  1
  O  O12  1  0.35101000  0.17550500  0.57762300  1
  O  O13  1  0.69137800  0.84568900  0.75000000  1
  O  O14  1  0.84568900  0.69137800  0.25000000  1
  O  O15  1  0.66666700  0.33333300  0.08689900  1
  O  O16  1  0.82449500  0.64899000  0.57762300  1
  O  O17  1  0.66666700  0.33333300  0.41310100  1
  O  O18  1  0.82449500  0.64899000  0.92237700  1
  O  O19  1  0.82449500  0.17550500  0.57762300  1
  O  O20  1  0.82449500  0.17550500  0.92237700  1
  O  O21  1  0.84568900  0.15431100  0.25000000  1
loop_
_geom_bond_atom_site_label_1
_geom_bond_atom_site_label_2
_geom_bond_distance
_geom_bond_site_symmetry_2
Na0 O1 2.748871 1_555
Na0 O2 2.748871 1_555
Na0 O6 2.748874 1_555
Na0 O7 2.748874 1_555
Na0 O9 2.748874 1_555
Na0 O10 2.748874 1_555
Na0 O8 2.914737 1_565
Na0 O14 2.914737 1_455
Na0 O21 2.914740 1_565
Na0 O21 2.914740 1_455
Na0 O14 2.914743 1_555
Na0 O8 2.914743 1_555
Na1 O19 2.748871 1_555
Na1 O20 2.748871 1_555
Na1 O11 2.748874 1_555
Na1 O12 2.748874 1_555
Na1 O16 2.748874 1_555
Na1 O18 2.748874 1_555
Na1 O5 2.914737 1_655
Na1 O13 2.914737 1_545
Na1 O0 2.914740 1_655
Na1 O0 2.914740 1_545
Na1 O13 2.914743 1_555
Na1 O5 2.914743 1_555
Cr0 O7 1.924321 1_555
Cr0 O18 1.924321 1_454
Cr0 O2 1.924321 1_555
Cr0 O20 1.924321 1_454
Cr0 O15 2.025552 1_455
Cr0 O3 2.025552 1_554
Cr1 O0 1.805924 1_555
Cr1 O13 1.805929 1_555
Cr1 O5 1.805929 1_555
Cr1 O3 2.120269 1_555
Cr1 O4 2.120269 1_555
Cr2 O2 1.979985 1_545
Cr2 O9 1.979985 1_445
Cr2 O7 1.979985 1_555
Cr2 O21 2.063359 1_455
Cr2 O8 2.063359 1_555
Cr2 O14 2.063359 1_445
Cr3 O1 1.979985 1_545
Cr3 O10 1.979985 1_445
Cr3 O6 1.979985 1_555
Cr3 O21 2.063359 1_455
Cr3 O8 2.063359 1_555
Cr3 O14 2.063359 1_445
Cr4 O19 1.979985 1_455
Cr4 O16 1.979985 1_445
Cr4 O12 1.979985 1_555
Cr4 O0 2.063359 1_545
Cr4 O5 2.063359 1_555
Cr4 O13 2.063359 1_445
Cr5 O20 1.979985 1_455
Cr5 O18 1.979985 1_445
Cr5 O11 1.979985 1_555
Cr5 O0 2.063359 1_545
Cr5 O5 2.063359 1_555
Cr5 O13 2.063359 1_445
Cr6 O11 1.924321 1_554
Cr6 O9 1.924321 1_545
Cr6 O20 1.924321 1_554
Cr6 O2 1.924321 1_545
Cr6 O15 2.025552 1_555
Cr6 O3 2.025552 1_544
Cr7 O11 1.924321 1_554
Cr7 O9 1.924321 1_555
Cr7 O7 1.924321 1_555
Cr7 O18 1.924321 1_554
Cr7 O15 2.025556 1_555
Cr7 O3 2.025556 1_554
Cr8 O12 1.924321 1_555
Cr8 O10 1.924321 1_555
Cr8 O6 1.924321 1_555
Cr8 O16 1.924321 1_555
Cr8 O4 2.025556 1_555
Cr8 O17 2.025556 1_555
Cr9 O21 1.805924 1_555
Cr9 O14 1.805929 1_555
Cr9 O8 1.805929 1_555
Cr9 O17 2.120269 1_555
Cr9 O15 2.120269 1_555
Cr10 O12 1.924321 1_555
Cr10 O10 1.924321 1_545
Cr10 O1 1.924321 1_545
Cr10 O19 1.924321 1_555
Cr10 O4 2.025552 1_545
Cr10 O17 2.025552 1_555
Cr11 O6 1.924321 1_555
Cr11 O16 1.924321 1_455
Cr11 O1 1.924321 1_555
Cr11 O19 1.924321 1_455
Cr11 O4 2.025552 1_555
Cr11 O17 2.025552 1_455
