# generated using pymatgen
data_Li(NiP)2
_symmetry_space_group_name_H-M   'P 1'
_cell_length_a   3.73450213
_cell_length_b   3.73450163
_cell_length_c   5.26557285
_cell_angle_alpha   110.76984018
_cell_angle_beta   110.76983632
_cell_angle_gamma   90.00000279
_symmetry_Int_Tables_number   1
_chemical_formula_structural   Li(NiP)2
_chemical_formula_sum   'Li1 Ni2 P2'
_cell_volume   63.53396046
_cell_formula_units_Z   1
loop_
 _symmetry_equiv_pos_site_id
 _symmetry_equiv_pos_as_xyz
  1  'x, y, z'
loop_
 _atom_site_type_symbol
 _atom_site_label
 _atom_site_symmetry_multiplicity
 _atom_site_fract_x
 _atom_site_fract_y
 _atom_site_fract_z
 _atom_site_occupancy
  Li  Li0  1  -0.00000000  -0.00000000  0.00000000  1
  Ni  Ni0  1  0.25000000  0.75000000  0.50000000  1
  Ni  Ni1  1  0.75000000  0.25000000  0.50000000  1
  P  P0  1  0.38167448  0.38167448  0.76334896  1
  P  P1  1  0.61832552  0.61832552  0.23665104  1
loop_
_geom_bond_atom_site_label_1
_geom_bond_atom_site_label_2
_geom_bond_distance
_geom_bond_site_symmetry_2
Li0 P1 2.852279 1_445
Li0 P0 2.852279 1_554
Li0 P0 2.852279 1_544
Li0 P1 2.852279 1_455
Li0 P1 2.852280 1_545
Li0 P0 2.852280 1_454
Li0 P0 2.852280 1_444
Li0 P1 2.852280 1_555
Li0 Ni1 2.945314 1_455
Li0 Ni0 2.945314 1_544
Li0 Ni0 2.945315 1_545
Li0 Ni1 2.945315 1_454
Li0 Ni0 2.945315 1_555
Li0 Ni1 2.945315 1_444
Li0 Ni1 2.945315 1_555
Li0 Ni0 2.945315 1_444
Ni0 P0 2.219437 1_555
Ni0 P1 2.219437 1_555
Ni0 P0 2.219438 1_565
Ni0 P1 2.219438 1_455
Ni1 P1 2.219437 1_555
Ni1 P0 2.219437 1_555
Ni1 P1 2.219438 1_545
Ni1 P0 2.219438 1_655
P0 P1 2.156150 1_556
