# generated using pymatgen
data_ScAl2
_symmetry_space_group_name_H-M   'P 1'
_cell_length_a   5.34240827
_cell_length_b   5.34240732
_cell_length_c   5.34240747
_cell_angle_alpha   59.99999916
_cell_angle_beta   60.00000500
_cell_angle_gamma   59.99999388
_symmetry_Int_Tables_number   1
_chemical_formula_structural   ScAl2
_chemical_formula_sum   'Sc2 Al4'
_cell_volume   107.81919267
_cell_formula_units_Z   2
loop_
 _symmetry_equiv_pos_site_id
 _symmetry_equiv_pos_as_xyz
  1  'x, y, z'
loop_
 _atom_site_type_symbol
 _atom_site_label
 _atom_site_symmetry_multiplicity
 _atom_site_fract_x
 _atom_site_fract_y
 _atom_site_fract_z
 _atom_site_occupancy
  Sc  Sc0  1  0.87500000  0.87500000  0.87500000  1
  Sc  Sc1  1  0.12500000  0.12500000  0.12500000  1
  Al  Al0  1  0.50000000  0.50000000  0.50000000  1
  Al  Al1  1  0.50000000  0.50000000  0.00000000  1
  Al  Al2  1  -0.00000000  0.50000000  0.50000000  1
  Al  Al3  1  0.50000000  -0.00000000  0.50000000  1
loop_
_geom_bond_atom_site_label_1
_geom_bond_atom_site_label_2
_geom_bond_distance
_geom_bond_site_symmetry_2
Sc0 Sc1 3.271543 1_656
Sc0 Sc1 3.271543 1_666
Sc0 Sc1 3.271543 1_665
Sc0 Sc1 3.271544 1_566
Al0 Al3 2.671204 1_555
Al0 Al3 2.671204 1_565
Al0 Al1 2.671204 1_555
Al0 Al1 2.671204 1_556
Al0 Al2 2.671204 1_555
Al0 Al2 2.671204 1_655
Al0 Sc1 3.132264 1_565
Al0 Sc0 3.132264 1_545
Al0 Sc0 3.132264 1_455
Al0 Sc1 3.132264 1_655
Al0 Sc0 3.132264 1_554
Al0 Sc1 3.132264 1_556
Al1 Al3 2.671204 1_564
Al1 Al3 2.671204 1_555
Al1 Al2 2.671204 1_654
Al1 Al2 2.671204 1_555
Al1 Sc0 3.132264 1_544
Al1 Sc1 3.132264 1_565
Al1 Sc1 3.132264 1_655
Al1 Sc0 3.132264 1_454
Al1 Sc1 3.132264 1_555
Al1 Sc0 3.132264 1_554
Al2 Al3 2.671204 1_555
Al2 Al3 2.671204 1_465
Al2 Sc1 3.132264 1_555
Al2 Sc0 3.132264 1_455
Al2 Sc0 3.132264 1_454
Al2 Sc1 3.132264 1_556
Al2 Sc1 3.132264 1_565
Al2 Sc0 3.132264 1_445
Al3 Sc1 3.132264 1_555
Al3 Sc0 3.132264 1_545
Al3 Sc0 3.132264 1_544
Al3 Sc1 3.132264 1_556
Al3 Sc1 3.132265 1_655
Al3 Sc0 3.132265 1_445
