# generated using pymatgen
data_Li2VF5
_symmetry_space_group_name_H-M   'P 1'
_cell_length_a   6.16533500
_cell_length_b   6.32420500
_cell_length_c   9.12366200
_cell_angle_alpha   90.00000000
_cell_angle_beta   90.00000000
_cell_angle_gamma   90.00000000
_symmetry_Int_Tables_number   1
_chemical_formula_structural   Li2VF5
_chemical_formula_sum   'Li8 V4 F20'
_cell_volume   355.73926746
_cell_formula_units_Z   4
loop_
 _symmetry_equiv_pos_site_id
 _symmetry_equiv_pos_as_xyz
  1  'x, y, z'
loop_
 _atom_site_type_symbol
 _atom_site_label
 _atom_site_symmetry_multiplicity
 _atom_site_fract_x
 _atom_site_fract_y
 _atom_site_fract_z
 _atom_site_occupancy
  Li  Li0  1  0.04837900  0.47239200  0.66875900  1
  Li  Li1  1  0.04837900  0.02760800  0.66875900  1
  Li  Li2  1  0.54837900  0.52760800  0.83124100  1
  Li  Li3  1  0.54837900  0.97239200  0.83124100  1
  Li  Li4  1  0.45162100  0.47239200  0.16875900  1
  Li  Li5  1  0.45162100  0.02760800  0.16875900  1
  Li  Li6  1  0.95162100  0.52760800  0.33124100  1
  Li  Li7  1  0.95162100  0.97239200  0.33124100  1
  V  V0  1  0.56440400  0.25000000  0.51630200  1
  V  V1  1  0.06440400  0.75000000  0.98369800  1
  V  V2  1  0.93559600  0.25000000  0.01630200  1
  V  V3  1  0.43559600  0.75000000  0.48369800  1
  F  F0  1  0.89189400  0.25000000  0.55082200  1
  F  F1  1  0.32647800  0.03552100  0.56572600  1
  F  F2  1  0.32647800  0.46447900  0.56572600  1
  F  F3  1  0.57845500  0.75000000  0.68127700  1
  F  F4  1  0.58355300  0.25000000  0.73702700  1
  F  F5  1  0.08355300  0.75000000  0.76297300  1
  F  F6  1  0.07845500  0.25000000  0.81872300  1
  F  F7  1  0.82647800  0.96447900  0.93427400  1
  F  F8  1  0.82647800  0.53552100  0.93427400  1
  F  F9  1  0.39189400  0.75000000  0.94917800  1
  F  F10  1  0.60810600  0.25000000  0.05082200  1
  F  F11  1  0.17352200  0.03552100  0.06572600  1
  F  F12  1  0.17352200  0.46447900  0.06572600  1
  F  F13  1  0.92154500  0.75000000  0.18127700  1
  F  F14  1  0.91644700  0.25000000  0.23702700  1
  F  F15  1  0.41644700  0.75000000  0.26297300  1
  F  F16  1  0.42154500  0.25000000  0.31872300  1
  F  F17  1  0.67352200  0.96447900  0.43427400  1
  F  F18  1  0.67352200  0.53552100  0.43427400  1
  F  F19  1  0.10810600  0.75000000  0.44917800  1
loop_
_geom_bond_atom_site_label_1
_geom_bond_atom_site_label_2
_geom_bond_distance
_geom_bond_site_symmetry_2
F0 Li1 2.016613 1_655
F0 Li0 2.016613 1_655
F0 V0 2.043502 1_555
F1 Li1 1.956001 1_555
F1 V0 2.048160 1_555
F1 V3 2.067176 1_545
F2 Li0 1.956001 1_555
F2 V0 2.048160 1_555
F2 V3 2.067176 1_555
F3 Li2 1.970919 1_555
F3 Li3 1.970919 1_555
F3 V3 2.006312 1_555
F4 Li2 1.966776 1_555
F4 Li3 1.966776 1_545
F4 V0 2.017278 1_555
F5 Li0 1.966776 1_555
F5 Li1 1.966776 1_565
F5 V1 2.017278 1_555
F6 Li0 1.970919 1_555
F6 Li1 1.970919 1_555
F6 V2 2.006312 1_456
F7 Li3 1.956001 1_555
F7 V1 2.048160 1_655
F7 V2 2.067176 1_566
F8 Li2 1.956001 1_555
F8 V1 2.048160 1_655
F8 V2 2.067176 1_556
F9 Li2 2.016613 1_555
F9 Li3 2.016613 1_555
F9 V1 2.043502 1_555
F10 Li5 2.016613 1_555
F10 Li4 2.016613 1_555
F10 V2 2.043502 1_555
F11 Li5 1.956001 1_555
F11 V2 2.048160 1_455
F11 V1 2.067176 1_544
F12 Li4 1.956001 1_555
F12 V2 2.048160 1_455
F12 V1 2.067176 1_554
F13 Li7 1.970919 1_555
F13 Li6 1.970919 1_555
F13 V1 2.006312 1_654
F14 Li7 1.966776 1_545
F14 Li6 1.966776 1_555
F14 V2 2.017278 1_555
F15 Li4 1.966776 1_555
F15 Li5 1.966776 1_565
F15 V3 2.017278 1_555
F16 Li4 1.970919 1_555
F16 Li5 1.970919 1_555
F16 V0 2.006312 1_555
F17 Li7 1.956001 1_555
F17 V3 2.048160 1_555
F17 V0 2.067176 1_565
F18 Li6 1.956001 1_555
F18 V3 2.048160 1_555
F18 V0 2.067176 1_555
F19 Li7 2.016613 1_455
F19 Li6 2.016613 1_455
F19 V3 2.043502 1_555
