# generated using pymatgen
data_Li6Mn5Fe(BO3)6
_symmetry_space_group_name_H-M   'P 1'
_cell_length_a   8.85441171
_cell_length_b   8.85441171
_cell_length_c   8.27575428
_cell_angle_alpha   62.23912335
_cell_angle_beta   62.23912335
_cell_angle_gamma   42.15261834
_symmetry_Int_Tables_number   1
_chemical_formula_structural   Li6Mn5Fe(BO3)6
_chemical_formula_sum   'Li6 Mn5 Fe1 B6 O18'
_cell_volume   377.30109240
_cell_formula_units_Z   1
loop_
 _symmetry_equiv_pos_site_id
 _symmetry_equiv_pos_as_xyz
  1  'x, y, z'
loop_
 _atom_site_type_symbol
 _atom_site_label
 _atom_site_symmetry_multiplicity
 _atom_site_fract_x
 _atom_site_fract_y
 _atom_site_fract_z
 _atom_site_occupancy
  Li  Li0  1  0.75837800  0.25915600  0.28372300  1
  Li  Li1  1  0.25915600  0.75837800  0.28372300  1
  Li  Li2  1  0.59883800  0.10009300  0.01675600  1
  Li  Li3  1  0.10009300  0.59883800  0.01675600  1
  Li  Li4  1  0.89118300  0.39231800  0.69837000  1
  Li  Li5  1  0.39231800  0.89118300  0.69837000  1
  Mn  Mn0  1  0.82054800  0.82054800  0.37109000  1
  Mn  Mn1  1  0.32006300  0.32006300  0.37158600  1
  Mn  Mn2  1  0.99395100  0.99395100  0.64119600  1
  Mn  Mn3  1  0.18572100  0.18572100  0.98802200  1
  Mn  Mn4  1  0.68581900  0.68581900  0.98823400  1
  Fe  Fe0  1  0.49585300  0.49585300  0.63999600  1
  B  B0  1  0.41828500  0.91424000  0.33428800  1
  B  B1  1  0.91424000  0.41828500  0.33428800  1
  B  B2  1  0.58288400  0.08516000  0.66647400  1
  B  B3  1  0.08516000  0.58288400  0.66647400  1
  B  B4  1  0.00001800  0.00001800  0.00019300  1
  B  B5  1  0.49905600  0.49905600  0.99952600  1
  O  O0  1  0.53948700  0.53948700  0.11228900  1
  O  O1  1  0.03904500  0.03904500  0.11576800  1
  O  O2  1  0.95890000  0.45936400  0.14095700  1
  O  O3  1  0.45936400  0.95890000  0.14095700  1
  O  O4  1  0.90319300  0.90319300  0.07795400  1
  O  O5  1  0.40237400  0.40237400  0.07930600  1
  O  O6  1  0.32349600  0.81515000  0.44225100  1
  O  O7  1  0.81515000  0.32349600  0.44225100  1
  O  O8  1  0.97008700  0.47037300  0.41984200  1
  O  O9  1  0.47037300  0.97008700  0.41984200  1
  O  O10  1  0.62441100  0.12517400  0.47293900  1
  O  O11  1  0.12517400  0.62441100  0.47293900  1
  O  O12  1  0.55537500  0.55537500  0.80512100  1
  O  O13  1  0.05789400  0.05789400  0.80681400  1
  O  O14  1  0.48745800  0.98647200  0.77787800  1
  O  O15  1  0.98647200  0.48745800  0.77787800  1
  O  O16  1  0.63751600  0.14265100  0.74797500  1
  O  O17  1  0.14265100  0.63751600  0.74797500  1
loop_
_geom_bond_atom_site_label_1
_geom_bond_atom_site_label_2
_geom_bond_distance
_geom_bond_site_symmetry_2
Li0 O10 1.972846 1_555
Li0 O1 2.007637 1_655
Li0 O7 2.008394 1_555
Li0 O0 2.019488 1_555
Li1 O11 1.972846 1_555
Li1 O1 2.007637 1_565
Li1 O6 2.008394 1_555
Li1 O0 2.019488 1_555
Li2 O16 1.976853 1_554
Li2 O5 2.001526 1_555
Li2 O4 2.010229 1_545
Li2 O3 2.013508 1_545
Li3 O17 1.976853 1_554
Li3 O5 2.001526 1_555
Li3 O4 2.010229 1_455
Li3 O2 2.013508 1_455
Li4 O15 1.985416 1_555
Li4 O8 2.002654 1_555
Li4 O13 2.007528 1_655
Li4 O12 2.020386 1_555
Li5 O14 1.985416 1_555
Li5 O9 2.002654 1_555
Li5 O13 2.007528 1_565
Li5 O12 2.020386 1_555
Mn0 O4 2.107745 1_555
Mn0 O8 2.185118 1_555
Mn0 O9 2.185118 1_555
Mn0 O10 2.193302 1_565
Mn0 O11 2.193302 1_655
Mn1 O5 2.101478 1_555
Mn1 O9 2.181909 1_545
Mn1 O8 2.181909 1_455
Mn1 O10 2.192183 1_555
Mn1 O11 2.192183 1_555
Mn2 O13 2.107321 1_665
Mn2 O17 2.190774 1_655
Mn2 O16 2.190774 1_565
Mn2 O7 2.198798 1_565
Mn2 O6 2.198798 1_655
Mn3 O1 2.105674 1_556
Mn3 O2 2.186260 1_456
Mn3 O3 2.186260 1_546
Mn3 O15 2.194538 1_455
Mn3 O14 2.194538 1_545
Mn4 O0 2.102957 1_556
Mn4 O3 2.182181 1_556
Mn4 O2 2.182181 1_556
Mn4 O14 2.191050 1_555
Mn4 O15 2.191050 1_555
Fe0 O12 2.043680 1_555
Fe0 O6 2.149249 1_555
Fe0 O7 2.149249 1_555
Fe0 O17 2.185597 1_555
Fe0 O16 2.185597 1_555
B0 O9 1.388179 1_555
B0 O3 1.389349 1_555
B0 O6 1.391235 1_555
B1 O8 1.388179 1_555
B1 O2 1.389349 1_555
B1 O7 1.391235 1_555
B2 O16 1.391746 1_555
B2 O10 1.393528 1_555
B2 O14 1.395009 1_545
B3 O17 1.391746 1_555
B3 O11 1.393528 1_555
B3 O15 1.395009 1_455
B4 O4 1.395010 1_445
B4 O1 1.395176 1_555
B4 O13 1.395625 1_554
B5 O5 1.391096 1_556
B5 O0 1.392707 1_556
B5 O12 1.399888 1_555
