# generated using pymatgen
data_YbGaPt
_symmetry_space_group_name_H-M   'P 1'
_cell_length_a   4.37015154
_cell_length_b   6.77536117
_cell_length_c   7.56136736
_cell_angle_alpha   90.00000000
_cell_angle_beta   90.00000000
_cell_angle_gamma   90.00000000
_symmetry_Int_Tables_number   1
_chemical_formula_structural   YbGaPt
_chemical_formula_sum   'Yb4 Ga4 Pt4'
_cell_volume   223.88721067
_cell_formula_units_Z   4
loop_
 _symmetry_equiv_pos_site_id
 _symmetry_equiv_pos_as_xyz
  1  'x, y, z'
loop_
 _atom_site_type_symbol
 _atom_site_label
 _atom_site_symmetry_multiplicity
 _atom_site_fract_x
 _atom_site_fract_y
 _atom_site_fract_z
 _atom_site_occupancy
  Yb  Yb0  1  0.25000000  0.98850055  0.29987836  1
  Yb  Yb1  1  0.25000000  0.48850055  0.20012164  1
  Yb  Yb2  1  0.75000000  0.01149945  0.70012164  1
  Yb  Yb3  1  0.75000000  0.51149945  0.79987836  1
  Ga  Ga0  1  0.25000000  0.32413522  0.57743786  1
  Ga  Ga1  1  0.25000000  0.82413522  0.92256214  1
  Ga  Ga2  1  0.75000000  0.67586478  0.42256214  1
  Ga  Ga3  1  0.75000000  0.17586478  0.07743786  1
  Pt  Pt0  1  0.25000000  0.22441913  0.90490281  1
  Pt  Pt1  1  0.25000000  0.72441913  0.59509719  1
  Pt  Pt2  1  0.75000000  0.77558087  0.09509719  1
  Pt  Pt3  1  0.75000000  0.27558087  0.40490281  1
loop_
_geom_bond_atom_site_label_1
_geom_bond_atom_site_label_2
_geom_bond_distance
_geom_bond_site_symmetry_2
Ga0 Pt3 2.566079 1_455
Ga0 Pt3 2.566079 1_555
Ga0 Pt0 2.566601 1_555
Ga0 Pt1 2.715353 1_555
Ga0 Yb3 3.035631 1_555
Ga0 Yb3 3.035631 1_455
Ga0 Yb1 3.062669 1_555
Ga0 Yb0 3.094503 1_545
Ga0 Yb2 3.181503 1_555
Ga0 Yb2 3.181503 1_455
Ga1 Pt2 2.566079 1_456
Ga1 Pt2 2.566079 1_556
Ga1 Pt1 2.566601 1_555
Ga1 Pt0 2.715353 1_565
Ga1 Yb2 3.035631 1_565
Ga1 Yb2 3.035631 1_465
Ga1 Yb0 3.062669 1_556
Ga1 Yb1 3.094503 1_556
Ga1 Yb3 3.181503 1_555
Ga1 Yb3 3.181503 1_455
Ga2 Pt1 2.566079 1_555
Ga2 Pt1 2.566079 1_655
Ga2 Pt2 2.566601 1_555
Ga2 Pt3 2.715353 1_555
Ga2 Yb1 3.035631 1_555
Ga2 Yb1 3.035631 1_655
Ga2 Yb3 3.062669 1_555
Ga2 Yb2 3.094503 1_565
Ga2 Yb0 3.181503 1_555
Ga2 Yb0 3.181503 1_655
Ga3 Pt0 2.566079 1_654
Ga3 Pt0 2.566079 1_554
Ga3 Pt3 2.566601 1_555
Ga3 Pt2 2.715353 1_545
Ga3 Yb0 3.035631 1_545
Ga3 Yb0 3.035631 1_645
Ga3 Yb2 3.062669 1_554
Ga3 Yb3 3.094503 1_554
Ga3 Yb1 3.181503 1_555
Ga3 Yb1 3.181503 1_655
Pt0 Yb1 2.860836 1_556
Pt0 Yb3 3.031255 1_555
Pt0 Yb3 3.031255 1_455
Pt0 Yb2 3.041923 1_555
Pt0 Yb2 3.041923 1_455
Pt0 Yb0 3.387403 1_546
Pt1 Yb0 2.860836 1_555
Pt1 Yb2 3.031255 1_465
Pt1 Yb2 3.031255 1_565
Pt1 Yb3 3.041923 1_455
Pt1 Yb3 3.041923 1_555
Pt1 Yb1 3.387403 1_555
Pt2 Yb3 2.860836 1_554
Pt2 Yb1 3.031255 1_655
Pt2 Yb1 3.031255 1_555
Pt2 Yb0 3.041923 1_655
Pt2 Yb0 3.041923 1_555
Pt2 Yb2 3.387403 1_564
Pt3 Yb2 2.860836 1_555
Pt3 Yb0 3.031255 1_545
Pt3 Yb0 3.031255 1_645
Pt3 Yb1 3.041923 1_655
Pt3 Yb1 3.041923 1_555
Pt3 Yb3 3.387403 1_555
