# generated using pymatgen
data_Na8NiO6
_symmetry_space_group_name_H-M   'P 1'
_cell_length_a   6.32545996
_cell_length_b   6.32545996
_cell_length_c   12.81984500
_cell_angle_alpha   90.00000000
_cell_angle_beta   90.00000000
_cell_angle_gamma   119.99999954
_symmetry_Int_Tables_number   1
_chemical_formula_structural   Na8NiO6
_chemical_formula_sum   'Na16 Ni2 O12'
_cell_volume   444.21951080
_cell_formula_units_Z   2
loop_
 _symmetry_equiv_pos_site_id
 _symmetry_equiv_pos_as_xyz
  1  'x, y, z'
loop_
 _atom_site_type_symbol
 _atom_site_label
 _atom_site_symmetry_multiplicity
 _atom_site_fract_x
 _atom_site_fract_y
 _atom_site_fract_z
 _atom_site_occupancy
  Na  Na0  1  0.00000000  0.70958900  0.77206000  1
  Na  Na1  1  0.00000000  0.61784300  0.11984200  1
  Na  Na2  1  0.00000000  0.38215700  0.61984200  1
  Na  Na3  1  0.00000000  0.29041100  0.27206000  1
  Na  Na4  1  0.33333300  0.66666700  0.41550900  1
  Na  Na5  1  0.33333300  0.66666700  0.91550900  1
  Na  Na6  1  0.29041100  0.29041100  0.77206000  1
  Na  Na7  1  0.38215700  0.38215700  0.11984200  1
  Na  Na8  1  0.61784300  0.61784300  0.61984200  1
  Na  Na9  1  0.29041100  0.00000000  0.27206000  1
  Na  Na10  1  0.70958900  0.70958900  0.27206000  1
  Na  Na11  1  0.38215700  0.00000000  0.61984200  1
  Na  Na12  1  0.66666700  0.33333300  0.91550900  1
  Na  Na13  1  0.66666700  0.33333300  0.41550900  1
  Na  Na14  1  0.61784300  0.00000000  0.11984200  1
  Na  Na15  1  0.70958900  0.00000000  0.77206000  1
  Ni  Ni0  1  0.00000000  0.00000000  0.99537800  1
  Ni  Ni1  1  0.00000000  0.00000000  0.49537800  1
  O  O0  1  0.00000000  0.71966100  0.95090200  1
  O  O1  1  0.00000000  0.28033900  0.45090200  1
  O  O2  1  0.33333300  0.66666700  0.22078100  1
  O  O3  1  0.00000000  0.00000000  0.14869800  1
  O  O4  1  0.00000000  0.00000000  0.64869800  1
  O  O5  1  0.33333300  0.66666700  0.72078100  1
  O  O6  1  0.28033900  0.28033900  0.95090200  1
  O  O7  1  0.28033900  0.00000000  0.45090200  1
  O  O8  1  0.71966100  0.71966100  0.45090200  1
  O  O9  1  0.66666700  0.33333300  0.72078100  1
  O  O10  1  0.66666700  0.33333300  0.22078100  1
  O  O11  1  0.71966100  0.00000000  0.95090200  1
loop_
_geom_bond_atom_site_label_1
_geom_bond_atom_site_label_2
_geom_bond_distance
_geom_bond_site_symmetry_2
Na0 O0 2.293612 1_555
Na0 O5 2.350327 1_555
Na0 O9 2.350331 1_455
Na0 O4 2.423962 1_565
Na1 O0 2.259517 1_554
Na1 O2 2.358900 1_555
Na1 O10 2.358902 1_455
Na1 O3 2.445461 1_565
Na2 O1 2.259517 1_555
Na2 O9 2.358900 1_455
Na2 O5 2.358902 1_555
Na2 O4 2.445461 1_555
Na3 O1 2.293612 1_555
Na3 O10 2.350327 1_455
Na3 O2 2.350331 1_555
Na3 O3 2.423962 1_555
Na4 O7 2.338960 1_565
Na4 O1 2.338964 1_555
Na4 O8 2.338966 1_555
Na4 O2 2.496383 1_555
Na5 O0 2.338960 1_555
Na5 O11 2.338964 1_565
Na5 O6 2.338966 1_555
Na5 O5 2.496383 1_555
Na6 O6 2.293612 1_555
Na6 O5 2.350333 1_555
Na6 O9 2.350333 1_555
Na6 O4 2.423962 1_555
Na7 O6 2.259517 1_554
Na7 O2 2.358905 1_555
Na7 O10 2.358905 1_555
Na7 O3 2.445461 1_555
Na8 O8 2.259517 1_555
Na8 O5 2.358905 1_555
Na8 O9 2.358905 1_555
Na8 O4 2.445461 1_665
Na9 O7 2.293612 1_555
Na9 O2 2.350327 1_545
Na9 O10 2.350331 1_555
Na9 O3 2.423962 1_555
Na10 O8 2.293612 1_555
Na10 O2 2.350333 1_555
Na10 O10 2.350333 1_555
Na10 O3 2.423962 1_665
Na11 O7 2.259517 1_555
Na11 O5 2.358900 1_545
Na11 O9 2.358902 1_555
Na11 O4 2.445461 1_555
Na12 O11 2.338960 1_555
Na12 O0 2.338964 1_655
Na12 O6 2.338966 1_555
Na12 O9 2.496383 1_555
Na13 O1 2.338960 1_655
Na13 O7 2.338964 1_555
Na13 O8 2.338966 1_555
Na13 O10 2.496383 1_555
Na14 O11 2.259517 1_554
Na14 O10 2.358900 1_555
Na14 O2 2.358902 1_545
Na14 O3 2.445461 1_655
Na15 O11 2.293612 1_555
Na15 O9 2.350327 1_555
Na15 O5 2.350331 1_545
Na15 O4 2.423962 1_655
Ni0 O0 1.862686 1_545
Ni0 O11 1.862686 1_455
Ni0 O6 1.862686 1_555
Ni0 O3 1.965539 1_556
Ni1 O7 1.862686 1_555
Ni1 O1 1.862686 1_555
Ni1 O8 1.862686 1_445
Ni1 O4 1.965539 1_555
