# generated using pymatgen
data_Na3CoO3
_symmetry_space_group_name_H-M   'P 1'
_cell_length_a   8.25605150
_cell_length_b   8.25605150
_cell_length_c   16.34831300
_cell_angle_alpha   90.00000000
_cell_angle_beta   90.00000000
_cell_angle_gamma   96.78153075
_symmetry_Int_Tables_number   1
_chemical_formula_structural   Na3CoO3
_chemical_formula_sum   'Na36 Co12 O36'
_cell_volume   1106.54368444
_cell_formula_units_Z   12
loop_
 _symmetry_equiv_pos_site_id
 _symmetry_equiv_pos_as_xyz
  1  'x, y, z'
loop_
 _atom_site_type_symbol
 _atom_site_label
 _atom_site_symmetry_multiplicity
 _atom_site_fract_x
 _atom_site_fract_y
 _atom_site_fract_z
 _atom_site_occupancy
  Na  Na0  1  0.37403900  0.01919200  0.56898600  1
  Na  Na1  1  0.01919200  0.37403900  0.43101400  1
  Na  Na2  1  0.22891600  0.17582200  0.08616700  1
  Na  Na3  1  0.17582200  0.22891600  0.91383300  1
  Na  Na4  1  0.16816900  0.33183100  0.25000000  1
  Na  Na5  1  0.33183100  0.16816900  0.75000000  1
  Na  Na6  1  0.27108400  0.32417800  0.58616700  1
  Na  Na7  1  0.32417800  0.27108400  0.41383300  1
  Na  Na8  1  0.12596100  0.48080800  0.06898600  1
  Na  Na9  1  0.48080800  0.12596100  0.93101400  1
  Na  Na10  1  0.01703100  0.66202400  0.31486700  1
  Na  Na11  1  0.66202400  0.01703100  0.68513300  1
  Na  Na12  1  0.51703100  0.16202400  0.18513300  1
  Na  Na13  1  0.16202400  0.51703100  0.81486700  1
  Na  Na14  1  0.02504200  0.97495800  0.21924000  1
  Na  Na15  1  0.32725300  0.67274700  0.21879900  1
  Na  Na16  1  0.97495800  0.02504200  0.78076000  1
  Na  Na17  1  0.17274700  0.82725300  0.71879900  1
  Na  Na18  1  0.52504200  0.47495800  0.28076000  1
  Na  Na19  1  0.67274700  0.32725300  0.78120100  1
  Na  Na20  1  0.47495800  0.52504200  0.71924000  1
  Na  Na21  1  0.82725300  0.17274700  0.28120100  1
  Na  Na22  1  0.33797600  0.98296900  0.31486700  1
  Na  Na23  1  0.48296900  0.83797600  0.81486700  1
  Na  Na24  1  0.83797600  0.48296900  0.18513300  1
  Na  Na25  1  0.98296900  0.33797600  0.68513300  1
  Na  Na26  1  0.51919200  0.87403900  0.06898600  1
  Na  Na27  1  0.87403900  0.51919200  0.93101400  1
  Na  Na28  1  0.72891600  0.67582200  0.41383300  1
  Na  Na29  1  0.67582200  0.72891600  0.58616700  1
  Na  Na30  1  0.66816900  0.83183100  0.25000000  1
  Na  Na31  1  0.83183100  0.66816900  0.75000000  1
  Na  Na32  1  0.82417800  0.77108400  0.08616700  1
  Na  Na33  1  0.77108400  0.82417800  0.91383300  1
  Na  Na34  1  0.98080800  0.62596100  0.56898600  1
  Na  Na35  1  0.62596100  0.98080800  0.43101400  1
  Co  Co0  1  0.99978400  0.00021600  0.41366900  1
  Co  Co1  1  0.17210400  0.82789600  0.09261800  1
  Co  Co2  1  0.34793100  0.65206900  0.41977200  1
  Co  Co3  1  0.00021600  0.99978400  0.58633100  1
  Co  Co4  1  0.32789600  0.67210400  0.59261800  1
  Co  Co5  1  0.15206900  0.84793100  0.91977200  1
  Co  Co6  1  0.67210400  0.32789600  0.40738200  1
  Co  Co7  1  0.50021600  0.49978400  0.91366900  1
  Co  Co8  1  0.49978400  0.50021600  0.08633100  1
  Co  Co9  1  0.65206900  0.34793100  0.58022800  1
  Co  Co10  1  0.82789600  0.17210400  0.90738200  1
  Co  Co11  1  0.84793100  0.15206900  0.08022800  1
  O  O0  1  0.11610900  0.11610900  0.50000000  1
  O  O1  1  0.11364000  0.12851200  0.33880500  1
  O  O2  1  0.12851200  0.11364000  0.66119500  1
  O  O3  1  0.55491000  0.19751800  0.33219700  1
  O  O4  1  0.69751800  0.05491000  0.83219700  1
  O  O5  1  0.05491000  0.69751800  0.16780300  1
  O  O6  1  0.19751800  0.55491000  0.66780300  1
  O  O7  1  0.24012200  0.51958400  0.34635100  1
  O  O8  1  0.01958400  0.74012200  0.84635100  1
  O  O9  1  0.51958400  0.24012200  0.65364900  1
  O  O10  1  0.74012200  0.01958400  0.15364900  1
  O  O11  1  0.37148800  0.38636000  0.16119500  1
  O  O12  1  0.38636000  0.37148800  0.83880500  1
  O  O13  1  0.38389100  0.38389100  0.00000000  1
  O  O14  1  0.72783700  0.05246800  0.99430200  1
  O  O15  1  0.55246800  0.22783700  0.49430200  1
  O  O16  1  0.05246800  0.72783700  0.00569800  1
  O  O17  1  0.22783700  0.55246800  0.50569800  1
  O  O18  1  0.77216300  0.44753200  0.49430200  1
  O  O19  1  0.44753200  0.77216300  0.50569800  1
  O  O20  1  0.27216300  0.94753200  0.00569800  1
  O  O21  1  0.94753200  0.27216300  0.99430200  1
  O  O22  1  0.61610900  0.61610900  0.00000000  1
  O  O23  1  0.62851200  0.61364000  0.83880500  1
  O  O24  1  0.61364000  0.62851200  0.16119500  1
  O  O25  1  0.25987800  0.98041600  0.84635100  1
  O  O26  1  0.48041600  0.75987800  0.34635100  1
  O  O27  1  0.98041600  0.25987800  0.15364900  1
  O  O28  1  0.75987800  0.48041600  0.65364900  1
  O  O29  1  0.80248200  0.44509000  0.33219700  1
  O  O30  1  0.30248200  0.94509000  0.16780300  1
  O  O31  1  0.44509000  0.80248200  0.66780300  1
  O  O32  1  0.94509000  0.30248200  0.83219700  1
  O  O33  1  0.87148800  0.88636000  0.33880500  1
  O  O34  1  0.88636000  0.87148800  0.66119500  1
  O  O35  1  0.88389100  0.88389100  0.50000000  1
loop_
_geom_bond_atom_site_label_1
_geom_bond_atom_site_label_2
_geom_bond_distance
_geom_bond_site_symmetry_2
Na0 O19 2.427017 1_545
Na0 O15 2.455365 1_555
Na0 O9 2.483750 1_555
Na0 O31 2.530396 1_545
Na0 O0 2.617116 1_555
Na0 O2 2.713456 1_555
Na1 O18 2.427017 1_455
Na1 O17 2.455365 1_555
Na1 O7 2.483750 1_555
Na1 O29 2.530396 1_455
Na1 O0 2.617116 1_555
Na1 O1 2.713456 1_555
Na2 O11 2.329850 1_555
Na2 O20 2.359961 1_545
Na2 O30 2.460102 1_545
Na2 O13 2.460350 1_555
Na2 O27 2.498822 1_455
Na3 O12 2.329850 1_555
Na3 O21 2.359961 1_455
Na3 O32 2.460102 1_455
Na3 O13 2.460350 1_556
Na3 O25 2.498822 1_545
Na4 O1 2.224792 1_555
Na4 O11 2.224792 1_555
Na4 O7 2.240403 1_555
Na4 O27 2.240403 1_455
Na5 O12 2.224792 1_555
Na5 O2 2.224792 1_555
Na5 O25 2.240403 1_545
Na5 O9 2.240403 1_555
Na6 O2 2.329850 1_555
Na6 O17 2.359961 1_555
Na6 O6 2.460102 1_555
Na6 O0 2.460350 1_555
Na6 O9 2.498822 1_555
Na7 O1 2.329850 1_555
Na7 O15 2.359961 1_555
Na7 O3 2.460102 1_555
Na7 O0 2.460350 1_555
Na7 O7 2.498822 1_555
Na8 O16 2.427017 1_555
Na8 O21 2.455365 1_454
Na8 O27 2.483750 1_455
Na8 O5 2.530396 1_555
Na8 O13 2.617116 1_555
Na8 O11 2.713456 1_555
Na9 O14 2.427017 1_555
Na9 O20 2.455365 1_546
Na9 O25 2.483750 1_545
Na9 O4 2.530396 1_555
Na9 O13 2.617116 1_556
Na9 O12 2.713456 1_555
Na10 O7 2.356234 1_555
Na10 O33 2.356481 1_455
Na10 O29 2.382515 1_455
Na10 O5 2.437712 1_555
Na11 O9 2.356234 1_555
Na11 O34 2.356481 1_545
Na11 O31 2.382515 1_545
Na11 O4 2.437712 1_555
Na12 O10 2.356234 1_555
Na12 O11 2.356481 1_555
Na12 O30 2.382515 1_545
Na12 O3 2.437712 1_555
Na13 O8 2.356234 1_555
Na13 O12 2.356481 1_555
Na13 O32 2.382515 1_455
Na13 O6 2.437712 1_555
Na14 O1 2.396671 1_565
Na14 O33 2.396671 1_455
Na14 O30 2.479514 1_555
Na14 O5 2.479514 1_555
Na14 O10 2.650215 1_465
Na14 O27 2.650215 1_465
Na15 O5 2.429224 1_555
Na15 O30 2.429224 1_555
Na15 O26 2.499994 1_555
Na15 O7 2.499994 1_555
Na15 O11 2.610492 1_555
Na15 O24 2.610492 1_555
Na16 O2 2.396671 1_655
Na16 O34 2.396671 1_545
Na16 O32 2.479514 1_555
Na16 O4 2.479514 1_555
Na16 O8 2.650215 1_645
Na16 O25 2.650215 1_645
Na17 O6 2.429224 1_555
Na17 O31 2.429224 1_555
Na17 O8 2.499994 1_555
Na17 O25 2.499994 1_555
Na17 O34 2.610492 1_455
Na17 O2 2.610492 1_565
Na18 O11 2.396671 1_555
Na18 O24 2.396671 1_555
Na18 O29 2.479514 1_555
Na18 O3 2.479514 1_555
Na18 O26 2.650215 1_555
Na18 O7 2.650215 1_555
Na19 O4 2.429224 1_555
Na19 O32 2.429224 1_555
Na19 O28 2.499994 1_555
Na19 O9 2.499994 1_555
Na19 O12 2.610492 1_555
Na19 O23 2.610492 1_555
Na20 O12 2.396671 1_555
Na20 O23 2.396671 1_555
Na20 O31 2.479514 1_555
Na20 O6 2.479514 1_555
Na20 O28 2.650215 1_555
Na20 O9 2.650215 1_555
Na21 O3 2.429224 1_555
Na21 O29 2.429224 1_555
Na21 O10 2.499994 1_555
Na21 O27 2.499994 1_555
Na21 O33 2.610492 1_545
Na21 O1 2.610492 1_655
Na22 O26 2.356234 1_555
Na22 O1 2.356481 1_565
Na22 O3 2.382515 1_565
Na22 O30 2.437712 1_555
Na23 O25 2.356234 1_555
Na23 O23 2.356481 1_555
Na23 O4 2.382515 1_565
Na23 O31 2.437712 1_555
Na24 O27 2.356234 1_555
Na24 O24 2.356481 1_555
Na24 O5 2.382515 1_655
Na24 O29 2.437712 1_555
Na25 O28 2.356234 1_555
Na25 O2 2.356481 1_655
Na25 O6 2.382515 1_655
Na25 O32 2.437712 1_555
Na26 O20 2.427017 1_555
Na26 O14 2.455365 1_564
Na26 O10 2.483750 1_565
Na26 O30 2.530396 1_555
Na26 O22 2.617116 1_555
Na26 O24 2.713456 1_555
Na27 O21 2.427017 1_555
Na27 O16 2.455365 1_656
Na27 O8 2.483750 1_655
Na27 O32 2.530396 1_555
Na27 O22 2.617116 1_556
Na27 O23 2.713456 1_555
Na28 O33 2.329850 1_555
Na28 O18 2.359961 1_555
Na28 O29 2.460102 1_555
Na28 O35 2.460350 1_555
Na28 O26 2.498822 1_555
Na29 O34 2.329850 1_555
Na29 O19 2.359961 1_555
Na29 O31 2.460102 1_555
Na29 O35 2.460350 1_555
Na29 O28 2.498822 1_555
Na30 O33 2.224792 1_555
Na30 O24 2.224792 1_555
Na30 O26 2.240403 1_555
Na30 O10 2.240403 1_565
Na31 O23 2.224792 1_555
Na31 O34 2.224792 1_555
Na31 O8 2.240403 1_655
Na31 O28 2.240403 1_555
Na32 O24 2.329850 1_555
Na32 O16 2.359961 1_655
Na32 O5 2.460102 1_655
Na32 O22 2.460350 1_555
Na32 O10 2.498822 1_565
Na33 O23 2.329850 1_555
Na33 O14 2.359961 1_565
Na33 O4 2.460102 1_565
Na33 O22 2.460350 1_556
Na33 O8 2.498822 1_655
Na34 O17 2.427017 1_655
Na34 O18 2.455365 1_555
Na34 O28 2.483750 1_555
Na34 O6 2.530396 1_655
Na34 O35 2.617116 1_555
Na34 O34 2.713456 1_555
Na35 O15 2.427017 1_565
Na35 O19 2.455365 1_555
Na35 O26 2.483750 1_555
Na35 O3 2.530396 1_565
Na35 O35 2.617116 1_555
Na35 O33 2.713456 1_555
Co0 O1 1.807853 1_655
Co0 O33 1.807853 1_545
Co0 O0 1.900731 1_655
Co0 O35 1.900731 1_545
Co1 O5 1.832938 1_555
Co1 O30 1.832938 1_555
Co1 O16 1.866694 1_555
Co1 O20 1.866694 1_555
Co2 O26 1.788703 1_555
Co2 O7 1.788703 1_555
Co2 O19 1.854731 1_555
Co2 O17 1.854731 1_555
Co3 O2 1.807853 1_565
Co3 O34 1.807853 1_455
Co3 O0 1.900731 1_565
Co3 O35 1.900731 1_455
Co4 O6 1.832938 1_555
Co4 O31 1.832938 1_555
Co4 O17 1.866694 1_555
Co4 O19 1.866694 1_555
Co5 O8 1.788703 1_555
Co5 O25 1.788703 1_555
Co5 O16 1.854731 1_556
Co5 O20 1.854731 1_556
Co6 O3 1.832938 1_555
Co6 O29 1.832938 1_555
Co6 O15 1.866694 1_555
Co6 O18 1.866694 1_555
Co7 O12 1.807853 1_555
Co7 O23 1.807853 1_555
Co7 O13 1.900731 1_556
Co7 O22 1.900731 1_556
Co8 O11 1.807853 1_555
Co8 O24 1.807853 1_555
Co8 O13 1.900731 1_555
Co8 O22 1.900731 1_555
Co9 O28 1.788703 1_555
Co9 O9 1.788703 1_555
Co9 O18 1.854731 1_555
Co9 O15 1.854731 1_555
Co10 O4 1.832938 1_555
Co10 O32 1.832938 1_555
Co10 O14 1.866694 1_555
Co10 O21 1.866694 1_555
Co11 O10 1.788703 1_555
Co11 O27 1.788703 1_555
Co11 O14 1.854731 1_554
Co11 O21 1.854731 1_554
