# generated using pymatgen
data_LiH2N3O
_symmetry_space_group_name_H-M   'P 1'
_cell_length_a   9.31468626
_cell_length_b   9.31468626
_cell_length_c   5.62595200
_cell_angle_alpha   90.00000000
_cell_angle_beta   90.00000000
_cell_angle_gamma   120.00000182
_symmetry_Int_Tables_number   1
_chemical_formula_structural   LiH2N3O
_chemical_formula_sum   'Li6 H12 N18 O6'
_cell_volume   422.73003809
_cell_formula_units_Z   6
loop_
 _symmetry_equiv_pos_site_id
 _symmetry_equiv_pos_as_xyz
  1  'x, y, z'
loop_
 _atom_site_type_symbol
 _atom_site_label
 _atom_site_symmetry_multiplicity
 _atom_site_fract_x
 _atom_site_fract_y
 _atom_site_fract_z
 _atom_site_occupancy
  Li  Li0  1  0.33333300  0.66666700  0.00000000  1
  Li  Li1  1  0.00000000  0.00000000  0.00000000  1
  Li  Li2  1  0.00000000  0.00000000  0.50000000  1
  Li  Li3  1  0.33333300  0.66666700  0.50000000  1
  Li  Li4  1  0.66666700  0.33333300  0.00000000  1
  Li  Li5  1  0.66666700  0.33333300  0.50000000  1
  H  H0  1  0.09839700  0.81040300  0.75000000  1
  H  H1  1  0.18959700  0.90160300  0.25000000  1
  H  H2  1  0.09839700  0.28799400  0.25000000  1
  H  H3  1  0.18959700  0.28799400  0.75000000  1
  H  H4  1  0.28799400  0.18959700  0.75000000  1
  H  H5  1  0.28799400  0.09839700  0.25000000  1
  H  H6  1  0.71200600  0.90160300  0.75000000  1
  H  H7  1  0.71200600  0.81040300  0.25000000  1
  H  H8  1  0.81040300  0.71200600  0.25000000  1
  H  H9  1  0.90160300  0.71200600  0.75000000  1
  H  H10  1  0.81040300  0.09839700  0.75000000  1
  H  H11  1  0.90160300  0.18959700  0.25000000  1
  N  N0  1  0.00000000  0.59274600  0.25000000  1
  N  N1  1  0.00000000  0.40725400  0.75000000  1
  N  N2  1  0.14681200  0.66874400  0.25000000  1
  N  N3  1  0.33125600  0.85318800  0.75000000  1
  N  N4  1  0.14681200  0.47806800  0.75000000  1
  N  N5  1  0.33125600  0.47806800  0.25000000  1
  N  N6  1  0.52193200  0.85318800  0.25000000  1
  N  N7  1  0.52193200  0.66874400  0.75000000  1
  N  N8  1  0.40725400  0.40725400  0.25000000  1
  N  N9  1  0.59274600  0.59274600  0.75000000  1
  N  N10  1  0.47806800  0.33125600  0.25000000  1
  N  N11  1  0.47806800  0.14681200  0.75000000  1
  N  N12  1  0.66874400  0.52193200  0.75000000  1
  N  N13  1  0.40725400  0.00000000  0.75000000  1
  N  N14  1  0.59274600  0.00000000  0.25000000  1
  N  N15  1  0.85318800  0.52193200  0.25000000  1
  N  N16  1  0.66874400  0.14681200  0.25000000  1
  N  N17  1  0.85318800  0.33125600  0.75000000  1
  O  O0  1  0.00000000  0.82404200  0.75000000  1
  O  O1  1  0.00000000  0.17595800  0.25000000  1
  O  O2  1  0.17595800  0.17595800  0.75000000  1
  O  O3  1  0.17595800  0.00000000  0.25000000  1
  O  O4  1  0.82404200  0.82404200  0.25000000  1
  O  O5  1  0.82404200  0.00000000  0.75000000  1
loop_
_geom_bond_atom_site_label_1
_geom_bond_atom_site_label_2
_geom_bond_distance
_geom_bond_site_symmetry_2
Li0 N3 2.242922 1_554
Li0 N2 2.242922 1_555
Li0 N6 2.242926 1_555
Li0 N4 2.242926 1_554
Li0 N7 2.242930 1_554
Li0 N5 2.242930 1_555
Li1 O2 2.159747 1_554
Li1 O4 2.159747 1_445
Li1 O3 2.159747 1_555
Li1 O1 2.159747 1_555
Li1 O5 2.159747 1_454
Li1 O0 2.159747 1_544
Li2 O2 2.159747 1_555
Li2 O4 2.159747 1_445
Li2 O3 2.159747 1_555
Li2 O1 2.159747 1_555
Li2 O0 2.159747 1_545
Li2 O5 2.159747 1_455
Li3 N3 2.242922 1_555
Li3 N2 2.242922 1_555
Li3 N6 2.242926 1_555
Li3 N4 2.242926 1_555
Li3 N7 2.242930 1_555
Li3 N5 2.242930 1_555
Li4 N17 2.242922 1_554
Li4 N16 2.242922 1_555
Li4 N15 2.242926 1_555
Li4 N11 2.242926 1_554
Li4 N12 2.242930 1_554
Li4 N10 2.242930 1_555
Li5 N17 2.242922 1_555
Li5 N16 2.242922 1_555
Li5 N15 2.242926 1_555
Li5 N11 2.242926 1_555
Li5 N12 2.242930 1_555
Li5 N10 2.242930 1_555
H0 O0 0.986215 1_555
H1 O3 0.986215 1_565
H2 O1 0.986215 1_555
H3 O2 0.986215 1_555
H4 O2 0.986215 1_555
H5 O3 0.986215 1_555
H6 O5 0.986215 1_565
H7 O4 0.986215 1_555
H8 O4 0.986215 1_555
H9 O0 0.986215 1_655
H10 O5 0.986215 1_555
H11 O1 0.986215 1_655
N0 N2 1.184542 1_555
N0 N15 1.184542 1_455
N1 N17 1.184542 1_455
N1 N4 1.184542 1_555
N5 N8 1.184543 1_555
N7 N9 1.184543 1_555
N10 N8 1.184543 1_555
N11 N13 1.184542 1_555
N12 N9 1.184543 1_555
N13 N3 1.184542 1_545
N14 N16 1.184542 1_555
N14 N6 1.184542 1_545
