# generated using pymatgen
data_CaSnS3
_symmetry_space_group_name_H-M   'P 1'
_cell_length_a   16.05072377
_cell_length_b   16.05072377
_cell_length_c   16.18866693
_cell_angle_alpha   65.63586428
_cell_angle_beta   65.63586428
_cell_angle_gamma   25.54315541
_symmetry_Int_Tables_number   1
_chemical_formula_structural   CaSnS3
_chemical_formula_sum   'Ca12 Sn12 S36'
_cell_volume   1629.52207449
_cell_formula_units_Z   12
loop_
 _symmetry_equiv_pos_site_id
 _symmetry_equiv_pos_as_xyz
  1  'x, y, z'
loop_
 _atom_site_type_symbol
 _atom_site_label
 _atom_site_symmetry_multiplicity
 _atom_site_fract_x
 _atom_site_fract_y
 _atom_site_fract_z
 _atom_site_occupancy
  Ca  Ca0  1  0.54367400  0.70276200  0.18807900  1
  Ca  Ca1  1  0.29723800  0.45632600  0.81192100  1
  Ca  Ca2  1  0.67741500  0.82091900  0.58730500  1
  Ca  Ca3  1  0.17908100  0.32258500  0.41269500  1
  Ca  Ca4  1  0.22715700  0.28469100  0.75578900  1
  Ca  Ca5  1  0.71530900  0.77284300  0.24421100  1
  Ca  Ca6  1  0.74858000  0.00395900  0.64218700  1
  Ca  Ca7  1  0.99604100  0.25142000  0.35781300  1
  Ca  Ca8  1  0.50792100  0.73179800  0.92356500  1
  Ca  Ca9  1  0.26820200  0.49207900  0.07643500  1
  Ca  Ca10  1  0.82631300  0.17368700  0.00000000  1
  Ca  Ca11  1  0.26879400  0.73120600  0.50000000  1
  Sn  Sn0  1  0.42189700  0.55163500  0.22336000  1
  Sn  Sn1  1  0.44836500  0.57810300  0.77664000  1
  Sn  Sn2  1  0.94837200  0.04946200  0.67842400  1
  Sn  Sn3  1  0.95053800  0.05162800  0.32157600  1
  Sn  Sn4  1  0.01373400  0.21366700  0.06588600  1
  Sn  Sn5  1  0.78633300  0.98626600  0.93411400  1
  Sn  Sn6  1  0.24047000  0.48097400  0.50940600  1
  Sn  Sn7  1  0.51902600  0.75953000  0.49059400  1
  Sn  Sn8  1  0.00074400  0.21115700  0.78152500  1
  Sn  Sn9  1  0.78884300  0.99925600  0.21847500  1
  Sn  Sn10  1  0.69943900  0.84367100  0.94139000  1
  Sn  Sn11  1  0.15632900  0.30056100  0.05861000  1
  S  S0  1  0.62818100  0.51443300  0.09413700  1
  S  S1  1  0.48556700  0.37181900  0.90586300  1
  S  S2  1  0.03871100  0.93758900  0.18334800  1
  S  S3  1  0.06241100  0.96128900  0.81665200  1
  S  S4  1  0.52275700  0.35776900  0.13688800  1
  S  S5  1  0.64223100  0.47724300  0.86311200  1
  S  S6  1  0.08011700  0.78889500  0.68386800  1
  S  S7  1  0.21110500  0.91988300  0.31613200  1
  S  S8  1  0.12942500  0.00116900  0.54727200  1
  S  S9  1  0.99883100  0.87057500  0.45272800  1
  S  S10  1  0.58424500  0.32870100  0.67209200  1
  S  S11  1  0.67129900  0.41575500  0.32790800  1
  S  S12  1  0.44958800  0.93451000  0.01716600  1
  S  S13  1  0.06549000  0.55041200  0.98283400  1
  S  S14  1  0.10633000  0.06189700  0.94677300  1
  S  S15  1  0.93810300  0.89367000  0.05322700  1
  S  S16  1  0.97101800  0.42284300  0.95412800  1
  S  S17  1  0.57715700  0.02898200  0.04587200  1
  S  S18  1  0.96962600  0.65711700  0.65519700  1
  S  S19  1  0.34288300  0.03037400  0.34480300  1
  S  S20  1  0.52391100  0.35330200  0.56243700  1
  S  S21  1  0.64669800  0.47608900  0.43756300  1
  S  S22  1  0.47477000  0.14887400  0.59132700  1
  S  S23  1  0.85112600  0.52523000  0.40867300  1
  S  S24  1  0.88424800  0.49841400  0.73370200  1
  S  S25  1  0.50158600  0.11575200  0.26629800  1
  S  S26  1  0.38976600  0.99847300  0.53561800  1
  S  S27  1  0.00152700  0.61023400  0.46438200  1
  S  S28  1  0.41165700  0.95770000  0.75837600  1
  S  S29  1  0.04230000  0.58834300  0.24162400  1
  S  S30  1  0.67834500  0.74250600  0.79696800  1
  S  S31  1  0.25749400  0.32165500  0.20303200  1
  S  S32  1  0.00014900  0.61972200  0.78779100  1
  S  S33  1  0.38027800  0.99985100  0.21220900  1
  S  S34  1  0.51561200  0.11185300  0.81400000  1
  S  S35  1  0.88814700  0.48438800  0.18600000  1
loop_
_geom_bond_atom_site_label_1
_geom_bond_atom_site_label_2
_geom_bond_distance
_geom_bond_site_symmetry_2
Ca0 S35 2.798165 1_555
Ca0 S33 2.809556 1_555
Ca0 S0 2.825282 1_555
Ca0 S7 2.863232 1_555
Ca0 S12 2.931152 1_555
Ca0 S11 2.955549 1_555
Ca1 S34 2.798165 1_555
Ca1 S32 2.809556 1_555
Ca1 S1 2.825282 1_555
Ca1 S6 2.863232 1_555
Ca1 S13 2.931152 1_555
Ca1 S10 2.955549 1_555
Ca2 S22 2.739443 1_565
Ca2 S26 2.759496 1_555
Ca2 S27 2.779247 1_655
Ca2 S24 2.965241 1_555
Ca2 S28 3.009258 1_555
Ca2 S30 3.096441 1_555
Ca2 S18 3.120164 1_555
Ca3 S23 2.739443 1_455
Ca3 S27 2.759496 1_555
Ca3 S26 2.779247 1_545
Ca3 S25 2.965241 1_555
Ca3 S29 3.009258 1_555
Ca3 S31 3.096441 1_555
Ca3 S19 3.120164 1_555
Ca4 S32 2.801050 1_555
Ca4 S22 2.839060 1_555
Ca4 S28 2.862116 1_545
Ca4 S34 2.878439 1_555
Ca4 S18 2.899152 1_455
Ca4 S24 2.954634 1_455
Ca4 S16 3.265124 1_455
Ca5 S33 2.801050 1_555
Ca5 S23 2.839060 1_555
Ca5 S29 2.862116 1_655
Ca5 S35 2.878439 1_555
Ca5 S19 2.899152 1_565
Ca5 S25 2.954634 1_565
Ca5 S17 3.265124 1_565
Ca6 S20 2.737198 1_555
Ca6 S18 2.762490 1_545
Ca6 S22 2.891672 1_555
Ca6 S34 2.902642 1_555
Ca6 S6 2.929470 1_645
Ca6 S9 3.140038 1_545
Ca6 S10 3.252559 1_555
Ca6 S32 3.288943 1_645
Ca7 S21 2.737198 1_555
Ca7 S19 2.762490 1_655
Ca7 S23 2.891672 1_555
Ca7 S35 2.902642 1_555
Ca7 S7 2.929470 1_645
Ca7 S8 3.140038 1_655
Ca7 S11 3.252559 1_555
Ca7 S33 3.288943 1_645
Ca8 S30 2.764896 1_555
Ca8 S14 2.788943 1_565
Ca8 S0 2.796371 1_556
Ca8 S5 2.821866 1_555
Ca8 S28 2.825788 1_555
Ca8 S12 3.340517 1_556
Ca9 S31 2.764896 1_555
Ca9 S15 2.788943 1_455
Ca9 S1 2.796371 1_554
Ca9 S4 2.821866 1_555
Ca9 S29 2.825788 1_555
Ca9 S13 3.340517 1_554
Ca10 S15 2.773112 1_545
Ca10 S14 2.773112 1_654
Ca10 S4 2.809996 1_555
Ca10 S5 2.809996 1_554
Ca10 S2 3.247846 1_645
Ca10 S3 3.247846 1_644
Ca11 S20 2.849111 1_555
Ca11 S21 2.849111 1_555
Ca11 S8 2.863157 1_565
Ca11 S9 2.863157 1_455
Ca11 S6 2.943654 1_555
Ca11 S7 2.943654 1_555
S0 Sn4 2.717998 1_655
S0 Sn0 2.728321 1_555
S1 Sn5 2.717998 1_545
S1 Sn1 2.728321 1_555
S2 Sn3 2.540213 1_465
S2 Sn0 2.801016 1_555
S2 Sn9 2.967671 1_455
S3 Sn2 2.540213 1_465
S3 Sn1 2.801016 1_555
S3 Sn8 2.967671 1_565
S4 Sn0 2.626216 1_555
S4 Sn9 2.670728 1_545
S5 Sn1 2.626216 1_555
S5 Sn8 2.670728 1_655
S6 Sn2 2.421060 1_465
S7 Sn3 2.421060 1_465
S8 Sn2 2.399185 1_455
S8 Sn7 3.070048 1_545
S9 Sn3 2.399185 1_565
S9 Sn6 3.070048 1_655
S10 S20 2.096413 1_555
S10 Sn2 2.665097 1_555
S11 S21 2.096413 1_555
S11 Sn3 2.665097 1_555
S12 Sn10 2.564885 1_554
S12 Sn11 2.805001 1_565
S13 Sn11 2.564885 1_556
S13 Sn10 2.805001 1_455
S14 Sn4 2.615179 1_556
S14 Sn8 2.625688 1_555
S15 Sn5 2.615179 1_554
S15 Sn9 2.625688 1_555
S16 Sn11 2.537196 1_656
S16 Sn4 2.621735 1_656
S17 Sn10 2.537196 1_544
S17 Sn5 2.621735 1_544
S18 S32 2.117038 1_655
S18 Sn6 2.706187 1_655
S19 S33 2.117038 1_545
S19 Sn7 2.706187 1_545
S22 Sn6 2.534539 1_555
S23 Sn7 2.534539 1_555
S24 S30 2.115120 1_555
S24 Sn8 2.836564 1_655
S25 S31 2.115120 1_555
S25 Sn9 2.836564 1_545
S26 Sn7 2.498945 1_555
S27 Sn6 2.498945 1_555
S28 S30 2.095148 1_555
S29 S31 2.095148 1_555
S32 Sn10 2.926558 1_455
S33 Sn11 2.926558 1_565
S34 Sn10 2.503020 1_545
S35 Sn11 2.503020 1_655
