# generated using pymatgen
data_Li5Co3(NiO5)2
_symmetry_space_group_name_H-M   'P 1'
_cell_length_a   4.89464000
_cell_length_b   5.01438252
_cell_length_c   7.55013666
_cell_angle_alpha   106.51936190
_cell_angle_beta   102.65287212
_cell_angle_gamma   101.60642008
_symmetry_Int_Tables_number   1
_chemical_formula_structural   Li5Co3(NiO5)2
_chemical_formula_sum   'Li5 Co3 Ni2 O10'
_cell_volume   166.32662574
_cell_formula_units_Z   1
loop_
 _symmetry_equiv_pos_site_id
 _symmetry_equiv_pos_as_xyz
  1  'x, y, z'
loop_
 _atom_site_type_symbol
 _atom_site_label
 _atom_site_symmetry_multiplicity
 _atom_site_fract_x
 _atom_site_fract_y
 _atom_site_fract_z
 _atom_site_occupancy
  Li  Li0  1  0.38012200  0.09305500  0.41453300  1
  Li  Li1  1  0.83596900  0.73101200  0.77657200  1
  Li  Li2  1  0.50000000  0.50000000  0.50000000  1
  Li  Li3  1  0.16403100  0.26898800  0.22342800  1
  Li  Li4  1  0.61987800  0.90694500  0.58546700  1
  Co  Co0  1  0.00000000  0.50000000  0.00000000  1
  Co  Co1  1  0.90007500  0.09745200  0.90004800  1
  Co  Co2  1  0.09992500  0.90254800  0.09995200  1
  Ni  Ni0  1  0.71408500  0.30888900  0.69326700  1
  Ni  Ni1  1  0.28591500  0.69111100  0.30673300  1
  O  O0  1  0.29639100  0.37808700  0.87166200  1
  O  O1  1  0.43300300  0.82913700  0.94968200  1
  O  O2  1  0.04771700  0.22101400  0.54226400  1
  O  O3  1  0.77109900  0.00093900  0.22926700  1
  O  O4  1  0.11115100  0.56234700  0.66768900  1
  O  O5  1  0.88884900  0.43765300  0.33231100  1
  O  O6  1  0.22890100  0.99906100  0.77073300  1
  O  O7  1  0.95228300  0.77898600  0.45773600  1
  O  O8  1  0.56699700  0.17086300  0.05031800  1
  O  O9  1  0.70360900  0.62191300  0.12833800  1
loop_
_geom_bond_atom_site_label_1
_geom_bond_atom_site_label_2
_geom_bond_distance
_geom_bond_site_symmetry_2
Li0 Ni1 1.861737 1_545
Li0 Li2 1.878345 1_555
Li0 O2 2.178171 1_555
Li0 Ni0 2.181293 1_555
Li0 O7 2.497256 1_445
Li1 O4 1.937359 1_655
Li1 Ni0 1.949944 1_555
Li1 O6 2.130296 1_655
Li1 Li2 2.181758 1_555
Li2 Li4 1.878345 1_555
Li2 Ni0 2.162182 1_555
Li2 Ni1 2.162182 1_555
Li2 Li3 2.181758 1_555
Li2 O2 2.505356 1_555
Li2 O7 2.505356 1_555
Li2 O4 2.528464 1_555
Li2 O5 2.528464 1_555
Li3 O5 1.937359 1_455
Li3 Ni1 1.949944 1_555
Li3 O3 2.130296 1_455
Li4 Ni0 1.861737 1_565
Li4 O7 2.178171 1_555
Li4 Ni1 2.181293 1_555
Li4 O2 2.497256 1_665
Co0 O0 2.013216 1_554
Co0 O9 2.013216 1_455
Co1 Li1 1.734812 1_545
Co1 O6 2.126289 1_645
Co1 O8 2.212439 1_556
Co1 O0 2.245963 1_655
Co2 Li3 1.734812 1_565
Co2 O3 2.126289 1_465
Co2 O1 2.212439 1_554
Co2 O9 2.245963 1_455
Ni0 O4 2.177121 1_655
Ni0 O2 2.231628 1_655
Ni1 O5 2.177121 1_455
Ni1 O7 2.231628 1_455
O0 O6 1.765078 1_545
O1 O8 1.591470 1_566
O2 O4 1.630426 1_555
O3 O9 1.765078 1_545
O5 O7 1.630426 1_555
