# generated using pymatgen
data_Na2Ti4O9
_symmetry_space_group_name_H-M   'P 1'
_cell_length_a   8.87064800
_cell_length_b   10.72619734
_cell_length_c   12.47295926
_cell_angle_alpha   101.90459841
_cell_angle_beta   110.78138906
_cell_angle_gamma   90.01451331
_symmetry_Int_Tables_number   1
_chemical_formula_structural   Na2Ti4O9
_chemical_formula_sum   'Na12 Ti24 O54'
_cell_volume   1082.20183996
_cell_formula_units_Z   6
loop_
 _symmetry_equiv_pos_site_id
 _symmetry_equiv_pos_as_xyz
  1  'x, y, z'
loop_
 _atom_site_type_symbol
 _atom_site_label
 _atom_site_symmetry_multiplicity
 _atom_site_fract_x
 _atom_site_fract_y
 _atom_site_fract_z
 _atom_site_occupancy
  Na  Na0  1  0.96331500  0.10044100  0.28667400  1
  Na  Na1  1  0.86425900  0.39727000  0.72615200  1
  Na  Na2  1  0.19475400  0.39703600  0.72462100  1
  Na  Na3  1  0.52921000  0.40676600  0.72479900  1
  Na  Na4  1  0.38371600  0.29737200  0.14478500  1
  Na  Na5  1  0.75603700  0.30547700  0.14124200  1
  Na  Na6  1  0.91139300  0.69569700  0.85793900  1
  Na  Na7  1  0.28860600  0.70712000  0.85300600  1
  Na  Na8  1  0.13788800  0.59462400  0.27640500  1
  Na  Na9  1  0.47151800  0.60378200  0.27409000  1
  Na  Na10  1  0.80198700  0.60424800  0.27313900  1
  Na  Na11  1  0.68215300  0.89945200  0.71398000  1
  Ti  Ti0  1  0.10381400  0.18297900  0.87353900  1
  Ti  Ti1  1  0.43827300  0.18784200  0.87754600  1
  Ti  Ti2  1  0.95270900  0.11787800  0.56920100  1
  Ti  Ti3  1  0.28567300  0.11849500  0.57082900  1
  Ti  Ti4  1  0.77176100  0.19425100  0.87688300  1
  Ti  Ti5  1  0.61506500  0.12517800  0.56389500  1
  Ti  Ti6  1  0.00266100  0.00979000  0.00896600  1
  Ti  Ti7  1  0.33321200  0.50114200  0.99889700  1
  Ti  Ti8  1  0.72139900  0.37067900  0.44010300  1
  Ti  Ti9  1  0.38428100  0.37049000  0.44025400  1
  Ti  Ti10  1  0.05788700  0.37977400  0.44738600  1
  Ti  Ti11  1  0.66267600  0.51058400  0.99186900  1
  Ti  Ti12  1  0.60837100  0.61862600  0.55148700  1
  Ti  Ti13  1  0.00562200  0.49062200  0.00941600  1
  Ti  Ti14  1  0.94360500  0.62686300  0.55726200  1
  Ti  Ti15  1  0.28211200  0.62809300  0.55918300  1
  Ti  Ti16  1  0.66289100  0.99241300  0.99278500  1
  Ti  Ti17  1  0.33145600  0.99994300  0.99998000  1
  Ti  Ti18  1  0.05182900  0.87477400  0.43643500  1
  Ti  Ti19  1  0.38111300  0.88120600  0.42896000  1
  Ti  Ti20  1  0.89530800  0.80726400  0.12297300  1
  Ti  Ti21  1  0.71411900  0.88250100  0.43146100  1
  Ti  Ti22  1  0.22858200  0.81223500  0.12275000  1
  Ti  Ti23  1  0.56294800  0.81854000  0.12689300  1
  O  O0  1  0.59612800  0.05974000  0.84955200  1
  O  O1  1  0.25818600  0.06031400  0.85061200  1
  O  O2  1  0.92277400  0.06129900  0.85308100  1
  O  O3  1  0.12973500  0.00849000  0.59320200  1
  O  O4  1  0.46535700  0.00970600  0.59271600  1
  O  O5  1  0.79351300  0.00966000  0.59238200  1
  O  O6  1  0.69616900  0.21926300  0.72643200  1
  O  O7  1  0.02985200  0.21873900  0.72643800  1
  O  O8  1  0.36406000  0.21884100  0.72689200  1
  O  O9  1  0.30163900  0.30412900  0.93871400  1
  O  O10  1  0.97178400  0.30492500  0.93968900  1
  O  O11  1  0.63559300  0.30539900  0.93952400  1
  O  O12  1  0.09064100  0.21785400  0.51588400  1
  O  O13  1  0.42402600  0.22017400  0.51671400  1
  O  O14  1  0.75970500  0.22113900  0.51723100  1
  O  O15  1  0.85537100  0.12339700  0.05009300  1
  O  O16  1  0.19047500  0.12414500  0.04386500  1
  O  O17  1  0.52133400  0.12460300  0.04103400  1
  O  O18  1  0.16990800  0.31636400  0.34683000  1
  O  O19  1  0.84091700  0.31792900  0.34227800  1
  O  O20  1  0.50492900  0.32325000  0.34251100  1
  O  O21  1  0.77994600  0.51058500  0.89100200  1
  O  O22  1  0.44184400  0.51412000  0.88811300  1
  O  O23  1  0.11370800  0.51616000  0.89333500  1
  O  O24  1  0.61730600  0.44456600  0.56805600  1
  O  O25  1  0.94992200  0.44651200  0.56817200  1
  O  O26  1  0.28509400  0.44748800  0.56955500  1
  O  O27  1  0.71462900  0.55138300  0.42932800  1
  O  O28  1  0.38131000  0.55143600  0.42962900  1
  O  O29  1  0.04853900  0.55381100  0.43039200  1
  O  O30  1  0.55195600  0.48374200  0.10614300  1
  O  O31  1  0.22457100  0.48749800  0.11169800  1
  O  O32  1  0.88614600  0.48990000  0.10950900  1
  O  O33  1  0.16033600  0.67279700  0.65629800  1
  O  O34  1  0.82507600  0.67886500  0.65567100  1
  O  O35  1  0.49681700  0.68116200  0.65356700  1
  O  O36  1  0.47849600  0.87633500  0.95839300  1
  O  O37  1  0.14583300  0.87591600  0.95803100  1
  O  O38  1  0.81234200  0.87788000  0.95194400  1
  O  O39  1  0.90640900  0.77804500  0.48181800  1
  O  O40  1  0.24218000  0.77874100  0.48323100  1
  O  O41  1  0.57643900  0.78231600  0.48506500  1
  O  O42  1  0.03057200  0.69493900  0.06044400  1
  O  O43  1  0.69559500  0.69593100  0.06189500  1
  O  O44  1  0.36515100  0.69655800  0.06063900  1
  O  O45  1  0.30315500  0.78037200  0.27306000  1
  O  O46  1  0.63631600  0.78258400  0.27402500  1
  O  O47  1  0.97075900  0.78241800  0.27376700  1
  O  O48  1  0.87283400  0.99091400  0.40803100  1
  O  O49  1  0.20198600  0.98982100  0.40802200  1
  O  O50  1  0.53624100  0.99139900  0.40685500  1
  O  O51  1  0.74442400  0.94044600  0.14860100  1
  O  O52  1  0.40755000  0.94000500  0.14980500  1
  O  O53  1  0.07189700  0.94029300  0.15087000  1
loop_
_geom_bond_atom_site_label_1
_geom_bond_atom_site_label_2
_geom_bond_distance
_geom_bond_site_symmetry_2
Na0 O48 2.431236 1_545
Na0 O51 2.467251 1_545
Na0 O49 2.578647 1_645
Na0 O53 2.589569 1_645
Na0 O19 2.640083 1_555
Na0 O12 2.694012 1_655
Na0 O18 2.755109 1_655
Na0 O15 2.824883 1_555
Na1 O7 2.413570 1_655
Na1 O6 2.423607 1_555
Na1 O25 2.496175 1_555
Na1 O24 2.508519 1_555
Na1 O21 2.514983 1_555
Na1 O23 2.549142 1_655
Na1 O14 2.733656 1_555
Na1 O10 2.875929 1_555
Na2 O7 2.416135 1_555
Na2 O8 2.429660 1_555
Na2 O26 2.491462 1_555
Na2 O25 2.495356 1_455
Na2 O22 2.512004 1_555
Na2 O23 2.557839 1_555
Na2 O12 2.748412 1_555
Na2 O9 2.885252 1_555
Na3 O26 2.450196 1_555
Na3 O24 2.451186 1_555
Na3 O22 2.495784 1_555
Na3 O6 2.497155 1_555
Na3 O8 2.501470 1_555
Na3 O21 2.501809 1_555
Na4 O20 2.269618 1_555
Na4 O16 2.340427 1_555
Na4 O9 2.427098 1_554
Na4 O31 2.501477 1_555
Na4 O17 2.594582 1_555
Na4 O30 2.713327 1_555
Na5 O19 2.322588 1_555
Na5 O11 2.358701 1_554
Na5 O15 2.383060 1_555
Na5 O32 2.459240 1_555
Na5 O17 2.609929 1_555
Na5 O30 2.628654 1_555
Na6 O34 2.329171 1_555
Na6 O42 2.368795 1_656
Na6 O38 2.398351 1_555
Na6 O21 2.479907 1_555
Na6 O37 2.603879 1_655
Na6 O23 2.629548 1_655
Na7 O33 2.257461 1_555
Na7 O36 2.302721 1_555
Na7 O44 2.460526 1_556
Na7 O22 2.505610 1_555
Na7 O37 2.607300 1_555
Na7 O23 2.798703 1_555
Na8 O29 2.436342 1_555
Na8 O28 2.442767 1_555
Na8 O45 2.489323 1_555
Na8 O47 2.500145 1_455
Na8 O31 2.505909 1_555
Na8 O32 2.513425 1_455
Na9 O46 2.411498 1_555
Na9 O45 2.411700 1_555
Na9 O27 2.490438 1_555
Na9 O31 2.502960 1_555
Na9 O28 2.504012 1_555
Na9 O30 2.550196 1_555
Na9 O41 2.764100 1_555
Na9 O44 2.877449 1_555
Na10 O46 2.413123 1_555
Na10 O47 2.424402 1_555
Na10 O27 2.498815 1_555
Na10 O32 2.505207 1_555
Na10 O29 2.513454 1_655
Na10 O30 2.556976 1_555
Na10 O39 2.719268 1_555
Na10 O43 2.846942 1_555
Na11 O4 2.461648 1_565
Na11 O0 2.472764 1_565
Na11 O5 2.544760 1_565
Na11 O2 2.589880 1_565
Na11 O35 2.672830 1_555
Na11 O41 2.688829 1_555
Na11 O34 2.771359 1_555
Na11 O38 2.836911 1_555
O0 Ti16 1.961041 1_545
O0 Ti4 2.011024 1_555
O0 Ti1 2.029947 1_555
O1 Ti0 1.952353 1_555
O1 Ti17 1.987822 1_545
O1 Ti1 1.991088 1_555
O2 Ti0 1.979485 1_655
O2 Ti4 2.006191 1_555
O2 Ti6 2.013350 1_656
O3 Ti2 1.935072 1_455
O3 Ti3 1.947433 1_555
O3 Ti18 2.059530 1_545
O4 Ti3 1.949441 1_555
O4 Ti5 1.987089 1_555
O4 Ti19 2.094037 1_545
O5 Ti2 1.962800 1_555
O5 Ti5 1.987658 1_555
O5 Ti21 2.062032 1_545
O6 Ti4 1.832485 1_555
O6 Ti5 1.940777 1_555
O7 Ti0 1.838553 1_555
O7 Ti2 1.912317 1_455
O8 Ti1 1.858771 1_555
O8 Ti3 1.898914 1_555
O9 Ti1 1.967548 1_555
O9 Ti0 1.994911 1_555
O9 Ti7 2.074514 1_555
O10 Ti4 1.949386 1_555
O10 Ti13 1.978284 1_656
O10 Ti0 2.001151 1_655
O11 Ti4 1.943433 1_555
O11 Ti1 1.971768 1_555
O11 Ti11 2.150198 1_555
O12 Ti2 1.990032 1_455
O12 Ti3 2.014822 1_555
O12 Ti10 2.065694 1_555
O13 Ti5 1.948580 1_555
O13 Ti9 2.007350 1_555
O13 Ti3 2.010506 1_555
O14 Ti5 1.954701 1_555
O14 Ti8 2.004661 1_555
O14 Ti2 2.021830 1_555
O15 Ti6 1.916681 1_655
O15 Ti16 2.029422 1_544
O15 Ti4 2.309942 1_554
O16 Ti6 1.932290 1_555
O16 Ti17 1.955543 1_544
O16 Ti0 2.212924 1_554
O17 Ti17 1.997867 1_544
O17 Ti16 2.033345 1_544
O17 Ti1 2.160090 1_554
O18 Ti9 1.859842 1_555
O18 Ti10 1.885719 1_555
O19 Ti8 1.888496 1_555
O19 Ti10 1.926957 1_655
O20 Ti8 1.874349 1_555
O20 Ti9 1.886724 1_555
O21 Ti11 1.895705 1_555
O21 Ti13 2.065779 1_656
O22 Ti11 1.932607 1_555
O22 Ti7 1.970159 1_555
O23 Ti7 1.954315 1_555
O23 Ti13 2.058940 1_556
O24 Ti12 1.918939 1_555
O24 Ti8 2.133551 1_555
O24 Ti9 2.140939 1_555
O25 Ti14 1.966500 1_555
O25 Ti10 2.068491 1_655
O25 Ti8 2.118470 1_555
O26 Ti15 1.967534 1_555
O26 Ti10 2.067598 1_555
O26 Ti9 2.124860 1_555
O27 Ti8 1.969860 1_555
O27 Ti12 2.072766 1_555
O27 Ti14 2.119819 1_555
O28 Ti9 1.972022 1_555
O28 Ti12 2.064326 1_555
O28 Ti15 2.126689 1_555
O29 Ti10 1.920269 1_555
O29 Ti14 2.125703 1_455
O29 Ti15 2.148858 1_555
O30 Ti7 1.962313 1_554
O30 Ti11 2.059527 1_554
O31 Ti13 1.913192 1_555
O31 Ti7 1.994180 1_554
O32 Ti13 1.903902 1_655
O32 Ti11 2.049963 1_554
O33 Ti14 1.878305 1_455
O33 Ti15 1.885007 1_555
O34 Ti14 1.885974 1_555
O34 Ti12 1.918800 1_555
O35 Ti15 1.862596 1_555
O35 Ti12 1.895348 1_555
O36 Ti16 1.921058 1_555
O36 Ti17 1.981281 1_555
O36 Ti23 2.187039 1_556
O37 Ti17 1.963467 1_555
O37 Ti6 2.067770 1_566
O37 Ti22 2.176133 1_556
O38 Ti16 1.936009 1_555
O38 Ti6 2.022260 1_666
O38 Ti20 2.284491 1_556
O39 Ti18 1.954662 1_655
O39 Ti14 2.008353 1_555
O39 Ti21 2.022481 1_555
O40 Ti18 1.949986 1_555
O40 Ti15 2.006920 1_555
O40 Ti19 2.020710 1_555
O41 Ti21 1.992134 1_555
O41 Ti19 2.015870 1_555
O41 Ti12 2.069589 1_555
O42 Ti20 1.943373 1_455
O42 Ti22 1.974572 1_555
O42 Ti13 2.140391 1_555
O43 Ti20 1.952136 1_555
O43 Ti11 1.975574 1_554
O43 Ti23 2.002298 1_555
O44 Ti22 1.969134 1_555
O44 Ti23 1.999314 1_555
O44 Ti7 2.060523 1_554
O45 Ti22 1.858420 1_555
O45 Ti19 1.899194 1_555
O46 Ti23 1.839772 1_555
O46 Ti21 1.910673 1_555
O47 Ti20 1.835803 1_555
O47 Ti18 1.936536 1_655
O48 Ti21 1.962443 1_555
O48 Ti18 1.995598 1_655
O48 Ti2 2.063281 1_565
O49 Ti19 1.944818 1_555
O49 Ti18 1.984226 1_555
O49 Ti3 2.086416 1_565
O50 Ti21 1.937395 1_555
O50 Ti19 1.941519 1_555
O50 Ti5 2.062207 1_565
O51 Ti23 1.979432 1_555
O51 Ti20 2.012583 1_555
O51 Ti16 2.015102 1_554
O52 Ti23 1.950939 1_555
O52 Ti22 1.985044 1_555
O52 Ti17 1.990479 1_554
O53 Ti6 1.959295 1_565
O53 Ti20 2.004532 1_455
O53 Ti22 2.022295 1_555
