# generated using pymatgen
data_Er2Si5Ru3
_symmetry_space_group_name_H-M   'P 1'
_cell_length_a   8.18420258
_cell_length_b   8.18396967
_cell_length_c   8.18394407
_cell_angle_alpha   140.38287621
_cell_angle_beta   108.65618580
_cell_angle_gamma   84.82043723
_symmetry_Int_Tables_number   1
_chemical_formula_structural   Er2Si5Ru3
_chemical_formula_sum   'Er4 Si10 Ru6'
_cell_volume   319.91573126
_cell_formula_units_Z   2
loop_
 _symmetry_equiv_pos_site_id
 _symmetry_equiv_pos_as_xyz
  1  'x, y, z'
loop_
 _atom_site_type_symbol
 _atom_site_label
 _atom_site_symmetry_multiplicity
 _atom_site_fract_x
 _atom_site_fract_y
 _atom_site_fract_z
 _atom_site_occupancy
  Er  Er0  1  0.90431898  0.13619823  0.76826720  1
  Er  Er1  1  0.09567899  0.86380130  0.23173261  1
  Er  Er2  1  0.63210839  0.36388328  0.26822036  1
  Er  Er3  1  0.36789296  0.63611516  0.73178097  1
  Si  Si0  1  0.00003640  0.74998567  0.74997795  1
  Si  Si1  1  0.99996377  0.25001591  0.25001930  1
  Si  Si2  1  0.70754012  0.45759971  0.75005439  1
  Si  Si3  1  0.29240391  0.04246632  0.75001402  1
  Si  Si4  1  0.29245983  0.54240080  0.24994620  1
  Si  Si5  1  0.70759602  0.95753276  0.24998549  1
  Si  Si6  1  0.23516815  0.40408995  0.83088433  1
  Si  Si7  1  0.57319833  0.90425641  0.66903950  1
  Si  Si8  1  0.42680288  0.09574322  0.33096078  1
  Si  Si9  1  0.76483212  0.59591129  0.16911642  1
  Ru  Ru0  1  0.76072968  0.85358745  0.90705909  1
  Ru  Ru1  1  0.50005563  0.25004285  0.75005497  1
  Ru  Ru2  1  0.94646627  0.35370183  0.59297017  1
  Ru  Ru3  1  0.05353546  0.64629983  0.40703234  1
  Ru  Ru4  1  0.23926662  0.14641251  0.09293733  1
  Ru  Ru5  1  0.49994450  0.74995553  0.24994560  1
loop_
_geom_bond_atom_site_label_1
_geom_bond_atom_site_label_2
_geom_bond_distance
_geom_bond_site_symmetry_2
Er0 Si7 2.958459 1_545
Er0 Si9 2.970666 1_545
Er0 Si9 2.970737 1_556
Er0 Si2 3.036469 1_555
Er0 Si5 3.036795 1_545
Er0 Ru3 3.075866 1_656
Er0 Ru3 3.077429 1_645
Er0 Si1 3.086084 1_556
Er0 Si0 3.086342 1_645
Er0 Ru4 3.101749 1_656
Er0 Ru2 3.115680 1_555
Er0 Si3 3.222713 1_655
Er0 Si4 3.222941 1_656
Er0 Si6 3.294589 1_655
Er0 Ru1 3.343473 1_555
Er0 Ru5 3.344800 1_545
Er1 Si8 2.958480 1_565
Er1 Si6 2.970672 1_565
Er1 Si6 2.970741 1_554
Er1 Si4 3.036473 1_555
Er1 Si3 3.036797 1_565
Er1 Ru2 3.075854 1_454
Er1 Ru2 3.077422 1_465
Er1 Si0 3.086118 1_554
Er1 Si1 3.086369 1_465
Er1 Ru0 3.101775 1_454
Er1 Ru3 3.115675 1_555
Er1 Si5 3.222697 1_455
Er1 Si2 3.222928 1_454
Er1 Si9 3.294569 1_455
Er1 Ru5 3.343491 1_555
Er1 Ru1 3.344813 1_565
Er2 Si9 2.958456 1_555
Er2 Si7 2.970643 1_544
Er2 Si7 2.971103 1_555
Er2 Si4 3.036651 1_555
Er2 Si3 3.037218 1_554
Er2 Ru0 3.076258 1_555
Er2 Ru0 3.076492 1_544
Er2 Si1 3.085584 1_555
Er2 Si0 3.086310 1_655
Er2 Ru2 3.101207 1_555
Er2 Ru4 3.116295 1_555
Er2 Si5 3.222846 1_545
Er2 Si2 3.222963 1_555
Er2 Si8 3.294877 1_555
Er2 Ru1 3.343921 1_554
Er2 Ru5 3.344086 1_555
Er3 Si6 2.958436 1_555
Er3 Si8 2.970638 1_566
Er3 Si8 2.971097 1_555
Er3 Si2 3.036633 1_555
Er3 Si5 3.037205 1_556
Er3 Ru4 3.076278 1_555
Er3 Ru4 3.076521 1_566
Er3 Si0 3.085593 1_555
Er3 Si1 3.086319 1_455
Er3 Ru3 3.101215 1_555
Er3 Ru0 3.116272 1_555
Er3 Si3 3.222863 1_565
Er3 Si4 3.222978 1_555
Er3 Si7 3.294891 1_555
Er3 Ru5 3.343916 1_556
Er3 Ru1 3.344080 1_555
Si2 Si9 2.519777 1_556
Si2 Si8 2.520118 1_555
Si2 Si5 2.772835 1_556
Si2 Si5 2.773899 1_545
Si3 Si6 2.519234 1_555
Si3 Si7 2.519900 1_545
Si3 Si4 2.772842 1_556
Si3 Si4 2.773892 1_545
Si4 Si6 2.519779 1_554
Si4 Si7 2.520122 1_555
Si5 Si9 2.519223 1_555
Si5 Si8 2.519892 1_565
Ru0 Si7 2.353474 1_555
Ru0 Si2 2.413389 1_555
Ru0 Si5 2.413496 1_556
Ru0 Si1 2.416406 1_566
Ru0 Si0 2.416421 1_655
Ru1 Si7 2.421499 1_545
Ru1 Si6 2.421965 1_555
Ru1 Si8 2.422035 1_555
Ru1 Si9 2.422118 1_556
Ru1 Si2 2.507931 1_555
Ru1 Si3 2.508810 1_555
Ru2 Si6 2.353622 1_655
Ru2 Si2 2.413159 1_555
Ru2 Si5 2.413608 1_545
Ru2 Si0 2.416085 1_655
Ru2 Si1 2.416424 1_555
Ru3 Si9 2.353635 1_455
Ru3 Si4 2.413153 1_555
Ru3 Si3 2.413592 1_565
Ru3 Si1 2.416063 1_455
Ru3 Si0 2.416391 1_555
Ru4 Si8 2.353515 1_555
Ru4 Si4 2.413378 1_555
Ru4 Si3 2.413483 1_554
Ru4 Si0 2.416382 1_544
Ru4 Si1 2.416393 1_455
Ru5 Si8 2.421508 1_565
Ru5 Si9 2.421960 1_555
Ru5 Si7 2.422026 1_555
Ru5 Si6 2.422114 1_554
Ru5 Si4 2.507920 1_555
Ru5 Si5 2.508819 1_555
