# generated using pymatgen
data_CoTc3
_symmetry_space_group_name_H-M   'P 1'
_cell_length_a   5.33001604
_cell_length_b   5.32982931
_cell_length_c   4.28071643
_cell_angle_alpha   90.00000000
_cell_angle_beta   90.00000000
_cell_angle_gamma   120.00093767
_symmetry_Int_Tables_number   1
_chemical_formula_structural   CoTc3
_chemical_formula_sum   'Co2 Tc6'
_cell_volume   105.31368390
_cell_formula_units_Z   2
loop_
 _symmetry_equiv_pos_site_id
 _symmetry_equiv_pos_as_xyz
  1  'x, y, z'
loop_
 _atom_site_type_symbol
 _atom_site_label
 _atom_site_symmetry_multiplicity
 _atom_site_fract_x
 _atom_site_fract_y
 _atom_site_fract_z
 _atom_site_occupancy
  Co  Co0  1  0.33331575  0.66668618  0.74999900  1
  Co  Co1  1  0.66667043  0.33329966  0.24999900  1
  Tc  Tc0  1  0.16697712  0.33397890  0.24999900  1
  Tc  Tc1  1  0.66592730  0.83294210  0.24999900  1
  Tc  Tc2  1  0.16700643  0.83296593  0.24999900  1
  Tc  Tc3  1  0.83301581  0.66600533  0.74999900  1
  Tc  Tc4  1  0.33411423  0.16707652  0.74999900  1
  Tc  Tc5  1  0.83297693  0.16704737  0.74999900  1
loop_
_geom_bond_atom_site_label_1
_geom_bond_atom_site_label_2
_geom_bond_distance
_geom_bond_site_symmetry_2
Co0 Tc2 2.633996 1_555
Co0 Tc2 2.633996 1_556
Co0 Tc1 2.634060 1_556
Co0 Tc1 2.634060 1_555
Co0 Tc0 2.634286 1_555
Co0 Tc0 2.634286 1_556
Co0 Tc3 2.664794 1_455
Co0 Tc5 2.664866 1_455
Co0 Tc4 2.664870 1_565
Co0 Tc4 2.664965 1_555
Co0 Tc5 2.664985 1_565
Co0 Tc3 2.665226 1_555
Co1 Tc4 2.633911 1_554
Co1 Tc4 2.633911 1_555
Co1 Tc5 2.633915 1_555
Co1 Tc5 2.633915 1_554
Co1 Tc3 2.634281 1_554
Co1 Tc3 2.634281 1_555
Co1 Tc0 2.664834 1_655
Co1 Tc1 2.664842 1_545
Co1 Tc2 2.664919 1_545
Co1 Tc2 2.664932 1_655
Co1 Tc1 2.664992 1_555
Co1 Tc0 2.665185 1_555
Tc0 Tc5 2.637801 1_455
Tc0 Tc5 2.637801 1_454
Tc0 Tc4 2.637904 1_554
Tc0 Tc4 2.637904 1_555
Tc0 Tc1 2.659363 1_555
Tc0 Tc2 2.659438 1_555
Tc0 Tc2 2.670392 1_545
Tc0 Tc1 2.670484 1_445
Tc1 Tc3 2.637865 1_554
Tc1 Tc3 2.637865 1_555
Tc1 Tc5 2.638053 1_565
Tc1 Tc5 2.638053 1_564
Tc1 Tc2 2.659320 1_555
Tc1 Tc2 2.670696 1_655
Tc2 Tc3 2.637775 1_454
Tc2 Tc3 2.637775 1_455
Tc2 Tc4 2.638067 1_564
Tc2 Tc4 2.638067 1_565
Tc3 Tc4 2.659142 1_555
Tc3 Tc5 2.659257 1_555
Tc3 Tc5 2.670572 1_565
Tc3 Tc4 2.670705 1_665
Tc4 Tc5 2.659024 1_555
Tc4 Tc5 2.670992 1_455
