# generated using pymatgen
data_Li2FeO2F
_symmetry_space_group_name_H-M   'P 1'
_cell_length_a   5.16356983
_cell_length_b   5.16356983
_cell_length_c   9.86945656
_cell_angle_alpha   85.06021889
_cell_angle_beta   85.06021889
_cell_angle_gamma   120.14037578
_symmetry_Int_Tables_number   1
_chemical_formula_structural   Li2FeO2F
_chemical_formula_sum   'Li8 Fe4 O8 F4'
_cell_volume   224.15162294
_cell_formula_units_Z   4
loop_
 _symmetry_equiv_pos_site_id
 _symmetry_equiv_pos_as_xyz
  1  'x, y, z'
loop_
 _atom_site_type_symbol
 _atom_site_label
 _atom_site_symmetry_multiplicity
 _atom_site_fract_x
 _atom_site_fract_y
 _atom_site_fract_z
 _atom_site_occupancy
  Li  Li0  1  0.83380300  0.65265400  0.24651200  1
  Li  Li1  1  0.98950800  0.48334600  0.74947200  1
  Li  Li2  1  0.90867100  0.09132900  0.00000000  1
  Li  Li3  1  0.34734600  0.16619700  0.75348800  1
  Li  Li4  1  0.51665400  0.01049200  0.25052800  1
  Li  Li5  1  0.66284100  0.85658300  0.75702600  1
  Li  Li6  1  0.25715600  0.74284400  0.00000000  1
  Li  Li7  1  0.14341700  0.33715900  0.24297400  1
  Fe  Fe0  1  0.74802400  0.25197600  0.50000000  1
  Fe  Fe1  1  0.61126600  0.38873400  0.00000000  1
  Fe  Fe2  1  0.41520400  0.58479600  0.50000000  1
  Fe  Fe3  1  0.08125400  0.91874600  0.50000000  1
  O  O0  1  0.71100100  0.54779800  0.61494800  1
  O  O1  1  0.86668700  0.37897000  0.11969000  1
  O  O2  1  0.78618500  0.95645800  0.38361000  1
  O  O3  1  0.45220200  0.28899900  0.38505200  1
  O  O4  1  0.62103000  0.13331300  0.88031000  1
  O  O5  1  0.37536200  0.87843800  0.61655000  1
  O  O6  1  0.12156200  0.62463800  0.38345000  1
  O  O7  1  0.04354200  0.21381500  0.61639000  1
  F  F0  1  0.94889100  0.78898500  0.87829700  1
  F  F1  1  0.54028600  0.69291000  0.11872000  1
  F  F2  1  0.21101500  0.05110900  0.12170300  1
  F  F3  1  0.30709000  0.45971400  0.88128000  1
loop_
_geom_bond_atom_site_label_1
_geom_bond_atom_site_label_2
_geom_bond_distance
_geom_bond_site_symmetry_2
Li0 O1 2.025238 1_555
Li0 O6 2.140866 1_655
Li0 O3 2.157840 1_555
Li0 O2 2.246720 1_555
Li1 O4 2.067798 1_555
Li1 O7 2.093224 1_655
Li1 O0 2.162162 1_555
Li1 O5 2.204456 1_655
Li2 O4 2.056645 1_554
Li2 O1 2.056645 1_555
Li3 O4 2.025238 1_555
Li3 O5 2.140866 1_545
Li3 O0 2.157840 1_555
Li3 O7 2.246720 1_555
Li4 O1 2.067798 1_555
Li4 O2 2.093224 1_545
Li4 O3 2.162162 1_555
Li4 O6 2.204456 1_545
Li5 O4 2.032944 1_565
Li5 O5 2.152698 1_555
Li5 O7 2.154319 1_665
Li5 O0 2.300756 1_555
Li6 O4 2.096197 1_564
Li6 O1 2.096197 1_455
Li7 O1 2.032944 1_455
Li7 O6 2.152698 1_555
Li7 O2 2.154319 1_445
Li7 O3 2.300756 1_555
Fe0 O3 2.052112 1_555
Fe0 O0 2.052112 1_555
Fe0 O2 2.061953 1_545
Fe0 O7 2.061953 1_655
Fe0 O5 2.062924 1_545
Fe0 O6 2.062924 1_655
Fe1 O4 1.860709 1_554
Fe1 O1 1.860709 1_555
Fe2 O3 2.051950 1_555
Fe2 O0 2.051950 1_555
Fe2 O7 2.054641 1_555
Fe2 O2 2.054641 1_555
Fe2 O6 2.058478 1_555
Fe2 O5 2.058478 1_555
Fe3 O0 2.045900 1_455
Fe3 O3 2.045900 1_565
Fe3 O2 2.059045 1_455
Fe3 O7 2.059045 1_565
Fe3 O6 2.061504 1_555
Fe3 O5 2.061504 1_555
F0 Fe1 2.084926 1_556
F0 Li5 2.118076 1_555
F0 Li2 2.128078 1_566
F0 Li3 2.161048 1_665
F0 Li6 2.166563 1_656
F0 Li1 2.187063 1_555
F1 Li6 2.048956 1_555
F1 Li7 2.115801 1_555
F1 Li2 2.120063 1_565
F1 Li0 2.128704 1_555
F1 Fe1 2.189789 1_555
F1 Li4 2.222001 1_565
F2 Fe1 2.084926 1_555
F2 Li7 2.118076 1_555
F2 Li2 2.128078 1_455
F2 Li0 2.161048 1_445
F2 Li6 2.166563 1_545
F2 Li4 2.187063 1_555
F3 Li6 2.048956 1_556
F3 Li5 2.115801 1_555
F3 Li2 2.120063 1_456
F3 Li3 2.128704 1_555
F3 Fe1 2.189789 1_556
F3 Li1 2.222001 1_455
