# generated using pymatgen
data_Li4Mn7(PO4)6
_symmetry_space_group_name_H-M   'P 1'
_cell_length_a   9.06364747
_cell_length_b   9.06364747
_cell_length_c   6.66111869
_cell_angle_alpha   80.44764957
_cell_angle_beta   80.44764957
_cell_angle_gamma   106.03009464
_symmetry_Int_Tables_number   1
_chemical_formula_structural   Li4Mn7(PO4)6
_chemical_formula_sum   'Li4 Mn7 P6 O24'
_cell_volume   505.52694483
_cell_formula_units_Z   1
loop_
 _symmetry_equiv_pos_site_id
 _symmetry_equiv_pos_as_xyz
  1  'x, y, z'
loop_
 _atom_site_type_symbol
 _atom_site_label
 _atom_site_symmetry_multiplicity
 _atom_site_fract_x
 _atom_site_fract_y
 _atom_site_fract_z
 _atom_site_occupancy
  Li  Li0  1  0.99132300  0.99132300  0.49001300  1
  Li  Li1  1  0.63109000  0.63109000  0.57665400  1
  Li  Li2  1  0.54872100  0.31746800  0.49682200  1
  Li  Li3  1  0.31746800  0.54872100  0.49682200  1
  Mn  Mn0  1  0.35771700  0.00164900  0.19277900  1
  Mn  Mn1  1  0.00164900  0.35771700  0.19277900  1
  Mn  Mn2  1  0.99656100  0.99656100  0.99797900  1
  Mn  Mn3  1  0.66537500  0.33385100  0.00504200  1
  Mn  Mn4  1  0.33385100  0.66537500  0.00504200  1
  Mn  Mn5  1  0.99728100  0.63751900  0.81401400  1
  Mn  Mn6  1  0.63751900  0.99728100  0.81401400  1
  P  P0  1  0.28142100  0.90687400  0.70375100  1
  P  P1  1  0.90687400  0.28142100  0.70375100  1
  P  P2  1  0.66990700  0.66990700  0.08563000  1
  P  P3  1  0.32477800  0.32477800  0.91450400  1
  P  P4  1  0.71098200  0.07678300  0.30471300  1
  P  P5  1  0.07678300  0.71098200  0.30471300  1
  O  O0  1  0.64932600  0.95526200  0.51340100  1
  O  O1  1  0.95526200  0.64932600  0.51340100  1
  O  O2  1  0.95055000  0.37495800  0.87646200  1
  O  O3  1  0.37495800  0.95055000  0.87646200  1
  O  O4  1  0.79764400  0.79764400  0.13516300  1
  O  O5  1  0.74602100  0.57640400  0.94018800  1
  O  O6  1  0.57640400  0.74602100  0.94018800  1
  O  O7  1  0.89586000  0.10247600  0.75784700  1
  O  O8  1  0.10247600  0.89586000  0.75784700  1
  O  O9  1  0.27442500  0.72959200  0.71016800  1
  O  O10  1  0.72959200  0.27442500  0.71016800  1
  O  O11  1  0.55745100  0.55745100  0.28795100  1
  O  O12  1  0.43563000  0.43563000  0.70722300  1
  O  O13  1  0.70198400  0.24835100  0.30706100  1
  O  O14  1  0.24835100  0.70198400  0.30706100  1
  O  O15  1  0.89363600  0.10270800  0.23941200  1
  O  O16  1  0.10270800  0.89363600  0.23941200  1
  O  O17  1  0.19494500  0.19494500  0.87415800  1
  O  O18  1  0.61576400  0.02659400  0.13774100  1
  O  O19  1  0.02659400  0.61576400  0.13774100  1
  O  O20  1  0.24958600  0.42392100  0.04896200  1
  O  O21  1  0.42392100  0.24958600  0.04896200  1
  O  O22  1  0.02807800  0.36060100  0.49740200  1
  O  O23  1  0.36060100  0.02807800  0.49740200  1
loop_
_geom_bond_atom_site_label_1
_geom_bond_atom_site_label_2
_geom_bond_distance
_geom_bond_site_symmetry_2
Li0 O15 2.239312 1_565
Li0 O16 2.239312 1_655
Li0 O7 2.347797 1_565
Li0 O8 2.347797 1_655
Li1 O12 2.068166 1_555
Li1 O11 2.279294 1_555
Li2 O13 2.020024 1_555
Li2 O12 2.188501 1_555
Li2 O11 2.353118 1_555
Li2 O10 2.408671 1_555
Li3 O14 2.020024 1_555
Li3 O12 2.188501 1_555
Li3 O11 2.353118 1_555
Li3 O9 2.408671 1_555
Mn0 O23 2.085882 1_555
Mn0 O21 2.162809 1_555
Mn0 O16 2.192755 1_545
Mn0 O3 2.221047 1_544
Mn0 O18 2.247573 1_555
Mn0 O14 2.552540 1_545
Mn1 O22 2.085882 1_555
Mn1 O20 2.162809 1_555
Mn1 O15 2.192755 1_455
Mn1 O2 2.221047 1_454
Mn1 O19 2.247573 1_555
Mn1 O13 2.552540 1_455
Mn2 O17 2.091997 1_665
Mn2 O4 2.108844 1_556
Mn2 O7 2.184486 1_565
Mn2 O8 2.184486 1_655
Mn2 O16 2.212118 1_656
Mn2 O15 2.212118 1_566
Mn3 O5 2.060690 1_554
Mn3 O21 2.061182 1_555
Mn3 O13 2.145703 1_555
Mn3 O10 2.152151 1_554
Mn3 O2 2.486096 1_554
Mn3 O18 2.664301 1_555
Mn4 O6 2.060690 1_554
Mn4 O20 2.061182 1_555
Mn4 O14 2.145703 1_555
Mn4 O9 2.152151 1_554
Mn4 O3 2.486096 1_554
Mn4 O19 2.664301 1_555
Mn5 O1 2.090615 1_555
Mn5 O5 2.170942 1_555
Mn5 O19 2.199413 1_656
Mn5 O8 2.211241 1_655
Mn5 O2 2.252107 1_555
Mn5 O9 2.357692 1_655
Mn6 O0 2.090615 1_555
Mn6 O6 2.170942 1_555
Mn6 O18 2.199413 1_566
Mn6 O7 2.211241 1_565
Mn6 O3 2.252107 1_555
Mn6 O10 2.357692 1_565
O0 P4 1.533579 1_565
O1 P5 1.533579 1_655
O2 P1 1.577496 1_555
O3 P0 1.577496 1_555
O4 P2 1.517555 1_555
O5 P2 1.583129 1_556
O6 P2 1.583129 1_556
O7 P1 1.573220 1_555
O8 P0 1.573220 1_555
O9 P0 1.583590 1_555
O10 P1 1.583590 1_555
O11 P2 1.551921 1_555
O12 P3 1.564281 1_555
O13 P4 1.581995 1_555
O14 P5 1.581995 1_555
O15 P4 1.580307 1_555
O16 P5 1.580307 1_555
O17 P3 1.512250 1_555
O18 P4 1.567945 1_555
O19 P5 1.567945 1_555
O20 P3 1.573805 1_554
O21 P3 1.573805 1_554
O22 P1 1.532050 1_455
O23 P0 1.532050 1_545
