# generated using pymatgen
data_Li2Fe2CuO6
_symmetry_space_group_name_H-M   'P 1'
_cell_length_a   6.59957900
_cell_length_b   6.68698143
_cell_length_c   8.47756919
_cell_angle_alpha   71.49498092
_cell_angle_beta   70.89368715
_cell_angle_gamma   83.63602726
_symmetry_Int_Tables_number   1
_chemical_formula_structural   Li2Fe2CuO6
_chemical_formula_sum   'Li6 Fe6 Cu3 O18'
_cell_volume   335.22794494
_cell_formula_units_Z   3
loop_
 _symmetry_equiv_pos_site_id
 _symmetry_equiv_pos_as_xyz
  1  'x, y, z'
loop_
 _atom_site_type_symbol
 _atom_site_label
 _atom_site_symmetry_multiplicity
 _atom_site_fract_x
 _atom_site_fract_y
 _atom_site_fract_z
 _atom_site_occupancy
  Li  Li0  1  0.00896200  0.33404200  0.16447900  1
  Li  Li1  1  0.01400000  0.66365900  0.83159200  1
  Li  Li2  1  0.33350700  0.99714000  0.16909900  1
  Li  Li3  1  0.33083400  0.67253600  0.49685400  1
  Li  Li4  1  0.65745600  0.33121400  0.50157600  1
  Li  Li5  1  0.65161100  0.00637100  0.83657400  1
  Fe  Fe0  1  0.99695600  0.66866500  0.33470200  1
  Fe  Fe1  1  0.00044000  0.32838700  0.66595500  1
  Fe  Fe2  1  0.66555400  0.33725400  0.00044400  1
  Fe  Fe3  1  0.66878100  0.99576200  0.33132700  1
  Fe  Fe4  1  0.99964600  0.00366600  0.99871700  1
  Fe  Fe5  1  0.67007700  0.66571200  0.66801400  1
  Cu  Cu0  1  0.33271200  0.33139600  0.33271300  1
  Cu  Cu1  1  0.33148200  0.00079100  0.66582500  1
  Cu  Cu2  1  0.33600700  0.66758600  0.00118500  1
  O  O0  1  0.03337100  0.67412800  0.07740600  1
  O  O1  1  0.01623500  0.35034500  0.41215800  1
  O  O2  1  0.02412200  0.00776400  0.75545700  1
  O  O3  1  0.34093400  0.34991000  0.10228200  1
  O  O4  1  0.35622700  0.00320100  0.41353800  1
  O  O5  1  0.67487400  0.01949700  0.08117200  1
  O  O6  1  0.31135000  0.65973700  0.24974000  1
  O  O7  1  0.32558900  0.31098700  0.56394500  1
  O  O8  1  0.64919300  0.31403600  0.25403200  1
  O  O9  1  0.34267300  0.69749200  0.74942500  1
  O  O10  1  0.67551900  0.67655000  0.42848300  1
  O  O11  1  0.68173300  0.34171400  0.75060500  1
  O  O12  1  0.32412700  0.97650200  0.92110300  1
  O  O13  1  0.63479500  0.99362600  0.58911800  1
  O  O14  1  0.64219700  0.65873000  0.91261500  1
  O  O15  1  0.98903900  0.98885600  0.24022700  1
  O  O16  1  0.99518900  0.64581900  0.58428800  1
  O  O17  1  0.98480900  0.32692100  0.91535300  1
loop_
_geom_bond_atom_site_label_1
_geom_bond_atom_site_label_2
_geom_bond_distance
_geom_bond_site_symmetry_2
Li0 O3 2.085424 1_555
Li0 O1 2.153007 1_555
Li0 O0 2.163415 1_555
Li0 O17 2.184961 1_454
Li0 O15 2.197450 1_445
Li0 O8 2.248908 1_455
Li1 O9 2.064228 1_555
Li1 O17 2.145555 1_455
Li1 O0 2.152416 1_556
Li1 O16 2.181179 1_455
Li1 O2 2.186061 1_565
Li1 O14 2.322488 1_455
Li2 O5 2.134952 1_565
Li2 O4 2.139254 1_565
Li2 O6 2.146582 1_555
Li2 O15 2.155013 1_455
Li2 O12 2.171232 1_554
Li2 O3 2.246606 1_565
Li3 O16 2.101638 1_455
Li3 O4 2.104623 1_565
Li3 O10 2.156802 1_555
Li3 O6 2.169142 1_555
Li3 O9 2.226627 1_555
Li3 O7 2.302741 1_555
Li4 O7 2.087327 1_555
Li4 O13 2.146605 1_545
Li4 O8 2.156269 1_555
Li4 O11 2.192172 1_555
Li4 O10 2.198906 1_555
Li4 O1 2.242322 1_655
Li5 O12 2.053143 1_545
Li5 O11 2.136760 1_555
Li5 O5 2.158241 1_556
Li5 O13 2.165282 1_545
Li5 O14 2.208630 1_545
Li5 O2 2.326170 1_655
Fe0 O6 1.961867 1_655
Fe0 O10 2.008160 1_555
Fe0 O1 2.021315 1_655
Fe0 O15 2.035339 1_555
Fe0 O16 2.068692 1_555
Fe0 O0 2.103596 1_655
Fe1 O11 1.989435 1_455
Fe1 O16 2.013147 1_455
Fe1 O7 2.039548 1_555
Fe1 O2 2.041467 1_555
Fe1 O1 2.077922 1_555
Fe1 O17 2.079721 1_455
Fe2 O17 1.992175 1_554
Fe2 O5 2.015584 1_555
Fe2 O3 2.034102 1_555
Fe2 O14 2.045733 1_554
Fe2 O8 2.073000 1_555
Fe2 O11 2.076268 1_554
Fe3 O4 1.949662 1_565
Fe3 O15 1.999543 1_555
Fe3 O8 2.021118 1_565
Fe3 O10 2.030679 1_555
Fe3 O5 2.063040 1_565
Fe3 O13 2.118175 1_555
Fe4 O15 1.996404 1_546
Fe4 O2 2.006681 1_655
Fe4 O5 2.027233 1_556
Fe4 O12 2.029511 1_645
Fe4 O17 2.051883 1_555
Fe4 O0 2.099001 1_646
Fe5 O10 1.997363 1_555
Fe5 O14 2.006644 1_555
Fe5 O16 2.030959 1_555
Fe5 O9 2.050683 1_555
Fe5 O11 2.055615 1_555
Fe5 O13 2.089866 1_555
Cu0 O3 1.900787 1_555
Cu0 O7 1.906523 1_555
Cu0 O8 1.975902 1_555
Cu0 O1 1.976511 1_555
Cu0 O4 2.085559 1_555
Cu0 O6 2.085979 1_555
Cu1 O13 1.891689 1_545
Cu1 O2 1.920066 1_555
Cu1 O9 1.926081 1_545
Cu1 O7 1.979136 1_555
Cu1 O4 2.085992 1_555
Cu1 O12 2.102875 1_545
Cu2 O0 1.887391 1_555
Cu2 O14 1.912863 1_554
Cu2 O12 1.960346 1_554
Cu2 O3 2.023724 1_555
Cu2 O6 2.043650 1_555
Cu2 O9 2.065615 1_554
