# generated using pymatgen
data_RbTaO3
_symmetry_space_group_name_H-M   'P 1'
_cell_length_a   9.11195700
_cell_length_b   8.57985233
_cell_length_c   5.17377956
_cell_angle_alpha   94.58254888
_cell_angle_beta   93.74137273
_cell_angle_gamma   114.19379094
_symmetry_Int_Tables_number   1
_chemical_formula_structural   RbTaO3
_chemical_formula_sum   'Rb4 Ta4 O12'
_cell_volume   365.63260409
_cell_formula_units_Z   4
loop_
 _symmetry_equiv_pos_site_id
 _symmetry_equiv_pos_as_xyz
  1  'x, y, z'
loop_
 _atom_site_type_symbol
 _atom_site_label
 _atom_site_symmetry_multiplicity
 _atom_site_fract_x
 _atom_site_fract_y
 _atom_site_fract_z
 _atom_site_occupancy
  Rb  Rb0  1  0.50000000  0.50000000  0.00000000  1
  Rb  Rb1  1  0.79611700  0.08565100  0.40210200  1
  Rb  Rb2  1  0.50000000  0.50000000  0.50000000  1
  Rb  Rb3  1  0.20388300  0.91434900  0.59789800  1
  Ta  Ta0  1  0.98945600  0.47159800  0.18407000  1
  Ta  Ta1  1  0.21171600  0.99912400  0.14342300  1
  Ta  Ta2  1  0.78828400  0.00087600  0.85657700  1
  Ta  Ta3  1  0.01054400  0.52840200  0.81593000  1
  O  O0  1  0.92674300  0.73743400  0.00936800  1
  O  O1  1  0.78580300  0.21950100  0.04179700  1
  O  O2  1  0.89363700  0.59356900  0.31527700  1
  O  O3  1  0.43473500  0.14514200  0.22804900  1
  O  O4  1  0.21637800  0.71206900  0.27054300  1
  O  O5  1  0.12221900  0.19934100  0.29161000  1
  O  O6  1  0.87778100  0.80065900  0.70839000  1
  O  O7  1  0.78362200  0.28793100  0.72945800  1
  O  O8  1  0.56526500  0.85485800  0.77195100  1
  O  O9  1  0.10636300  0.40643100  0.68472300  1
  O  O10  1  0.21419700  0.78049900  0.95820300  1
  O  O11  1  0.07325700  0.26256600  0.99063200  1
loop_
_geom_bond_atom_site_label_1
_geom_bond_atom_site_label_2
_geom_bond_distance
_geom_bond_site_symmetry_2
Rb0 Rb2 2.586890 1_555
Rb0 Rb2 2.586890 1_554
O0 O6 1.777874 1_554
O0 Ta3 2.395121 1_654
O0 Ta1 2.646190 1_655
O1 Ta2 2.046386 1_554
O1 Ta0 2.222883 1_555
O1 Rb1 2.282625 1_555
O2 Ta0 1.740979 1_555
O2 Rb2 3.554270 1_555
O3 Ta1 1.897454 1_545
O3 Rb2 3.053740 1_555
O3 Rb0 3.193281 1_555
O4 Ta0 2.228778 1_455
O4 Rb3 2.368748 1_555
O5 Ta1 2.285423 1_545
O5 Rb2 3.385157 1_555
O6 Ta2 2.285423 1_565
O6 Rb2 3.385157 1_555
O7 Ta3 2.228778 1_655
O7 Rb1 2.368751 1_555
O8 Ta2 1.897454 1_565
O8 Rb2 3.053740 1_555
O8 Rb0 3.193281 1_556
O9 Ta3 1.740979 1_555
O9 Rb2 3.554270 1_555
O10 Ta1 2.046386 1_556
O10 Ta3 2.222883 1_555
O10 Rb3 2.282625 1_555
O11 O5 1.777874 1_556
O11 Ta0 2.395121 1_456
O11 Ta2 2.646190 1_455
