# generated using pymatgen
data_MgBe13
_symmetry_space_group_name_H-M   'P 1'
_cell_length_a   7.13974847
_cell_length_b   7.13974725
_cell_length_c   7.13970740
_cell_angle_alpha   60.00019400
_cell_angle_beta   60.00019964
_cell_angle_gamma   60.00038679
_symmetry_Int_Tables_number   1
_chemical_formula_structural   MgBe13
_chemical_formula_sum   'Mg2 Be26'
_cell_volume   257.35566206
_cell_formula_units_Z   2
loop_
 _symmetry_equiv_pos_site_id
 _symmetry_equiv_pos_as_xyz
  1  'x, y, z'
loop_
 _atom_site_type_symbol
 _atom_site_label
 _atom_site_symmetry_multiplicity
 _atom_site_fract_x
 _atom_site_fract_y
 _atom_site_fract_z
 _atom_site_occupancy
  Mg  Mg0  1  0.25000000  0.25000000  0.25000000  1
  Mg  Mg1  1  0.75000000  0.75000000  0.75000000  1
  Be  Be0  1  -0.00000000  -0.00000000  -0.00000000  1
  Be  Be1  1  0.50000000  0.50000000  0.50000000  1
  Be  Be2  1  0.29032288  0.93471454  0.06528546  1
  Be  Be3  1  0.56528546  0.43471454  0.79032288  1
  Be  Be4  1  0.79032188  0.20967812  0.56528646  1
  Be  Be5  1  0.56528546  0.79032188  0.20967712  1
  Be  Be6  1  0.43471454  0.20967812  0.79032288  1
  Be  Be7  1  0.43471454  0.79032288  0.56528546  1
  Be  Be8  1  0.79032288  0.43471454  0.20967712  1
  Be  Be9  1  0.06528546  0.29032188  0.93471554  1
  Be  Be10  1  0.93471454  0.06528546  0.29032288  1
  Be  Be11  1  0.70967812  0.29032188  0.06528546  1
  Be  Be12  1  0.93471454  0.70967812  0.06528446  1
  Be  Be13  1  0.70967812  0.93471454  0.29032288  1
  Be  Be14  1  0.06528546  0.93471454  0.70967712  1
  Be  Be15  1  0.29032188  0.06528546  0.70967712  1
  Be  Be16  1  0.29032188  0.70967812  0.93471454  1
  Be  Be17  1  0.79032188  0.56528546  0.43471554  1
  Be  Be18  1  0.20967812  0.79032188  0.43471354  1
  Be  Be19  1  0.20967712  0.56528546  0.79032288  1
  Be  Be20  1  0.56528546  0.20967712  0.43471454  1
  Be  Be21  1  0.43471454  0.56528546  0.20967712  1
  Be  Be22  1  0.20967812  0.43471454  0.56528446  1
  Be  Be23  1  0.06528546  0.70967712  0.29032288  1
  Be  Be24  1  0.70967712  0.06528546  0.93471454  1
  Be  Be25  1  0.93471454  0.29032288  0.70967712  1
loop_
_geom_bond_atom_site_label_1
_geom_bond_atom_site_label_2
_geom_bond_distance
_geom_bond_site_symmetry_2
Be0 Be14 2.124584 1_544
Be0 Be10 2.124584 1_455
Be0 Be9 2.124590 1_554
Be0 Be12 2.124590 1_445
Be0 Be15 2.124591 1_554
Be0 Be13 2.124591 1_445
Be0 Be25 2.124595 1_454
Be0 Be23 2.124595 1_545
Be0 Be24 2.124595 1_454
Be0 Be2 2.124595 1_545
Be0 Be11 2.124599 1_455
Be0 Be16 2.124599 1_544
Be1 Be3 2.124584 1_555
Be1 Be21 2.124584 1_555
Be1 Be5 2.124591 1_555
Be1 Be6 2.124591 1_555
Be1 Be22 2.124591 1_555
Be1 Be17 2.124591 1_555
Be1 Be7 2.124595 1_555
Be1 Be20 2.124595 1_555
Be1 Be19 2.124595 1_555
Be1 Be8 2.124595 1_555
Be1 Be18 2.124601 1_555
Be1 Be4 2.124601 1_555
Be2 Be21 2.169596 1_555
Be2 Be5 2.217386 1_555
Be2 Be6 2.217392 1_564
Be2 Be9 2.224514 1_564
Be2 Be23 2.272232 1_555
Be2 Mg0 2.971592 1_565
Be2 Mg1 2.971607 1_554
Be3 Be6 2.224499 1_555
Be3 Be7 2.224515 1_555
Be3 Be4 2.272222 1_555
Be3 Mg1 2.971595 1_555
Be3 Mg0 2.971596 1_556
Be4 Be8 2.224506 1_555
Be4 Be6 2.224507 1_555
Be4 Mg1 2.971608 1_545
Be4 Mg0 2.971609 1_655
Be5 Be7 2.224502 1_555
Be5 Be8 2.224514 1_555
Be5 Mg1 2.971583 1_554
Be5 Mg0 2.971619 1_565
Be6 Be9 2.169596 1_555
Be6 Mg0 2.971583 1_556
Be6 Mg1 2.971619 1_545
Be7 Mg1 2.971593 1_555
Be7 Mg0 2.971607 1_565
Be8 Be9 2.217386 1_654
Be8 Mg1 2.971593 1_554
Be8 Mg0 2.971607 1_655
Be9 Mg0 2.971583 1_556
Be9 Mg1 2.971619 1_455
Be10 Be8 2.169596 1_555
Be10 Be20 2.169597 1_555
Be10 Be4 2.217390 1_555
Be10 Be18 2.217398 1_645
Be10 Be13 2.224499 1_545
Be10 Be9 2.224499 1_654
Be10 Be23 2.224515 1_645
Be10 Be2 2.224516 1_645
Be10 Be11 2.272227 1_555
Be10 Mg0 2.971596 1_655
Be10 Mg1 2.971596 1_545
Be11 Be8 2.169580 1_555
Be11 Be20 2.169580 1_555
Be11 Be3 2.217384 1_554
Be11 Be21 2.217401 1_555
Be11 Be24 2.224500 1_554
Be11 Be25 2.224501 1_554
Be11 Be13 2.224508 1_545
Be11 Be9 2.224508 1_654
Be11 Mg1 2.971607 1_554
Be11 Mg0 2.971607 1_555
Be12 Be17 2.169593 1_555
Be12 Be5 2.169596 1_555
Be12 Be19 2.217386 1_654
Be12 Be8 2.217392 1_555
Be12 Be14 2.224499 1_654
Be12 Be23 2.224501 1_655
Be12 Be16 2.224508 1_654
Be12 Be24 2.224514 1_564
Be12 Be13 2.272232 1_555
Be12 Mg1 2.971583 1_554
Be12 Mg0 2.971619 1_655
Be13 Be5 2.169593 1_555
Be13 Be17 2.169596 1_555
Be13 Be20 2.217386 1_565
Be13 Be7 2.217393 1_555
Be13 Be24 2.224502 1_564
Be13 Be23 2.224515 1_655
Be13 Mg1 2.971583 1_555
Be13 Mg0 2.971619 1_565
Be14 Be19 2.169596 1_555
Be14 Be7 2.169597 1_555
Be14 Be18 2.217390 1_555
Be14 Be4 2.217398 1_465
Be14 Be15 2.224499 1_565
Be14 Be25 2.224515 1_465
Be14 Be24 2.224516 1_465
Be14 Be16 2.272227 1_555
Be14 Mg1 2.971596 1_455
Be14 Mg0 2.971596 1_565
Be15 Be6 2.169593 1_555
Be15 Be22 2.169596 1_555
Be15 Be7 2.217386 1_545
Be15 Be20 2.217393 1_555
Be15 Be2 2.224502 1_546
Be15 Be16 2.224508 1_545
Be15 Be25 2.224515 1_455
Be15 Be9 2.272232 1_555
Be15 Mg0 2.971583 1_555
Be15 Mg1 2.971619 1_545
Be16 Be19 2.169580 1_555
Be16 Be7 2.169580 1_555
Be16 Be21 2.217384 1_556
Be16 Be3 2.217401 1_555
Be16 Be2 2.224500 1_556
Be16 Be23 2.224501 1_556
Be16 Mg0 2.971607 1_556
Be16 Mg1 2.971607 1_555
Be17 Be25 2.217386 1_555
Be17 Be23 2.217392 1_655
Be17 Be3 2.224499 1_555
Be17 Be8 2.224501 1_555
Be17 Be4 2.224506 1_555
Be17 Be7 2.224515 1_555
Be17 Be5 2.272232 1_555
Be17 Mg1 2.971583 1_555
Be17 Mg0 2.971619 1_655
Be18 Be23 2.169574 1_555
Be18 Be2 2.169574 1_555
Be18 Be7 2.224506 1_555
Be18 Be22 2.224506 1_555
Be18 Be19 2.224506 1_555
Be18 Be5 2.224507 1_555
Be18 Be21 2.272222 1_555
Be18 Mg0 2.971608 1_565
Be18 Mg1 2.971609 1_455
Be19 Be9 2.217392 1_555
Be19 Be22 2.224501 1_555
Be19 Be6 2.224514 1_555
Be19 Be3 2.224516 1_555
Be19 Be7 2.272232 1_555
Be19 Mg0 2.971593 1_556
Be19 Mg1 2.971607 1_455
Be20 Be6 2.224502 1_555
Be20 Be4 2.224506 1_555
Be20 Be22 2.224515 1_555
Be20 Be21 2.224515 1_555
Be20 Be8 2.272232 1_555
Be20 Mg0 2.971593 1_555
Be20 Mg1 2.971607 1_545
Be21 Be23 2.169597 1_555
Be21 Be5 2.224499 1_555
Be21 Be22 2.224499 1_555
Be21 Be8 2.224516 1_555
Be21 Mg0 2.971595 1_555
Be21 Mg1 2.971596 1_554
Be22 Be9 2.169593 1_555
Be22 Be23 2.217386 1_555
Be22 Be25 2.217392 1_455
Be22 Be6 2.272232 1_555
Be22 Mg0 2.971583 1_555
Be22 Mg1 2.971619 1_455
Be23 Mg1 2.971593 1_455
Be23 Mg0 2.971606 1_555
Be24 Be4 2.169574 1_555
Be24 Be3 2.169596 1_555
Be24 Be6 2.217386 1_555
Be24 Be5 2.217392 1_546
Be24 Be25 2.272232 1_555
Be24 Mg1 2.971592 1_545
Be24 Mg0 2.971607 1_556
Be25 Be4 2.169574 1_555
Be25 Be3 2.169597 1_555
Be25 Be9 2.224501 1_655
Be25 Mg0 2.971593 1_655
Be25 Mg1 2.971606 1_555
