# generated using pymatgen
data_MnGeRu2
_symmetry_space_group_name_H-M   'P 1'
_cell_length_a   4.22368924
_cell_length_b   4.22368924
_cell_length_c   4.22368924
_cell_angle_alpha   60.00000000
_cell_angle_beta   60.00000000
_cell_angle_gamma   60.00000000
_symmetry_Int_Tables_number   1
_chemical_formula_structural   MnGeRu2
_chemical_formula_sum   'Mn1 Ge1 Ru2'
_cell_volume   53.27958980
_cell_formula_units_Z   1
loop_
 _symmetry_equiv_pos_site_id
 _symmetry_equiv_pos_as_xyz
  1  'x, y, z'
loop_
 _atom_site_type_symbol
 _atom_site_label
 _atom_site_symmetry_multiplicity
 _atom_site_fract_x
 _atom_site_fract_y
 _atom_site_fract_z
 _atom_site_occupancy
  Mn  Mn0  1  0.74999900  0.74999900  0.74999900  1
  Ge  Ge0  1  0.25000000  0.25000000  0.25000000  1
  Ru  Ru0  1  0.50000000  0.50000000  0.50000000  1
  Ru  Ru1  1  -0.00000000  0.00000000  0.00000000  1
loop_
_geom_bond_atom_site_label_1
_geom_bond_atom_site_label_2
_geom_bond_distance
_geom_bond_site_symmetry_2
Mn0 Ru0 2.586461 1_555
Mn0 Ru1 2.586467 1_665
Mn0 Ru1 2.586467 1_566
Mn0 Ru1 2.586467 1_656
Mn0 Ru0 2.586474 1_655
Mn0 Ru0 2.586474 1_565
Mn0 Ru0 2.586474 1_556
Mn0 Ru1 2.586481 1_666
Ge0 Ru0 2.586471 1_455
Ge0 Ru1 2.586471 1_556
Ge0 Ru1 2.586471 1_565
Ge0 Ru0 2.586471 1_554
Ge0 Ru1 2.586471 1_555
Ge0 Ru1 2.586471 1_655
Ge0 Ru0 2.586471 1_545
Ge0 Ru0 2.586471 1_555
Ge0 Mn0 2.986593 1_545
Ge0 Mn0 2.986593 1_455
Ge0 Mn0 2.986593 1_554
Ge0 Mn0 2.986605 1_454
Ge0 Mn0 2.986605 1_544
Ge0 Mn0 2.986605 1_445
