# generated using pymatgen
data_Zr11VO24
_symmetry_space_group_name_H-M   'P 1'
_cell_length_a   6.82737600
_cell_length_b   7.37759609
_cell_length_c   9.64633596
_cell_angle_alpha   93.15755955
_cell_angle_beta   91.65133021
_cell_angle_gamma   116.07786744
_symmetry_Int_Tables_number   1
_chemical_formula_structural   Zr11VO24
_chemical_formula_sum   'Zr11 V1 O24'
_cell_volume   434.99321726
_cell_formula_units_Z   1
loop_
 _symmetry_equiv_pos_site_id
 _symmetry_equiv_pos_as_xyz
  1  'x, y, z'
loop_
 _atom_site_type_symbol
 _atom_site_label
 _atom_site_symmetry_multiplicity
 _atom_site_fract_x
 _atom_site_fract_y
 _atom_site_fract_z
 _atom_site_occupancy
  Zr  Zr0  1  0.21326500  0.94854500  0.00522900  1
  Zr  Zr1  1  0.11335700  0.71619600  0.32629800  1
  Zr  Zr2  1  0.74458700  0.50559600  0.03629900  1
  Zr  Zr3  1  0.55293300  0.61719700  0.34569100  1
  Zr  Zr4  1  0.07779300  0.17046700  0.37253900  1
  Zr  Zr5  1  0.41751400  0.84109500  0.70113700  1
  Zr  Zr6  1  0.58643300  0.15925400  0.29556200  1
  Zr  Zr7  1  0.44912500  0.38703700  0.65796100  1
  Zr  Zr8  1  0.25483900  0.49414800  0.96384200  1
  Zr  Zr9  1  0.88792000  0.27506600  0.67419800  1
  Zr  Zr10  1  0.78166900  0.05029500  0.98933900  1
  V  V0  1  0.93353800  0.81510000  0.63037700  1
  O  O0  1  0.11096700  0.65143700  0.09045500  1
  O  O1  1  0.46811900  0.85325000  0.31837300  1
  O  O2  1  0.86260600  0.81376300  0.01880300  1
  O  O3  1  0.18397600  0.79736900  0.54000700  1
  O  O4  1  0.47498400  0.53899600  0.13141800  1
  O  O5  1  0.19671400  0.48070800  0.35547000  1
  O  O6  1  0.13136200  0.87420200  0.78996300  1
  O  O7  1  0.88502800  0.83727700  0.41391700  1
  O  O8  1  0.54876900  0.17050700  0.06972400  1
  O  O9  1  0.21882600  0.01347200  0.24121900  1
  O  O10  1  0.55444400  0.68187900  0.57561900  1
  O  O11  1  0.78309000  0.49656800  0.26258700  1
  O  O12  1  0.21672600  0.50579600  0.73652800  1
  O  O13  1  0.78306700  0.97893700  0.75481300  1
  O  O14  1  0.44474600  0.31706700  0.42471300  1
  O  O15  1  0.44463200  0.83019800  0.92472600  1
  O  O16  1  0.11731700  0.15963800  0.59741100  1
  O  O17  1  0.85685200  0.12699100  0.20279000  1
  O  O18  1  0.80970700  0.53433000  0.64511100  1
  O  O19  1  0.52522200  0.46313400  0.86946900  1
  O  O20  1  0.80910800  0.20866700  0.46365200  1
  O  O21  1  0.13619700  0.18705000  0.98149700  1
  O  O22  1  0.53614400  0.15062300  0.68587800  1
  O  O23  1  0.88842100  0.34814500  0.90738700  1
loop_
_geom_bond_atom_site_label_1
_geom_bond_atom_site_label_2
_geom_bond_distance
_geom_bond_site_symmetry_2
O0 Zr8 2.172154 1_554
O0 Zr0 2.203168 1_555
O0 Zr2 2.276879 1_455
O0 Zr1 2.296848 1_555
O1 Zr6 2.063792 1_565
O1 Zr3 2.089484 1_555
O1 Zr1 2.181922 1_555
O2 Zr2 2.070312 1_555
O2 Zr10 2.079582 1_564
O2 Zr0 2.162629 1_655
O3 V0 1.992627 1_455
O3 Zr1 2.096133 1_555
O3 Zr5 2.100464 1_555
O4 Zr8 2.084564 1_554
O4 Zr3 2.103247 1_555
O4 Zr2 2.182183 1_555
O5 Zr1 2.082142 1_555
O5 Zr4 2.083380 1_555
O5 Zr3 2.192780 1_555
O6 V0 1.916395 1_455
O6 Zr0 2.112686 1_556
O6 Zr5 2.259118 1_555
O7 V0 2.131153 1_555
O7 Zr3 2.184008 1_555
O7 Zr1 2.271457 1_655
O7 Zr4 2.286470 1_665
O8 Zr0 2.196212 1_545
O8 Zr6 2.196662 1_555
O8 Zr10 2.269664 1_554
O8 Zr2 2.282485 1_555
O9 Zr4 2.182324 1_555
O9 Zr1 2.201363 1_545
O9 Zr6 2.284610 1_555
O9 Zr0 2.296076 1_545
O10 Zr5 2.143309 1_555
O10 Zr7 2.174322 1_555
O10 Zr3 2.241637 1_555
O10 V0 2.360380 1_555
O11 Zr1 2.164666 1_655
O11 Zr2 2.199253 1_555
O11 Zr3 2.264365 1_555
O11 Zr6 2.295882 1_555
O12 Zr9 2.179087 1_455
O12 Zr8 2.211508 1_555
O12 Zr7 2.253431 1_555
O12 Zr5 2.292074 1_555
O13 Zr9 2.175871 1_565
O13 V0 2.227152 1_555
O13 Zr5 2.273152 1_555
O13 Zr10 2.295599 1_565
O14 Zr6 2.177907 1_555
O14 Zr3 2.193163 1_555
O14 Zr7 2.276932 1_555
O14 Zr4 2.277016 1_555
O15 Zr5 2.168355 1_555
O15 Zr10 2.200211 1_565
O15 Zr0 2.251484 1_556
O15 Zr8 2.296709 1_555
O16 Zr7 2.182213 1_555
O16 Zr4 2.188355 1_555
O16 Zr9 2.212856 1_455
O16 V0 2.333356 1_445
O17 Zr10 2.092509 1_554
O17 Zr4 2.105697 1_655
O17 Zr6 2.173542 1_555
O18 V0 1.877601 1_555
O18 Zr7 2.221993 1_555
O18 Zr9 2.229560 1_555
O19 Zr7 2.074638 1_555
O19 Zr2 2.079448 1_556
O19 Zr8 2.175798 1_555
O20 Zr9 2.061581 1_555
O20 Zr6 2.092564 1_555
O20 Zr4 2.176495 1_655
O21 Zr8 2.062825 1_555
O21 Zr0 2.068057 1_546
O21 Zr10 2.180449 1_455
O22 Zr5 2.076096 1_545
O22 Zr7 2.102657 1_555
O22 Zr9 2.170757 1_555
O23 Zr2 2.184991 1_556
O23 Zr10 2.191188 1_555
O23 Zr8 2.280994 1_655
O23 Zr9 2.283618 1_555
