# generated using pymatgen
data_Tc
_symmetry_space_group_name_H-M   'P 1'
_cell_length_a   5.45245319
_cell_length_b   5.45245315
_cell_length_c   5.45245372
_cell_angle_alpha   60.00000868
_cell_angle_beta   60.00000892
_cell_angle_gamma   60.00000571
_symmetry_Int_Tables_number   1
_chemical_formula_structural   Tc
_chemical_formula_sum   Tc8
_cell_volume   114.62014545
_cell_formula_units_Z   8
loop_
 _symmetry_equiv_pos_site_id
 _symmetry_equiv_pos_as_xyz
  1  'x, y, z'
loop_
 _atom_site_type_symbol
 _atom_site_label
 _atom_site_symmetry_multiplicity
 _atom_site_fract_x
 _atom_site_fract_y
 _atom_site_fract_z
 _atom_site_occupancy
  Tc  Tc0_0  1  0.00000000  0.00000000  0.00000000  1
  Tc  Tc0_1  1  0.00000000  0.00000000  0.50000000  1
  Tc  Tc0_2  1  0.00000000  0.50000000  0.00000000  1
  Tc  Tc0_3  1  0.00000000  0.50000000  0.50000000  1
  Tc  Tc0_4  1  0.50000000  0.00000000  0.00000000  1
  Tc  Tc0_5  1  0.50000000  0.00000000  0.50000000  1
  Tc  Tc0_6  1  0.50000000  0.50000000  0.00000000  1
  Tc  Tc0_7  1  0.50000000  0.50000000  0.50000000  1
loop_
_geom_bond_atom_site_label_1
_geom_bond_atom_site_label_2
_geom_bond_distance
_geom_bond_site_symmetry_2
Tc0_0 Tc0_2 2.726227 1_555
Tc0_0 Tc0_2 2.726227 1_545
Tc0_0 Tc0_4 2.726227 1_455
Tc0_0 Tc0_4 2.726227 1_555
Tc0_0 Tc0_6 2.726227 1_545
Tc0_0 Tc0_6 2.726227 1_455
Tc0_0 Tc0_1 2.726227 1_555
Tc0_0 Tc0_1 2.726227 1_554
Tc0_0 Tc0_3 2.726227 1_554
Tc0_0 Tc0_3 2.726227 1_545
Tc0_0 Tc0_5 2.726227 1_554
Tc0_0 Tc0_5 2.726227 1_455
Tc0_1 Tc0_3 2.726227 1_545
Tc0_1 Tc0_3 2.726227 1_555
Tc0_1 Tc0_5 2.726227 1_455
Tc0_1 Tc0_5 2.726227 1_555
Tc0_1 Tc0_7 2.726227 1_455
Tc0_1 Tc0_7 2.726227 1_545
Tc0_1 Tc0_2 2.726227 1_546
Tc0_1 Tc0_2 2.726227 1_555
Tc0_1 Tc0_4 2.726227 1_555
Tc0_1 Tc0_4 2.726227 1_456
Tc0_2 Tc0_6 2.726227 1_555
Tc0_2 Tc0_6 2.726227 1_455
Tc0_2 Tc0_4 2.726227 1_555
Tc0_2 Tc0_4 2.726227 1_465
Tc0_2 Tc0_3 2.726227 1_554
Tc0_2 Tc0_3 2.726227 1_555
Tc0_2 Tc0_7 2.726227 1_554
Tc0_2 Tc0_7 2.726227 1_455
Tc0_3 Tc0_7 2.726227 1_555
Tc0_3 Tc0_7 2.726227 1_455
Tc0_3 Tc0_5 2.726227 1_555
Tc0_3 Tc0_5 2.726227 1_465
Tc0_3 Tc0_6 2.726227 1_456
Tc0_3 Tc0_6 2.726227 1_555
Tc0_4 Tc0_6 2.726227 1_545
Tc0_4 Tc0_6 2.726227 1_555
Tc0_4 Tc0_5 2.726227 1_554
Tc0_4 Tc0_5 2.726227 1_555
Tc0_4 Tc0_7 2.726227 1_554
Tc0_4 Tc0_7 2.726227 1_545
Tc0_5 Tc0_7 2.726227 1_555
Tc0_5 Tc0_7 2.726227 1_545
Tc0_5 Tc0_6 2.726227 1_546
Tc0_5 Tc0_6 2.726227 1_555
Tc0_6 Tc0_7 2.726227 1_555
Tc0_6 Tc0_7 2.726227 1_554
