# generated using pymatgen
data_MgAg3
_symmetry_space_group_name_H-M   'P 1'
_cell_length_a   5.79715843
_cell_length_b   5.79715851
_cell_length_c   4.79913120
_cell_angle_alpha   90.00000000
_cell_angle_beta   90.00000000
_cell_angle_gamma   120.00000555
_symmetry_Int_Tables_number   1
_chemical_formula_structural   MgAg3
_chemical_formula_sum   'Mg2 Ag6'
_cell_volume   139.67657420
_cell_formula_units_Z   2
loop_
 _symmetry_equiv_pos_site_id
 _symmetry_equiv_pos_as_xyz
  1  'x, y, z'
loop_
 _atom_site_type_symbol
 _atom_site_label
 _atom_site_symmetry_multiplicity
 _atom_site_fract_x
 _atom_site_fract_y
 _atom_site_fract_z
 _atom_site_occupancy
  Mg  Mg0  1  0.66666700  0.33333400  0.25000000  1
  Mg  Mg1  1  0.33333400  0.66666700  0.75000100  1
  Ag  Ag0  1  0.16631317  0.33262534  0.25000000  1
  Ag  Ag1  1  0.66737466  0.83368783  0.25000000  1
  Ag  Ag2  1  0.16631417  0.83368783  0.25000000  1
  Ag  Ag3  1  0.83368783  0.16631317  0.75000100  1
  Ag  Ag4  1  0.33262534  0.16631317  0.75000100  1
  Ag  Ag5  1  0.83368683  0.66737566  0.75000100  1
loop_
_geom_bond_atom_site_label_1
_geom_bond_atom_site_label_2
_geom_bond_distance
_geom_bond_site_symmetry_2
Ag0 Ag1 2.892422 1_445
Ag0 Ag2 2.892423 1_545
Ag0 Mg0 2.898578 1_555
Ag0 Mg0 2.898584 1_455
Ag0 Ag1 2.904736 1_555
Ag0 Ag2 2.904736 1_555
Ag0 Ag4 2.923453 1_554
Ag0 Ag3 2.923456 1_454
Ag0 Ag4 2.923461 1_555
Ag0 Ag3 2.923464 1_455
Ag0 Mg1 2.927524 1_554
Ag0 Mg1 2.927531 1_555
Ag1 Ag2 2.892431 1_655
Ag1 Mg0 2.898581 1_555
Ag1 Mg0 2.898581 1_565
Ag1 Ag2 2.904727 1_555
Ag1 Ag5 2.923453 1_554
Ag1 Ag3 2.923456 1_564
Ag1 Ag5 2.923461 1_555
Ag1 Ag3 2.923464 1_565
Ag1 Mg1 2.927521 1_554
Ag1 Mg1 2.927529 1_555
Ag2 Mg0 2.898578 1_565
Ag2 Mg0 2.898584 1_455
Ag2 Ag4 2.923456 1_564
Ag2 Ag5 2.923462 1_454
Ag2 Ag4 2.923464 1_565
Ag2 Ag5 2.923470 1_455
Ag2 Mg1 2.927521 1_554
Ag2 Mg1 2.927529 1_555
Ag3 Ag5 2.892417 1_545
Ag3 Ag4 2.892420 1_655
Ag3 Mg1 2.898581 1_545
Ag3 Mg1 2.898581 1_655
Ag3 Ag4 2.904739 1_555
Ag3 Ag5 2.904742 1_555
Ag3 Mg0 2.927524 1_556
Ag3 Mg0 2.927531 1_555
Ag4 Ag5 2.892422 1_445
Ag4 Mg1 2.898579 1_555
Ag4 Mg1 2.898584 1_545
Ag4 Ag5 2.904736 1_555
Ag4 Mg0 2.927524 1_556
Ag4 Mg0 2.927531 1_555
Ag5 Mg1 2.898573 1_555
Ag5 Mg1 2.898590 1_655
Ag5 Mg0 2.927524 1_556
Ag5 Mg0 2.927531 1_555
