# generated using pymatgen
data_Ba2Cd
_symmetry_space_group_name_H-M   'P 1'
_cell_length_a   8.57638111
_cell_length_b   8.57638193
_cell_length_c   16.60946966
_cell_angle_alpha   104.96193511
_cell_angle_beta   104.96194053
_cell_angle_gamma   90.00001041
_symmetry_Int_Tables_number   1
_chemical_formula_structural   Ba2Cd
_chemical_formula_sum   'Ba16 Cd8'
_cell_volume   1137.35377622
_cell_formula_units_Z   8
loop_
 _symmetry_equiv_pos_site_id
 _symmetry_equiv_pos_as_xyz
  1  'x, y, z'
loop_
 _atom_site_type_symbol
 _atom_site_label
 _atom_site_symmetry_multiplicity
 _atom_site_fract_x
 _atom_site_fract_y
 _atom_site_fract_z
 _atom_site_occupancy
  Ba  Ba0_0  1  0.31525611  0.31525611  0.13051271  1
  Ba  Ba0_1  1  0.31525610  0.31525611  0.63051271  1
  Ba  Ba0_2  1  0.31525611  0.81525611  0.13051271  1
  Ba  Ba0_3  1  0.31525611  0.81525611  0.63051271  1
  Ba  Ba0_4  1  0.81525610  0.31525611  0.13051271  1
  Ba  Ba0_5  1  0.81525611  0.31525611  0.63051271  1
  Ba  Ba0_6  1  0.81525611  0.81525611  0.13051271  1
  Ba  Ba0_7  1  0.81525611  0.81525611  0.63051271  1
  Ba  Ba1_0  1  0.18474389  0.18474389  0.36948729  1
  Ba  Ba1_1  1  0.18474389  0.18474389  0.86948729  1
  Ba  Ba1_2  1  0.18474389  0.68474390  0.36948729  1
  Ba  Ba1_3  1  0.18474389  0.68474389  0.86948729  1
  Ba  Ba1_4  1  0.68474389  0.18474390  0.36948729  1
  Ba  Ba1_5  1  0.68474390  0.18474390  0.86948729  1
  Ba  Ba1_6  1  0.68474389  0.68474390  0.36948729  1
  Ba  Ba1_7  1  0.68474389  0.68474390  0.86948729  1
  Cd  Cd0_0  1  0.00000000  0.00000000  0.00000000  1
  Cd  Cd0_1  1  0.00000000  0.00000000  0.50000000  1
  Cd  Cd0_2  1  0.00000000  0.50000000  0.00000000  1
  Cd  Cd0_3  1  0.00000000  0.50000000  0.50000000  1
  Cd  Cd0_4  1  0.50000000  0.00000000  0.00000000  1
  Cd  Cd0_5  1  0.50000000  0.00000000  0.50000000  1
  Cd  Cd0_6  1  0.50000000  0.50000000  0.00000000  1
  Cd  Cd0_7  1  0.50000000  0.50000000  0.50000000  1
loop_
_geom_bond_atom_site_label_1
_geom_bond_atom_site_label_2
_geom_bond_distance
_geom_bond_site_symmetry_2
Ba0_0 Cd0_0 3.642383 1_555
Ba0_0 Cd0_2 3.642385 1_555
Ba0_0 Cd0_4 3.642386 1_555
Ba0_0 Cd0_6 3.642387 1_555
Ba0_0 Ba1_1 4.036177 1_554
Ba0_0 Ba0_4 4.288191 1_555
Ba0_0 Ba0_4 4.288191 1_455
Ba0_0 Ba0_2 4.288191 1_545
Ba0_0 Ba0_2 4.288191 1_555
Ba0_0 Ba1_0 4.780044 1_555
Ba0_0 Ba1_4 4.780049 1_555
Ba0_0 Ba1_2 4.780049 1_555
Ba0_0 Ba1_6 4.780053 1_555
Ba0_1 Cd0_1 3.642383 1_555
Ba0_1 Cd0_3 3.642385 1_555
Ba0_1 Cd0_5 3.642386 1_555
Ba0_1 Cd0_7 3.642387 1_555
Ba0_1 Ba1_0 4.036177 1_555
Ba0_1 Ba0_5 4.288191 1_455
Ba0_1 Ba0_5 4.288191 1_555
Ba0_1 Ba0_3 4.288191 1_545
Ba0_1 Ba0_3 4.288191 1_555
Ba0_1 Ba1_1 4.780044 1_555
Ba0_1 Ba1_5 4.780049 1_555
Ba0_1 Ba1_3 4.780049 1_555
Ba0_1 Ba1_7 4.780053 1_555
Ba0_2 Cd0_2 3.642383 1_555
Ba0_2 Cd0_0 3.642385 1_565
Ba0_2 Cd0_6 3.642386 1_555
Ba0_2 Cd0_4 3.642387 1_565
Ba0_2 Ba1_3 4.036177 1_554
Ba0_2 Ba0_6 4.288191 1_455
Ba0_2 Ba0_6 4.288191 1_555
Ba0_2 Ba1_2 4.780044 1_555
Ba0_2 Ba1_6 4.780049 1_555
Ba0_2 Ba1_0 4.780049 1_565
Ba0_2 Ba1_4 4.780053 1_565
Ba0_3 Cd0_3 3.642383 1_555
Ba0_3 Cd0_1 3.642385 1_565
Ba0_3 Cd0_7 3.642386 1_555
Ba0_3 Cd0_5 3.642387 1_565
Ba0_3 Ba1_2 4.036177 1_555
Ba0_3 Ba0_7 4.288191 1_555
Ba0_3 Ba0_7 4.288191 1_455
Ba0_3 Ba1_3 4.780044 1_555
Ba0_3 Ba1_7 4.780049 1_555
Ba0_3 Ba1_1 4.780049 1_565
Ba0_3 Ba1_5 4.780053 1_565
Ba0_4 Cd0_4 3.642383 1_555
Ba0_4 Cd0_6 3.642385 1_555
Ba0_4 Cd0_0 3.642386 1_655
Ba0_4 Cd0_2 3.642387 1_655
Ba0_4 Ba1_5 4.036177 1_554
Ba0_4 Ba0_6 4.288191 1_545
Ba0_4 Ba0_6 4.288191 1_555
Ba0_4 Ba1_4 4.780044 1_555
Ba0_4 Ba1_0 4.780049 1_655
Ba0_4 Ba1_6 4.780049 1_555
Ba0_4 Ba1_2 4.780053 1_655
Ba0_5 Cd0_5 3.642383 1_555
Ba0_5 Cd0_7 3.642385 1_555
Ba0_5 Cd0_1 3.642386 1_655
Ba0_5 Cd0_3 3.642387 1_655
Ba0_5 Ba1_4 4.036177 1_555
Ba0_5 Ba0_7 4.288191 1_545
Ba0_5 Ba0_7 4.288191 1_555
Ba0_5 Ba1_5 4.780044 1_555
Ba0_5 Ba1_1 4.780049 1_655
Ba0_5 Ba1_7 4.780049 1_555
Ba0_5 Ba1_3 4.780053 1_655
Ba0_6 Cd0_6 3.642383 1_555
Ba0_6 Cd0_4 3.642385 1_565
Ba0_6 Cd0_2 3.642386 1_655
Ba0_6 Cd0_0 3.642387 1_665
Ba0_6 Ba1_7 4.036177 1_554
Ba0_6 Ba1_6 4.780044 1_555
Ba0_6 Ba1_2 4.780049 1_655
Ba0_6 Ba1_4 4.780049 1_565
Ba0_6 Ba1_0 4.780053 1_665
Ba0_7 Cd0_7 3.642383 1_555
Ba0_7 Cd0_5 3.642385 1_565
Ba0_7 Cd0_3 3.642386 1_655
Ba0_7 Cd0_1 3.642387 1_665
Ba0_7 Ba1_6 4.036177 1_555
Ba0_7 Ba1_7 4.780044 1_555
Ba0_7 Ba1_3 4.780049 1_655
Ba0_7 Ba1_5 4.780049 1_565
Ba0_7 Ba1_1 4.780053 1_665
Ba1_0 Cd0_7 3.642383 1_555
Ba1_0 Cd0_5 3.642385 1_555
Ba1_0 Cd0_3 3.642386 1_555
Ba1_0 Cd0_1 3.642387 1_555
Ba1_0 Ba1_4 4.288191 1_455
Ba1_0 Ba1_4 4.288191 1_555
Ba1_0 Ba1_2 4.288191 1_545
Ba1_0 Ba1_2 4.288191 1_555
Ba1_1 Cd0_6 3.642383 1_556
Ba1_1 Cd0_4 3.642385 1_556
Ba1_1 Cd0_2 3.642386 1_556
Ba1_1 Cd0_0 3.642387 1_556
Ba1_1 Ba1_5 4.288191 1_455
Ba1_1 Ba1_5 4.288191 1_555
Ba1_1 Ba1_3 4.288191 1_545
Ba1_1 Ba1_3 4.288191 1_555
Ba1_2 Cd0_5 3.642383 1_565
Ba1_2 Cd0_7 3.642385 1_555
Ba1_2 Cd0_1 3.642386 1_565
Ba1_2 Cd0_3 3.642387 1_555
Ba1_2 Ba1_6 4.288191 1_455
Ba1_2 Ba1_6 4.288191 1_555
Ba1_3 Cd0_4 3.642383 1_566
Ba1_3 Cd0_6 3.642385 1_556
Ba1_3 Cd0_0 3.642386 1_566
Ba1_3 Cd0_2 3.642387 1_556
Ba1_3 Ba1_7 4.288191 1_455
Ba1_3 Ba1_7 4.288191 1_555
Ba1_4 Cd0_3 3.642383 1_655
Ba1_4 Cd0_1 3.642385 1_655
Ba1_4 Cd0_7 3.642386 1_555
Ba1_4 Cd0_5 3.642387 1_555
Ba1_4 Ba1_6 4.288191 1_545
Ba1_4 Ba1_6 4.288191 1_555
Ba1_5 Cd0_2 3.642383 1_656
Ba1_5 Cd0_0 3.642385 1_656
Ba1_5 Cd0_6 3.642386 1_556
Ba1_5 Cd0_4 3.642387 1_556
Ba1_5 Ba1_7 4.288191 1_545
Ba1_5 Ba1_7 4.288191 1_555
Ba1_6 Cd0_1 3.642383 1_665
Ba1_6 Cd0_3 3.642385 1_655
Ba1_6 Cd0_5 3.642386 1_565
Ba1_6 Cd0_7 3.642387 1_555
Ba1_7 Cd0_0 3.642383 1_666
Ba1_7 Cd0_2 3.642385 1_656
Ba1_7 Cd0_4 3.642386 1_566
Ba1_7 Cd0_6 3.642387 1_556
