# generated using pymatgen
data_Al15Fe9O32
_symmetry_space_group_name_H-M   'P 1'
_cell_length_a   5.81336900
_cell_length_b   5.85072851
_cell_length_c   19.30884402
_cell_angle_alpha   98.34049477
_cell_angle_beta   90.05283041
_cell_angle_gamma   119.75135302
_symmetry_Int_Tables_number   1
_chemical_formula_structural   Al15Fe9O32
_chemical_formula_sum   'Al15 Fe9 O32'
_cell_volume   562.10817467
_cell_formula_units_Z   1
loop_
 _symmetry_equiv_pos_site_id
 _symmetry_equiv_pos_as_xyz
  1  'x, y, z'
loop_
 _atom_site_type_symbol
 _atom_site_label
 _atom_site_symmetry_multiplicity
 _atom_site_fract_x
 _atom_site_fract_y
 _atom_site_fract_z
 _atom_site_occupancy
  Al  Al0  1  0.50000000  0.50000000  0.00000000  1
  Al  Al1  1  0.25272200  0.00256400  0.74920500  1
  Al  Al2  1  0.12218700  0.49474000  0.12569800  1
  Al  Al3  1  0.87781300  0.50526000  0.87430200  1
  Al  Al4  1  0.00000000  0.50000000  0.00000000  1
  Al  Al5  1  0.75145700  0.50139300  0.74955200  1
  Al  Al6  1  0.25164300  0.50157600  0.74964600  1
  Al  Al7  1  0.62544800  0.50060900  0.62472700  1
  Al  Al8  1  0.24854300  0.49860700  0.25044800  1
  Al  Al9  1  0.00000000  0.50000000  0.50000000  1
  Al  Al10  1  0.50000000  0.50000000  0.50000000  1
  Al  Al11  1  0.74727800  0.99743600  0.25079500  1
  Al  Al12  1  0.00000000  0.00000000  0.50000000  1
  Al  Al13  1  0.37455200  0.49939100  0.37527300  1
  Al  Al14  1  0.74835700  0.49842400  0.25035400  1
  Fe  Fe0  1  0.84385000  0.87487900  0.09330100  1
  Fe  Fe1  1  0.50000000  0.00000000  0.00000000  1
  Fe  Fe2  1  0.15615000  0.12512100  0.90669900  1
  Fe  Fe3  1  0.34563100  0.87745600  0.59304600  1
  Fe  Fe4  1  0.59615000  0.87839200  0.84292600  1
  Fe  Fe5  1  0.65436900  0.12254400  0.40695400  1
  Fe  Fe6  1  0.90452300  0.12263300  0.65664700  1
  Fe  Fe7  1  0.09547700  0.87736700  0.34335300  1
  Fe  Fe8  1  0.40385000  0.12160800  0.15707400  1
  O  O0  1  0.52285200  0.72263000  0.05995100  1
  O  O1  1  0.08637500  0.29189800  0.05939900  1
  O  O2  1  0.58497000  0.27051500  0.05081800  1
  O  O3  1  0.91362500  0.70810200  0.94060100  1
  O  O4  1  0.47714800  0.27737000  0.94004900  1
  O  O5  1  0.91949100  0.27679200  0.94004300  1
  O  O6  1  0.08050900  0.72320800  0.05995700  1
  O  O7  1  0.84255000  0.73840200  0.80747800  1
  O  O8  1  0.58966500  0.29790800  0.55904300  1
  O  O9  1  0.84233300  0.29985600  0.80818600  1
  O  O10  1  0.41503000  0.72948500  0.94918200  1
  O  O11  1  0.17138400  0.73838400  0.69859700  1
  O  O12  1  0.33242300  0.26519700  0.80049900  1
  O  O13  1  0.66326200  0.26825900  0.69110000  1
  O  O14  1  0.22230700  0.26731400  0.69141400  1
  O  O15  1  0.97130200  0.26618800  0.44184000  1
  O  O16  1  0.02869800  0.73381200  0.55816000  1
  O  O17  1  0.28032900  0.73731300  0.80787400  1
  O  O18  1  0.58854800  0.73345200  0.55818800  1
  O  O19  1  0.91987300  0.73667600  0.44901200  1
  O  O20  1  0.08012700  0.26332400  0.55098800  1
  O  O21  1  0.66144000  0.70289300  0.69058500  1
  O  O22  1  0.82861600  0.26161600  0.30140300  1
  O  O23  1  0.41033500  0.70209200  0.44095700  1
  O  O24  1  0.41145200  0.26654800  0.44181200  1
  O  O25  1  0.15745000  0.26159800  0.19252200  1
  O  O26  1  0.77769300  0.73268600  0.30858600  1
  O  O27  1  0.33673800  0.73174100  0.30890000  1
  O  O28  1  0.33856000  0.29710700  0.30941500  1
  O  O29  1  0.66757700  0.73480300  0.19950100  1
  O  O30  1  0.15766700  0.70014400  0.19181400  1
  O  O31  1  0.71967100  0.26268700  0.19212600  1
loop_
_geom_bond_atom_site_label_1
_geom_bond_atom_site_label_2
_geom_bond_distance
_geom_bond_site_symmetry_2
Al0 O4 1.563594 1_554
Al0 O0 1.563594 1_555
Al0 O2 2.012235 1_555
Al0 O10 2.012235 1_554
Al0 O1 2.466643 1_555
Al0 O3 2.466643 1_554
Al1 O11 1.550195 1_545
Al1 O12 1.551705 1_555
Al1 O14 2.109192 1_555
Al2 O1 1.550522 1_555
Al2 O30 1.557229 1_555
Al2 O6 2.066383 1_555
Al2 O25 2.086900 1_555
Al3 O3 1.550522 1_555
Al3 O9 1.557229 1_555
Al3 O5 2.066383 1_555
Al3 O7 2.086900 1_555
Al4 O6 1.489480 1_555
Al4 O5 1.489480 1_454
Al4 O3 2.015149 1_454
Al4 O1 2.015149 1_555
Al4 O2 2.399642 1_455
Al4 O10 2.399642 1_554
Al5 O13 1.501815 1_555
Al5 O7 1.508132 1_555
Al5 O9 1.988886 1_555
Al5 O21 1.990147 1_555
Al5 O12 2.422664 1_555
Al5 O11 2.427099 1_655
Al6 O14 1.578756 1_555
Al6 O17 1.586092 1_555
Al6 O12 2.033475 1_555
Al6 O11 2.036130 1_555
Al6 O9 2.436654 1_455
Al6 O21 2.443976 1_555
Al7 O8 1.541621 1_555
Al7 O21 1.542294 1_555
Al7 O13 2.083339 1_555
Al7 O18 2.085633 1_555
Al8 O27 1.501815 1_555
Al8 O25 1.508132 1_555
Al8 O30 1.988886 1_555
Al8 O28 1.990147 1_555
Al8 O29 2.422664 1_555
Al8 O22 2.427099 1_455
Al9 O16 1.577271 1_555
Al9 O15 1.577271 1_455
Al9 O19 2.034342 1_455
Al9 O20 2.034342 1_555
Al9 O8 2.446392 1_455
Al9 O23 2.446392 1_555
Al10 O24 1.499612 1_555
Al10 O18 1.499612 1_555
Al10 O8 1.992766 1_555
Al10 O23 1.992766 1_555
Al10 O19 2.426943 1_555
Al10 O20 2.426943 1_555
Al11 O22 1.550195 1_565
Al11 O29 1.551705 1_555
Al11 O26 2.109192 1_555
Al12 O19 1.551353 1_445
Al12 O20 1.551353 1_555
Al13 O23 1.541621 1_555
Al13 O28 1.542294 1_555
Al13 O27 2.083339 1_555
Al13 O24 2.085633 1_555
Al14 O26 1.578756 1_555
Al14 O31 1.586092 1_555
Al14 O29 2.033475 1_555
Al14 O22 2.036130 1_555
Al14 O30 2.436654 1_655
Al14 O28 2.443976 1_555
Fe0 O0 1.694707 1_555
Fe0 O6 2.035267 1_655
Fe0 O1 2.328142 1_665
Fe0 O29 2.363182 1_555
Fe0 O25 2.599140 1_665
Fe1 O2 1.576211 1_555
Fe1 O10 1.576211 1_544
Fe2 O4 1.694707 1_555
Fe2 O5 2.035267 1_455
Fe2 O3 2.328142 1_445
Fe2 O12 2.363182 1_555
Fe2 O7 2.599140 1_445
Fe3 O16 1.688599 1_555
Fe3 O18 2.043321 1_555
Fe3 O8 2.345577 1_565
Fe3 O11 2.347075 1_555
Fe3 O13 2.601852 1_565
Fe4 O17 1.685769 1_555
Fe4 O7 2.048091 1_555
Fe4 O9 2.357506 1_565
Fe4 O10 2.385199 1_555
Fe4 O5 2.619140 1_565
Fe5 O15 1.688599 1_555
Fe5 O24 2.043321 1_555
Fe5 O23 2.345577 1_545
Fe5 O22 2.347075 1_555
Fe5 O27 2.601852 1_545
Fe6 O14 1.691418 1_655
Fe6 O13 2.039335 1_555
Fe6 O21 2.341280 1_545
Fe6 O20 2.353504 1_655
Fe6 O18 2.599950 1_545
Fe7 O26 1.691418 1_455
Fe7 O27 2.039335 1_555
Fe7 O28 2.341280 1_565
Fe7 O19 2.353504 1_455
Fe7 O24 2.599950 1_565
Fe8 O31 1.685769 1_555
Fe8 O25 2.048091 1_555
Fe8 O30 2.357506 1_545
Fe8 O2 2.385199 1_555
Fe8 O6 2.619140 1_545
