# generated using pymatgen
data_Li2Mn3(SiO4)2
_symmetry_space_group_name_H-M   'P 1'
_cell_length_a   5.12390800
_cell_length_b   9.06894913
_cell_length_c   13.64535774
_cell_angle_alpha   108.41403674
_cell_angle_beta   100.36917759
_cell_angle_gamma   90.49256679
_symmetry_Int_Tables_number   1
_chemical_formula_structural   Li2Mn3(SiO4)2
_chemical_formula_sum   'Li6 Mn9 Si6 O24'
_cell_volume   590.33075270
_cell_formula_units_Z   3
loop_
 _symmetry_equiv_pos_site_id
 _symmetry_equiv_pos_as_xyz
  1  'x, y, z'
loop_
 _atom_site_type_symbol
 _atom_site_label
 _atom_site_symmetry_multiplicity
 _atom_site_fract_x
 _atom_site_fract_y
 _atom_site_fract_z
 _atom_site_occupancy
  Li  Li0  1  0.43997400  0.35976400  0.76701800  1
  Li  Li1  1  0.39026600  0.62780600  0.68581900  1
  Li  Li2  1  0.25678800  0.52794300  0.46705100  1
  Li  Li3  1  0.48555500  0.09645200  0.85324800  1
  Li  Li4  1  0.72499000  0.34152500  0.36010000  1
  Li  Li5  1  0.60732200  0.22409200  0.09766700  1
  Mn  Mn0  1  0.01261400  0.00982300  0.99905300  1
  Mn  Mn1  1  0.28140600  0.21808000  0.49868400  1
  Mn  Mn2  1  0.19902900  0.45101900  0.18680900  1
  Mn  Mn3  1  0.28335500  0.85861100  0.34220200  1
  Mn  Mn4  1  0.93221900  0.60046200  0.83796900  1
  Mn  Mn5  1  0.59696700  0.52168200  0.03049800  1
  Mn  Mn6  1  0.68099700  0.92870900  0.19004700  1
  Mn  Mn7  1  0.92791800  0.12549000  0.68933200  1
  Mn  Mn8  1  0.84993200  0.71456100  0.53560200  1
  Si  Si0  1  0.03037400  0.31064800  0.93318800  1
  Si  Si1  1  0.49145300  0.79760600  0.93841900  1
  Si  Si2  1  0.18707800  0.15661400  0.25388800  1
  Si  Si3  1  0.38254400  0.93173500  0.59833100  1
  Si  Si4  1  0.83218100  0.41580800  0.59683200  1
  Si  Si5  1  0.75992800  0.63414200  0.28273400  1
  O  O0  1  0.04586400  0.54802400  0.59076000  1
  O  O1  1  0.02300000  0.27228100  0.60800300  1
  O  O2  1  0.18035500  0.24167900  0.83248800  1
  O  O3  1  0.07541700  0.91879200  0.61629100  1
  O  O4  1  0.37941700  0.97294600  0.96118700  1
  O  O5  1  0.06082800  0.23536100  0.35939000  1
  O  O6  1  0.32105400  0.65225700  0.84051400  1
  O  O7  1  0.38751800  0.99469500  0.49661000  1
  O  O8  1  0.39142800  0.27776800  0.23082600  1
  O  O9  1  0.48157400  0.75221600  0.57284100  1
  O  O10  1  0.55320700  0.06579300  0.70374700  1
  O  O11  1  0.36605700  0.00989800  0.26384700  1
  O  O12  1  0.28032500  0.37881000  0.03527000  1
  O  O13  1  0.43851500  0.64734800  0.27971100  1
  O  O14  1  0.78573200  0.81008800  0.90755100  1
  O  O15  1  0.58870000  0.36959300  0.49224300  1
  O  O16  1  0.67926900  0.47412500  0.69861700  1
  O  O17  1  0.83431900  0.44980600  0.91709200  1
  O  O18  1  0.83045300  0.18815500  0.95605300  1
  O  O19  1  0.52807000  0.75170100  0.04888500  1
  O  O20  1  0.90922100  0.58513000  0.38363800  1
  O  O21  1  0.80001900  0.49471700  0.17324700  1
  O  O22  1  0.87896400  0.80401200  0.28346300  1
  O  O23  1  0.92490700  0.09013100  0.15403500  1
loop_
_geom_bond_atom_site_label_1
_geom_bond_atom_site_label_2
_geom_bond_distance
_geom_bond_site_symmetry_2
Li0 O16 2.109939 1_555
Li0 O2 2.173076 1_555
Li0 O17 2.523647 1_555
Li0 O10 2.634841 1_555
Li0 O6 2.642062 1_555
Li0 O1 2.667733 1_555
Li1 O0 1.970091 1_555
Li1 O16 2.064453 1_555
Li1 O6 2.146118 1_555
Li1 O9 2.284275 1_555
Li2 O20 2.096474 1_455
Li2 O0 2.125236 1_555
Li2 O9 2.248013 1_555
Li2 O15 2.283902 1_555
Li3 O18 2.031716 1_555
Li3 O10 2.063231 1_555
Li3 O2 2.090946 1_555
Li3 O4 2.244940 1_545
Li4 O5 1.979098 1_655
Li4 O15 1.992524 1_555
Li4 O8 2.149531 1_555
Li4 O20 2.298201 1_555
Li5 O23 2.211189 1_555
Li5 O8 2.221759 1_555
Li5 O18 2.356111 1_554
Li5 O12 2.404713 1_555
Li5 O21 2.460630 1_555
Li5 O4 2.551700 1_544
Mn0 O4 2.040203 1_545
Mn0 O14 2.050360 1_445
Mn0 O18 2.063829 1_455
Mn0 O23 2.139955 1_456
Mn1 O5 2.081490 1_555
Mn1 O7 2.094950 1_545
Mn1 O15 2.112791 1_555
Mn1 O1 2.116324 1_555
Mn2 O8 2.052069 1_555
Mn2 O13 2.063850 1_555
Mn2 O21 2.072511 1_455
Mn2 O12 2.082654 1_555
Mn3 O7 2.046538 1_555
Mn3 O13 2.065933 1_555
Mn3 O11 2.070024 1_565
Mn3 O22 2.077216 1_455
Mn4 O6 2.034705 1_655
Mn4 O14 2.054200 1_555
Mn4 O16 2.078273 1_555
Mn4 O17 2.097419 1_555
Mn5 O19 2.062278 1_555
Mn5 O17 2.086255 1_554
Mn5 O12 2.090596 1_555
Mn5 O21 2.124197 1_555
Mn6 O11 2.073000 1_565
Mn6 O19 2.093503 1_555
Mn6 O22 2.097049 1_555
Mn6 O23 2.142563 1_565
Mn7 O3 2.047832 1_645
Mn7 O10 2.050241 1_555
Mn7 O1 2.087571 1_655
Mn7 O2 2.089455 1_655
Mn8 O9 2.045465 1_555
Mn8 O3 2.048065 1_655
Mn8 O0 2.080298 1_655
Mn8 O20 2.113083 1_555
O0 Si4 1.648104 1_455
O1 Si4 1.663446 1_455
O2 Si0 1.647826 1_555
O3 Si3 1.644436 1_555
O4 Si1 1.649980 1_555
O5 Si2 1.641535 1_555
O6 Si1 1.653003 1_555
O7 Si3 1.663263 1_555
O8 Si2 1.649208 1_555
O9 Si3 1.658007 1_555
O10 Si3 1.654074 1_545
O11 Si2 1.649311 1_555
O12 Si0 1.662191 1_554
O13 Si5 1.646314 1_555
O14 Si1 1.649146 1_555
O15 Si4 1.655614 1_555
O16 Si4 1.660545 1_555
O17 Si0 1.663601 1_655
O18 Si0 1.641708 1_655
O19 Si1 1.666313 1_554
O20 Si5 1.640685 1_555
O21 Si5 1.671680 1_555
O22 Si5 1.648443 1_555
O23 Si2 1.683082 1_655
