# generated using pymatgen
data_TiAlOs2
_symmetry_space_group_name_H-M   'P 1'
_cell_length_a   4.30760934
_cell_length_b   4.30760934
_cell_length_c   4.30760934
_cell_angle_alpha   59.98630105
_cell_angle_beta   59.98630105
_cell_angle_gamma   59.98630105
_symmetry_Int_Tables_number   1
_chemical_formula_structural   TiAlOs2
_chemical_formula_sum   'Ti1 Al1 Os2'
_cell_volume   56.50137427
_cell_formula_units_Z   1
loop_
 _symmetry_equiv_pos_site_id
 _symmetry_equiv_pos_as_xyz
  1  'x, y, z'
loop_
 _atom_site_type_symbol
 _atom_site_label
 _atom_site_symmetry_multiplicity
 _atom_site_fract_x
 _atom_site_fract_y
 _atom_site_fract_z
 _atom_site_occupancy
  Ti  Ti0  1  0.74999800  0.74999800  0.74999800  1
  Al  Al0  1  0.25000100  0.25000100  0.25000100  1
  Os  Os0  1  0.00007333  0.00007333  0.00007333  1
  Os  Os1  1  0.49992867  0.49992867  0.49992867  1
loop_
_geom_bond_atom_site_label_1
_geom_bond_atom_site_label_2
_geom_bond_distance
_geom_bond_site_symmetry_2
Al0 Os0 2.637371 1_555
Al0 Os1 2.637371 1_555
Al0 Os1 2.637661 1_545
Al0 Os1 2.637661 1_455
Al0 Os1 2.637661 1_554
Al0 Os0 2.637661 1_565
Al0 Os0 2.637661 1_655
Al0 Os0 2.637661 1_556
Os0 Ti0 2.637141 1_454
Os0 Ti0 2.637141 1_445
Os0 Ti0 2.637141 1_544
Os0 Ti0 2.638929 1_444
Os1 Ti0 2.637162 1_545
Os1 Ti0 2.637162 1_455
Os1 Ti0 2.637162 1_554
Os1 Ti0 2.638866 1_555
