# generated using pymatgen
data_K2Sn2O3
_symmetry_space_group_name_H-M   'P 1'
_cell_length_a   7.23726649
_cell_length_b   7.23726695
_cell_length_c   7.23726712
_cell_angle_alpha   109.47121544
_cell_angle_beta   109.47121674
_cell_angle_gamma   109.47123530
_symmetry_Int_Tables_number   1
_chemical_formula_structural   K2Sn2O3
_chemical_formula_sum   'K4 Sn4 O6'
_cell_volume   291.81112080
_cell_formula_units_Z   2
loop_
 _symmetry_equiv_pos_site_id
 _symmetry_equiv_pos_as_xyz
  1  'x, y, z'
loop_
 _atom_site_type_symbol
 _atom_site_label
 _atom_site_symmetry_multiplicity
 _atom_site_fract_x
 _atom_site_fract_y
 _atom_site_fract_z
 _atom_site_occupancy
  K  K0  1  0.48068380  0.50000000  0.00000000  1
  K  K1  1  0.01931620  0.01931620  0.01931620  1
  K  K2  1  0.00000000  0.48068380  0.50000000  1
  K  K3  1  0.50000000  -0.00000000  0.48068380  1
  Sn  Sn0  1  0.50000000  -0.00000000  0.00852063  1
  Sn  Sn1  1  0.00000000  0.00852063  0.50000000  1
  Sn  Sn2  1  0.49147937  0.49147937  0.49147937  1
  Sn  Sn3  1  0.00852063  0.50000000  0.00000000  1
  O  O0  1  0.75000000  0.98202852  0.23202852  1
  O  O1  1  0.25000000  0.51797148  0.26797148  1
  O  O2  1  0.98202852  0.23202852  0.75000000  1
  O  O3  1  0.23202852  0.75000000  0.98202852  1
  O  O4  1  0.26797148  0.25000000  0.51797148  1
  O  O5  1  0.51797148  0.26797148  0.25000000  1
loop_
_geom_bond_atom_site_label_1
_geom_bond_atom_site_label_2
_geom_bond_distance
_geom_bond_site_symmetry_2
K0 O0 2.858054 1_555
K0 O5 2.858054 1_555
K0 O4 2.858054 1_554
K0 O2 2.949673 1_454
K0 O1 2.949673 1_555
K0 O3 2.949673 1_554
K1 O0 2.858054 1_445
K1 O2 2.858054 1_454
K1 O3 2.858054 1_544
K1 O5 2.949673 1_555
K1 O1 2.949673 1_555
K1 O4 2.949673 1_555
K2 O5 2.858054 1_455
K2 O1 2.858054 1_555
K2 O3 2.858054 1_555
K2 O0 2.949673 1_445
K2 O2 2.949673 1_455
K2 O4 2.949673 1_555
K3 O2 2.858054 1_555
K3 O1 2.858054 1_545
K3 O4 2.858054 1_555
K3 O0 2.949673 1_545
K3 O5 2.949673 1_555
K3 O3 2.949673 1_544
O0 Sn1 2.062310 1_665
O0 Sn0 2.062310 1_565
O1 Sn3 2.062310 1_555
O1 Sn2 2.062310 1_555
O2 Sn3 2.062310 1_656
O2 Sn1 2.062310 1_655
O3 Sn0 2.062310 1_566
O3 Sn3 2.062310 1_556
O4 Sn1 2.062310 1_555
O4 Sn2 2.062310 1_555
O5 Sn0 2.062310 1_555
O5 Sn2 2.062310 1_555
