# generated using pymatgen
data_PuSi3
_symmetry_space_group_name_H-M   'P 1'
_cell_length_a   5.91235276
_cell_length_b   5.91234184
_cell_length_c   4.39321452
_cell_angle_alpha   90.00090771
_cell_angle_beta   89.99936230
_cell_angle_gamma   120.00011312
_symmetry_Int_Tables_number   1
_chemical_formula_structural   PuSi3
_chemical_formula_sum   'Pu2 Si6'
_cell_volume   132.99411419
_cell_formula_units_Z   2
loop_
 _symmetry_equiv_pos_site_id
 _symmetry_equiv_pos_as_xyz
  1  'x, y, z'
loop_
 _atom_site_type_symbol
 _atom_site_label
 _atom_site_symmetry_multiplicity
 _atom_site_fract_x
 _atom_site_fract_y
 _atom_site_fract_z
 _atom_site_occupancy
  Pu  Pu0  1  0.33333507  0.66666726  0.75000200  1
  Pu  Pu1  1  0.66666562  0.33333256  0.25000100  1
  Si  Si0  1  0.14229131  0.28458337  0.25000100  1
  Si  Si1  1  0.71541895  0.85770905  0.25000100  1
  Si  Si2  1  0.14229088  0.85770736  0.25000100  1
  Si  Si3  1  0.85770462  0.71540674  0.75000100  1
  Si  Si4  1  0.28459139  0.14229561  0.75000100  1
  Si  Si5  1  0.85770515  0.14229705  0.75000100  1
loop_
_geom_bond_atom_site_label_1
_geom_bond_atom_site_label_2
_geom_bond_distance
_geom_bond_site_symmetry_2
Pu0 Si2 2.941479 1_556
Pu0 Si0 2.941486 1_555
Pu0 Si1 2.941500 1_555
Pu0 Si1 2.941504 1_556
Pu0 Si0 2.941514 1_556
Pu0 Si2 2.941531 1_555
Pu0 Si5 2.966684 1_455
Pu0 Si5 2.966684 1_565
Pu0 Si4 2.966686 1_555
Pu0 Si4 2.966690 1_565
Pu0 Si3 2.966690 1_555
Pu0 Si3 2.966693 1_455
Pu1 Si3 2.941449 1_555
Pu1 Si5 2.941450 1_554
Pu1 Si4 2.941464 1_555
Pu1 Si4 2.941475 1_554
Pu1 Si3 2.941484 1_554
Pu1 Si5 2.941496 1_555
Pu1 Si2 2.966688 1_655
Pu1 Si2 2.966688 1_545
Pu1 Si1 2.966690 1_555
Pu1 Si0 2.966694 1_555
Pu1 Si1 2.966694 1_545
Pu1 Si0 2.966697 1_655
Si0 Si1 2.523819 1_445
Si0 Si2 2.523836 1_545
Si0 Si4 2.635962 1_554
Si0 Si5 2.635972 1_455
Si0 Si5 2.635981 1_454
Si0 Si4 2.636000 1_555
Si1 Si2 2.523822 1_655
Si1 Si3 2.635963 1_554
Si1 Si5 2.635965 1_565
Si1 Si5 2.635994 1_564
Si1 Si3 2.636001 1_555
Si2 Si4 2.635966 1_565
Si2 Si3 2.635972 1_455
Si2 Si3 2.635981 1_454
Si2 Si4 2.635995 1_564
Si3 Si4 2.523905 1_665
Si3 Si5 2.523920 1_565
Si4 Si5 2.523906 1_455
