# generated using pymatgen
data_MgScRh2
_symmetry_space_group_name_H-M   'P 1'
_cell_length_a   4.45823957
_cell_length_b   4.45823955
_cell_length_c   4.45823958
_cell_angle_alpha   59.99964281
_cell_angle_beta   59.99964249
_cell_angle_gamma   59.99964270
_symmetry_Int_Tables_number   1
_chemical_formula_structural   MgScRh2
_chemical_formula_sum   'Mg1 Sc1 Rh2'
_cell_volume   62.65730186
_cell_formula_units_Z   1
loop_
 _symmetry_equiv_pos_site_id
 _symmetry_equiv_pos_as_xyz
  1  'x, y, z'
loop_
 _atom_site_type_symbol
 _atom_site_label
 _atom_site_symmetry_multiplicity
 _atom_site_fract_x
 _atom_site_fract_y
 _atom_site_fract_z
 _atom_site_occupancy
  Mg  Mg0  1  0.24999909  0.24999909  0.24999909  1
  Sc  Sc0  1  0.75000006  0.75000007  0.75000007  1
  Rh  Rh0  1  -0.00000066  -0.00000066  -0.00000066  1
  Rh  Rh1  1  0.50000151  0.50000151  0.50000151  1
loop_
_geom_bond_atom_site_label_1
_geom_bond_atom_site_label_2
_geom_bond_distance
_geom_bond_site_symmetry_2
Mg0 Rh1 2.730082 1_455
Mg0 Rh1 2.730082 1_545
Mg0 Rh1 2.730082 1_554
Mg0 Rh0 2.730092 1_565
Mg0 Rh0 2.730092 1_655
Mg0 Rh0 2.730092 1_556
Mg0 Rh0 2.730108 1_555
Mg0 Rh1 2.730137 1_555
Rh0 Sc0 2.730093 1_544
Rh0 Sc0 2.730093 1_454
Rh0 Sc0 2.730093 1_445
Rh0 Sc0 2.730102 1_444
Rh1 Sc0 2.730095 1_555
Rh1 Sc0 2.730096 1_545
Rh1 Sc0 2.730096 1_554
Rh1 Sc0 2.730096 1_455
