# generated using pymatgen
data_Ti2MnFe
_symmetry_space_group_name_H-M   'P 1'
_cell_length_a   4.32103924
_cell_length_b   4.32326706
_cell_length_c   4.32218711
_cell_angle_alpha   60.02803175
_cell_angle_beta   60.02475801
_cell_angle_gamma   60.02422821
_symmetry_Int_Tables_number   1
_chemical_formula_structural   Ti2MnFe
_chemical_formula_sum   'Ti2 Mn1 Fe1'
_cell_volume   57.12701226
_cell_formula_units_Z   1
loop_
 _symmetry_equiv_pos_site_id
 _symmetry_equiv_pos_as_xyz
  1  'x, y, z'
loop_
 _atom_site_type_symbol
 _atom_site_label
 _atom_site_symmetry_multiplicity
 _atom_site_fract_x
 _atom_site_fract_y
 _atom_site_fract_z
 _atom_site_occupancy
  Ti  Ti0  1  0.00003239  -0.00000534  0.00001904  1
  Ti  Ti1  1  0.49996043  0.50001322  0.49998706  1
  Mn  Mn0  1  0.74999465  0.75000473  0.75000191  1
  Fe  Fe0  1  0.25001253  0.24998739  0.24999000  1
loop_
_geom_bond_atom_site_label_1
_geom_bond_atom_site_label_2
_geom_bond_distance
_geom_bond_site_symmetry_2
Mn0 Ti1 2.646404 1_555
Mn0 Ti0 2.646419 1_666
Mn0 Ti0 2.646745 1_566
Mn0 Ti1 2.646758 1_655
Mn0 Ti0 2.647622 1_665
Mn0 Ti1 2.647630 1_556
Mn0 Ti1 2.648360 1_565
Mn0 Ti0 2.648365 1_656
Fe0 Ti0 2.646063 1_555
Fe0 Ti1 2.646158 1_555
Fe0 Ti0 2.646948 1_655
Fe0 Ti1 2.647062 1_455
Fe0 Ti1 2.647693 1_554
Fe0 Ti0 2.647785 1_556
Fe0 Ti1 2.648239 1_545
Fe0 Ti0 2.648356 1_565
Fe0 Mn0 3.056459 1_545
Fe0 Mn0 3.056496 1_454
Fe0 Mn0 3.056882 1_554
Fe0 Mn0 3.056885 1_445
Fe0 Mn0 3.057024 1_544
Fe0 Mn0 3.057203 1_455
