# generated using pymatgen
data_Ba5Y3Br19
_symmetry_space_group_name_H-M   'P 1'
_cell_length_a   10.61282300
_cell_length_b   14.22741891
_cell_length_c   15.07750969
_cell_angle_alpha   85.85611700
_cell_angle_beta   70.26914345
_cell_angle_gamma   77.76058913
_symmetry_Int_Tables_number   1
_chemical_formula_structural   Ba5Y3Br19
_chemical_formula_sum   'Ba10 Y6 Br38'
_cell_volume   2094.22894513
_cell_formula_units_Z   2
loop_
 _symmetry_equiv_pos_site_id
 _symmetry_equiv_pos_as_xyz
  1  'x, y, z'
loop_
 _atom_site_type_symbol
 _atom_site_label
 _atom_site_symmetry_multiplicity
 _atom_site_fract_x
 _atom_site_fract_y
 _atom_site_fract_z
 _atom_site_occupancy
  Ba  Ba0  1  0.23287100  0.57275900  0.45434200  1
  Ba  Ba1  1  0.50722100  0.82560600  0.24568800  1
  Ba  Ba2  1  0.91858300  0.34070900  0.80330000  1
  Ba  Ba3  1  0.23952700  0.27573000  0.17156200  1
  Ba  Ba4  1  0.71592600  0.18813300  0.33809400  1
  Ba  Ba5  1  0.28407400  0.81186700  0.66190600  1
  Ba  Ba6  1  0.76047300  0.72427000  0.82843800  1
  Ba  Ba7  1  0.08141700  0.65929100  0.19670000  1
  Ba  Ba8  1  0.49277900  0.17439400  0.75431200  1
  Ba  Ba9  1  0.76712900  0.42724100  0.54565800  1
  Y  Y0  1  0.67470300  0.47089300  0.17088800  1
  Y  Y1  1  0.24338600  0.99689900  0.01454500  1
  Y  Y2  1  0.85034200  0.82484400  0.47864800  1
  Y  Y3  1  0.14965800  0.17515600  0.52135200  1
  Y  Y4  1  0.75661400  0.00310100  0.98545500  1
  Y  Y5  1  0.32529700  0.52910700  0.82911200  1
  Br  Br0  1  0.54449800  0.32999500  0.15015400  1
  Br  Br1  1  0.76618500  0.51138000  0.97518700  1
  Br  Br2  1  0.23870900  0.14749400  0.67714000  1
  Br  Br3  1  0.59342100  0.43576300  0.36899400  1
  Br  Br4  1  0.78530400  0.61910000  0.20960900  1
  Br  Br5  1  0.42750500  0.61350800  0.21627500  1
  Br  Br6  1  0.29057300  0.81055800  0.08087800  1
  Br  Br7  1  0.75673600  0.80524300  0.03663900  1
  Br  Br8  1  0.10682700  0.37633200  0.55944700  1
  Br  Br9  1  0.50000000  0.00000000  0.00000000  1
  Br  Br10  1  0.00000000  0.00000000  0.00000000  1
  Br  Br11  1  0.42086600  0.72929800  0.44674000  1
  Br  Br12  1  0.12035600  0.79989200  0.34510400  1
  Br  Br13  1  0.14005200  0.06514700  0.19933700  1
  Br  Br14  1  0.63726400  0.04714500  0.18039600  1
  Br  Br15  1  0.83559500  0.53969500  0.70381900  1
  Br  Br16  1  0.00945400  0.75718400  0.60483800  1
  Br  Br17  1  0.61909500  0.79787200  0.62562700  1
  Br  Br18  1  0.90361800  0.32241200  0.16406400  1
  Br  Br19  1  0.22021500  0.97893000  0.49410800  1
  Br  Br20  1  0.77978500  0.02107000  0.50589200  1
  Br  Br21  1  0.09638200  0.67758800  0.83593600  1
  Br  Br22  1  0.38090500  0.20212800  0.37437300  1
  Br  Br23  1  0.99054600  0.24281600  0.39516200  1
  Br  Br24  1  0.16440500  0.46030500  0.29618100  1
  Br  Br25  1  0.36273600  0.95285500  0.81960400  1
  Br  Br26  1  0.85994800  0.93485300  0.80066300  1
  Br  Br27  1  0.87964400  0.20010800  0.65489600  1
  Br  Br28  1  0.57913400  0.27070200  0.55326000  1
  Br  Br29  1  0.89317300  0.62366800  0.44055300  1
  Br  Br30  1  0.24326400  0.19475700  0.96336100  1
  Br  Br31  1  0.70942700  0.18944200  0.91912200  1
  Br  Br32  1  0.57249500  0.38649200  0.78372500  1
  Br  Br33  1  0.21469600  0.38090000  0.79039100  1
  Br  Br34  1  0.40657900  0.56423700  0.63100600  1
  Br  Br35  1  0.76129100  0.85250600  0.32286000  1
  Br  Br36  1  0.23381500  0.48862000  0.02481300  1
  Br  Br37  1  0.45550200  0.67000500  0.84984600  1
loop_
_geom_bond_atom_site_label_1
_geom_bond_atom_site_label_2
_geom_bond_distance
_geom_bond_site_symmetry_2
Ba0 Br11 3.262927 1_555
Ba0 Br24 3.314919 1_555
Ba0 Br8 3.409465 1_555
Ba0 Br16 3.499362 1_555
Ba0 Br5 3.561998 1_555
Ba0 Br29 3.597521 1_455
Ba0 Br12 3.674772 1_555
Ba0 Br34 3.698990 1_555
Ba0 Br3 3.737946 1_555
Ba1 Br11 3.156405 1_555
Ba1 Br7 3.346932 1_555
Ba1 Br35 3.375089 1_555
Ba1 Br5 3.398164 1_555
Ba1 Br4 3.620562 1_555
Ba1 Br14 3.645148 1_565
Ba1 Br12 3.954734 1_555
Ba1 Br6 3.956080 1_555
Ba2 Br15 3.203348 1_555
Ba2 Br33 3.251705 1_655
Ba2 Br27 3.286450 1_555
Ba2 Br31 3.387260 1_555
Ba2 Br1 3.412146 1_555
Ba2 Br8 3.600915 1_655
Ba2 Br32 3.700255 1_555
Ba2 Br2 3.892292 1_655
Ba3 Br24 3.142614 1_555
Ba3 Br13 3.335786 1_555
Ba3 Br0 3.390270 1_555
Ba3 Br30 3.406209 1_554
Ba3 Br18 3.524214 1_455
Ba3 Br23 3.584536 1_455
Ba3 Br36 3.621818 1_555
Ba3 Br22 3.829809 1_555
Ba4 Br28 3.264949 1_555
Ba4 Br22 3.373864 1_555
Ba4 Br18 3.444212 1_555
Ba4 Br20 3.480700 1_555
Ba4 Br3 3.493707 1_555
Ba4 Br23 3.548423 1_555
Ba4 Br14 3.621260 1_555
Ba5 Br11 3.264949 1_555
Ba5 Br17 3.373864 1_555
Ba5 Br21 3.444212 1_555
Ba5 Br19 3.480700 1_555
Ba5 Br34 3.493707 1_555
Ba5 Br16 3.548423 1_555
Ba5 Br25 3.621260 1_555
Ba6 Br15 3.142614 1_555
Ba6 Br26 3.335786 1_555
Ba6 Br37 3.390270 1_555
Ba6 Br7 3.406209 1_556
Ba6 Br21 3.524214 1_655
Ba6 Br16 3.584536 1_655
Ba6 Br1 3.621818 1_555
Ba6 Br17 3.829809 1_555
Ba7 Br24 3.203348 1_555
Ba7 Br4 3.251705 1_455
Ba7 Br12 3.286450 1_555
Ba7 Br6 3.387260 1_555
Ba7 Br36 3.412146 1_555
Ba7 Br29 3.600915 1_455
Ba7 Br5 3.700255 1_555
Ba7 Br35 3.892292 1_455
Ba8 Br28 3.156405 1_555
Ba8 Br30 3.346932 1_555
Ba8 Br2 3.375089 1_555
Ba8 Br32 3.398164 1_555
Ba8 Br33 3.620562 1_555
Ba8 Br25 3.645148 1_545
Ba8 Br27 3.954734 1_555
Ba8 Br31 3.956080 1_555
Ba9 Br28 3.262927 1_555
Ba9 Br15 3.314919 1_555
Ba9 Br29 3.409465 1_555
Ba9 Br23 3.499362 1_555
Ba9 Br32 3.561998 1_555
Ba9 Br8 3.597521 1_655
Ba9 Br27 3.674772 1_555
Ba9 Br3 3.698990 1_555
Ba9 Br34 3.737946 1_555
Br0 Y0 2.753623 1_555
Br1 Y0 2.835159 1_556
Br2 Y3 2.788003 1_555
Br3 Y0 2.853608 1_555
Br4 Y0 2.802651 1_555
Br5 Y0 2.863460 1_555
Br6 Y1 2.769787 1_555
Br7 Y4 2.864438 1_564
Br8 Y3 2.870275 1_555
Br9 Y4 2.667063 1_554
Br9 Y1 2.667063 1_545
Br10 Y1 2.656079 1_545
Br10 Y4 2.656079 1_454
Br12 Y2 2.857983 1_455
Br13 Y1 2.790129 1_545
Br14 Y4 2.837604 1_554
Br16 Y2 2.934882 1_455
Br17 Y2 2.772268 1_555
Br18 Y0 2.839370 1_555
Br19 Y3 2.755943 1_565
Br20 Y2 2.755943 1_545
Br21 Y5 2.839370 1_555
Br22 Y3 2.772268 1_555
Br23 Y3 2.934882 1_655
Br25 Y1 2.837604 1_556
Br26 Y4 2.790129 1_565
Br27 Y3 2.857983 1_655
Br29 Y2 2.870275 1_555
Br30 Y1 2.864438 1_546
Br31 Y4 2.769787 1_555
Br32 Y5 2.863460 1_555
Br33 Y5 2.802651 1_555
Br34 Y5 2.853608 1_555
Br35 Y2 2.788003 1_555
Br36 Y5 2.835159 1_554
Br37 Y5 2.753623 1_555
