# generated using pymatgen
data_Li2Mn3(BO3)3
_symmetry_space_group_name_H-M   'P 1'
_cell_length_a   8.82437206
_cell_length_b   8.82437206
_cell_length_c   14.40464162
_cell_angle_alpha   89.94873101
_cell_angle_beta   89.94873101
_cell_angle_gamma   42.09772979
_symmetry_Int_Tables_number   1
_chemical_formula_structural   Li2Mn3(BO3)3
_chemical_formula_sum   'Li8 Mn12 B12 O36'
_cell_volume   751.97271835
_cell_formula_units_Z   4
loop_
 _symmetry_equiv_pos_site_id
 _symmetry_equiv_pos_as_xyz
  1  'x, y, z'
loop_
 _atom_site_type_symbol
 _atom_site_label
 _atom_site_symmetry_multiplicity
 _atom_site_fract_x
 _atom_site_fract_y
 _atom_site_fract_z
 _atom_site_occupancy
  Li  Li0  1  0.14484200  0.14484200  0.49038000  1
  Li  Li1  1  0.17104600  0.17104600  0.86085700  1
  Li  Li2  1  0.39620300  0.39620300  0.98577400  1
  Li  Li3  1  0.68568100  0.68568100  0.15134200  1
  Li  Li4  1  0.42093300  0.42093300  0.36140800  1
  Li  Li5  1  0.64692300  0.64692300  0.48937200  1
  Li  Li6  1  0.89376800  0.89376800  0.99221900  1
  Li  Li7  1  0.93556500  0.93556500  0.64878600  1
  Mn  Mn0  1  0.32953600  0.83955200  0.31087300  1
  Mn  Mn1  1  0.31981700  0.82254800  0.00546500  1
  Mn  Mn2  1  0.09358800  0.59387100  0.18380000  1
  Mn  Mn3  1  0.08311900  0.58617000  0.81094300  1
  Mn  Mn4  1  0.07288500  0.57033300  0.50565800  1
  Mn  Mn5  1  0.34663700  0.83988900  0.68406200  1
  Mn  Mn6  1  0.83988900  0.34663700  0.68406200  1
  Mn  Mn7  1  0.57033300  0.07288500  0.50565800  1
  Mn  Mn8  1  0.58617000  0.08311900  0.81094300  1
  Mn  Mn9  1  0.59387100  0.09358800  0.18380000  1
  Mn  Mn10  1  0.82254800  0.31981700  0.00546500  1
  Mn  Mn11  1  0.83955200  0.32953600  0.31087300  1
  B  B0  1  0.24952400  0.24952400  0.33705700  1
  B  B1  1  0.24501400  0.24501400  0.66590100  1
  B  B2  1  0.00223700  0.50313900  0.00024400  1
  B  B3  1  0.25384800  0.75349100  0.50017700  1
  B  B4  1  0.49806700  0.49806700  0.16614700  1
  B  B5  1  0.49741600  0.49741600  0.83594600  1
  B  B6  1  0.74640600  0.74640600  0.33296500  1
  B  B7  1  0.75349100  0.25384800  0.50017700  1
  B  B8  1  0.50313900  0.00223700  0.00024400  1
  B  B9  1  0.75198100  0.75198100  0.66363200  1
  B  B10  1  0.00001500  0.00001500  0.16175900  1
  B  B11  1  0.99886600  0.99886600  0.83478400  1
  O  O0  1  0.06939300  0.06939300  0.78214700  1
  O  O1  1  0.01221200  0.01221200  0.25686000  1
  O  O2  1  0.00343100  0.00343100  0.93041800  1
  O  O3  1  0.06618500  0.06618500  0.10247800  1
  O  O4  1  0.17158000  0.17158000  0.30339700  1
  O  O5  1  0.16604200  0.16604200  0.62934300  1
  O  O6  1  0.23047400  0.76858900  0.59545100  1
  O  O7  1  0.41536100  0.95021700  0.94881200  1
  O  O8  1  0.07728700  0.57892200  0.95569800  1
  O  O9  1  0.33182800  0.82668800  0.45599400  1
  O  O10  1  0.20031800  0.66725700  0.44890100  1
  O  O11  1  0.51738200  0.98043900  0.09535400  1
  O  O12  1  0.42095800  0.42095800  0.12650900  1
  O  O13  1  0.31075100  0.31075100  0.60827700  1
  O  O14  1  0.41631500  0.41631500  0.81070400  1
  O  O15  1  0.50593500  0.50593500  0.26268900  1
  O  O16  1  0.51480600  0.51480600  0.93067600  1
  O  O17  1  0.55815100  0.55815100  0.77018800  1
  O  O18  1  0.56713700  0.56713700  0.11106300  1
  O  O19  1  0.67419400  0.67419400  0.62652500  1
  O  O20  1  0.26069000  0.26069000  0.43267000  1
  O  O21  1  0.25515500  0.25515500  0.76244500  1
  O  O22  1  0.31758100  0.31758100  0.27994900  1
  O  O23  1  0.66802600  0.66802600  0.29549200  1
  O  O24  1  0.98043900  0.51738200  0.09535400  1
  O  O25  1  0.66725700  0.20031800  0.44890100  1
  O  O26  1  0.82668800  0.33182800  0.45599400  1
  O  O27  1  0.57892200  0.07728700  0.95569800  1
  O  O28  1  0.95021700  0.41536100  0.94881200  1
  O  O29  1  0.76858900  0.23047400  0.59545100  1
  O  O30  1  0.81004400  0.81004400  0.27092200  1
  O  O31  1  0.75752700  0.75752700  0.42800500  1
  O  O32  1  0.76270300  0.76270300  0.75893400  1
  O  O33  1  0.82020800  0.82020800  0.60575000  1
  O  O34  1  0.92118100  0.92118100  0.12689800  1
  O  O35  1  0.92396300  0.92396300  0.79013600  1
loop_
_geom_bond_atom_site_label_1
_geom_bond_atom_site_label_2
_geom_bond_distance
_geom_bond_site_symmetry_2
Li0 O26 1.994105 1_455
Li0 O9 1.994105 1_545
Li0 O5 2.032271 1_555
Li0 O20 2.080632 1_555
Li1 O28 1.953564 1_455
Li1 O7 1.953564 1_545
Li1 O21 1.981172 1_555
Li1 O0 2.023000 1_555
Li2 O27 1.993605 1_555
Li2 O8 1.993605 1_555
Li2 O12 2.068219 1_556
Li2 O16 2.107888 1_555
Li2 O14 2.543170 1_555
Li3 O24 1.971633 1_555
Li3 O11 1.971633 1_555
Li3 O18 2.037467 1_555
Li3 O23 2.096417 1_555
Li4 O25 1.955469 1_555
Li4 O10 1.955469 1_555
Li4 O15 1.994623 1_555
Li4 O22 2.068471 1_555
Li5 O9 1.983494 1_555
Li5 O26 1.983494 1_555
Li5 O31 2.024146 1_555
Li5 O19 2.026480 1_555
Li6 O27 1.985565 1_565
Li6 O8 1.985565 1_655
Li6 O34 1.992276 1_556
Li6 O2 2.012966 1_665
Li7 O29 1.960040 1_565
Li7 O6 1.960040 1_655
Li7 O33 1.999195 1_555
Li7 O35 2.044862 1_555
Mn0 O9 2.092696 1_555
Mn0 O1 2.106702 1_565
Mn0 O4 2.116157 1_565
Mn0 O23 2.133573 1_555
Mn0 O15 2.184674 1_555
Mn1 O7 2.013143 1_554
Mn1 O3 2.107913 1_565
Mn1 O16 2.136249 1_554
Mn1 O18 2.203809 1_555
Mn1 O2 2.213633 1_564
Mn2 O24 2.019806 1_455
Mn2 O30 2.095200 1_455
Mn2 O22 2.148644 1_555
Mn2 O34 2.192190 1_455
Mn2 O12 2.193452 1_555
Mn3 O14 2.086046 1_555
Mn3 O8 2.087826 1_555
Mn3 O32 2.108980 1_455
Mn3 O35 2.175789 1_455
Mn3 O21 2.178536 1_555
Mn4 O10 2.022098 1_555
Mn4 O20 2.144741 1_555
Mn4 O33 2.148533 1_455
Mn4 O13 2.168461 1_555
Mn4 O31 2.214611 1_455
Mn5 O6 2.009162 1_555
Mn5 O17 2.077537 1_555
Mn5 O5 2.153132 1_565
Mn5 O0 2.174685 1_565
Mn5 O19 2.214879 1_555
Mn6 O29 2.009162 1_555
Mn6 O17 2.077537 1_555
Mn6 O5 2.153132 1_655
Mn6 O0 2.174685 1_655
Mn6 O19 2.214879 1_555
Mn7 O25 2.022098 1_555
Mn7 O20 2.144741 1_555
Mn7 O33 2.148533 1_545
Mn7 O13 2.168461 1_555
Mn7 O31 2.214611 1_545
Mn8 O14 2.086046 1_555
Mn8 O27 2.087826 1_555
Mn8 O32 2.108980 1_545
Mn8 O35 2.175789 1_545
Mn8 O21 2.178536 1_555
Mn9 O11 2.019806 1_545
Mn9 O30 2.095200 1_545
Mn9 O22 2.148644 1_555
Mn9 O34 2.192190 1_545
Mn9 O12 2.193452 1_555
Mn10 O28 2.013143 1_554
Mn10 O3 2.107913 1_655
Mn10 O16 2.136249 1_554
Mn10 O18 2.203809 1_555
Mn10 O2 2.213633 1_654
Mn11 O26 2.092696 1_555
Mn11 O1 2.106702 1_655
Mn11 O4 2.116157 1_655
Mn11 O23 2.133573 1_555
Mn11 O15 2.184674 1_555
B0 O4 1.372767 1_555
B0 O20 1.389671 1_555
B0 O22 1.389792 1_555
B1 O13 1.363686 1_555
B1 O21 1.400836 1_555
B1 O5 1.403779 1_555
B2 O28 1.374365 1_454
B2 O24 1.376127 1_455
B2 O8 1.397592 1_554
B3 O10 1.372153 1_555
B3 O6 1.379414 1_555
B3 O9 1.397805 1_555
B4 O18 1.386408 1_555
B4 O12 1.393011 1_555
B4 O15 1.396802 1_555
B5 O17 1.377010 1_555
B5 O14 1.384762 1_555
B5 O16 1.394559 1_555
B6 O30 1.376814 1_555
B6 O31 1.381391 1_555
B6 O23 1.399786 1_555
B7 O25 1.372153 1_555
B7 O29 1.379414 1_555
B7 O26 1.397805 1_555
B8 O7 1.374365 1_544
B8 O11 1.376127 1_545
B8 O27 1.397592 1_554
B9 O32 1.384272 1_555
B9 O19 1.388737 1_555
B9 O33 1.398659 1_555
B10 O3 1.383932 1_555
B10 O1 1.384739 1_555
B10 O34 1.392651 1_445
B11 O2 1.379696 1_665
B11 O0 1.386599 1_665
B11 O35 1.391853 1_555
