# generated using pymatgen
data_U(MoO6)2
_symmetry_space_group_name_H-M   'P 1'
_cell_length_a   6.66612900
_cell_length_b   11.62664200
_cell_length_c   13.68003000
_cell_angle_alpha   90.00000000
_cell_angle_beta   90.00000000
_cell_angle_gamma   90.00000000
_symmetry_Int_Tables_number   1
_chemical_formula_structural   U(MoO6)2
_chemical_formula_sum   'U4 Mo8 O48'
_cell_volume   1060.26655833
_cell_formula_units_Z   4
loop_
 _symmetry_equiv_pos_site_id
 _symmetry_equiv_pos_as_xyz
  1  'x, y, z'
loop_
 _atom_site_type_symbol
 _atom_site_label
 _atom_site_symmetry_multiplicity
 _atom_site_fract_x
 _atom_site_fract_y
 _atom_site_fract_z
 _atom_site_occupancy
  U  U0  1  0.81009500  0.24094100  0.50323700  1
  U  U1  1  0.18990500  0.74094100  0.49676300  1
  U  U2  1  0.81009500  0.74094100  0.99676300  1
  U  U3  1  0.18990500  0.24094100  0.00323700  1
  Mo  Mo0  1  0.65876700  0.58357500  0.54343600  1
  Mo  Mo1  1  0.34123300  0.08357500  0.45656400  1
  Mo  Mo2  1  0.65876700  0.08357500  0.95656400  1
  Mo  Mo3  1  0.34123300  0.58357500  0.04343600  1
  Mo  Mo4  1  0.33549600  0.39900600  0.45759400  1
  Mo  Mo5  1  0.66450400  0.89900600  0.54240600  1
  Mo  Mo6  1  0.33549600  0.89900600  0.04240600  1
  Mo  Mo7  1  0.66450400  0.39900600  0.95759400  1
  O  O0  1  0.79894800  0.24217200  0.63421000  1
  O  O1  1  0.20105200  0.74217200  0.36579000  1
  O  O2  1  0.79894800  0.74217200  0.86579000  1
  O  O3  1  0.20105200  0.24217200  0.13421000  1
  O  O4  1  0.81880900  0.24047200  0.37214900  1
  O  O5  1  0.18119100  0.74047200  0.62785100  1
  O  O6  1  0.81880900  0.74047200  0.12785100  1
  O  O7  1  0.18119100  0.24047200  0.87214900  1
  O  O8  1  0.67183100  0.58014500  0.66755700  1
  O  O9  1  0.32816900  0.08014500  0.33244300  1
  O  O10  1  0.67183100  0.08014500  0.83244300  1
  O  O11  1  0.32816900  0.58014500  0.16755700  1
  O  O12  1  0.81918700  0.53034200  0.30230100  1
  O  O13  1  0.18081300  0.03034200  0.69769900  1
  O  O14  1  0.81918700  0.03034200  0.19769900  1
  O  O15  1  0.18081300  0.53034200  0.80230100  1
  O  O16  1  0.25557000  0.40695600  0.68629300  1
  O  O17  1  0.74443000  0.90695600  0.31370700  1
  O  O18  1  0.25557000  0.90695600  0.81370700  1
  O  O19  1  0.74443000  0.40695600  0.18629300  1
  O  O20  1  0.32096400  0.40456800  0.33364400  1
  O  O21  1  0.67903600  0.90456800  0.66635600  1
  O  O22  1  0.32096400  0.90456800  0.16635600  1
  O  O23  1  0.67903600  0.40456800  0.83364400  1
  O  O24  1  0.90406800  0.61769500  0.50078100  1
  O  O25  1  0.09593200  0.11769500  0.49921900  1
  O  O26  1  0.90406800  0.11769500  0.99921900  1
  O  O27  1  0.09593200  0.61769500  0.00078100  1
  O  O28  1  0.64164200  0.42506100  0.50210400  1
  O  O29  1  0.35835800  0.92506100  0.49789600  1
  O  O30  1  0.64164200  0.92506100  0.99789600  1
  O  O31  1  0.35835800  0.42506100  0.00210400  1
  O  O32  1  0.35200600  0.55809500  0.50110500  1
  O  O33  1  0.64799400  0.05809500  0.49889500  1
  O  O34  1  0.35200600  0.05809500  0.99889500  1
  O  O35  1  0.64799400  0.55809500  0.00110500  1
  O  O36  1  0.44023200  0.24175700  0.48387800  1
  O  O37  1  0.55976800  0.74175700  0.51612200  1
  O  O38  1  0.44023200  0.74175700  0.01612200  1
  O  O39  1  0.55976800  0.24175700  0.98387800  1
  O  O40  1  0.08649100  0.36598900  0.49543200  1
  O  O41  1  0.91350900  0.86598900  0.50456800  1
  O  O42  1  0.08649100  0.86598900  0.00456800  1
  O  O43  1  0.91350900  0.36598900  0.99543200  1
  O  O44  1  0.12928800  0.47822800  0.72362400  1
  O  O45  1  0.87071200  0.97822800  0.27637600  1
  O  O46  1  0.12928800  0.97822800  0.77637600  1
  O  O47  1  0.87071200  0.47822800  0.22362400  1
loop_
_geom_bond_atom_site_label_1
_geom_bond_atom_site_label_2
_geom_bond_distance
_geom_bond_site_symmetry_2
Mo0 O8 1.700678 1_555
Mo0 O24 1.780948 1_555
Mo0 O28 1.931148 1_555
Mo0 O37 1.989352 1_555
Mo0 O32 2.145870 1_555
Mo1 O9 1.700678 1_555
Mo1 O25 1.780948 1_555
Mo1 O29 1.931148 1_545
Mo1 O36 1.989352 1_555
Mo1 O33 2.145870 1_555
Mo2 O10 1.700678 1_555
Mo2 O26 1.780948 1_555
Mo2 O30 1.931148 1_545
Mo2 O39 1.989352 1_555
Mo2 O34 2.145870 1_555
Mo3 O11 1.700678 1_555
Mo3 O27 1.780948 1_555
Mo3 O31 1.931148 1_555
Mo3 O38 1.989352 1_555
Mo3 O35 2.145870 1_555
Mo4 O20 1.699635 1_555
Mo4 O40 1.780608 1_555
Mo4 O32 1.946200 1_555
Mo4 O36 1.989811 1_555
Mo4 O28 2.151145 1_555
Mo5 O21 1.699635 1_555
Mo5 O41 1.780608 1_555
Mo5 O33 1.946200 1_565
Mo5 O37 1.989811 1_555
Mo5 O29 2.151145 1_555
Mo6 O22 1.699635 1_555
Mo6 O42 1.780608 1_555
Mo6 O34 1.946200 1_564
Mo6 O38 1.989811 1_555
Mo6 O30 2.151145 1_554
Mo7 O23 1.699635 1_555
Mo7 O43 1.780608 1_555
Mo7 O35 1.946200 1_556
Mo7 O39 1.989811 1_555
Mo7 O31 2.151145 1_556
O0 U0 1.793312 1_555
O1 U1 1.793312 1_555
O2 U2 1.793312 1_555
O3 U3 1.793312 1_555
O4 U0 1.794237 1_555
O5 U1 1.794237 1_555
O6 U2 1.794237 1_554
O7 U3 1.794237 1_556
O12 O47 1.282003 1_555
O13 O46 1.282003 1_545
O14 O45 1.282003 1_545
O15 O44 1.282003 1_555
O16 O44 1.286903 1_555
O17 O45 1.286903 1_555
O18 O46 1.286903 1_555
O19 O47 1.286903 1_555
O24 U1 2.384739 1_655
O25 U0 2.384739 1_455
O26 U3 2.384739 1_656
O27 U2 2.384739 1_454
O28 U0 2.417394 1_555
O29 U1 2.417394 1_555
O30 U2 2.417394 1_555
O31 U3 2.417394 1_555
O32 U1 2.385494 1_555
O33 U0 2.385494 1_555
O34 U3 2.385494 1_556
O35 U2 2.385494 1_554
O36 U0 2.479755 1_555
O37 U1 2.479755 1_555
O38 U2 2.479755 1_554
O39 U3 2.479755 1_556
O40 U0 2.349461 1_455
O41 U1 2.349461 1_655
O42 U2 2.349461 1_454
O43 U3 2.349461 1_656
