# generated using pymatgen
data_Li2Mn3(BO3)3
_symmetry_space_group_name_H-M   'P 1'
_cell_length_a   5.29341900
_cell_length_b   6.20144549
_cell_length_c   11.78264497
_cell_angle_alpha   84.47723937
_cell_angle_beta   79.00490243
_cell_angle_gamma   87.45505676
_symmetry_Int_Tables_number   1
_chemical_formula_structural   Li2Mn3(BO3)3
_chemical_formula_sum   'Li4 Mn6 B6 O18'
_cell_volume   377.79025415
_cell_formula_units_Z   2
loop_
 _symmetry_equiv_pos_site_id
 _symmetry_equiv_pos_as_xyz
  1  'x, y, z'
loop_
 _atom_site_type_symbol
 _atom_site_label
 _atom_site_symmetry_multiplicity
 _atom_site_fract_x
 _atom_site_fract_y
 _atom_site_fract_z
 _atom_site_occupancy
  Li  Li0  1  0.15400600  0.85855900  0.54292400  1
  Li  Li1  1  0.52160900  0.79378800  0.13422900  1
  Li  Li2  1  0.84599400  0.14144100  0.45707600  1
  Li  Li3  1  0.47839100  0.20621200  0.86577100  1
  Mn  Mn0  1  0.69108500  0.69224300  0.44762600  1
  Mn  Mn1  1  0.30891500  0.30775700  0.55237400  1
  Mn  Mn2  1  0.98408800  0.96560000  0.21139700  1
  Mn  Mn3  1  0.35636100  0.36830600  0.12141500  1
  Mn  Mn4  1  0.01591200  0.03440000  0.78860300  1
  Mn  Mn5  1  0.64363900  0.63169400  0.87858500  1
  B  B0  1  0.40985700  0.07262200  0.33184200  1
  B  B1  1  0.74483600  0.38471300  0.66282100  1
  B  B2  1  0.08131400  0.75866300  0.99586300  1
  B  B3  1  0.25516400  0.61528700  0.33717900  1
  B  B4  1  0.59014300  0.92737800  0.66815800  1
  B  B5  1  0.91868600  0.24133700  0.00413700  1
  O  O0  1  0.33623100  0.97131900  0.65637600  1
  O  O1  1  0.77809100  0.87570300  0.57711500  1
  O  O2  1  0.66376900  0.02868100  0.34362400  1
  O  O3  1  0.22190900  0.12429700  0.42288500  1
  O  O4  1  0.34630400  0.04643900  0.22290000  1
  O  O5  1  0.70054600  0.38274900  0.54871600  1
  O  O6  1  0.32457600  0.69179300  0.01481200  1
  O  O7  1  0.29945400  0.61725100  0.45128400  1
  O  O8  1  0.88759000  0.81781000  0.08463100  1
  O  O9  1  0.43540800  0.54277000  0.25088500  1
  O  O10  1  0.01802100  0.75715200  0.88459300  1
  O  O11  1  0.01573400  0.70384900  0.31725200  1
  O  O12  1  0.65369600  0.95356100  0.77710000  1
  O  O13  1  0.98197900  0.24284800  0.11540700  1
  O  O14  1  0.11241000  0.18219000  0.91536900  1
  O  O15  1  0.67542400  0.30820700  0.98518800  1
  O  O16  1  0.56459200  0.45723000  0.74911500  1
  O  O17  1  0.98426600  0.29615100  0.68274800  1
loop_
_geom_bond_atom_site_label_1
_geom_bond_atom_site_label_2
_geom_bond_distance
_geom_bond_site_symmetry_2
Li0 O1 1.953682 1_455
Li0 O7 1.972216 1_555
Li0 O0 1.984451 1_555
Li0 O3 2.062878 1_565
Li1 O8 1.921932 1_555
Li1 O9 1.983110 1_555
Li1 O4 2.055162 1_565
Li1 O6 2.063333 1_555
Li2 O3 1.953682 1_655
Li2 O5 1.972216 1_555
Li2 O2 1.984451 1_555
Li2 O1 2.062878 1_545
Li3 O14 1.921932 1_555
Li3 O16 1.983110 1_555
Li3 O12 2.055162 1_545
Li3 O15 2.063333 1_555
Mn0 O11 2.073864 1_655
Mn0 O1 2.117318 1_555
Mn0 O7 2.136216 1_555
Mn0 O5 2.163141 1_555
Mn0 O2 2.329014 1_565
Mn1 O17 2.073864 1_455
Mn1 O3 2.117318 1_555
Mn1 O5 2.136216 1_555
Mn1 O7 2.163141 1_555
Mn1 O0 2.329014 1_545
Mn2 O13 1.965771 1_565
Mn2 O11 1.970899 1_655
Mn2 O8 1.981911 1_555
Mn2 O4 2.035567 1_665
Mn2 O2 2.122753 1_565
Mn3 O9 2.067408 1_555
Mn3 O15 2.143119 1_554
Mn3 O13 2.176866 1_455
Mn3 O4 2.223196 1_555
Mn3 O6 2.279478 1_555
Mn4 O10 1.965771 1_545
Mn4 O17 1.970899 1_455
Mn4 O14 1.981911 1_555
Mn4 O12 2.035567 1_445
Mn4 O0 2.122753 1_545
Mn5 O16 2.067408 1_555
Mn5 O6 2.143119 1_556
Mn5 O10 2.176866 1_655
Mn5 O12 2.223196 1_555
Mn5 O15 2.279478 1_555
B0 O3 1.368939 1_555
B0 O2 1.389747 1_555
B0 O4 1.413125 1_555
B1 O16 1.351386 1_555
B1 O5 1.409369 1_555
B1 O17 1.410655 1_555
B2 O8 1.382527 1_456
B2 O6 1.387221 1_556
B2 O10 1.414708 1_555
B3 O9 1.351386 1_555
B3 O7 1.409369 1_555
B3 O11 1.410655 1_555
B4 O1 1.368939 1_555
B4 O0 1.389747 1_555
B4 O12 1.413125 1_555
B5 O14 1.382527 1_654
B5 O15 1.387221 1_554
B5 O13 1.414708 1_555
