# generated using pymatgen
data_BaZrF6
_symmetry_space_group_name_H-M   'P 1'
_cell_length_a   5.46635855
_cell_length_b   6.92062829
_cell_length_c   6.92062984
_cell_angle_alpha   113.12358384
_cell_angle_beta   90.00000000
_cell_angle_gamma   90.00000000
_symmetry_Int_Tables_number   1
_chemical_formula_structural   BaZrF6
_chemical_formula_sum   'Ba2 Zr2 F12'
_cell_volume   240.77784450
_cell_formula_units_Z   2
loop_
 _symmetry_equiv_pos_site_id
 _symmetry_equiv_pos_as_xyz
  1  'x, y, z'
loop_
 _atom_site_type_symbol
 _atom_site_label
 _atom_site_symmetry_multiplicity
 _atom_site_fract_x
 _atom_site_fract_y
 _atom_site_fract_z
 _atom_site_occupancy
  Ba  Ba0  1  0.43612236  0.75000000  0.25000000  1
  Ba  Ba1  1  0.56387764  0.25000000  0.75000000  1
  Zr  Zr0  1  -0.00000000  0.75000000  0.75000000  1
  Zr  Zr1  1  -0.00000000  0.25000000  0.25000000  1
  F  F0  1  0.75178813  0.43410589  0.18128376  1
  F  F1  1  0.75178813  0.06589411  0.31871624  1
  F  F2  1  0.24821187  0.18128376  0.43410589  1
  F  F3  1  0.24821187  0.31871624  0.06589411  1
  F  F4  1  0.84195970  0.43467522  0.56532478  1
  F  F5  1  0.84195970  0.06532478  0.93467522  1
  F  F6  1  0.15804030  0.56532478  0.43467522  1
  F  F7  1  0.15804030  0.93467522  0.06532478  1
  F  F8  1  0.75178813  0.68128376  0.93410589  1
  F  F9  1  0.75178813  0.81871624  0.56589411  1
  F  F10  1  0.24821187  0.93410589  0.68128376  1
  F  F11  1  0.24821187  0.56589411  0.81871624  1
loop_
_geom_bond_atom_site_label_1
_geom_bond_atom_site_label_2
_geom_bond_distance
_geom_bond_site_symmetry_2
Ba0 F7 2.619271 1_555
Ba0 F6 2.619271 1_555
Ba0 F1 2.677028 1_565
Ba0 F0 2.677028 1_555
Ba0 F9 2.677028 1_555
Ba0 F8 2.677028 1_554
Ba0 F2 2.932628 1_565
Ba0 F3 2.932628 1_555
Ba0 F10 2.932629 1_555
Ba0 F11 2.932629 1_554
Ba1 F5 2.619271 1_555
Ba1 F4 2.619271 1_555
Ba1 F10 2.677028 1_545
Ba1 F11 2.677028 1_555
Ba1 F3 2.677028 1_556
Ba1 F2 2.677028 1_555
Ba1 F9 2.932628 1_545
Ba1 F8 2.932628 1_555
Ba1 F0 2.932629 1_556
Ba1 F1 2.932629 1_555
F0 Zr1 2.041181 1_655
F1 Zr1 2.041181 1_655
F2 Zr1 2.041181 1_555
F3 Zr1 2.041181 1_555
F4 Zr0 2.225168 1_655
F4 Zr1 2.225168 1_655
F5 Zr0 2.225168 1_645
F5 Zr1 2.225168 1_656
F6 Zr1 2.225168 1_555
F6 Zr0 2.225168 1_555
F7 Zr1 2.225168 1_565
F7 Zr0 2.225168 1_554
F8 Zr0 2.041181 1_655
F9 Zr0 2.041181 1_655
F10 Zr0 2.041181 1_555
F11 Zr0 2.041181 1_555
