# generated using pymatgen
data_HoCdPt2
_symmetry_space_group_name_H-M   'P 1'
_cell_length_a   4.75191719
_cell_length_b   4.75191719
_cell_length_c   4.75191719
_cell_angle_alpha   60.00000000
_cell_angle_beta   60.00000000
_cell_angle_gamma   60.00000000
_symmetry_Int_Tables_number   1
_chemical_formula_structural   HoCdPt2
_chemical_formula_sum   'Ho1 Cd1 Pt2'
_cell_volume   75.87375780
_cell_formula_units_Z   1
loop_
 _symmetry_equiv_pos_site_id
 _symmetry_equiv_pos_as_xyz
  1  'x, y, z'
loop_
 _atom_site_type_symbol
 _atom_site_label
 _atom_site_symmetry_multiplicity
 _atom_site_fract_x
 _atom_site_fract_y
 _atom_site_fract_z
 _atom_site_occupancy
  Ho  Ho0  1  0.75000000  0.75000000  0.75000000  1
  Cd  Cd0  1  0.25000000  0.25000000  0.25000000  1
  Pt  Pt0  1  -0.00000000  0.00000000  0.00000000  1
  Pt  Pt1  1  0.50000100  0.50000100  0.50000100  1
loop_
_geom_bond_atom_site_label_1
_geom_bond_atom_site_label_2
_geom_bond_distance
_geom_bond_site_symmetry_2
Ho0 Pt1 2.909931 1_555
Ho0 Pt0 2.909943 1_656
Ho0 Pt0 2.909943 1_566
Ho0 Pt0 2.909943 1_665
Ho0 Pt0 2.909943 1_666
Ho0 Pt1 2.909947 1_556
Ho0 Pt1 2.909947 1_655
Ho0 Pt1 2.909947 1_565
Cd0 Pt1 2.909939 1_545
Cd0 Pt1 2.909939 1_455
Cd0 Pt1 2.909939 1_554
Cd0 Pt0 2.909943 1_555
Cd0 Pt0 2.909943 1_556
Cd0 Pt0 2.909943 1_655
Cd0 Pt0 2.909943 1_565
Cd0 Pt1 2.909955 1_555
