# generated using pymatgen
data_Pr3Sb4Au3
_symmetry_space_group_name_H-M   'P 1'
_cell_length_a   8.77041645
_cell_length_b   8.77041645
_cell_length_c   8.77041645
_cell_angle_alpha   109.47122063
_cell_angle_beta   109.47122063
_cell_angle_gamma   109.47122063
_symmetry_Int_Tables_number   1
_chemical_formula_structural   Pr3Sb4Au3
_chemical_formula_sum   'Pr6 Sb8 Au6'
_cell_volume   519.32443430
_cell_formula_units_Z   2
loop_
 _symmetry_equiv_pos_site_id
 _symmetry_equiv_pos_as_xyz
  1  'x, y, z'
loop_
 _atom_site_type_symbol
 _atom_site_label
 _atom_site_symmetry_multiplicity
 _atom_site_fract_x
 _atom_site_fract_y
 _atom_site_fract_z
 _atom_site_occupancy
  Pr  Pr0  1  0.25000000  0.62500000  0.37500000  1
  Pr  Pr1  1  0.75000000  0.87500000  0.12500000  1
  Pr  Pr2  1  0.37500000  0.25000000  0.62500000  1
  Pr  Pr3  1  0.62500000  0.37500000  0.25000000  1
  Pr  Pr4  1  0.12500000  0.75000000  0.87500000  1
  Pr  Pr5  1  0.87500000  0.12500000  0.75000000  1
  Sb  Sb0  1  0.16949112  0.16949112  0.16949112  1
  Sb  Sb1  1  0.50000000  -0.00000000  0.33050888  1
  Sb  Sb2  1  0.33050888  0.50000000  -0.00000000  1
  Sb  Sb3  1  0.00000000  0.33050888  0.50000000  1
  Sb  Sb4  1  0.66949112  0.66949112  0.66949112  1
  Sb  Sb5  1  0.50000000  0.00000000  0.83050888  1
  Sb  Sb6  1  0.00000000  0.83050888  0.50000000  1
  Sb  Sb7  1  0.83050888  0.50000000  0.00000000  1
  Au  Au0  1  0.25000000  0.12500000  0.87500000  1
  Au  Au1  1  0.75000000  0.37500000  0.62500000  1
  Au  Au2  1  0.87500000  0.25000000  0.12500000  1
  Au  Au3  1  0.12500000  0.87500000  0.25000000  1
  Au  Au4  1  0.62500000  0.75000000  0.37500000  1
  Au  Au5  1  0.37500000  0.62500000  0.75000000  1
loop_
_geom_bond_atom_site_label_1
_geom_bond_atom_site_label_2
_geom_bond_distance
_geom_bond_site_symmetry_2
Pr0 Sb6 3.489678 1_555
Pr0 Sb0 3.489678 1_555
Pr0 Sb5 3.489678 1_565
Pr0 Sb2 3.489678 1_555
Pr0 Sb3 3.520669 1_555
Pr0 Sb1 3.520669 1_565
Pr0 Sb7 3.520669 1_455
Pr0 Sb4 3.520669 1_555
Pr1 Sb1 3.489678 1_565
Pr1 Sb4 3.489678 1_554
Pr1 Sb7 3.489678 1_555
Pr1 Sb3 3.489678 1_665
Pr1 Sb6 3.520669 1_655
Pr1 Sb2 3.520669 1_555
Pr1 Sb0 3.520669 1_665
Pr1 Sb5 3.520669 1_564
Pr2 Sb3 3.489678 1_555
Pr2 Sb0 3.489678 1_555
Pr2 Sb7 3.489678 1_556
Pr2 Sb5 3.489678 1_555
Pr2 Sb6 3.520669 1_545
Pr2 Sb2 3.520669 1_556
Pr2 Sb4 3.520669 1_555
Pr2 Sb1 3.520669 1_555
Pr3 Sb0 3.489678 1_555
Pr3 Sb6 3.489678 1_655
Pr3 Sb7 3.489678 1_555
Pr3 Sb1 3.489678 1_555
Pr3 Sb2 3.520669 1_555
Pr3 Sb3 3.520669 1_655
Pr3 Sb4 3.520669 1_555
Pr3 Sb5 3.520669 1_554
Pr4 Sb1 3.489678 1_566
Pr4 Sb2 3.489678 1_556
Pr4 Sb6 3.489678 1_555
Pr4 Sb4 3.489678 1_455
Pr4 Sb3 3.520669 1_555
Pr4 Sb7 3.520669 1_456
Pr4 Sb0 3.520669 1_566
Pr4 Sb5 3.520669 1_565
Pr5 Sb2 3.489678 1_656
Pr5 Sb3 3.489678 1_655
Pr5 Sb4 3.489678 1_545
Pr5 Sb5 3.489678 1_555
Pr5 Sb0 3.520669 1_656
Pr5 Sb7 3.520669 1_556
Pr5 Sb6 3.520669 1_645
Pr5 Sb1 3.520669 1_555
Au0 Sb2 2.837137 1_556
Au0 Sb5 2.837137 1_555
Au0 Sb6 2.837137 1_545
Au0 Sb0 2.837137 1_556
Au0 Pr3 3.100810 1_556
Au0 Pr4 3.100810 1_545
Au0 Pr2 3.100810 1_555
Au0 Pr5 3.100810 1_455
Au1 Sb3 2.837137 1_655
Au1 Sb7 2.837137 1_556
Au1 Sb4 2.837137 1_555
Au1 Sb1 2.837137 1_555
Au1 Pr3 3.100810 1_555
Au1 Pr2 3.100810 1_555
Au1 Pr5 3.100810 1_555
Au1 Pr4 3.100810 1_655
Au2 Sb3 2.837137 1_655
Au2 Sb7 2.837137 1_555
Au2 Sb0 2.837137 1_655
Au2 Sb5 2.837137 1_554
Au2 Pr1 3.100810 1_545
Au2 Pr3 3.100810 1_555
Au2 Pr5 3.100810 1_554
Au2 Pr0 3.100810 1_655
Au3 Sb7 2.837137 1_455
Au3 Sb0 2.837137 1_565
Au3 Sb6 2.837137 1_555
Au3 Sb1 2.837137 1_565
Au3 Pr2 3.100810 1_565
Au3 Pr4 3.100810 1_554
Au3 Pr1 3.100810 1_455
Au3 Pr0 3.100810 1_555
Au4 Sb6 2.837137 1_655
Au4 Sb4 2.837137 1_555
Au4 Sb2 2.837137 1_555
Au4 Sb1 2.837137 1_565
Au4 Pr5 3.100810 1_565
Au4 Pr1 3.100810 1_555
Au4 Pr3 3.100810 1_555
Au4 Pr0 3.100810 1_555
Au5 Sb4 2.837137 1_555
Au5 Sb2 2.837137 1_556
Au5 Sb3 2.837137 1_555
Au5 Sb5 2.837137 1_565
Au5 Pr0 3.100810 1_555
Au5 Pr2 3.100810 1_555
Au5 Pr4 3.100810 1_555
Au5 Pr1 3.100810 1_556
