# generated using pymatgen
data_Ba3NaNbO6
_symmetry_space_group_name_H-M   'P 1'
_cell_length_a   7.24252658
_cell_length_b   7.24252658
_cell_length_c   7.24252627
_cell_angle_alpha   91.89354055
_cell_angle_beta   91.89354055
_cell_angle_gamma   91.89353300
_symmetry_Int_Tables_number   1
_chemical_formula_structural   Ba3NaNbO6
_chemical_formula_sum   'Ba6 Na2 Nb2 O12'
_cell_volume   379.26445416
_cell_formula_units_Z   2
loop_
 _symmetry_equiv_pos_site_id
 _symmetry_equiv_pos_as_xyz
  1  'x, y, z'
loop_
 _atom_site_type_symbol
 _atom_site_label
 _atom_site_symmetry_multiplicity
 _atom_site_fract_x
 _atom_site_fract_y
 _atom_site_fract_z
 _atom_site_occupancy
  Ba  Ba0  1  0.25000000  0.89774500  0.60225500  1
  Ba  Ba1  1  0.60225500  0.25000000  0.89774500  1
  Ba  Ba2  1  0.89774500  0.60225500  0.25000000  1
  Ba  Ba3  1  0.75000000  0.10225500  0.39774500  1
  Ba  Ba4  1  0.39774500  0.75000000  0.10225500  1
  Ba  Ba5  1  0.10225500  0.39774500  0.75000000  1
  Na  Na0  1  0.75000000  0.75000000  0.75000000  1
  Na  Na1  1  0.25000000  0.25000000  0.25000000  1
  Nb  Nb0  1  0.50000000  0.50000000  0.50000000  1
  Nb  Nb1  1  0.00000000  0.00000000  0.00000000  1
  O  O0  1  0.05067800  0.73210200  0.92265500  1
  O  O1  1  0.92265500  0.05067800  0.73210200  1
  O  O2  1  0.73210200  0.92265500  0.05067800  1
  O  O3  1  0.44932200  0.57734500  0.76789800  1
  O  O4  1  0.76789800  0.44932200  0.57734500  1
  O  O5  1  0.57734500  0.76789800  0.44932200  1
  O  O6  1  0.94932200  0.26789800  0.07734500  1
  O  O7  1  0.07734500  0.94932200  0.26789800  1
  O  O8  1  0.26789800  0.07734500  0.94932200  1
  O  O9  1  0.55067800  0.42265500  0.23210200  1
  O  O10  1  0.42265500  0.23210200  0.55067800  1
  O  O11  1  0.23210200  0.55067800  0.42265500  1
loop_
_geom_bond_atom_site_label_1
_geom_bond_atom_site_label_2
_geom_bond_distance
_geom_bond_site_symmetry_2
Ba0 O7 2.730900 1_555
Ba0 O10 2.730900 1_565
Ba0 O8 2.788982 1_565
Ba0 O11 2.788982 1_555
Ba0 O1 2.825592 1_465
Ba0 O5 2.825592 1_555
Ba0 O3 3.032957 1_555
Ba0 O0 3.032957 1_555
Ba1 O9 2.730900 1_556
Ba1 O8 2.730900 1_555
Ba1 O10 2.788982 1_555
Ba1 O6 2.788982 1_556
Ba1 O3 2.825592 1_555
Ba1 O2 2.825592 1_546
Ba1 O1 3.032957 1_555
Ba1 O4 3.032957 1_555
Ba2 O6 2.730900 1_555
Ba2 O11 2.730900 1_655
Ba2 O7 2.788982 1_655
Ba2 O9 2.788982 1_555
Ba2 O4 2.825592 1_555
Ba2 O0 2.825592 1_654
Ba2 O2 3.032957 1_555
Ba2 O5 3.032957 1_555
Ba3 O1 2.730900 1_555
Ba3 O5 2.730900 1_545
Ba3 O2 2.788982 1_545
Ba3 O4 2.788982 1_555
Ba3 O7 2.825592 1_645
Ba3 O10 2.825592 1_555
Ba3 O9 3.032957 1_555
Ba3 O6 3.032957 1_555
Ba4 O3 2.730900 1_554
Ba4 O2 2.730900 1_555
Ba4 O5 2.788982 1_555
Ba4 O0 2.788982 1_554
Ba4 O9 2.825592 1_555
Ba4 O8 2.825592 1_564
Ba4 O7 3.032957 1_555
Ba4 O11 3.032957 1_555
Ba5 O0 2.730900 1_555
Ba5 O4 2.730900 1_455
Ba5 O1 2.788982 1_455
Ba5 O3 2.788982 1_555
Ba5 O6 2.825592 1_456
Ba5 O11 2.825592 1_555
Ba5 O10 3.032957 1_555
Ba5 O8 3.032957 1_555
Na0 O5 2.484371 1_555
Na0 O2 2.484371 1_556
Na0 O0 2.484371 1_655
Na0 O4 2.484371 1_555
Na0 O3 2.484371 1_555
Na0 O1 2.484371 1_565
Na1 O10 2.484371 1_555
Na1 O8 2.484371 1_554
Na1 O6 2.484371 1_455
Na1 O11 2.484371 1_555
Na1 O7 2.484371 1_545
Na1 O9 2.484371 1_555
Nb0 O9 2.049862 1_555
Nb0 O3 2.049862 1_555
Nb0 O4 2.049862 1_555
Nb0 O11 2.049862 1_555
Nb0 O10 2.049862 1_555
Nb0 O5 2.049862 1_555
Nb1 O1 2.049862 1_454
Nb1 O7 2.049862 1_545
Nb1 O0 2.049862 1_544
Nb1 O6 2.049862 1_455
Nb1 O8 2.049862 1_554
Nb1 O2 2.049862 1_445
