# generated using pymatgen
data_Na3ZrF8
_symmetry_space_group_name_H-M   'P 1'
_cell_length_a   6.50537095
_cell_length_b   6.50537095
_cell_length_c   6.50537095
_cell_angle_alpha   132.20188930
_cell_angle_beta   132.20188930
_cell_angle_gamma   69.91035100
_symmetry_Int_Tables_number   1
_chemical_formula_structural   Na3ZrF8
_chemical_formula_sum   'Na3 Zr1 F8'
_cell_volume   148.13570486
_cell_formula_units_Z   1
loop_
 _symmetry_equiv_pos_site_id
 _symmetry_equiv_pos_as_xyz
  1  'x, y, z'
loop_
 _atom_site_type_symbol
 _atom_site_label
 _atom_site_symmetry_multiplicity
 _atom_site_fract_x
 _atom_site_fract_y
 _atom_site_fract_z
 _atom_site_occupancy
  Na  Na0  1  0.50000000  0.50000000  -0.00000000  1
  Na  Na1  1  0.25000000  0.75000000  0.50000000  1
  Na  Na2  1  0.75000000  0.25000000  0.50000000  1
  Zr  Zr0  1  -0.00000000  0.00000000  -0.00000000  1
  F  F0  1  0.88464310  0.88464310  0.53735897  1
  F  F1  1  0.88464310  0.34728413  0.00000000  1
  F  F2  1  0.34728413  0.88464310  -0.00000000  1
  F  F3  1  0.34728413  0.34728413  0.46264103  1
  F  F4  1  0.65271587  0.65271587  0.53735897  1
  F  F5  1  0.65271587  0.11535690  0.00000000  1
  F  F6  1  0.11535690  0.65271587  -0.00000000  1
  F  F7  1  0.11535690  0.11535690  0.46264103  1
loop_
_geom_bond_atom_site_label_1
_geom_bond_atom_site_label_2
_geom_bond_distance
_geom_bond_site_symmetry_2
F0 Zr0 2.121907 1_666
F0 Na1 2.352710 1_655
F0 Na2 2.352710 1_565
F0 Na0 2.353816 1_555
F1 Zr0 2.121907 1_655
F1 Na1 2.352710 1_655
F1 Na2 2.352710 1_554
F1 Na0 2.353816 1_555
F2 Zr0 2.121907 1_565
F2 Na1 2.352710 1_554
F2 Na2 2.352710 1_565
F2 Na0 2.353816 1_555
F3 Zr0 2.121907 1_555
F3 Na2 2.352710 1_555
F3 Na1 2.352710 1_555
F3 Na0 2.353816 1_556
F4 Zr0 2.121907 1_666
F4 Na2 2.352710 1_555
F4 Na1 2.352710 1_555
F4 Na0 2.353816 1_555
F5 Zr0 2.121907 1_655
F5 Na2 2.352710 1_555
F5 Na1 2.352710 1_544
F5 Na0 2.353816 1_555
F6 Zr0 2.121907 1_565
F6 Na1 2.352710 1_555
F6 Na2 2.352710 1_454
F6 Na0 2.353816 1_555
F7 Zr0 2.121907 1_555
F7 Na1 2.352710 1_545
F7 Na2 2.352710 1_455
F7 Na0 2.353816 1_556
