# generated using pymatgen
data_YbBe13
_symmetry_space_group_name_H-M   'P 1'
_cell_length_a   7.21379873
_cell_length_b   7.21379873
_cell_length_c   7.21379873
_cell_angle_alpha   60.00000000
_cell_angle_beta   60.00000000
_cell_angle_gamma   60.00000000
_symmetry_Int_Tables_number   1
_chemical_formula_structural   YbBe13
_chemical_formula_sum   'Yb2 Be26'
_cell_volume   265.44653780
_cell_formula_units_Z   2
loop_
 _symmetry_equiv_pos_site_id
 _symmetry_equiv_pos_as_xyz
  1  'x, y, z'
loop_
 _atom_site_type_symbol
 _atom_site_label
 _atom_site_symmetry_multiplicity
 _atom_site_fract_x
 _atom_site_fract_y
 _atom_site_fract_z
 _atom_site_occupancy
  Yb  Yb0  1  0.75000000  0.75000000  0.75000000  1
  Yb  Yb1  1  0.25000000  0.25000000  0.25000000  1
  Be  Be0  1  0.43575500  0.21057000  0.78943000  1
  Be  Be1  1  0.21057000  0.43575500  0.56424500  1
  Be  Be2  1  0.56424500  0.78943000  0.21057000  1
  Be  Be3  1  0.78943000  0.56424500  0.43575500  1
  Be  Be4  1  0.43575500  0.78943000  0.56424500  1
  Be  Be5  1  0.56424500  0.43575500  0.78943000  1
  Be  Be6  1  0.78943000  0.43575500  0.21057000  1
  Be  Be7  1  0.78943000  0.21057000  0.56424500  1
  Be  Be8  1  0.21057000  0.56424500  0.78943000  1
  Be  Be9  1  0.43575500  0.56424500  0.21057000  1
  Be  Be10  1  0.56424500  0.21057000  0.43575500  1
  Be  Be11  1  0.21057000  0.78943000  0.43575500  1
  Be  Be12  1  0.93575500  0.71057000  0.06424500  1
  Be  Be13  1  0.71057000  0.93575500  0.28943000  1
  Be  Be14  1  0.06424500  0.28943000  0.93575500  1
  Be  Be15  1  0.28943000  0.06424500  0.71057000  1
  Be  Be16  1  0.71057000  0.06424500  0.93575500  1
  Be  Be17  1  0.06424500  0.93575500  0.71057000  1
  Be  Be18  1  0.06424500  0.71057000  0.28943000  1
  Be  Be19  1  0.28943000  0.71057000  0.93575500  1
  Be  Be20  1  0.93575500  0.28943000  0.71057000  1
  Be  Be21  1  0.93575500  0.06424500  0.28943000  1
  Be  Be22  1  0.28943000  0.93575500  0.06424500  1
  Be  Be23  1  0.71057000  0.28943000  0.06424500  1
  Be  Be24  1  0.50000000  0.50000000  0.50000000  1
  Be  Be25  1  0.00000000  0.00000000  0.00000000  1
loop_
_geom_bond_atom_site_label_1
_geom_bond_atom_site_label_2
_geom_bond_distance
_geom_bond_site_symmetry_2
Be0 Be24 2.138708 1_555
Be0 Be15 2.206176 1_555
Be0 Be14 2.206176 1_555
Be0 Be8 2.236882 1_555
Be0 Be5 2.236882 1_555
Be0 Be10 2.236882 1_555
Be0 Be7 2.236882 1_555
Be0 Be16 2.245964 1_555
Be0 Be22 2.245964 1_546
Be0 Be1 2.297304 1_555
Be0 Yb0 3.004503 1_545
Be0 Yb1 3.004503 1_556
Be1 Be24 2.138708 1_555
Be1 Be14 2.206176 1_555
Be1 Be15 2.206176 1_555
Be1 Be11 2.236882 1_555
Be1 Be8 2.236882 1_555
Be1 Be9 2.236882 1_555
Be1 Be10 2.236882 1_555
Be1 Be18 2.245964 1_555
Be1 Be20 2.245964 1_455
Be1 Yb1 3.004503 1_555
Be1 Yb0 3.004503 1_455
Be2 Be24 2.138708 1_555
Be2 Be9 2.236882 1_555
Be2 Be6 2.236882 1_555
Be2 Be4 2.236882 1_555
Be2 Be22 2.245964 1_555
Be2 Be3 2.297304 1_555
Be2 Yb0 3.004503 1_554
Be2 Yb1 3.004503 1_565
Be3 Be7 2.236882 1_555
Be3 Be5 2.236882 1_555
Be3 Be6 2.236882 1_555
Be3 Be4 2.236882 1_555
Be3 Yb0 3.004503 1_555
Be3 Yb1 3.004503 1_655
Be4 Be5 2.236882 1_555
Be4 Be8 2.297304 1_555
Be4 Yb0 3.004503 1_555
Be4 Yb1 3.004503 1_565
Be5 Be8 2.236882 1_555
Be5 Be7 2.297304 1_555
Be5 Yb0 3.004503 1_555
Be5 Yb1 3.004503 1_556
Be6 Be9 2.236882 1_555
Be6 Be7 2.236882 1_555
Be6 Yb0 3.004503 1_554
Be6 Yb1 3.004503 1_655
Be7 Yb0 3.004503 1_545
Be7 Yb1 3.004503 1_655
Be8 Yb1 3.004503 1_556
Be8 Yb0 3.004503 1_455
Be9 Yb1 3.004503 1_555
Be9 Yb0 3.004503 1_554
Be10 Be24 2.138708 1_555
Be10 Be21 2.206176 1_555
Be10 Be23 2.206176 1_555
Be10 Be9 2.236882 1_555
Be10 Be7 2.236882 1_555
Be10 Be15 2.245964 1_555
Be10 Be13 2.245964 1_545
Be10 Be6 2.297304 1_555
Be10 Yb1 3.004503 1_555
Be10 Yb0 3.004503 1_545
Be11 Be24 2.138708 1_555
Be11 Be18 2.206176 1_555
Be11 Be22 2.206176 1_555
Be11 Be2 2.236882 1_555
Be11 Be8 2.236882 1_555
Be11 Be4 2.236882 1_555
Be11 Be21 2.245964 1_465
Be11 Be17 2.245964 1_555
Be11 Be9 2.297304 1_555
Be11 Yb1 3.004503 1_565
Be11 Yb0 3.004503 1_455
Be12 Be25 2.138708 1_665
Be12 Be2 2.206176 1_555
Be12 Be3 2.206176 1_555
Be12 Be17 2.236882 1_654
Be12 Be16 2.236882 1_564
Be12 Be18 2.236882 1_655
Be12 Be19 2.236882 1_654
Be12 Be6 2.245964 1_555
Be12 Be8 2.245964 1_654
Be12 Be13 2.297304 1_555
Be12 Yb0 3.004503 1_554
Be12 Yb1 3.004503 1_655
Be13 Be25 2.138708 1_665
Be13 Be3 2.206176 1_555
Be13 Be2 2.206176 1_555
Be13 Be16 2.236882 1_564
Be13 Be23 2.236882 1_565
Be13 Be18 2.236882 1_655
Be13 Be21 2.236882 1_565
Be13 Be4 2.245964 1_555
Be13 Yb0 3.004503 1_555
Be13 Yb1 3.004503 1_565
Be14 Be25 2.138708 1_556
Be14 Be23 2.236882 1_456
Be14 Be20 2.236882 1_455
Be14 Be22 2.236882 1_546
Be14 Be21 2.236882 1_456
Be14 Be6 2.245964 1_456
Be14 Be8 2.245964 1_555
Be14 Be15 2.297304 1_555
Be14 Yb1 3.004503 1_556
Be14 Yb0 3.004503 1_455
Be15 Be25 2.138708 1_556
Be15 Be19 2.236882 1_545
Be15 Be17 2.236882 1_545
Be15 Be20 2.236882 1_455
Be15 Be22 2.236882 1_546
Be15 Be4 2.245964 1_545
Be15 Yb0 3.004503 1_545
Be15 Yb1 3.004503 1_555
Be16 Be25 2.138708 1_656
Be16 Be5 2.206176 1_555
Be16 Be7 2.206176 1_555
Be16 Be17 2.236882 1_645
Be16 Be23 2.236882 1_556
Be16 Be2 2.245964 1_546
Be16 Be20 2.297304 1_555
Be16 Yb0 3.004503 1_545
Be16 Yb1 3.004503 1_556
Be17 Be25 2.138708 1_566
Be17 Be8 2.206176 1_555
Be17 Be4 2.206176 1_555
Be17 Be20 2.236882 1_465
Be17 Be7 2.245964 1_465
Be17 Be19 2.297304 1_555
Be17 Yb0 3.004503 1_455
Be17 Yb1 3.004503 1_565
Be18 Be25 2.138708 1_565
Be18 Be9 2.206176 1_555
Be18 Be19 2.236882 1_554
Be18 Be21 2.236882 1_465
Be18 Be3 2.245964 1_455
Be18 Be22 2.297304 1_555
Be18 Yb0 3.004503 1_455
Be18 Yb1 3.004503 1_555
Be19 Be25 2.138708 1_566
Be19 Be4 2.206176 1_555
Be19 Be8 2.206176 1_555
Be19 Be22 2.236882 1_556
Be19 Be9 2.245964 1_556
Be19 Be5 2.245964 1_555
Be19 Yb0 3.004503 1_555
Be19 Yb1 3.004503 1_556
Be20 Be25 2.138708 1_656
Be20 Be5 2.206176 1_555
Be20 Be7 2.206176 1_555
Be20 Be23 2.236882 1_556
Be20 Be3 2.245964 1_555
Be20 Yb0 3.004503 1_555
Be20 Yb1 3.004503 1_655
Be21 Be25 2.138708 1_655
Be21 Be6 2.206176 1_555
Be21 Be22 2.236882 1_645
Be21 Be7 2.245964 1_555
Be21 Be23 2.297304 1_555
Be21 Yb0 3.004503 1_545
Be21 Yb1 3.004503 1_655
Be22 Be25 2.138708 1_565
Be22 Be9 2.206176 1_555
Be22 Yb0 3.004503 1_554
Be22 Yb1 3.004503 1_565
Be23 Be25 2.138708 1_655
Be23 Be6 2.206176 1_555
Be23 Be9 2.245964 1_555
Be23 Be5 2.245964 1_554
Be23 Yb0 3.004503 1_554
Be23 Yb1 3.004503 1_555
Be24 Be5 2.138708 1_555
Be24 Be9 2.138708 1_555
Be24 Be6 2.138708 1_555
Be24 Be3 2.138708 1_555
Be24 Be7 2.138708 1_555
Be24 Be4 2.138708 1_555
Be24 Be8 2.138708 1_555
