# generated using pymatgen
data_AcZn3
_symmetry_space_group_name_H-M   'P 1'
_cell_length_a   7.05949815
_cell_length_b   7.05948548
_cell_length_c   4.26138938
_cell_angle_alpha   90.00000000
_cell_angle_beta   90.00000000
_cell_angle_gamma   120.00030485
_symmetry_Int_Tables_number   1
_chemical_formula_structural   AcZn3
_chemical_formula_sum   'Ac2 Zn6'
_cell_volume   183.91933783
_cell_formula_units_Z   2
loop_
 _symmetry_equiv_pos_site_id
 _symmetry_equiv_pos_as_xyz
  1  'x, y, z'
loop_
 _atom_site_type_symbol
 _atom_site_label
 _atom_site_symmetry_multiplicity
 _atom_site_fract_x
 _atom_site_fract_y
 _atom_site_fract_z
 _atom_site_occupancy
  Ac  Ac0  1  0.33333400  0.66666700  0.74999900  1
  Ac  Ac1  1  0.66666700  0.33333300  0.25000000  1
  Zn  Zn0  1  0.12618138  0.25236277  0.24999900  1
  Zn  Zn1  1  0.74763723  0.87381762  0.25000000  1
  Zn  Zn2  1  0.12618138  0.87381762  0.25000000  1
  Zn  Zn3  1  0.87381862  0.74763723  0.74999900  1
  Zn  Zn4  1  0.25236277  0.12618238  0.74999900  1
  Zn  Zn5  1  0.87381862  0.12618238  0.74999900  1
loop_
_geom_bond_atom_site_label_1
_geom_bond_atom_site_label_2
_geom_bond_distance
_geom_bond_site_symmetry_2
Ac0 Zn1 3.309913 1_555
Ac0 Zn0 3.309917 1_555
Ac0 Zn0 3.309917 1_556
Ac0 Zn1 3.309919 1_556
Ac0 Zn2 3.309920 1_555
Ac0 Zn2 3.309926 1_556
Ac0 Zn5 3.564271 1_455
Ac0 Zn5 3.564274 1_565
Ac0 Zn4 3.564277 1_555
Ac0 Zn3 3.564287 1_555
Ac0 Zn4 3.564297 1_565
Ac0 Zn3 3.564298 1_455
Ac1 Zn3 3.309914 1_555
Ac1 Zn5 3.309916 1_555
Ac1 Zn4 3.309918 1_555
Ac1 Zn3 3.309920 1_554
Ac1 Zn5 3.309921 1_554
Ac1 Zn4 3.309923 1_554
Ac1 Zn2 3.564269 1_655
Ac1 Zn2 3.564278 1_545
Ac1 Zn1 3.564279 1_555
Ac1 Zn0 3.564291 1_655
Ac1 Zn1 3.564293 1_545
Ac1 Zn0 3.564294 1_555
Zn0 Zn4 2.630646 1_555
Zn0 Zn4 2.630646 1_554
Zn0 Zn5 2.630646 1_454
Zn0 Zn5 2.630646 1_455
Zn0 Zn1 2.672321 1_445
Zn0 Zn2 2.672334 1_545
Zn1 Zn3 2.630642 1_555
Zn1 Zn5 2.630648 1_565
Zn1 Zn3 2.630649 1_554
Zn1 Zn5 2.630655 1_564
Zn1 Zn2 2.672332 1_655
Zn2 Zn3 2.630642 1_455
Zn2 Zn4 2.630648 1_565
Zn2 Zn3 2.630649 1_454
Zn2 Zn4 2.630655 1_564
Zn3 Zn4 2.672321 1_665
Zn3 Zn5 2.672334 1_565
Zn4 Zn5 2.672332 1_455
