# generated using pymatgen
data_Y2TlAg
_symmetry_space_group_name_H-M   'P 1'
_cell_length_a   5.24563412
_cell_length_b   5.24563438
_cell_length_c   5.24563392
_cell_angle_alpha   60.00004036
_cell_angle_beta   60.00002390
_cell_angle_gamma   60.00002546
_symmetry_Int_Tables_number   1
_chemical_formula_structural   Y2TlAg
_chemical_formula_sum   'Y2 Tl1 Ag1'
_cell_volume   102.06557521
_cell_formula_units_Z   1
loop_
 _symmetry_equiv_pos_site_id
 _symmetry_equiv_pos_as_xyz
  1  'x, y, z'
loop_
 _atom_site_type_symbol
 _atom_site_label
 _atom_site_symmetry_multiplicity
 _atom_site_fract_x
 _atom_site_fract_y
 _atom_site_fract_z
 _atom_site_occupancy
  Y  Y0  1  0.00000004  0.00000005  0.00000004  1
  Y  Y1  1  0.49999926  0.49999925  0.49999925  1
  Tl  Tl0  1  0.75000073  0.75000073  0.75000073  1
  Ag  Ag0  1  0.25000097  0.25000097  0.25000097  1
loop_
_geom_bond_atom_site_label_1
_geom_bond_atom_site_label_2
_geom_bond_distance
_geom_bond_site_symmetry_2
Tl0 Y0 3.212272 1_666
Tl0 Y1 3.212276 1_655
Tl0 Y1 3.212277 1_556
Tl0 Y1 3.212277 1_565
Tl0 Y0 3.212286 1_566
Tl0 Y0 3.212286 1_665
Tl0 Y0 3.212286 1_656
Tl0 Y1 3.212300 1_555
Ag0 Y1 3.212259 1_555
Ag0 Y0 3.212279 1_655
Ag0 Y0 3.212279 1_556
Ag0 Y0 3.212279 1_565
Ag0 Y1 3.212290 1_455
Ag0 Y1 3.212290 1_554
Ag0 Y1 3.212291 1_545
Ag0 Y0 3.212293 1_555
