# generated using pymatgen
data_Li2MnO2F
_symmetry_space_group_name_H-M   'P 1'
_cell_length_a   5.12062971
_cell_length_b   5.12056823
_cell_length_c   9.82398021
_cell_angle_alpha   86.45327321
_cell_angle_beta   93.54752505
_cell_angle_gamma   62.66652007
_symmetry_Int_Tables_number   1
_chemical_formula_structural   Li2MnO2F
_chemical_formula_sum   'Li8 Mn4 O8 F4'
_cell_volume   227.20448493
_cell_formula_units_Z   4
loop_
 _symmetry_equiv_pos_site_id
 _symmetry_equiv_pos_as_xyz
  1  'x, y, z'
loop_
 _atom_site_type_symbol
 _atom_site_label
 _atom_site_symmetry_multiplicity
 _atom_site_fract_x
 _atom_site_fract_y
 _atom_site_fract_z
 _atom_site_occupancy
  Li  Li0  1  0.59269000  0.59270300  0.75000500  1
  Li  Li1  1  0.40732600  0.40732600  0.25000400  1
  Li  Li2  1  0.90967100  0.90966900  0.75000400  1
  Li  Li3  1  0.09038700  0.09039300  0.25000700  1
  Li  Li4  1  0.22552600  0.22552600  0.75000600  1
  Li  Li5  1  0.77453600  0.77454500  0.25000400  1
  Li  Li6  1  0.99999100  0.50005300  0.99993500  1
  Li  Li7  1  0.50004300  0.99998800  0.50007500  1
  Mn  Mn0  1  0.31416900  0.86453400  0.99961500  1
  Mn  Mn1  1  0.86455300  0.31411300  0.50038000  1
  Mn  Mn2  1  0.13529900  0.68605100  0.49932400  1
  Mn  Mn3  1  0.68607500  0.13534800  0.00058700  1
  O  O0  1  0.19681200  0.93673600  0.61659000  1
  O  O1  1  0.06307400  0.80299800  0.11699500  1
  O  O2  1  0.93675600  0.19682700  0.88340900  1
  O  O3  1  0.80299200  0.06307800  0.38302000  1
  O  O4  1  0.58883700  0.89296300  0.88084200  1
  O  O5  1  0.10727500  0.41086200  0.38036000  1
  O  O6  1  0.89295400  0.58883800  0.61917100  1
  O  O7  1  0.41088400  0.10728800  0.11964400  1
  F  F0  1  0.28553900  0.55038500  0.87717200  1
  F  F1  1  0.44968200  0.71454700  0.37702500  1
  F  F2  1  0.55037700  0.28554000  0.62283800  1
  F  F3  1  0.71455300  0.44969000  0.12298500  1
loop_
_geom_bond_atom_site_label_1
_geom_bond_atom_site_label_2
_geom_bond_distance
_geom_bond_site_symmetry_2
Li0 O4 2.058200 1_555
Li0 O6 2.058206 1_555
Li0 O2 2.244233 1_555
Li0 O0 2.244237 1_555
Li1 O7 2.054615 1_555
Li1 O5 2.054701 1_555
Li1 O1 2.242164 1_555
Li1 O3 2.242178 1_555
Li2 O0 2.074149 1_655
Li2 O2 2.074163 1_565
Li2 O6 2.176010 1_555
Li2 O4 2.176064 1_555
Li3 O1 2.072931 1_545
Li3 O3 2.072969 1_455
Li3 O5 2.171823 1_555
Li3 O7 2.172044 1_555
Li4 O2 2.083551 1_455
Li4 O0 2.083717 1_545
Li4 O4 2.130004 1_545
Li4 O6 2.130017 1_455
Li5 O1 2.079586 1_655
Li5 O3 2.079590 1_565
Li5 O7 2.128824 1_565
Li5 O5 2.128870 1_655
Li6 O2 2.112320 1_555
Li6 O1 2.113795 1_656
Li6 O4 2.315866 1_555
Li6 O7 2.317314 1_656
Li7 O0 2.112346 1_555
Li7 O3 2.113828 1_565
Li7 O6 2.315869 1_555
Li7 O5 2.317296 1_565
Mn0 O1 1.895467 1_556
Mn0 O4 1.931563 1_555
Mn0 O7 1.963478 1_566
Mn0 O2 2.097662 1_465
Mn1 O3 1.895130 1_555
Mn1 O6 1.931831 1_555
Mn1 O5 1.963406 1_655
Mn1 O0 2.097520 1_645
Mn2 O0 1.893011 1_555
Mn2 O5 1.934110 1_555
Mn2 O6 1.962031 1_455
Mn2 O3 2.097088 1_465
Mn3 O2 1.892388 1_554
Mn3 O7 1.934802 1_555
Mn3 O4 1.961609 1_544
Mn3 O1 2.097543 1_645
F0 Li6 2.045664 1_455
F0 Mn0 2.119015 1_555
F0 Li0 2.145703 1_555
F0 Li2 2.194560 1_455
F0 Li4 2.258603 1_555
F0 Mn3 2.358757 1_556
F1 Li7 2.047022 1_555
F1 Mn2 2.118908 1_555
F1 Li1 2.145154 1_555
F1 Li3 2.193848 1_565
F1 Li5 2.257737 1_555
F1 Mn1 2.357899 1_555
F2 Li7 2.045658 1_545
F2 Mn1 2.119136 1_555
F2 Li0 2.145714 1_555
F2 Li2 2.194577 1_545
F2 Li4 2.258613 1_555
F2 Mn2 2.359196 1_555
F3 Li6 2.047041 1_554
F3 Mn3 2.119263 1_555
F3 Li1 2.145212 1_555
F3 Li3 2.193843 1_655
F3 Li5 2.257666 1_555
F3 Mn0 2.357784 1_554
