# generated using pymatgen
data_Li3Mn2(P2O7)2
_symmetry_space_group_name_H-M   'P 1'
_cell_length_a   9.82939200
_cell_length_b   9.84099508
_cell_length_c   11.38173070
_cell_angle_alpha   89.72236781
_cell_angle_beta   76.78919888
_cell_angle_gamma   89.56618723
_symmetry_Int_Tables_number   1
_chemical_formula_structural   Li3Mn2(P2O7)2
_chemical_formula_sum   'Li12 Mn8 P16 O56'
_cell_volume   1071.79381541
_cell_formula_units_Z   4
loop_
 _symmetry_equiv_pos_site_id
 _symmetry_equiv_pos_as_xyz
  1  'x, y, z'
loop_
 _atom_site_type_symbol
 _atom_site_label
 _atom_site_symmetry_multiplicity
 _atom_site_fract_x
 _atom_site_fract_y
 _atom_site_fract_z
 _atom_site_occupancy
  Li  Li0  1  0.88463800  0.28118400  0.44772500  1
  Li  Li1  1  0.81909400  0.58577700  0.54976300  1
  Li  Li2  1  0.91230100  0.89125300  0.02672400  1
  Li  Li3  1  0.65670400  0.09690200  0.95811700  1
  Li  Li4  1  0.58752000  0.39412900  0.97033700  1
  Li  Li5  1  0.65118200  0.06734300  0.46773400  1
  Li  Li6  1  0.34881800  0.93265700  0.53226600  1
  Li  Li7  1  0.41248000  0.60587100  0.02966300  1
  Li  Li8  1  0.34329600  0.90309800  0.04188300  1
  Li  Li9  1  0.08769900  0.10874700  0.97327600  1
  Li  Li10  1  0.18090600  0.41422300  0.45023700  1
  Li  Li11  1  0.11536200  0.71881600  0.55227500  1
  Mn  Mn0  1  0.79773700  0.07479100  0.67166500  1
  Mn  Mn1  1  0.74301100  0.78267700  0.82525100  1
  Mn  Mn2  1  0.75832100  0.28930900  0.17388600  1
  Mn  Mn3  1  0.70466600  0.57955800  0.32283100  1
  Mn  Mn4  1  0.29533400  0.42044200  0.67716900  1
  Mn  Mn5  1  0.24167900  0.71069100  0.82611400  1
  Mn  Mn6  1  0.25698900  0.21732300  0.17474900  1
  Mn  Mn7  1  0.20226300  0.92520900  0.32833500  1
  P  P0  1  0.97586800  0.54791400  0.75367700  1
  P  P1  1  0.88194900  0.29015700  0.88823900  1
  P  P2  1  0.93871700  0.06904600  0.24244400  1
  P  P3  1  0.87803700  0.85033400  0.42435600  1
  P  P4  1  0.61956500  0.35317100  0.57801100  1
  P  P5  1  0.56159600  0.56958400  0.75838100  1
  P  P6  1  0.47668900  0.94982600  0.75613000  1
  P  P7  1  0.61804700  0.79246300  0.10986300  1
  P  P8  1  0.38195300  0.20753700  0.89013700  1
  P  P9  1  0.52331100  0.05017400  0.24387000  1
  P  P10  1  0.43840400  0.43041600  0.24161900  1
  P  P11  1  0.38043500  0.64682900  0.42198900  1
  P  P12  1  0.12196300  0.14966600  0.57564400  1
  P  P13  1  0.06128300  0.93095400  0.75755600  1
  P  P14  1  0.11805100  0.70984300  0.11176100  1
  P  P15  1  0.02413200  0.45208600  0.24632300  1
  O  O0  1  0.97707300  0.58014100  0.62302200  1
  O  O1  1  0.96934500  0.16210000  0.56145100  1
  O  O2  1  0.91473900  0.91285700  0.73138500  1
  O  O3  1  0.89427000  0.65035600  0.84471000  1
  O  O4  1  0.90192000  0.40375100  0.78043700  1
  O  O5  1  0.81561400  0.17038900  0.83417700  1
  O  O6  1  0.77031300  0.34695400  0.99640400  1
  O  O7  1  0.97974300  0.73485800  0.08240900  1
  O  O8  1  0.88332800  0.92182800  0.29522700  1
  O  O9  1  0.93505200  0.06475800  0.11063300  1
  O  O10  1  0.87061700  0.46348300  0.22620900  1
  O  O11  1  0.82012700  0.70833500  0.41322800  1
  O  O12  1  0.83462200  0.17705800  0.31011400  1
  O  O13  1  0.78689700  0.94213000  0.51859000  1
  O  O14  1  0.72050800  0.43611000  0.48111600  1
  O  O15  1  0.67144900  0.67436500  0.69568400  1
  O  O16  1  0.68119100  0.20970400  0.58295900  1
  O  O17  1  0.62921100  0.95994100  0.78279100  1
  O  O18  1  0.62257600  0.42253800  0.70577600  1
  O  O19  1  0.55889900  0.56439000  0.89121800  1
  O  O20  1  0.52062700  0.22547500  0.92358000  1
  O  O21  1  0.72305900  0.86014200  0.00032000  1
  O  O22  1  0.67770700  0.67060700  0.16326800  1
  O  O23  1  0.59420700  0.90276400  0.21861200  1
  O  O24  1  0.58279900  0.41267900  0.27264100  1
  O  O25  1  0.60883200  0.14485200  0.14682700  1
  O  O26  1  0.48026200  0.92028900  0.62701100  1
  O  O27  1  0.53243100  0.64970400  0.43255700  1
  O  O28  1  0.46756900  0.35029600  0.56744300  1
  O  O29  1  0.51973800  0.07971100  0.37298900  1
  O  O30  1  0.39116800  0.85514800  0.85317300  1
  O  O31  1  0.41720100  0.58732100  0.72735900  1
  O  O32  1  0.40579300  0.09723600  0.78138800  1
  O  O33  1  0.32229300  0.32939300  0.83673200  1
  O  O34  1  0.27694100  0.13985800  0.99968000  1
  O  O35  1  0.47937300  0.77452500  0.07642000  1
  O  O36  1  0.44110100  0.43561000  0.10878200  1
  O  O37  1  0.37742400  0.57746200  0.29422400  1
  O  O38  1  0.37078900  0.04005900  0.21720900  1
  O  O39  1  0.31880900  0.79029600  0.41704100  1
  O  O40  1  0.32855100  0.32563500  0.30431600  1
  O  O41  1  0.27949200  0.56389000  0.51888400  1
  O  O42  1  0.21310300  0.05787000  0.48141000  1
  O  O43  1  0.16537800  0.82294200  0.68988600  1
  O  O44  1  0.17987300  0.29166500  0.58677200  1
  O  O45  1  0.12938300  0.53651700  0.77379100  1
  O  O46  1  0.06494800  0.93524200  0.88936700  1
  O  O47  1  0.11667200  0.07817200  0.70477300  1
  O  O48  1  0.02025700  0.26514200  0.91759100  1
  O  O49  1  0.22968700  0.65304600  0.00359600  1
  O  O50  1  0.18438600  0.82961100  0.16582300  1
  O  O51  1  0.09808000  0.59624900  0.21956300  1
  O  O52  1  0.10573000  0.34964400  0.15529000  1
  O  O53  1  0.08526100  0.08714300  0.26861500  1
  O  O54  1  0.03065500  0.83790000  0.43854900  1
  O  O55  1  0.02292700  0.41985900  0.37697800  1
loop_
_geom_bond_atom_site_label_1
_geom_bond_atom_site_label_2
_geom_bond_distance
_geom_bond_site_symmetry_2
Li0 O55 1.968665 1_655
Li0 O12 2.029775 1_555
Li0 O1 2.050660 1_555
Li0 O14 2.181691 1_555
Li0 O16 2.338146 1_555
Li1 O0 1.923454 1_555
Li1 O11 1.960740 1_555
Li1 O14 2.024273 1_555
Li1 O15 2.125500 1_555
Li2 O7 1.837677 1_555
Li2 O46 1.952922 1_654
Li2 O21 1.977162 1_555
Li2 O9 1.999180 1_565
Li3 O20 1.937625 1_555
Li3 O5 1.988177 1_555
Li3 O25 2.145191 1_556
Li3 O17 2.479883 1_545
Li3 O21 2.488806 1_546
Li4 O20 1.911869 1_555
Li4 O36 1.918780 1_556
Li4 O6 1.939465 1_555
Li4 O19 1.947184 1_555
Li5 O29 1.865514 1_555
Li5 O13 1.988487 1_545
Li5 O16 1.992621 1_555
Li5 O12 2.483455 1_555
Li5 O26 2.611998 1_545
Li6 O26 1.865514 1_555
Li6 O42 1.988487 1_565
Li6 O39 1.992621 1_555
Li6 O43 2.483455 1_555
Li6 O29 2.611998 1_565
Li7 O35 1.911869 1_555
Li7 O19 1.918780 1_554
Li7 O49 1.939465 1_555
Li7 O36 1.947184 1_555
Li8 O35 1.937625 1_555
Li8 O50 1.988177 1_555
Li8 O30 2.145191 1_554
Li8 O38 2.479883 1_565
Li8 O34 2.488806 1_564
Li9 O48 1.837677 1_555
Li9 O9 1.952922 1_456
Li9 O34 1.977162 1_555
Li9 O46 1.999180 1_545
Li10 O55 1.923454 1_555
Li10 O44 1.960740 1_555
Li10 O41 2.024273 1_555
Li10 O40 2.125500 1_555
Li11 O0 1.968665 1_455
Li11 O43 2.029775 1_555
Li11 O54 2.050660 1_555
Li11 O41 2.181691 1_555
Li11 O39 2.338146 1_555
Mn0 O1 2.049752 1_555
Mn0 O5 2.122531 1_555
Mn0 O16 2.141740 1_555
Mn0 O2 2.154816 1_545
Mn0 O17 2.162882 1_545
Mn0 O13 2.204584 1_545
Mn1 O3 2.018322 1_555
Mn1 O15 2.075179 1_555
Mn1 O21 2.103299 1_556
Mn1 O17 2.176525 1_555
Mn1 O2 2.197068 1_555
Mn2 O6 2.073015 1_554
Mn2 O25 2.125467 1_555
Mn2 O12 2.165460 1_555
Mn2 O24 2.192967 1_555
Mn2 O10 2.202266 1_555
Mn3 O27 1.981569 1_555
Mn3 O10 2.083044 1_555
Mn3 O22 2.090906 1_555
Mn3 O11 2.126209 1_555
Mn3 O24 2.193146 1_555
Mn3 O14 2.315798 1_555
Mn4 O28 1.981569 1_555
Mn4 O45 2.083044 1_555
Mn4 O33 2.090906 1_555
Mn4 O44 2.126209 1_555
Mn4 O31 2.193146 1_555
Mn4 O41 2.315798 1_555
Mn5 O49 2.073015 1_556
Mn5 O30 2.125467 1_555
Mn5 O43 2.165460 1_555
Mn5 O31 2.192967 1_555
Mn5 O45 2.202266 1_555
Mn6 O52 2.018322 1_555
Mn6 O40 2.075179 1_555
Mn6 O34 2.103299 1_554
Mn6 O38 2.176525 1_555
Mn6 O53 2.197068 1_555
Mn7 O54 2.049752 1_555
Mn7 O50 2.122531 1_555
Mn7 O39 2.141740 1_555
Mn7 O53 2.154816 1_565
Mn7 O38 2.162882 1_565
Mn7 O42 2.204584 1_565
O0 P0 1.516431 1_555
O1 P12 1.548963 1_655
O2 P13 1.547843 1_655
O3 P0 1.533363 1_555
O4 P0 1.595013 1_555
O4 P1 1.635112 1_555
O5 P1 1.547577 1_555
O6 P1 1.553079 1_555
O7 P14 1.490680 1_655
O8 P2 1.615636 1_565
O8 P3 1.616591 1_555
O9 P2 1.509679 1_555
O10 P15 1.580199 1_655
O11 P3 1.529551 1_555
O12 P2 1.549596 1_555
O13 P3 1.525429 1_555
O14 P4 1.539578 1_555
O15 P5 1.547895 1_555
O16 P4 1.537958 1_555
O17 P6 1.600023 1_555
O18 P4 1.615899 1_555
O18 P5 1.625739 1_555
O19 P5 1.506703 1_555
O20 P8 1.508469 1_555
O21 P7 1.574060 1_555
O22 P7 1.515458 1_555
O23 P9 1.603075 1_565
O23 P7 1.625358 1_555
O24 P10 1.547352 1_555
O25 P9 1.540202 1_555
O26 P6 1.491924 1_555
O27 P11 1.526499 1_555
O28 P4 1.526499 1_555
O29 P9 1.491924 1_555
O30 P6 1.540202 1_555
O31 P5 1.547352 1_555
O32 P6 1.603075 1_545
O32 P8 1.625358 1_555
O33 P8 1.515458 1_555
O34 P8 1.574060 1_555
O35 P7 1.508469 1_555
O36 P10 1.506703 1_555
O37 P11 1.615899 1_555
O37 P10 1.625739 1_555
O38 P9 1.600023 1_555
O39 P11 1.537958 1_555
O40 P10 1.547895 1_555
O41 P11 1.539578 1_555
O42 P12 1.525429 1_555
O43 P13 1.549596 1_555
O44 P12 1.529551 1_555
O45 P0 1.580199 1_455
O46 P13 1.509679 1_555
O47 P13 1.615636 1_545
O47 P12 1.616591 1_555
O48 P1 1.490680 1_455
O49 P14 1.553079 1_555
O50 P14 1.547577 1_555
O51 P15 1.595013 1_555
O51 P14 1.635112 1_555
O52 P15 1.533363 1_555
O53 P2 1.547843 1_455
O54 P3 1.548963 1_455
O55 P15 1.516431 1_555
