# generated using pymatgen
data_Ho3In
_symmetry_space_group_name_H-M   'P 1'
_cell_length_a   4.80631353
_cell_length_b   4.80601205
_cell_length_c   4.80223604
_cell_angle_alpha   89.98476934
_cell_angle_beta   90.00485488
_cell_angle_gamma   89.96608681
_symmetry_Int_Tables_number   1
_chemical_formula_structural   Ho3In
_chemical_formula_sum   'Ho3 In1'
_cell_volume   110.92779071
_cell_formula_units_Z   1
loop_
 _symmetry_equiv_pos_site_id
 _symmetry_equiv_pos_as_xyz
  1  'x, y, z'
loop_
 _atom_site_type_symbol
 _atom_site_label
 _atom_site_symmetry_multiplicity
 _atom_site_fract_x
 _atom_site_fract_y
 _atom_site_fract_z
 _atom_site_occupancy
  Ho  Ho0  1  0.00000100  0.49999700  0.49999900  1
  Ho  Ho1  1  0.50000200  0.00000200  0.50000000  1
  Ho  Ho2  1  0.49999800  0.50000000  0.00000100  1
  In  In0  1  0.00000100  0.00000000  0.00000000  1
loop_
_geom_bond_atom_site_label_1
_geom_bond_atom_site_label_2
_geom_bond_distance
_geom_bond_site_symmetry_2
Ho0 In0 3.396571 1_556
Ho0 In0 3.396584 1_565
Ho0 Ho2 3.396988 1_556
Ho0 Ho2 3.396995 1_455
Ho0 Ho2 3.397263 1_555
Ho0 Ho2 3.397296 1_456
Ho0 Ho1 3.397451 1_555
Ho0 In0 3.397467 1_555
Ho0 Ho1 3.397478 1_465
Ho0 In0 3.397494 1_566
Ho0 Ho1 3.399456 1_455
Ho0 Ho1 3.399496 1_565
Ho1 Ho2 3.396567 1_555
Ho1 Ho2 3.396588 1_546
Ho1 In0 3.396988 1_656
Ho1 In0 3.396995 1_555
Ho1 In0 3.397276 1_655
Ho1 In0 3.397283 1_556
Ho1 Ho2 3.397477 1_556
Ho1 Ho2 3.397484 1_545
Ho2 In0 3.397454 1_565
Ho2 In0 3.397475 1_655
Ho2 In0 3.399466 1_555
Ho2 In0 3.399486 1_665
