# generated using pymatgen
data_K(MoS)3
_symmetry_space_group_name_H-M   'P 1'
_cell_length_a   4.42262273
_cell_length_b   8.85938606
_cell_length_c   8.85739726
_cell_angle_alpha   119.98212513
_cell_angle_beta   90.00000000
_cell_angle_gamma   90.00000000
_symmetry_Int_Tables_number   1
_chemical_formula_structural   K(MoS)3
_chemical_formula_sum   'K2 Mo6 S6'
_cell_volume   300.60657291
_cell_formula_units_Z   2
loop_
 _symmetry_equiv_pos_site_id
 _symmetry_equiv_pos_as_xyz
  1  'x, y, z'
loop_
 _atom_site_type_symbol
 _atom_site_label
 _atom_site_symmetry_multiplicity
 _atom_site_fract_x
 _atom_site_fract_y
 _atom_site_fract_z
 _atom_site_occupancy
  K  K0  1  0.75000000  0.66648998  0.33326879  1
  K  K1  1  0.25000000  0.33351002  0.66673121  1
  Mo  Mo0  1  0.75000000  0.96749065  0.81402525  1
  Mo  Mo1  1  0.75000000  0.18585271  0.15337634  1
  Mo  Mo2  1  0.75000000  0.84667022  0.03262557  1
  Mo  Mo3  1  0.25000000  0.03250935  0.18597475  1
  Mo  Mo4  1  0.25000000  0.81414729  0.84662366  1
  Mo  Mo5  1  0.25000000  0.15332978  0.96737443  1
  S  S0  1  0.75000000  0.64760264  0.71135740  1
  S  S1  1  0.75000000  0.28887734  0.93642479  1
  S  S2  1  0.75000000  0.06366399  0.35263593  1
  S  S3  1  0.25000000  0.35239736  0.28864260  1
  S  S4  1  0.25000000  0.71112266  0.06357521  1
  S  S5  1  0.25000000  0.93633601  0.64736407  1
loop_
_geom_bond_atom_site_label_1
_geom_bond_atom_site_label_2
_geom_bond_distance
_geom_bond_site_symmetry_2
K0 S3 3.419073 1_555
K0 S3 3.419073 1_655
K0 S4 3.420029 1_655
K0 S4 3.420029 1_555
K0 S5 3.420188 1_655
K0 S5 3.420188 1_555
K0 S1 3.434279 1_554
K0 S0 3.435560 1_555
K0 S2 3.436207 1_565
K1 S0 3.419073 1_555
K1 S0 3.419073 1_455
K1 S1 3.420029 1_555
K1 S1 3.420029 1_455
K1 S2 3.420188 1_455
K1 S2 3.420188 1_555
K1 S4 3.434279 1_556
K1 S3 3.435560 1_555
K1 S5 3.436207 1_545
Mo0 S1 2.489422 1_565
Mo0 S0 2.506552 1_555
Mo0 S5 2.595761 1_555
Mo0 S5 2.595761 1_655
Mo1 S2 2.489240 1_555
Mo1 S1 2.505737 1_554
Mo1 S3 2.595299 1_555
Mo1 S3 2.595299 1_655
Mo2 S0 2.488362 1_554
Mo2 S2 2.506749 1_565
Mo2 S4 2.595410 1_555
Mo2 S4 2.595410 1_655
Mo3 S4 2.489422 1_545
Mo3 S3 2.506552 1_555
Mo3 S2 2.595761 1_555
Mo3 S2 2.595761 1_455
Mo4 S5 2.489240 1_555
Mo4 S4 2.505737 1_556
Mo4 S0 2.595299 1_555
Mo4 S0 2.595299 1_455
Mo5 S3 2.488362 1_556
Mo5 S5 2.506749 1_545
Mo5 S1 2.595410 1_455
Mo5 S1 2.595410 1_555
