# generated using pymatgen
data_LiMgAsO4
_symmetry_space_group_name_H-M   'P 1'
_cell_length_a   4.94657300
_cell_length_b   6.05076800
_cell_length_c   10.57927800
_cell_angle_alpha   90.00000000
_cell_angle_beta   90.00000000
_cell_angle_gamma   90.00000000
_symmetry_Int_Tables_number   1
_chemical_formula_structural   LiMgAsO4
_chemical_formula_sum   'Li4 Mg4 As4 O16'
_cell_volume   316.64377437
_cell_formula_units_Z   4
loop_
 _symmetry_equiv_pos_site_id
 _symmetry_equiv_pos_as_xyz
  1  'x, y, z'
loop_
 _atom_site_type_symbol
 _atom_site_label
 _atom_site_symmetry_multiplicity
 _atom_site_fract_x
 _atom_site_fract_y
 _atom_site_fract_z
 _atom_site_occupancy
  Li  Li0  1  0.00000000  0.00000000  0.00000000  1
  Li  Li1  1  0.50000000  0.00000000  0.50000000  1
  Li  Li2  1  0.00000000  0.50000000  0.00000000  1
  Li  Li3  1  0.50000000  0.50000000  0.50000000  1
  Mg  Mg0  1  0.00612400  0.75000000  0.27477700  1
  Mg  Mg1  1  0.99387600  0.25000000  0.72522300  1
  Mg  Mg2  1  0.49387600  0.75000000  0.77477700  1
  Mg  Mg3  1  0.50612400  0.25000000  0.22522300  1
  As  As0  1  0.06511000  0.25000000  0.40571000  1
  As  As1  1  0.43489000  0.25000000  0.90571000  1
  As  As2  1  0.93489000  0.75000000  0.59429000  1
  As  As3  1  0.56511000  0.75000000  0.09429000  1
  O  O0  1  0.77829000  0.53096700  0.67108700  1
  O  O1  1  0.22171000  0.46903300  0.32891300  1
  O  O2  1  0.72171000  0.53096700  0.17108700  1
  O  O3  1  0.77829000  0.96903300  0.67108700  1
  O  O4  1  0.27829000  0.03096700  0.82891300  1
  O  O5  1  0.78010600  0.25000000  0.90188200  1
  O  O6  1  0.27829000  0.46903300  0.82891300  1
  O  O7  1  0.22171000  0.03096700  0.32891300  1
  O  O8  1  0.21989400  0.75000000  0.09811800  1
  O  O9  1  0.71989400  0.25000000  0.40188200  1
  O  O10  1  0.79647400  0.75000000  0.44496800  1
  O  O11  1  0.28010600  0.75000000  0.59811800  1
  O  O12  1  0.70352600  0.75000000  0.94496800  1
  O  O13  1  0.29647400  0.25000000  0.05503200  1
  O  O14  1  0.20352600  0.25000000  0.55503200  1
  O  O15  1  0.72171000  0.96903300  0.17108700  1
loop_
_geom_bond_atom_site_label_1
_geom_bond_atom_site_label_2
_geom_bond_distance
_geom_bond_site_symmetry_2
Li0 O8 2.132805 1_545
Li0 O5 2.132805 1_454
Li0 O12 2.185842 1_444
Li0 O13 2.185842 1_555
Li0 O15 2.281689 1_445
Li0 O4 2.281689 1_554
Li1 O9 2.132805 1_555
Li1 O11 2.132805 1_545
Li1 O14 2.185842 1_555
Li1 O10 2.185842 1_545
Li1 O7 2.281689 1_555
Li1 O3 2.281689 1_545
Li2 O8 2.132805 1_555
Li2 O5 2.132805 1_454
Li2 O12 2.185842 1_454
Li2 O13 2.185842 1_555
Li2 O2 2.281689 1_455
Li2 O6 2.281689 1_554
Li3 O11 2.132805 1_555
Li3 O9 2.132805 1_555
Li3 O14 2.185842 1_555
Li3 O10 2.185842 1_555
Li3 O1 2.281689 1_555
Li3 O0 2.281689 1_555
Mg0 O10 2.077803 1_455
Mg0 O7 2.086976 1_565
Mg0 O1 2.086976 1_555
Mg0 O8 2.147332 1_555
Mg0 O2 2.222408 1_455
Mg0 O15 2.222408 1_455
Mg1 O14 2.077803 1_655
Mg1 O3 2.086976 1_545
Mg1 O0 2.086976 1_555
Mg1 O5 2.147332 1_555
Mg1 O4 2.222408 1_655
Mg1 O6 2.222408 1_655
Mg2 O12 2.077803 1_555
Mg2 O6 2.086976 1_555
Mg2 O4 2.086976 1_565
Mg2 O11 2.147332 1_555
Mg2 O3 2.222408 1_555
Mg2 O0 2.222408 1_555
Mg3 O13 2.077803 1_555
Mg3 O15 2.086976 1_545
Mg3 O2 2.086976 1_555
Mg3 O9 2.147332 1_555
Mg3 O7 2.222408 1_555
Mg3 O1 2.222408 1_555
As0 O9 1.708116 1_455
As0 O14 1.721716 1_555
As0 O1 1.736839 1_555
As0 O7 1.736839 1_555
As1 O5 1.708116 1_555
As1 O13 1.721716 1_556
As1 O6 1.736839 1_555
As1 O4 1.736839 1_555
As2 O11 1.708116 1_655
As2 O10 1.721716 1_555
As2 O0 1.736839 1_555
As2 O3 1.736839 1_555
As3 O8 1.708116 1_555
As3 O12 1.721716 1_554
As3 O15 1.736839 1_555
As3 O2 1.736839 1_555
