# generated using pymatgen
data_Ca5Sn4S13
_symmetry_space_group_name_H-M   'P 1'
_cell_length_a   21.88766500
_cell_length_b   21.88766500
_cell_length_c   21.88766500
_cell_angle_alpha   166.81690112
_cell_angle_beta   166.81690112
_cell_angle_gamma   18.68531166
_symmetry_Int_Tables_number   1
_chemical_formula_structural   Ca5Sn4S13
_chemical_formula_sum   'Ca5 Sn4 S13'
_cell_volume   545.34559622
_cell_formula_units_Z   1
loop_
 _symmetry_equiv_pos_site_id
 _symmetry_equiv_pos_as_xyz
  1  'x, y, z'
loop_
 _atom_site_type_symbol
 _atom_site_label
 _atom_site_symmetry_multiplicity
 _atom_site_fract_x
 _atom_site_fract_y
 _atom_site_fract_z
 _atom_site_occupancy
  Ca  Ca0  1  0.50000000  0.50000000  0.00000000  1
  Ca  Ca1  1  0.70462500  0.70462500  0.00000000  1
  Ca  Ca2  1  0.29537500  0.29537500  0.00000000  1
  Ca  Ca3  1  0.60432200  0.60432200  0.00000000  1
  Ca  Ca4  1  0.39567800  0.39567800  0.00000000  1
  Sn  Sn0  1  0.94193500  0.94193500  0.00000000  1
  Sn  Sn1  1  0.05806500  0.05806500  0.00000000  1
  Sn  Sn2  1  0.82304300  0.82304300  0.00000000  1
  Sn  Sn3  1  0.17695700  0.17695700  0.00000000  1
  S  S0  1  0.00000000  0.00000000  0.00000000  1
  S  S1  1  0.88499000  0.88499000  0.00000000  1
  S  S2  1  0.11501000  0.11501000  0.00000000  1
  S  S3  1  0.76779800  0.76779800  0.00000000  1
  S  S4  1  0.23220200  0.23220200  0.00000000  1
  S  S5  1  0.44326600  0.94326600  0.50000000  1
  S  S6  1  0.05673400  0.55673400  0.50000000  1
  S  S7  1  0.55673400  0.05673400  0.50000000  1
  S  S8  1  0.94326600  0.44326600  0.50000000  1
  S  S9  1  0.33551100  0.83551100  0.50000000  1
  S  S10  1  0.16448900  0.66448900  0.50000000  1
  S  S11  1  0.66448900  0.16448900  0.50000000  1
  S  S12  1  0.83551100  0.33551100  0.50000000  1
loop_
_geom_bond_atom_site_label_1
_geom_bond_atom_site_label_2
_geom_bond_distance
_geom_bond_site_symmetry_2
Ca0 S6 3.509718 1_554
Ca0 S7 3.509718 1_554
Ca0 S6 3.509718 1_655
Ca0 S7 3.509718 1_565
Ca0 S5 3.509718 1_555
Ca0 S8 3.509718 1_555
Ca0 S8 3.509718 1_454
Ca0 S5 3.509718 1_544
Ca0 S0 3.553210 1_655
Ca0 S0 3.553210 1_554
Ca0 S0 3.553210 1_565
Ca0 S0 3.553210 1_666
Ca1 S3 2.728736 1_555
Ca1 S11 3.052578 1_565
Ca1 S10 3.052578 1_655
Ca1 S10 3.052578 1_554
Ca1 S11 3.052578 1_554
Ca2 S4 2.728736 1_555
Ca2 S12 3.052578 1_555
Ca2 S9 3.052578 1_555
Ca2 S12 3.052578 1_454
Ca2 S9 3.052578 1_544
Ca3 S6 3.246217 1_655
Ca3 S7 3.246217 1_565
Ca3 S7 3.246217 1_554
Ca3 S6 3.246217 1_554
Ca4 S5 3.246217 1_555
Ca4 S8 3.246217 1_555
Ca4 S8 3.246217 1_454
Ca4 S5 3.246217 1_544
S0 Sn1 2.508098 1_555
S0 Sn0 2.508098 1_445
S1 Sn0 2.459720 1_555
S1 Sn2 2.675779 1_555
S2 Sn1 2.459720 1_555
S2 Sn3 2.675779 1_555
S3 Sn2 2.386289 1_555
S4 Sn3 2.386289 1_555
S5 Sn0 2.513157 1_556
S5 Sn0 2.513157 1_455
S6 Sn1 2.513157 1_566
S6 Sn1 2.513157 1_555
S7 Sn1 2.513157 1_656
S7 Sn1 2.513157 1_555
S8 Sn0 2.513157 1_556
S8 Sn0 2.513157 1_545
S9 Sn2 2.569570 1_556
S9 Sn2 2.569570 1_455
S10 Sn3 2.569570 1_566
S10 Sn3 2.569570 1_555
S11 Sn3 2.569570 1_656
S11 Sn3 2.569570 1_555
S12 Sn2 2.569570 1_556
S12 Sn2 2.569570 1_545
