# generated using pymatgen
data_Li3Mn2(P2O7)2
_symmetry_space_group_name_H-M   'P 1'
_cell_length_a   9.84863800
_cell_length_b   9.87021683
_cell_length_c   11.34084859
_cell_angle_alpha   89.90310903
_cell_angle_beta   103.01728835
_cell_angle_gamma   90.58292811
_symmetry_Int_Tables_number   1
_chemical_formula_structural   Li3Mn2(P2O7)2
_chemical_formula_sum   'Li12 Mn8 P16 O56'
_cell_volume   1074.03768258
_cell_formula_units_Z   4
loop_
 _symmetry_equiv_pos_site_id
 _symmetry_equiv_pos_as_xyz
  1  'x, y, z'
loop_
 _atom_site_type_symbol
 _atom_site_label
 _atom_site_symmetry_multiplicity
 _atom_site_fract_x
 _atom_site_fract_y
 _atom_site_fract_z
 _atom_site_occupancy
  Li  Li0  1  0.88434600  0.71170600  0.54910600  1
  Li  Li1  1  0.91104700  0.10756700  0.97387700  1
  Li  Li2  1  0.58852800  0.61018300  0.02713200  1
  Li  Li3  1  0.66355900  0.91971900  0.54070200  1
  Li  Li4  1  0.62247100  0.22564000  0.44951300  1
  Li  Li5  1  0.34000400  0.06611300  0.46271600  1
  Li  Li6  1  0.41412800  0.39357500  0.96978500  1
  Li  Li7  1  0.14782400  0.58806300  0.04466900  1
  Li  Li8  1  0.35165400  0.08991100  0.95646500  1
  Li  Li9  1  0.08642300  0.89385900  0.02959800  1
  Li  Li10  1  0.17401900  0.58155900  0.54593200  1
  Li  Li11  1  0.10669600  0.28006700  0.44890500  1
  Mn  Mn0  1  0.79568700  0.91949600  0.32250500  1
  Mn  Mn1  1  0.74335900  0.21381100  0.17491400  1
  Mn  Mn2  1  0.75525400  0.71389300  0.82514100  1
  Mn  Mn3  1  0.70501300  0.42668500  0.67257400  1
  Mn  Mn4  1  0.29530800  0.57838800  0.32601700  1
  Mn  Mn5  1  0.24066900  0.28513700  0.17367300  1
  Mn  Mn6  1  0.26034500  0.78282000  0.82547700  1
  Mn  Mn7  1  0.20292500  0.07471700  0.67373600  1
  P  P0  1  0.97447100  0.45160400  0.24642700  1
  P  P1  1  0.88074300  0.70849800  0.11055800  1
  P  P2  1  0.94028600  0.92947700  0.75839500  1
  P  P3  1  0.87635500  0.14989600  0.57543900  1
  P  P4  1  0.62076800  0.64407700  0.42725900  1
  P  P5  1  0.55950800  0.43066300  0.24107900  1
  P  P6  1  0.47681700  0.05072400  0.24032400  1
  P  P7  1  0.62096200  0.21141300  0.88784300  1
  P  P8  1  0.38354100  0.79378100  0.10933800  1
  P  P9  1  0.52574000  0.95007800  0.75381200  1
  P  P10  1  0.43868100  0.57020400  0.75753600  1
  P  P11  1  0.37909900  0.35113200  0.57564200  1
  P  P12  1  0.12115900  0.84937500  0.42406800  1
  P  P13  1  0.06097400  0.06897500  0.24413300  1
  P  P14  1  0.11730900  0.29285200  0.88960900  1
  P  P15  1  0.02555800  0.54921000  0.75926200  1
  O  O0  1  0.98497700  0.42174900  0.37732400  1
  O  O1  1  0.96888800  0.83753600  0.43865800  1
  O  O2  1  0.91479300  0.08726800  0.27024200  1
  O  O3  1  0.88999200  0.34885100  0.15571300  1
  O  O4  1  0.89858900  0.59437100  0.21693100  1
  O  O5  1  0.82597300  0.82941400  0.16696700  1
  O  O6  1  0.77198900  0.65119200  0.99980300  1
  O  O7  1  0.98067500  0.26611800  0.92085800  1
  O  O8  1  0.88485700  0.07431500  0.70458700  1
  O  O9  1  0.93617600  0.93315400  0.89073800  1
  O  O10  1  0.87173100  0.54259700  0.77968600  1
  O  O11  1  0.80654400  0.28363700  0.58645900  1
  O  O12  1  0.83303300  0.82141800  0.69137300  1
  O  O13  1  0.77862400  0.06034300  0.47979900  1
  O  O14  1  0.71639900  0.56906700  0.53198300  1
  O  O15  1  0.65551300  0.31374900  0.29961900  1
  O  O16  1  0.68456600  0.78546500  0.41800500  1
  O  O17  1  0.63037000  0.04356200  0.21925200  1
  O  O18  1  0.62705700  0.57034500  0.30157700  1
  O  O19  1  0.55940700  0.44055900  0.10886100  1
  O  O20  1  0.52044600  0.76887600  0.07898000  1
  O  O21  1  0.72906000  0.15715600  0.99944500  1
  O  O22  1  0.67632000  0.33184100  0.82762200  1
  O  O23  1  0.60256000  0.09439400  0.78511600  1
  O  O24  1  0.58339700  0.58989300  0.72927800  1
  O  O25  1  0.60912300  0.84692500  0.84312600  1
  O  O26  1  0.47812900  0.08873800  0.37038600  1
  O  O27  1  0.53028600  0.34456900  0.55909400  1
  O  O28  1  0.46715500  0.65058900  0.43325100  1
  O  O29  1  0.51941500  0.92843000  0.62195900  1
  O  O30  1  0.38928800  0.14113700  0.14309200  1
  O  O31  1  0.41314100  0.41685800  0.27075000  1
  O  O32  1  0.40928000  0.90176900  0.22257000  1
  O  O33  1  0.31188000  0.67354700  0.15816800  1
  O  O34  1  0.27779600  0.86358800  0.00219800  1
  O  O35  1  0.48125200  0.22839900  0.92062900  1
  O  O36  1  0.43836800  0.56357300  0.89063600  1
  O  O37  1  0.38367000  0.42079500  0.70452900  1
  O  O38  1  0.37732400  0.96141300  0.78496800  1
  O  O39  1  0.31782600  0.20909900  0.58200000  1
  O  O40  1  0.32858900  0.67177400  0.69322800  1
  O  O41  1  0.27923900  0.43567800  0.48061100  1
  O  O42  1  0.21293700  0.93963900  0.51832300  1
  O  O43  1  0.16584400  0.17526800  0.31331400  1
  O  O44  1  0.17827400  0.70703800  0.41103500  1
  O  O45  1  0.12480500  0.46810200  0.21532000  1
  O  O46  1  0.06581100  0.06665400  0.11164400  1
  O  O47  1  0.11628600  0.92120600  0.29435400  1
  O  O48  1  0.02086400  0.72585400  0.07816200  1
  O  O49  1  0.22336300  0.36474700  0.99572300  1
  O  O50  1  0.18846000  0.17330300  0.84123300  1
  O  O51  1  0.09105900  0.40086400  0.77608900  1
  O  O52  1  0.11265600  0.64027600  0.85925800  1
  O  O53  1  0.08534100  0.90900600  0.73200100  1
  O  O54  1  0.02632700  0.16202800  0.55986200  1
  O  O55  1  0.02846100  0.59148200  0.63199600  1
loop_
_geom_bond_atom_site_label_1
_geom_bond_atom_site_label_2
_geom_bond_distance
_geom_bond_site_symmetry_2
Li0 O55 1.932806 1_655
Li0 O1 2.061120 1_555
Li0 O12 2.101317 1_555
Li0 O14 2.136481 1_555
Li0 O16 2.306406 1_555
Li1 O7 1.855134 1_555
Li1 O21 1.946413 1_555
Li1 O46 1.965950 1_656
Li1 O9 2.008250 1_545
Li2 O20 1.857642 1_555
Li2 O36 1.937066 1_554
Li2 O6 1.939469 1_554
Li2 O19 1.961918 1_555
Li3 O29 1.861186 1_555
Li3 O16 1.968878 1_555
Li3 O13 2.001286 1_565
Li3 O12 2.321542 1_555
Li4 O15 1.997596 1_555
Li4 O26 2.010561 1_555
Li4 O27 2.069183 1_555
Li4 O11 2.177102 1_555
Li4 O13 2.226239 1_555
Li5 O26 1.905659 1_555
Li5 O42 1.960403 1_545
Li5 O39 2.003832 1_555
Li5 O43 2.386591 1_555
Li5 O29 2.614075 1_545
Li6 O35 1.896517 1_555
Li6 O19 1.929320 1_556
Li6 O36 1.939434 1_555
Li6 O49 1.983707 1_555
Li7 O48 1.951337 1_555
Li7 O33 2.004580 1_555
Li7 O52 2.116331 1_554
Li7 O45 2.320190 1_555
Li7 O49 2.437936 1_554
Li8 O35 1.964436 1_555
Li8 O50 2.011364 1_555
Li8 O30 2.125803 1_556
Li8 O38 2.385708 1_545
Li8 O34 2.433352 1_546
Li9 O48 1.898768 1_555
Li9 O9 1.944181 1_454
Li9 O46 1.978207 1_565
Li9 O34 2.003440 1_555
Li10 O55 1.910709 1_555
Li10 O44 1.974208 1_555
Li10 O41 2.018832 1_555
Li10 O40 2.175457 1_555
Li11 O0 1.908804 1_455
Li11 O54 1.998076 1_555
Li11 O43 2.048181 1_555
Li11 O41 2.247107 1_555
Li11 O39 2.388473 1_555
Mn0 O5 2.058810 1_555
Mn0 O1 2.076436 1_555
Mn0 O16 2.149522 1_555
Mn0 O17 2.167589 1_565
Mn0 O2 2.177114 1_565
Mn0 O13 2.300253 1_565
Mn1 O3 2.002752 1_555
Mn1 O21 2.041671 1_554
Mn1 O15 2.072422 1_555
Mn1 O17 2.127445 1_555
Mn1 O2 2.189867 1_555
Mn2 O25 2.002145 1_555
Mn2 O6 2.045643 1_555
Mn2 O12 2.125104 1_555
Mn2 O24 2.162877 1_555
Mn2 O10 2.179229 1_555
Mn3 O27 2.062011 1_555
Mn3 O22 2.064214 1_555
Mn3 O11 2.102496 1_555
Mn3 O10 2.132709 1_555
Mn3 O14 2.144644 1_555
Mn3 O24 2.198384 1_555
Mn4 O28 1.975450 1_555
Mn4 O44 2.098845 1_555
Mn4 O45 2.144411 1_555
Mn4 O31 2.156433 1_555
Mn4 O33 2.159423 1_555
Mn4 O41 2.279265 1_555
Mn5 O30 2.134359 1_555
Mn5 O49 2.135798 1_554
Mn5 O43 2.175006 1_555
Mn5 O31 2.214748 1_555
Mn5 O45 2.252575 1_555
Mn5 O46 2.737652 1_555
Mn6 O40 2.092167 1_555
Mn6 O52 2.109382 1_555
Mn6 O34 2.128189 1_556
Mn6 O38 2.200004 1_555
Mn6 O53 2.204943 1_555
Mn7 O54 2.109578 1_555
Mn7 O39 2.148802 1_555
Mn7 O50 2.169436 1_555
Mn7 O53 2.180689 1_545
Mn7 O38 2.202348 1_545
Mn7 O42 2.232185 1_545
O0 P0 1.493712 1_555
O1 P12 1.548603 1_655
O2 P13 1.546115 1_655
O3 P0 1.542712 1_555
O4 P0 1.601031 1_555
O4 P1 1.630650 1_555
O5 P1 1.515160 1_555
O6 P1 1.558471 1_556
O7 P14 1.487720 1_655
O8 P2 1.605289 1_545
O8 P3 1.628204 1_555
O9 P2 1.511021 1_555
O10 P15 1.584018 1_655
O11 P3 1.512815 1_555
O12 P2 1.564987 1_555
O13 P3 1.549129 1_555
O14 P4 1.533960 1_555
O15 P5 1.550234 1_555
O16 P4 1.537751 1_555
O17 P6 1.585610 1_555
O18 P5 1.610284 1_555
O18 P4 1.615317 1_555
O19 P5 1.502255 1_555
O20 P8 1.487649 1_555
O21 P7 1.557048 1_555
O22 P7 1.525900 1_555
O23 P9 1.608173 1_545
O23 P7 1.621513 1_555
O24 P10 1.540044 1_555
O25 P9 1.541352 1_555
O26 P6 1.519802 1_555
O27 P11 1.544144 1_555
O28 P4 1.531619 1_555
O29 P9 1.498125 1_555
O30 P6 1.529550 1_555
O31 P5 1.556960 1_555
O32 P6 1.601647 1_565
O32 P8 1.643730 1_555
O33 P8 1.539451 1_555
O34 P8 1.573982 1_555
O35 P7 1.514921 1_555
O36 P10 1.511470 1_555
O37 P11 1.607626 1_555
O37 P10 1.633910 1_555
O38 P9 1.584311 1_555
O39 P11 1.528633 1_555
O40 P10 1.541415 1_555
O41 P11 1.536648 1_555
O42 P12 1.518206 1_555
O43 P13 1.548760 1_555
O44 P12 1.538256 1_555
O45 P0 1.604152 1_455
O46 P13 1.514199 1_555
O47 P13 1.619253 1_565
O47 P12 1.623073 1_555
O48 P1 1.513972 1_455
O49 P14 1.569808 1_555
O50 P14 1.541612 1_555
O51 P15 1.599777 1_555
O51 P14 1.646776 1_555
O52 P15 1.542501 1_555
O53 P2 1.539488 1_455
O54 P3 1.530035 1_455
O55 P15 1.508091 1_555
