# generated using pymatgen
data_PmGa3
_symmetry_space_group_name_H-M   'P 1'
_cell_length_a   6.41414904
_cell_length_b   6.41414577
_cell_length_c   4.51210552
_cell_angle_alpha   90.00000000
_cell_angle_beta   90.00000000
_cell_angle_gamma   120.00008622
_symmetry_Int_Tables_number   1
_chemical_formula_structural   PmGa3
_chemical_formula_sum   'Pm2 Ga6'
_cell_volume   160.76347108
_cell_formula_units_Z   2
loop_
 _symmetry_equiv_pos_site_id
 _symmetry_equiv_pos_as_xyz
  1  'x, y, z'
loop_
 _atom_site_type_symbol
 _atom_site_label
 _atom_site_symmetry_multiplicity
 _atom_site_fract_x
 _atom_site_fract_y
 _atom_site_fract_z
 _atom_site_occupancy
  Pm  Pm0  1  0.33333300  0.66666800  0.74999900  1
  Pm  Pm1  1  0.66666700  0.33333300  0.24999900  1
  Ga  Ga0  1  0.14136502  0.28273004  0.24999900  1
  Ga  Ga1  1  0.71727096  0.85863598  0.24999900  1
  Ga  Ga2  1  0.14136302  0.85863598  0.24999900  1
  Ga  Ga3  1  0.85863598  0.71727196  0.74999900  1
  Ga  Ga4  1  0.28272704  0.14136302  0.74999900  1
  Ga  Ga5  1  0.85863598  0.14136402  0.74999900  1
loop_
_geom_bond_atom_site_label_1
_geom_bond_atom_site_label_2
_geom_bond_distance
_geom_bond_site_symmetry_2
Ga0 Ga2 2.720195 1_545
Ga0 Ga1 2.720198 1_445
Ga0 Ga5 2.748866 1_455
Ga0 Ga5 2.748866 1_454
Ga0 Ga4 2.748867 1_555
Ga0 Ga4 2.748867 1_554
Ga0 Pm0 3.104544 1_555
Ga0 Pm0 3.104544 1_554
Ga0 Pm1 3.219366 1_455
Ga0 Pm1 3.219372 1_555
Ga1 Ga2 2.720190 1_655
Ga1 Ga5 2.748862 1_565
Ga1 Ga5 2.748862 1_564
Ga1 Ga3 2.748867 1_555
Ga1 Ga3 2.748867 1_554
Ga1 Pm0 3.104544 1_554
Ga1 Pm0 3.104544 1_555
Ga1 Pm1 3.219362 1_565
Ga1 Pm1 3.219374 1_555
Ga2 Ga4 2.748859 1_564
Ga2 Ga4 2.748859 1_565
Ga2 Ga3 2.748860 1_454
Ga2 Ga3 2.748860 1_455
Ga2 Pm0 3.104546 1_555
Ga2 Pm0 3.104546 1_554
Ga2 Pm1 3.219363 1_455
Ga2 Pm1 3.219370 1_565
Ga3 Ga4 2.720179 1_665
Ga3 Ga5 2.720188 1_565
Ga3 Pm1 3.104547 1_555
Ga3 Pm1 3.104547 1_556
Ga3 Pm0 3.219364 1_655
Ga3 Pm0 3.219376 1_555
Ga4 Ga5 2.720186 1_455
Ga4 Pm1 3.104552 1_556
Ga4 Pm1 3.104552 1_555
Ga4 Pm0 3.219357 1_545
Ga4 Pm0 3.219381 1_555
Ga5 Pm1 3.104546 1_555
Ga5 Pm1 3.104546 1_556
Ga5 Pm0 3.219363 1_545
Ga5 Pm0 3.219369 1_655
