# generated using pymatgen
data_Ti2CrIr
_symmetry_space_group_name_H-M   'P 1'
_cell_length_a   4.34317136
_cell_length_b   4.34317136
_cell_length_c   4.34317136
_cell_angle_alpha   60.00000000
_cell_angle_beta   60.00000000
_cell_angle_gamma   60.00000000
_symmetry_Int_Tables_number   1
_chemical_formula_structural   Ti2CrIr
_chemical_formula_sum   'Ti2 Cr1 Ir1'
_cell_volume   57.93031585
_cell_formula_units_Z   1
loop_
 _symmetry_equiv_pos_site_id
 _symmetry_equiv_pos_as_xyz
  1  'x, y, z'
loop_
 _atom_site_type_symbol
 _atom_site_label
 _atom_site_symmetry_multiplicity
 _atom_site_fract_x
 _atom_site_fract_y
 _atom_site_fract_z
 _atom_site_occupancy
  Ti  Ti0  1  0.00000000  0.00000000  0.00000000  1
  Ti  Ti1  1  0.49999900  0.49999900  0.49999900  1
  Cr  Cr0  1  0.25000000  0.25000000  0.25000000  1
  Ir  Ir0  1  0.74999900  0.74999900  0.74999900  1
loop_
_geom_bond_atom_site_label_1
_geom_bond_atom_site_label_2
_geom_bond_distance
_geom_bond_site_symmetry_2
Cr0 Ti1 2.659628 1_555
Cr0 Ti0 2.659638 1_555
Cr0 Ti0 2.659638 1_565
Cr0 Ti0 2.659638 1_655
Cr0 Ti0 2.659638 1_556
Cr0 Ti1 2.659642 1_545
Cr0 Ti1 2.659642 1_455
Cr0 Ti1 2.659642 1_554
Cr0 Ir0 3.071080 1_545
Cr0 Ir0 3.071080 1_455
Cr0 Ir0 3.071080 1_554
Cr0 Ir0 3.071092 1_445
Cr0 Ir0 3.071092 1_454
Cr0 Ir0 3.071092 1_544
Ir0 Ti0 2.659635 1_665
Ir0 Ti0 2.659635 1_566
Ir0 Ti0 2.659635 1_656
Ir0 Ti1 2.659638 1_556
Ir0 Ti1 2.659638 1_565
Ir0 Ti1 2.659638 1_655
Ir0 Ti1 2.659638 1_555
Ir0 Ti0 2.659649 1_666
