# generated using pymatgen
data_Co3Pt
_symmetry_space_group_name_H-M   'P 1'
_cell_length_a   5.19215023
_cell_length_b   5.19331637
_cell_length_c   4.11363718
_cell_angle_alpha   89.99981864
_cell_angle_beta   89.99989261
_cell_angle_gamma   119.99202868
_symmetry_Int_Tables_number   1
_chemical_formula_structural   Co3Pt
_chemical_formula_sum   'Co6 Pt2'
_cell_volume   96.06905639
_cell_formula_units_Z   2
loop_
 _symmetry_equiv_pos_site_id
 _symmetry_equiv_pos_as_xyz
  1  'x, y, z'
loop_
 _atom_site_type_symbol
 _atom_site_label
 _atom_site_symmetry_multiplicity
 _atom_site_fract_x
 _atom_site_fract_y
 _atom_site_fract_z
 _atom_site_occupancy
  Co  Co0  1  0.15652262  0.31307548  0.25000007  1
  Co  Co1  1  0.68669359  0.84347671  0.25000126  1
  Co  Co2  1  0.15676866  0.84345415  0.25000055  1
  Co  Co3  1  0.84347334  0.68692339  0.74999865  1
  Co  Co4  1  0.31331154  0.15652680  0.75000395  1
  Co  Co5  1  0.84323709  0.15654122  0.75000125  1
  Pt  Pt0  1  0.33325420  0.66649170  0.74999902  1
  Pt  Pt1  1  0.66674295  0.33351454  0.25000625  1
loop_
_geom_bond_atom_site_label_1
_geom_bond_atom_site_label_2
_geom_bond_distance
_geom_bond_site_symmetry_2
Co0 Co1 2.439393 1_445
Co0 Co2 2.439531 1_545
Co0 Co5 2.493041 1_455
Co0 Co5 2.493042 1_454
Co0 Co4 2.493155 1_554
Co0 Co4 2.493179 1_555
Co0 Pt1 2.597697 1_455
Co0 Pt1 2.597707 1_555
Co0 Pt0 2.599504 1_554
Co0 Pt0 2.599509 1_555
Co0 Co2 2.753786 1_555
Co0 Co1 2.753967 1_555
Co1 Co2 2.440759 1_655
Co1 Co5 2.492653 1_564
Co1 Co5 2.492664 1_565
Co1 Co3 2.493146 1_555
Co1 Co3 2.493165 1_554
Co1 Pt1 2.598163 1_555
Co1 Pt1 2.598252 1_565
Co1 Pt0 2.599340 1_555
Co1 Pt0 2.599365 1_554
Co1 Co2 2.751391 1_555
Co2 Co4 2.492662 1_564
Co2 Co4 2.492696 1_565
Co2 Co3 2.493055 1_455
Co2 Co3 2.493077 1_454
Co2 Pt1 2.598156 1_455
Co2 Pt1 2.598290 1_565
Co2 Pt0 2.599362 1_555
Co2 Pt0 2.599374 1_554
Co3 Co4 2.439429 1_665
Co3 Co5 2.439487 1_565
Co3 Pt0 2.597683 1_655
Co3 Pt0 2.597719 1_555
Co3 Pt1 2.599468 1_555
Co3 Pt1 2.599505 1_556
Co3 Co5 2.753829 1_555
Co3 Co4 2.753931 1_555
Co4 Co5 2.440735 1_455
Co4 Pt0 2.598197 1_555
Co4 Pt0 2.598216 1_545
Co4 Pt1 2.599318 1_555
Co4 Pt1 2.599343 1_556
Co4 Co5 2.751416 1_555
Co5 Pt0 2.598165 1_655
Co5 Pt0 2.598287 1_545
Co5 Pt1 2.599405 1_555
Co5 Pt1 2.599439 1_556
