# generated using pymatgen
data_Na8Bi5O14
_symmetry_space_group_name_H-M   'P 1'
_cell_length_a   11.55700600
_cell_length_b   9.16189986
_cell_length_c   9.21003676
_cell_angle_alpha   112.36636957
_cell_angle_beta   105.27947520
_cell_angle_gamma   100.77184345
_symmetry_Int_Tables_number   1
_chemical_formula_structural   Na8Bi5O14
_chemical_formula_sum   'Na16 Bi10 O28'
_cell_volume   823.64398011
_cell_formula_units_Z   2
loop_
 _symmetry_equiv_pos_site_id
 _symmetry_equiv_pos_as_xyz
  1  'x, y, z'
loop_
 _atom_site_type_symbol
 _atom_site_label
 _atom_site_symmetry_multiplicity
 _atom_site_fract_x
 _atom_site_fract_y
 _atom_site_fract_z
 _atom_site_occupancy
  Na  Na0  1  0.67892000  0.01746300  0.44990600  1
  Na  Na1  1  0.00000000  0.00000000  0.00000000  1
  Na  Na2  1  0.67407600  0.18935100  0.19411600  1
  Na  Na3  1  0.37659700  0.17114700  0.30665300  1
  Na  Na4  1  0.01466700  0.10642400  0.38050700  1
  Na  Na5  1  0.40968300  0.27968100  0.69757900  1
  Na  Na6  1  0.46674300  0.37642400  0.11212100  1
  Na  Na7  1  0.14669400  0.43007600  0.56985100  1
  Na  Na8  1  0.50000000  0.50000000  0.50000000  1
  Na  Na9  1  0.85330600  0.56992400  0.43014900  1
  Na  Na10  1  0.53325700  0.62357600  0.88787900  1
  Na  Na11  1  0.59031700  0.72031900  0.30242100  1
  Na  Na12  1  0.98533300  0.89357600  0.61949300  1
  Na  Na13  1  0.62340300  0.82885300  0.69334700  1
  Na  Na14  1  0.32592400  0.81064900  0.80588400  1
  Na  Na15  1  0.32108000  0.98253700  0.55009400  1
  Bi  Bi0  1  0.71070000  0.13971500  0.84941200  1
  Bi  Bi1  1  0.08102100  0.20229400  0.77308500  1
  Bi  Bi2  1  0.76807200  0.34161300  0.60322800  1
  Bi  Bi3  1  0.11100800  0.31911800  0.18965800  1
  Bi  Bi4  1  0.80972500  0.46772100  0.03730700  1
  Bi  Bi5  1  0.19027500  0.53227900  0.96269300  1
  Bi  Bi6  1  0.88899200  0.68088200  0.81034200  1
  Bi  Bi7  1  0.23192800  0.65838700  0.39677200  1
  Bi  Bi8  1  0.91897900  0.79770600  0.22691500  1
  Bi  Bi9  1  0.28930000  0.86028500  0.15058800  1
  O  O0  1  0.52618000  0.97511100  0.79820500  1
  O  O1  1  0.84687800  0.04610500  0.74717900  1
  O  O2  1  0.57753000  0.16821000  0.61590700  1
  O  O3  1  0.91390900  0.23059700  0.53689300  1
  O  O4  1  0.17936800  0.09772500  0.65416100  1
  O  O5  1  0.88373200  0.15262700  0.10650500  1
  O  O6  1  0.62185900  0.27894400  0.96433700  1
  O  O7  1  0.94139500  0.32136500  0.92856000  1
  O  O8  1  0.62666800  0.35173500  0.36769600  1
  O  O9  1  0.20422300  0.21126500  0.05539600  1
  O  O10  1  0.24733100  0.30048000  0.41769000  1
  O  O11  1  0.99488600  0.55716800  0.71030900  1
  O  O12  1  0.69207700  0.50846600  0.77972200  1
  O  O13  1  0.28776400  0.40645200  0.84126100  1
  O  O14  1  0.71223600  0.59354800  0.15873900  1
  O  O15  1  0.30792300  0.49153400  0.22027800  1
  O  O16  1  0.00511400  0.44283200  0.28969100  1
  O  O17  1  0.75266900  0.69952000  0.58231000  1
  O  O18  1  0.79577700  0.78873500  0.94460400  1
  O  O19  1  0.37333200  0.64826500  0.63230400  1
  O  O20  1  0.05860500  0.67863500  0.07144000  1
  O  O21  1  0.37814100  0.72105600  0.03566300  1
  O  O22  1  0.11626800  0.84737300  0.89349500  1
  O  O23  1  0.82063200  0.90227500  0.34583900  1
  O  O24  1  0.08609100  0.76940300  0.46310700  1
  O  O25  1  0.42247000  0.83179000  0.38409300  1
  O  O26  1  0.15312200  0.95389500  0.25282100  1
  O  O27  1  0.47382000  0.02488900  0.20179500  1
loop_
_geom_bond_atom_site_label_1
_geom_bond_atom_site_label_2
_geom_bond_distance
_geom_bond_site_symmetry_2
Na0 O23 2.327718 1_545
Na0 O2 2.357993 1_555
Na0 O3 2.740565 1_555
Na0 O1 2.791870 1_555
Na0 O27 2.858093 1_555
Na0 O25 2.903293 1_545
Na1 O5 2.253060 1_455
Na1 O22 2.253060 1_544
Na1 O9 2.546271 1_555
Na1 O18 2.546271 1_444
Na1 O26 2.754651 1_545
Na1 O1 2.754651 1_454
Na2 O8 2.006384 1_555
Na2 O6 2.520055 1_554
Na2 O27 2.548630 1_555
Na2 O5 2.786355 1_555
Na3 O27 2.034846 1_555
Na3 O10 2.286133 1_555
Na3 O26 2.744175 1_545
Na3 O9 2.819573 1_555
Na3 O8 2.838023 1_555
Na4 O3 2.203831 1_455
Na4 O23 2.495850 1_445
Na4 O26 2.544239 1_545
Na4 O4 2.768177 1_555
Na4 O10 2.787967 1_555
Na4 O5 2.806630 1_455
Na5 O13 2.347388 1_555
Na5 O2 2.509304 1_555
Na5 O4 2.701286 1_555
Na5 O10 2.856588 1_555
Na6 O15 2.522147 1_555
Na6 O6 2.612135 1_554
Na6 O8 2.697474 1_555
Na6 O13 2.931348 1_554
Na6 O9 2.935020 1_555
Na6 O14 2.964679 1_555
Na7 O10 2.198942 1_555
Na7 O11 2.630746 1_455
Na7 O13 2.710918 1_555
Na7 O16 2.724808 1_555
Na7 O19 2.749752 1_555
Na7 O3 2.824799 1_455
Na8 O19 2.428330 1_555
Na8 O8 2.428330 1_555
Na8 O17 2.868192 1_555
Na8 O10 2.868192 1_555
Na8 O12 2.887933 1_555
Na8 O15 2.887933 1_555
Na9 O17 2.198942 1_555
Na9 O16 2.630746 1_655
Na9 O14 2.710918 1_555
Na9 O11 2.724808 1_555
Na9 O8 2.749752 1_555
Na9 O24 2.824799 1_655
Na10 O12 2.522147 1_555
Na10 O21 2.612135 1_556
Na10 O19 2.697474 1_555
Na10 O14 2.931348 1_556
Na10 O18 2.935020 1_555
Na10 O13 2.964679 1_555
Na11 O14 2.347388 1_555
Na11 O25 2.509304 1_555
Na11 O23 2.701286 1_555
Na11 O17 2.856588 1_555
Na12 O24 2.203831 1_655
Na12 O4 2.495850 1_665
Na12 O1 2.544239 1_565
Na12 O23 2.768177 1_555
Na12 O17 2.787967 1_555
Na12 O22 2.806630 1_655
Na13 O0 2.034846 1_555
Na13 O17 2.286133 1_555
Na13 O1 2.744175 1_565
Na13 O18 2.819573 1_555
Na13 O19 2.838023 1_555
Na14 O19 2.006384 1_555
Na14 O21 2.520055 1_556
Na14 O0 2.548630 1_555
Na14 O22 2.786355 1_555
Na15 O4 2.327718 1_565
Na15 O25 2.357993 1_555
Na15 O24 2.740565 1_555
Na15 O26 2.791870 1_555
Na15 O0 2.858093 1_555
Na15 O2 2.903293 1_565
Bi0 O6 1.958694 1_555
Bi0 O1 2.184026 1_555
Bi0 O0 2.184217 1_545
Bi0 O2 2.427934 1_555
Bi0 Na13 2.498307 1_545
Bi0 O7 2.608302 1_555
Bi0 O5 2.611960 1_556
Bi1 O4 1.916753 1_555
Bi1 Na12 2.487038 1_445
Bi1 O13 2.499341 1_555
Bi1 O7 2.555664 1_455
Bi1 O9 2.576232 1_556
Bi1 O3 2.632777 1_455
Bi1 O1 2.716520 1_455
Bi2 O3 2.226899 1_555
Bi2 O12 2.261354 1_555
Bi2 O8 2.392958 1_555
Bi2 O2 2.521078 1_555
Bi2 Na0 2.602547 1_555
Bi2 O11 2.638962 1_555
Bi3 O9 1.958603 1_555
Bi3 O16 1.987282 1_555
Bi3 O10 2.356195 1_555
Bi3 O15 2.394331 1_555
Bi3 O5 2.523001 1_455
Bi3 Na1 2.602941 1_555
Bi3 O7 2.682146 1_454
Bi4 O14 2.004395 1_555
Bi4 O6 2.258242 1_554
Bi4 O7 2.379212 1_554
Bi4 O12 2.603805 1_554
Bi5 O13 2.004395 1_555
Bi5 O21 2.258242 1_556
Bi5 O20 2.379212 1_556
Bi5 O15 2.603805 1_556
Bi6 O18 1.958603 1_555
Bi6 O11 1.987282 1_555
Bi6 O17 2.356195 1_555
Bi6 O12 2.394331 1_555
Bi6 O22 2.523001 1_655
Bi6 Na1 2.602941 1_666
Bi6 O20 2.682146 1_656
Bi7 O24 2.226899 1_555
Bi7 O15 2.261354 1_555
Bi7 O19 2.392958 1_555
Bi7 O25 2.521078 1_555
Bi7 Na15 2.602547 1_555
Bi7 O16 2.638962 1_555
Bi8 O23 1.916753 1_555
Bi8 Na4 2.487038 1_665
Bi8 O14 2.499341 1_555
Bi8 O20 2.555664 1_655
Bi8 O18 2.576232 1_554
Bi8 O24 2.632777 1_655
Bi8 O26 2.716520 1_655
Bi9 O21 1.958694 1_555
Bi9 O26 2.184026 1_555
Bi9 O27 2.184217 1_565
Bi9 O25 2.427934 1_555
Bi9 Na3 2.498307 1_565
Bi9 O20 2.608302 1_555
Bi9 O22 2.611960 1_554
