# generated using pymatgen
data_LiMn2(P2O7)2
_symmetry_space_group_name_H-M   'P 1'
_cell_length_a   9.65879170
_cell_length_b   9.70381686
_cell_length_c   11.21858026
_cell_angle_alpha   89.10860967
_cell_angle_beta   99.88165289
_cell_angle_gamma   89.74967954
_symmetry_Int_Tables_number   1
_chemical_formula_structural   LiMn2(P2O7)2
_chemical_formula_sum   'Li4 Mn8 P16 O56'
_cell_volume   1035.73421153
_cell_formula_units_Z   4
loop_
 _symmetry_equiv_pos_site_id
 _symmetry_equiv_pos_as_xyz
  1  'x, y, z'
loop_
 _atom_site_type_symbol
 _atom_site_label
 _atom_site_symmetry_multiplicity
 _atom_site_fract_x
 _atom_site_fract_y
 _atom_site_fract_z
 _atom_site_occupancy
  Li  Li0  1  0.59917900  0.02993900  0.49613000  1
  Li  Li1  1  0.91484700  0.91058100  0.98573800  1
  Li  Li2  1  0.84647000  0.57448400  0.47029200  1
  Li  Li3  1  0.89999100  0.28712300  0.54787300  1
  Mn  Mn0  1  0.20147100  0.92928800  0.66150000  1
  Mn  Mn1  1  0.28071700  0.23081900  0.83966800  1
  Mn  Mn2  1  0.22127500  0.72617800  0.16314800  1
  Mn  Mn3  1  0.30425100  0.42960900  0.34064400  1
  Mn  Mn4  1  0.69642100  0.57534500  0.67636800  1
  Mn  Mn5  1  0.77037800  0.28124200  0.83156900  1
  Mn  Mn6  1  0.71236600  0.76815400  0.16563300  1
  Mn  Mn7  1  0.80691800  0.06656600  0.32900100  1
  P  P0  1  0.02241100  0.44694500  0.75064100  1
  P  P1  1  0.11910500  0.71529000  0.87835800  1
  P  P2  1  0.07297200  0.92857700  0.24812400  1
  P  P3  1  0.13293200  0.15178900  0.42725300  1
  P  P4  1  0.37470100  0.65059100  0.57748000  1
  P  P5  1  0.42703600  0.42369400  0.75449100  1
  P  P6  1  0.52922000  0.06306800  0.76037500  1
  P  P7  1  0.38197700  0.21486700  0.12357200  1
  P  P8  1  0.61069200  0.79160300  0.89093000  1
  P  P9  1  0.47415700  0.94061600  0.25139400  1
  P  P10  1  0.56712000  0.56683800  0.24223600  1
  P  P11  1  0.62881400  0.34054100  0.41519000  1
  P  P12  1  0.87419700  0.85153700  0.57593900  1
  P  P13  1  0.93358600  0.06951200  0.75665600  1
  P  P14  1  0.88596800  0.28955600  0.11428200  1
  P  P15  1  0.97310500  0.56026700  0.23861900  1
  O  O0  1  0.02064500  0.42967100  0.61836300  1
  O  O1  1  0.02739000  0.84240400  0.56375200  1
  O  O2  1  0.08484300  0.07307900  0.72789700  1
  O  O3  1  0.09652600  0.33630900  0.83751000  1
  O  O4  1  0.09900400  0.58958100  0.78684500  1
  O  O5  1  0.19555600  0.82466100  0.81286600  1
  O  O6  1  0.21305600  0.66619900  0.99684400  1
  O  O7  1  0.03046300  0.25033400  0.08804600  1
  O  O8  1  0.13774900  0.07025100  0.30163500  1
  O  O9  1  0.07803900  0.91880100  0.11421800  1
  O  O10  1  0.12491500  0.55216500  0.20674500  1
  O  O11  1  0.18754600  0.29588700  0.40516900  1
  O  O12  1  0.16831000  0.80808100  0.30743700  1
  O  O13  1  0.21907800  0.06825000  0.53053600  1
  O  O14  1  0.29287300  0.57375000  0.47101900  1
  O  O15  1  0.33239000  0.30664300  0.69142100  1
  O  O16  1  0.32446700  0.79570400  0.59869100  1
  O  O17  1  0.37802500  0.05332000  0.79115000  1
  O  O18  1  0.36094400  0.56683800  0.70185600  1
  O  O19  1  0.40850500  0.40453000  0.88585800  1
  O  O20  1  0.46452100  0.75901800  0.91731400  1
  O  O21  1  0.28979500  0.16719400  0.00558200  1
  O  O22  1  0.31099600  0.32668000  0.18697400  1
  O  O23  1  0.39992800  0.08789700  0.21624100  1
  O  O24  1  0.41547600  0.57077400  0.26917300  1
  O  O25  1  0.39065200  0.83615700  0.16657700  1
  O  O26  1  0.53864600  0.09042700  0.63181300  1
  O  O27  1  0.47909400  0.33855100  0.43707100  1
  O  O28  1  0.53492600  0.65062300  0.57313700  1
  O  O29  1  0.47825300  0.92361000  0.38415900  1
  O  O30  1  0.61495400  0.16214400  0.85183100  1
  O  O31  1  0.58178100  0.42062800  0.73119100  1
  O  O32  1  0.59984200  0.91236300  0.79218200  1
  O  O33  1  0.67540900  0.67067600  0.83522100  1
  O  O34  1  0.71407500  0.84429600  0.00365600  1
  O  O35  1  0.52622100  0.25555000  0.09727500  1
  O  O36  1  0.58231600  0.59622200  0.11190500  1
  O  O37  1  0.63133100  0.41840900  0.28582100  1
  O  O38  1  0.62582300  0.94622700  0.21636700  1
  O  O39  1  0.68099400  0.19170100  0.39744100  1
  O  O40  1  0.66811000  0.67613600  0.31280500  1
  O  O41  1  0.73183100  0.41826400  0.50898200  1
  O  O42  1  0.78295900  0.93660500  0.47449200  1
  O  O43  1  0.84181900  0.19200500  0.69208300  1
  O  O44  1  0.81621300  0.70565300  0.59486200  1
  O  O45  1  0.86411900  0.45958300  0.77811400  1
  O  O46  1  0.91731000  0.07512400  0.88735800  1
  O  O47  1  0.86175700  0.93028300  0.70012500  1
  O  O48  1  0.97547900  0.76031500  0.89884900  1
  O  O49  1  0.79120300  0.34308700  0.99782300  1
  O  O50  1  0.81789800  0.17177900  0.17568000  1
  O  O51  1  0.90105900  0.41164600  0.20914300  1
  O  O52  1  0.88722400  0.66506700  0.15096200  1
  O  O53  1  0.91999800  0.92256700  0.27596400  1
  O  O54  1  0.97586500  0.16349200  0.43640300  1
  O  O55  1  0.97294700  0.58150900  0.36954000  1
loop_
_geom_bond_atom_site_label_1
_geom_bond_atom_site_label_2
_geom_bond_distance
_geom_bond_site_symmetry_2
Li0 O26 1.825826 1_555
Li0 O29 1.885214 1_545
Li0 O42 2.042267 1_545
Li0 O39 2.138059 1_555
Li1 O48 1.911034 1_555
Li1 O46 1.929412 1_565
Li1 O9 1.947640 1_656
Li1 O34 2.086950 1_556
Li2 O55 1.801890 1_555
Li2 O44 1.962347 1_555
Li2 O41 1.967651 1_555
Li2 O40 2.438977 1_555
Li2 O0 2.551831 1_655
Li3 O0 1.904907 1_655
Li3 O54 1.973251 1_555
Li3 O43 2.013725 1_555
Li3 O41 2.041892 1_555
Mn0 O16 1.972418 1_555
Mn0 O5 1.974286 1_555
Mn0 O13 2.007991 1_565
Mn0 O2 2.019243 1_565
Mn0 O1 2.036859 1_555
Mn0 O17 2.386059 1_565
Mn1 O21 1.939367 1_556
Mn1 O15 1.951020 1_555
Mn1 O3 2.045007 1_555
Mn1 O17 2.082540 1_555
Mn1 O19 2.111692 1_555
Mn1 O2 2.601034 1_555
Mn2 O6 1.951724 1_554
Mn2 O25 1.952379 1_555
Mn2 O12 1.958143 1_555
Mn2 O10 2.025110 1_555
Mn2 O9 2.322500 1_555
Mn2 O24 2.522105 1_555
Mn3 O11 1.934443 1_555
Mn3 O24 1.986907 1_555
Mn3 O22 2.016295 1_555
Mn3 O27 2.033013 1_555
Mn3 O14 2.055537 1_555
Mn3 O10 2.388424 1_555
Mn4 O28 1.910924 1_555
Mn4 O31 2.019387 1_555
Mn4 O44 2.028228 1_555
Mn4 O33 2.060738 1_555
Mn4 O45 2.120854 1_555
Mn4 O41 2.504321 1_555
Mn5 O30 1.940376 1_555
Mn5 O49 1.945882 1_555
Mn5 O43 2.020460 1_555
Mn5 O45 2.083776 1_555
Mn5 O31 2.375472 1_555
Mn5 O46 2.457176 1_555
Mn6 O34 1.953680 1_555
Mn6 O40 1.976295 1_555
Mn6 O52 1.991475 1_555
Mn6 O38 2.046923 1_555
Mn6 O36 2.124722 1_555
Mn6 O53 2.651628 1_555
Mn7 O53 1.932642 1_545
Mn7 O39 1.969761 1_555
Mn7 O50 2.005266 1_555
Mn7 O54 2.091194 1_555
Mn7 O42 2.091938 1_545
Mn7 O38 2.307598 1_545
O0 P0 1.493197 1_555
O1 P12 1.511491 1_455
O2 P13 1.549701 1_455
O3 P0 1.528424 1_555
O4 P0 1.597291 1_555
O4 P1 1.597614 1_555
O5 P1 1.542818 1_555
O6 P1 1.542661 1_555
O7 P14 1.522877 1_455
O8 P2 1.595661 1_545
O8 P3 1.634346 1_555
O9 P2 1.515828 1_555
O10 P15 1.569686 1_455
O11 P3 1.528205 1_555
O12 P2 1.553706 1_555
O13 P3 1.525128 1_555
O14 P4 1.521835 1_555
O15 P5 1.561583 1_555
O16 P4 1.522830 1_555
O17 P6 1.560142 1_555
O18 P5 1.588391 1_555
O18 P4 1.629232 1_555
O19 P5 1.523438 1_555
O20 P8 1.524891 1_555
O21 P7 1.541761 1_555
O22 P7 1.529083 1_555
O23 P7 1.589128 1_555
O23 P9 1.608913 1_545
O24 P10 1.545934 1_555
O25 P9 1.535306 1_555
O26 P6 1.480648 1_555
O27 P11 1.507917 1_555
O28 P4 1.556683 1_555
O29 P9 1.489726 1_555
O30 P6 1.552022 1_555
O31 P5 1.561134 1_555
O32 P8 1.590632 1_555
O32 P6 1.619499 1_565
O33 P8 1.519480 1_555
O34 P8 1.564927 1_554
O35 P7 1.525192 1_555
O36 P10 1.517142 1_555
O37 P10 1.601397 1_555
O37 P11 1.629747 1_555
O38 P9 1.581438 1_555
O39 P11 1.554587 1_555
O40 P10 1.572657 1_555
O41 P11 1.529035 1_555
O42 P12 1.540601 1_555
O43 P13 1.570643 1_555
O44 P12 1.549557 1_555
O45 P0 1.615200 1_655
O46 P13 1.503069 1_555
O47 P13 1.610191 1_565
O47 P12 1.621450 1_555
O48 P1 1.508475 1_655
O49 P14 1.542357 1_556
O50 P14 1.533106 1_555
O51 P14 1.595269 1_555
O51 P15 1.618065 1_555
O52 P15 1.539764 1_555
O53 P2 1.562902 1_655
O54 P3 1.541838 1_655
O55 P15 1.486572 1_555
