# generated using pymatgen
data_Li2Cr5(Si2O7)2
_symmetry_space_group_name_H-M   'P 1'
_cell_length_a   5.61466475
_cell_length_b   13.46098820
_cell_length_c   8.04056234
_cell_angle_alpha   82.55376748
_cell_angle_beta   91.20638845
_cell_angle_gamma   84.47556953
_symmetry_Int_Tables_number   1
_chemical_formula_structural   Li2Cr5(Si2O7)2
_chemical_formula_sum   'Li4 Cr10 Si8 O28'
_cell_volume   599.42735934
_cell_formula_units_Z   2
loop_
 _symmetry_equiv_pos_site_id
 _symmetry_equiv_pos_as_xyz
  1  'x, y, z'
loop_
 _atom_site_type_symbol
 _atom_site_label
 _atom_site_symmetry_multiplicity
 _atom_site_fract_x
 _atom_site_fract_y
 _atom_site_fract_z
 _atom_site_occupancy
  Li  Li0  1  0.17325200  0.05483300  0.40117600  1
  Li  Li1  1  0.67308600  0.55475900  0.90110100  1
  Li  Li2  1  0.32692800  0.44523600  0.09887400  1
  Li  Li3  1  0.82676600  0.94516500  0.59880700  1
  Cr  Cr0  1  0.49992300  0.49998500  0.50002200  1
  Cr  Cr1  1  0.88116400  0.19262000  0.61788800  1
  Cr  Cr2  1  0.38090700  0.69313400  0.11701400  1
  Cr  Cr3  1  0.61942800  0.30673400  0.88339000  1
  Cr  Cr4  1  0.11859200  0.80746900  0.38186800  1
  Cr  Cr5  1  0.99993300  0.00006800  0.00003700  1
  Cr  Cr6  1  0.38137200  0.28600700  0.42548100  1
  Cr  Cr7  1  0.88086400  0.78531500  0.92496600  1
  Cr  Cr8  1  0.11914400  0.21468000  0.07501500  1
  Cr  Cr9  1  0.61862400  0.71398900  0.57451500  1
  Si  Si0  1  0.37738900  0.11304900  0.74369400  1
  Si  Si1  1  0.87771400  0.61311600  0.24334200  1
  Si  Si2  1  0.12231900  0.38688100  0.75665300  1
  Si  Si3  1  0.62258000  0.88696200  0.25628900  1
  Si  Si4  1  0.68911800  0.10327100  0.29117300  1
  Si  Si5  1  0.18873900  0.60308000  0.79131600  1
  Si  Si6  1  0.81126600  0.39691800  0.20868200  1
  Si  Si7  1  0.31088900  0.89672500  0.70881300  1
  O  O0  1  0.80037300  0.08360900  0.48359300  1
  O  O1  1  0.29995400  0.58366400  0.98380300  1
  O  O2  1  0.70006800  0.41633400  0.01619500  1
  O  O3  1  0.19962900  0.91639300  0.51640300  1
  O  O4  1  0.60308400  0.17606500  0.77745200  1
  O  O5  1  0.10325500  0.67619000  0.27720100  1
  O  O6  1  0.89673800  0.32380200  0.72281700  1
  O  O7  1  0.39693500  0.82393000  0.22257200  1
  O  O8  1  0.53013100  0.00668300  0.26461100  1
  O  O9  1  0.02958200  0.50660100  0.76499400  1
  O  O10  1  0.97042300  0.49340200  0.23500100  1
  O  O11  1  0.46988800  0.99330600  0.73539200  1
  O  O12  1  0.24056800  0.16217800  0.56224900  1
  O  O13  1  0.74040800  0.66203700  0.06192000  1
  O  O14  1  0.25962900  0.33796300  0.93806900  1
  O  O15  1  0.75942900  0.83781700  0.43774500  1
  O  O16  1  0.93107900  0.09513300  0.17534000  1
  O  O17  1  0.43120100  0.59476000  0.67598900  1
  O  O18  1  0.56878000  0.40524500  0.32398200  1
  O  O19  1  0.06890300  0.90487400  0.82463100  1
  O  O20  1  0.49853400  0.20180000  0.24279300  1
  O  O21  1  0.99846300  0.70159700  0.74242400  1
  O  O22  1  0.00153500  0.29840500  0.25757700  1
  O  O23  1  0.50146000  0.79820400  0.75719100  1
  O  O24  1  0.18500600  0.11646800  0.89482900  1
  O  O25  1  0.68488700  0.61639900  0.39410200  1
  O  O26  1  0.31507700  0.38360500  0.60586200  1
  O  O27  1  0.81498500  0.88354000  0.10514500  1
loop_
_geom_bond_atom_site_label_1
_geom_bond_atom_site_label_2
_geom_bond_distance
_geom_bond_site_symmetry_2
Li0 O3 1.961293 1_545
Li0 O12 2.116061 1_555
Li0 O16 2.222413 1_455
Li0 O0 2.222862 1_455
Li0 O8 2.380740 1_555
Li1 O2 1.960659 1_556
Li1 O13 2.113943 1_556
Li1 O17 2.216676 1_555
Li1 O1 2.225179 1_555
Li1 O9 2.377100 1_655
Li2 O1 1.960631 1_554
Li2 O14 2.113782 1_554
Li2 O18 2.216535 1_555
Li2 O2 2.225153 1_555
Li2 O10 2.377252 1_455
Li3 O0 1.961302 1_565
Li3 O15 2.116058 1_555
Li3 O19 2.222214 1_655
Li3 O3 2.222736 1_655
Li3 O11 2.380788 1_555
Cr0 O17 2.043132 1_555
Cr0 O18 2.043369 1_555
Cr0 O26 2.064036 1_555
Cr0 O25 2.064977 1_555
Cr1 O0 2.010778 1_555
Cr1 O4 2.051995 1_555
Cr1 O6 2.061654 1_555
Cr1 O12 2.089600 1_655
Cr2 O1 2.010671 1_554
Cr2 O5 2.053790 1_555
Cr2 O7 2.059841 1_555
Cr2 O13 2.090154 1_555
Cr3 O2 2.009581 1_556
Cr3 O6 2.054413 1_555
Cr3 O4 2.060087 1_555
Cr3 O14 2.091126 1_555
Cr4 O3 2.011420 1_555
Cr4 O7 2.051676 1_555
Cr4 O5 2.061600 1_555
Cr4 O15 2.088645 1_455
Cr5 O16 2.041813 1_555
Cr5 O19 2.043761 1_644
Cr5 O24 2.063341 1_654
Cr5 O27 2.063973 1_545
Cr6 O20 2.050358 1_555
Cr6 O18 2.090759 1_555
Cr6 O26 2.095361 1_555
Cr6 O12 2.104274 1_555
Cr6 O22 2.480027 1_555
Cr7 O21 2.046081 1_555
Cr7 O19 2.093350 1_655
Cr7 O13 2.098375 1_556
Cr7 O27 2.099710 1_556
Cr7 O23 2.476883 1_555
Cr8 O22 2.046283 1_555
Cr8 O16 2.093288 1_455
Cr8 O14 2.098474 1_554
Cr8 O24 2.099619 1_554
Cr8 O20 2.476840 1_555
Cr9 O23 2.050351 1_555
Cr9 O17 2.090655 1_555
Cr9 O25 2.095462 1_555
Cr9 O15 2.104273 1_555
Cr9 O21 2.480064 1_555
O0 Si4 1.635636 1_555
O1 Si5 1.636048 1_555
O2 Si6 1.636015 1_555
O3 Si7 1.635572 1_555
O4 Si0 1.628243 1_555
O5 Si1 1.628190 1_455
O6 Si2 1.628376 1_655
O7 Si3 1.628073 1_555
O8 Si3 1.655112 1_545
O8 Si4 1.679376 1_555
O9 Si2 1.655484 1_555
O9 Si5 1.678301 1_555
O10 Si1 1.655372 1_555
O10 Si6 1.678353 1_555
O11 Si0 1.655427 1_565
O11 Si7 1.679367 1_555
O12 Si0 1.661581 1_555
O13 Si1 1.661869 1_555
O14 Si2 1.661829 1_555
O15 Si3 1.661769 1_555
O16 Si4 1.666166 1_555
O17 Si5 1.666250 1_555
O18 Si6 1.666240 1_555
O19 Si7 1.666219 1_555
O20 Si4 1.622010 1_555
O21 Si5 1.621397 1_655
O22 Si6 1.621339 1_455
O23 Si7 1.621888 1_555
O24 Si0 1.644934 1_555
O25 Si1 1.644219 1_555
O26 Si2 1.644141 1_555
O27 Si3 1.645074 1_555
