# generated using pymatgen
data_Tm2GaOs
_symmetry_space_group_name_H-M   'P 1'
_cell_length_a   4.82614806
_cell_length_b   4.82614806
_cell_length_c   4.82614806
_cell_angle_alpha   60.00000000
_cell_angle_beta   60.00000000
_cell_angle_gamma   60.00000000
_symmetry_Int_Tables_number   1
_chemical_formula_structural   Tm2GaOs
_chemical_formula_sum   'Tm2 Ga1 Os1'
_cell_volume   79.48531985
_cell_formula_units_Z   1
loop_
 _symmetry_equiv_pos_site_id
 _symmetry_equiv_pos_as_xyz
  1  'x, y, z'
loop_
 _atom_site_type_symbol
 _atom_site_label
 _atom_site_symmetry_multiplicity
 _atom_site_fract_x
 _atom_site_fract_y
 _atom_site_fract_z
 _atom_site_occupancy
  Tm  Tm0  1  -0.00000000  -0.00000000  0.00000000  1
  Tm  Tm1  1  0.50000000  0.50000000  0.50000000  1
  Ga  Ga0  1  0.25000000  0.25000000  0.25000000  1
  Os  Os0  1  0.75000100  0.75000100  0.75000100  1
loop_
_geom_bond_atom_site_label_1
_geom_bond_atom_site_label_2
_geom_bond_distance
_geom_bond_site_symmetry_2
Ga0 Tm1 2.955400 1_555
Ga0 Tm1 2.955400 1_545
Ga0 Tm0 2.955400 1_555
Ga0 Tm0 2.955400 1_556
Ga0 Tm0 2.955400 1_565
Ga0 Tm1 2.955400 1_554
Ga0 Tm1 2.955400 1_455
Ga0 Tm0 2.955400 1_655
Os0 Tm0 2.955388 1_666
Os0 Tm1 2.955396 1_655
Os0 Tm1 2.955396 1_565
Os0 Tm1 2.955396 1_556
Os0 Tm0 2.955404 1_665
Os0 Tm0 2.955404 1_656
Os0 Tm0 2.955404 1_566
Os0 Tm1 2.955412 1_555
