# generated using pymatgen
data_Rb3Cu5O4
_symmetry_space_group_name_H-M   'P 1'
_cell_length_a   7.34719228
_cell_length_b   9.85291463
_cell_length_c   14.32944934
_cell_angle_alpha   73.28281915
_cell_angle_beta   90.00000000
_cell_angle_gamma   90.00000000
_symmetry_Int_Tables_number   1
_chemical_formula_structural   Rb3Cu5O4
_chemical_formula_sum   'Rb12 Cu20 O16'
_cell_volume   993.48557952
_cell_formula_units_Z   4
loop_
 _symmetry_equiv_pos_site_id
 _symmetry_equiv_pos_as_xyz
  1  'x, y, z'
loop_
 _atom_site_type_symbol
 _atom_site_label
 _atom_site_symmetry_multiplicity
 _atom_site_fract_x
 _atom_site_fract_y
 _atom_site_fract_z
 _atom_site_occupancy
  Rb  Rb0  1  0.83513739  0.39755819  0.09275005  1
  Rb  Rb1  1  0.33513739  0.60244181  0.40724995  1
  Rb  Rb2  1  0.16486261  0.60244181  0.90724995  1
  Rb  Rb3  1  0.66486261  0.39755819  0.59275005  1
  Rb  Rb4  1  0.21464668  0.22941272  0.58130443  1
  Rb  Rb5  1  0.71464668  0.77058728  0.91869557  1
  Rb  Rb6  1  0.78535332  0.77058728  0.41869557  1
  Rb  Rb7  1  0.28535332  0.22941272  0.08130443  1
  Rb  Rb8  1  0.91369403  0.17573049  0.89361154  1
  Rb  Rb9  1  0.41369403  0.82426951  0.60638846  1
  Rb  Rb10  1  0.08630597  0.82426951  0.10638846  1
  Rb  Rb11  1  0.58630597  0.17573049  0.39361154  1
  Cu  Cu0  1  0.58133894  0.43427838  0.87835288  1
  Cu  Cu1  1  0.19906020  0.96058749  0.37925535  1
  Cu  Cu2  1  0.80093980  0.03941251  0.62074465  1
  Cu  Cu3  1  0.30093980  0.96058749  0.87925535  1
  Cu  Cu4  1  0.05765841  0.20139254  0.36383761  1
  Cu  Cu5  1  0.55765841  0.79860746  0.13616239  1
  Cu  Cu6  1  0.94234159  0.79860746  0.63616239  1
  Cu  Cu7  1  0.44234159  0.20139254  0.86383761  1
  Cu  Cu8  1  0.17195964  0.43811475  0.24213112  1
  Cu  Cu9  1  0.67195964  0.56188525  0.25786888  1
  Cu  Cu10  1  0.82804036  0.56188525  0.75786888  1
  Cu  Cu11  1  0.32804036  0.43811475  0.74213112  1
  Cu  Cu12  1  0.95100712  0.06659074  0.23394631  1
  Cu  Cu13  1  0.45100712  0.93340926  0.26605369  1
  Cu  Cu14  1  0.04899288  0.93340926  0.76605369  1
  Cu  Cu15  1  0.54899288  0.06659074  0.73394631  1
  Cu  Cu16  1  0.41866106  0.56572162  0.12164712  1
  Cu  Cu17  1  0.91866106  0.43427838  0.37835288  1
  Cu  Cu18  1  0.69906020  0.03941251  0.12074465  1
  Cu  Cu19  1  0.08133894  0.56572162  0.62164712  1
  O  O0  1  0.81036500  0.49413966  0.88902245  1
  O  O1  1  0.31036500  0.50586034  0.61097755  1
  O  O2  1  0.18963500  0.50586034  0.11097755  1
  O  O3  1  0.68963500  0.49413966  0.38902245  1
  O  O4  1  0.53623772  0.02863028  0.86632188  1
  O  O5  1  0.03623772  0.97136972  0.63367812  1
  O  O6  1  0.46376228  0.97136972  0.13367812  1
  O  O7  1  0.96376228  0.02863028  0.36632188  1
  O  O8  1  0.65328986  0.63182531  0.12430118  1
  O  O9  1  0.15328986  0.36817469  0.37569882  1
  O  O10  1  0.34671014  0.36817469  0.87569882  1
  O  O11  1  0.84671014  0.63182531  0.62430118  1
  O  O12  1  0.93043826  0.10583723  0.10246082  1
  O  O13  1  0.43043826  0.89416277  0.39753918  1
  O  O14  1  0.06956174  0.89416277  0.89753918  1
  O  O15  1  0.56956174  0.10583723  0.60246082  1
loop_
_geom_bond_atom_site_label_1
_geom_bond_atom_site_label_2
_geom_bond_distance
_geom_bond_site_symmetry_2
Cu0 O0 1.804051 1_555
Cu0 O10 1.847054 1_555
Cu1 O13 1.813357 1_555
Cu1 O7 1.844182 1_465
Cu2 O15 1.813357 1_555
Cu2 O5 1.844182 1_645
Cu3 O14 1.813357 1_555
Cu3 O4 1.844182 1_565
Cu4 O7 1.827527 1_455
Cu4 O9 1.839470 1_555
Cu5 O6 1.827527 1_555
Cu5 O8 1.839470 1_555
Cu6 O5 1.827527 1_655
Cu6 O11 1.839470 1_555
Cu7 O4 1.827527 1_555
Cu7 O10 1.839470 1_555
Cu8 O2 1.809065 1_555
Cu8 O9 1.843402 1_555
Cu9 O3 1.809065 1_555
Cu9 O8 1.843402 1_555
Cu10 O0 1.809065 1_555
Cu10 O11 1.843402 1_555
Cu11 O1 1.809065 1_555
Cu11 O10 1.843402 1_555
Cu12 O12 1.817447 1_555
Cu12 O7 1.827192 1_555
Cu13 O13 1.817447 1_555
Cu13 O6 1.827192 1_555
Cu14 O14 1.817447 1_555
Cu14 O5 1.827192 1_555
Cu15 O15 1.817447 1_555
Cu15 O4 1.827192 1_555
Cu16 O2 1.804051 1_555
Cu16 O8 1.847054 1_555
Cu17 O3 1.804051 1_555
Cu17 O9 1.847054 1_655
Cu18 O12 1.813357 1_555
Cu18 O6 1.844182 1_545
Cu19 O1 1.804051 1_555
Cu19 O11 1.847054 1_455
O0 Rb0 2.804074 1_556
O0 Rb2 2.854994 1_655
O0 Rb5 2.959869 1_555
O0 Rb8 3.210044 1_555
O1 Rb1 2.804074 1_555
O1 Rb3 2.854994 1_555
O1 Rb4 2.959869 1_555
O1 Rb9 3.210044 1_555
O2 Rb2 2.804074 1_554
O2 Rb0 2.854994 1_455
O2 Rb7 2.959869 1_555
O2 Rb10 3.210044 1_555
O3 Rb3 2.804074 1_555
O3 Rb1 2.854994 1_555
O3 Rb6 2.959869 1_555
O3 Rb11 3.210044 1_555
O4 Rb5 2.765484 1_545
O4 Rb8 3.204765 1_555
O5 Rb4 2.765484 1_565
O5 Rb9 3.204765 1_555
O6 Rb7 2.765484 1_565
O6 Rb10 3.204765 1_555
O7 Rb6 2.765484 1_545
O7 Rb11 3.204765 1_555
O8 Rb0 2.813840 1_555
O8 Rb5 2.904363 1_554
O9 Rb1 2.813840 1_555
O9 Rb4 2.904363 1_555
O10 Rb2 2.813840 1_555
O10 Rb7 2.904363 1_556
O11 Rb3 2.813840 1_555
O11 Rb6 2.904363 1_555
O12 Rb7 2.856883 1_655
O12 Rb8 2.874015 1_554
O12 Rb0 2.922525 1_555
O12 Rb10 2.986861 1_645
O13 Rb6 2.856883 1_555
O13 Rb9 2.874015 1_555
O13 Rb1 2.922525 1_555
O13 Rb11 2.986861 1_565
O14 Rb5 2.856883 1_455
O14 Rb10 2.874015 1_556
O14 Rb2 2.922525 1_555
O14 Rb8 2.986861 1_465
O15 Rb4 2.856883 1_555
O15 Rb11 2.874015 1_555
O15 Rb3 2.922525 1_555
O15 Rb9 2.986861 1_545
