# generated using pymatgen
data_KLiSe
_symmetry_space_group_name_H-M   'P 1'
_cell_length_a   4.50147408
_cell_length_b   4.50147408
_cell_length_c   7.20714494
_cell_angle_alpha   90.00000000
_cell_angle_beta   90.00000000
_cell_angle_gamma   90.00000000
_symmetry_Int_Tables_number   1
_chemical_formula_structural   KLiSe
_chemical_formula_sum   'K2 Li2 Se2'
_cell_volume   146.04031587
_cell_formula_units_Z   2
loop_
 _symmetry_equiv_pos_site_id
 _symmetry_equiv_pos_as_xyz
  1  'x, y, z'
loop_
 _atom_site_type_symbol
 _atom_site_label
 _atom_site_symmetry_multiplicity
 _atom_site_fract_x
 _atom_site_fract_y
 _atom_site_fract_z
 _atom_site_occupancy
  K  K0  1  0.25000000  0.25000000  0.66235907  1
  K  K1  1  0.75000000  0.75000000  0.33764093  1
  Li  Li0  1  0.25000000  0.75000000  -0.00000000  1
  Li  Li1  1  0.75000000  0.25000000  -0.00000000  1
  Se  Se0  1  0.25000000  0.25000000  0.19201154  1
  Se  Se1  1  0.75000000  0.75000000  0.80798846  1
loop_
_geom_bond_atom_site_label_1
_geom_bond_atom_site_label_2
_geom_bond_distance
_geom_bond_site_symmetry_2
K0 Se1 3.351602 1_555
K0 Se1 3.351602 1_545
K0 Se1 3.351602 1_455
K0 Se1 3.351602 1_445
K0 Se0 3.389863 1_555
K1 Se0 3.351602 1_555
K1 Se0 3.351602 1_565
K1 Se0 3.351602 1_655
K1 Se0 3.351602 1_665
K1 Se1 3.389863 1_555
Li0 Se1 2.642134 1_454
Li0 Se0 2.642134 1_555
Li0 Se1 2.642134 1_554
Li0 Se0 2.642134 1_565
Li1 Se0 2.642134 1_555
Li1 Se1 2.642134 1_554
Li1 Se1 2.642134 1_544
Li1 Se0 2.642134 1_655
