# generated using pymatgen
data_Li2Mn3(BO3)3
_symmetry_space_group_name_H-M   'P 1'
_cell_length_a   6.32098900
_cell_length_b   8.28454712
_cell_length_c   8.74477716
_cell_angle_alpha   118.25827038
_cell_angle_beta   110.27820579
_cell_angle_gamma   88.94810994
_symmetry_Int_Tables_number   1
_chemical_formula_structural   Li2Mn3(BO3)3
_chemical_formula_sum   'Li4 Mn6 B6 O18'
_cell_volume   372.42670060
_cell_formula_units_Z   2
loop_
 _symmetry_equiv_pos_site_id
 _symmetry_equiv_pos_as_xyz
  1  'x, y, z'
loop_
 _atom_site_type_symbol
 _atom_site_label
 _atom_site_symmetry_multiplicity
 _atom_site_fract_x
 _atom_site_fract_y
 _atom_site_fract_z
 _atom_site_occupancy
  Li  Li0  1  0.90573100  0.98489600  0.28448900  1
  Li  Li1  1  0.38597000  0.97808400  0.28646700  1
  Li  Li2  1  0.08345600  0.72191600  0.70365700  1
  Li  Li3  1  0.76784900  0.29409100  0.01683800  1
  Mn  Mn0  1  0.18281800  0.37144400  0.37442100  1
  Mn  Mn1  1  0.66500300  0.36392500  0.35826500  1
  Mn  Mn2  1  0.50396700  0.64877800  0.97199100  1
  Mn  Mn3  1  0.00709800  0.59941100  0.97764400  1
  Mn  Mn4  1  0.32129300  0.01452100  0.67066000  1
  Mn  Mn5  1  0.80881700  0.00471300  0.63819200  1
  B  B0  1  0.39623100  0.67086800  0.32362000  1
  B  B1  1  0.92814300  0.66971000  0.33264000  1
  B  B2  1  0.07830900  0.33088100  0.65617100  1
  B  B3  1  0.59358300  0.33105700  0.67051500  1
  B  B4  1  0.00216700  0.99368800  0.00725800  1
  B  B5  1  0.50522000  0.00279700  0.01151500  1
  O  O0  1  0.05992900  0.89537800  0.10456300  1
  O  O1  1  0.57652800  0.93411700  0.13794100  1
  O  O2  1  0.97510200  0.85996000  0.43995100  1
  O  O3  1  0.46666000  0.85798700  0.45147600  1
  O  O4  1  0.32120200  0.61252900  0.13205400  1
  O  O5  1  0.85491400  0.57971800  0.13611100  1
  O  O6  1  0.38111700  0.87828200  0.82362300  1
  O  O7  1  0.90899200  0.90215400  0.81475100  1
  O  O8  1  0.94658100  0.56048500  0.41689800  1
  O  O9  1  0.40551500  0.53993300  0.38110200  1
  O  O10  1  0.03850600  0.18801600  0.10542900  1
  O  O11  1  0.56058900  0.18973200  0.07642200  1
  O  O12  1  0.13762400  0.52588300  0.77547700  1
  O  O13  1  0.69010500  0.52131300  0.78758100  1
  O  O14  1  0.00831700  0.25967100  0.46188200  1
  O  O15  1  0.48426800  0.26312900  0.47820400  1
  O  O16  1  0.08293600  0.21663600  0.72779100  1
  O  O17  1  0.60727300  0.21798700  0.74802300  1
loop_
_geom_bond_atom_site_label_1
_geom_bond_atom_site_label_2
_geom_bond_distance
_geom_bond_site_symmetry_2
Li0 O1 1.955143 1_555
Li0 O0 1.976665 1_655
Li0 O2 2.003568 1_555
Li0 O14 2.005501 1_665
Li1 O1 1.972516 1_555
Li1 O0 1.998643 1_555
Li1 O3 2.040313 1_555
Li1 O15 2.087213 1_565
Li2 O7 1.923049 1_455
Li2 O6 1.937328 1_555
Li2 O12 1.986339 1_555
Li2 O8 2.046573 1_455
Li3 O11 1.917448 1_555
Li3 O17 1.979872 1_554
Li3 O10 1.992507 1_655
Li3 O5 2.074370 1_555
Mn0 O10 1.963001 1_555
Mn0 O9 1.967552 1_555
Mn0 O14 1.987948 1_555
Mn0 O8 2.137352 1_455
Mn0 O15 2.183882 1_555
Mn1 O11 2.032790 1_555
Mn1 O9 2.172533 1_555
Mn1 O8 2.183056 1_555
Mn1 O15 2.190298 1_555
Mn1 O14 2.363370 1_655
Mn2 O1 2.057793 1_556
Mn2 O13 2.181075 1_555
Mn2 O4 2.217119 1_556
Mn2 O12 2.241313 1_555
Mn2 O5 2.414993 1_556
Mn2 O6 2.735827 1_555
Mn3 O4 1.946214 1_556
Mn3 O13 1.979101 1_455
Mn3 O5 2.004031 1_456
Mn3 O12 2.037189 1_555
Mn3 O0 2.133478 1_556
Mn4 O6 2.066264 1_545
Mn4 O17 2.179700 1_555
Mn4 O16 2.227180 1_555
Mn4 O3 2.241261 1_545
Mn4 O2 2.257205 1_445
Mn5 O7 2.012823 1_545
Mn5 O16 2.136981 1_655
Mn5 O3 2.142558 1_545
Mn5 O2 2.190068 1_545
Mn5 O17 2.196792 1_555
B0 O3 1.374961 1_555
B0 O9 1.387910 1_555
B0 O4 1.398529 1_555
B1 O2 1.369857 1_555
B1 O8 1.393993 1_555
B1 O5 1.404172 1_555
B2 O16 1.355172 1_555
B2 O14 1.403523 1_555
B2 O12 1.412110 1_555
B3 O17 1.379100 1_555
B3 O15 1.391039 1_555
B3 O13 1.406801 1_555
B4 O7 1.369755 1_454
B4 O10 1.396351 1_565
B4 O0 1.396656 1_555
B5 O11 1.375829 1_555
B5 O6 1.382223 1_544
B5 O1 1.410672 1_545
