# generated using pymatgen
data_KFe3(PO6)2
_symmetry_space_group_name_H-M   'P 1'
_cell_length_a   6.37976900
_cell_length_b   7.41814100
_cell_length_c   10.06227200
_cell_angle_alpha   90.00000000
_cell_angle_beta   90.00000000
_cell_angle_gamma   90.00000000
_symmetry_Int_Tables_number   1
_chemical_formula_structural   KFe3(PO6)2
_chemical_formula_sum   'K2 Fe6 P4 O24'
_cell_volume   476.20734618
_cell_formula_units_Z   2
loop_
 _symmetry_equiv_pos_site_id
 _symmetry_equiv_pos_as_xyz
  1  'x, y, z'
loop_
 _atom_site_type_symbol
 _atom_site_label
 _atom_site_symmetry_multiplicity
 _atom_site_fract_x
 _atom_site_fract_y
 _atom_site_fract_z
 _atom_site_occupancy
  K  K0  1  0.50000000  0.53196000  0.03315300  1
  K  K1  1  0.50000000  0.46804000  0.53315300  1
  Fe  Fe0  1  0.23815300  0.96209300  0.49490000  1
  Fe  Fe1  1  0.76184700  0.96209300  0.49490000  1
  Fe  Fe2  1  0.76184700  0.03790700  0.99490000  1
  Fe  Fe3  1  0.23815300  0.03790700  0.99490000  1
  Fe  Fe4  1  0.00000000  0.30145100  0.26440800  1
  Fe  Fe5  1  0.00000000  0.69854900  0.76440800  1
  P  P0  1  0.50000000  0.18175800  0.25784500  1
  P  P1  1  0.50000000  0.81824200  0.75784500  1
  P  P2  1  0.00000000  0.30895800  0.57971600  1
  P  P3  1  0.00000000  0.69104200  0.07971600  1
  O  O0  1  0.28031400  0.75368800  0.42238600  1
  O  O1  1  0.71968600  0.75368800  0.42238600  1
  O  O2  1  0.71968600  0.24631200  0.92238600  1
  O  O3  1  0.28031400  0.24631200  0.92238600  1
  O  O4  1  0.50000000  0.92870500  0.62506600  1
  O  O5  1  0.50000000  0.07129500  0.12506600  1
  O  O6  1  0.50000000  0.05825300  0.38489600  1
  O  O7  1  0.50000000  0.94174700  0.88489600  1
  O  O8  1  0.20126100  0.18845600  0.59056200  1
  O  O9  1  0.79873900  0.18845600  0.59056200  1
  O  O10  1  0.79873900  0.81154400  0.09056200  1
  O  O11  1  0.20126100  0.81154400  0.09056200  1
  O  O12  1  0.00000000  0.04576300  0.37836800  1
  O  O13  1  0.00000000  0.95423700  0.87836800  1
  O  O14  1  0.00000000  0.85507600  0.60012600  1
  O  O15  1  0.00000000  0.14492400  0.10012600  1
  O  O16  1  0.30635000  0.30425700  0.26284000  1
  O  O17  1  0.69365000  0.30425700  0.26284000  1
  O  O18  1  0.69365000  0.69574300  0.76284000  1
  O  O19  1  0.30635000  0.69574300  0.76284000  1
  O  O20  1  0.00000000  0.40615100  0.44401900  1
  O  O21  1  0.00000000  0.59384900  0.94401900  1
  O  O22  1  0.00000000  0.44937800  0.68902700  1
  O  O23  1  0.00000000  0.55062200  0.18902700  1
loop_
_geom_bond_atom_site_label_1
_geom_bond_atom_site_label_2
_geom_bond_distance
_geom_bond_site_symmetry_2
K0 O3 2.774285 1_554
K0 O2 2.774285 1_554
K0 O11 2.875334 1_555
K0 O10 2.875334 1_555
K0 O16 3.117853 1_555
K0 O17 3.117853 1_555
K0 O18 3.225005 1_554
K0 O19 3.225005 1_554
K1 O0 2.774285 1_555
K1 O1 2.774285 1_555
K1 O8 2.875334 1_555
K1 O9 2.875334 1_555
K1 O18 3.117853 1_555
K1 O19 3.117853 1_555
K1 O16 3.225005 1_555
K1 O17 3.225005 1_555
Fe0 O0 1.730547 1_555
Fe0 O8 1.949779 1_565
Fe0 O14 2.014886 1_555
Fe0 O12 2.017085 1_565
Fe0 O6 2.127132 1_565
Fe0 O4 2.137166 1_555
Fe1 O1 1.730547 1_555
Fe1 O9 1.949779 1_565
Fe1 O14 2.014886 1_655
Fe1 O12 2.017085 1_665
Fe1 O6 2.127132 1_565
Fe1 O4 2.137166 1_555
Fe2 O2 1.730547 1_555
Fe2 O10 1.949779 1_546
Fe2 O15 2.014886 1_656
Fe2 O13 2.017085 1_645
Fe2 O7 2.127132 1_545
Fe2 O5 2.137166 1_556
Fe3 O3 1.730547 1_555
Fe3 O11 1.949779 1_546
Fe3 O15 2.014886 1_556
Fe3 O13 2.017085 1_545
Fe3 O7 2.127132 1_545
Fe3 O5 2.137166 1_556
Fe4 O17 1.954617 1_455
Fe4 O16 1.954617 1_555
Fe4 O20 1.967116 1_555
Fe4 O23 1.997963 1_555
Fe4 O15 2.020104 1_555
Fe4 O12 2.216415 1_555
Fe5 O19 1.954617 1_555
Fe5 O18 1.954617 1_455
Fe5 O21 1.967116 1_555
Fe5 O22 1.997963 1_555
Fe5 O14 2.020104 1_555
Fe5 O13 2.216415 1_555
O4 P1 1.567328 1_555
O5 P0 1.567328 1_555
O6 P0 1.572814 1_555
O7 P1 1.572814 1_555
O8 P2 1.568318 1_555
O9 P2 1.568318 1_655
O10 P3 1.568318 1_655
O11 P3 1.568318 1_555
O16 P0 1.534473 1_555
O17 P0 1.534473 1_555
O18 P1 1.534473 1_555
O19 P1 1.534473 1_555
O20 P2 1.544086 1_555
O21 P3 1.544086 1_556
O22 P2 1.514881 1_555
O23 P3 1.514881 1_555
