# generated using pymatgen
data_Li3VCr3O8
_symmetry_space_group_name_H-M   'P 1'
_cell_length_a   5.86372700
_cell_length_b   5.93224449
_cell_length_c   5.94832158
_cell_angle_alpha   119.54995063
_cell_angle_beta   90.18844587
_cell_angle_gamma   119.47794207
_symmetry_Int_Tables_number   1
_chemical_formula_structural   Li3VCr3O8
_chemical_formula_sum   'Li3 V1 Cr3 O8'
_cell_volume   148.20110758
_cell_formula_units_Z   1
loop_
 _symmetry_equiv_pos_site_id
 _symmetry_equiv_pos_as_xyz
  1  'x, y, z'
loop_
 _atom_site_type_symbol
 _atom_site_label
 _atom_site_symmetry_multiplicity
 _atom_site_fract_x
 _atom_site_fract_y
 _atom_site_fract_z
 _atom_site_occupancy
  Li  Li0  1  0.50000000  0.00000000  0.50000000  1
  Li  Li1  1  0.50000000  0.50000000  0.50000000  1
  Li  Li2  1  0.00000000  0.50000000  0.50000000  1
  V  V0  1  0.00000000  0.00000000  0.00000000  1
  Cr  Cr0  1  0.50000000  0.00000000  0.00000000  1
  Cr  Cr1  1  0.00000000  0.50000000  0.00000000  1
  Cr  Cr2  1  0.50000000  0.50000000  0.00000000  1
  O  O0  1  0.30625500  0.03865000  0.21407200  1
  O  O1  1  0.31322300  0.54769100  0.21612400  1
  O  O2  1  0.80409700  0.55087400  0.21506300  1
  O  O3  1  0.21086700  0.97354800  0.77508100  1
  O  O4  1  0.78913300  0.02645200  0.22491900  1
  O  O5  1  0.19590300  0.44912600  0.78493700  1
  O  O6  1  0.68677700  0.45230900  0.78387600  1
  O  O7  1  0.69374500  0.96135000  0.78592800  1
loop_
_geom_bond_atom_site_label_1
_geom_bond_atom_site_label_2
_geom_bond_distance
_geom_bond_site_symmetry_2
Li0 O1 1.969016 1_545
Li0 O6 1.969016 1_555
Li0 O7 2.205494 1_545
Li0 O0 2.205494 1_555
Li0 O3 2.363483 1_545
Li0 O4 2.363483 1_555
Li1 O0 2.002390 1_555
Li1 O7 2.002390 1_555
Li1 O6 2.212429 1_555
Li1 O1 2.212429 1_555
Li1 O2 2.477527 1_555
Li1 O5 2.477527 1_555
Li2 O3 2.032752 1_555
Li2 O4 2.032752 1_455
Li2 O5 2.261912 1_555
Li2 O2 2.261912 1_455
Li2 O1 2.506966 1_555
Li2 O6 2.506966 1_455
Cr0 O7 1.715396 1_544
Cr0 O0 1.715396 1_555
Cr0 O3 2.050638 1_544
Cr0 O4 2.050638 1_555
Cr0 O2 2.371058 1_555
Cr0 O5 2.371058 1_544
Cr1 O5 1.737011 1_554
Cr1 O2 1.737011 1_455
Cr1 O1 2.054353 1_555
Cr1 O6 2.054353 1_454
Cr1 O7 2.319692 1_444
Cr1 O0 2.319692 1_565
Cr2 O6 1.699320 1_554
Cr2 O1 1.699320 1_555
Cr2 O2 1.995430 1_555
Cr2 O5 1.995430 1_554
Cr2 O4 2.251769 1_565
Cr2 O3 2.251769 1_544
O0 V0 2.047113 1_555
O1 V0 2.360900 1_555
O3 V0 1.827070 1_566
O4 V0 1.827070 1_655
O6 V0 2.360900 1_666
O7 V0 2.047113 1_666
