# generated using pymatgen
data_Hf2N
_symmetry_space_group_name_H-M   'P 1'
_cell_length_a   5.31312402
_cell_length_b   5.31312402
_cell_length_c   3.24209839
_cell_angle_alpha   90.00000000
_cell_angle_beta   90.00000000
_cell_angle_gamma   90.00000000
_symmetry_Int_Tables_number   1
_chemical_formula_structural   Hf2N
_chemical_formula_sum   'Hf4 N2'
_cell_volume   91.52212545
_cell_formula_units_Z   2
loop_
 _symmetry_equiv_pos_site_id
 _symmetry_equiv_pos_as_xyz
  1  'x, y, z'
loop_
 _atom_site_type_symbol
 _atom_site_label
 _atom_site_symmetry_multiplicity
 _atom_site_fract_x
 _atom_site_fract_y
 _atom_site_fract_z
 _atom_site_occupancy
  Hf  Hf0  1  0.29553637  0.29553637  0.00000000  1
  Hf  Hf1  1  0.70446263  0.70446263  0.00000000  1
  Hf  Hf2  1  0.79553637  0.20446463  0.50000100  1
  Hf  Hf3  1  0.20446463  0.79553637  0.50000100  1
  N  N0  1  -0.00000000  -0.00000000  -0.00000000  1
  N  N1  1  0.50000000  0.50000000  0.50000100  1
loop_
_geom_bond_atom_site_label_1
_geom_bond_atom_site_label_2
_geom_bond_distance
_geom_bond_site_symmetry_2
Hf0 N0 2.220628 1_555
Hf0 N1 2.233397 1_554
Hf0 N1 2.233402 1_555
Hf1 N0 2.220636 1_665
Hf1 N1 2.233392 1_554
Hf1 N1 2.233396 1_555
Hf2 N1 2.220625 1_555
Hf2 N0 2.233400 1_656
Hf2 N0 2.233404 1_655
Hf3 N1 2.220625 1_555
Hf3 N0 2.233400 1_566
Hf3 N0 2.233404 1_565
