# generated using pymatgen
data_Mn3OF8
_symmetry_space_group_name_H-M   'P 1'
_cell_length_a   5.15579700
_cell_length_b   5.17815571
_cell_length_c   13.42713534
_cell_angle_alpha   89.99617363
_cell_angle_beta   91.66272700
_cell_angle_gamma   59.90399427
_symmetry_Int_Tables_number   1
_chemical_formula_structural   Mn3OF8
_chemical_formula_sum   'Mn6 O2 F16'
_cell_volume   309.96953834
_cell_formula_units_Z   2
loop_
 _symmetry_equiv_pos_site_id
 _symmetry_equiv_pos_as_xyz
  1  'x, y, z'
loop_
 _atom_site_type_symbol
 _atom_site_label
 _atom_site_symmetry_multiplicity
 _atom_site_fract_x
 _atom_site_fract_y
 _atom_site_fract_z
 _atom_site_occupancy
  Mn  Mn0  1  0.00834300  0.96675900  0.00563800  1
  Mn  Mn1  1  0.00669700  0.02553300  0.50502200  1
  Mn  Mn2  1  0.32685100  0.31873800  0.66121800  1
  Mn  Mn3  1  0.33090600  0.35182600  0.16158800  1
  Mn  Mn4  1  0.67060900  0.64297400  0.83333300  1
  Mn  Mn5  1  0.67319100  0.68439800  0.33327900  1
  O  O0  1  0.03952300  0.29079600  0.58330200  1
  O  O1  1  0.04168000  0.67057500  0.08527800  1
  F  F0  1  0.02009300  0.40009000  0.24814200  1
  F  F1  1  0.26473400  0.05002500  0.08107400  1
  F  F2  1  0.40779300  0.96304300  0.75257900  1
  F  F3  1  0.26229500  0.69123200  0.58084600  1
  F  F4  1  0.60568000  0.02126700  0.25032800  1
  F  F5  1  0.67058600  0.06451000  0.57853400  1
  F  F6  1  0.32127700  0.72411900  0.92423900  1
  F  F7  1  0.41196100  0.62653300  0.25144300  1
  F  F8  1  0.59834900  0.37539700  0.75087100  1
  F  F9  1  0.67025500  0.26763300  0.07869900  1
  F  F10  1  0.31930800  0.95391100  0.42370600  1
  F  F11  1  0.73316800  0.34180000  0.41579300  1
  F  F12  1  0.93466800  0.31532500  0.91592200  1
  F  F13  1  0.73437100  0.92196400  0.91579800  1
  F  F14  1  0.01193800  0.58292200  0.74649500  1
  F  F15  1  0.93572300  0.74862800  0.41687300  1
loop_
_geom_bond_atom_site_label_1
_geom_bond_atom_site_label_2
_geom_bond_distance
_geom_bond_site_symmetry_2
Mn0 O1 1.802765 1_555
Mn1 O0 1.800867 1_555
Mn2 O0 1.853389 1_555
Mn3 O1 1.854850 1_555
F0 Mn3 1.920296 1_555
F0 Mn5 2.037450 1_455
F1 Mn0 1.858288 1_545
F1 Mn3 2.059347 1_555
F2 Mn4 1.849558 1_555
F2 Mn2 2.066519 1_565
F3 Mn1 1.844940 1_565
F3 Mn2 2.081057 1_555
F4 Mn5 1.942370 1_545
F4 Mn3 1.956119 1_555
F5 Mn1 1.940759 1_655
F5 Mn2 1.970010 1_555
F6 Mn0 1.856283 1_556
F6 Mn4 2.068577 1_555
F7 Mn5 1.852049 1_555
F7 Mn3 2.054474 1_555
F8 Mn4 1.943832 1_555
F8 Mn2 1.951593 1_555
F9 Mn0 1.950364 1_645
F9 Mn3 1.959078 1_555
F10 Mn1 1.852058 1_565
F10 Mn5 2.079889 1_555
F11 Mn1 1.921374 1_655
F11 Mn5 1.974835 1_555
F12 Mn4 1.886094 1_555
F12 Mn0 2.034391 1_646
F13 Mn0 1.932351 1_656
F13 Mn4 1.968890 1_555
F14 Mn2 1.923328 1_555
F14 Mn4 2.030641 1_455
F15 Mn5 1.888377 1_555
F15 Mn1 2.022878 1_665
