# generated using pymatgen
data_LiV2OF5
_symmetry_space_group_name_H-M   'P 1'
_cell_length_a   4.75465529
_cell_length_b   4.75465529
_cell_length_c   18.61395631
_cell_angle_alpha   89.77885113
_cell_angle_beta   89.77885113
_cell_angle_gamma   90.00122702
_symmetry_Int_Tables_number   1
_chemical_formula_structural   LiV2OF5
_chemical_formula_sum   'Li4 V8 O4 F20'
_cell_volume   420.79473104
_cell_formula_units_Z   4
loop_
 _symmetry_equiv_pos_site_id
 _symmetry_equiv_pos_as_xyz
  1  'x, y, z'
loop_
 _atom_site_type_symbol
 _atom_site_label
 _atom_site_symmetry_multiplicity
 _atom_site_fract_x
 _atom_site_fract_y
 _atom_site_fract_z
 _atom_site_occupancy
  Li  Li0  1  0.99553800  0.00304000  0.99999400  1
  Li  Li1  1  0.00304000  0.99553800  0.49999400  1
  Li  Li2  1  0.49624300  0.49669800  0.25006600  1
  Li  Li3  1  0.49669800  0.49624300  0.75006600  1
  V  V0  1  0.02179000  0.97524400  0.16703600  1
  V  V1  1  0.99187900  0.99152500  0.33969900  1
  V  V2  1  0.97524400  0.02179000  0.66703600  1
  V  V3  1  0.99152500  0.99187900  0.83969900  1
  V  V4  1  0.49085900  0.50743800  0.08975200  1
  V  V5  1  0.52435800  0.52096100  0.41711500  1
  V  V6  1  0.52096100  0.52435800  0.91711500  1
  V  V7  1  0.50743800  0.49085900  0.58975200  1
  O  O0  1  0.79177700  0.79030100  0.40602300  1
  O  O1  1  0.79030100  0.79177700  0.90602300  1
  O  O2  1  0.70699400  0.29012400  0.65599600  1
  O  O3  1  0.29012400  0.70699400  0.15599600  1
  F  F0  1  0.80035700  0.80275400  0.08432200  1
  F  F1  1  0.80275400  0.80035700  0.58432200  1
  F  F2  1  0.80682100  0.80454300  0.25102600  1
  F  F3  1  0.80454300  0.80682100  0.75102600  1
  F  F4  1  0.68797900  0.31396700  0.00247200  1
  F  F5  1  0.69542900  0.30645500  0.50081300  1
  F  F6  1  0.71057900  0.28745700  0.16487400  1
  F  F7  1  0.69653300  0.30120000  0.83471100  1
  F  F8  1  0.69827300  0.30082700  0.33436100  1
  F  F9  1  0.30120000  0.69653300  0.33471100  1
  F  F10  1  0.30082700  0.69827300  0.83436100  1
  F  F11  1  0.28745700  0.71057900  0.66487400  1
  F  F12  1  0.31396700  0.68797900  0.50247200  1
  F  F13  1  0.30645500  0.69542900  0.00081300  1
  F  F14  1  0.18455900  0.18966300  0.75221800  1
  F  F15  1  0.18966300  0.18455900  0.25221800  1
  F  F16  1  0.21222900  0.20977700  0.41485000  1
  F  F17  1  0.20977700  0.21222900  0.91485000  1
  F  F18  1  0.19870100  0.19713000  0.58467200  1
  F  F19  1  0.19713000  0.19870100  0.08467200  1
loop_
_geom_bond_atom_site_label_1
_geom_bond_atom_site_label_2
_geom_bond_distance
_geom_bond_site_symmetry_2
Li0 O1 2.246672 1_545
Li1 O0 2.246672 1_455
Li2 O3 2.241884 1_555
Li3 O2 2.241884 1_555
O0 V5 1.815255 1_555
O0 V1 1.823858 1_555
O1 V6 1.815255 1_555
O1 V3 1.823858 1_555
O2 V2 1.815707 1_555
O2 V7 1.825272 1_555
O3 V0 1.815707 1_555
O3 V4 1.825272 1_555
F0 V4 2.035910 1_555
F0 V0 2.042983 1_655
F0 Li0 2.051619 1_564
F1 V7 2.035910 1_555
F1 V2 2.042983 1_565
F1 Li1 2.051619 1_655
F2 V0 2.031118 1_655
F2 V1 2.076397 1_555
F2 Li2 2.079341 1_555
F3 V2 2.031118 1_565
F3 V3 2.076397 1_555
F3 Li3 2.079341 1_555
F4 V6 2.037935 1_554
F4 Li0 2.079946 1_554
F4 V4 2.088980 1_555
F5 V5 2.031393 1_555
F5 V7 2.075619 1_555
F5 Li1 2.079630 1_645
F6 V4 2.034868 1_555
F6 V0 2.096393 1_645
F6 Li2 2.131361 1_555
F7 V3 2.034430 1_545
F7 V6 2.044047 1_555
F7 Li3 2.060471 1_555
F8 V1 2.030134 1_545
F8 V5 2.038306 1_555
F8 Li2 2.062133 1_555
F9 V1 2.034430 1_455
F9 V5 2.044047 1_555
F9 Li2 2.060471 1_555
F10 V3 2.030134 1_455
F10 V6 2.038306 1_555
F10 Li3 2.062133 1_555
F11 V7 2.034868 1_555
F11 V2 2.096393 1_465
F11 Li3 2.131361 1_555
F12 V5 2.037935 1_555
F12 Li1 2.079946 1_555
F12 V7 2.088980 1_555
F13 V6 2.031393 1_554
F13 V4 2.075619 1_555
F13 Li0 2.079630 1_464
F14 V2 2.040469 1_455
F14 Li3 2.080392 1_555
F14 V3 2.086841 1_445
F15 V0 2.040469 1_545
F15 Li2 2.080392 1_555
F15 V1 2.086841 1_445
F16 V1 2.038081 1_445
F16 V5 2.096243 1_555
F16 Li1 2.124621 1_545
F17 V3 2.038081 1_445
F17 V6 2.096243 1_555
F17 Li0 2.124621 1_455
F18 V7 2.028848 1_555
F18 V2 2.037603 1_455
F18 Li1 2.071596 1_545
F19 V4 2.028848 1_555
F19 V0 2.037603 1_545
F19 Li0 2.071596 1_454
