# generated using pymatgen
data_NaEuTl2
_symmetry_space_group_name_H-M   'P 1'
_cell_length_a   5.44253327
_cell_length_b   5.44253202
_cell_length_c   5.44184713
_cell_angle_alpha   60.00157655
_cell_angle_beta   60.00788203
_cell_angle_gamma   59.99087172
_symmetry_Int_Tables_number   1
_chemical_formula_structural   NaEuTl2
_chemical_formula_sum   'Na1 Eu1 Tl2'
_cell_volume   113.98153181
_cell_formula_units_Z   1
loop_
 _symmetry_equiv_pos_site_id
 _symmetry_equiv_pos_as_xyz
  1  'x, y, z'
loop_
 _atom_site_type_symbol
 _atom_site_label
 _atom_site_symmetry_multiplicity
 _atom_site_fract_x
 _atom_site_fract_y
 _atom_site_fract_z
 _atom_site_occupancy
  Na  Na0  1  0.75000058  0.75000572  0.74999349  1
  Eu  Eu0  1  0.24999960  0.24999543  0.25000611  1
  Tl  Tl0  1  0.99998656  0.00001901  0.00000055  1
  Tl  Tl1  1  0.50001126  0.49997985  0.50000084  1
loop_
_geom_bond_atom_site_label_1
_geom_bond_atom_site_label_2
_geom_bond_distance
_geom_bond_site_symmetry_2
Na0 Tl1 3.332485 1_565
Na0 Tl0 3.332541 1_556
Na0 Tl0 3.332721 1_565
Na0 Tl0 3.332742 1_566
Na0 Tl1 3.332749 1_555
Na0 Tl1 3.332785 1_556
Na0 Tl1 3.332860 1_655
Na0 Tl0 3.332875 1_466
Eu0 Tl1 3.332669 1_545
Eu0 Tl1 3.332673 1_555
Eu0 Tl0 3.332692 1_455
Eu0 Tl0 3.332705 1_465
Eu0 Tl0 3.332727 1_456
Eu0 Tl0 3.332755 1_555
Eu0 Tl1 3.332761 1_455
Eu0 Tl1 3.332775 1_554
