# generated using pymatgen
data_NaRhO2
_symmetry_space_group_name_H-M   'P 1'
_cell_length_a   5.40042233
_cell_length_b   5.40042248
_cell_length_c   5.40042200
_cell_angle_alpha   33.55068952
_cell_angle_beta   33.55068277
_cell_angle_gamma   33.55069151
_symmetry_Int_Tables_number   1
_chemical_formula_structural   NaRhO2
_chemical_formula_sum   'Na1 Rh1 O2'
_cell_volume   42.85092387
_cell_formula_units_Z   1
loop_
 _symmetry_equiv_pos_site_id
 _symmetry_equiv_pos_as_xyz
  1  'x, y, z'
loop_
 _atom_site_type_symbol
 _atom_site_label
 _atom_site_symmetry_multiplicity
 _atom_site_fract_x
 _atom_site_fract_y
 _atom_site_fract_z
 _atom_site_occupancy
  Na  Na0  1  -0.00000000  -0.00000000  0.00000000  1
  Rh  Rh0  1  0.50000000  0.50000000  0.50000000  1
  O  O0  1  0.76591733  0.76591733  0.76591733  1
  O  O1  1  0.23408267  0.23408267  0.23408267  1
loop_
_geom_bond_atom_site_label_1
_geom_bond_atom_site_label_2
_geom_bond_distance
_geom_bond_site_symmetry_2
Na0 O1 2.353232 1_554
Na0 O0 2.353232 1_445
Na0 O1 2.353233 1_455
Na0 O0 2.353233 1_544
Na0 O1 2.353233 1_545
Na0 O0 2.353233 1_454
O0 Rh0 2.073576 1_556
O0 Rh0 2.073577 1_655
O0 Rh0 2.073577 1_565
O1 Rh0 2.073576 1_554
O1 Rh0 2.073577 1_455
O1 Rh0 2.073577 1_545
