# generated using pymatgen
data_Pr2In8Pd
_symmetry_space_group_name_H-M   'P 1'
_cell_length_a   4.71906071
_cell_length_b   4.71904568
_cell_length_c   12.29161128
_cell_angle_alpha   89.99592426
_cell_angle_beta   90.00111952
_cell_angle_gamma   90.01682849
_symmetry_Int_Tables_number   1
_chemical_formula_structural   Pr2In8Pd
_chemical_formula_sum   'Pr2 In8 Pd1'
_cell_volume   273.72757073
_cell_formula_units_Z   1
loop_
 _symmetry_equiv_pos_site_id
 _symmetry_equiv_pos_as_xyz
  1  'x, y, z'
loop_
 _atom_site_type_symbol
 _atom_site_label
 _atom_site_symmetry_multiplicity
 _atom_site_fract_x
 _atom_site_fract_y
 _atom_site_fract_z
 _atom_site_occupancy
  Pr  Pr0  1  -0.00006360  0.00000630  0.30889421  1
  Pr  Pr1  1  -0.00005983  0.00000165  0.69107403  1
  In  In0  1  0.50008296  0.00003309  0.12203222  1
  In  In1  1  0.00005490  0.50002599  0.12204264  1
  In  In2  1  0.49982825  0.49995197  0.30516074  1
  In  In3  1  0.50006445  -0.00000102  0.49988012  1
  In  In4  1  -0.00004066  0.49998864  0.50002214  1
  In  In5  1  0.49982901  0.49993543  0.69484121  1
  In  In6  1  0.50008091  0.00006326  0.87798618  1
  In  In7  1  0.00000152  0.50003743  0.87799377  1
  Pd  Pd0  1  0.00020809  -0.00005374  0.00007175  1
loop_
_geom_bond_atom_site_label_1
_geom_bond_atom_site_label_2
_geom_bond_distance
_geom_bond_site_symmetry_2
In0 Pd0 2.794948 1_555
In0 Pd0 2.795994 1_655
In0 In6 2.999719 1_554
In0 In2 3.260836 1_555
In0 In2 3.261158 1_545
In0 Pr0 3.292318 1_655
In0 Pr0 3.293374 1_555
In0 In1 3.336267 1_655
In0 In1 3.336502 1_545
In0 In1 3.337295 1_645
In0 In1 3.337434 1_555
In1 Pd0 2.795125 1_565
In1 Pd0 2.795941 1_555
In1 In7 2.999754 1_554
In1 In2 3.260108 1_555
In1 In2 3.261720 1_455
In1 Pr0 3.292701 1_555
In1 Pr0 3.292802 1_565
In2 Pr0 3.336156 1_555
In2 Pr0 3.337244 1_665
In2 Pr0 3.337503 1_565
In2 Pr0 3.337857 1_655
In2 In3 3.360645 1_555
In2 In3 3.361195 1_565
In2 In4 3.361767 1_555
In2 In4 3.362570 1_655
In3 Pr0 3.328005 1_655
In3 Pr0 3.328797 1_555
In3 Pr1 3.329757 1_655
In3 Pr1 3.330653 1_555
In3 In4 3.336000 1_655
In3 In4 3.336770 1_545
In3 In4 3.337049 1_645
In3 In4 3.337681 1_555
In3 In5 3.362946 1_555
In3 In5 3.363127 1_545
In4 Pr1 3.328806 1_555
In4 Pr1 3.329130 1_565
In4 Pr0 3.329568 1_565
In4 Pr0 3.329687 1_555
In4 In5 3.361334 1_555
In4 In5 3.362262 1_455
In5 In6 3.260584 1_555
In5 In7 3.260649 1_555
In5 In6 3.261689 1_565
In5 In7 3.261763 1_655
In5 Pr1 3.336116 1_555
In5 Pr1 3.337296 1_665
In5 Pr1 3.337533 1_565
In5 Pr1 3.337839 1_655
In6 Pd0 2.795814 1_556
In6 Pd0 2.796777 1_656
In6 Pr1 3.292832 1_655
In6 Pr1 3.293720 1_555
In6 In7 3.336033 1_655
In6 In7 3.336735 1_545
In6 In7 3.337186 1_645
In6 In7 3.337543 1_555
In7 Pd0 2.795966 1_566
In7 Pd0 2.796513 1_556
In7 Pr1 3.293098 1_565
In7 Pr1 3.293574 1_555
