# generated using pymatgen
data_Li2Mn3(BO3)3
_symmetry_space_group_name_H-M   'P 1'
_cell_length_a   9.01831964
_cell_length_b   7.87540513
_cell_length_c   6.14577807
_cell_angle_alpha   80.68503634
_cell_angle_beta   76.74436541
_cell_angle_gamma   114.06981050
_symmetry_Int_Tables_number   1
_chemical_formula_structural   Li2Mn3(BO3)3
_chemical_formula_sum   'Li4 Mn6 B6 O18'
_cell_volume   371.55853971
_cell_formula_units_Z   2
loop_
 _symmetry_equiv_pos_site_id
 _symmetry_equiv_pos_as_xyz
  1  'x, y, z'
loop_
 _atom_site_type_symbol
 _atom_site_label
 _atom_site_symmetry_multiplicity
 _atom_site_fract_x
 _atom_site_fract_y
 _atom_site_fract_z
 _atom_site_occupancy
  Li  Li0  1  0.61981400  0.16182300  0.16672200  1
  Li  Li1  1  0.04685200  0.17151000  0.49994500  1
  Li  Li2  1  0.27062900  0.48545700  0.83042900  1
  Li  Li3  1  0.39603800  0.84787600  0.83623700  1
  Mn  Mn0  1  0.25700800  0.11851100  0.12090400  1
  Mn  Mn1  1  0.40965900  0.21482200  0.54576300  1
  Mn  Mn2  1  0.04764400  0.53452100  0.21668100  1
  Mn  Mn3  1  0.92971800  0.49005100  0.75653500  1
  Mn  Mn4  1  0.61902200  0.79881200  0.44998500  1
  Mn  Mn5  1  0.73694800  0.84328200  0.91013200  1
  B  B0  1  0.93421900  0.14105300  0.10253300  1
  B  B1  1  0.73244800  0.19228000  0.56413400  1
  B  B2  1  0.38759300  0.53034000  0.20941500  1
  B  B3  1  0.59632000  0.46334500  0.81187200  1
  B  B4  1  0.27907400  0.80299400  0.45725200  1
  B  B5  1  0.07034600  0.86998900  0.85479500  1
  O  O0  1  0.00442400  0.06396100  0.23745700  1
  O  O1  1  0.76214100  0.01937300  0.11328100  1
  O  O2  1  0.65375800  0.99706400  0.68754800  1
  O  O3  1  0.30116300  0.33684500  0.34427000  1
  O  O4  1  0.66224300  0.26937300  0.42921000  1
  O  O5  1  0.31204400  0.61147800  0.08547100  1
  O  O6  1  0.90452600  0.31396000  0.55338600  1
  O  O7  1  0.55938300  0.64024200  0.19435900  1
  O  O8  1  0.98216100  0.66760400  0.95313300  1
  O  O9  1  0.01290800  0.33626900  0.97911900  1
  O  O10  1  0.42752700  0.36507200  0.81490900  1
  O  O11  1  0.10728300  0.69309100  0.47230700  1
  O  O12  1  0.67574100  0.36515800  0.89688100  1
  O  O13  1  0.35462200  0.72185500  0.58119600  1
  O  O14  1  0.68450500  0.66573000  0.71353400  1
  O  O15  1  0.36550300  0.99648800  0.32239700  1
  O  O16  1  0.23914000  0.96826100  0.85175800  1
  O  O17  1  0.99092500  0.96817500  0.76978500  1
loop_
_geom_bond_atom_site_label_1
_geom_bond_atom_site_label_2
_geom_bond_distance
_geom_bond_site_symmetry_2
Li0 O12 1.914899 1_554
Li0 O4 1.981729 1_555
Li0 O15 2.006310 1_545
Li0 O1 2.028409 1_555
Li1 O17 1.914895 1_445
Li1 O0 1.981724 1_555
Li1 O3 2.006310 1_555
Li1 O6 2.028401 1_455
Li2 O13 1.944342 1_555
Li2 O10 1.992910 1_555
Li2 O5 2.012717 1_556
Li2 O9 2.017027 1_555
Li3 O5 1.944343 1_556
Li3 O16 1.992910 1_555
Li3 O13 2.012713 1_555
Li3 O2 2.017019 1_555
Mn0 O0 2.059196 1_555
Mn0 O15 2.086069 1_545
Mn0 O10 2.174349 1_554
Mn0 O16 2.182320 1_544
Mn0 O3 2.335787 1_555
Mn1 O4 2.059194 1_555
Mn1 O3 2.086076 1_555
Mn1 O16 2.174349 1_545
Mn1 O10 2.182320 1_555
Mn1 O15 2.335787 1_545
Mn2 O8 2.112971 1_454
Mn2 O5 2.117633 1_555
Mn2 O6 2.178983 1_455
Mn2 O11 2.188977 1_555
Mn2 O9 2.283893 1_554
Mn3 O11 1.974035 1_655
Mn3 O8 1.976951 1_555
Mn3 O12 1.984760 1_555
Mn3 O6 1.991771 1_555
Mn3 O9 2.139245 1_655
Mn4 O14 2.112972 1_555
Mn4 O13 2.117634 1_555
Mn4 O1 2.178979 1_565
Mn4 O7 2.188977 1_555
Mn4 O2 2.283898 1_555
Mn5 O7 1.974032 1_556
Mn5 O14 1.976945 1_555
Mn5 O17 1.984761 1_555
Mn5 O1 1.991771 1_566
Mn5 O2 2.139245 1_555
B0 O0 1.359556 1_655
B0 O9 1.388609 1_654
B0 O1 1.431915 1_555
B1 O4 1.359560 1_555
B1 O2 1.388608 1_545
B1 O6 1.431915 1_555
B2 O5 1.374159 1_555
B2 O3 1.393772 1_555
B2 O7 1.404435 1_555
B3 O12 1.369849 1_555
B3 O10 1.392056 1_555
B3 O14 1.404252 1_555
B4 O13 1.374156 1_555
B4 O15 1.393766 1_555
B4 O11 1.404445 1_555
B5 O17 1.369846 1_455
B5 O16 1.392063 1_555
B5 O8 1.404252 1_455
