# generated using pymatgen
data_Lu2ZnTc
_symmetry_space_group_name_H-M   'P 1'
_cell_length_a   4.83287545
_cell_length_b   4.83287545
_cell_length_c   4.83287545
_cell_angle_alpha   60.00000000
_cell_angle_beta   60.00000000
_cell_angle_gamma   60.00000000
_symmetry_Int_Tables_number   1
_chemical_formula_structural   Lu2ZnTc
_chemical_formula_sum   'Lu2 Zn1 Tc1'
_cell_volume   79.81817793
_cell_formula_units_Z   1
loop_
 _symmetry_equiv_pos_site_id
 _symmetry_equiv_pos_as_xyz
  1  'x, y, z'
loop_
 _atom_site_type_symbol
 _atom_site_label
 _atom_site_symmetry_multiplicity
 _atom_site_fract_x
 _atom_site_fract_y
 _atom_site_fract_z
 _atom_site_occupancy
  Lu  Lu0  1  0.25000000  0.25000000  0.25000000  1
  Lu  Lu1  1  0.75000000  0.75000000  0.75000000  1
  Zn  Zn0  1  0.00000000  0.00000000  0.00000000  1
  Tc  Tc0  1  0.50000000  0.50000000  0.50000000  1
loop_
_geom_bond_atom_site_label_1
_geom_bond_atom_site_label_2
_geom_bond_distance
_geom_bond_site_symmetry_2
Lu0 Zn0 2.959520 1_555
Lu0 Zn0 2.959520 1_565
Lu0 Tc0 2.959520 1_555
Lu0 Tc0 2.959520 1_554
Lu0 Zn0 2.959520 1_556
Lu0 Tc0 2.959520 1_545
Lu0 Zn0 2.959520 1_655
Lu0 Tc0 2.959520 1_455
Lu1 Zn0 2.959520 1_665
Lu1 Zn0 2.959520 1_666
Lu1 Zn0 2.959520 1_656
Lu1 Tc0 2.959520 1_556
Lu1 Tc0 2.959520 1_555
Lu1 Tc0 2.959520 1_565
Lu1 Zn0 2.959520 1_566
Lu1 Tc0 2.959520 1_655
