# generated using pymatgen
data_LiFeSiO4
_symmetry_space_group_name_H-M   'P 1'
_cell_length_a   4.91198300
_cell_length_b   6.30860400
_cell_length_c   9.13467800
_cell_angle_alpha   90.00000000
_cell_angle_beta   90.00000000
_cell_angle_gamma   90.00000000
_symmetry_Int_Tables_number   1
_chemical_formula_structural   LiFeSiO4
_chemical_formula_sum   'Li4 Fe4 Si4 O16'
_cell_volume   283.06316936
_cell_formula_units_Z   4
loop_
 _symmetry_equiv_pos_site_id
 _symmetry_equiv_pos_as_xyz
  1  'x, y, z'
loop_
 _atom_site_type_symbol
 _atom_site_label
 _atom_site_symmetry_multiplicity
 _atom_site_fract_x
 _atom_site_fract_y
 _atom_site_fract_z
 _atom_site_occupancy
  Li  Li0  1  0.97745200  0.75000000  0.66712900  1
  Li  Li1  1  0.52254800  0.75000000  0.16712900  1
  Li  Li2  1  0.47745200  0.25000000  0.83287100  1
  Li  Li3  1  0.02254800  0.25000000  0.33287100  1
  Fe  Fe0  1  0.00000000  0.50000000  0.00000000  1
  Fe  Fe1  1  0.00000000  0.00000000  0.00000000  1
  Fe  Fe2  1  0.50000000  0.00000000  0.50000000  1
  Fe  Fe3  1  0.50000000  0.50000000  0.50000000  1
  Si  Si0  1  0.97540700  0.25000000  0.67680400  1
  Si  Si1  1  0.52459300  0.25000000  0.17680400  1
  Si  Si2  1  0.47540700  0.75000000  0.82319600  1
  Si  Si3  1  0.02459300  0.75000000  0.32319600  1
  O  O0  1  0.09297700  0.75000000  0.14174000  1
  O  O1  1  0.80242700  0.75000000  0.87275500  1
  O  O2  1  0.67336100  0.46414900  0.11611100  1
  O  O3  1  0.67336100  0.03585100  0.11611100  1
  O  O4  1  0.82663900  0.46414900  0.61611100  1
  O  O5  1  0.82663900  0.03585100  0.61611100  1
  O  O6  1  0.69757300  0.75000000  0.37275500  1
  O  O7  1  0.40702300  0.75000000  0.64174000  1
  O  O8  1  0.59297700  0.25000000  0.35826000  1
  O  O9  1  0.30242700  0.25000000  0.62724500  1
  O  O10  1  0.32663900  0.96414900  0.88388900  1
  O  O11  1  0.32663900  0.53585100  0.88388900  1
  O  O12  1  0.17336100  0.96414900  0.38388900  1
  O  O13  1  0.17336100  0.53585100  0.38388900  1
  O  O14  1  0.19757300  0.25000000  0.12724500  1
  O  O15  1  0.90702300  0.25000000  0.85826000  1
loop_
_geom_bond_atom_site_label_1
_geom_bond_atom_site_label_2
_geom_bond_distance
_geom_bond_site_symmetry_2
Li0 O4 2.004476 1_555
Li0 O5 2.004476 1_565
Li0 O1 2.065728 1_555
Li0 O7 2.122753 1_655
Li1 O2 2.004476 1_555
Li1 O3 2.004476 1_565
Li1 O6 2.065728 1_555
Li1 O0 2.122753 1_555
Li2 O11 2.004476 1_555
Li2 O10 2.004476 1_545
Li2 O9 2.065728 1_555
Li2 O15 2.122753 1_555
Li3 O12 2.004476 1_545
Li3 O13 2.004476 1_555
Li3 O14 2.065728 1_555
Li3 O8 2.122753 1_455
Fe0 O11 1.936581 1_554
Fe0 O2 1.936581 1_455
Fe0 O15 2.091018 1_454
Fe0 O0 2.091018 1_555
Fe0 O14 2.186382 1_555
Fe0 O1 2.186382 1_454
Fe1 O10 1.936581 1_544
Fe1 O3 1.936581 1_455
Fe1 O0 2.091018 1_545
Fe1 O15 2.091018 1_454
Fe1 O14 2.186382 1_555
Fe1 O1 2.186382 1_444
Fe2 O5 1.936581 1_555
Fe2 O12 1.936581 1_545
Fe2 O8 2.091018 1_555
Fe2 O7 2.091018 1_545
Fe2 O6 2.186382 1_545
Fe2 O9 2.186382 1_555
Fe3 O4 1.936581 1_555
Fe3 O13 1.936581 1_555
Fe3 O7 2.091018 1_555
Fe3 O8 2.091018 1_555
Fe3 O6 2.186382 1_555
Fe3 O9 2.186382 1_555
O0 Si3 1.691235 1_555
O1 Si2 1.668891 1_555
O2 Si1 1.632946 1_555
O3 Si1 1.632946 1_555
O4 Si0 1.632946 1_555
O5 Si0 1.632946 1_555
O6 Si3 1.668891 1_655
O7 Si2 1.691235 1_555
O8 Si1 1.691235 1_555
O9 Si0 1.668891 1_455
O10 Si2 1.632946 1_555
O11 Si2 1.632946 1_555
O12 Si3 1.632946 1_555
O13 Si3 1.632946 1_555
O14 Si1 1.668891 1_555
O15 Si0 1.691235 1_555
