# generated using pymatgen
data_Li2AcSn
_symmetry_space_group_name_H-M   'P 1'
_cell_length_a   5.10679369
_cell_length_b   5.10679369
_cell_length_c   5.10679369
_cell_angle_alpha   60.00000000
_cell_angle_beta   60.00000000
_cell_angle_gamma   60.00000000
_symmetry_Int_Tables_number   1
_chemical_formula_structural   Li2AcSn
_chemical_formula_sum   'Li2 Ac1 Sn1'
_cell_volume   94.17376684
_cell_formula_units_Z   1
loop_
 _symmetry_equiv_pos_site_id
 _symmetry_equiv_pos_as_xyz
  1  'x, y, z'
loop_
 _atom_site_type_symbol
 _atom_site_label
 _atom_site_symmetry_multiplicity
 _atom_site_fract_x
 _atom_site_fract_y
 _atom_site_fract_z
 _atom_site_occupancy
  Li  Li0  1  0.25000000  0.25000000  0.25000000  1
  Li  Li1  1  0.75000000  0.75000000  0.75000000  1
  Ac  Ac0  1  0.50000000  0.50000000  0.50000000  1
  Sn  Sn0  1  0.00000000  -0.00000000  -0.00000000  1
loop_
_geom_bond_atom_site_label_1
_geom_bond_atom_site_label_2
_geom_bond_distance
_geom_bond_site_symmetry_2
Li0 Sn0 3.127260 1_565
Li0 Sn0 3.127260 1_555
Li0 Sn0 3.127260 1_655
Li0 Sn0 3.127260 1_556
Li1 Sn0 3.127260 1_656
Li1 Sn0 3.127260 1_666
Li1 Sn0 3.127260 1_566
Li1 Sn0 3.127260 1_665
Ac0 Li1 3.127260 1_455
Ac0 Li1 3.127260 1_554
Ac0 Li0 3.127260 1_555
Ac0 Li0 3.127260 1_655
Ac0 Li1 3.127260 1_555
Ac0 Li0 3.127260 1_565
Ac0 Li1 3.127260 1_545
Ac0 Li0 3.127260 1_556
