# generated using pymatgen
data_TmHfOs2
_symmetry_space_group_name_H-M   'P 1'
_cell_length_a   4.64329166
_cell_length_b   4.64329166
_cell_length_c   4.64329166
_cell_angle_alpha   60.00000000
_cell_angle_beta   60.00000000
_cell_angle_gamma   60.00000000
_symmetry_Int_Tables_number   1
_chemical_formula_structural   TmHfOs2
_chemical_formula_sum   'Tm1 Hf1 Os2'
_cell_volume   70.78853004
_cell_formula_units_Z   1
loop_
 _symmetry_equiv_pos_site_id
 _symmetry_equiv_pos_as_xyz
  1  'x, y, z'
loop_
 _atom_site_type_symbol
 _atom_site_label
 _atom_site_symmetry_multiplicity
 _atom_site_fract_x
 _atom_site_fract_y
 _atom_site_fract_z
 _atom_site_occupancy
  Tm  Tm0  1  0.75000000  0.75000000  0.75000000  1
  Hf  Hf0  1  0.24999900  0.24999900  0.24999900  1
  Os  Os0  1  -0.00000000  -0.00000000  0.00000000  1
  Os  Os1  1  0.50000000  0.50000000  0.50000000  1
loop_
_geom_bond_atom_site_label_1
_geom_bond_atom_site_label_2
_geom_bond_distance
_geom_bond_site_symmetry_2
Hf0 Os0 2.843412 1_555
Hf0 Os1 2.843420 1_554
Hf0 Os1 2.843420 1_545
Hf0 Os1 2.843420 1_455
Hf0 Os0 2.843428 1_565
Hf0 Os0 2.843428 1_556
Hf0 Os0 2.843428 1_655
Hf0 Os1 2.843435 1_555
Os0 Tm0 2.843424 1_444
Os0 Tm0 2.843424 1_544
Os0 Tm0 2.843424 1_445
Os0 Tm0 2.843424 1_454
Os1 Tm0 2.843424 1_545
Os1 Tm0 2.843424 1_455
Os1 Tm0 2.843424 1_555
Os1 Tm0 2.843424 1_554
