# generated using pymatgen
data_Mn6O5F7
_symmetry_space_group_name_H-M   'P 1'
_cell_length_a   4.71037535
_cell_length_b   5.72791123
_cell_length_c   15.65240542
_cell_angle_alpha   89.94988681
_cell_angle_beta   89.48909951
_cell_angle_gamma   88.77880266
_symmetry_Int_Tables_number   1
_chemical_formula_structural   Mn6O5F7
_chemical_formula_sum   'Mn12 O10 F14'
_cell_volume   422.19867051
_cell_formula_units_Z   2
loop_
 _symmetry_equiv_pos_site_id
 _symmetry_equiv_pos_as_xyz
  1  'x, y, z'
loop_
 _atom_site_type_symbol
 _atom_site_label
 _atom_site_symmetry_multiplicity
 _atom_site_fract_x
 _atom_site_fract_y
 _atom_site_fract_z
 _atom_site_occupancy
  Mn  Mn0  1  0.00245500  0.15631800  0.40881800  1
  Mn  Mn1  1  0.98336100  0.84325100  0.24492000  1
  Mn  Mn2  1  0.01220900  0.16789600  0.07301600  1
  Mn  Mn3  1  0.02305300  0.14521500  0.74959400  1
  Mn  Mn4  1  0.04817300  0.84770700  0.58007600  1
  Mn  Mn5  1  0.04844200  0.84181600  0.91671300  1
  Mn  Mn6  1  0.48074400  0.34198600  0.59012800  1
  Mn  Mn7  1  0.49565500  0.35227200  0.92704700  1
  Mn  Mn8  1  0.50093600  0.34185000  0.25816400  1
  Mn  Mn9  1  0.52396400  0.63549900  0.08580400  1
  Mn  Mn10  1  0.49088500  0.65560700  0.41877700  1
  Mn  Mn11  1  0.48598100  0.66863400  0.74839300  1
  O  O0  1  0.20432800  0.11056800  0.30029400  1
  O  O1  1  0.23019900  0.11318200  0.64088100  1
  O  O2  1  0.22972900  0.11853800  0.96880000  1
  O  O3  1  0.22728500  0.89260200  0.46835600  1
  O  O4  1  0.22232600  0.88663800  0.80418000  1
  O  O5  1  0.28181900  0.60843400  0.64359900  1
  O  O6  1  0.29772000  0.60559600  0.98015500  1
  O  O7  1  0.72702500  0.37743200  0.02661800  1
  O  O8  1  0.71351000  0.61010400  0.19618700  1
  O  O9  1  0.70512300  0.38754900  0.36422400  1
  F  F0  1  0.24153900  0.88457500  0.13054800  1
  F  F1  1  0.26744100  0.37370200  0.14985500  1
  F  F2  1  0.22941600  0.61708200  0.30945200  1
  F  F3  1  0.25256400  0.40417500  0.47515400  1
  F  F4  1  0.27384300  0.38857500  0.81762300  1
  F  F5  1  0.73827500  0.60705000  0.53299300  1
  F  F6  1  0.73333300  0.63020400  0.85838100  1
  F  F7  1  0.74404700  0.38603600  0.70409000  1
  F  F8  1  0.76729700  0.10486400  0.18098100  1
  F  F9  1  0.76501600  0.12239900  0.52462300  1
  F  F10  1  0.73286600  0.88554700  0.35781900  1
  F  F11  1  0.78727900  0.87381000  0.02050400  1
  F  F12  1  0.75843600  0.13143900  0.85901900  1
  F  F13  1  0.77372500  0.88184700  0.68421400  1
loop_
_geom_bond_atom_site_label_1
_geom_bond_atom_site_label_2
_geom_bond_distance
_geom_bond_site_symmetry_2
Mn0 O0 1.954400 1_555
Mn0 O9 2.034627 1_455
Mn0 O3 2.053948 1_545
Mn1 O8 2.018014 1_555
Mn1 O0 2.065282 1_665
Mn2 O7 1.928622 1_455
Mn2 O2 1.936312 1_554
Mn3 O4 1.938446 1_545
Mn3 O1 1.960750 1_555
Mn4 O3 1.953967 1_555
Mn4 O1 2.006466 1_565
Mn4 O5 2.007746 1_555
Mn5 O4 1.954939 1_555
Mn5 O2 1.994645 1_565
Mn5 O6 2.036241 1_555
Mn6 O1 1.946494 1_555
Mn6 O5 1.958322 1_555
Mn7 O6 1.896406 1_555
Mn7 O7 1.917003 1_556
Mn7 O2 1.960587 1_555
Mn8 O9 1.946651 1_555
Mn8 O0 2.050066 1_555
Mn8 O8 2.085730 1_555
Mn9 O8 1.955760 1_555
Mn9 O7 1.970904 1_555
Mn9 O6 1.984777 1_554
Mn10 O3 1.974719 1_555
Mn10 O9 2.006455 1_555
Mn11 O5 1.943578 1_555
Mn11 O4 1.944368 1_555
F0 Mn9 2.049372 1_555
F0 Mn2 2.133423 1_565
F0 Mn1 2.170823 1_455
F1 Mn8 2.034980 1_555
F1 Mn2 2.090511 1_555
F1 Mn9 2.183300 1_555
F2 Mn1 1.999104 1_455
F2 Mn10 2.131574 1_555
F2 Mn8 2.159520 1_555
F3 Mn10 2.040104 1_555
F3 Mn6 2.130210 1_555
F3 Mn0 2.139459 1_555
F4 Mn7 2.022479 1_555
F4 Mn3 2.137204 1_555
F4 Mn11 2.189065 1_555
F5 Mn6 2.152489 1_555
F5 Mn10 2.157270 1_555
F5 Mn4 2.163523 1_655
F6 Mn11 2.096178 1_555
F6 Mn5 2.146786 1_655
F6 Mn7 2.234827 1_555
F7 Mn3 2.018645 1_655
F7 Mn11 2.117017 1_555
F7 Mn6 2.199397 1_555
F8 Mn1 2.057529 1_545
F8 Mn2 2.073386 1_655
F8 Mn8 2.186218 1_555
F9 Mn6 2.081403 1_555
F9 Mn0 2.132307 1_655
F9 Mn4 2.221883 1_645
F10 Mn10 1.996662 1_555
F10 Mn1 2.127225 1_555
F10 Mn0 2.181609 1_665
F11 Mn5 2.035054 1_654
F11 Mn9 2.119782 1_555
F11 Mn2 2.174786 1_665
F12 Mn7 2.044030 1_555
F12 Mn3 2.111705 1_655
F12 Mn5 2.314391 1_645
F13 Mn4 2.078121 1_655
F13 Mn11 2.093277 1_555
F13 Mn3 2.191325 1_665
