# generated using pymatgen
data_Li7Mn4(P2O7)4
_symmetry_space_group_name_H-M   'P 1'
_cell_length_a   9.89214500
_cell_length_b   9.91238304
_cell_length_c   11.34728881
_cell_angle_alpha   77.12015837
_cell_angle_beta   89.83783166
_cell_angle_gamma   89.71684887
_symmetry_Int_Tables_number   1
_chemical_formula_structural   Li7Mn4(P2O7)4
_chemical_formula_sum   'Li14 Mn8 P16 O56'
_cell_volume   1084.64562953
_cell_formula_units_Z   2
loop_
 _symmetry_equiv_pos_site_id
 _symmetry_equiv_pos_as_xyz
  1  'x, y, z'
loop_
 _atom_site_type_symbol
 _atom_site_label
 _atom_site_symmetry_multiplicity
 _atom_site_fract_x
 _atom_site_fract_y
 _atom_site_fract_z
 _atom_site_occupancy
  Li  Li0  1  0.71992400  0.11062000  0.55400900  1
  Li  Li1  1  0.42435400  0.16796300  0.45666300  1
  Li  Li2  1  0.11125800  0.08784000  0.97219400  1
  Li  Li3  1  0.90855500  0.34320200  0.04133800  1
  Li  Li4  1  0.60631900  0.41339200  0.02791600  1
  Li  Li5  1  0.91969500  0.33688100  0.54286100  1
  Li  Li6  1  0.22131200  0.38866200  0.44850600  1
  Li  Li7  1  0.06904800  0.66330000  0.45989400  1
  Li  Li8  1  0.39119800  0.58427500  0.96959500  1
  Li  Li9  1  0.58852500  0.85029500  0.04286500  1
  Li  Li10  1  0.09232900  0.65420400  0.95606600  1
  Li  Li11  1  0.89382500  0.91507300  0.02828700  1
  Li  Li12  1  0.58356300  0.82329000  0.54803800  1
  Li  Li13  1  0.27939700  0.88825700  0.44659300  1
  Mn  Mn0  1  0.91945800  0.19991400  0.32671800  1
  Mn  Mn1  1  0.21714000  0.25577500  0.17354400  1
  Mn  Mn2  1  0.71193000  0.24470800  0.82473000  1
  Mn  Mn3  1  0.41912000  0.29471000  0.68275200  1
  Mn  Mn4  1  0.58119000  0.70061900  0.33022700  1
  Mn  Mn5  1  0.28568300  0.75851000  0.17423000  1
  Mn  Mn6  1  0.78362500  0.74168500  0.82137600  1
  Mn  Mn7  1  0.07741200  0.79669800  0.67386600  1
  P  P0  1  0.45416800  0.02486900  0.24262600  1
  P  P1  1  0.70619900  0.11948400  0.10808900  1
  P  P2  1  0.93182700  0.05957400  0.75694000  1
  P  P3  1  0.15003000  0.12320000  0.57388800  1
  P  P4  1  0.64756400  0.37738500  0.42522100  1
  P  P5  1  0.43299000  0.44114000  0.24395200  1
  P  P6  1  0.04691600  0.52527000  0.23947100  1
  P  P7  1  0.20568100  0.38129400  0.89124800  1
  P  P8  1  0.79526500  0.61884300  0.10801600  1
  P  P9  1  0.95202300  0.47427000  0.75729800  1
  P  P10  1  0.56880700  0.56001100  0.75637800  1
  P  P11  1  0.35101700  0.62143000  0.57408400  1
  P  P12  1  0.84952500  0.87629700  0.42709100  1
  P  P13  1  0.06734100  0.94055200  0.24437300  1
  P  P14  1  0.29373300  0.88206900  0.89127400  1
  P  P15  1  0.54668700  0.97456500  0.75818300  1
  O  O0  1  0.41965700  0.02067700  0.37394300  1
  O  O1  1  0.83703000  0.02517400  0.44564400  1
  O  O2  1  0.08587900  0.08641600  0.26990400  1
  O  O3  1  0.35568800  0.10937600  0.15192700  1
  O  O4  1  0.60025100  0.09747200  0.22136400  1
  O  O5  1  0.83141900  0.17947100  0.15669200  1
  O  O6  1  0.64534100  0.22844500  0.00197700  1
  O  O7  1  0.26941200  0.01761500  0.92341100  1
  O  O8  1  0.07947700  0.11300000  0.70447100  1
  O  O9  1  0.93551500  0.06430400  0.88934000  1
  O  O10  1  0.53983100  0.12492900  0.77924000  1
  O  O11  1  0.28987600  0.18807600  0.58170000  1
  O  O12  1  0.82614800  0.16432000  0.68841900  1
  O  O13  1  0.06349300  0.22456500  0.48183900  1
  O  O14  1  0.56350900  0.27536700  0.51808900  1
  O  O15  1  0.32648000  0.33738200  0.31180700  1
  O  O16  1  0.78951300  0.31523000  0.41806900  1
  O  O17  1  0.03617900  0.37616300  0.21455200  1
  O  O18  1  0.57956800  0.38202700  0.29374800  1
  O  O19  1  0.43423400  0.43912500  0.11096100  1
  O  O20  1  0.77699300  0.47992100  0.07591200  1
  O  O21  1  0.13424300  0.27756200  0.99792800  1
  O  O22  1  0.32885000  0.32242600  0.84167100  1
  O  O23  1  0.10037900  0.40568700  0.77847500  1
  O  O24  1  0.58857600  0.41556200  0.72865400  1
  O  O25  1  0.85947800  0.38621800  0.85478700  1
  O  O26  1  0.08593800  0.52308700  0.36911200  1
  O  O27  1  0.34275900  0.47330500  0.55569900  1
  O  O28  1  0.65156200  0.52622800  0.44022200  1
  O  O29  1  0.92029000  0.47526700  0.62821000  1
  O  O30  1  0.13721600  0.61581300  0.14318900  1
  O  O31  1  0.41630200  0.58668400  0.27169200  1
  O  O32  1  0.89802700  0.59469700  0.22328700  1
  O  O33  1  0.67037900  0.68318900  0.15353000  1
  O  O34  1  0.86460400  0.72309700  0.00096300  1
  O  O35  1  0.22262800  0.51889400  0.92643600  1
  O  O36  1  0.56283400  0.55980000  0.89024600  1
  O  O37  1  0.41996900  0.61371300  0.70423800  1
  O  O38  1  0.96253600  0.62331600  0.78514500  1
  O  O39  1  0.21002500  0.68545700  0.58082900  1
  O  O40  1  0.67017200  0.66976900  0.69228600  1
  O  O41  1  0.43611100  0.72364500  0.48127900  1
  O  O42  1  0.94131100  0.78314400  0.51776000  1
  O  O43  1  0.17370400  0.83644600  0.31262600  1
  O  O44  1  0.70772700  0.81942300  0.41296000  1
  O  O45  1  0.46969000  0.87478700  0.21803600  1
  O  O46  1  0.06472900  0.93604900  0.11175500  1
  O  O47  1  0.91977300  0.88659100  0.29520600  1
  O  O48  1  0.72431600  0.98072100  0.07558000  1
  O  O49  1  0.36619400  0.77629700  0.99638600  1
  O  O50  1  0.17264300  0.81293900  0.84406000  1
  O  O51  1  0.39892200  0.90719000  0.77591400  1
  O  O52  1  0.63950500  0.88584100  0.85467500  1
  O  O53  1  0.91252100  0.91406800  0.73165100  1
  O  O54  1  0.16164000  0.97575600  0.55458300  1
  O  O55  1  0.58508100  0.97382800  0.62839200  1
loop_
_geom_bond_atom_site_label_1
_geom_bond_atom_site_label_2
_geom_bond_distance
_geom_bond_site_symmetry_2
Li0 O55 1.957423 1_545
Li0 O1 2.004471 1_555
Li0 O12 2.022429 1_555
Li0 O14 2.215596 1_555
Li0 O16 2.362171 1_555
Li1 O0 1.904348 1_555
Li1 O14 1.965929 1_555
Li1 O11 1.983750 1_555
Li1 O15 2.285110 1_555
Li2 O7 1.842470 1_555
Li2 O21 1.980666 1_555
Li2 O46 1.980925 1_546
Li2 O9 2.017842 1_455
Li3 O20 1.975080 1_555
Li3 O5 1.997276 1_555
Li3 O25 2.121301 1_554
Li3 O21 2.402606 1_654
Li3 O17 2.422443 1_655
Li4 O36 1.928341 1_554
Li4 O20 1.938633 1_555
Li4 O6 1.956892 1_555
Li4 O19 1.986111 1_555
Li5 O29 1.847165 1_555
Li5 O16 1.964223 1_555
Li5 O13 2.016139 1_655
Li5 O12 2.292959 1_555
Li6 O26 1.958170 1_555
Li6 O15 2.020874 1_555
Li6 O27 2.024833 1_555
Li6 O13 2.230154 1_555
Li6 O11 2.313086 1_555
Li7 O26 1.912005 1_555
Li7 O42 1.940937 1_455
Li7 O39 2.006100 1_555
Li7 O43 2.353535 1_555
Li8 O35 1.896648 1_555
Li8 O19 1.947669 1_556
Li8 O36 1.958805 1_555
Li8 O49 2.007337 1_555
Li9 O48 1.961513 1_555
Li9 O33 2.010334 1_555
Li9 O52 2.144486 1_554
Li9 O45 2.364512 1_555
Li9 O49 2.418307 1_554
Li10 O35 1.937741 1_555
Li10 O50 1.958921 1_555
Li10 O30 2.119901 1_556
Li10 O38 2.405527 1_455
Li10 O34 2.435960 1_456
Li11 O48 1.913877 1_555
Li11 O9 1.951076 1_564
Li11 O46 1.974534 1_655
Li11 O34 2.017386 1_555
Li12 O55 1.914445 1_555
Li12 O44 1.968379 1_555
Li12 O41 2.007754 1_555
Li12 O40 2.147919 1_555
Li13 O0 1.963852 1_565
Li13 O43 2.007520 1_555
Li13 O54 2.016559 1_555
Li13 O41 2.216467 1_555
Li13 O39 2.339821 1_555
Mn0 O1 2.109924 1_555
Mn0 O16 2.130634 1_555
Mn0 O2 2.165763 1_655
Mn0 O5 2.169654 1_555
Mn0 O17 2.241784 1_655
Mn0 O13 2.323253 1_655
Mn1 O3 2.044883 1_555
Mn1 O21 2.122697 1_554
Mn1 O15 2.206751 1_555
Mn1 O2 2.212451 1_555
Mn1 O17 2.250940 1_555
Mn2 O6 2.086650 1_556
Mn2 O25 2.109637 1_555
Mn2 O24 2.170179 1_555
Mn2 O12 2.198791 1_555
Mn2 O10 2.207388 1_555
Mn3 O22 2.081845 1_555
Mn3 O10 2.150106 1_555
Mn3 O11 2.151428 1_555
Mn3 O27 2.153647 1_555
Mn3 O24 2.195273 1_555
Mn3 O14 2.389553 1_555
Mn4 O28 2.015383 1_555
Mn4 O44 2.085438 1_555
Mn4 O31 2.176210 1_555
Mn4 O45 2.197059 1_555
Mn4 O33 2.229646 1_555
Mn4 O41 2.281858 1_555
Mn5 O30 2.127748 1_555
Mn5 O49 2.138121 1_554
Mn5 O43 2.193765 1_555
Mn5 O31 2.222635 1_555
Mn5 O45 2.273769 1_555
Mn6 O40 2.096700 1_555
Mn6 O52 2.105856 1_555
Mn6 O34 2.160732 1_556
Mn6 O53 2.195612 1_555
Mn6 O38 2.206433 1_555
Mn7 O39 2.132635 1_555
Mn7 O54 2.147961 1_555
Mn7 O53 2.181590 1_455
Mn7 O50 2.189394 1_555
Mn7 O38 2.209790 1_455
Mn7 O42 2.256065 1_455
O0 P0 1.519310 1_555
O1 P12 1.540753 1_545
O2 P13 1.548461 1_545
O3 P0 1.524205 1_555
O4 P0 1.610984 1_555
O4 P1 1.633336 1_555
O5 P1 1.532789 1_555
O6 P1 1.548121 1_555
O7 P14 1.486884 1_545
O8 P3 1.618947 1_555
O8 P2 1.621841 1_455
O9 P2 1.514070 1_555
O10 P15 1.562324 1_545
O11 P3 1.539492 1_555
O12 P2 1.552222 1_555
O13 P3 1.536892 1_555
O14 P4 1.533864 1_555
O15 P5 1.553647 1_555
O16 P4 1.539801 1_555
O17 P6 1.569642 1_555
O18 P5 1.616685 1_555
O18 P4 1.629407 1_555
O19 P5 1.513679 1_555
O20 P8 1.512652 1_555
O21 P7 1.571452 1_555
O22 P7 1.508950 1_555
O23 P9 1.610260 1_455
O23 P7 1.627326 1_555
O24 P10 1.544363 1_555
O25 P9 1.547691 1_555
O26 P6 1.517390 1_555
O27 P11 1.530966 1_555
O28 P4 1.523118 1_555
O29 P9 1.496793 1_555
O30 P6 1.536982 1_555
O31 P5 1.551608 1_555
O32 P6 1.616085 1_655
O32 P8 1.633121 1_555
O33 P8 1.528134 1_555
O34 P8 1.567382 1_555
O35 P7 1.514368 1_555
O36 P10 1.519556 1_555
O37 P11 1.614661 1_555
O37 P10 1.630316 1_555
O38 P9 1.582152 1_555
O39 P11 1.538239 1_555
O40 P10 1.540109 1_555
O41 P11 1.540082 1_555
O42 P12 1.519541 1_555
O43 P13 1.552205 1_555
O44 P12 1.536376 1_555
O45 P0 1.580239 1_565
O46 P13 1.515726 1_555
O47 P13 1.617137 1_655
O47 P12 1.630847 1_555
O48 P1 1.511130 1_565
O49 P14 1.573396 1_555
O50 P14 1.538447 1_555
O51 P15 1.603491 1_555
O51 P14 1.645544 1_555
O52 P15 1.543945 1_555
O53 P2 1.544872 1_565
O54 P3 1.529102 1_565
O55 P15 1.521503 1_555
