# generated using pymatgen
data_SrSn3Sb4
_symmetry_space_group_name_H-M   'P 1'
_cell_length_a   4.40029825
_cell_length_b   10.20782875
_cell_length_c   23.45062214
_cell_angle_alpha   90.00000000
_cell_angle_beta   90.00000000
_cell_angle_gamma   90.00000000
_symmetry_Int_Tables_number   1
_chemical_formula_structural   SrSn3Sb4
_chemical_formula_sum   'Sr4 Sn12 Sb16'
_cell_volume   1053.34310856
_cell_formula_units_Z   4
loop_
 _symmetry_equiv_pos_site_id
 _symmetry_equiv_pos_as_xyz
  1  'x, y, z'
loop_
 _atom_site_type_symbol
 _atom_site_label
 _atom_site_symmetry_multiplicity
 _atom_site_fract_x
 _atom_site_fract_y
 _atom_site_fract_z
 _atom_site_occupancy
  Sr  Sr0  1  0.25000000  0.93934318  0.86893962  1
  Sr  Sr1  1  0.75000000  0.56065682  0.36893962  1
  Sr  Sr2  1  0.25000000  0.43934318  0.63106038  1
  Sr  Sr3  1  0.75000000  0.06065682  0.13106038  1
  Sn  Sn0  1  0.25000000  0.72302786  0.75000137  1
  Sn  Sn1  1  0.75000000  0.77697214  0.25000137  1
  Sn  Sn2  1  0.25000000  0.22302786  0.74999863  1
  Sn  Sn3  1  0.75000000  0.27697214  0.24999863  1
  Sn  Sn4  1  0.25000000  0.65145674  0.98805666  1
  Sn  Sn5  1  0.75000000  0.84854326  0.48805666  1
  Sn  Sn6  1  0.25000000  0.15145674  0.51194334  1
  Sn  Sn7  1  0.75000000  0.34854326  0.01194334  1
  Sn  Sn8  1  0.25000000  0.54035111  0.15081304  1
  Sn  Sn9  1  0.75000000  0.95964889  0.65081304  1
  Sn  Sn10  1  0.25000000  0.04035111  0.34918696  1
  Sn  Sn11  1  0.75000000  0.45964889  0.84918696  1
  Sb  Sb0  1  0.25000000  0.42932334  0.47201839  1
  Sb  Sb1  1  0.75000000  0.07067666  0.97201839  1
  Sb  Sb2  1  0.25000000  0.92932334  0.02798161  1
  Sb  Sb3  1  0.75000000  0.57067666  0.52798161  1
  Sb  Sb4  1  0.25000000  0.96321600  0.23306976  1
  Sb  Sb5  1  0.75000000  0.53678400  0.73306976  1
  Sb  Sb6  1  0.25000000  0.46321600  0.26693024  1
  Sb  Sb7  1  0.75000000  0.03678400  0.76693024  1
  Sb  Sb8  1  0.25000000  0.79142892  0.62797665  1
  Sb  Sb9  1  0.75000000  0.70857108  0.12797665  1
  Sb  Sb10  1  0.25000000  0.29142892  0.87202335  1
  Sb  Sb11  1  0.75000000  0.20857108  0.37202335  1
  Sb  Sb12  1  0.25000000  0.79835432  0.40732537  1
  Sb  Sb13  1  0.75000000  0.70164568  0.90732537  1
  Sb  Sb14  1  0.25000000  0.29835432  0.09267463  1
  Sb  Sb15  1  0.75000000  0.20164568  0.59267463  1
loop_
_geom_bond_atom_site_label_1
_geom_bond_atom_site_label_2
_geom_bond_distance
_geom_bond_site_symmetry_2
Sn0 Sr0 3.557422 1_555
Sn1 Sr1 3.557422 1_555
Sn2 Sr2 3.557422 1_555
Sn3 Sr3 3.557422 1_555
Sb0 Sb3 2.940233 1_455
Sb0 Sb3 2.940233 1_555
Sb0 Sn6 2.986945 1_555
Sb0 Sr1 3.532859 1_455
Sb0 Sr1 3.532859 1_555
Sb0 Sr2 3.731036 1_555
Sb1 Sb2 2.940233 1_546
Sb1 Sb2 2.940233 1_646
Sb1 Sn7 2.986945 1_556
Sb1 Sr0 3.532859 1_545
Sb1 Sr0 3.532859 1_645
Sb1 Sr3 3.731036 1_556
Sb2 Sn4 2.986945 1_554
Sb2 Sr3 3.532859 1_565
Sb2 Sr3 3.532859 1_465
Sb2 Sr0 3.731036 1_554
Sb3 Sn5 2.986945 1_555
Sb3 Sr2 3.532859 1_555
Sb3 Sr2 3.532859 1_655
Sb3 Sr1 3.731036 1_555
Sb4 Sn10 2.834574 1_565
Sb4 Sn1 2.934734 1_555
Sb4 Sn1 2.934734 1_455
Sb4 Sr3 3.398903 1_465
Sb4 Sr3 3.398903 1_565
Sb5 Sn11 2.834574 1_555
Sb5 Sn0 2.934734 1_655
Sb5 Sn0 2.934734 1_555
Sb5 Sr2 3.398903 1_555
Sb5 Sr2 3.398903 1_655
Sb6 Sn8 2.834574 1_555
Sb6 Sn3 2.934734 1_555
Sb6 Sn3 2.934734 1_455
Sb6 Sr1 3.398903 1_455
Sb6 Sr1 3.398903 1_555
Sb7 Sn9 2.834574 1_545
Sb7 Sn2 2.934734 1_655
Sb7 Sn2 2.934734 1_555
Sb7 Sr0 3.398903 1_645
Sb7 Sr0 3.398903 1_545
Sb8 Sn9 2.841846 1_555
Sb8 Sn9 2.841846 1_455
Sb8 Sn0 2.945509 1_555
Sb8 Sr2 3.594758 1_555
Sb9 Sn8 2.841846 1_655
Sb9 Sn8 2.841846 1_555
Sb9 Sn1 2.945509 1_555
Sb9 Sr3 3.594758 1_565
Sb10 Sn11 2.841846 1_455
Sb10 Sn11 2.841846 1_555
Sb10 Sn2 2.945509 1_555
Sb10 Sr0 3.594758 1_545
Sb11 Sn10 2.841846 1_655
Sb11 Sn10 2.841846 1_555
Sb11 Sn3 2.945509 1_555
Sb11 Sr1 3.594758 1_555
Sb12 Sn10 2.821525 1_565
Sb12 Sn5 2.947428 1_555
Sb12 Sn5 2.947428 1_455
Sb12 Sr1 3.396801 1_455
Sb12 Sr1 3.396801 1_555
Sb13 Sn11 2.821525 1_555
Sb13 Sn4 2.947428 1_555
Sb13 Sn4 2.947428 1_655
Sb13 Sr0 3.396801 1_655
Sb13 Sr0 3.396801 1_555
Sb14 Sn8 2.821525 1_555
Sb14 Sn7 2.947428 1_455
Sb14 Sn7 2.947428 1_555
Sb14 Sr3 3.396801 1_455
Sb14 Sr3 3.396801 1_555
Sb15 Sn9 2.821525 1_545
Sb15 Sn6 2.947428 1_555
Sb15 Sn6 2.947428 1_655
Sb15 Sr2 3.396801 1_555
Sb15 Sr2 3.396801 1_655
