# generated using pymatgen
data_TiBeCo2
_symmetry_space_group_name_H-M   'P 1'
_cell_length_a   3.92139473
_cell_length_b   3.92139402
_cell_length_c   3.92139473
_cell_angle_alpha   60.00013863
_cell_angle_beta   60.00013266
_cell_angle_gamma   60.00011453
_symmetry_Int_Tables_number   1
_chemical_formula_structural   TiBeCo2
_chemical_formula_sum   'Ti1 Be1 Co2'
_cell_volume   42.63908461
_cell_formula_units_Z   1
loop_
 _symmetry_equiv_pos_site_id
 _symmetry_equiv_pos_as_xyz
  1  'x, y, z'
loop_
 _atom_site_type_symbol
 _atom_site_label
 _atom_site_symmetry_multiplicity
 _atom_site_fract_x
 _atom_site_fract_y
 _atom_site_fract_z
 _atom_site_occupancy
  Ti  Ti0  1  0.75000000  0.75000000  0.75000000  1
  Be  Be0  1  0.25000100  0.25000100  0.25000100  1
  Co  Co0  1  0.50000000  0.50000000  0.50000000  1
  Co  Co1  1  0.00000100  0.00000100  0.00000100  1
loop_
_geom_bond_atom_site_label_1
_geom_bond_atom_site_label_2
_geom_bond_distance
_geom_bond_site_symmetry_2
Be0 Co0 2.401342 1_555
Be0 Co1 2.401352 1_555
Be0 Co1 2.401357 1_565
Be0 Co1 2.401358 1_655
Be0 Co1 2.401358 1_556
Be0 Co0 2.401361 1_545
Be0 Co0 2.401361 1_455
Be0 Co0 2.401361 1_554
Co0 Ti0 2.401352 1_555
Co0 Ti0 2.401357 1_545
Co0 Ti0 2.401358 1_455
Co0 Ti0 2.401358 1_554
Co1 Ti0 2.401354 1_454
Co1 Ti0 2.401354 1_544
Co1 Ti0 2.401355 1_445
Co1 Ti0 2.401361 1_444
