# generated using pymatgen
data_Li5Cu2Ni3O10
_symmetry_space_group_name_H-M   'P 1'
_cell_length_a   5.03398600
_cell_length_b   5.13041955
_cell_length_c   7.66011773
_cell_angle_alpha   106.90279769
_cell_angle_beta   102.89785781
_cell_angle_gamma   101.21835594
_symmetry_Int_Tables_number   1
_chemical_formula_structural   Li5Cu2Ni3O10
_chemical_formula_sum   'Li5 Cu2 Ni3 O10'
_cell_volume   177.22848951
_cell_formula_units_Z   1
loop_
 _symmetry_equiv_pos_site_id
 _symmetry_equiv_pos_as_xyz
  1  'x, y, z'
loop_
 _atom_site_type_symbol
 _atom_site_label
 _atom_site_symmetry_multiplicity
 _atom_site_fract_x
 _atom_site_fract_y
 _atom_site_fract_z
 _atom_site_occupancy
  Li  Li0  1  0.39588900  0.09188000  0.40433700  1
  Li  Li1  1  0.81614400  0.71895900  0.78431300  1
  Li  Li2  1  0.50000000  0.50000000  0.50000000  1
  Li  Li3  1  0.18385600  0.28104100  0.21568700  1
  Li  Li4  1  0.60411100  0.90812000  0.59566300  1
  Cu  Cu0  1  0.70564400  0.30568100  0.69615400  1
  Cu  Cu1  1  0.29435600  0.69431900  0.30384600  1
  Ni  Ni0  1  0.00000000  0.50000000  0.00000000  1
  Ni  Ni1  1  0.90310500  0.10176800  0.89754700  1
  Ni  Ni2  1  0.09689500  0.89823200  0.10245300  1
  O  O0  1  0.31872900  0.39410600  0.86310400  1
  O  O1  1  0.46714800  0.83755600  0.93219100  1
  O  O2  1  0.07275700  0.23801700  0.52999900  1
  O  O3  1  0.74193100  0.00184600  0.23955500  1
  O  O4  1  0.10591400  0.57115500  0.66184100  1
  O  O5  1  0.89408600  0.42884500  0.33815900  1
  O  O6  1  0.25806900  0.99815400  0.76044500  1
  O  O7  1  0.92724300  0.76198300  0.47000100  1
  O  O8  1  0.53285200  0.16244400  0.06780900  1
  O  O9  1  0.68127100  0.60589400  0.13689600  1
loop_
_geom_bond_atom_site_label_1
_geom_bond_atom_site_label_2
_geom_bond_distance
_geom_bond_site_symmetry_2
Li0 Li2 1.924869 1_555
Li0 Li4 2.153505 1_545
Li0 Li3 2.167793 1_555
Li0 O2 2.211001 1_555
Li0 Ni2 2.264587 1_545
Li0 O3 2.407643 1_555
Li1 Ni1 1.818390 1_565
Li1 O4 2.051970 1_655
Li1 Li4 2.167793 1_555
Li1 Li2 2.207311 1_555
Li1 O1 2.375589 1_555
Li2 Li4 1.924869 1_555
Li2 Li3 2.207311 1_555
Li2 O2 2.400100 1_555
Li2 O7 2.400100 1_555
Li2 O4 2.592737 1_555
Li2 O5 2.592737 1_555
Li3 Ni2 1.818390 1_545
Li3 O5 2.051970 1_455
Li3 O8 2.375589 1_555
Li4 O7 2.211001 1_555
Li4 Ni1 2.264587 1_565
Li4 O6 2.407643 1_555
Cu0 Li4 1.876089 1_545
Cu0 Li1 1.949837 1_555
Cu0 Li2 2.213924 1_555
Cu0 Li0 2.232494 1_555
Cu0 O2 2.489669 1_655
Cu0 O0 2.598719 1_555
Cu1 Li0 1.876089 1_565
Cu1 Li3 1.949837 1_555
Cu1 Li2 2.213924 1_555
Cu1 Li4 2.232494 1_555
Cu1 O7 2.489669 1_455
Cu1 O9 2.598719 1_555
Ni0 O0 2.174432 1_554
Ni0 O9 2.174432 1_455
Ni1 O6 2.336926 1_645
Ni1 O0 2.439694 1_655
Ni1 O1 2.456789 1_545
Ni1 O8 2.519270 1_556
Ni2 O3 2.336926 1_465
Ni2 O9 2.439694 1_455
Ni2 O8 2.456789 1_565
Ni2 O1 2.519270 1_554
O0 O6 1.886994 1_545
O1 O8 1.609988 1_566
O1 O6 1.966471 1_555
O2 O4 1.667028 1_555
O3 O9 1.886994 1_545
O3 O8 1.966471 1_555
O5 O7 1.667028 1_555
