# generated using pymatgen
data_V5Fe(PO4)6
_symmetry_space_group_name_H-M   'P 1'
_cell_length_a   8.57826659
_cell_length_b   8.57826659
_cell_length_c   8.57826660
_cell_angle_alpha   60.36737653
_cell_angle_beta   60.36737653
_cell_angle_gamma   60.36737168
_symmetry_Int_Tables_number   1
_chemical_formula_structural   V5Fe(PO4)6
_chemical_formula_sum   'V5 Fe1 P6 O24'
_cell_volume   450.06744959
_cell_formula_units_Z   1
loop_
 _symmetry_equiv_pos_site_id
 _symmetry_equiv_pos_as_xyz
  1  'x, y, z'
loop_
 _atom_site_type_symbol
 _atom_site_label
 _atom_site_symmetry_multiplicity
 _atom_site_fract_x
 _atom_site_fract_y
 _atom_site_fract_z
 _atom_site_occupancy
  V  V0  1  0.00049500  0.00049500  0.00049500  1
  V  V1  1  0.64427100  0.64427100  0.64427100  1
  V  V2  1  0.50020400  0.50020400  0.50020400  1
  V  V3  1  0.85642700  0.85642700  0.85642700  1
  V  V4  1  0.35629800  0.35629800  0.35629800  1
  Fe  Fe0  1  0.14520900  0.14520900  0.14520900  1
  P  P0  1  0.95692100  0.24967900  0.54322300  1
  P  P1  1  0.54322300  0.95692100  0.24967900  1
  P  P2  1  0.24967900  0.54322300  0.95692100  1
  P  P3  1  0.74988000  0.45631700  0.04271800  1
  P  P4  1  0.45631700  0.04271800  0.74988000  1
  P  P5  1  0.04271800  0.74988000  0.45631700  1
  O  O0  1  0.50477100  0.11637700  0.31156200  1
  O  O1  1  0.31156200  0.50477100  0.11637700  1
  O  O2  1  0.11637700  0.31156200  0.50477100  1
  O  O3  1  0.94045300  0.08773400  0.74076100  1
  O  O4  1  0.99195600  0.18873800  0.38707900  1
  O  O5  1  0.76057500  0.41372700  0.56219500  1
  O  O6  1  0.74076100  0.94045300  0.08773400  1
  O  O7  1  0.56219500  0.76057500  0.41372700  1
  O  O8  1  0.81049800  0.61554600  0.00531500  1
  O  O9  1  0.41372700  0.56219500  0.76057500  1
  O  O10  1  0.91062100  0.26136000  0.05653200  1
  O  O11  1  0.61554600  0.00531500  0.81049800  1
  O  O12  1  0.38707900  0.99195600  0.18873800  1
  O  O13  1  0.08773400  0.74076100  0.94045300  1
  O  O14  1  0.58602000  0.44009500  0.23939300  1
  O  O15  1  0.18873800  0.38707900  0.99195600  1
  O  O16  1  0.44009500  0.23939300  0.58602000  1
  O  O17  1  0.26136000  0.05653200  0.91062100  1
  O  O18  1  0.23939300  0.58602000  0.44009500  1
  O  O19  1  0.00531500  0.81049800  0.61554600  1
  O  O20  1  0.05653200  0.91062100  0.26136000  1
  O  O21  1  0.88508300  0.68301600  0.49896500  1
  O  O22  1  0.68301600  0.49896500  0.88508300  1
  O  O23  1  0.49896500  0.88508300  0.68301600  1
loop_
_geom_bond_atom_site_label_1
_geom_bond_atom_site_label_2
_geom_bond_distance
_geom_bond_site_symmetry_2
Fe0 O12 1.938042 1_545
Fe0 O4 1.938042 1_455
Fe0 O15 1.938042 1_554
Fe0 O10 2.098215 1_455
Fe0 O17 2.098215 1_554
Fe0 O20 2.098215 1_545
O0 P1 1.536345 1_545
O0 V4 1.926345 1_555
O1 P2 1.536345 1_554
O1 V4 1.926345 1_555
O2 P0 1.536345 1_455
O2 V4 1.926345 1_555
O3 P0 1.565496 1_555
O3 V3 2.049721 1_545
O3 V0 2.212333 1_656
O4 P0 1.515490 1_555
O5 P0 1.566930 1_555
O5 V1 2.033082 1_555
O5 V2 2.228840 1_555
O6 P1 1.565496 1_555
O6 V3 2.049721 1_554
O6 V0 2.212334 1_665
O7 P1 1.566930 1_555
O7 V1 2.033082 1_555
O7 V2 2.228840 1_555
O8 P3 1.530703 1_555
O8 V3 1.937505 1_554
O9 P2 1.566930 1_555
O9 V1 2.033082 1_555
O9 V2 2.228840 1_555
O10 P3 1.548381 1_555
O10 V0 2.196423 1_655
O11 P4 1.530703 1_555
O11 V3 1.937504 1_545
O12 P1 1.515490 1_555
O13 P2 1.565496 1_555
O13 V3 2.049721 1_455
O13 V0 2.212333 1_566
O14 P3 1.567719 1_555
O14 V4 2.034562 1_555
O14 V2 2.224880 1_555
O15 P2 1.515490 1_555
O16 P4 1.567719 1_555
O16 V4 2.034562 1_555
O16 V2 2.224880 1_555
O17 P4 1.548381 1_555
O17 V0 2.196424 1_556
O18 P5 1.567719 1_555
O18 V4 2.034562 1_555
O18 V2 2.224880 1_555
O19 P5 1.530703 1_555
O19 V3 1.937505 1_455
O20 P5 1.548381 1_555
O20 V0 2.196424 1_565
O21 P5 1.536764 1_655
O21 V1 1.911675 1_555
O22 P3 1.536764 1_556
O22 V1 1.911675 1_555
O23 P4 1.536764 1_565
O23 V1 1.911674 1_555
