# generated using pymatgen
data_RbV(PO4)2
_symmetry_space_group_name_H-M   'P 1'
_cell_length_a   8.74679700
_cell_length_b   5.11759800
_cell_length_c   14.70589387
_cell_angle_alpha   86.97177267
_cell_angle_beta   90.00000000
_cell_angle_gamma   90.00000000
_symmetry_Int_Tables_number   1
_chemical_formula_structural   RbV(PO4)2
_chemical_formula_sum   'Rb4 V4 P8 O32'
_cell_volume   657.35471616
_cell_formula_units_Z   4
loop_
 _symmetry_equiv_pos_site_id
 _symmetry_equiv_pos_as_xyz
  1  'x, y, z'
loop_
 _atom_site_type_symbol
 _atom_site_label
 _atom_site_symmetry_multiplicity
 _atom_site_fract_x
 _atom_site_fract_y
 _atom_site_fract_z
 _atom_site_occupancy
  Rb  Rb0  1  0.52157400  0.73784900  0.59766800  1
  Rb  Rb1  1  0.02157400  0.26215100  0.90233200  1
  Rb  Rb2  1  0.47842600  0.26215100  0.40233200  1
  Rb  Rb3  1  0.97842600  0.73784900  0.09766800  1
  V  V0  1  0.53361600  0.25548400  0.84950100  1
  V  V1  1  0.03361600  0.74451600  0.65049900  1
  V  V2  1  0.46638400  0.74451600  0.15049900  1
  V  V3  1  0.96638400  0.25548400  0.34950100  1
  P  P0  1  0.83194100  0.26571600  0.56010600  1
  P  P1  1  0.33194100  0.73428400  0.93989400  1
  P  P2  1  0.16805900  0.73428400  0.43989400  1
  P  P3  1  0.66805900  0.26571600  0.06010600  1
  P  P4  1  0.76231700  0.76956300  0.82117100  1
  P  P5  1  0.26231700  0.23043700  0.67882900  1
  P  P6  1  0.23768300  0.23043700  0.17882900  1
  P  P7  1  0.73768300  0.76956300  0.32117100  1
  O  O0  1  0.39683200  0.25974900  0.74868400  1
  O  O1  1  0.89683200  0.74025100  0.75131600  1
  O  O2  1  0.60316800  0.74025100  0.25131600  1
  O  O3  1  0.10316800  0.25974900  0.24868400  1
  O  O4  1  0.44236200  0.94777100  0.89796100  1
  O  O5  1  0.94236200  0.05222900  0.60203900  1
  O  O6  1  0.55763800  0.05222900  0.10203900  1
  O  O7  1  0.05763800  0.94777100  0.39796100  1
  O  O8  1  0.65547300  0.25907200  0.95361500  1
  O  O9  1  0.15547300  0.74092800  0.54638500  1
  O  O10  1  0.34452700  0.74092800  0.04638500  1
  O  O11  1  0.84452700  0.25907200  0.45361500  1
  O  O12  1  0.39335800  0.46457700  0.91132600  1
  O  O13  1  0.89335800  0.53542300  0.58867400  1
  O  O14  1  0.60664200  0.53542300  0.08867400  1
  O  O15  1  0.10664200  0.46457700  0.41132600  1
  O  O16  1  0.63900700  0.55511200  0.79936000  1
  O  O17  1  0.13900700  0.44488800  0.70064000  1
  O  O18  1  0.36099300  0.44488800  0.20064000  1
  O  O19  1  0.86099300  0.55511200  0.29936000  1
  O  O20  1  0.68516400  0.04019000  0.79465900  1
  O  O21  1  0.18516400  0.95981000  0.70534100  1
  O  O22  1  0.31483600  0.95981000  0.20534100  1
  O  O23  1  0.81483600  0.04019000  0.29465900  1
  O  O24  1  0.66929200  0.22726600  0.58755800  1
  O  O25  1  0.16929200  0.77273400  0.91244200  1
  O  O26  1  0.33070800  0.77273400  0.41244200  1
  O  O27  1  0.83070800  0.22726600  0.08755800  1
  O  O28  1  0.82257800  0.74521900  0.91635000  1
  O  O29  1  0.32257800  0.25478100  0.58365000  1
  O  O30  1  0.17742200  0.25478100  0.08365000  1
  O  O31  1  0.67742200  0.74521900  0.41635000  1
loop_
_geom_bond_atom_site_label_1
_geom_bond_atom_site_label_2
_geom_bond_distance
_geom_bond_site_symmetry_2
O0 P5 1.574299 1_555
O0 V0 1.904363 1_555
O0 Rb0 3.396307 1_555
O1 P4 1.574299 1_555
O1 V1 1.904363 1_655
O1 Rb1 3.396307 1_655
O2 P7 1.574299 1_555
O2 V2 1.904363 1_555
O2 Rb2 3.396307 1_555
O3 P6 1.574299 1_555
O3 V3 1.904363 1_455
O3 Rb3 3.396307 1_455
O4 P1 1.560629 1_555
O4 V0 1.872493 1_565
O5 P0 1.560629 1_555
O5 V1 1.872493 1_645
O6 P3 1.560629 1_555
O6 V2 1.872493 1_545
O7 P2 1.560629 1_555
O7 V3 1.872493 1_465
O8 P3 1.572068 1_556
O8 V0 1.866440 1_555
O8 Rb1 3.289667 1_655
O9 P2 1.572068 1_555
O9 V1 1.866440 1_555
O9 Rb0 3.289667 1_555
O10 P1 1.572068 1_554
O10 V2 1.866440 1_555
O10 Rb3 3.289667 1_455
O11 P0 1.572068 1_555
O11 V3 1.866440 1_555
O11 Rb2 3.289667 1_555
O12 P1 1.559310 1_555
O12 V0 1.891955 1_555
O12 Rb1 3.417618 1_555
O13 P0 1.559310 1_555
O13 V1 1.891955 1_655
O13 Rb0 3.417618 1_555
O14 P3 1.559310 1_555
O14 V2 1.891955 1_555
O14 Rb3 3.417618 1_555
O15 P2 1.559310 1_555
O15 V3 1.891955 1_455
O15 Rb2 3.417618 1_555
O16 P4 1.583613 1_555
O16 V0 1.904014 1_555
O16 Rb0 3.230181 1_555
O17 P5 1.583613 1_555
O17 V1 1.904014 1_555
O17 Rb1 3.230181 1_555
O18 P6 1.583613 1_555
O18 V2 1.904014 1_555
O18 Rb2 3.230181 1_555
O19 P7 1.583613 1_555
O19 V3 1.904014 1_555
O19 Rb3 3.230181 1_555
O20 P4 1.571141 1_545
O20 V0 1.927530 1_555
O21 P5 1.571141 1_565
O21 V1 1.927530 1_555
O22 P6 1.571141 1_565
O22 V2 1.927530 1_555
O23 P7 1.571141 1_545
O23 V3 1.927530 1_555
O24 P0 1.489047 1_555
O24 Rb0 2.815208 1_545
O24 Rb0 2.925768 1_555
O24 Rb2 3.191758 1_555
O25 P1 1.489047 1_555
O25 Rb1 2.815208 1_565
O25 Rb1 2.925768 1_555
O25 Rb3 3.191758 1_456
O26 P2 1.489047 1_555
O26 Rb2 2.815208 1_565
O26 Rb2 2.925768 1_555
O26 Rb0 3.191758 1_555
O27 P3 1.489047 1_555
O27 Rb3 2.815208 1_545
O27 Rb3 2.925768 1_555
O27 Rb1 3.191758 1_654
O28 P4 1.494677 1_555
O28 Rb3 2.993151 1_556
O28 Rb1 3.039320 1_655
O28 Rb1 3.164316 1_665
O29 P5 1.494677 1_555
O29 Rb2 2.993151 1_555
O29 Rb0 3.039320 1_555
O29 Rb0 3.164316 1_545
O30 P6 1.494677 1_555
O30 Rb1 2.993151 1_554
O30 Rb3 3.039320 1_455
O30 Rb3 3.164316 1_445
O31 P7 1.494677 1_555
O31 Rb0 2.993151 1_555
O31 Rb2 3.039320 1_555
O31 Rb2 3.164316 1_565
