# generated using pymatgen
data_Na3(Pt3O4)4
_symmetry_space_group_name_H-M   'P 1'
_cell_length_a   8.03900520
_cell_length_b   8.03900345
_cell_length_c   8.03897960
_cell_angle_alpha   59.99991850
_cell_angle_beta   59.99993395
_cell_angle_gamma   59.99961263
_symmetry_Int_Tables_number   1
_chemical_formula_structural   Na3(Pt3O4)4
_chemical_formula_sum   'Na3 Pt12 O16'
_cell_volume   367.35731978
_cell_formula_units_Z   1
loop_
 _symmetry_equiv_pos_site_id
 _symmetry_equiv_pos_as_xyz
  1  'x, y, z'
loop_
 _atom_site_type_symbol
 _atom_site_label
 _atom_site_symmetry_multiplicity
 _atom_site_fract_x
 _atom_site_fract_y
 _atom_site_fract_z
 _atom_site_occupancy
  Na  Na0  1  0.50000093  0.49999980  0.50000002  1
  Na  Na1  1  0.74999966  0.74999955  0.74999966  1
  Na  Na2  1  0.25000033  0.25000044  0.25000031  1
  Pt  Pt0  1  0.87514704  0.37257393  0.12485234  1
  Pt  Pt1  1  0.62742613  0.12485284  0.37257385  1
  Pt  Pt2  1  0.87514601  0.12485393  0.62742658  1
  Pt  Pt3  1  0.87514959  0.62742338  0.37257698  1
  Pt  Pt4  1  0.37257684  0.12484990  0.87514960  1
  Pt  Pt5  1  0.62742574  0.37257214  0.87514770  1
  Pt  Pt6  1  0.37257444  0.87514766  0.62742601  1
  Pt  Pt7  1  0.12485164  0.62742570  0.87514827  1
  Pt  Pt8  1  0.37257372  0.62742610  0.12485330  1
  Pt  Pt9  1  0.62742385  0.87514960  0.12485024  1
  Pt  Pt10  1  0.12484977  0.37257670  0.62742318  1
  Pt  Pt11  1  0.12485461  0.87514758  0.37257195  1
  O  O0  1  0.62439016  0.12683301  0.62439076  1
  O  O1  1  0.87316604  0.37561035  0.37561388  1
  O  O2  1  0.87075897  0.87075389  0.38773381  1
  O  O3  1  0.37561329  0.37560827  0.87316801  1
  O  O4  1  0.87075327  0.38773375  0.87075369  1
  O  O5  1  0.61226587  0.12924492  0.12924231  1
  O  O6  1  0.12924664  0.12924247  0.12924437  1
  O  O7  1  0.62439078  0.62438510  0.62439096  1
  O  O8  1  0.12924574  0.61226510  0.12924690  1
  O  O9  1  0.87075344  0.87075864  0.87075437  1
  O  O10  1  0.38773497  0.87075386  0.87075790  1
  O  O11  1  0.62438605  0.62439032  0.12683384  1
  O  O12  1  0.37560907  0.37561354  0.37560966  1
  O  O13  1  0.12924162  0.12924657  0.61226513  1
  O  O14  1  0.37561058  0.87316803  0.37560845  1
  O  O15  1  0.12683220  0.62439096  0.62438598  1
loop_
_geom_bond_atom_site_label_1
_geom_bond_atom_site_label_2
_geom_bond_distance
_geom_bond_site_symmetry_2
Na0 O1 2.449381 1_555
Na0 O11 2.449388 1_555
Na0 O0 2.449391 1_555
Na0 O7 2.449396 1_555
Na0 O3 2.449399 1_555
Na0 O14 2.449400 1_555
Na0 O15 2.449405 1_555
Na0 O12 2.449411 1_555
Na1 O10 2.377833 1_555
Na1 O4 2.377839 1_555
Na1 O2 2.377840 1_555
Na1 O9 2.377860 1_555
Na1 O15 2.473453 1_655
Na1 O0 2.473458 1_565
Na1 O7 2.473458 1_555
Na1 O11 2.473464 1_556
Na2 O8 2.377832 1_555
Na2 O13 2.377833 1_555
Na2 O5 2.377838 1_555
Na2 O6 2.377860 1_555
Na2 O3 2.473451 1_554
Na2 O14 2.473451 1_545
Na2 O12 2.473453 1_555
Na2 O1 2.473465 1_455
O0 Pt2 2.020185 1_555
O0 Pt4 2.020195 1_555
O0 Pt1 2.020217 1_555
O1 Pt2 2.020181 1_555
O1 Pt3 2.020202 1_555
O1 Pt0 2.020219 1_555
O2 Pt11 2.001874 1_655
O2 Pt3 2.001888 1_555
O2 Pt1 2.001896 1_565
O3 Pt5 2.020185 1_555
O3 Pt4 2.020197 1_555
O3 Pt7 2.020215 1_555
O4 Pt5 2.001873 1_555
O4 Pt10 2.001882 1_655
O4 Pt0 2.001899 1_556
O5 Pt5 2.001863 1_554
O5 Pt9 2.001878 1_545
O5 Pt1 2.001900 1_555
O6 Pt11 2.001865 1_545
O6 Pt4 2.001874 1_554
O6 Pt0 2.001894 1_455
O7 Pt5 2.020184 1_555
O7 Pt3 2.020197 1_555
O7 Pt6 2.020215 1_555
O8 Pt8 2.001875 1_555
O8 Pt3 2.001880 1_455
O8 Pt7 2.001898 1_554
O9 Pt2 2.001868 1_565
O9 Pt9 2.001876 1_556
O9 Pt7 2.001893 1_655
O10 Pt8 2.001869 1_556
O10 Pt4 2.001882 1_565
O10 Pt6 2.001897 1_555
O11 Pt8 2.020188 1_555
O11 Pt9 2.020202 1_555
O11 Pt0 2.020209 1_555
O12 Pt8 2.020181 1_555
O12 Pt10 2.020197 1_555
O12 Pt1 2.020210 1_555
O13 Pt2 2.001871 1_455
O13 Pt10 2.001886 1_555
O13 Pt6 2.001896 1_545
O14 Pt11 2.020186 1_555
O14 Pt9 2.020192 1_555
O14 Pt6 2.020219 1_555
O15 Pt11 2.020187 1_555
O15 Pt10 2.020206 1_555
O15 Pt7 2.020220 1_555
