# generated using pymatgen
data_MgCr7(SO4)12
_symmetry_space_group_name_H-M   'P 1'
_cell_length_a   8.29758600
_cell_length_b   8.84727194
_cell_length_c   14.37962565
_cell_angle_alpha   105.68269336
_cell_angle_beta   89.98515770
_cell_angle_gamma   117.94017637
_symmetry_Int_Tables_number   1
_chemical_formula_structural   MgCr7(SO4)12
_chemical_formula_sum   'Mg1 Cr7 S12 O48'
_cell_volume   887.89083382
_cell_formula_units_Z   1
loop_
 _symmetry_equiv_pos_site_id
 _symmetry_equiv_pos_as_xyz
  1  'x, y, z'
loop_
 _atom_site_type_symbol
 _atom_site_label
 _atom_site_symmetry_multiplicity
 _atom_site_fract_x
 _atom_site_fract_y
 _atom_site_fract_z
 _atom_site_occupancy
  Mg  Mg0  1  0.96480300  0.28530000  0.32184000  1
  Cr  Cr0  1  0.77644000  0.69876000  0.92494700  1
  Cr  Cr1  1  0.46480700  0.28876300  0.82182200  1
  Cr  Cr2  1  0.27197000  0.69667400  0.42522500  1
  Cr  Cr3  1  0.03494900  0.71474000  0.67679600  1
  Cr  Cr4  1  0.72634900  0.30211800  0.57550700  1
  Cr  Cr5  1  0.53426800  0.70937600  0.17973600  1
  Cr  Cr6  1  0.22513300  0.30105900  0.07561500  1
  S  S0  1  0.01999500  0.21030200  0.76846500  1
  S  S1  1  0.51713300  0.20617300  0.27023900  1
  S  S2  1  0.58568800  0.49799300  0.62598600  1
  S  S3  1  0.91664200  0.50446700  0.87394800  1
  S  S4  1  0.98056800  0.20689100  0.52190800  1
  S  S5  1  0.48259900  0.21025100  0.02087000  1
  S  S6  1  0.51731300  0.78813800  0.98023600  1
  S  S7  1  0.01809400  0.78838300  0.47950000  1
  S  S8  1  0.08307000  0.49766400  0.12453100  1
  S  S9  1  0.41741100  0.50321000  0.37481100  1
  S  S10  1  0.48001200  0.79032900  0.73132600  1
  S  S11  1  0.97823000  0.79088100  0.23052000  1
  O  O0  1  0.43043100  0.18741900  0.94559600  1
  O  O1  1  0.44332700  0.59348700  0.74239900  1
  O  O2  1  0.88189200  0.03202300  0.83641700  1
  O  O3  1  0.37560100  0.02948100  0.33675400  1
  O  O4  1  0.45397900  0.38343200  0.69210400  1
  O  O5  1  0.95550600  0.25557500  0.67335700  1
  O  O6  1  0.45160500  0.25957700  0.17261600  1
  O  O7  1  0.50764400  0.65795400  0.52354500  1
  O  O8  1  0.88873900  0.68259700  0.85803200  1
  O  O9  1  0.38715200  0.68087200  0.35983200  1
  O  O10  1  0.83366400  0.27736800  0.51065100  1
  O  O11  1  0.33574900  0.28151500  0.00809100  1
  O  O12  1  0.74080500  0.38027000  0.85056400  1
  O  O13  1  0.75926100  0.62453300  0.64961200  1
  O  O14  1  0.19294300  0.14261200  0.81087300  1
  O  O15  1  0.68705600  0.14219000  0.31017600  1
  O  O16  1  0.99235800  0.34264200  0.97657000  1
  O  O17  1  0.00180200  0.99519600  0.62246000  1
  O  O18  1  0.49560100  0.99400500  0.11927400  1
  O  O19  1  0.92979400  0.18567000  0.44750500  1
  O  O20  1  0.94690300  0.59843300  0.24201300  1
  O  O21  1  0.04750400  0.61297200  0.80900200  1
  O  O22  1  0.16532900  0.37158300  0.51274800  1
  O  O23  1  0.66715600  0.36931000  0.01284700  1
  O  O24  1  0.33314700  0.62885900  0.98808400  1
  O  O25  1  0.83279400  0.62523700  0.49068600  1
  O  O26  1  0.95245700  0.38500400  0.18849300  1
  O  O27  1  0.05651200  0.40952900  0.75528300  1
  O  O28  1  0.06903200  0.81146400  0.55518700  1
  O  O29  1  0.50308900  0.00424500  0.88191500  1
  O  O30  1  0.00240300  0.99753200  0.38199600  1
  O  O31  1  0.01299000  0.66549100  0.02028800  1
  O  O32  1  0.30723200  0.85680600  0.69034000  1
  O  O33  1  0.80567600  0.85987700  0.18932400  1
  O  O34  1  0.24513800  0.37832300  0.35259300  1
  O  O35  1  0.25987300  0.62088500  0.14875500  1
  O  O36  1  0.16533300  0.70880600  0.49662300  1
  O  O37  1  0.66477700  0.71841800  0.99230000  1
  O  O38  1  0.61913600  0.32212200  0.64252100  1
  O  O39  1  0.11580700  0.32310200  0.13927100  1
  O  O40  1  0.49732000  0.34523400  0.47777500  1
  O  O41  1  0.54569400  0.74002500  0.82793700  1
  O  O42  1  0.04389700  0.74530900  0.32636400  1
  O  O43  1  0.55210100  0.62212100  0.30879600  1
  O  O44  1  0.61744700  0.97022700  0.66374600  1
  O  O45  1  0.11703600  0.97425800  0.16323200  1
  O  O46  1  0.54986400  0.40484900  0.25730400  1
  O  O47  1  0.56921300  0.80975800  0.05589100  1
loop_
_geom_bond_atom_site_label_1
_geom_bond_atom_site_label_2
_geom_bond_distance
_geom_bond_site_symmetry_2
Mg0 O15 2.023243 1_555
Mg0 O34 2.072065 1_655
Mg0 O19 2.178883 1_555
Mg0 O26 2.337635 1_555
Cr0 O8 1.365499 1_555
Cr0 O37 1.373391 1_555
Cr0 O31 2.565090 1_656
Cr0 O41 2.583948 1_555
Cr1 O14 1.985493 1_555
Cr1 O12 2.037904 1_555
Cr1 O0 2.162375 1_555
Cr1 O4 2.259232 1_555
Cr2 O9 1.367794 1_555
Cr2 O36 1.370205 1_555
Cr2 O7 2.613676 1_555
Cr2 O42 2.623471 1_555
Cr3 O32 1.982153 1_555
Cr3 O13 2.035581 1_455
Cr3 O28 2.110013 1_555
Cr3 O21 2.334300 1_555
Cr4 O10 1.335102 1_555
Cr4 O38 1.343956 1_555
Cr4 O40 2.588921 1_555
Cr4 O5 2.610210 1_555
Cr5 O33 1.988594 1_555
Cr5 O35 2.033927 1_555
Cr5 O47 2.158163 1_555
Cr5 O43 2.223433 1_555
Cr6 O39 1.329530 1_555
Cr6 O11 1.368436 1_555
Cr6 O6 2.556547 1_555
Cr6 O16 2.616283 1_454
O0 S5 1.095396 1_556
O0 O29 1.985276 1_555
O1 O41 1.421864 1_555
O1 S10 1.674515 1_555
O1 O4 1.847117 1_555
O1 S2 2.254097 1_555
O2 S0 1.973474 1_655
O3 S1 1.955782 1_555
O4 S2 1.614929 1_555
O5 S0 1.677654 1_655
O5 S4 2.132624 1_555
O6 S1 1.757607 1_555
O6 S5 2.146627 1_555
O7 S9 2.113388 1_555
O8 S3 1.768219 1_555
O9 S9 1.770014 1_555
O10 S4 1.633321 1_555
O11 S5 1.642776 1_555
O12 S3 1.321875 1_555
O13 S2 1.314046 1_555
O14 S0 1.947596 1_555
O15 S1 1.887405 1_555
O16 S8 2.104818 1_656
O17 O28 1.971975 1_555
O17 S0 2.371359 1_565
O17 S7 2.406305 1_555
O18 O47 1.997621 1_555
O18 S6 2.384476 1_554
O18 S1 2.398101 1_565
O19 S4 1.083937 1_555
O20 O42 1.405663 1_655
O20 S11 1.652641 1_555
O20 O26 1.858990 1_555
O20 S8 2.248115 1_655
O21 S3 1.574834 1_455
O21 O27 1.793422 1_555
O22 S4 1.581482 1_455
O23 S5 1.551439 1_555
O24 S6 1.549724 1_555
O25 S7 1.587137 1_655
O26 S8 1.580123 1_655
O27 O5 1.417312 1_455
O27 S0 1.707239 1_555
O27 S3 2.258707 1_455
O28 S7 1.097296 1_555
O29 S5 2.380049 1_556
O29 S10 2.398449 1_545
O30 S11 2.372966 1_455
O31 S3 2.099931 1_454
O32 S10 1.930444 1_555
O33 S11 1.946404 1_555
O34 S9 1.302134 1_555
O35 S8 1.325992 1_555
O36 S7 1.717216 1_555
O37 S6 1.634930 1_555
O38 S2 1.777456 1_555
O39 S8 1.753284 1_555
O40 S2 2.102686 1_555
O41 S10 1.728295 1_555
O41 S6 2.149990 1_555
O42 S11 1.692795 1_455
O42 S7 2.159302 1_555
O43 S9 1.641487 1_555
O43 O46 1.854937 1_555
O44 S10 1.978067 1_555
O45 S11 1.997975 1_455
O46 O6 1.404280 1_555
O46 S1 1.710958 1_555
O46 S9 2.218252 1_555
O47 S6 1.102770 1_554
