# generated using pymatgen
data_Pm2ZnGe
_symmetry_space_group_name_H-M   'P 1'
_cell_length_a   5.13890743
_cell_length_b   5.13890743
_cell_length_c   5.13890743
_cell_angle_alpha   60.00000000
_cell_angle_beta   60.00000000
_cell_angle_gamma   60.00000000
_symmetry_Int_Tables_number   1
_chemical_formula_structural   Pm2ZnGe
_chemical_formula_sum   'Pm2 Zn1 Ge1'
_cell_volume   95.96157896
_cell_formula_units_Z   1
loop_
 _symmetry_equiv_pos_site_id
 _symmetry_equiv_pos_as_xyz
  1  'x, y, z'
loop_
 _atom_site_type_symbol
 _atom_site_label
 _atom_site_symmetry_multiplicity
 _atom_site_fract_x
 _atom_site_fract_y
 _atom_site_fract_z
 _atom_site_occupancy
  Pm  Pm0  1  0.50000000  0.50000000  0.50000000  1
  Pm  Pm1  1  -0.00000000  -0.00000000  -0.00000000  1
  Zn  Zn0  1  0.75000100  0.75000100  0.75000100  1
  Ge  Ge0  1  0.25000100  0.25000100  0.25000100  1
loop_
_geom_bond_atom_site_label_1
_geom_bond_atom_site_label_2
_geom_bond_distance
_geom_bond_site_symmetry_2
Pm0 Zn0 3.146921 1_455
Pm0 Zn0 3.146921 1_545
Pm0 Zn0 3.146921 1_554
Pm0 Zn0 3.146938 1_555
Pm1 Zn0 3.146913 1_444
Pm1 Zn0 3.146929 1_454
Pm1 Zn0 3.146929 1_445
Pm1 Zn0 3.146929 1_544
Ge0 Pm0 3.146913 1_555
Ge0 Pm1 3.146921 1_655
Ge0 Pm1 3.146921 1_556
Ge0 Pm1 3.146921 1_565
Ge0 Pm0 3.146929 1_545
Ge0 Pm0 3.146929 1_554
Ge0 Pm0 3.146929 1_455
Ge0 Pm1 3.146938 1_555
