# generated using pymatgen
data_Fe4O3F5
_symmetry_space_group_name_H-M   'P 1'
_cell_length_a   4.78052100
_cell_length_b   7.83918646
_cell_length_c   7.85885220
_cell_angle_alpha   104.70717319
_cell_angle_beta   90.61935616
_cell_angle_gamma   90.60113829
_symmetry_Int_Tables_number   1
_chemical_formula_structural   Fe4O3F5
_chemical_formula_sum   'Fe8 O6 F10'
_cell_volume   284.82082575
_cell_formula_units_Z   2
loop_
 _symmetry_equiv_pos_site_id
 _symmetry_equiv_pos_as_xyz
  1  'x, y, z'
loop_
 _atom_site_type_symbol
 _atom_site_label
 _atom_site_symmetry_multiplicity
 _atom_site_fract_x
 _atom_site_fract_y
 _atom_site_fract_z
 _atom_site_occupancy
  Fe  Fe0  1  0.46072300  0.63391900  0.88391500  1
  Fe  Fe1  1  0.49490400  0.86615800  0.61515200  1
  Fe  Fe2  1  0.56167500  0.37750600  0.12959300  1
  Fe  Fe3  1  0.52989200  0.14637500  0.39666600  1
  Fe  Fe4  1  0.98791600  0.73558700  0.21724400  1
  Fe  Fe5  1  0.01299600  0.50492400  0.50491800  1
  Fe  Fe6  1  0.95560500  0.23711900  0.75671600  1
  Fe  Fe7  1  0.00921200  0.00565600  0.00568400  1
  O  O0  1  0.80422800  0.22111700  0.97125900  1
  O  O1  1  0.68520900  0.59830800  0.08864300  1
  O  O2  1  0.70342200  0.35168100  0.35536500  1
  O  O3  1  0.68783600  0.08657900  0.59702700  1
  O  O4  1  0.31922700  0.65782300  0.65362200  1
  O  O5  1  0.19338600  0.77971900  0.02952400  1
  F  F0  1  0.79726200  0.46551500  0.73420800  1
  F  F1  1  0.78673800  0.97208700  0.23420800  1
  F  F2  1  0.80435400  0.73493200  0.45903900  1
  F  F3  1  0.69896400  0.84663300  0.84259600  1
  F  F4  1  0.29255900  0.90142200  0.39752800  1
  F  F5  1  0.31443300  0.16160300  0.16638200  1
  F  F6  1  0.29471500  0.39435400  0.89611200  1
  F  F7  1  0.20553200  0.02704800  0.76500300  1
  F  F8  1  0.20298400  0.53180800  0.26213000  1
  F  F9  1  0.19622800  0.26212500  0.53746300  1
loop_
_geom_bond_atom_site_label_1
_geom_bond_atom_site_label_2
_geom_bond_distance
_geom_bond_site_symmetry_2
Fe0 O5 1.909788 1_556
Fe0 O4 1.979034 1_555
Fe0 O1 2.003813 1_556
Fe1 O4 1.921301 1_555
Fe1 O3 1.987722 1_565
Fe2 O0 1.918925 1_554
Fe2 O1 1.927140 1_555
Fe2 O2 1.951309 1_555
Fe3 O3 1.904134 1_555
Fe3 O2 1.904429 1_555
Fe4 O5 1.882621 1_655
Fe4 O1 1.912350 1_555
Fe5 O4 2.039722 1_555
Fe5 O2 2.054958 1_455
Fe6 O0 1.874591 1_555
Fe6 O3 1.946224 1_555
Fe7 O5 2.035916 1_545
Fe7 O0 2.036499 1_454
F0 Fe6 1.999076 1_555
F0 Fe5 2.173077 1_655
F0 Fe0 2.238792 1_555
F1 Fe3 2.046404 1_565
F1 Fe4 2.072339 1_555
F1 Fe7 2.168213 1_665
F2 Fe1 2.045043 1_555
F2 Fe4 2.102822 1_555
F2 Fe5 2.176232 1_655
F3 Fe1 2.067457 1_555
F3 Fe0 2.103860 1_555
F3 Fe7 2.122572 1_666
F4 Fe1 2.036434 1_555
F4 Fe4 2.190620 1_455
F4 Fe3 2.221633 1_565
F5 Fe7 2.087402 1_555
F5 Fe3 2.102950 1_555
F5 Fe2 2.135189 1_555
F6 Fe0 2.056122 1_555
F6 Fe6 2.140440 1_455
F6 Fe2 2.255869 1_556
F7 Fe1 2.051566 1_545
F7 Fe6 2.058569 1_455
F7 Fe7 2.163964 1_556
F8 Fe4 2.011500 1_455
F8 Fe5 2.178885 1_555
F8 Fe2 2.220529 1_555
F9 Fe3 2.037334 1_555
F9 Fe6 2.130784 1_455
F9 Fe5 2.175488 1_555
