# generated using pymatgen
data_Be3Ni
_symmetry_space_group_name_H-M   'P 1'
_cell_length_a   4.06421224
_cell_length_b   4.06421224
_cell_length_c   4.06421224
_cell_angle_alpha   134.56429552
_cell_angle_beta   134.56429552
_cell_angle_gamma   66.20794489
_symmetry_Int_Tables_number   1
_chemical_formula_structural   Be3Ni
_chemical_formula_sum   'Be3 Ni1'
_cell_volume   33.54884444
_cell_formula_units_Z   1
loop_
 _symmetry_equiv_pos_site_id
 _symmetry_equiv_pos_as_xyz
  1  'x, y, z'
loop_
 _atom_site_type_symbol
 _atom_site_label
 _atom_site_symmetry_multiplicity
 _atom_site_fract_x
 _atom_site_fract_y
 _atom_site_fract_z
 _atom_site_occupancy
  Be  Be0  1  0.75000100  0.25000000  0.50000100  1
  Be  Be1  1  0.25000000  0.75000100  0.50000100  1
  Be  Be2  1  0.50000000  0.50000000  0.00000000  1
  Ni  Ni0  1  0.00000000  0.00000000  0.00000000  1
loop_
_geom_bond_atom_site_label_1
_geom_bond_atom_site_label_2
_geom_bond_distance
_geom_bond_site_symmetry_2
Be0 Be1 2.219706 1_645
Be0 Be1 2.219710 1_544
Be0 Be1 2.219710 1_656
Be0 Be1 2.219715 1_555
Be0 Ni0 2.315432 1_656
Be0 Be2 2.315432 1_656
Be0 Be2 2.315434 1_556
Be0 Be2 2.315434 1_545
Be0 Ni0 2.315434 1_666
Be0 Ni0 2.315434 1_655
Be0 Ni0 2.315436 1_555
Be0 Be2 2.315436 1_555
Be1 Ni0 2.315432 1_566
Be1 Be2 2.315432 1_566
Be1 Be2 2.315434 1_556
Be1 Be2 2.315434 1_455
Be1 Ni0 2.315434 1_666
Be1 Ni0 2.315434 1_565
Be1 Ni0 2.315436 1_555
Be1 Be2 2.315436 1_555
Be2 Ni0 2.219710 1_565
Be2 Ni0 2.219710 1_554
Be2 Ni0 2.219710 1_655
Be2 Ni0 2.219710 1_666
