# generated using pymatgen
data_Li4Cu2Ni5O12
_symmetry_space_group_name_H-M   'P 1'
_cell_length_a   5.27088709
_cell_length_b   8.56290013
_cell_length_c   9.57282716
_cell_angle_alpha   89.99999765
_cell_angle_beta   97.20321735
_cell_angle_gamma   89.99998671
_symmetry_Int_Tables_number   1
_chemical_formula_structural   Li4Cu2Ni5O12
_chemical_formula_sum   'Li8 Cu4 Ni10 O24'
_cell_volume   428.65077474
_cell_formula_units_Z   2
loop_
 _symmetry_equiv_pos_site_id
 _symmetry_equiv_pos_as_xyz
  1  'x, y, z'
loop_
 _atom_site_type_symbol
 _atom_site_label
 _atom_site_symmetry_multiplicity
 _atom_site_fract_x
 _atom_site_fract_y
 _atom_site_fract_z
 _atom_site_occupancy
  Li  Li0  1  0.74551500  0.09095800  0.50428700  1
  Li  Li1  1  0.24661600  0.39679600  0.99191800  1
  Li  Li2  1  0.49160900  0.42417100  0.73994200  1
  Li  Li3  1  0.76102600  0.41568300  0.50921700  1
  Li  Li4  1  0.00839100  0.92417100  0.76005800  1
  Li  Li5  1  0.75448500  0.59095800  0.99571300  1
  Li  Li6  1  0.25338400  0.89679600  0.50808200  1
  Li  Li7  1  0.73897400  0.91568300  0.99078300  1
  Cu  Cu0  1  0.99903100  0.25646300  0.75116500  1
  Cu  Cu1  1  0.49877500  0.23827900  0.24487200  1
  Cu  Cu2  1  0.00122500  0.73827900  0.25512800  1
  Cu  Cu3  1  0.50096900  0.75646300  0.74883500  1
  Ni  Ni0  1  0.00748200  0.07879400  0.24847000  1
  Ni  Ni1  1  0.49578700  0.09125200  0.74989500  1
  Ni  Ni2  1  0.25017500  0.25502100  0.50164200  1
  Ni  Ni3  1  0.99518500  0.41061100  0.25156000  1
  Ni  Ni4  1  0.74503700  0.25054100  0.99501200  1
  Ni  Ni5  1  0.00421300  0.59125200  0.75010500  1
  Ni  Ni6  1  0.49251800  0.57879400  0.25153000  1
  Ni  Ni7  1  0.24982500  0.75502100  0.99835800  1
  Ni  Ni8  1  0.75496300  0.75054100  0.50498800  1
  Ni  Ni9  1  0.50481500  0.91061100  0.24844000  1
  O  O0  1  0.12336200  0.10750300  0.63310500  1
  O  O1  1  0.38037900  0.08353300  0.35732100  1
  O  O2  1  0.06605300  0.25718900  0.11787100  1
  O  O3  1  0.64366300  0.08020100  0.14422400  1
  O  O4  1  0.43190600  0.25107300  0.87825900  1
  O  O5  1  0.85490200  0.10679200  0.86075000  1
  O  O6  1  0.10577000  0.41278200  0.63808100  1
  O  O7  1  0.57057100  0.24755500  0.61181100  1
  O  O8  1  0.37527900  0.38989800  0.35758200  1
  O  O9  1  0.92671100  0.25048300  0.38577700  1
  O  O10  1  0.61461200  0.39480700  0.13054700  1
  O  O11  1  0.11962100  0.58353300  0.14267900  1
  O  O12  1  0.90186600  0.41838300  0.86542400  1
  O  O13  1  0.37663800  0.60750300  0.86689500  1
  O  O14  1  0.06809400  0.75107300  0.62174100  1
  O  O15  1  0.64509800  0.60679200  0.63925000  1
  O  O16  1  0.43394700  0.75718900  0.38212900  1
  O  O17  1  0.85633700  0.58020100  0.35577600  1
  O  O18  1  0.12472100  0.88989800  0.14241800  1
  O  O19  1  0.57328900  0.75048300  0.11422300  1
  O  O20  1  0.39423000  0.91278200  0.86191900  1
  O  O21  1  0.92942900  0.74755500  0.88818900  1
  O  O22  1  0.59813400  0.91838300  0.63457600  1
  O  O23  1  0.88538800  0.89480700  0.36945300  1
loop_
_geom_bond_atom_site_label_1
_geom_bond_atom_site_label_2
_geom_bond_distance
_geom_bond_site_symmetry_2
Li0 O7 1.986420 1_555
Li0 O9 2.082510 1_555
Li0 O22 2.141437 1_545
Li0 O0 2.211621 1_655
Li0 O1 2.237941 1_555
Li0 O23 2.295502 1_545
Li1 O4 1.990270 1_555
Li1 O2 2.019013 1_556
Li1 O12 2.061709 1_455
Li1 O10 2.208662 1_556
Li1 O11 2.308682 1_556
Li1 O13 2.315842 1_555
Li2 O7 2.023097 1_555
Li2 O4 2.038063 1_555
Li2 O15 2.055374 1_555
Li2 O13 2.119745 1_555
Li2 O6 2.144530 1_555
Li2 O12 2.338809 1_555
Li3 O6 2.064488 1_655
Li3 O7 2.071756 1_555
Li3 O9 2.102111 1_555
Li3 O17 2.139994 1_555
Li3 O15 2.188964 1_555
Li3 O8 2.355780 1_555
Li4 O21 2.023097 1_455
Li4 O14 2.038063 1_555
Li4 O5 2.055373 1_465
Li4 O0 2.119745 1_565
Li4 O20 2.144530 1_555
Li4 O22 2.338809 1_455
Li5 O21 1.986420 1_555
Li5 O19 2.082509 1_556
Li5 O12 2.141437 1_555
Li5 O13 2.211621 1_555
Li5 O11 2.237941 1_656
Li5 O10 2.295502 1_556
Li6 O14 1.990270 1_555
Li6 O16 2.019013 1_555
Li6 O22 2.061709 1_555
Li6 O23 2.208662 1_455
Li6 O1 2.308683 1_565
Li6 O0 2.315842 1_565
Li7 O20 2.064488 1_555
Li7 O21 2.071756 1_555
Li7 O19 2.102111 1_556
Li7 O3 2.139994 1_566
Li7 O5 2.188965 1_565
Li7 O18 2.355780 1_656
Cu0 O6 1.852793 1_655
Cu0 O0 1.876021 1_655
Cu0 O5 1.876168 1_555
Cu0 O12 1.876573 1_555
Cu0 O4 2.447872 1_655
Cu0 O7 2.475904 1_555
Cu1 O8 1.857299 1_555
Cu1 O1 1.863460 1_555
Cu1 O3 1.878376 1_555
Cu1 O10 1.880052 1_555
Cu1 O2 2.451750 1_555
Cu1 O9 2.480946 1_555
Cu2 O18 1.857300 1_555
Cu2 O11 1.863460 1_555
Cu2 O17 1.878376 1_455
Cu2 O23 1.880052 1_455
Cu2 O16 2.451750 1_555
Cu2 O19 2.480946 1_455
Cu3 O20 1.852793 1_555
Cu3 O13 1.876021 1_555
Cu3 O15 1.876168 1_555
Cu3 O22 1.876573 1_555
Cu3 O14 2.447872 1_555
Cu3 O21 2.475904 1_555
Ni0 O2 2.022029 1_555
Ni0 O18 2.046010 1_545
Ni0 O3 2.047798 1_455
Ni0 O9 2.051982 1_455
Ni0 O23 2.103438 1_445
Ni0 O1 2.106420 1_555
Ni1 O4 1.897360 1_555
Ni1 O7 1.955678 1_555
Ni1 O22 1.962190 1_545
Ni1 O20 1.978881 1_545
Ni1 O5 2.054996 1_555
Ni1 O0 2.138305 1_555
Ni2 O7 1.876602 1_555
Ni2 O9 1.914244 1_455
Ni2 O0 1.958855 1_555
Ni2 O8 1.974478 1_555
Ni2 O6 2.087934 1_555
Ni2 O1 2.184898 1_555
Ni3 O2 1.903460 1_655
Ni3 O9 1.943563 1_555
Ni3 O17 1.955206 1_555
Ni3 O11 1.969906 1_655
Ni3 O8 2.136672 1_655
Ni3 O10 2.191210 1_555
Ni4 O4 1.873674 1_555
Ni4 O5 1.920686 1_555
Ni4 O2 1.936598 1_656
Ni4 O10 1.976287 1_556
Ni4 O12 2.131891 1_555
Ni4 O3 2.155159 1_556
Ni5 O14 1.897360 1_555
Ni5 O21 1.955678 1_455
Ni5 O12 1.962190 1_455
Ni5 O6 1.978881 1_555
Ni5 O15 2.054996 1_455
Ni5 O13 2.138305 1_555
Ni6 O16 2.022029 1_555
Ni6 O8 2.046011 1_555
Ni6 O17 2.047798 1_555
Ni6 O19 2.051982 1_555
Ni6 O10 2.103437 1_555
Ni6 O11 2.106420 1_555
Ni7 O21 1.876602 1_455
Ni7 O19 1.914244 1_556
Ni7 O13 1.958855 1_555
Ni7 O18 1.974478 1_556
Ni7 O20 2.087934 1_555
Ni7 O11 2.184898 1_556
Ni8 O14 1.873674 1_655
Ni8 O15 1.920686 1_555
Ni8 O16 1.936598 1_555
Ni8 O23 1.976288 1_555
Ni8 O22 2.131891 1_555
Ni8 O17 2.155159 1_555
Ni9 O16 1.903460 1_555
Ni9 O19 1.943563 1_555
Ni9 O3 1.955206 1_565
Ni9 O1 1.969906 1_565
Ni9 O18 2.136672 1_555
Ni9 O23 2.191210 1_555
