# generated using pymatgen
data_ThSO
_symmetry_space_group_name_H-M   'P 1'
_cell_length_a   3.97421556
_cell_length_b   3.97421556
_cell_length_c   6.77586343
_cell_angle_alpha   90.00000000
_cell_angle_beta   90.00000000
_cell_angle_gamma   90.00000000
_symmetry_Int_Tables_number   1
_chemical_formula_structural   ThSO
_chemical_formula_sum   'Th2 S2 O2'
_cell_volume   107.02062497
_cell_formula_units_Z   2
loop_
 _symmetry_equiv_pos_site_id
 _symmetry_equiv_pos_as_xyz
  1  'x, y, z'
loop_
 _atom_site_type_symbol
 _atom_site_label
 _atom_site_symmetry_multiplicity
 _atom_site_fract_x
 _atom_site_fract_y
 _atom_site_fract_z
 _atom_site_occupancy
  Th  Th0  1  0.25000000  0.25000000  0.80033617  1
  Th  Th1  1  0.75000000  0.75000000  0.19966383  1
  S  S0  1  0.75000000  0.75000000  0.63935519  1
  S  S1  1  0.25000000  0.25000000  0.36064481  1
  O  O0  1  0.75000000  0.25000000  0.00000000  1
  O  O1  1  0.25000000  0.75000000  0.00000000  1
loop_
_geom_bond_atom_site_label_1
_geom_bond_atom_site_label_2
_geom_bond_distance
_geom_bond_site_symmetry_2
S0 Th1 2.979289 1_555
S0 Th0 3.014466 1_555
S0 Th0 3.014466 1_655
S0 Th0 3.014466 1_665
S0 Th0 3.014466 1_565
S1 Th0 2.979289 1_555
S1 Th1 3.014466 1_455
S1 Th1 3.014466 1_445
S1 Th1 3.014466 1_555
S1 Th1 3.014466 1_545
O0 Th0 2.403939 1_654
O0 Th1 2.403939 1_555
O0 Th1 2.403939 1_545
O0 Th0 2.403939 1_554
O1 Th0 2.403939 1_564
O1 Th1 2.403939 1_555
O1 Th0 2.403939 1_554
O1 Th1 2.403939 1_455
