# generated using pymatgen
data_LiFe2(BO3)2
_symmetry_space_group_name_H-M   'P 1'
_cell_length_a   5.23695700
_cell_length_b   9.14864524
_cell_length_c   10.12122778
_cell_angle_alpha   88.93845056
_cell_angle_beta   89.15019209
_cell_angle_gamma   89.23228777
_symmetry_Int_Tables_number   1
_chemical_formula_structural   LiFe2(BO3)2
_chemical_formula_sum   'Li4 Fe8 B8 O24'
_cell_volume   484.74044050
_cell_formula_units_Z   4
loop_
 _symmetry_equiv_pos_site_id
 _symmetry_equiv_pos_as_xyz
  1  'x, y, z'
loop_
 _atom_site_type_symbol
 _atom_site_label
 _atom_site_symmetry_multiplicity
 _atom_site_fract_x
 _atom_site_fract_y
 _atom_site_fract_z
 _atom_site_occupancy
  Li  Li0  1  0.15179400  0.17122500  0.65292600  1
  Li  Li1  1  0.32940600  0.32808600  0.40340000  1
  Li  Li2  1  0.32752700  0.31839400  0.92168900  1
  Li  Li3  1  0.82798700  0.82945400  0.40398200  1
  Fe  Fe0  1  0.17131200  0.82901200  0.63095100  1
  Fe  Fe1  1  0.16510000  0.50548400  0.13630600  1
  Fe  Fe2  1  0.31772500  0.99021700  0.88069000  1
  Fe  Fe3  1  0.35070000  0.65945600  0.37540600  1
  Fe  Fe4  1  0.65544800  0.34945000  0.62763000  1
  Fe  Fe5  1  0.66715100  0.00376900  0.12666600  1
  Fe  Fe6  1  0.84357400  0.16074500  0.37784600  1
  Fe  Fe7  1  0.82935700  0.50476400  0.87678500  1
  B  B0  1  0.15414300  0.49900500  0.62524900  1
  B  B1  1  0.16681700  0.83385000  0.13233200  1
  B  B2  1  0.33876100  0.99806200  0.38362200  1
  B  B3  1  0.32991900  0.66055600  0.87419300  1
  B  B4  1  0.67220500  0.00388400  0.62685700  1
  B  B5  1  0.67063100  0.33200300  0.12396000  1
  B  B6  1  0.83435700  0.49737800  0.37527900  1
  B  B7  1  0.82438700  0.17524100  0.87991300  1
  O  O0  1  0.09484000  0.48110500  0.33327800  1
  O  O1  1  0.08590000  0.17099700  0.85889300  1
  O  O2  1  0.20017300  0.78272400  0.82527700  1
  O  O3  1  0.21405000  0.86911200  0.42441700  1
  O  O4  1  0.21763600  0.13094300  0.39088600  1
  O  O5  1  0.18905500  0.53853400  0.92242600  1
  O  O6  1  0.27915900  0.36713700  0.60630900  1
  O  O7  1  0.32275500  0.94539500  0.08563000  1
  O  O8  1  0.26109600  0.62915300  0.58161000  1
  O  O9  1  0.27870900  0.69914900  0.16708700  1
  O  O10  1  0.40974000  0.35116100  0.11703500  1
  O  O11  1  0.40897600  0.99712400  0.66116100  1
  O  O12  1  0.59273700  0.98729900  0.33797600  1
  O  O13  1  0.58787200  0.65421300  0.87774400  1
  O  O14  1  0.68349700  0.30544700  0.85019700  1
  O  O15  1  0.70342900  0.37147600  0.41335300  1
  O  O16  1  0.72433700  0.63192200  0.37879100  1
  O  O17  1  0.68759400  0.05734600  0.92914100  1
  O  O18  1  0.82931500  0.44615700  0.08050000  1
  O  O19  1  0.81623500  0.87747000  0.61391600  1
  O  O20  1  0.78400000  0.13776900  0.59946900  1
  O  O21  1  0.77693700  0.20176800  0.16753100  1
  O  O22  1  0.91030700  0.85368500  0.14540500  1
  O  O23  1  0.91337900  0.50046500  0.68437900  1
loop_
_geom_bond_atom_site_label_1
_geom_bond_atom_site_label_2
_geom_bond_distance
_geom_bond_site_symmetry_2
Li0 O6 1.967568 1_555
Li0 O20 2.036961 1_455
Li0 O11 2.073368 1_545
Li0 O1 2.107920 1_555
Li1 O4 1.910642 1_555
Li1 O0 1.978745 1_555
Li1 O15 2.008125 1_555
Li1 O6 2.103129 1_555
Li2 O1 1.981138 1_555
Li2 O14 1.992509 1_555
Li2 O10 2.057910 1_556
Li2 O5 2.131505 1_555
Li3 O16 1.916483 1_555
Li3 O12 1.997609 1_555
Li3 O3 2.072899 1_655
Li3 O19 2.177491 1_555
Fe0 O19 1.915379 1_455
Fe0 O8 1.953841 1_555
Fe0 O2 2.011663 1_555
Fe0 O11 2.021894 1_555
Fe0 O3 2.124680 1_555
Fe1 O10 1.904486 1_555
Fe1 O9 1.909036 1_555
Fe1 O18 1.942243 1_455
Fe1 O0 2.030648 1_555
Fe1 O5 2.182182 1_554
Fe2 O1 2.049044 1_565
Fe2 O2 2.092368 1_555
Fe2 O17 2.107315 1_565
Fe2 O7 2.107403 1_556
Fe2 O11 2.265684 1_555
Fe3 O16 1.970240 1_555
Fe3 O3 2.103597 1_555
Fe3 O8 2.146108 1_555
Fe3 O9 2.170503 1_555
Fe3 O0 2.177355 1_555
Fe4 O6 1.989680 1_555
Fe4 O23 2.041001 1_555
Fe4 O20 2.065112 1_555
Fe4 O15 2.185453 1_555
Fe4 O14 2.287511 1_555
Fe5 O22 1.869086 1_545
Fe5 O7 1.940845 1_545
Fe5 O21 1.961021 1_555
Fe5 O17 2.051157 1_554
Fe5 O12 2.171081 1_545
Fe6 O4 1.980215 1_655
Fe6 O15 2.089150 1_555
Fe6 O12 2.121715 1_545
Fe6 O21 2.186937 1_555
Fe6 O20 2.266392 1_555
Fe7 O13 1.850029 1_555
Fe7 O5 1.975841 1_655
Fe7 O23 1.991087 1_555
Fe7 O14 2.010619 1_555
Fe7 O18 2.120783 1_556
B0 O6 1.380036 1_555
B0 O8 1.384761 1_555
B0 O23 1.387660 1_455
B1 O22 1.357962 1_455
B1 O7 1.387346 1_555
B1 O9 1.398730 1_555
B2 O4 1.366353 1_565
B2 O12 1.404331 1_555
B2 O3 1.408319 1_555
B3 O13 1.352339 1_555
B3 O2 1.387485 1_555
B3 O5 1.421237 1_555
B4 O19 1.379467 1_545
B4 O20 1.386265 1_555
B4 O11 1.418442 1_545
B5 O21 1.376248 1_555
B5 O10 1.377791 1_555
B5 O18 1.403620 1_555
B6 O16 1.352903 1_555
B6 O15 1.393640 1_555
B6 O0 1.429493 1_655
B7 O1 1.382977 1_655
B7 O17 1.383831 1_555
B7 O14 1.422530 1_555
