# generated using pymatgen
data_TbAgH2C2SO9
_symmetry_space_group_name_H-M   'P 1'
_cell_length_a   7.73775683
_cell_length_b   7.73775683
_cell_length_c   9.08942092
_cell_angle_alpha   66.10216762
_cell_angle_beta   66.10216762
_cell_angle_gamma   53.40908184
_symmetry_Int_Tables_number   1
_chemical_formula_structural   TbAgH2C2SO9
_chemical_formula_sum   'Tb2 Ag2 H4 C4 S2 O18'
_cell_volume   389.44189631
_cell_formula_units_Z   2
loop_
 _symmetry_equiv_pos_site_id
 _symmetry_equiv_pos_as_xyz
  1  'x, y, z'
loop_
 _atom_site_type_symbol
 _atom_site_label
 _atom_site_symmetry_multiplicity
 _atom_site_fract_x
 _atom_site_fract_y
 _atom_site_fract_z
 _atom_site_occupancy
  Tb  Tb0  1  0.75724600  0.75724600  0.26828700  1
  Tb  Tb1  1  0.24275400  0.24275400  0.73171300  1
  Ag  Ag0  1  0.91364400  0.91364400  0.66848100  1
  Ag  Ag1  1  0.08635600  0.08635600  0.33151900  1
  H  H0  1  0.69895300  0.69895300  0.98828600  1
  H  H1  1  0.30104700  0.30104700  0.01171400  1
  H  H2  1  0.58480400  0.58480400  0.14704200  1
  H  H3  1  0.41519600  0.41519600  0.85295800  1
  C  C0  1  0.98276100  0.98276100  0.93013200  1
  C  C1  1  0.01723900  0.01723900  0.06986800  1
  C  C2  1  0.39023000  0.60977000  0.50000000  1
  C  C3  1  0.60977000  0.39023000  0.50000000  1
  S  S0  1  0.66633400  0.66633400  0.71641300  1
  S  S1  1  0.33366600  0.33366600  0.28358700  1
  O  O0  1  0.66435700  0.66435700  0.10883200  1
  O  O1  1  0.33564300  0.33564300  0.89116800  1
  O  O2  1  0.55157500  0.55157500  0.75283900  1
  O  O3  1  0.44842500  0.44842500  0.24716100  1
  O  O4  1  0.52020900  0.86542300  0.79080300  1
  O  O5  1  0.13457700  0.47979100  0.20919700  1
  O  O6  1  0.47979100  0.13457700  0.20919700  1
  O  O7  1  0.86542300  0.52020900  0.79080300  1
  O  O8  1  0.73876800  0.73876800  0.53454900  1
  O  O9  1  0.26123200  0.26123200  0.46545100  1
  O  O10  1  0.39833000  0.78289800  0.41798900  1
  O  O11  1  0.21710200  0.60167000  0.58201100  1
  O  O12  1  0.60167000  0.21710200  0.58201100  1
  O  O13  1  0.78289800  0.39833000  0.41798900  1
  O  O14  1  0.05632200  0.05632200  0.78225000  1
  O  O15  1  0.94367800  0.94367800  0.21775000  1
  O  O16  1  0.88172300  0.88172300  0.97237200  1
  O  O17  1  0.11827700  0.11827700  0.02762800  1
loop_
_geom_bond_atom_site_label_1
_geom_bond_atom_site_label_2
_geom_bond_distance
_geom_bond_site_symmetry_2
Ag0 O11 2.289729 1_655
Ag0 O12 2.289729 1_565
Ag0 O16 2.592087 1_555
Ag0 O14 2.609610 1_665
Ag1 O10 2.289729 1_545
Ag1 O13 2.289729 1_455
Ag1 O17 2.592087 1_555
Ag1 O15 2.609610 1_445
H0 O0 0.976733 1_556
H1 O1 0.976733 1_554
H2 O0 0.991851 1_555
H2 O3 1.681312 1_555
H3 O1 0.991851 1_555
H3 O2 1.681312 1_555
C0 O14 1.265392 1_665
C0 O16 1.269707 1_555
C1 O15 1.265392 1_445
C1 O17 1.269707 1_555
C2 O10 1.267814 1_555
C2 O11 1.267814 1_555
C3 O13 1.267814 1_555
C3 O12 1.267814 1_555
O0 Tb0 2.331903 1_555
O1 Tb1 2.331903 1_555
O2 S0 1.466380 1_555
O3 S1 1.466380 1_555
O4 S0 1.502235 1_555
O4 Tb1 2.369161 1_565
O5 S1 1.502235 1_555
O5 Tb0 2.369161 1_455
O6 S1 1.502235 1_555
O6 Tb0 2.369161 1_545
O7 S0 1.502235 1_555
O7 Tb1 2.369161 1_655
O8 S0 1.494658 1_555
O8 Tb0 2.315545 1_555
O9 S1 1.494658 1_555
O9 Tb1 2.315545 1_555
O10 Tb0 2.470557 1_555
O11 Tb1 2.470557 1_555
O12 Tb1 2.470557 1_555
O13 Tb0 2.470557 1_555
O14 Tb1 2.404200 1_555
O15 Tb0 2.404200 1_555
O16 Tb0 2.449065 1_556
O17 Tb1 2.449065 1_554
