# generated using pymatgen
data_PWO4F
_symmetry_space_group_name_H-M   'P 1'
_cell_length_a   5.38506800
_cell_length_b   5.38158656
_cell_length_c   7.72598685
_cell_angle_alpha   109.04388539
_cell_angle_beta   106.32328686
_cell_angle_gamma   94.97538575
_symmetry_Int_Tables_number   1
_chemical_formula_structural   PWO4F
_chemical_formula_sum   'P2 W2 O8 F2'
_cell_volume   199.14728554
_cell_formula_units_Z   2
loop_
 _symmetry_equiv_pos_site_id
 _symmetry_equiv_pos_as_xyz
  1  'x, y, z'
loop_
 _atom_site_type_symbol
 _atom_site_label
 _atom_site_symmetry_multiplicity
 _atom_site_fract_x
 _atom_site_fract_y
 _atom_site_fract_z
 _atom_site_occupancy
  P  P0  1  0.42513700  0.59102900  0.76196500  1
  P  P1  1  0.57486300  0.40897100  0.23803500  1
  W  W0  1  0.00000000  0.00000000  0.00000000  1
  W  W1  1  0.50000000  0.50000000  0.50000000  1
  O  O0  1  0.27832400  0.58224000  0.11567000  1
  O  O1  1  0.73960200  0.64264000  0.10083200  1
  O  O2  1  0.65355500  0.40980200  0.38449300  1
  O  O3  1  0.63563700  0.99628700  0.34976600  1
  O  O4  1  0.26039800  0.35736000  0.89916800  1
  O  O5  1  0.34644500  0.59019800  0.61550700  1
  O  O6  1  0.36436300  0.00371300  0.65023400  1
  O  O7  1  0.72167600  0.41776000  0.88433000  1
  F  F0  1  0.14669100  0.79930200  0.26479900  1
  F  F1  1  0.85330900  0.20069800  0.73520100  1
loop_
_geom_bond_atom_site_label_1
_geom_bond_atom_site_label_2
_geom_bond_distance
_geom_bond_site_symmetry_2
O0 O4 1.685160 1_554
O0 P1 2.073218 1_555
O1 O7 1.685160 1_554
O1 P1 2.167253 1_555
O1 W0 2.719514 1_665
O2 P1 1.089401 1_555
O2 W1 1.384745 1_555
O4 P0 2.167253 1_555
O4 W0 2.719514 1_556
O5 P0 1.089401 1_555
O5 W1 1.384745 1_555
O7 P0 2.073218 1_555
F0 O0 1.708484 1_555
F0 W0 2.580223 1_565
F1 O7 1.708484 1_555
F1 W0 2.580223 1_656
