# generated using pymatgen
data_SiO2
_symmetry_space_group_name_H-M   'P 1'
_cell_length_a   14.28056829
_cell_length_b   14.28056829
_cell_length_c   11.46893600
_cell_angle_alpha   90.00000000
_cell_angle_beta   90.00000000
_cell_angle_gamma   120.00000133
_symmetry_Int_Tables_number   1
_chemical_formula_structural   SiO2
_chemical_formula_sum   'Si34 O68'
_cell_volume   2025.55824431
_cell_formula_units_Z   34
loop_
 _symmetry_equiv_pos_site_id
 _symmetry_equiv_pos_as_xyz
  1  'x, y, z'
loop_
 _atom_site_type_symbol
 _atom_site_label
 _atom_site_symmetry_multiplicity
 _atom_site_fract_x
 _atom_site_fract_y
 _atom_site_fract_z
 _atom_site_occupancy
  Si  Si0  1  0.33333300  0.66666700  0.85953600  1
  Si  Si1  1  0.66666700  0.33333300  0.85953600  1
  Si  Si2  1  0.66666700  0.33333300  0.14046400  1
  Si  Si3  1  0.33333300  0.66666700  0.14046400  1
  Si  Si4  1  0.73875200  0.86937600  0.00000000  1
  Si  Si5  1  0.86937600  0.73875200  0.00000000  1
  Si  Si6  1  0.86937600  0.13062400  0.00000000  1
  Si  Si7  1  0.13062400  0.86937600  0.00000000  1
  Si  Si8  1  0.13062400  0.26124800  0.00000000  1
  Si  Si9  1  0.26124800  0.13062400  0.00000000  1
  Si  Si10  1  0.38983000  0.38983000  0.64000700  1
  Si  Si11  1  0.61017000  0.00000000  0.64000700  1
  Si  Si12  1  0.00000000  0.61017000  0.64000700  1
  Si  Si13  1  0.00000000  0.38983000  0.64000700  1
  Si  Si14  1  0.61017000  0.00000000  0.35999300  1
  Si  Si15  1  0.61017000  0.61017000  0.64000700  1
  Si  Si16  1  0.38983000  0.00000000  0.64000700  1
  Si  Si17  1  0.61017000  0.61017000  0.35999300  1
  Si  Si18  1  0.00000000  0.38983000  0.35999300  1
  Si  Si19  1  0.00000000  0.61017000  0.35999300  1
  Si  Si20  1  0.38983000  0.38983000  0.35999300  1
  Si  Si21  1  0.38983000  0.00000000  0.35999300  1
  Si  Si22  1  0.41750300  0.20875200  0.77331000  1
  Si  Si23  1  0.79124800  0.20875200  0.77331000  1
  Si  Si24  1  0.79124800  0.58249700  0.77331000  1
  Si  Si25  1  0.20875200  0.41750300  0.77331000  1
  Si  Si26  1  0.58249700  0.79124800  0.22669000  1
  Si  Si27  1  0.58249700  0.79124800  0.77331000  1
  Si  Si28  1  0.20875200  0.79124800  0.77331000  1
  Si  Si29  1  0.79124800  0.58249700  0.22669000  1
  Si  Si30  1  0.79124800  0.20875200  0.22669000  1
  Si  Si31  1  0.20875200  0.79124800  0.22669000  1
  Si  Si32  1  0.20875200  0.41750300  0.22669000  1
  Si  Si33  1  0.41750300  0.20875200  0.22669000  1
  O  O0  1  0.66666700  0.33333300  0.00000000  1
  O  O1  1  0.33333300  0.66666700  0.00000000  1
  O  O2  1  0.00000000  0.50000000  0.67486700  1
  O  O3  1  0.50000000  0.50000000  0.67486700  1
  O  O4  1  0.50000000  0.00000000  0.67486700  1
  O  O5  1  0.00000000  0.50000000  0.32513300  1
  O  O6  1  0.50000000  0.50000000  0.32513300  1
  O  O7  1  0.50000000  0.00000000  0.32513300  1
  O  O8  1  0.81516700  0.00000000  0.00000000  1
  O  O9  1  0.81516700  0.81516700  0.00000000  1
  O  O10  1  0.00000000  0.18483300  0.00000000  1
  O  O11  1  0.00000000  0.81516700  0.00000000  1
  O  O12  1  0.18483300  0.18483300  0.00000000  1
  O  O13  1  0.18483300  0.00000000  0.00000000  1
  O  O14  1  0.62312800  0.00000000  0.50000000  1
  O  O15  1  0.62312800  0.62312800  0.50000000  1
  O  O16  1  0.00000000  0.37687200  0.50000000  1
  O  O17  1  0.00000000  0.62312800  0.50000000  1
  O  O18  1  0.37687200  0.37687200  0.50000000  1
  O  O19  1  0.37687200  0.00000000  0.50000000  1
  O  O20  1  0.33818400  0.16909200  0.88559300  1
  O  O21  1  0.83090800  0.16909200  0.88559300  1
  O  O22  1  0.83090800  0.66181600  0.88559300  1
  O  O23  1  0.16909200  0.33818400  0.88559300  1
  O  O24  1  0.66181600  0.83090800  0.11440700  1
  O  O25  1  0.66181600  0.83090800  0.88559300  1
  O  O26  1  0.16909200  0.83090800  0.88559300  1
  O  O27  1  0.83090800  0.66181600  0.11440700  1
  O  O28  1  0.83090800  0.16909200  0.11440700  1
  O  O29  1  0.16909200  0.83090800  0.11440700  1
  O  O30  1  0.16909200  0.33818400  0.11440700  1
  O  O31  1  0.33818400  0.16909200  0.11440700  1
  O  O32  1  0.54298900  0.27149500  0.18636600  1
  O  O33  1  0.72850500  0.27149500  0.18636600  1
  O  O34  1  0.10604500  0.39340500  0.30641900  1
  O  O35  1  0.71264000  0.10604500  0.30641900  1
  O  O36  1  0.39340500  0.28736000  0.30641900  1
  O  O37  1  0.60659500  0.71264000  0.30641900  1
  O  O38  1  0.28736000  0.89395500  0.30641900  1
  O  O39  1  0.71264000  0.60659500  0.69358100  1
  O  O40  1  0.89395500  0.28736000  0.69358100  1
  O  O41  1  0.89395500  0.60659500  0.30641900  1
  O  O42  1  0.39340500  0.10604500  0.69358100  1
  O  O43  1  0.60659500  0.89395500  0.69358100  1
  O  O44  1  0.28736000  0.39340500  0.69358100  1
  O  O45  1  0.10604500  0.71264000  0.69358100  1
  O  O46  1  0.89395500  0.60659500  0.69358100  1
  O  O47  1  0.28736000  0.89395500  0.69358100  1
  O  O48  1  0.60659500  0.71264000  0.69358100  1
  O  O49  1  0.39340500  0.28736000  0.69358100  1
  O  O50  1  0.71264000  0.10604500  0.69358100  1
  O  O51  1  0.28736000  0.39340500  0.30641900  1
  O  O52  1  0.10604500  0.71264000  0.30641900  1
  O  O53  1  0.10604500  0.39340500  0.69358100  1
  O  O54  1  0.60659500  0.89395500  0.30641900  1
  O  O55  1  0.39340500  0.10604500  0.30641900  1
  O  O56  1  0.71264000  0.60659500  0.30641900  1
  O  O57  1  0.89395500  0.28736000  0.30641900  1
  O  O58  1  0.54298900  0.27149500  0.81363400  1
  O  O59  1  0.27149500  0.54298900  0.81363400  1
  O  O60  1  0.27149500  0.72850500  0.81363400  1
  O  O61  1  0.72850500  0.27149500  0.81363400  1
  O  O62  1  0.72850500  0.45701100  0.81363400  1
  O  O63  1  0.27149500  0.72850500  0.18636600  1
  O  O64  1  0.45701100  0.72850500  0.18636600  1
  O  O65  1  0.45701100  0.72850500  0.81363400  1
  O  O66  1  0.27149500  0.54298900  0.18636600  1
  O  O67  1  0.72850500  0.45701100  0.18636600  1
loop_
_geom_bond_atom_site_label_1
_geom_bond_atom_site_label_2
_geom_bond_distance
_geom_bond_site_symmetry_2
O0 Si2 1.610973 1_555
O0 Si1 1.610973 1_554
O1 Si3 1.610973 1_555
O1 Si0 1.610973 1_554
O2 Si13 1.623295 1_555
O2 Si12 1.623295 1_555
O3 Si10 1.623295 1_555
O3 Si15 1.623295 1_555
O4 Si16 1.623295 1_555
O4 Si11 1.623295 1_555
O5 Si18 1.623295 1_555
O5 Si19 1.623295 1_555
O6 Si20 1.623295 1_555
O6 Si17 1.623295 1_555
O7 Si21 1.623295 1_555
O7 Si14 1.623295 1_555
O8 Si4 1.623233 1_545
O8 Si6 1.623233 1_555
O9 Si5 1.623233 1_555
O9 Si4 1.623233 1_555
O10 Si8 1.623233 1_555
O10 Si6 1.623233 1_455
O11 Si5 1.623233 1_455
O11 Si7 1.623233 1_555
O12 Si9 1.623233 1_555
O12 Si8 1.623233 1_555
O13 Si9 1.623233 1_555
O13 Si7 1.623233 1_545
O14 Si14 1.616359 1_555
O14 Si11 1.616359 1_555
O15 Si17 1.616359 1_555
O15 Si15 1.616359 1_555
O16 Si18 1.616359 1_555
O16 Si13 1.616359 1_555
O17 Si12 1.616359 1_555
O17 Si19 1.616359 1_555
O18 Si20 1.616359 1_555
O18 Si10 1.616359 1_555
O19 Si16 1.616359 1_555
O19 Si21 1.616359 1_555
O20 Si22 1.618837 1_555
O20 Si9 1.620807 1_556
O21 Si23 1.618845 1_555
O21 Si6 1.620807 1_556
O22 Si24 1.618837 1_555
O22 Si5 1.620807 1_556
O23 Si25 1.618837 1_555
O23 Si8 1.620807 1_556
O24 Si26 1.618837 1_555
O24 Si4 1.620807 1_555
O25 Si27 1.618837 1_555
O25 Si4 1.620807 1_556
O26 Si28 1.618845 1_555
O26 Si7 1.620807 1_556
O27 Si29 1.618837 1_555
O27 Si5 1.620807 1_555
O28 Si30 1.618845 1_555
O28 Si6 1.620807 1_555
O29 Si31 1.618845 1_555
O29 Si7 1.620807 1_555
O30 Si32 1.618837 1_555
O30 Si8 1.620807 1_555
O31 Si33 1.618837 1_555
O31 Si9 1.620807 1_555
O32 Si2 1.617629 1_555
O32 Si33 1.619370 1_555
O33 Si2 1.617605 1_555
O33 Si30 1.619370 1_555
O34 Si18 1.611267 1_555
O34 Si32 1.612784 1_555
O35 Si14 1.611267 1_555
O35 Si30 1.612781 1_555
O36 Si20 1.611267 1_555
O36 Si33 1.612773 1_555
O37 Si17 1.611267 1_555
O37 Si26 1.612773 1_555
O38 Si21 1.611267 1_565
O38 Si31 1.612781 1_555
O39 Si15 1.611267 1_555
O39 Si24 1.612773 1_555
O40 Si13 1.611267 1_655
O40 Si23 1.612781 1_555
O41 Si19 1.611267 1_655
O41 Si29 1.612784 1_555
O42 Si16 1.611267 1_555
O42 Si22 1.612784 1_555
O43 Si11 1.611267 1_565
O43 Si27 1.612784 1_555
O44 Si10 1.611267 1_555
O44 Si25 1.612773 1_555
O45 Si12 1.611267 1_555
O45 Si28 1.612781 1_555
O46 Si12 1.611267 1_655
O46 Si24 1.612784 1_555
O47 Si16 1.611267 1_565
O47 Si28 1.612781 1_555
O48 Si15 1.611267 1_555
O48 Si27 1.612773 1_555
O49 Si10 1.611267 1_555
O49 Si22 1.612773 1_555
O50 Si11 1.611267 1_555
O50 Si23 1.612781 1_555
O51 Si20 1.611267 1_555
O51 Si32 1.612773 1_555
O52 Si19 1.611267 1_555
O52 Si31 1.612781 1_555
O53 Si13 1.611267 1_555
O53 Si25 1.612784 1_555
O54 Si14 1.611267 1_565
O54 Si26 1.612784 1_555
O55 Si21 1.611267 1_555
O55 Si33 1.612784 1_555
O56 Si17 1.611267 1_555
O56 Si29 1.612773 1_555
O57 Si18 1.611267 1_655
O57 Si30 1.612781 1_555
O58 Si1 1.617629 1_555
O58 Si22 1.619370 1_555
O59 Si0 1.617629 1_555
O59 Si25 1.619370 1_555
O60 Si0 1.617605 1_555
O60 Si28 1.619370 1_555
O61 Si1 1.617605 1_555
O61 Si23 1.619370 1_555
O62 Si1 1.617629 1_555
O62 Si24 1.619370 1_555
O63 Si3 1.617605 1_555
O63 Si31 1.619370 1_555
O64 Si3 1.617629 1_555
O64 Si26 1.619370 1_555
O65 Si0 1.617629 1_555
O65 Si27 1.619370 1_555
O66 Si3 1.617629 1_555
O66 Si32 1.619370 1_555
O67 Si2 1.617629 1_555
O67 Si29 1.619370 1_555
