# generated using pymatgen
data_LiFeP2O7
_symmetry_space_group_name_H-M   'P 1'
_cell_length_a   9.67233600
_cell_length_b   9.79440869
_cell_length_c   11.19216968
_cell_angle_alpha   90.15974938
_cell_angle_beta   101.42779711
_cell_angle_gamma   90.02143384
_symmetry_Int_Tables_number   1
_chemical_formula_structural   LiFeP2O7
_chemical_formula_sum   'Li8 Fe8 P16 O56'
_cell_volume   1039.26354827
_cell_formula_units_Z   8
loop_
 _symmetry_equiv_pos_site_id
 _symmetry_equiv_pos_as_xyz
  1  'x, y, z'
loop_
 _atom_site_type_symbol
 _atom_site_label
 _atom_site_symmetry_multiplicity
 _atom_site_fract_x
 _atom_site_fract_y
 _atom_site_fract_z
 _atom_site_occupancy
  Li  Li0  1  0.59529200  0.60873700  0.02742500  1
  Li  Li1  1  0.66369700  0.91411300  0.53727900  1
  Li  Li2  1  0.61505100  0.21817400  0.45048200  1
  Li  Li3  1  0.40831800  0.39595500  0.96891300  1
  Li  Li4  1  0.34865800  0.10136900  0.95176800  1
  Li  Li5  1  0.08053500  0.90065900  0.02528800  1
  Li  Li6  1  0.15414400  0.57564500  0.52501400  1
  Li  Li7  1  0.11351200  0.28488800  0.45290000  1
  Fe  Fe0  1  0.79362700  0.91106500  0.32195400  1
  Fe  Fe1  1  0.75696300  0.20186200  0.17038000  1
  Fe  Fe2  1  0.75854600  0.72071000  0.82798400  1
  Fe  Fe3  1  0.70863500  0.42873800  0.67147000  1
  Fe  Fe4  1  0.29349500  0.58752400  0.31873500  1
  Fe  Fe5  1  0.24574500  0.28950800  0.17351800  1
  Fe  Fe6  1  0.24660000  0.78842900  0.82581500  1
  Fe  Fe7  1  0.20634400  0.07399200  0.66611700  1
  P  P0  1  0.97862500  0.44732500  0.25078100  1
  P  P1  1  0.88941000  0.70940700  0.11636600  1
  P  P2  1  0.93238100  0.92002000  0.75890900  1
  P  P3  1  0.87601100  0.14713000  0.58183300  1
  P  P4  1  0.62201000  0.63993700  0.42559300  1
  P  P5  1  0.56245300  0.42320800  0.23594300  1
  P  P6  1  0.47866600  0.05366600  0.24775200  1
  P  P7  1  0.61829500  0.21216200  0.88236200  1
  P  P8  1  0.38608800  0.79354000  0.11501100  1
  P  P9  1  0.52370100  0.94687300  0.75320500  1
  P  P10  1  0.44071000  0.57840700  0.76328500  1
  P  P11  1  0.37740700  0.35390600  0.57799500  1
  P  P12  1  0.12303700  0.85790200  0.42604900  1
  P  P13  1  0.06938400  0.07527200  0.23849600  1
  P  P14  1  0.10691700  0.28348600  0.88448000  1
  P  P15  1  0.02575700  0.55159600  0.75460600  1
  O  O0  1  0.98433900  0.42462300  0.38379200  1
  O  O1  1  0.96577100  0.85161600  0.42883000  1
  O  O2  1  0.91402300  0.08010100  0.26138500  1
  O  O3  1  0.89701800  0.58724400  0.21412900  1
  O  O4  1  0.89609300  0.34071200  0.16357400  1
  O  O5  1  0.81581500  0.82183000  0.17746500  1
  O  O6  1  0.78517700  0.66013800  0.99840800  1
  O  O7  1  0.96653400  0.25692600  0.90947100  1
  O  O8  1  0.88174300  0.06826700  0.70919400  1
  O  O9  1  0.92186200  0.90315500  0.89083600  1
  O  O10  1  0.87065600  0.54280000  0.77849900  1
  O  O11  1  0.81099400  0.28612100  0.59787900  1
  O  O12  1  0.82648000  0.81659800  0.68708800  1
  O  O13  1  0.77876700  0.06462800  0.48220300  1
  O  O14  1  0.70718000  0.56341200  0.53257700  1
  O  O15  1  0.65450300  0.30086300  0.29014900  1
  O  O16  1  0.67863500  0.78404400  0.40577200  1
  O  O17  1  0.63322100  0.03506300  0.22260200  1
  O  O18  1  0.63278300  0.55771100  0.30186900  1
  O  O19  1  0.56265500  0.43751000  0.10260300  1
  O  O20  1  0.52714500  0.76307400  0.09015800  1
  O  O21  1  0.71751900  0.16638500  0.00151700  1
  O  O22  1  0.67541700  0.32968600  0.81665700  1
  O  O23  1  0.60898300  0.08697100  0.78736200  1
  O  O24  1  0.59229100  0.59142100  0.73611400  1
  O  O25  1  0.60242800  0.84065200  0.84342700  1
  O  O26  1  0.53020800  0.34183100  0.56190000  1
  O  O27  1  0.47651200  0.08901300  0.37704300  1
  O  O28  1  0.52082200  0.92166700  0.62212900  1
  O  O29  1  0.46417100  0.64720000  0.42730300  1
  O  O30  1  0.39477300  0.15201000  0.14988900  1
  O  O31  1  0.40895000  0.41285500  0.26354700  1
  O  O32  1  0.39853100  0.91067800  0.21849500  1
  O  O33  1  0.31428000  0.67734500  0.17218800  1
  O  O34  1  0.28256900  0.85343000  0.99882800  1
  O  O35  1  0.47187700  0.23449800  0.90578400  1
  O  O36  1  0.43706600  0.56806300  0.89671800  1
  O  O37  1  0.37969100  0.43652900  0.70312800  1
  O  O38  1  0.37061200  0.96688100  0.78451300  1
  O  O39  1  0.31074200  0.21597500  0.59764600  1
  O  O40  1  0.33657400  0.69090900  0.70579200  1
  O  O41  1  0.27930400  0.43362600  0.47775600  1
  O  O42  1  0.20785500  0.93458900  0.53447700  1
  O  O43  1  0.15688900  0.19814100  0.30151000  1
  O  O44  1  0.17995400  0.71406500  0.40588700  1
  O  O45  1  0.13249700  0.46202300  0.22096500  1
  O  O46  1  0.08645600  0.07162400  0.10842300  1
  O  O47  1  0.13697500  0.93974100  0.30398000  1
  O  O48  1  0.03268800  0.74233000  0.09777200  1
  O  O49  1  0.22170300  0.32964200  0.00087200  1
  O  O50  1  0.18204700  0.16815500  0.82354200  1
  O  O51  1  0.10822100  0.65547200  0.84737100  1
  O  O52  1  0.10498400  0.40839900  0.78848300  1
  O  O53  1  0.08829700  0.91101900  0.73773400  1
  O  O54  1  0.02923800  0.15864400  0.56431000  1
  O  O55  1  0.03130900  0.57964600  0.62548600  1
loop_
_geom_bond_atom_site_label_1
_geom_bond_atom_site_label_2
_geom_bond_distance
_geom_bond_site_symmetry_2
Li0 O20 1.841387 1_555
Li0 O19 1.932070 1_555
Li0 O36 1.936506 1_554
Li0 O6 1.992165 1_554
Li1 O28 1.826689 1_555
Li1 O16 1.970815 1_555
Li1 O13 2.016859 1_565
Li1 O12 2.272986 1_555
Li2 O27 1.904739 1_555
Li2 O26 2.023160 1_555
Li2 O15 2.073859 1_555
Li2 O13 2.162693 1_555
Li2 O11 2.347393 1_555
Li3 O35 1.882689 1_555
Li3 O36 1.915218 1_555
Li3 O19 1.934940 1_556
Li3 O49 2.015957 1_556
Li4 O35 1.905557 1_555
Li4 O50 2.043044 1_555
Li4 O30 2.227918 1_556
Li4 O38 2.329881 1_545
Li4 O34 2.592804 1_545
Li5 O48 1.852661 1_555
Li5 O46 1.908695 1_565
Li5 O9 1.924976 1_454
Li5 O34 2.085565 1_554
Li6 O55 1.790762 1_555
Li6 O44 1.954416 1_555
Li6 O41 1.982683 1_555
Li6 O0 2.517966 1_455
Li7 O0 1.912232 1_455
Li7 O43 2.010667 1_555
Li7 O54 2.039300 1_555
Li7 O41 2.142521 1_555
Li7 O39 2.345566 1_555
Fe0 O5 1.885440 1_555
Fe0 O1 1.938450 1_555
Fe0 O16 2.020849 1_555
Fe0 O17 2.108055 1_565
Fe0 O2 2.207783 1_565
Fe0 O13 2.363660 1_565
Fe1 O21 1.883798 1_555
Fe1 O4 1.925109 1_555
Fe1 O2 2.040204 1_555
Fe1 O15 2.058915 1_555
Fe1 O17 2.173513 1_555
Fe2 O25 1.947751 1_555
Fe2 O6 1.966793 1_555
Fe2 O12 2.053996 1_555
Fe2 O24 2.140723 1_555
Fe2 O10 2.180137 1_555
Fe2 O9 2.394542 1_555
Fe3 O22 1.974934 1_555
Fe3 O11 1.981799 1_555
Fe3 O14 2.039458 1_555
Fe3 O26 2.088361 1_555
Fe3 O10 2.094329 1_555
Fe3 O24 2.155509 1_555
Fe4 O33 1.908699 1_555
Fe4 O29 1.934893 1_555
Fe4 O44 2.027896 1_555
Fe4 O45 2.109298 1_555
Fe4 O31 2.196410 1_555
Fe4 O41 2.360122 1_555
Fe5 O49 1.941278 1_555
Fe5 O43 2.021382 1_555
Fe5 O30 2.027775 1_555
Fe5 O31 2.080435 1_555
Fe5 O45 2.136293 1_555
Fe6 O51 1.916735 1_555
Fe6 O40 1.982645 1_555
Fe6 O34 2.000492 1_555
Fe6 O53 2.041517 1_555
Fe6 O38 2.220365 1_555
Fe7 O39 1.962735 1_555
Fe7 O42 2.008109 1_545
Fe7 O54 2.037913 1_555
Fe7 O50 2.040927 1_555
Fe7 O38 2.134399 1_545
Fe7 O53 2.205115 1_545
O0 P0 1.495968 1_555
O1 P12 1.528822 1_655
O2 P13 1.574330 1_655
O3 P0 1.595311 1_555
O3 P1 1.615473 1_555
O4 P0 1.537925 1_555
O5 P1 1.541451 1_555
O6 P1 1.568720 1_556
O7 P14 1.462960 1_655
O8 P2 1.598380 1_545
O8 P3 1.614451 1_555
O9 P2 1.509541 1_555
O10 P15 1.577499 1_655
O11 P3 1.524791 1_555
O12 P2 1.545914 1_555
O13 P3 1.536175 1_555
O14 P4 1.512854 1_555
O15 P5 1.545151 1_555
O16 P4 1.546179 1_555
O17 P6 1.585511 1_555
O18 P5 1.593007 1_555
O18 P4 1.621105 1_555
O19 P5 1.499699 1_555
O20 P8 1.475836 1_555
O21 P7 1.548250 1_554
O22 P7 1.528487 1_555
O23 P9 1.606457 1_545
O23 P7 1.611466 1_555
O24 P10 1.560466 1_555
O25 P9 1.543899 1_555
O26 P11 1.528484 1_555
O27 P6 1.491105 1_555
O28 P9 1.481780 1_555
O29 P4 1.532255 1_555
O30 P6 1.562111 1_555
O31 P5 1.578605 1_555
O32 P6 1.601687 1_565
O32 P8 1.615388 1_555
O33 P8 1.538408 1_555
O34 P8 1.589424 1_556
O35 P7 1.506399 1_555
O36 P10 1.504481 1_555
O37 P10 1.602926 1_555
O37 P11 1.611892 1_555
O38 P9 1.599744 1_555
O39 P11 1.531804 1_555
O40 P10 1.546189 1_555
O41 P11 1.533716 1_555
O42 P12 1.519811 1_555
O43 P13 1.555622 1_555
O44 P12 1.544908 1_555
O45 P0 1.595005 1_455
O46 P13 1.497620 1_555
O47 P13 1.594640 1_565
O47 P12 1.614386 1_555
O48 P1 1.477209 1_455
O49 P14 1.599129 1_554
O50 P14 1.569057 1_555
O51 P15 1.553898 1_555
O52 P15 1.608327 1_555
O52 P14 1.628168 1_555
O53 P2 1.574747 1_455
O54 P3 1.537163 1_455
O55 P15 1.483147 1_555
