# generated using pymatgen
data_Li2ErIn
_symmetry_space_group_name_H-M   'P 1'
_cell_length_a   4.78194807
_cell_length_b   4.78195219
_cell_length_c   4.78215555
_cell_angle_alpha   59.99961350
_cell_angle_beta   60.00034400
_cell_angle_gamma   60.00453420
_symmetry_Int_Tables_number   1
_chemical_formula_structural   Li2ErIn
_chemical_formula_sum   'Li2 Er1 In1'
_cell_volume   77.32742107
_cell_formula_units_Z   1
loop_
 _symmetry_equiv_pos_site_id
 _symmetry_equiv_pos_as_xyz
  1  'x, y, z'
loop_
 _atom_site_type_symbol
 _atom_site_label
 _atom_site_symmetry_multiplicity
 _atom_site_fract_x
 _atom_site_fract_y
 _atom_site_fract_z
 _atom_site_occupancy
  Li  Li0  1  0.49997517  0.49997772  0.50006115  1
  Li  Li1  1  0.00001348  0.00000684  0.99996729  1
  Er  Er0  1  0.25000622  0.25001443  0.24997050  1
  In  In0  1  0.75000613  0.75000001  0.75000005  1
loop_
_geom_bond_atom_site_label_1
_geom_bond_atom_site_label_2
_geom_bond_distance
_geom_bond_site_symmetry_2
Er0 Li0 2.928072 1_554
Er0 Li1 2.928357 1_554
Er0 Li1 2.928395 1_564
Er0 Li1 2.928413 1_555
Er0 Li0 2.928433 1_555
Er0 Li1 2.928472 1_654
Er0 Li0 2.928565 1_455
Er0 Li0 2.928568 1_545
Er0 In0 3.381183 1_554
Er0 In0 3.381281 1_445
Er0 In0 3.381419 1_454
Er0 In0 3.381506 1_544
Er0 In0 3.381608 1_455
Er0 In0 3.381618 1_545
In0 Li1 2.928271 1_665
In0 Li0 2.928313 1_555
In0 Li0 2.928323 1_655
In0 Li0 2.928338 1_565
In0 Li1 2.928398 1_655
In0 Li1 2.928415 1_565
In0 Li1 2.928554 1_664
In0 Li0 2.928664 1_556
