# generated using pymatgen
data_Na6V2B4AsO16
_symmetry_space_group_name_H-M   'P 1'
_cell_length_a   9.97668837
_cell_length_b   9.97668837
_cell_length_c   9.97668837
_cell_angle_alpha   60.00000000
_cell_angle_beta   60.00000000
_cell_angle_gamma   60.00000000
_symmetry_Int_Tables_number   1
_chemical_formula_structural   Na6V2B4AsO16
_chemical_formula_sum   'Na12 V4 B8 As2 O32'
_cell_volume   702.17315660
_cell_formula_units_Z   2
loop_
 _symmetry_equiv_pos_site_id
 _symmetry_equiv_pos_as_xyz
  1  'x, y, z'
loop_
 _atom_site_type_symbol
 _atom_site_label
 _atom_site_symmetry_multiplicity
 _atom_site_fract_x
 _atom_site_fract_y
 _atom_site_fract_z
 _atom_site_occupancy
  Na  Na0  1  0.53748300  0.96251700  0.96251700  1
  Na  Na1  1  0.53748300  0.53748300  0.96251700  1
  Na  Na2  1  0.28748300  0.28748300  0.71251700  1
  Na  Na3  1  0.96251700  0.53748300  0.53748300  1
  Na  Na4  1  0.71251700  0.28748300  0.71251700  1
  Na  Na5  1  0.28748300  0.71251700  0.28748300  1
  Na  Na6  1  0.53748300  0.96251700  0.53748300  1
  Na  Na7  1  0.96251700  0.53748300  0.96251700  1
  Na  Na8  1  0.28748300  0.71251700  0.71251700  1
  Na  Na9  1  0.96251700  0.96251700  0.53748300  1
  Na  Na10  1  0.71251700  0.71251700  0.28748300  1
  Na  Na11  1  0.71251700  0.28748300  0.28748300  1
  V  V0  1  0.12500000  0.62500000  0.12500000  1
  V  V1  1  0.12500000  0.12500000  0.62500000  1
  V  V2  1  0.62500000  0.12500000  0.12500000  1
  V  V3  1  0.12500000  0.12500000  0.12500000  1
  B  B0  1  0.25620500  0.91459800  0.91459800  1
  B  B1  1  0.33540200  0.33540200  0.99379500  1
  B  B2  1  0.91459800  0.25620500  0.91459800  1
  B  B3  1  0.33540200  0.33540200  0.33540200  1
  B  B4  1  0.33540200  0.99379500  0.33540200  1
  B  B5  1  0.91459800  0.91459800  0.91459800  1
  B  B6  1  0.99379500  0.33540200  0.33540200  1
  B  B7  1  0.91459800  0.91459800  0.25620500  1
  As  As0  1  0.50000000  0.50000000  0.50000000  1
  As  As1  1  0.75000000  0.75000000  0.75000000  1
  O  O0  1  0.57042100  0.57042100  0.28873700  1
  O  O1  1  0.57042100  0.57042100  0.57042100  1
  O  O2  1  0.57042100  0.28873700  0.57042100  1
  O  O3  1  0.22157600  0.49050300  0.29796000  1
  O  O4  1  0.28873700  0.57042100  0.57042100  1
  O  O5  1  0.49050300  0.22157600  0.98996100  1
  O  O6  1  0.98996100  0.29796000  0.49050300  1
  O  O7  1  0.29796000  0.49050300  0.98996100  1
  O  O8  1  0.26003900  0.02842400  0.95204000  1
  O  O9  1  0.02842400  0.26003900  0.75949700  1
  O  O10  1  0.49050300  0.29796000  0.22157600  1
  O  O11  1  0.22157600  0.29796000  0.98996100  1
  O  O12  1  0.26003900  0.75949700  0.02842400  1
  O  O13  1  0.95204000  0.02842400  0.75949700  1
  O  O14  1  0.49050300  0.98996100  0.29796000  1
  O  O15  1  0.29796000  0.98996100  0.22157600  1
  O  O16  1  0.95204000  0.26003900  0.02842400  1
  O  O17  1  0.29796000  0.22157600  0.49050300  1
  O  O18  1  0.75949700  0.26003900  0.95204000  1
  O  O19  1  0.98996100  0.49050300  0.22157600  1
  O  O20  1  0.02842400  0.95204000  0.26003900  1
  O  O21  1  0.22157600  0.98996100  0.49050300  1
  O  O22  1  0.75949700  0.95204000  0.02842400  1
  O  O23  1  0.98996100  0.22157600  0.29796000  1
  O  O24  1  0.95204000  0.75949700  0.26003900  1
  O  O25  1  0.26003900  0.95204000  0.75949700  1
  O  O26  1  0.75949700  0.02842400  0.26003900  1
  O  O27  1  0.96126300  0.67957900  0.67957900  1
  O  O28  1  0.02842400  0.75949700  0.95204000  1
  O  O29  1  0.67957900  0.96126300  0.67957900  1
  O  O30  1  0.67957900  0.67957900  0.67957900  1
  O  O31  1  0.67957900  0.67957900  0.96126300  1
loop_
_geom_bond_atom_site_label_1
_geom_bond_atom_site_label_2
_geom_bond_distance
_geom_bond_site_symmetry_2
Na0 O31 2.448236 1_555
Na0 O29 2.448236 1_555
Na0 O15 2.518428 1_556
Na0 O5 2.518428 1_565
Na0 O8 2.550590 1_565
Na0 O22 2.550590 1_556
Na1 O31 2.448236 1_555
Na1 O30 2.448236 1_555
Na1 O7 2.518428 1_555
Na1 O10 2.518428 1_556
Na1 O12 2.550590 1_556
Na1 O18 2.550590 1_555
Na2 O2 2.448236 1_555
Na2 O4 2.448236 1_555
Na2 O8 2.518428 1_555
Na2 O9 2.518428 1_555
Na2 O11 2.550590 1_555
Na2 O17 2.550590 1_555
Na3 O27 2.448236 1_555
Na3 O30 2.448236 1_555
Na3 O6 2.518428 1_555
Na3 O3 2.518428 1_655
Na3 O9 2.550590 1_655
Na3 O24 2.550590 1_555
Na4 O1 2.448236 1_555
Na4 O2 2.448236 1_555
Na4 O18 2.518428 1_555
Na4 O13 2.518428 1_555
Na4 O6 2.550590 1_555
Na4 O5 2.550590 1_555
Na5 O0 2.448236 1_555
Na5 O4 2.448236 1_555
Na5 O20 2.518428 1_555
Na5 O12 2.518428 1_555
Na5 O15 2.550590 1_555
Na5 O3 2.550590 1_555
Na6 O29 2.448236 1_555
Na6 O30 2.448236 1_555
Na6 O14 2.518428 1_555
Na6 O17 2.518428 1_565
Na6 O25 2.550590 1_555
Na6 O26 2.550590 1_565
Na7 O27 2.448236 1_555
Na7 O31 2.448236 1_555
Na7 O11 2.518428 1_655
Na7 O19 2.518428 1_556
Na7 O16 2.550590 1_556
Na7 O28 2.550590 1_655
Na8 O1 2.448236 1_555
Na8 O4 2.448236 1_555
Na8 O25 2.518428 1_555
Na8 O28 2.518428 1_555
Na8 O7 2.550590 1_555
Na8 O21 2.550590 1_555
Na9 O27 2.448236 1_555
Na9 O29 2.448236 1_555
Na9 O23 2.518428 1_565
Na9 O21 2.518428 1_655
Na9 O13 2.550590 1_565
Na9 O20 2.550590 1_655
Na10 O1 2.448236 1_555
Na10 O0 2.448236 1_555
Na10 O24 2.518428 1_555
Na10 O22 2.518428 1_555
Na10 O14 2.550590 1_555
Na10 O19 2.550590 1_555
Na11 O2 2.448236 1_555
Na11 O0 2.448236 1_555
Na11 O16 2.518428 1_555
Na11 O26 2.518428 1_555
Na11 O23 2.550590 1_555
Na11 O10 2.550590 1_555
B0 O25 1.382933 1_555
B0 O12 1.382936 1_556
B0 O8 1.382943 1_565
B1 O7 1.382933 1_555
B1 O5 1.382936 1_555
B1 O11 1.382943 1_555
B2 O18 1.382933 1_555
B2 O9 1.382936 1_655
B2 O16 1.382943 1_556
B3 O3 1.382937 1_555
B3 O17 1.382937 1_555
B3 O10 1.382937 1_555
B4 O14 1.382933 1_555
B4 O21 1.382936 1_555
B4 O15 1.382943 1_555
B5 O28 1.382937 1_655
B5 O13 1.382937 1_565
B5 O22 1.382937 1_556
B6 O6 1.382933 1_555
B6 O19 1.382936 1_555
B6 O23 1.382943 1_555
B7 O24 1.382933 1_555
B7 O26 1.382936 1_565
B7 O20 1.382943 1_655
As0 O1 1.720934 1_555
As0 O2 1.720934 1_555
As0 O0 1.720934 1_555
As0 O4 1.720934 1_555
As1 O29 1.720934 1_555
As1 O31 1.720934 1_555
As1 O27 1.720934 1_555
As1 O30 1.720934 1_555
O3 V0 1.939267 1_555
O5 V2 1.939267 1_556
O6 V1 1.939267 1_655
O7 V0 1.939267 1_556
O8 V3 1.939267 1_556
O9 V1 1.939267 1_555
O10 V2 1.939267 1_555
O11 V3 1.939267 1_556
O12 V0 1.939267 1_555
O13 V1 1.939267 1_655
O14 V2 1.939267 1_565
O15 V3 1.939267 1_565
O16 V3 1.939267 1_655
O17 V1 1.939267 1_555
O18 V2 1.939267 1_556
O19 V0 1.939267 1_655
O20 V3 1.939267 1_565
O21 V1 1.939267 1_565
O22 V2 1.939267 1_565
O23 V3 1.939267 1_655
O24 V0 1.939267 1_655
O25 V1 1.939267 1_565
O26 V2 1.939267 1_555
O28 V0 1.939267 1_556
