# generated using pymatgen
data_Mn2OF3
_symmetry_space_group_name_H-M   'P 1'
_cell_length_a   4.76908800
_cell_length_b   5.70960000
_cell_length_c   11.04172549
_cell_angle_alpha   82.82142873
_cell_angle_beta   90.00000000
_cell_angle_gamma   90.00000000
_symmetry_Int_Tables_number   1
_chemical_formula_structural   Mn2OF3
_chemical_formula_sum   'Mn8 O4 F12'
_cell_volume   298.30486715
_cell_formula_units_Z   4
loop_
 _symmetry_equiv_pos_site_id
 _symmetry_equiv_pos_as_xyz
  1  'x, y, z'
loop_
 _atom_site_type_symbol
 _atom_site_label
 _atom_site_symmetry_multiplicity
 _atom_site_fract_x
 _atom_site_fract_y
 _atom_site_fract_z
 _atom_site_occupancy
  Mn  Mn0  1  0.50000000  0.50000000  0.00000000  1
  Mn  Mn1  1  0.50000000  0.00000000  0.50000000  1
  Mn  Mn2  1  0.53233800  0.73977000  0.26673200  1
  Mn  Mn3  1  0.46766200  0.26023000  0.73326800  1
  Mn  Mn4  1  0.03233800  0.26023000  0.23326800  1
  Mn  Mn5  1  0.00000000  0.50000000  0.50000000  1
  Mn  Mn6  1  0.96766200  0.73977000  0.76673200  1
  Mn  Mn7  1  0.00000000  0.00000000  0.00000000  1
  O  O0  1  0.79665900  0.73599700  0.93814000  1
  O  O1  1  0.70334100  0.73599700  0.43814000  1
  O  O2  1  0.29665900  0.26400300  0.56186000  1
  O  O3  1  0.20334100  0.26400300  0.06186000  1
  F  F0  1  0.80063900  0.23669100  0.41326000  1
  F  F1  1  0.81555000  0.46448100  0.67395000  1
  F  F2  1  0.80710700  0.97412200  0.16857300  1
  F  F3  1  0.68445000  0.46448100  0.17395000  1
  F  F4  1  0.69936100  0.23669100  0.91326000  1
  F  F5  1  0.69289300  0.97412200  0.66857300  1
  F  F6  1  0.31555000  0.53551900  0.82605000  1
  F  F7  1  0.30063900  0.76330900  0.08674000  1
  F  F8  1  0.30710700  0.02587800  0.33142700  1
  F  F9  1  0.19289300  0.02587800  0.83142700  1
  F  F10  1  0.18445000  0.53551900  0.32605000  1
  F  F11  1  0.19936100  0.76330900  0.58674000  1
loop_
_geom_bond_atom_site_label_1
_geom_bond_atom_site_label_2
_geom_bond_distance
_geom_bond_site_symmetry_2
Mn0 O3 2.013400 1_555
Mn0 O0 2.013400 1_554
Mn1 O1 1.984034 1_545
Mn1 O2 1.984034 1_555
Mn2 O1 2.058506 1_555
Mn3 O2 2.058506 1_555
Mn4 O3 2.058506 1_555
Mn5 O1 2.013400 1_455
Mn5 O2 2.013400 1_555
Mn6 O0 2.058506 1_555
Mn7 O0 1.984034 1_444
Mn7 O3 1.984034 1_555
F0 Mn5 2.107441 1_655
F0 Mn1 2.115618 1_555
F0 Mn4 2.263220 1_655
F1 Mn3 2.085842 1_555
F1 Mn5 2.099213 1_655
F1 Mn6 2.109210 1_555
F2 Mn7 2.064929 1_665
F2 Mn2 2.078414 1_555
F2 Mn4 2.150406 1_665
F3 Mn4 2.085842 1_655
F3 Mn0 2.099213 1_555
F3 Mn2 2.109210 1_555
F4 Mn0 2.107441 1_556
F4 Mn7 2.115618 1_656
F4 Mn3 2.263220 1_555
F5 Mn1 2.064929 1_565
F5 Mn6 2.078414 1_555
F5 Mn3 2.150406 1_565
F6 Mn6 2.085842 1_455
F6 Mn0 2.099213 1_556
F6 Mn3 2.109210 1_555
F7 Mn0 2.107441 1_555
F7 Mn7 2.115618 1_565
F7 Mn2 2.263220 1_555
F8 Mn1 2.064929 1_555
F8 Mn4 2.078414 1_555
F8 Mn2 2.150406 1_545
F9 Mn7 2.064929 1_556
F9 Mn3 2.078414 1_555
F9 Mn6 2.150406 1_445
F10 Mn2 2.085842 1_555
F10 Mn5 2.099213 1_555
F10 Mn4 2.109210 1_555
F11 Mn5 2.107441 1_555
F11 Mn1 2.115618 1_565
F11 Mn6 2.263220 1_455
