# generated using pymatgen
data_Sc2TcPt
_symmetry_space_group_name_H-M   'P 1'
_cell_length_a   4.58285085
_cell_length_b   4.58285085
_cell_length_c   4.58285085
_cell_angle_alpha   59.99675547
_cell_angle_beta   59.99675547
_cell_angle_gamma   59.99675547
_symmetry_Int_Tables_number   1
_chemical_formula_structural   Sc2TcPt
_chemical_formula_sum   'Sc2 Tc1 Pt1'
_cell_volume   68.05502882
_cell_formula_units_Z   1
loop_
 _symmetry_equiv_pos_site_id
 _symmetry_equiv_pos_as_xyz
  1  'x, y, z'
loop_
 _atom_site_type_symbol
 _atom_site_label
 _atom_site_symmetry_multiplicity
 _atom_site_fract_x
 _atom_site_fract_y
 _atom_site_fract_z
 _atom_site_occupancy
  Sc  Sc0  1  0.49999118  0.49999118  0.49999118  1
  Sc  Sc1  1  0.00000882  0.00000882  0.00000882  1
  Tc  Tc0  1  0.75000000  0.75000000  0.75000000  1
  Pt  Pt0  1  0.25000000  0.25000000  0.25000000  1
loop_
_geom_bond_atom_site_label_1
_geom_bond_atom_site_label_2
_geom_bond_distance
_geom_bond_site_symmetry_2
Sc0 Tc0 2.806264 1_545
Sc0 Tc0 2.806264 1_455
Sc0 Tc0 2.806264 1_554
Sc0 Tc0 2.806579 1_555
Sc1 Tc0 2.806264 1_454
Sc1 Tc0 2.806264 1_445
Sc1 Tc0 2.806264 1_544
Sc1 Tc0 2.806579 1_444
Pt0 Sc0 2.806330 1_455
Pt0 Sc1 2.806330 1_565
Pt0 Sc0 2.806330 1_554
Pt0 Sc1 2.806330 1_655
Pt0 Sc0 2.806330 1_545
Pt0 Sc1 2.806330 1_556
Pt0 Sc1 2.806381 1_555
Pt0 Sc0 2.806381 1_555
