# generated using pymatgen
data_Ti3Co2Ni(PO4)6
_symmetry_space_group_name_H-M   'P 1'
_cell_length_a   8.50557471
_cell_length_b   8.50557471
_cell_length_c   8.50557490
_cell_angle_alpha   61.02742293
_cell_angle_beta   61.02742293
_cell_angle_gamma   61.02742042
_symmetry_Int_Tables_number   1
_chemical_formula_structural   Ti3Co2Ni(PO4)6
_chemical_formula_sum   'Ti3 Co2 Ni1 P6 O24'
_cell_volume   445.17454693
_cell_formula_units_Z   1
loop_
 _symmetry_equiv_pos_site_id
 _symmetry_equiv_pos_as_xyz
  1  'x, y, z'
loop_
 _atom_site_type_symbol
 _atom_site_label
 _atom_site_symmetry_multiplicity
 _atom_site_fract_x
 _atom_site_fract_y
 _atom_site_fract_z
 _atom_site_occupancy
  Ti  Ti0  1  0.85763600  0.85763600  0.85763600  1
  Ti  Ti1  1  0.64405100  0.64405100  0.64405100  1
  Ti  Ti2  1  0.35506600  0.35506600  0.35506600  1
  Co  Co0  1  0.00307300  0.00307300  0.00307300  1
  Co  Co1  1  0.50093800  0.50093800  0.50093800  1
  Ni  Ni0  1  0.14233900  0.14233900  0.14233900  1
  P  P0  1  0.54282400  0.95467600  0.24743300  1
  P  P1  1  0.24743300  0.54282400  0.95467600  1
  P  P2  1  0.04519300  0.75033000  0.45485000  1
  P  P3  1  0.75033000  0.45485000  0.04519300  1
  P  P4  1  0.45485000  0.04519300  0.75033000  1
  P  P5  1  0.95467600  0.24743300  0.54282400  1
  O  O0  1  0.51001300  0.88590000  0.67526600  1
  O  O1  1  0.88590000  0.67526600  0.51001300  1
  O  O2  1  0.74389900  0.94188100  0.08980900  1
  O  O3  1  0.67526600  0.51001300  0.88590000  1
  O  O4  1  0.39076600  0.98679100  0.18444900  1
  O  O5  1  0.56739500  0.75823000  0.41098700  1
  O  O6  1  0.08980900  0.74389900  0.94188100  1
  O  O7  1  0.41098700  0.56739500  0.75823000  1
  O  O8  1  0.99771800  0.81634300  0.61863300  1
  O  O9  1  0.75823000  0.41098700  0.56739500  1
  O  O10  1  0.05360600  0.90557600  0.26059600  1
  O  O11  1  0.81634300  0.61863300  0.99771800  1
  O  O12  1  0.18444900  0.39076600  0.98679100  1
  O  O13  1  0.94188100  0.08980900  0.74389900  1
  O  O14  1  0.24030900  0.58720200  0.44596600  1
  O  O15  1  0.98679100  0.18444900  0.39076600  1
  O  O16  1  0.58720200  0.44596600  0.24030900  1
  O  O17  1  0.90557600  0.26059600  0.05360600  1
  O  O18  1  0.44596600  0.24030900  0.58720200  1
  O  O19  1  0.61863300  0.99771800  0.81634300  1
  O  O20  1  0.31361400  0.49742100  0.11922300  1
  O  O21  1  0.26059600  0.05360600  0.90557600  1
  O  O22  1  0.11922300  0.31361400  0.49742100  1
  O  O23  1  0.49742100  0.11922300  0.31361400  1
loop_
_geom_bond_atom_site_label_1
_geom_bond_atom_site_label_2
_geom_bond_distance
_geom_bond_site_symmetry_2
Co0 O17 2.115950 1_455
Co0 O21 2.115950 1_554
Co0 O10 2.115950 1_545
Co0 O6 2.199694 1_544
Co0 O2 2.199694 1_445
Co0 O13 2.199694 1_454
Co1 O14 2.183396 1_555
Co1 O18 2.183396 1_555
Co1 O16 2.183396 1_555
Co1 O9 2.202591 1_555
Co1 O5 2.202591 1_555
Co1 O7 2.202591 1_555
Ni0 O4 1.977202 1_545
Ni0 O12 1.977202 1_554
Ni0 O15 1.977202 1_455
Ni0 O17 2.100331 1_455
Ni0 O10 2.100331 1_545
Ni0 O21 2.100331 1_554
O0 P4 1.547721 1_565
O0 Ti1 1.888291 1_555
O1 P2 1.547722 1_655
O1 Ti1 1.888291 1_555
O2 P0 1.572883 1_555
O2 Ti0 2.048793 1_554
O3 P3 1.547722 1_556
O3 Ti1 1.888291 1_555
O4 P0 1.490485 1_555
O5 P0 1.569162 1_555
O5 Ti1 2.017817 1_555
O6 P1 1.572882 1_555
O6 Ti0 2.048793 1_455
O7 P1 1.569162 1_555
O7 Ti1 2.017817 1_555
O8 P2 1.553095 1_655
O8 Ti0 1.901389 1_555
O9 P5 1.569162 1_555
O9 Ti1 2.017817 1_555
O10 P2 1.530367 1_555
O11 P3 1.553095 1_556
O11 Ti0 1.901389 1_555
O12 P1 1.490485 1_555
O13 P5 1.572883 1_555
O13 Ti0 2.048793 1_545
O14 P2 1.560242 1_555
O14 Ti2 2.080794 1_555
O15 P5 1.490485 1_555
O16 P3 1.560243 1_555
O16 Ti2 2.080794 1_555
O17 P3 1.530367 1_555
O18 P4 1.560243 1_555
O18 Ti2 2.080794 1_555
O19 P4 1.553095 1_565
O19 Ti0 1.901389 1_555
O20 P1 1.566465 1_554
O20 Ti2 1.879599 1_555
O21 P4 1.530367 1_555
O22 P5 1.566465 1_455
O22 Ti2 1.879599 1_555
O23 P0 1.566465 1_545
O23 Ti2 1.879599 1_555
