# generated using pymatgen
data_HoMgRh2
_symmetry_space_group_name_H-M   'P 1'
_cell_length_a   4.59550093
_cell_length_b   4.59550093
_cell_length_c   4.59550093
_cell_angle_alpha   60.00000000
_cell_angle_beta   60.00000000
_cell_angle_gamma   60.00000000
_symmetry_Int_Tables_number   1
_chemical_formula_structural   HoMgRh2
_chemical_formula_sum   'Ho1 Mg1 Rh2'
_cell_volume   68.62519270
_cell_formula_units_Z   1
loop_
 _symmetry_equiv_pos_site_id
 _symmetry_equiv_pos_as_xyz
  1  'x, y, z'
loop_
 _atom_site_type_symbol
 _atom_site_label
 _atom_site_symmetry_multiplicity
 _atom_site_fract_x
 _atom_site_fract_y
 _atom_site_fract_z
 _atom_site_occupancy
  Ho  Ho0  1  0.24999900  0.24999900  0.24999900  1
  Mg  Mg0  1  0.74999900  0.74999900  0.74999900  1
  Rh  Rh0  1  -0.00000000  0.00000000  0.00000000  1
  Rh  Rh1  1  0.50000000  0.50000000  0.50000000  1
loop_
_geom_bond_atom_site_label_1
_geom_bond_atom_site_label_2
_geom_bond_distance
_geom_bond_site_symmetry_2
Ho0 Rh0 2.814147 1_555
Ho0 Rh1 2.814154 1_455
Ho0 Rh1 2.814154 1_545
Ho0 Rh1 2.814154 1_554
Ho0 Rh0 2.814162 1_556
Ho0 Rh0 2.814162 1_565
Ho0 Rh0 2.814162 1_655
Ho0 Rh1 2.814169 1_555
Mg0 Rh1 2.814147 1_555
Mg0 Rh0 2.814154 1_656
Mg0 Rh0 2.814154 1_566
Mg0 Rh0 2.814154 1_665
Mg0 Rh1 2.814162 1_556
Mg0 Rh1 2.814162 1_655
Mg0 Rh1 2.814162 1_565
Mg0 Rh0 2.814169 1_666
