# generated using pymatgen
data_Al(Ni3B2)4
_symmetry_space_group_name_H-M   'P 1'
_cell_length_a   8.96885402
_cell_length_b   8.96885402
_cell_length_c   14.55772300
_cell_angle_alpha   90.00000000
_cell_angle_beta   90.00000000
_cell_angle_gamma   107.96285299
_symmetry_Int_Tables_number   1
_chemical_formula_structural   Al(Ni3B2)4
_chemical_formula_sum   'Al6 Ni72 B48'
_cell_volume   1113.94840051
_cell_formula_units_Z   6
loop_
 _symmetry_equiv_pos_site_id
 _symmetry_equiv_pos_as_xyz
  1  'x, y, z'
loop_
 _atom_site_type_symbol
 _atom_site_label
 _atom_site_symmetry_multiplicity
 _atom_site_fract_x
 _atom_site_fract_y
 _atom_site_fract_z
 _atom_site_occupancy
  Al  Al0  1  0.00000000  0.00000000  0.00000000  1
  Al  Al1  1  0.50000000  0.50000000  0.50000000  1
  Al  Al2  1  0.76711200  0.23288800  0.26056000  1
  Al  Al3  1  0.73288800  0.26711200  0.76056000  1
  Al  Al4  1  0.23288800  0.76711200  0.73944000  1
  Al  Al5  1  0.26711200  0.73288800  0.23944000  1
  Ni  Ni0  1  0.92533700  0.07466300  0.42190500  1
  Ni  Ni1  1  0.57466300  0.42533700  0.92190500  1
  Ni  Ni2  1  0.07466300  0.92533700  0.57809500  1
  Ni  Ni3  1  0.42533700  0.57466300  0.07809500  1
  Ni  Ni4  1  0.13707900  0.86292100  0.12505900  1
  Ni  Ni5  1  0.36292100  0.63707900  0.62505900  1
  Ni  Ni6  1  0.86292100  0.13707900  0.87494100  1
  Ni  Ni7  1  0.63707900  0.36292100  0.37494100  1
  Ni  Ni8  1  0.88228100  0.11771900  0.13079300  1
  Ni  Ni9  1  0.61771900  0.38228100  0.63079300  1
  Ni  Ni10  1  0.11771900  0.88228100  0.86920700  1
  Ni  Ni11  1  0.38228100  0.61771900  0.36920700  1
  Ni  Ni12  1  0.01480800  0.48519200  0.25000000  1
  Ni  Ni13  1  0.48519200  0.01480800  0.75000000  1
  Ni  Ni14  1  0.98519200  0.51480800  0.75000000  1
  Ni  Ni15  1  0.51480800  0.98519200  0.25000000  1
  Ni  Ni16  1  0.46543300  0.20035700  0.49779900  1
  Ni  Ni17  1  0.03456700  0.29964300  0.99779900  1
  Ni  Ni18  1  0.20035700  0.46543300  0.50220100  1
  Ni  Ni19  1  0.29964300  0.03456700  0.00220100  1
  Ni  Ni20  1  0.53456700  0.79964300  0.50220100  1
  Ni  Ni21  1  0.96543300  0.70035700  0.00220100  1
  Ni  Ni22  1  0.79964300  0.53456700  0.49779900  1
  Ni  Ni23  1  0.70035700  0.96543300  0.99779900  1
  Ni  Ni24  1  0.17551900  0.15784000  0.13206600  1
  Ni  Ni25  1  0.32448100  0.34216000  0.63206600  1
  Ni  Ni26  1  0.15784000  0.17551900  0.86793400  1
  Ni  Ni27  1  0.34216000  0.32448100  0.36793400  1
  Ni  Ni28  1  0.82448100  0.84216000  0.86793400  1
  Ni  Ni29  1  0.67551900  0.65784000  0.36793400  1
  Ni  Ni30  1  0.84216000  0.82448100  0.13206600  1
  Ni  Ni31  1  0.65784000  0.67551900  0.63206600  1
  Ni  Ni32  1  0.24723000  0.02246400  0.26763200  1
  Ni  Ni33  1  0.25277000  0.47753600  0.76763200  1
  Ni  Ni34  1  0.02246400  0.24723000  0.73236800  1
  Ni  Ni35  1  0.47753600  0.25277000  0.23236800  1
  Ni  Ni36  1  0.75277000  0.97753600  0.73236800  1
  Ni  Ni37  1  0.74723000  0.52246400  0.23236800  1
  Ni  Ni38  1  0.97753600  0.75277000  0.26763200  1
  Ni  Ni39  1  0.52246400  0.74723000  0.76763200  1
  Ni  Ni40  1  0.20144800  0.06196300  0.43406000  1
  Ni  Ni41  1  0.29855200  0.43803700  0.93406000  1
  Ni  Ni42  1  0.06196300  0.20144800  0.56594000  1
  Ni  Ni43  1  0.43803700  0.29855200  0.06594000  1
  Ni  Ni44  1  0.79855200  0.93803700  0.56594000  1
  Ni  Ni45  1  0.70144800  0.56196300  0.06594000  1
  Ni  Ni46  1  0.93803700  0.79855200  0.43406000  1
  Ni  Ni47  1  0.56196300  0.70144800  0.93406000  1
  Ni  Ni48  1  0.04956700  0.21244800  0.27984300  1
  Ni  Ni49  1  0.45043300  0.28755200  0.77984300  1
  Ni  Ni50  1  0.21244800  0.04956700  0.72015700  1
  Ni  Ni51  1  0.28755200  0.45043300  0.22015700  1
  Ni  Ni52  1  0.95043300  0.78755200  0.72015700  1
  Ni  Ni53  1  0.54956700  0.71244800  0.22015700  1
  Ni  Ni54  1  0.78755200  0.95043300  0.27984300  1
  Ni  Ni55  1  0.71244800  0.54956700  0.77984300  1
  Ni  Ni56  1  0.91702900  0.34958300  0.41209700  1
  Ni  Ni57  1  0.58297100  0.15041700  0.91209700  1
  Ni  Ni58  1  0.34958300  0.91702900  0.58790300  1
  Ni  Ni59  1  0.15041700  0.58297100  0.08790300  1
  Ni  Ni60  1  0.08297100  0.65041700  0.58790300  1
  Ni  Ni61  1  0.41702900  0.84958300  0.08790300  1
  Ni  Ni62  1  0.65041700  0.08297100  0.41209700  1
  Ni  Ni63  1  0.84958300  0.41702900  0.91209700  1
  Ni  Ni64  1  0.37012500  0.89621800  0.39612000  1
  Ni  Ni65  1  0.12987500  0.60378200  0.89612000  1
  Ni  Ni66  1  0.89621800  0.37012500  0.60388000  1
  Ni  Ni67  1  0.60378200  0.12987500  0.10388000  1
  Ni  Ni68  1  0.62987500  0.10378200  0.60388000  1
  Ni  Ni69  1  0.87012500  0.39621800  0.10388000  1
  Ni  Ni70  1  0.10378200  0.62987500  0.39612000  1
  Ni  Ni71  1  0.39621800  0.87012500  0.89612000  1
  B  B0  1  0.17380100  0.82619900  0.48168100  1
  B  B1  1  0.32619900  0.67380100  0.98168100  1
  B  B2  1  0.82619900  0.17380100  0.51831900  1
  B  B3  1  0.67380100  0.32619900  0.01831900  1
  B  B4  1  0.29498500  0.70501500  0.49806000  1
  B  B5  1  0.20501500  0.79498500  0.99806000  1
  B  B6  1  0.70501500  0.29498500  0.50194000  1
  B  B7  1  0.79498500  0.20501500  0.00194000  1
  B  B8  1  0.72713000  0.72713000  0.50000000  1
  B  B9  1  0.77287000  0.77287000  0.00000000  1
  B  B10  1  0.27287000  0.27287000  0.50000000  1
  B  B11  1  0.22713000  0.22713000  0.00000000  1
  B  B12  1  0.11635600  0.26565900  0.42115900  1
  B  B13  1  0.38364400  0.23434100  0.92115900  1
  B  B14  1  0.26565900  0.11635600  0.57884100  1
  B  B15  1  0.23434100  0.38364400  0.07884100  1
  B  B16  1  0.88364400  0.73434100  0.57884100  1
  B  B17  1  0.61635600  0.76565900  0.07884100  1
  B  B18  1  0.73434100  0.88364400  0.42115900  1
  B  B19  1  0.76565900  0.61635600  0.92115900  1
  B  B20  1  0.00990900  0.99009100  0.20560300  1
  B  B21  1  0.49009100  0.50990900  0.70560300  1
  B  B22  1  0.99009100  0.00990900  0.79439700  1
  B  B23  1  0.50990900  0.49009100  0.29439700  1
  B  B24  1  0.02509700  0.97490300  0.32641400  1
  B  B25  1  0.47490300  0.52509700  0.82641400  1
  B  B26  1  0.97490300  0.02509700  0.67358600  1
  B  B27  1  0.52509700  0.47490300  0.17358600  1
  B  B28  1  0.14376100  0.85623900  0.36114000  1
  B  B29  1  0.35623900  0.64376100  0.86114000  1
  B  B30  1  0.85623900  0.14376100  0.63886000  1
  B  B31  1  0.64376100  0.35623900  0.13886000  1
  B  B32  1  0.06440300  0.33951100  0.15199500  1
  B  B33  1  0.43559700  0.16048900  0.65199500  1
  B  B34  1  0.33951100  0.06440300  0.84800500  1
  B  B35  1  0.16048900  0.43559700  0.34800500  1
  B  B36  1  0.93559700  0.66048900  0.84800500  1
  B  B37  1  0.56440300  0.83951100  0.34800500  1
  B  B38  1  0.66048900  0.93559700  0.15199500  1
  B  B39  1  0.83951100  0.56440300  0.65199500  1
  B  B40  1  0.44609200  0.13471200  0.35736500  1
  B  B41  1  0.05390800  0.36528800  0.85736500  1
  B  B42  1  0.13471200  0.44609200  0.64263500  1
  B  B43  1  0.36528800  0.05390800  0.14263500  1
  B  B44  1  0.55390800  0.86528800  0.64263500  1
  B  B45  1  0.94609200  0.63471200  0.14263500  1
  B  B46  1  0.86528800  0.55390800  0.35736500  1
  B  B47  1  0.63471200  0.94609200  0.85736500  1
loop_
_geom_bond_atom_site_label_1
_geom_bond_atom_site_label_2
_geom_bond_distance
_geom_bond_site_symmetry_2
Al0 B11 2.395818 1_555
Al0 B9 2.395818 1_445
Al0 Ni8 2.557813 1_455
Al0 Ni10 2.557813 1_544
Al0 Ni24 2.608435 1_555
Al0 Ni30 2.608435 1_445
Al0 Ni28 2.608435 1_444
Al0 Ni26 2.608435 1_554
Al0 Ni23 2.608763 1_444
Al0 Ni19 2.608763 1_555
Al0 Ni17 2.608763 1_554
Al0 Ni21 2.608763 1_445
Al0 Ni4 2.696267 1_545
Al0 Ni6 2.696267 1_454
Al1 B10 2.395818 1_555
Al1 B8 2.395818 1_555
Al1 Ni11 2.557813 1_555
Al1 Ni9 2.557813 1_555
Al1 Ni25 2.608435 1_555
Al1 Ni29 2.608435 1_555
Al1 Ni27 2.608435 1_555
Al1 Ni31 2.608435 1_555
Al1 Ni18 2.608763 1_555
Al1 Ni16 2.608763 1_555
Al1 Ni20 2.608763 1_555
Al1 Ni22 2.608763 1_555
Al1 Ni7 2.696267 1_555
Al1 Ni5 2.696267 1_555
Al2 Ni7 2.516315 1_555
Al2 B31 2.518260 1_555
Al2 Ni8 2.522052 1_555
Al2 Ni48 2.610834 1_655
Al2 Ni54 2.610834 1_545
Al2 Ni56 2.627147 1_555
Al2 Ni62 2.627147 1_555
Al2 Ni12 2.641745 1_655
Al2 Ni15 2.641745 1_545
Al2 Ni35 2.689081 1_555
Al2 Ni37 2.689081 1_555
Al2 Ni67 2.714263 1_555
Al2 Ni69 2.714263 1_555
Al3 Ni6 2.516315 1_555
Al3 B30 2.518260 1_555
Al3 Ni9 2.522052 1_555
Al3 Ni55 2.610834 1_555
Al3 Ni49 2.610834 1_555
Al3 Ni63 2.627147 1_555
Al3 Ni57 2.627147 1_555
Al3 Ni13 2.641745 1_555
Al3 Ni14 2.641745 1_555
Al3 Ni36 2.689081 1_545
Al3 Ni34 2.689081 1_655
Al3 Ni66 2.714263 1_555
Al3 Ni68 2.714263 1_555
Al4 Ni5 2.516315 1_555
Al4 B29 2.518260 1_555
Al4 Ni10 2.522052 1_555
Al4 Ni50 2.610834 1_565
Al4 Ni52 2.610834 1_455
Al4 Ni60 2.627147 1_555
Al4 Ni58 2.627147 1_555
Al4 Ni13 2.641745 1_565
Al4 Ni14 2.641745 1_455
Al4 Ni33 2.689081 1_555
Al4 Ni39 2.689081 1_555
Al4 Ni71 2.714263 1_555
Al4 Ni65 2.714263 1_555
Al5 Ni4 2.516315 1_555
Al5 B28 2.518260 1_555
Al5 Ni11 2.522052 1_555
Al5 Ni53 2.610834 1_555
Al5 Ni51 2.610834 1_555
Al5 Ni61 2.627147 1_555
Al5 Ni59 2.627147 1_555
Al5 Ni15 2.641745 1_555
Al5 Ni12 2.641745 1_555
Al5 Ni32 2.689081 1_565
Al5 Ni38 2.689081 1_455
Al5 Ni64 2.714263 1_555
Al5 Ni70 2.714263 1_555
B0 B4 1.774292 1_555
B0 B28 1.808116 1_555
B0 Ni2 2.009685 1_555
B0 Ni64 2.089069 1_555
B0 Ni70 2.089069 1_555
B0 Ni46 2.165625 1_455
B0 Ni40 2.165625 1_565
B0 Ni58 2.179040 1_555
B0 Ni60 2.179040 1_555
B1 B5 1.774292 1_555
B1 B29 1.808116 1_555
B1 Ni3 2.009685 1_556
B1 Ni71 2.089069 1_555
B1 Ni65 2.089069 1_555
B1 Ni47 2.165625 1_555
B1 Ni41 2.165625 1_555
B1 Ni61 2.179040 1_556
B1 Ni59 2.179040 1_556
B2 B6 1.774292 1_555
B2 B30 1.808116 1_555
B2 Ni0 2.009685 1_555
B2 Ni66 2.089069 1_555
B2 Ni68 2.089069 1_555
B2 Ni42 2.165625 1_655
B2 Ni44 2.165625 1_545
B2 Ni56 2.179040 1_555
B2 Ni62 2.179040 1_555
B3 B7 1.774292 1_555
B3 B31 1.808116 1_555
B3 Ni1 2.009685 1_554
B3 Ni67 2.089069 1_555
B3 Ni69 2.089069 1_555
B3 Ni45 2.165625 1_555
B3 Ni43 2.165625 1_555
B3 Ni63 2.179040 1_554
B3 Ni57 2.179040 1_554
B4 Ni18 2.053370 1_555
B4 Ni20 2.053370 1_555
B4 Ni5 2.095143 1_555
B4 Ni64 2.210073 1_555
B4 Ni70 2.210073 1_555
B4 Ni60 2.234251 1_555
B4 Ni58 2.234251 1_555
B4 Ni11 2.263351 1_555
B5 Ni19 2.053370 1_566
B5 Ni21 2.053370 1_456
B5 Ni4 2.095143 1_556
B5 Ni71 2.210073 1_555
B5 Ni65 2.210073 1_555
B5 Ni61 2.234251 1_556
B5 Ni59 2.234251 1_556
B5 Ni10 2.263351 1_555
B6 Ni16 2.053370 1_555
B6 Ni22 2.053370 1_555
B6 Ni7 2.095143 1_555
B6 Ni66 2.210073 1_555
B6 Ni68 2.210073 1_555
B6 Ni62 2.234251 1_555
B6 Ni56 2.234251 1_555
B6 Ni9 2.263351 1_555
B7 Ni17 2.053370 1_654
B7 Ni23 2.053370 1_544
B7 Ni6 2.095143 1_554
B7 Ni67 2.210073 1_555
B7 Ni69 2.210073 1_555
B7 Ni63 2.234251 1_554
B7 Ni57 2.234251 1_554
B7 Ni8 2.263351 1_555
B8 Ni20 2.024737 1_555
B8 Ni22 2.024737 1_555
B8 Ni29 2.029619 1_555
B8 Ni31 2.029619 1_555
B8 Ni46 2.040235 1_555
B8 Ni44 2.040235 1_555
B9 Ni21 2.024737 1_555
B9 Ni23 2.024737 1_554
B9 Ni30 2.029619 1_555
B9 Ni28 2.029619 1_554
B9 Ni47 2.040235 1_554
B9 Ni45 2.040235 1_555
B10 B12 1.798895 1_555
B10 B14 1.798895 1_555
B10 Ni16 2.024737 1_555
B10 Ni18 2.024737 1_555
B10 Ni27 2.029619 1_555
B10 Ni25 2.029619 1_555
B10 Ni40 2.040235 1_555
B10 Ni42 2.040235 1_555
B11 B15 1.798895 1_555
B11 B13 1.798895 1_554
B11 Ni17 2.024737 1_554
B11 Ni19 2.024737 1_555
B11 Ni24 2.029619 1_555
B11 Ni26 2.029619 1_554
B11 Ni43 2.040235 1_555
B11 Ni41 2.040235 1_554
B12 B35 1.800479 1_555
B12 Ni0 2.014819 1_455
B12 Ni27 2.078734 1_555
B12 Ni18 2.082602 1_555
B12 Ni56 2.147078 1_455
B12 Ni48 2.154644 1_555
B12 Ni40 2.194386 1_555
B12 Ni42 2.199701 1_555
B13 B34 1.800479 1_555
B13 Ni1 2.014819 1_555
B13 Ni26 2.078734 1_555
B13 Ni19 2.082602 1_556
B13 Ni57 2.147078 1_555
B13 Ni49 2.154644 1_555
B13 Ni41 2.194386 1_555
B13 Ni43 2.199701 1_556
B14 B33 1.800479 1_555
B14 Ni2 2.014819 1_545
B14 Ni25 2.078734 1_555
B14 Ni16 2.082602 1_555
B14 Ni58 2.147078 1_545
B14 Ni50 2.154644 1_555
B14 Ni42 2.194386 1_555
B14 Ni40 2.199701 1_555
B15 B32 1.800479 1_555
B15 Ni3 2.014819 1_555
B15 Ni24 2.078734 1_555
B15 Ni17 2.082602 1_554
B15 Ni59 2.147078 1_555
B15 Ni51 2.154644 1_555
B15 Ni43 2.194386 1_555
B15 Ni41 2.199701 1_554
B16 B8 1.798895 1_555
B16 B39 1.800479 1_555
B16 Ni2 2.014819 1_655
B16 Ni31 2.078734 1_555
B16 Ni22 2.082602 1_555
B16 Ni60 2.147078 1_655
B16 Ni52 2.154644 1_555
B16 Ni44 2.194386 1_555
B16 Ni46 2.199701 1_555
B17 B9 1.798895 1_555
B17 B38 1.800479 1_555
B17 Ni3 2.014819 1_555
B17 Ni30 2.078734 1_555
B17 Ni23 2.082602 1_554
B17 Ni61 2.147078 1_555
B17 Ni53 2.154644 1_555
B17 Ni45 2.194386 1_555
B17 Ni47 2.199701 1_554
B18 B8 1.798895 1_555
B18 B37 1.800479 1_555
B18 Ni0 2.014819 1_565
B18 Ni29 2.078734 1_555
B18 Ni20 2.082602 1_555
B18 Ni62 2.147078 1_565
B18 Ni54 2.154644 1_555
B18 Ni46 2.194386 1_555
B18 Ni44 2.199701 1_555
B19 B9 1.798895 1_556
B19 B36 1.800479 1_555
B19 Ni1 2.014819 1_555
B19 Ni28 2.078734 1_555
B19 Ni21 2.082602 1_556
B19 Ni63 2.147078 1_555
B19 Ni55 2.154644 1_555
B19 Ni47 2.194386 1_555
B19 Ni45 2.199701 1_556
B20 B24 1.772484 1_555
B20 Ni24 2.058507 1_565
B20 Ni30 2.058507 1_455
B20 Ni8 2.148212 1_465
B20 Ni4 2.186100 1_555
B20 Ni48 2.198688 1_565
B20 Ni54 2.198688 1_455
B20 Ni32 2.247004 1_565
B20 Ni38 2.247004 1_455
B21 B25 1.772484 1_555
B21 Ni25 2.058507 1_555
B21 Ni31 2.058507 1_555
B21 Ni9 2.148212 1_555
B21 Ni5 2.186100 1_555
B21 Ni55 2.198688 1_555
B21 Ni49 2.198688 1_555
B21 Ni39 2.247004 1_555
B21 Ni33 2.247004 1_555
B22 B26 1.772484 1_555
B22 Ni26 2.058507 1_655
B22 Ni28 2.058507 1_545
B22 Ni10 2.148212 1_645
B22 Ni6 2.186100 1_555
B22 Ni52 2.198688 1_545
B22 Ni50 2.198688 1_655
B22 Ni34 2.247004 1_655
B22 Ni36 2.247004 1_545
B23 B27 1.772484 1_555
B23 Ni27 2.058507 1_555
B23 Ni29 2.058507 1_555
B23 Ni11 2.148212 1_555
B23 Ni7 2.186100 1_555
B23 Ni53 2.198688 1_555
B23 Ni51 2.198688 1_555
B23 Ni37 2.247004 1_555
B23 Ni35 2.247004 1_555
B24 B28 1.794322 1_555
B24 Ni0 2.006823 1_465
B24 Ni38 2.087876 1_455
B24 Ni32 2.087876 1_565
B24 Ni48 2.181390 1_565
B24 Ni54 2.181390 1_455
B24 Ni46 2.192110 1_455
B24 Ni40 2.192110 1_565
B25 B29 1.794322 1_555
B25 Ni1 2.006823 1_555
B25 Ni39 2.087876 1_555
B25 Ni33 2.087876 1_555
B25 Ni55 2.181390 1_555
B25 Ni49 2.181390 1_555
B25 Ni47 2.192110 1_555
B25 Ni41 2.192110 1_555
B26 B30 1.794322 1_555
B26 Ni2 2.006823 1_645
B26 Ni36 2.087876 1_545
B26 Ni34 2.087876 1_655
B26 Ni50 2.181390 1_655
B26 Ni52 2.181390 1_545
B26 Ni44 2.192110 1_545
B26 Ni42 2.192110 1_655
B27 B31 1.794322 1_555
B27 Ni3 2.006823 1_555
B27 Ni37 2.087876 1_555
B27 Ni35 2.087876 1_555
B27 Ni53 2.181390 1_555
B27 Ni51 2.181390 1_555
B27 Ni45 2.192110 1_555
B27 Ni43 2.192110 1_555
B28 Ni64 2.015115 1_555
B28 Ni70 2.015115 1_555
B28 Ni38 2.020767 1_455
B28 Ni32 2.020767 1_565
B28 Ni46 2.051873 1_455
B28 Ni40 2.051873 1_565
B29 Ni65 2.015115 1_555
B29 Ni71 2.015115 1_555
B29 Ni33 2.020767 1_555
B29 Ni39 2.020767 1_555
B29 Ni47 2.051873 1_555
B29 Ni41 2.051873 1_555
B30 Ni66 2.015115 1_555
B30 Ni68 2.015115 1_555
B30 Ni36 2.020767 1_545
B30 Ni34 2.020767 1_655
B30 Ni44 2.051873 1_545
B30 Ni42 2.051873 1_655
B31 Ni67 2.015115 1_555
B31 Ni69 2.015115 1_555
B31 Ni35 2.020767 1_555
B31 Ni37 2.020767 1_555
B31 Ni43 2.051873 1_555
B31 Ni45 2.051873 1_555
B32 Ni12 2.073420 1_555
B32 Ni69 2.081356 1_455
B32 Ni48 2.164916 1_555
B32 Ni8 2.171683 1_455
B32 Ni24 2.175729 1_555
B32 Ni51 2.179865 1_555
B32 Ni17 2.275811 1_554
B32 Ni59 2.279167 1_555
B33 Ni13 2.073420 1_555
B33 Ni68 2.081356 1_555
B33 Ni49 2.164916 1_555
B33 Ni9 2.171683 1_555
B33 Ni25 2.175729 1_555
B33 Ni50 2.179865 1_555
B33 Ni16 2.275811 1_555
B33 Ni58 2.279167 1_545
B34 Ni13 2.073420 1_555
B34 Ni71 2.081356 1_545
B34 Ni50 2.164916 1_555
B34 Ni10 2.171683 1_545
B34 Ni26 2.175729 1_555
B34 Ni49 2.179865 1_555
B34 Ni19 2.275811 1_556
B34 Ni57 2.279167 1_555
B35 Ni12 2.073420 1_555
B35 Ni70 2.081356 1_555
B35 Ni51 2.164916 1_555
B35 Ni11 2.171683 1_555
B35 Ni27 2.175729 1_555
B35 Ni48 2.179865 1_555
B35 Ni18 2.275811 1_555
B35 Ni56 2.279167 1_455
B36 Ni14 2.073420 1_555
B36 Ni65 2.081356 1_655
B36 Ni52 2.164916 1_555
B36 Ni10 2.171683 1_655
B36 Ni28 2.175729 1_555
B36 Ni55 2.179865 1_555
B36 Ni21 2.275811 1_556
B36 Ni63 2.279167 1_555
B37 Ni15 2.073420 1_555
B37 Ni64 2.081356 1_555
B37 Ni53 2.164916 1_555
B37 Ni11 2.171683 1_555
B37 Ni29 2.175729 1_555
B37 Ni54 2.179865 1_555
B37 Ni20 2.275811 1_555
B37 Ni62 2.279167 1_565
B38 Ni15 2.073420 1_555
B38 Ni67 2.081356 1_565
B38 Ni54 2.164916 1_555
B38 Ni8 2.171683 1_565
B38 Ni30 2.175729 1_555
B38 Ni53 2.179865 1_555
B38 Ni23 2.275811 1_554
B38 Ni61 2.279167 1_555
B39 Ni14 2.073420 1_555
B39 Ni66 2.081356 1_555
B39 Ni55 2.164916 1_555
B39 Ni9 2.171683 1_555
B39 Ni31 2.175729 1_555
B39 Ni52 2.179865 1_555
B39 Ni22 2.275811 1_555
B39 Ni60 2.279167 1_655
B40 Ni35 2.080314 1_555
B40 Ni64 2.111635 1_545
B40 Ni16 2.119741 1_555
B40 Ni62 2.175549 1_555
B40 Ni27 2.183573 1_555
B40 Ni32 2.189417 1_555
B40 Ni7 2.241963 1_555
B40 Ni15 2.265145 1_545
B40 Ni40 2.367209 1_555
B41 Ni34 2.080314 1_555
B41 Ni65 2.111635 1_555
B41 Ni17 2.119741 1_555
B41 Ni63 2.175549 1_455
B41 Ni26 2.183573 1_555
B41 Ni33 2.189417 1_555
B41 Ni6 2.241963 1_455
B41 Ni14 2.265145 1_455
B41 Ni41 2.367209 1_555
B42 Ni33 2.080314 1_555
B42 Ni66 2.111635 1_455
B42 Ni18 2.119741 1_555
B42 Ni60 2.175549 1_555
B42 Ni25 2.183573 1_555
B42 Ni34 2.189417 1_555
B42 Ni5 2.241963 1_555
B42 Ni14 2.265145 1_455
B42 Ni42 2.367209 1_555
B43 Ni32 2.080314 1_555
B43 Ni67 2.111635 1_555
B43 Ni19 2.119741 1_555
B43 Ni61 2.175549 1_545
B43 Ni24 2.183573 1_555
B43 Ni35 2.189417 1_555
B43 Ni4 2.241963 1_545
B43 Ni15 2.265145 1_545
B43 Ni43 2.367209 1_555
B44 Ni39 2.080314 1_555
B44 Ni68 2.111635 1_565
B44 Ni20 2.119741 1_555
B44 Ni58 2.175549 1_555
B44 Ni31 2.183573 1_555
B44 Ni36 2.189417 1_555
B44 Ni5 2.241963 1_555
B44 Ni13 2.265145 1_565
B44 Ni44 2.367209 1_555
B45 Ni38 2.080314 1_555
B45 Ni69 2.111635 1_555
B45 Ni21 2.119741 1_555
B45 Ni59 2.175549 1_655
B45 Ni30 2.183573 1_555
B45 Ni37 2.189417 1_555
B45 Ni4 2.241963 1_655
B45 Ni12 2.265145 1_655
B45 Ni45 2.367209 1_555
B46 Ni37 2.080314 1_555
B46 Ni70 2.111635 1_655
B46 Ni22 2.119741 1_555
B46 Ni56 2.175549 1_555
B46 Ni29 2.183573 1_555
B46 Ni38 2.189417 1_555
B46 Ni7 2.241963 1_555
B46 Ni12 2.265145 1_655
B46 Ni46 2.367209 1_555
B47 Ni36 2.080314 1_555
B47 Ni71 2.111635 1_555
B47 Ni23 2.119741 1_555
B47 Ni57 2.175549 1_565
B47 Ni28 2.183573 1_555
B47 Ni39 2.189417 1_555
B47 Ni6 2.241963 1_565
B47 Ni13 2.265145 1_565
B47 Ni47 2.367209 1_555
