# generated using pymatgen
data_Li3Co2OF5
_symmetry_space_group_name_H-M   'P 1'
_cell_length_a   9.82595819
_cell_length_b   9.36945638
_cell_length_c   5.16897678
_cell_angle_alpha   79.31702118
_cell_angle_beta   69.55605756
_cell_angle_gamma   31.12692127
_symmetry_Int_Tables_number   1
_chemical_formula_structural   Li3Co2OF5
_chemical_formula_sum   'Li6 Co4 O2 F10'
_cell_volume   224.07103341
_cell_formula_units_Z   2
loop_
 _symmetry_equiv_pos_site_id
 _symmetry_equiv_pos_as_xyz
  1  'x, y, z'
loop_
 _atom_site_type_symbol
 _atom_site_label
 _atom_site_symmetry_multiplicity
 _atom_site_fract_x
 _atom_site_fract_y
 _atom_site_fract_z
 _atom_site_occupancy
  Li  Li0  1  0.25000000  0.25000000  0.25000000  1
  Li  Li1  1  0.66794900  0.66794900  0.33205100  1
  Li  Li2  1  0.00000000  0.00000000  0.00000000  1
  Li  Li3  1  0.57313300  0.57313300  0.92686700  1
  Li  Li4  1  0.92686700  0.92686700  0.57313300  1
  Li  Li5  1  0.33205100  0.33205100  0.66794900  1
  Co  Co0  1  0.75000000  0.75000000  0.75000000  1
  Co  Co1  1  0.50000000  0.50000000  0.50000000  1
  Co  Co2  1  0.17388100  0.17388100  0.82611900  1
  Co  Co3  1  0.82611900  0.82611900  0.17388100  1
  O  O0  1  0.50979500  0.99020500  0.50979500  1
  O  O1  1  0.99020500  0.50979500  0.99020500  1
  F  F0  1  0.91563300  0.41862000  0.57786200  1
  F  F1  1  0.26454700  0.73545300  0.26454700  1
  F  F2  1  0.81847800  0.34457100  0.14270400  1
  F  F3  1  0.41862000  0.91563300  0.08788500  1
  F  F4  1  0.34457100  0.81847800  0.69424700  1
  F  F5  1  0.73545300  0.26454700  0.73545300  1
  F  F6  1  0.14270400  0.69424700  0.81847800  1
  F  F7  1  0.57786200  0.08788500  0.91563300  1
  F  F8  1  0.69424700  0.14270400  0.34457100  1
  F  F9  1  0.08788500  0.57786200  0.41862000  1
loop_
_geom_bond_atom_site_label_1
_geom_bond_atom_site_label_2
_geom_bond_distance
_geom_bond_site_symmetry_2
Li0 O0 2.188488 1_545
Li0 O1 2.188488 1_454
Li1 O0 2.091301 1_555
Li1 O1 2.091301 1_554
Li5 O1 2.091301 1_455
Li5 O0 2.091301 1_545
Co0 O0 2.023463 1_555
Co0 O1 2.023463 1_555
Co0 F7 2.107590 1_565
Co0 F0 2.107590 1_555
Co0 F3 2.107590 1_556
Co0 F9 2.107590 1_655
Co1 F1 1.983433 1_555
Co1 F5 1.983433 1_555
Co1 F4 2.117076 1_555
Co1 F8 2.117076 1_555
Co1 F2 2.117076 1_555
Co1 F6 2.117076 1_555
Co2 O1 2.019347 1_455
Co2 O0 2.019347 1_545
Co2 F0 2.136768 1_455
Co2 F3 2.136768 1_546
Co2 F2 2.201650 1_456
Co2 F4 2.201650 1_545
Co3 O0 2.019347 1_555
Co3 O1 2.019347 1_554
Co3 F9 2.136768 1_655
Co3 F7 2.136768 1_564
Co3 F8 2.201650 1_565
Co3 F6 2.201650 1_654
F0 Li1 2.078655 1_555
F0 Li0 2.092551 1_655
F0 Li3 2.249873 1_555
F1 Li3 1.986324 1_554
F1 Li4 1.986324 1_455
F1 Li2 2.228518 1_565
F2 Li3 1.948555 1_554
F2 Li2 2.062407 1_655
F2 Li1 2.177483 1_555
F3 Li1 2.078655 1_555
F3 Li0 2.092551 1_565
F3 Li3 2.249873 1_554
F4 Li3 1.948555 1_555
F4 Li2 2.062407 1_566
F4 Li1 2.177483 1_555
F5 Li4 1.986324 1_545
F5 Li3 1.986324 1_555
F5 Li2 2.228518 1_656
F6 Li4 1.948555 1_455
F6 Li2 2.062407 1_566
F6 Li5 2.177483 1_555
F7 Li5 2.078655 1_555
F7 Li0 2.092551 1_556
F7 Li4 2.249873 1_545
F8 Li4 1.948555 1_545
F8 Li2 2.062407 1_655
F8 Li5 2.177483 1_555
F9 Li5 2.078655 1_555
F9 Li0 2.092551 1_555
F9 Li4 2.249873 1_455
