# generated using pymatgen
data_NaMgSO4F
_symmetry_space_group_name_H-M   'P 1'
_cell_length_a   5.49019217
_cell_length_b   5.49019217
_cell_length_c   7.18657793
_cell_angle_alpha   75.50768802
_cell_angle_beta   75.50768802
_cell_angle_gamma   103.83533870
_symmetry_Int_Tables_number   1
_chemical_formula_structural   NaMgSO4F
_chemical_formula_sum   'Na2 Mg2 S2 O8 F2'
_cell_volume   192.24452155
_cell_formula_units_Z   2
loop_
 _symmetry_equiv_pos_site_id
 _symmetry_equiv_pos_as_xyz
  1  'x, y, z'
loop_
 _atom_site_type_symbol
 _atom_site_label
 _atom_site_symmetry_multiplicity
 _atom_site_fract_x
 _atom_site_fract_y
 _atom_site_fract_z
 _atom_site_occupancy
  Na  Na0  1  0.33075100  0.66924900  0.25000000  1
  Na  Na1  1  0.66924900  0.33075100  0.75000000  1
  Mg  Mg0  1  0.00000000  0.00000000  0.00000000  1
  Mg  Mg1  1  0.00000000  0.00000000  0.50000000  1
  S  S0  1  0.67844300  0.32155700  0.25000000  1
  S  S1  1  0.32155700  0.67844300  0.75000000  1
  O  O0  1  0.68307900  0.12837300  0.13591400  1
  O  O1  1  0.87162700  0.31692100  0.36408600  1
  O  O2  1  0.31692100  0.87162700  0.86408600  1
  O  O3  1  0.12837300  0.68307900  0.63591400  1
  O  O4  1  0.74539800  0.59321300  0.10438500  1
  O  O5  1  0.40678700  0.25460200  0.39561500  1
  O  O6  1  0.25460200  0.40678700  0.89561500  1
  O  O7  1  0.59321300  0.74539800  0.60438500  1
  F  F0  1  0.07782500  0.92217500  0.25000000  1
  F  F1  1  0.92217500  0.07782500  0.75000000  1
loop_
_geom_bond_atom_site_label_1
_geom_bond_atom_site_label_2
_geom_bond_distance
_geom_bond_site_symmetry_2
Na0 O5 2.435694 1_555
Na0 O4 2.435694 1_555
Na0 O1 2.570534 1_455
Na0 O0 2.570534 1_565
Na0 O3 2.745086 1_555
Na0 O2 2.745086 1_554
Na1 O6 2.435694 1_555
Na1 O7 2.435694 1_555
Na1 O2 2.570534 1_545
Na1 O3 2.570534 1_655
Na1 O0 2.745086 1_556
Na1 O1 2.745086 1_555
Mg0 O0 2.135106 1_455
Mg0 O2 2.135106 1_544
Mg0 O6 2.155932 1_554
Mg0 O4 2.155932 1_445
Mg1 O3 2.135106 1_545
Mg1 O1 2.135106 1_455
Mg1 O5 2.155932 1_555
Mg1 O7 2.155932 1_445
O0 S0 1.495148 1_555
O1 S0 1.495148 1_555
O2 S1 1.495148 1_555
O3 S1 1.495148 1_555
O4 S0 1.489543 1_555
O5 S0 1.489543 1_555
O6 S1 1.489543 1_555
O7 S1 1.489543 1_555
F0 Mg0 1.918429 1_565
F0 Mg1 1.918429 1_565
F0 Na0 2.186024 1_555
F1 Mg1 1.918429 1_655
F1 Mg0 1.918429 1_656
F1 Na1 2.186024 1_555
