# generated using pymatgen
data_LiNi(PO3)3
_symmetry_space_group_name_H-M   'P 1'
_cell_length_a   5.27134500
_cell_length_b   10.68633500
_cell_length_c   11.78919700
_cell_angle_alpha   90.00000000
_cell_angle_beta   90.00000000
_cell_angle_gamma   90.00000000
_symmetry_Int_Tables_number   1
_chemical_formula_structural   LiNi(PO3)3
_chemical_formula_sum   'Li4 Ni4 P12 O36'
_cell_volume   664.10148347
_cell_formula_units_Z   4
loop_
 _symmetry_equiv_pos_site_id
 _symmetry_equiv_pos_as_xyz
  1  'x, y, z'
loop_
 _atom_site_type_symbol
 _atom_site_label
 _atom_site_symmetry_multiplicity
 _atom_site_fract_x
 _atom_site_fract_y
 _atom_site_fract_z
 _atom_site_occupancy
  Li  Li0  1  0.10086800  0.11591200  0.08144700  1
  Li  Li1  1  0.60086800  0.38408800  0.91855300  1
  Li  Li2  1  0.89913200  0.61591200  0.41855300  1
  Li  Li3  1  0.39913200  0.88408800  0.58144700  1
  Ni  Ni0  1  0.59697300  0.03441600  0.86783500  1
  Ni  Ni1  1  0.09697300  0.46558400  0.13216500  1
  Ni  Ni2  1  0.40302700  0.53441600  0.63216500  1
  Ni  Ni3  1  0.90302700  0.96558400  0.36783500  1
  P  P0  1  0.87510300  0.07477600  0.62275300  1
  P  P1  1  0.39078300  0.15051800  0.36059600  1
  P  P2  1  0.08263900  0.19036400  0.82070700  1
  P  P3  1  0.58263900  0.30963600  0.17929300  1
  P  P4  1  0.89078300  0.34948200  0.63940400  1
  P  P5  1  0.37510300  0.42522400  0.37724700  1
  P  P6  1  0.12489700  0.57477600  0.87724700  1
  P  P7  1  0.60921700  0.65051800  0.13940400  1
  P  P8  1  0.91736100  0.69036400  0.67929300  1
  P  P9  1  0.41736100  0.80963600  0.32070700  1
  P  P10  1  0.10921700  0.84948200  0.86059600  1
  P  P11  1  0.62489700  0.92522400  0.12275300  1
  O  O0  1  0.50677100  0.01198400  0.03703400  1
  O  O1  1  0.62994900  0.03898600  0.67978600  1
  O  O2  1  0.54929900  0.06020500  0.42727400  1
  O  O3  1  0.08934000  0.08778500  0.72080800  1
  O  O4  1  0.12874400  0.11448700  0.32298100  1
  O  O5  1  0.84272100  0.18334900  0.89086900  1
  O  O6  1  0.33178000  0.18242100  0.88125300  1
  O  O7  1  0.56772500  0.18253400  0.25110200  1
  O  O8  1  0.87383400  0.21636400  0.57348200  1
  O  O9  1  0.37383400  0.28363600  0.42651800  1
  O  O10  1  0.06772500  0.31746600  0.74889800  1
  O  O11  1  0.83178000  0.31757900  0.11874700  1
  O  O12  1  0.34272100  0.31665100  0.10913100  1
  O  O13  1  0.62874400  0.38551400  0.67701900  1
  O  O14  1  0.58934000  0.41221500  0.27919200  1
  O  O15  1  0.04929900  0.43979500  0.57272600  1
  O  O16  1  0.12994900  0.46101400  0.32021400  1
  O  O17  1  0.00677100  0.48801600  0.96296600  1
  O  O18  1  0.49322900  0.51198400  0.46296600  1
  O  O19  1  0.37005100  0.53898600  0.82021400  1
  O  O20  1  0.45070100  0.56020500  0.07272600  1
  O  O21  1  0.91066000  0.58778500  0.77919200  1
  O  O22  1  0.87125600  0.61448700  0.17701900  1
  O  O23  1  0.15727900  0.68334900  0.60913100  1
  O  O24  1  0.66822000  0.68242100  0.61874700  1
  O  O25  1  0.43227500  0.68253400  0.24889800  1
  O  O26  1  0.12616600  0.71636400  0.92651800  1
  O  O27  1  0.62616600  0.78363600  0.07348200  1
  O  O28  1  0.93227500  0.81746600  0.75110200  1
  O  O29  1  0.16822000  0.81757900  0.38125300  1
  O  O30  1  0.65727900  0.81665100  0.39086900  1
  O  O31  1  0.37125600  0.88551300  0.82298100  1
  O  O32  1  0.41066000  0.91221500  0.22080800  1
  O  O33  1  0.95070100  0.93979500  0.92727400  1
  O  O34  1  0.87005100  0.96101400  0.17978600  1
  O  O35  1  0.99322900  0.98801600  0.53703400  1
loop_
_geom_bond_atom_site_label_1
_geom_bond_atom_site_label_2
_geom_bond_distance
_geom_bond_site_symmetry_2
Li0 O34 2.358909 1_445
Li0 O0 2.466926 1_555
Li0 O12 2.516663 1_555
Li0 O11 2.617205 1_455
Li1 O19 2.358909 1_555
Li1 O17 2.466926 1_655
Li1 O5 2.516663 1_555
Li1 O6 2.617205 1_555
Li2 O16 2.358909 1_655
Li2 O18 2.466926 1_555
Li2 O30 2.516663 1_555
Li2 O29 2.617205 1_655
Li3 O1 2.358909 1_565
Li3 O35 2.466926 1_455
Li3 O23 2.516663 1_555
Li3 O24 2.617205 1_555
Ni0 O31 2.056046 1_545
Ni0 O0 2.064573 1_556
Ni0 O5 2.069996 1_555
Ni0 O6 2.116783 1_555
Ni0 O1 2.224287 1_555
Ni0 O33 2.233893 1_545
Ni1 O22 2.056046 1_455
Ni1 O17 2.064573 1_554
Ni1 O12 2.069996 1_555
Ni1 O11 2.116783 1_455
Ni1 O16 2.224287 1_555
Ni1 O20 2.233893 1_555
Ni2 O13 2.056038 1_555
Ni2 O18 2.064573 1_555
Ni2 O23 2.069996 1_555
Ni2 O24 2.116783 1_555
Ni2 O19 2.224287 1_555
Ni2 O15 2.233893 1_555
Ni3 O4 2.056046 1_665
Ni3 O35 2.064573 1_555
Ni3 O30 2.069996 1_555
Ni3 O29 2.116783 1_655
Ni3 O34 2.224287 1_555
Ni3 O2 2.233893 1_565
O0 P11 1.506175 1_545
O1 P0 1.506115 1_555
O2 P1 1.499194 1_555
O3 P2 1.609327 1_555
O3 P0 1.622034 1_455
O4 P1 1.500962 1_555
O5 P2 1.513025 1_655
O6 P2 1.497156 1_555
O7 P3 1.602410 1_555
O7 P1 1.628899 1_555
O8 P0 1.620738 1_555
O8 P4 1.623454 1_555
O9 P5 1.620738 1_555
O9 P1 1.623454 1_555
O10 P2 1.602410 1_555
O10 P4 1.628899 1_455
O11 P3 1.497156 1_555
O12 P3 1.513025 1_555
O13 P4 1.500965 1_555
O14 P3 1.609327 1_555
O14 P5 1.622034 1_555
O15 P4 1.499194 1_455
O16 P5 1.506115 1_555
O17 P6 1.506175 1_555
O18 P5 1.506175 1_555
O19 P6 1.506115 1_555
O20 P7 1.499194 1_555
O21 P8 1.609327 1_555
O21 P6 1.622034 1_655
O22 P7 1.500962 1_555
O23 P8 1.513025 1_455
O24 P8 1.497156 1_555
O25 P9 1.602410 1_555
O25 P7 1.628899 1_555
O26 P6 1.620738 1_555
O26 P10 1.623454 1_555
O27 P11 1.620738 1_555
O27 P7 1.623454 1_555
O28 P8 1.602410 1_555
O28 P10 1.628899 1_655
O29 P9 1.497156 1_555
O30 P9 1.513025 1_555
O31 P10 1.500962 1_555
O32 P9 1.609327 1_555
O32 P11 1.622034 1_555
O33 P10 1.499194 1_655
O34 P11 1.506115 1_555
O35 P0 1.506175 1_565
