# generated using pymatgen
data_Y6Cu11O24
_symmetry_space_group_name_H-M   'P 1'
_cell_length_a   6.26429953
_cell_length_b   8.07869656
_cell_length_c   9.92158166
_cell_angle_alpha   114.10564973
_cell_angle_beta   98.25899175
_cell_angle_gamma   88.97791777
_symmetry_Int_Tables_number   1
_chemical_formula_structural   Y6Cu11O24
_chemical_formula_sum   'Y6 Cu11 O24'
_cell_volume   453.10170690
_cell_formula_units_Z   1
loop_
 _symmetry_equiv_pos_site_id
 _symmetry_equiv_pos_as_xyz
  1  'x, y, z'
loop_
 _atom_site_type_symbol
 _atom_site_label
 _atom_site_symmetry_multiplicity
 _atom_site_fract_x
 _atom_site_fract_y
 _atom_site_fract_z
 _atom_site_occupancy
  Y  Y0  1  0.57531184  0.20911413  0.67080993  1
  Y  Y1  1  0.42468816  0.79088587  0.32919007  1
  Y  Y2  1  0.92654640  0.53493925  0.32327064  1
  Y  Y3  1  0.75306746  0.12969850  -0.00048813  1
  Y  Y4  1  0.24693254  0.87030150  0.00048813  1
  Y  Y5  1  0.07345360  0.46506075  0.67672936  1
  Cu  Cu0  1  0.15768642  0.17787245  0.84042663  1
  Cu  Cu1  1  0.33727754  0.82900543  0.66566385  1
  Cu  Cu2  1  -0.00000000  0.00000000  0.50000000  1
  Cu  Cu3  1  0.50000000  0.50000000  0.00000000  1
  Cu  Cu4  1  0.33010032  0.32976920  0.16581134  1
  Cu  Cu5  1  0.83900640  0.83257936  0.66240163  1
  Cu  Cu6  1  0.16099360  0.16742064  0.33759837  1
  Cu  Cu7  1  0.66989968  0.67023080  0.83418866  1
  Cu  Cu8  1  0.50000000  0.50000000  0.50000000  1
  Cu  Cu9  1  0.66272246  0.17099457  0.33433615  1
  Cu  Cu10  1  0.84231358  0.82212755  0.15957337  1
  O  O0  1  0.31162213  0.36226182  0.82760473  1
  O  O1  1  0.29984481  0.65626230  0.08728419  1
  O  O2  1  0.96507694  0.18596131  0.68300582  1
  O  O3  1  0.03492306  0.81403869  0.31699418  1
  O  O4  1  0.70015519  0.34373770  0.91271581  1
  O  O5  1  0.29301725  0.97540723  0.55691326  1
  O  O6  1  0.70698275  0.02459277  0.44308674  1
  O  O7  1  0.68837787  0.63773818  0.17239527  1
  O  O8  1  0.04072052  0.32640665  0.11851601  1
  O  O9  1  0.01196907  0.98340555  0.84079937  1
  O  O10  1  0.30368006  0.52208118  0.34250358  1
  O  O11  1  0.60914318  0.96044409  0.74417810  1
  O  O12  1  0.06482847  0.69790713  0.58211073  1
  O  O13  1  0.36053046  0.14649533  0.98468602  1
  O  O14  1  0.66737021  0.68667513  0.48584388  1
  O  O15  1  0.62512350  0.31413024  0.22172848  1
  O  O16  1  0.98803093  0.01659445  0.15920063  1
  O  O17  1  0.95927948  0.67359335  0.88148399  1
  O  O18  1  0.37487650  0.68586976  0.77827152  1
  O  O19  1  0.93517153  0.30209287  0.41788927  1
  O  O20  1  0.63946954  0.85350467  0.01531398  1
  O  O21  1  0.69631994  0.47791882  0.65749642  1
  O  O22  1  0.39085682  0.03955591  0.25582190  1
  O  O23  1  0.33262979  0.31332487  0.51415612  1
loop_
_geom_bond_atom_site_label_1
_geom_bond_atom_site_label_2
_geom_bond_distance
_geom_bond_site_symmetry_2
Cu0 O9 1.832564 1_545
Cu0 O0 1.845622 1_555
Cu0 O2 1.854356 1_455
Cu0 O13 1.868101 1_555
Cu1 O5 1.893328 1_555
Cu1 O18 1.900221 1_555
Cu1 O11 1.908516 1_555
Cu1 O12 1.913789 1_555
Cu2 O2 1.864367 1_455
Cu2 O3 1.864367 1_545
Cu2 O6 1.873076 1_455
Cu2 O5 1.873076 1_545
Cu3 O1 1.810573 1_555
Cu3 O4 1.810573 1_554
Cu3 O0 1.862420 1_554
Cu3 O7 1.862420 1_555
Cu4 O8 1.803884 1_555
Cu4 O10 1.834072 1_555
Cu4 O13 1.836543 1_554
Cu4 O15 1.869126 1_555
Cu5 O12 1.838565 1_655
Cu5 O11 1.843020 1_555
Cu5 O14 1.852418 1_555
Cu5 O9 1.877753 1_655
Cu6 O19 1.838565 1_455
Cu6 O22 1.843020 1_555
Cu6 O23 1.852418 1_555
Cu6 O16 1.877753 1_455
Cu7 O17 1.803884 1_555
Cu7 O21 1.834072 1_555
Cu7 O20 1.836543 1_556
Cu7 O18 1.869126 1_555
Cu8 O21 1.911485 1_555
Cu8 O10 1.911485 1_555
Cu8 O14 1.914435 1_555
Cu8 O23 1.914435 1_555
Cu9 O6 1.893328 1_555
Cu9 O15 1.900221 1_555
Cu9 O22 1.908516 1_555
Cu9 O19 1.913789 1_555
Cu10 O16 1.832564 1_565
Cu10 O7 1.845622 1_555
Cu10 O3 1.854356 1_655
Cu10 O20 1.868101 1_555
O0 Y5 2.342232 1_555
O0 Y0 2.402606 1_555
O1 Y1 2.216702 1_555
O1 Y4 2.226055 1_555
O2 Y5 2.393779 1_655
O2 Y0 2.434826 1_555
O3 Y2 2.393779 1_455
O3 Y1 2.434826 1_555
O4 Y0 2.216702 1_555
O4 Y3 2.226055 1_556
O5 Y1 2.397429 1_555
O5 Y0 2.402308 1_565
O6 Y0 2.397429 1_555
O6 Y1 2.402308 1_545
O7 Y2 2.342232 1_555
O7 Y1 2.402606 1_555
O8 Y2 2.248445 1_455
O8 Y3 2.263786 1_455
O9 Y3 2.377375 1_466
O9 Y4 2.444613 1_556
O10 Y2 2.346578 1_455
O10 Y1 2.372693 1_555
O11 Y3 2.378762 1_566
O11 Y0 2.396997 1_565
O12 Y2 2.391368 1_455
O12 Y5 2.418055 1_555
O13 Y4 2.425708 1_546
O13 Y3 2.446848 1_556
O14 Y1 2.404150 1_555
O14 Y2 2.409684 1_555
O15 Y3 2.346274 1_555
O15 Y2 2.422408 1_555
O16 Y4 2.377375 1_645
O16 Y3 2.444613 1_555
O17 Y5 2.248445 1_655
O17 Y4 2.263786 1_656
O18 Y4 2.346274 1_556
O18 Y5 2.422408 1_555
O19 Y5 2.391368 1_655
O19 Y2 2.418055 1_555
O20 Y3 2.425708 1_565
O20 Y4 2.446848 1_555
O21 Y5 2.346578 1_655
O21 Y0 2.372693 1_555
O22 Y4 2.378762 1_545
O22 Y1 2.396997 1_545
O23 Y0 2.404150 1_555
O23 Y5 2.409684 1_555
