# generated using pymatgen
data_Li3P3(WO6)2
_symmetry_space_group_name_H-M   'P 1'
_cell_length_a   9.07726300
_cell_length_b   8.86645500
_cell_length_c   15.39930781
_cell_angle_alpha   55.08531118
_cell_angle_beta   90.00000000
_cell_angle_gamma   90.00000000
_symmetry_Int_Tables_number   1
_chemical_formula_structural   Li3P3(WO6)2
_chemical_formula_sum   'Li12 P12 W8 O48'
_cell_volume   1016.30186555
_cell_formula_units_Z   4
loop_
 _symmetry_equiv_pos_site_id
 _symmetry_equiv_pos_as_xyz
  1  'x, y, z'
loop_
 _atom_site_type_symbol
 _atom_site_label
 _atom_site_symmetry_multiplicity
 _atom_site_fract_x
 _atom_site_fract_y
 _atom_site_fract_z
 _atom_site_occupancy
  Li  Li0  1  0.07104100  0.23400400  0.70521300  1
  Li  Li1  1  0.77545600  0.61119000  0.17827400  1
  Li  Li2  1  0.72914900  0.97521200  0.82244300  1
  Li  Li3  1  0.22914900  0.02478800  0.67755700  1
  Li  Li4  1  0.27545600  0.38881000  0.32172600  1
  Li  Li5  1  0.57104100  0.76599600  0.79478700  1
  Li  Li6  1  0.42895900  0.23400400  0.20521300  1
  Li  Li7  1  0.72454400  0.61119000  0.67827400  1
  Li  Li8  1  0.77085100  0.97521200  0.32244300  1
  Li  Li9  1  0.27085100  0.02478800  0.17755700  1
  Li  Li10  1  0.22454400  0.38881000  0.82172600  1
  Li  Li11  1  0.92895900  0.76599600  0.29478700  1
  P  P0  1  0.24517600  0.45091100  0.50054100  1
  P  P1  1  0.39209400  0.04348700  0.84977700  1
  P  P2  1  0.10235700  0.74286200  0.14912600  1
  P  P3  1  0.60235700  0.25713800  0.35087400  1
  P  P4  1  0.89209400  0.95651300  0.65022300  1
  P  P5  1  0.74517600  0.54908900  0.99945900  1
  P  P6  1  0.25482400  0.45091100  0.00054100  1
  P  P7  1  0.10790600  0.04348700  0.34977700  1
  P  P8  1  0.39764300  0.74286200  0.64912600  1
  P  P9  1  0.89764300  0.25713800  0.85087400  1
  P  P10  1  0.60790600  0.95651300  0.15022300  1
  P  P11  1  0.75482400  0.54908900  0.49945900  1
  W  W0  1  0.54200300  0.14230800  0.61288000  1
  W  W1  1  0.04200300  0.85769200  0.88712000  1
  W  W2  1  0.95799700  0.14230800  0.11288000  1
  W  W3  1  0.45799700  0.85769200  0.38712000  1
  W  W4  1  0.45681800  0.64074300  0.11322700  1
  W  W5  1  0.95681800  0.35925700  0.38677300  1
  W  W6  1  0.04318200  0.64074300  0.61322700  1
  W  W7  1  0.54318200  0.35925700  0.88677300  1
  O  O0  1  0.86995300  0.53399300  0.42995100  1
  O  O1  1  0.67095500  0.37132400  0.57517100  1
  O  O2  1  0.89000100  0.08190000  0.84965800  1
  O  O3  1  0.59496600  0.76326400  0.17266100  1
  O  O4  1  0.34012700  0.28263100  0.58280100  1
  O  O5  1  0.40900200  0.89183200  0.96632200  1
  O  O6  1  0.23548900  0.03761000  0.80773700  1
  O  O7  1  0.97789600  0.62296800  0.23234000  1
  O  O8  1  0.16941600  0.39488500  0.43233200  1
  O  O9  1  0.25238200  0.64265200  0.18764500  1
  O  O10  1  0.05417900  0.78392200  0.04396600  1
  O  O11  1  0.51380900  0.01625900  0.78624900  1
  O  O12  1  0.01380900  0.98374100  0.71375100  1
  O  O13  1  0.55417900  0.21607800  0.45603400  1
  O  O14  1  0.75238200  0.35734800  0.31235500  1
  O  O15  1  0.66941600  0.60511500  0.06766800  1
  O  O16  1  0.47789600  0.37703200  0.26766000  1
  O  O17  1  0.73548900  0.96239000  0.69226300  1
  O  O18  1  0.90900200  0.10816800  0.53367800  1
  O  O19  1  0.84012700  0.71736900  0.91719900  1
  O  O20  1  0.39000100  0.91810000  0.65034200  1
  O  O21  1  0.09496600  0.23673600  0.32733900  1
  O  O22  1  0.17095500  0.62867600  0.92482900  1
  O  O23  1  0.36995300  0.46600700  0.07004900  1
  O  O24  1  0.63004700  0.53399300  0.92995100  1
  O  O25  1  0.82904500  0.37132400  0.07517100  1
  O  O26  1  0.90503400  0.76326400  0.67266100  1
  O  O27  1  0.60999900  0.08190000  0.34965800  1
  O  O28  1  0.15987300  0.28263100  0.08280100  1
  O  O29  1  0.09099800  0.89183200  0.46632200  1
  O  O30  1  0.26451100  0.03761000  0.30773700  1
  O  O31  1  0.52210400  0.62296800  0.73234000  1
  O  O32  1  0.33058400  0.39488500  0.93233200  1
  O  O33  1  0.24761800  0.64265200  0.68764500  1
  O  O34  1  0.44582100  0.78392200  0.54396600  1
  O  O35  1  0.98619100  0.01625900  0.28624900  1
  O  O36  1  0.48619100  0.98374100  0.21375100  1
  O  O37  1  0.94582100  0.21607800  0.95603400  1
  O  O38  1  0.74761800  0.35734800  0.81235500  1
  O  O39  1  0.83058400  0.60511500  0.56766800  1
  O  O40  1  0.02210400  0.37703200  0.76766000  1
  O  O41  1  0.76451100  0.96239000  0.19226300  1
  O  O42  1  0.59099800  0.10816800  0.03367800  1
  O  O43  1  0.65987300  0.71736900  0.41719900  1
  O  O44  1  0.40503400  0.23673600  0.82733900  1
  O  O45  1  0.10999900  0.91810000  0.15034200  1
  O  O46  1  0.32904500  0.62867600  0.42482900  1
  O  O47  1  0.13004700  0.46600700  0.57004900  1
loop_
_geom_bond_atom_site_label_1
_geom_bond_atom_site_label_2
_geom_bond_distance
_geom_bond_site_symmetry_2
Li0 O47 1.987328 1_555
Li0 O40 2.031322 1_555
Li0 O6 2.146166 1_555
Li0 O12 2.208378 1_545
Li0 O2 2.456257 1_455
Li1 O15 1.983812 1_555
Li1 O14 2.013217 1_555
Li1 O7 2.044602 1_555
Li1 O3 2.091969 1_555
Li2 O2 1.912103 1_565
Li2 O11 2.007921 1_565
Li2 O17 2.072648 1_555
Li2 O19 2.133507 1_555
Li3 O20 1.912103 1_545
Li3 O12 2.007921 1_545
Li3 O6 2.072648 1_555
Li3 O4 2.133507 1_555
Li4 O8 1.983812 1_555
Li4 O9 2.013217 1_555
Li4 O16 2.044602 1_555
Li4 O21 2.091969 1_555
Li5 O24 1.987328 1_555
Li5 O31 2.031322 1_555
Li5 O17 2.146166 1_555
Li5 O11 2.208378 1_565
Li5 O20 2.456257 1_555
Li6 O23 1.987328 1_555
Li6 O16 2.031322 1_555
Li6 O30 2.146166 1_555
Li6 O36 2.208378 1_545
Li6 O27 2.456257 1_555
Li7 O39 1.983812 1_555
Li7 O38 2.013217 1_555
Li7 O31 2.044602 1_555
Li7 O26 2.091969 1_555
Li8 O27 1.912103 1_565
Li8 O35 2.007921 1_565
Li8 O41 2.072648 1_555
Li8 O43 2.133507 1_555
Li9 O45 1.912103 1_545
Li9 O36 2.007921 1_545
Li9 O30 2.072648 1_555
Li9 O28 2.133507 1_555
Li10 O32 1.983812 1_555
Li10 O33 2.013217 1_555
Li10 O40 2.044602 1_555
Li10 O44 2.091969 1_555
Li11 O0 1.987328 1_555
Li11 O7 2.031322 1_555
Li11 O41 2.146166 1_555
Li11 O35 2.208378 1_565
Li11 O45 2.456257 1_655
O0 P11 1.555558 1_555
O0 W5 2.154842 1_555
O1 P11 1.523019 1_555
O1 W0 2.116780 1_555
O2 P9 1.566070 1_555
O2 W1 2.208085 1_645
O3 P10 1.546391 1_555
O3 W4 2.174497 1_555
O4 P0 1.552468 1_555
O4 W0 2.112061 1_555
O5 P1 1.513320 1_565
O5 W4 2.120662 1_556
O6 P1 1.575192 1_555
O6 W1 2.211680 1_545
O7 P2 1.577705 1_655
O7 W5 2.189542 1_555
O8 P0 1.555714 1_555
O8 W5 2.137722 1_455
O9 P2 1.546782 1_555
O9 W4 2.186199 1_555
O10 P2 1.507101 1_555
O10 W1 2.113144 1_554
O11 P1 1.583145 1_555
O11 W0 2.242018 1_555
O12 P4 1.583145 1_455
O12 W1 2.242018 1_555
O13 P3 1.507101 1_555
O13 W0 2.113144 1_555
O14 P3 1.546782 1_555
O14 W5 2.186199 1_555
O15 P5 1.555714 1_554
O15 W4 2.137722 1_555
O16 P3 1.577705 1_555
O16 W4 2.189542 1_555
O17 P4 1.575192 1_555
O17 W0 2.211680 1_565
O18 P4 1.513320 1_545
O18 W5 2.120662 1_555
O19 P5 1.552468 1_555
O19 W1 2.112061 1_655
O20 P8 1.566070 1_555
O20 W0 2.208085 1_565
O21 P7 1.546391 1_555
O21 W5 2.174497 1_455
O22 P6 1.523019 1_556
O22 W1 2.116780 1_555
O23 P6 1.555558 1_555
O23 W4 2.154842 1_555
O24 P5 1.555558 1_555
O24 W7 2.154842 1_555
O25 P5 1.523019 1_554
O25 W2 2.116780 1_555
O26 P4 1.546391 1_555
O26 W6 2.174497 1_655
O27 P3 1.566070 1_555
O27 W3 2.208085 1_545
O28 P6 1.552468 1_555
O28 W2 2.112061 1_455
O29 P7 1.513320 1_565
O29 W6 2.120662 1_555
O30 P7 1.575192 1_555
O30 W3 2.211680 1_545
O31 P8 1.577705 1_555
O31 W7 2.189542 1_555
O32 P6 1.555714 1_556
O32 W7 2.137722 1_555
O33 P8 1.546782 1_555
O33 W6 2.186199 1_555
O34 P8 1.507101 1_555
O34 W3 2.113144 1_555
O35 P7 1.583145 1_655
O35 W2 2.242018 1_555
O36 P10 1.583145 1_555
O36 W3 2.242018 1_555
O37 P9 1.507101 1_555
O37 W2 2.113144 1_556
O38 P9 1.546782 1_555
O38 W7 2.186199 1_555
O39 P11 1.555714 1_555
O39 W6 2.137722 1_655
O40 P9 1.577705 1_455
O40 W6 2.189542 1_555
O41 P10 1.575192 1_555
O41 W2 2.211680 1_565
O42 P10 1.513320 1_545
O42 W7 2.120662 1_554
O43 P11 1.552468 1_555
O43 W3 2.112061 1_555
O44 P1 1.546391 1_555
O44 W7 2.174497 1_555
O45 P2 1.566070 1_555
O45 W2 2.208085 1_465
O46 P0 1.523019 1_555
O46 W3 2.116780 1_555
O47 P0 1.555558 1_555
O47 W6 2.154842 1_555
