# generated using pymatgen
data_LiMnPO4
_symmetry_space_group_name_H-M   'P 1'
_cell_length_a   4.91070100
_cell_length_b   7.60109200
_cell_length_c   17.09333600
_cell_angle_alpha   90.00000000
_cell_angle_beta   90.00000000
_cell_angle_gamma   90.00000000
_symmetry_Int_Tables_number   1
_chemical_formula_structural   LiMnPO4
_chemical_formula_sum   'Li8 Mn8 P8 O32'
_cell_volume   638.03765540
_cell_formula_units_Z   8
loop_
 _symmetry_equiv_pos_site_id
 _symmetry_equiv_pos_as_xyz
  1  'x, y, z'
loop_
 _atom_site_type_symbol
 _atom_site_label
 _atom_site_symmetry_multiplicity
 _atom_site_fract_x
 _atom_site_fract_y
 _atom_site_fract_z
 _atom_site_occupancy
  Li  Li0  1  0.24291700  0.51245800  0.05285700  1
  Li  Li1  1  0.24291700  0.01245800  0.44714300  1
  Li  Li2  1  0.28816600  0.31816200  0.35681800  1
  Li  Li3  1  0.28816600  0.81816200  0.14318200  1
  Li  Li4  1  0.74291700  0.98754200  0.55285700  1
  Li  Li5  1  0.74291700  0.48754200  0.94714300  1
  Li  Li6  1  0.78816600  0.18183800  0.85681800  1
  Li  Li7  1  0.78816600  0.68183800  0.64318200  1
  Mn  Mn0  1  0.28922400  0.34122000  0.55208700  1
  Mn  Mn1  1  0.28922400  0.84122000  0.94791300  1
  Mn  Mn2  1  0.35830700  0.04056800  0.75276100  1
  Mn  Mn3  1  0.35830700  0.54056800  0.74723900  1
  Mn  Mn4  1  0.78922400  0.15878000  0.05208700  1
  Mn  Mn5  1  0.78922400  0.65878000  0.44791300  1
  Mn  Mn6  1  0.85830700  0.95943200  0.24723900  1
  Mn  Mn7  1  0.85830700  0.45943200  0.25276100  1
  P  P0  1  0.23743100  0.21474500  0.17413300  1
  P  P1  1  0.23743100  0.71474500  0.32586700  1
  P  P2  1  0.25247900  0.25961600  0.92547900  1
  P  P3  1  0.25247900  0.75961600  0.57452100  1
  P  P4  1  0.73743100  0.78525500  0.82586700  1
  P  P5  1  0.73743100  0.28525500  0.67413300  1
  P  P6  1  0.75247900  0.24038400  0.42547900  1
  P  P7  1  0.75247900  0.74038400  0.07452100  1
  O  O0  1  0.05054600  0.29420700  0.66332900  1
  O  O1  1  0.05054600  0.79420700  0.83667100  1
  O  O2  1  0.06179000  0.73923900  0.05465100  1
  O  O3  1  0.06179000  0.23923900  0.44534900  1
  O  O4  1  0.11748900  0.92997900  0.54536400  1
  O  O5  1  0.11748900  0.42997900  0.95463600  1
  O  O6  1  0.18794500  0.73795600  0.66369900  1
  O  O7  1  0.18794500  0.23795600  0.83630100  1
  O  O8  1  0.09503900  0.54307300  0.35624700  1
  O  O9  1  0.09503900  0.04307300  0.14375300  1
  O  O10  1  0.15020900  0.72679400  0.23877200  1
  O  O11  1  0.15020900  0.22679400  0.26122800  1
  O  O12  1  0.09581700  0.37207900  0.13262700  1
  O  O13  1  0.09581700  0.87207900  0.36737300  1
  O  O14  1  0.11472800  0.59850000  0.53229900  1
  O  O15  1  0.11472800  0.09850000  0.96770100  1
  O  O16  1  0.55054600  0.20579300  0.16332900  1
  O  O17  1  0.55054600  0.70579300  0.33667100  1
  O  O18  1  0.56179000  0.26076100  0.94534900  1
  O  O19  1  0.56179000  0.76076100  0.55465100  1
  O  O20  1  0.61748900  0.07002100  0.45463600  1
  O  O21  1  0.61748900  0.57002100  0.04536400  1
  O  O22  1  0.68794500  0.26204400  0.33630100  1
  O  O23  1  0.68794500  0.76204400  0.16369900  1
  O  O24  1  0.59503900  0.95692700  0.85624700  1
  O  O25  1  0.59503900  0.45692700  0.64375300  1
  O  O26  1  0.65020900  0.77320600  0.73877200  1
  O  O27  1  0.65020900  0.27320600  0.76122800  1
  O  O28  1  0.59581700  0.62792100  0.86737300  1
  O  O29  1  0.59581700  0.12792100  0.63262700  1
  O  O30  1  0.61472800  0.40150000  0.46770100  1
  O  O31  1  0.61472800  0.90150000  0.03229900  1
loop_
_geom_bond_atom_site_label_1
_geom_bond_atom_site_label_2
_geom_bond_distance
_geom_bond_site_symmetry_2
Li0 O12 1.876060 1_555
Li0 O5 1.895049 1_554
Li0 O21 1.895067 1_555
Li0 O2 1.939977 1_555
Li1 O13 1.876060 1_545
Li1 O4 1.895049 1_545
Li1 O20 1.895067 1_555
Li1 O3 1.939977 1_555
Li2 O11 1.900285 1_555
Li2 O8 1.955035 1_555
Li2 O3 1.971225 1_555
Li2 O22 2.039382 1_555
Li2 O30 2.562294 1_555
Li3 O10 1.900285 1_555
Li3 O9 1.955035 1_565
Li3 O2 1.971225 1_555
Li3 O23 2.039382 1_555
Li3 O31 2.562294 1_555
Li4 O29 1.876060 1_565
Li4 O20 1.895049 1_565
Li4 O4 1.895067 1_655
Li4 O19 1.939977 1_555
Li5 O28 1.876060 1_555
Li5 O21 1.895049 1_556
Li5 O5 1.895067 1_655
Li5 O18 1.939977 1_555
Li6 O27 1.900285 1_555
Li6 O24 1.955035 1_545
Li6 O18 1.971225 1_555
Li6 O7 2.039382 1_655
Li6 O15 2.562294 1_655
Li7 O26 1.900285 1_555
Li7 O25 1.955035 1_555
Li7 O19 1.971225 1_555
Li7 O6 2.039382 1_655
Li7 O14 2.562294 1_655
Mn0 O14 2.161733 1_555
Mn0 O30 2.201277 1_555
Mn0 O0 2.262112 1_555
Mn0 O3 2.275322 1_555
Mn0 O25 2.341778 1_555
Mn0 O29 2.605900 1_555
Mn1 O15 2.161733 1_565
Mn1 O31 2.201277 1_556
Mn1 O1 2.262112 1_555
Mn1 O2 2.275322 1_556
Mn1 O24 2.341778 1_555
Mn1 O28 2.605900 1_555
Mn2 O24 2.210142 1_545
Mn2 O7 2.233855 1_555
Mn2 O27 2.280921 1_555
Mn2 O29 2.453170 1_555
Mn2 O26 2.498390 1_545
Mn2 O1 2.801427 1_545
Mn2 O6 2.882417 1_545
Mn2 O0 2.887545 1_555
Mn3 O25 2.210142 1_555
Mn3 O6 2.233855 1_555
Mn3 O26 2.280921 1_555
Mn3 O28 2.453170 1_555
Mn3 O27 2.498390 1_555
Mn3 O0 2.801427 1_555
Mn3 O7 2.882417 1_555
Mn3 O1 2.887545 1_555
Mn4 O31 2.161733 1_545
Mn4 O15 2.201277 1_654
Mn4 O16 2.262112 1_555
Mn4 O18 2.275322 1_554
Mn4 O9 2.341778 1_655
Mn4 O12 2.605900 1_655
Mn5 O30 2.161733 1_555
Mn5 O14 2.201277 1_655
Mn5 O17 2.262112 1_555
Mn5 O19 2.275322 1_555
Mn5 O8 2.341778 1_655
Mn5 O13 2.605900 1_655
Mn6 O9 2.210142 1_665
Mn6 O23 2.233855 1_555
Mn6 O10 2.280921 1_655
Mn6 O13 2.453170 1_655
Mn6 O11 2.498390 1_665
Mn6 O16 2.801427 1_565
Mn6 O22 2.882417 1_565
Mn6 O17 2.887545 1_555
Mn7 O8 2.210142 1_655
Mn7 O22 2.233855 1_555
Mn7 O11 2.280921 1_655
Mn7 O12 2.453170 1_655
Mn7 O10 2.498390 1_655
Mn7 O17 2.801427 1_555
Mn7 O23 2.882417 1_555
Mn7 O16 2.887545 1_555
O0 P5 1.550159 1_455
O1 P4 1.550159 1_455
O2 P7 1.556469 1_455
O3 P6 1.556469 1_455
O4 P3 1.537760 1_555
O5 P2 1.537760 1_555
O6 P3 1.565624 1_555
O7 P2 1.565624 1_555
O8 P1 1.568872 1_555
O9 P0 1.568872 1_555
O10 P1 1.551840 1_555
O11 P0 1.551840 1_555
O12 P0 1.554726 1_555
O13 P1 1.554726 1_555
O14 P3 1.574245 1_555
O15 P2 1.574245 1_555
O16 P0 1.550159 1_555
O17 P1 1.550159 1_555
O18 P2 1.556469 1_555
O19 P3 1.556469 1_555
O20 P6 1.537760 1_555
O21 P7 1.537760 1_555
O22 P6 1.565624 1_555
O23 P7 1.565624 1_555
O24 P4 1.568872 1_555
O25 P5 1.568872 1_555
O26 P4 1.551840 1_555
O27 P5 1.551840 1_555
O28 P4 1.554726 1_555
O29 P5 1.554726 1_555
O30 P6 1.574245 1_555
O31 P7 1.574245 1_555
