# generated using pymatgen
data_YbB2C
_symmetry_space_group_name_H-M   'P 1'
_cell_length_a   6.73911500
_cell_length_b   6.73911500
_cell_length_c   7.64514600
_cell_angle_alpha   90.00000000
_cell_angle_beta   90.00000000
_cell_angle_gamma   90.00000000
_symmetry_Int_Tables_number   1
_chemical_formula_structural   YbB2C
_chemical_formula_sum   'Yb8 B16 C8'
_cell_volume   347.20943535
_cell_formula_units_Z   8
loop_
 _symmetry_equiv_pos_site_id
 _symmetry_equiv_pos_as_xyz
  1  'x, y, z'
loop_
 _atom_site_type_symbol
 _atom_site_label
 _atom_site_symmetry_multiplicity
 _atom_site_fract_x
 _atom_site_fract_y
 _atom_site_fract_z
 _atom_site_occupancy
  Yb  Yb0  1  0.81482400  0.31482400  0.25000000  1
  Yb  Yb1  1  0.18517600  0.68517600  0.25000000  1
  Yb  Yb2  1  0.31482400  0.18517600  0.75000000  1
  Yb  Yb3  1  0.68517600  0.81482400  0.75000000  1
  Yb  Yb4  1  0.18517600  0.68517600  0.75000000  1
  Yb  Yb5  1  0.81482400  0.31482400  0.75000000  1
  Yb  Yb6  1  0.68517600  0.81482400  0.25000000  1
  Yb  Yb7  1  0.31482400  0.18517600  0.25000000  1
  B  B0  1  0.90466900  0.59715600  0.00000000  1
  B  B1  1  0.09533100  0.40284400  0.00000000  1
  B  B2  1  0.40466900  0.90284400  0.00000000  1
  B  B3  1  0.59533100  0.09715600  0.00000000  1
  B  B4  1  0.40284400  0.90466900  0.50000000  1
  B  B5  1  0.59715600  0.09533100  0.50000000  1
  B  B6  1  0.09715600  0.40466900  0.50000000  1
  B  B7  1  0.90284400  0.59533100  0.50000000  1
  B  B8  1  0.64991100  0.53505600  0.00000000  1
  B  B9  1  0.35008900  0.46494400  0.00000000  1
  B  B10  1  0.14991100  0.96494400  0.00000000  1
  B  B11  1  0.85008900  0.03505600  0.00000000  1
  B  B12  1  0.96494400  0.85008900  0.50000000  1
  B  B13  1  0.03505600  0.14991100  0.50000000  1
  B  B14  1  0.53505600  0.35008900  0.50000000  1
  B  B15  1  0.46494400  0.64991100  0.50000000  1
  C  C0  1  0.95900000  0.82264300  0.00000000  1
  C  C1  1  0.04100000  0.17735700  0.00000000  1
  C  C2  1  0.45900000  0.67735700  0.00000000  1
  C  C3  1  0.54100000  0.32264300  0.00000000  1
  C  C4  1  0.67735700  0.54100000  0.50000000  1
  C  C5  1  0.32264300  0.45900000  0.50000000  1
  C  C6  1  0.82264300  0.04100000  0.50000000  1
  C  C7  1  0.17735700  0.95900000  0.50000000  1
loop_
_geom_bond_atom_site_label_1
_geom_bond_atom_site_label_2
_geom_bond_distance
_geom_bond_site_symmetry_2
B0 C0 1.563072 1_555
B0 Yb4 2.752884 1_654
B0 Yb1 2.752884 1_655
B0 Yb5 2.764012 1_554
B0 Yb0 2.764012 1_555
B0 Yb3 2.827151 1_554
B0 Yb6 2.827151 1_555
B1 C1 1.563072 1_555
B1 Yb0 2.752884 1_455
B1 Yb5 2.752884 1_454
B1 Yb1 2.764012 1_555
B1 Yb4 2.764012 1_554
B1 Yb2 2.827151 1_554
B1 Yb7 2.827151 1_555
B2 C2 1.563072 1_555
B2 Yb3 2.752884 1_554
B2 Yb6 2.752884 1_555
B2 Yb2 2.764012 1_564
B2 Yb7 2.764012 1_565
B2 Yb4 2.827151 1_554
B2 Yb1 2.827151 1_555
B3 C3 1.563072 1_555
B3 Yb2 2.752884 1_554
B3 Yb7 2.752884 1_555
B3 Yb3 2.764012 1_544
B3 Yb6 2.764012 1_545
B3 Yb0 2.827151 1_555
B3 Yb5 2.827151 1_554
B4 C7 1.563072 1_555
B4 Yb2 2.752884 1_565
B4 Yb7 2.752884 1_565
B4 Yb3 2.764012 1_555
B4 Yb6 2.764012 1_555
B4 Yb4 2.827151 1_555
B4 Yb1 2.827151 1_555
B5 C6 1.563072 1_555
B5 Yb6 2.752884 1_545
B5 Yb3 2.752884 1_545
B5 Yb2 2.764012 1_555
B5 Yb7 2.764012 1_555
B5 Yb5 2.827151 1_555
B5 Yb0 2.827151 1_555
B6 C5 1.563072 1_555
B6 Yb4 2.752884 1_555
B6 Yb1 2.752884 1_555
B6 Yb5 2.764012 1_455
B6 Yb0 2.764012 1_455
B6 Yb2 2.827151 1_555
B6 Yb7 2.827151 1_555
B7 C4 1.563072 1_555
B7 Yb5 2.752884 1_555
B7 Yb0 2.752884 1_555
B7 Yb1 2.764012 1_655
B7 Yb4 2.764012 1_655
B7 Yb3 2.827151 1_555
B7 Yb6 2.827151 1_555
B8 C2 1.604654 1_555
B8 C3 1.608672 1_555
B8 Yb0 2.662876 1_555
B8 Yb5 2.662876 1_554
B8 Yb3 2.695215 1_554
B8 Yb6 2.695215 1_555
B9 C3 1.604654 1_555
B9 C2 1.608672 1_555
B9 Yb4 2.662876 1_554
B9 Yb1 2.662876 1_555
B9 Yb2 2.695215 1_554
B9 Yb7 2.695215 1_555
B10 C0 1.604654 1_455
B10 C1 1.608672 1_565
B10 Yb2 2.662876 1_564
B10 Yb7 2.662876 1_565
B10 Yb1 2.695215 1_555
B10 Yb4 2.695215 1_554
B11 C1 1.604654 1_655
B11 C0 1.608672 1_545
B11 Yb6 2.662876 1_545
B11 Yb3 2.662876 1_544
B11 Yb5 2.695215 1_554
B11 Yb0 2.695215 1_555
B12 C6 1.604654 1_565
B12 C7 1.608672 1_655
B12 Yb1 2.662876 1_655
B12 Yb4 2.662876 1_655
B12 Yb6 2.695215 1_555
B12 Yb3 2.695215 1_555
B13 C7 1.604654 1_545
B13 C6 1.608672 1_455
B13 Yb0 2.662876 1_455
B13 Yb5 2.662876 1_455
B13 Yb2 2.695215 1_555
B13 Yb7 2.695215 1_555
B14 C4 1.604654 1_555
B14 C5 1.608672 1_555
B14 Yb7 2.662876 1_555
B14 Yb2 2.662876 1_555
B14 Yb5 2.695215 1_555
B14 Yb0 2.695215 1_555
B15 C5 1.604654 1_555
B15 C4 1.608672 1_555
B15 Yb6 2.662876 1_555
B15 Yb3 2.662876 1_555
B15 Yb1 2.695215 1_555
B15 Yb4 2.695215 1_555
C0 Yb1 2.614289 1_655
C0 Yb4 2.614289 1_654
C0 Yb3 2.657262 1_554
C0 Yb6 2.657262 1_555
C1 Yb0 2.614289 1_455
C1 Yb5 2.614289 1_454
C1 Yb7 2.657262 1_555
C1 Yb2 2.657262 1_554
C2 Yb3 2.614289 1_554
C2 Yb6 2.614289 1_555
C2 Yb4 2.657262 1_554
C2 Yb1 2.657262 1_555
C3 Yb2 2.614289 1_554
C3 Yb7 2.614289 1_555
C3 Yb5 2.657262 1_554
C3 Yb0 2.657262 1_555
C4 Yb0 2.614289 1_555
C4 Yb5 2.614289 1_555
C4 Yb6 2.657262 1_555
C4 Yb3 2.657262 1_555
C5 Yb4 2.614289 1_555
C5 Yb1 2.614289 1_555
C5 Yb2 2.657262 1_555
C5 Yb7 2.657262 1_555
C6 Yb3 2.614289 1_545
C6 Yb6 2.614289 1_545
C6 Yb5 2.657262 1_555
C6 Yb0 2.657262 1_555
C7 Yb2 2.614289 1_565
C7 Yb7 2.614289 1_565
C7 Yb1 2.657262 1_555
C7 Yb4 2.657262 1_555
