# generated using pymatgen
data_Mg(B2O5)3
_symmetry_space_group_name_H-M   'P 1'
_cell_length_a   12.15178134
_cell_length_b   21.89980230
_cell_length_c   7.90660118
_cell_angle_alpha   90.00000000
_cell_angle_beta   90.00000000
_cell_angle_gamma   90.00000000
_symmetry_Int_Tables_number   1
_chemical_formula_structural   Mg(B2O5)3
_chemical_formula_sum   'Mg8 B48 O120'
_cell_volume   2104.11742726
_cell_formula_units_Z   8
loop_
 _symmetry_equiv_pos_site_id
 _symmetry_equiv_pos_as_xyz
  1  'x, y, z'
loop_
 _atom_site_type_symbol
 _atom_site_label
 _atom_site_symmetry_multiplicity
 _atom_site_fract_x
 _atom_site_fract_y
 _atom_site_fract_z
 _atom_site_occupancy
  Mg  Mg0  1  0.91494842  0.12227714  0.43059953  1
  Mg  Mg1  1  0.41494842  0.37772286  0.56940047  1
  Mg  Mg2  1  0.08505158  0.62227714  0.06940047  1
  Mg  Mg3  1  0.58505158  0.87772286  0.93059953  1
  Mg  Mg4  1  0.08505158  0.87772286  0.56940047  1
  Mg  Mg5  1  0.58505158  0.62227714  0.43059953  1
  Mg  Mg6  1  0.91494842  0.37772286  0.93059953  1
  Mg  Mg7  1  0.41494842  0.12227714  0.06940047  1
  B  B0  1  0.16204431  0.36426095  0.11795434  1
  B  B1  1  0.66204431  0.13573905  0.88204566  1
  B  B2  1  0.83795569  0.86426095  0.38204566  1
  B  B3  1  0.33795569  0.63573905  0.61795434  1
  B  B4  1  0.83795569  0.63573905  0.88204566  1
  B  B5  1  0.33795569  0.86426095  0.11795434  1
  B  B6  1  0.16204431  0.13573905  0.61795434  1
  B  B7  1  0.66204431  0.36426095  0.38204566  1
  B  B8  1  0.01252988  0.32258968  0.30524710  1
  B  B9  1  0.51252988  0.17741032  0.69475290  1
  B  B10  1  0.98747012  0.82258968  0.19475290  1
  B  B11  1  0.48747012  0.67741032  0.80524710  1
  B  B12  1  0.98747012  0.67741032  0.69475290  1
  B  B13  1  0.48747012  0.82258968  0.30524710  1
  B  B14  1  0.01252988  0.17741032  0.80524710  1
  B  B15  1  0.51252988  0.32258968  0.19475290  1
  B  B16  1  0.03402437  0.43525517  0.27471476  1
  B  B17  1  0.53402437  0.06474483  0.72528524  1
  B  B18  1  0.96597563  0.93525517  0.22528524  1
  B  B19  1  0.46597563  0.56474483  0.77471476  1
  B  B20  1  0.96597563  0.56474483  0.72528524  1
  B  B21  1  0.46597563  0.93525517  0.27471476  1
  B  B22  1  0.03402437  0.06474483  0.77471476  1
  B  B23  1  0.53402437  0.43525517  0.22528524  1
  B  B24  1  0.17166908  0.26334883  0.23580285  1
  B  B25  1  0.67166908  0.23665117  0.76419715  1
  B  B26  1  0.82833092  0.76334883  0.26419715  1
  B  B27  1  0.32833092  0.73665117  0.73580285  1
  B  B28  1  0.82833092  0.73665117  0.76419715  1
  B  B29  1  0.32833092  0.76334883  0.23580285  1
  B  B30  1  0.17166908  0.23665117  0.73580285  1
  B  B31  1  0.67166908  0.26334883  0.26419715  1
  B  B32  1  0.94428994  0.39148067  0.52308790  1
  B  B33  1  0.44428994  0.10851933  0.47691210  1
  B  B34  1  0.05571006  0.89148067  0.97691210  1
  B  B35  1  0.55571006  0.60851933  0.02308790  1
  B  B36  1  0.05571006  0.60851933  0.47691210  1
  B  B37  1  0.55571006  0.89148067  0.52308790  1
  B  B38  1  0.94428994  0.10851933  0.02308790  1
  B  B39  1  0.44428994  0.39148067  0.97691210  1
  B  B40  1  0.21058491  0.47067802  0.15563764  1
  B  B41  1  0.71058491  0.02932198  0.84436236  1
  B  B42  1  0.78941509  0.97067802  0.34436236  1
  B  B43  1  0.28941509  0.52932198  0.65563764  1
  B  B44  1  0.78941509  0.52932198  0.84436236  1
  B  B45  1  0.28941509  0.97067802  0.15563764  1
  B  B46  1  0.21058491  0.02932198  0.65563764  1
  B  B47  1  0.71058491  0.47067802  0.34436236  1
  O  O0  1  0.21857857  0.30558224  0.13627317  1
  O  O1  1  0.71857857  0.19441776  0.86372683  1
  O  O2  1  0.78142143  0.80558224  0.36372683  1
  O  O3  1  0.28142143  0.69441776  0.63627317  1
  O  O4  1  0.78142143  0.69441776  0.86372683  1
  O  O5  1  0.28142143  0.80558224  0.13627317  1
  O  O6  1  0.21857857  0.19441776  0.63627317  1
  O  O7  1  0.71857857  0.30558224  0.36372683  1
  O  O8  1  0.07837450  0.36255716  0.98218381  1
  O  O9  1  0.57837450  0.13744284  0.01781619  1
  O  O10  1  0.92162550  0.86255716  0.51781619  1
  O  O11  1  0.42162550  0.63744284  0.48218381  1
  O  O12  1  0.92162550  0.63744284  0.01781619  1
  O  O13  1  0.42162550  0.86255716  0.98218381  1
  O  O14  1  0.07837450  0.13744284  0.48218381  1
  O  O15  1  0.57837450  0.36255716  0.51781619  1
  O  O16  1  0.09653627  0.37453041  0.27943387  1
  O  O17  1  0.59653627  0.12546959  0.72056613  1
  O  O18  1  0.90346373  0.87453041  0.22056613  1
  O  O19  1  0.40346373  0.62546959  0.77943387  1
  O  O20  1  0.90346373  0.62546959  0.72056613  1
  O  O21  1  0.40346373  0.87453041  0.27943387  1
  O  O22  1  0.09653627  0.12546959  0.77943387  1
  O  O23  1  0.59653627  0.37453041  0.22056613  1
  O  O24  1  0.23763886  0.41432534  0.09301477  1
  O  O25  1  0.73763886  0.08567466  0.90698523  1
  O  O26  1  0.76236114  0.91432534  0.40698523  1
  O  O27  1  0.26236114  0.58567466  0.59301477  1
  O  O28  1  0.76236114  0.58567466  0.90698523  1
  O  O29  1  0.26236114  0.91432534  0.09301477  1
  O  O30  1  0.23763886  0.08567466  0.59301477  1
  O  O31  1  0.73763886  0.41432534  0.40698523  1
  O  O32  1  0.07325867  0.26463769  0.31238822  1
  O  O33  1  0.57325867  0.23536231  0.68761178  1
  O  O34  1  0.92674133  0.76463769  0.18761178  1
  O  O35  1  0.42674133  0.73536231  0.81238822  1
  O  O36  1  0.92674133  0.73536231  0.68761178  1
  O  O37  1  0.42674133  0.76463769  0.31238822  1
  O  O38  1  0.07325867  0.23536231  0.81238822  1
  O  O39  1  0.57325867  0.26463769  0.18761178  1
  O  O40  1  0.94115465  0.32510729  0.15211768  1
  O  O41  1  0.44115465  0.17489271  0.84788232  1
  O  O42  1  0.05884535  0.82510729  0.34788232  1
  O  O43  1  0.55884535  0.67489271  0.65211768  1
  O  O44  1  0.05884535  0.67489271  0.84788232  1
  O  O45  1  0.55884535  0.82510729  0.15211768  1
  O  O46  1  0.94115465  0.17489271  0.65211768  1
  O  O47  1  0.44115465  0.32510729  0.34788232  1
  O  O48  1  0.95243191  0.33340203  0.45632486  1
  O  O49  1  0.45243191  0.16659797  0.54367514  1
  O  O50  1  0.04756809  0.83340203  0.04367514  1
  O  O51  1  0.54756809  0.66659797  0.95632486  1
  O  O52  1  0.04756809  0.66659797  0.54367514  1
  O  O53  1  0.54756809  0.83340203  0.45632486  1
  O  O54  1  0.95243191  0.16659797  0.95632486  1
  O  O55  1  0.45243191  0.33340203  0.04367514  1
  O  O56  1  0.97587495  0.44228099  0.43123464  1
  O  O57  1  0.47587495  0.05771901  0.56876536  1
  O  O58  1  0.02412505  0.94228099  0.06876536  1
  O  O59  1  0.52412505  0.55771901  0.93123464  1
  O  O60  1  0.02412505  0.55771901  0.56876536  1
  O  O61  1  0.52412505  0.94228099  0.43123464  1
  O  O62  1  0.97587495  0.05771901  0.93123464  1
  O  O63  1  0.47587495  0.44228099  0.06876536  1
  O  O64  1  0.95691064  0.42958648  0.13070589  1
  O  O65  1  0.45691064  0.07041352  0.86929411  1
  O  O66  1  0.04308936  0.92958648  0.36929411  1
  O  O67  1  0.54308936  0.57041352  0.63070589  1
  O  O68  1  0.04308936  0.57041352  0.86929411  1
  O  O69  1  0.54308936  0.92958648  0.13070589  1
  O  O70  1  0.95691064  0.07041352  0.63070589  1
  O  O71  1  0.45691064  0.42958648  0.36929411  1
  O  O72  1  0.11094771  0.48389600  0.22865006  1
  O  O73  1  0.61094771  0.01610400  0.77134994  1
  O  O74  1  0.88905229  0.98389600  0.27134994  1
  O  O75  1  0.38905229  0.51610400  0.72865006  1
  O  O76  1  0.88905229  0.51610400  0.77134994  1
  O  O77  1  0.38905229  0.98389600  0.22865006  1
  O  O78  1  0.11094771  0.01610400  0.72865006  1
  O  O79  1  0.61094771  0.48389600  0.27134994  1
  O  O80  1  0.23356086  0.20550763  0.27137555  1
  O  O81  1  0.73356086  0.29449237  0.72862445  1
  O  O82  1  0.76643914  0.70550763  0.22862445  1
  O  O83  1  0.26643914  0.79449237  0.77137555  1
  O  O84  1  0.76643914  0.79449237  0.72862445  1
  O  O85  1  0.26643914  0.70550763  0.27137555  1
  O  O86  1  0.23356086  0.29449237  0.77137555  1
  O  O87  1  0.73356086  0.20550763  0.22862445  1
  O  O88  1  0.91150813  0.39584083  0.68861242  1
  O  O89  1  0.41150813  0.10415917  0.31138758  1
  O  O90  1  0.08849187  0.89584083  0.81138758  1
  O  O91  1  0.58849187  0.60415917  0.18861242  1
  O  O92  1  0.08849187  0.60415917  0.31138758  1
  O  O93  1  0.58849187  0.89584083  0.68861242  1
  O  O94  1  0.91150813  0.10415917  0.18861242  1
  O  O95  1  0.41150813  0.39584083  0.81138758  1
  O  O96  1  0.28772157  0.51791661  0.16385128  1
  O  O97  1  0.78772157  0.98208339  0.83614872  1
  O  O98  1  0.71227843  0.01791661  0.33614872  1
  O  O99  1  0.21227843  0.48208339  0.66385128  1
  O  O100  1  0.71227843  0.48208339  0.83614872  1
  O  O101  1  0.21227843  0.01791661  0.16385128  1
  O  O102  1  0.28772157  0.98208339  0.66385128  1
  O  O103  1  0.78772157  0.51791661  0.33614872  1
  O  O104  1  0.74274828  0.10834955  0.44198414  1
  O  O105  1  0.24274828  0.39165045  0.55801586  1
  O  O106  1  0.25725172  0.60834955  0.05801586  1
  O  O107  1  0.75725172  0.89165045  0.94198414  1
  O  O108  1  0.25725172  0.89165045  0.55801586  1
  O  O109  1  0.75725172  0.60834955  0.44198414  1
  O  O110  1  0.74274828  0.39165045  0.94198414  1
  O  O111  1  0.24274828  0.10834955  0.05801586  1
  O  O112  1  0.83840506  0.20653749  0.27018670  1
  O  O113  1  0.33840506  0.29346251  0.72981330  1
  O  O114  1  0.16159494  0.70653749  0.22981330  1
  O  O115  1  0.66159494  0.79346251  0.77018670  1
  O  O116  1  0.16159494  0.79346251  0.72981330  1
  O  O117  1  0.66159494  0.70653749  0.27018670  1
  O  O118  1  0.83840506  0.29346251  0.77018670  1
  O  O119  1  0.33840506  0.20653749  0.22981330  1
loop_
_geom_bond_atom_site_label_1
_geom_bond_atom_site_label_2
_geom_bond_distance
_geom_bond_site_symmetry_2
Mg0 O94 1.954452 1_555
Mg0 O70 2.013280 1_555
Mg0 O14 2.054392 1_655
Mg0 O104 2.116566 1_555
Mg0 O46 2.120551 1_555
Mg0 O112 2.424638 1_555
Mg1 O95 1.954452 1_555
Mg1 O71 2.013280 1_555
Mg1 O15 2.054392 1_555
Mg1 O105 2.116566 1_555
Mg1 O47 2.120551 1_555
Mg1 O113 2.424638 1_555
Mg2 O92 1.954452 1_555
Mg2 O68 2.013280 1_554
Mg2 O12 2.054392 1_455
Mg2 O106 2.116566 1_555
Mg2 O44 2.120551 1_554
Mg2 O114 2.424638 1_555
Mg3 O93 1.954452 1_555
Mg3 O69 2.013280 1_556
Mg3 O13 2.054392 1_555
Mg3 O107 2.116566 1_555
Mg3 O45 2.120551 1_556
Mg3 O115 2.424638 1_555
Mg4 O90 1.954452 1_555
Mg4 O66 2.013280 1_555
Mg4 O10 2.054392 1_455
Mg4 O108 2.116566 1_555
Mg4 O42 2.120551 1_555
Mg4 O116 2.424638 1_555
Mg5 O91 1.954452 1_555
Mg5 O67 2.013280 1_555
Mg5 O11 2.054392 1_555
Mg5 O109 2.116566 1_555
Mg5 O43 2.120551 1_555
Mg5 O117 2.424638 1_555
Mg6 O88 1.954452 1_555
Mg6 O64 2.013280 1_556
Mg6 O8 2.054392 1_655
Mg6 O110 2.116566 1_555
Mg6 O40 2.120551 1_556
Mg6 O118 2.424638 1_555
Mg7 O89 1.954452 1_555
Mg7 O65 2.013280 1_554
Mg7 O9 2.054392 1_555
Mg7 O111 2.116566 1_555
Mg7 O41 2.120551 1_554
Mg7 O119 2.424638 1_555
B0 O24 1.443890 1_555
B0 O0 1.464341 1_555
B0 O8 1.479025 1_554
B0 O16 1.521302 1_555
B1 O25 1.443890 1_555
B1 O1 1.464341 1_555
B1 O9 1.479025 1_556
B1 O17 1.521302 1_555
B2 O26 1.443890 1_555
B2 O2 1.464341 1_555
B2 O10 1.479025 1_555
B2 O18 1.521302 1_555
B3 O27 1.443890 1_555
B3 O3 1.464341 1_555
B3 O11 1.479025 1_555
B3 O19 1.521302 1_555
B4 O28 1.443890 1_555
B4 O4 1.464341 1_555
B4 O12 1.479025 1_556
B4 O20 1.521302 1_555
B5 O29 1.443890 1_555
B5 O5 1.464341 1_555
B5 O13 1.479025 1_554
B5 O21 1.521302 1_555
B6 O30 1.443890 1_555
B6 O6 1.464341 1_555
B6 O14 1.479025 1_555
B6 O22 1.521302 1_555
B7 O31 1.443890 1_555
B7 O7 1.464341 1_555
B7 O15 1.479025 1_555
B7 O23 1.521302 1_555
B8 O48 1.419951 1_455
B8 O32 1.469179 1_555
B8 O40 1.490365 1_455
B8 O16 1.541957 1_555
B9 O49 1.419951 1_555
B9 O33 1.469179 1_555
B9 O41 1.490365 1_555
B9 O17 1.541957 1_555
B10 O50 1.419951 1_655
B10 O34 1.469179 1_555
B10 O42 1.490365 1_655
B10 O18 1.541957 1_555
B11 O51 1.419951 1_555
B11 O35 1.469179 1_555
B11 O43 1.490365 1_555
B11 O19 1.541957 1_555
B12 O52 1.419951 1_655
B12 O36 1.469179 1_555
B12 O44 1.490365 1_655
B12 O20 1.541957 1_555
B13 O53 1.419951 1_555
B13 O37 1.469179 1_555
B13 O45 1.490365 1_555
B13 O21 1.541957 1_555
B14 O54 1.419951 1_455
B14 O38 1.469179 1_555
B14 O46 1.490365 1_455
B14 O22 1.541957 1_555
B15 O55 1.419951 1_555
B15 O39 1.469179 1_555
B15 O47 1.490365 1_555
B15 O23 1.541957 1_555
B16 O56 1.433349 1_455
B16 O72 1.463258 1_555
B16 O64 1.479854 1_455
B16 O16 1.531979 1_555
B17 O57 1.433349 1_555
B17 O73 1.463258 1_555
B17 O65 1.479854 1_555
B17 O17 1.531979 1_555
B18 O58 1.433349 1_655
B18 O74 1.463258 1_555
B18 O66 1.479854 1_655
B18 O18 1.531979 1_555
B19 O59 1.433349 1_555
B19 O75 1.463258 1_555
B19 O67 1.479854 1_555
B19 O19 1.531979 1_555
B20 O60 1.433349 1_655
B20 O76 1.463258 1_555
B20 O68 1.479854 1_655
B20 O20 1.531979 1_555
B21 O61 1.433349 1_555
B21 O77 1.463258 1_555
B21 O69 1.479854 1_555
B21 O21 1.531979 1_555
B22 O62 1.433349 1_455
B22 O78 1.463258 1_555
B22 O70 1.479854 1_455
B22 O22 1.531979 1_555
B23 O63 1.433349 1_555
B23 O79 1.463258 1_555
B23 O71 1.479854 1_555
B23 O23 1.531979 1_555
B24 O32 1.340727 1_555
B24 O0 1.341515 1_555
B24 O80 1.499770 1_555
B25 O33 1.340727 1_555
B25 O1 1.341515 1_555
B25 O81 1.499770 1_555
B26 O34 1.340727 1_555
B26 O2 1.341515 1_555
B26 O82 1.499770 1_555
B27 O35 1.340727 1_555
B27 O3 1.341515 1_555
B27 O83 1.499770 1_555
B28 O36 1.340727 1_555
B28 O4 1.341515 1_555
B28 O84 1.499770 1_555
B29 O37 1.340727 1_555
B29 O5 1.341515 1_555
B29 O85 1.499770 1_555
B30 O38 1.340727 1_555
B30 O6 1.341515 1_555
B30 O86 1.499770 1_555
B31 O39 1.340727 1_555
B31 O7 1.341515 1_555
B31 O87 1.499770 1_555
B32 O88 1.371349 1_555
B32 O48 1.380649 1_555
B32 O56 1.382911 1_555
B33 O89 1.371349 1_555
B33 O49 1.380649 1_555
B33 O57 1.382911 1_555
B34 O90 1.371349 1_555
B34 O50 1.380649 1_556
B34 O58 1.382911 1_556
B35 O91 1.371349 1_555
B35 O51 1.380649 1_554
B35 O59 1.382911 1_554
B36 O92 1.371349 1_555
B36 O52 1.380649 1_555
B36 O60 1.382911 1_555
B37 O93 1.371349 1_555
B37 O53 1.380649 1_555
B37 O61 1.382911 1_555
B38 O94 1.371349 1_555
B38 O54 1.380649 1_554
B38 O62 1.382911 1_554
B39 O95 1.371349 1_555
B39 O55 1.380649 1_556
B39 O63 1.382911 1_556
B40 O24 1.369770 1_555
B40 O72 1.372228 1_555
B40 O96 1.397520 1_555
B41 O25 1.369770 1_555
B41 O73 1.372228 1_555
B41 O97 1.397520 1_545
B42 O26 1.369770 1_555
B42 O74 1.372228 1_555
B42 O98 1.397520 1_565
B43 O27 1.369770 1_555
B43 O75 1.372228 1_555
B43 O99 1.397520 1_555
B44 O28 1.369770 1_555
B44 O76 1.372228 1_555
B44 O100 1.397520 1_555
B45 O29 1.369770 1_555
B45 O77 1.372228 1_555
B45 O101 1.397520 1_565
B46 O30 1.369770 1_555
B46 O78 1.372228 1_555
B46 O102 1.397520 1_545
B47 O31 1.369770 1_555
B47 O79 1.372228 1_555
B47 O103 1.397520 1_555
O112 O87 1.315935 1_555
O113 O86 1.315935 1_555
O114 O85 1.315935 1_555
O115 O84 1.315935 1_555
O116 O83 1.315935 1_555
O117 O82 1.315935 1_555
O118 O81 1.315935 1_555
O119 O80 1.315935 1_555
