# generated using pymatgen
data_Li4Ni7(OF7)2
_symmetry_space_group_name_H-M   'P 1'
_cell_length_a   5.95011687
_cell_length_b   5.95011687
_cell_length_c   10.57396850
_cell_angle_alpha   73.30782276
_cell_angle_beta   73.30782276
_cell_angle_gamma   61.10522409
_symmetry_Int_Tables_number   1
_chemical_formula_structural   Li4Ni7(OF7)2
_chemical_formula_sum   'Li4 Ni7 O2 F14'
_cell_volume   308.98681865
_cell_formula_units_Z   1
loop_
 _symmetry_equiv_pos_site_id
 _symmetry_equiv_pos_as_xyz
  1  'x, y, z'
loop_
 _atom_site_type_symbol
 _atom_site_label
 _atom_site_symmetry_multiplicity
 _atom_site_fract_x
 _atom_site_fract_y
 _atom_site_fract_z
 _atom_site_occupancy
  Li  Li0  1  0.57220200  0.57220200  0.29904300  1
  Li  Li1  1  0.92106500  0.92106500  0.20959900  1
  Li  Li2  1  0.42779800  0.42779800  0.70095700  1
  Li  Li3  1  0.07893500  0.07893500  0.79040100  1
  Ni  Ni0  1  0.25933000  0.25933000  0.24222500  1
  Ni  Ni1  1  0.50000000  0.00000000  0.00000000  1
  Ni  Ni2  1  0.50000000  0.00000000  0.50000000  1
  Ni  Ni3  1  0.00000000  0.50000000  0.00000000  1
  Ni  Ni4  1  0.00000000  0.00000000  0.50000000  1
  Ni  Ni5  1  0.74067000  0.74067000  0.75777500  1
  Ni  Ni6  1  0.00000000  0.50000000  0.50000000  1
  O  O0  1  0.13631700  0.13631700  0.59381700  1
  O  O1  1  0.86368300  0.86368300  0.40618300  1
  F  F0  1  0.39349700  0.88779300  0.87234900  1
  F  F1  1  0.11220700  0.60650300  0.12765100  1
  F  F2  1  0.37417700  0.37417700  0.36622500  1
  F  F3  1  0.13450500  0.13450500  0.12293800  1
  F  F4  1  0.86549500  0.86549500  0.87706200  1
  F  F5  1  0.35771700  0.35771700  0.88928500  1
  F  F6  1  0.64228300  0.64228300  0.11071500  1
  F  F7  1  0.89744100  0.36827400  0.36642500  1
  F  F8  1  0.36827400  0.89744100  0.36642500  1
  F  F9  1  0.88779300  0.39349700  0.87234900  1
  F  F10  1  0.63172600  0.10255900  0.63357500  1
  F  F11  1  0.10255900  0.63172600  0.63357500  1
  F  F12  1  0.60650300  0.11220700  0.12765100  1
  F  F13  1  0.62582300  0.62582300  0.63377500  1
loop_
_geom_bond_atom_site_label_1
_geom_bond_atom_site_label_2
_geom_bond_distance
_geom_bond_site_symmetry_2
Li1 O1 1.962467 1_555
Li3 O0 1.962467 1_555
Ni2 O1 1.964055 1_545
Ni2 O0 1.964055 1_555
Ni4 O1 1.964716 1_445
Ni4 O0 1.964716 1_555
Ni6 O1 1.964055 1_455
Ni6 O0 1.964055 1_555
F0 Li3 1.963644 1_565
F0 Ni5 1.981228 1_555
F0 Ni1 2.021674 1_566
F1 Li1 1.963644 1_455
F1 Ni0 1.981228 1_555
F1 Ni3 2.021674 1_555
F2 Li0 1.913453 1_555
F2 Ni0 2.033180 1_555
F2 Ni2 2.169475 1_555
F2 Ni6 2.169475 1_555
F3 Li1 2.070530 1_445
F3 Ni0 2.074533 1_555
F3 Ni3 2.086017 1_555
F3 Ni1 2.086017 1_555
F4 Li3 2.070530 1_665
F4 Ni5 2.074533 1_555
F4 Ni1 2.086017 1_566
F4 Ni3 2.086017 1_656
F5 Li2 1.878119 1_555
F5 Ni3 2.003524 1_556
F5 Ni1 2.003524 1_556
F6 Li0 1.878119 1_555
F6 Ni3 2.003524 1_655
F6 Ni1 2.003524 1_565
F7 Li0 1.936793 1_555
F7 Ni0 2.072960 1_655
F7 Ni6 2.138911 1_655
F7 Ni4 2.143339 1_655
F8 Li0 1.936793 1_555
F8 Ni0 2.072960 1_565
F8 Ni2 2.138911 1_565
F8 Ni4 2.143339 1_565
F9 Li3 1.963644 1_655
F9 Ni5 1.981228 1_555
F9 Ni3 2.021674 1_656
F10 Li2 1.936793 1_555
F10 Ni5 2.072960 1_545
F10 Ni2 2.138911 1_555
F10 Ni4 2.143339 1_655
F11 Li2 1.936793 1_555
F11 Ni5 2.072960 1_455
F11 Ni6 2.138911 1_555
F11 Ni4 2.143339 1_565
F12 Li1 1.963644 1_545
F12 Ni0 1.981228 1_555
F12 Ni1 2.021674 1_555
F13 Li2 1.913453 1_555
F13 Ni5 2.033180 1_555
F13 Ni6 2.169475 1_655
F13 Ni2 2.169475 1_565
