# generated using pymatgen
data_SmAgAu2
_symmetry_space_group_name_H-M   'P 1'
_cell_length_a   4.92098276
_cell_length_b   4.92098276
_cell_length_c   4.92098276
_cell_angle_alpha   60.00000000
_cell_angle_beta   60.00000000
_cell_angle_gamma   60.00000000
_symmetry_Int_Tables_number   1
_chemical_formula_structural   SmAgAu2
_chemical_formula_sum   'Sm1 Ag1 Au2'
_cell_volume   84.26370154
_cell_formula_units_Z   1
loop_
 _symmetry_equiv_pos_site_id
 _symmetry_equiv_pos_as_xyz
  1  'x, y, z'
loop_
 _atom_site_type_symbol
 _atom_site_label
 _atom_site_symmetry_multiplicity
 _atom_site_fract_x
 _atom_site_fract_y
 _atom_site_fract_z
 _atom_site_occupancy
  Sm  Sm0  1  0.75000100  0.75000100  0.75000100  1
  Ag  Ag0  1  0.25000100  0.25000100  0.25000100  1
  Au  Au0  1  0.50000000  0.50000000  0.50000000  1
  Au  Au1  1  -0.00000000  0.00000000  0.00000000  1
loop_
_geom_bond_atom_site_label_1
_geom_bond_atom_site_label_2
_geom_bond_distance
_geom_bond_site_symmetry_2
Ag0 Au0 3.013462 1_555
Ag0 Au1 3.013470 1_556
Ag0 Au1 3.013470 1_655
Ag0 Au1 3.013470 1_565
Ag0 Au0 3.013478 1_545
Ag0 Au0 3.013478 1_455
Ag0 Au0 3.013478 1_554
Ag0 Au1 3.013486 1_555
Au0 Sm0 3.013470 1_545
Au0 Sm0 3.013470 1_554
Au0 Sm0 3.013470 1_455
Au0 Sm0 3.013486 1_555
Au1 Sm0 3.013462 1_444
Au1 Sm0 3.013478 1_445
Au1 Sm0 3.013478 1_544
Au1 Sm0 3.013478 1_454
