# generated using pymatgen
data_Li5Mn6(BO3)6
_symmetry_space_group_name_H-M   'P 1'
_cell_length_a   10.41850390
_cell_length_b   10.41850390
_cell_length_c   8.29394655
_cell_angle_alpha   66.80941447
_cell_angle_beta   66.80941447
_cell_angle_gamma   75.47693656
_symmetry_Int_Tables_number   1
_chemical_formula_structural   Li5Mn6(BO3)6
_chemical_formula_sum   'Li10 Mn12 B12 O36'
_cell_volume   755.76779235
_cell_formula_units_Z   2
loop_
 _symmetry_equiv_pos_site_id
 _symmetry_equiv_pos_as_xyz
  1  'x, y, z'
loop_
 _atom_site_type_symbol
 _atom_site_label
 _atom_site_symmetry_multiplicity
 _atom_site_fract_x
 _atom_site_fract_y
 _atom_site_fract_z
 _atom_site_occupancy
  Li  Li0  1  0.48699100  0.98185600  0.29780300  1
  Li  Li1  1  0.02497400  0.02497400  0.98219800  1
  Li  Li2  1  0.27370900  0.77509600  0.98392800  1
  Li  Li3  1  0.98185600  0.48699100  0.29780300  1
  Li  Li4  1  0.73549300  0.73549300  0.29749600  1
  Li  Li5  1  0.11566500  0.61622700  0.71973900  1
  Li  Li6  1  0.61622700  0.11566500  0.71973900  1
  Li  Li7  1  0.36632400  0.36632400  0.71283300  1
  Li  Li8  1  0.52567000  0.52567000  0.97626800  1
  Li  Li9  1  0.77509600  0.27370900  0.98392800  1
  Mn  Mn0  1  0.56780400  0.81563800  0.00299200  1
  Mn  Mn1  1  0.06899700  0.31769300  0.01877400  1
  Mn  Mn2  1  0.31769300  0.06899700  0.01877400  1
  Mn  Mn3  1  0.00533000  0.75610000  0.37392700  1
  Mn  Mn4  1  0.17575300  0.93050900  0.62925500  1
  Mn  Mn5  1  0.81563800  0.56780400  0.00299200  1
  Mn  Mn6  1  0.25186200  0.49865600  0.35744000  1
  Mn  Mn7  1  0.49865600  0.25186200  0.35744000  1
  Mn  Mn8  1  0.75610000  0.00533000  0.37392700  1
  Mn  Mn9  1  0.93050900  0.17575300  0.62925500  1
  Mn  Mn10  1  0.42975800  0.68056900  0.62150800  1
  Mn  Mn11  1  0.68056900  0.42975800  0.62150800  1
  B  B0  1  0.04316900  0.04316900  0.33246800  1
  B  B1  1  0.28880300  0.79288900  0.33404300  1
  B  B2  1  0.00362500  0.74478700  0.00985900  1
  B  B3  1  0.74478700  0.00362500  0.00985900  1
  B  B4  1  0.54097100  0.54097100  0.32600700  1
  B  B5  1  0.79288900  0.28880300  0.33404300  1
  B  B6  1  0.45541600  0.95852100  0.66903600  1
  B  B7  1  0.20490300  0.20490300  0.67807400  1
  B  B8  1  0.70715200  0.70715200  0.65975000  1
  B  B9  1  0.25037100  0.50865800  0.99018800  1
  B  B10  1  0.50865800  0.25037100  0.99018800  1
  B  B11  1  0.95852100  0.45541600  0.66903600  1
  O  O0  1  0.13829600  0.13829600  0.21432200  1
  O  O1  1  0.38898400  0.88544100  0.22090600  1
  O  O2  1  0.18282200  0.46652100  0.17875300  1
  O  O3  1  0.46652100  0.18282200  0.17875300  1
  O  O4  1  0.69843400  0.94203600  0.20398400  1
  O  O5  1  0.00611300  0.00611300  0.52310700  1
  O  O6  1  0.24698200  0.75525300  0.52727400  1
  O  O7  1  0.48339400  0.48339400  0.24720800  1
  O  O8  1  0.98168500  0.98168500  0.25979800  1
  O  O9  1  0.40000400  0.90565400  0.58334600  1
  O  O10  1  0.22860600  0.73639400  0.25689300  1
  O  O11  1  0.73639400  0.22860600  0.25689300  1
  O  O12  1  0.14086500  0.14086500  0.61676900  1
  O  O13  1  0.80334300  0.80334300  0.54169700  1
  O  O14  1  0.88544100  0.38898400  0.22090600  1
  O  O15  1  0.63810500  0.63810500  0.21372100  1
  O  O16  1  0.30099400  0.30099400  0.55712200  1
  O  O17  1  0.05273200  0.55600500  0.55935400  1
  O  O18  1  0.55600500  0.05273200  0.55935400  1
  O  O19  1  0.09833600  0.84578100  0.92287100  1
  O  O20  1  0.94203600  0.69843400  0.20398400  1
  O  O21  1  0.50100300  0.50100300  0.51880400  1
  O  O22  1  0.75525300  0.24698200  0.52727400  1
  O  O23  1  0.41257900  0.91912800  0.86099500  1
  O  O24  1  0.17035600  0.17035600  0.86874000  1
  O  O25  1  0.21716400  0.46219600  0.87566400  1
  O  O26  1  0.46219600  0.21716400  0.87566400  1
  O  O27  1  0.68919600  0.97299700  0.90568600  1
  O  O28  1  0.65073100  0.65073100  0.57893200  1
  O  O29  1  0.90565400  0.40000400  0.58334600  1
  O  O30  1  0.35255400  0.60195800  0.90936100  1
  O  O31  1  0.60195800  0.35255400  0.90936100  1
  O  O32  1  0.84578100  0.09833600  0.92287100  1
  O  O33  1  0.66739600  0.66739600  0.85114500  1
  O  O34  1  0.91912800  0.41257900  0.86099500  1
  O  O35  1  0.97299700  0.68919600  0.90568600  1
loop_
_geom_bond_atom_site_label_1
_geom_bond_atom_site_label_2
_geom_bond_distance
_geom_bond_site_symmetry_2
Li0 O3 1.928199 1_565
Li0 O1 1.997568 1_555
Li0 O4 2.018984 1_555
Li0 O9 2.061558 1_555
Li1 O19 2.005827 1_545
Li1 O32 2.005827 1_455
Li1 O8 2.043093 1_446
Li1 O24 2.092711 1_555
Li2 O19 1.974162 1_555
Li2 O30 2.011577 1_555
Li2 O10 2.011741 1_556
Li2 O23 2.026504 1_555
Li3 O2 1.928199 1_655
Li3 O14 1.997568 1_555
Li3 O20 2.018984 1_555
Li3 O29 2.061558 1_555
Li4 O4 1.971256 1_555
Li4 O20 1.971256 1_555
Li4 O28 2.037760 1_555
Li4 O15 2.041708 1_555
Li5 O35 1.927959 1_455
Li5 O25 1.989329 1_555
Li5 O6 1.992678 1_555
Li5 O17 2.035590 1_555
Li6 O27 1.927959 1_545
Li6 O26 1.989329 1_555
Li6 O22 1.992678 1_555
Li6 O18 2.035590 1_555
Li7 O25 1.966607 1_555
Li7 O26 1.966607 1_555
Li7 O21 1.989491 1_555
Li7 O16 2.052159 1_555
Li8 O30 1.978533 1_555
Li8 O31 1.978533 1_555
Li8 O7 1.993987 1_556
Li8 O33 2.029114 1_555
Li9 O32 1.974162 1_555
Li9 O31 2.011577 1_555
Li9 O11 2.011741 1_556
Li9 O34 2.026504 1_555
Mn0 O27 2.032882 1_554
Mn0 O33 2.178784 1_554
Mn0 O23 2.188686 1_554
Mn0 O15 2.189751 1_555
Mn0 O1 2.229371 1_555
Mn1 O25 2.091288 1_554
Mn1 O0 2.122044 1_555
Mn1 O24 2.162500 1_554
Mn1 O14 2.182360 1_455
Mn1 O34 2.223504 1_454
Mn2 O26 2.091288 1_554
Mn2 O0 2.122044 1_555
Mn2 O24 2.162500 1_554
Mn2 O1 2.182360 1_545
Mn2 O23 2.223504 1_544
Mn3 O13 2.078623 1_455
Mn3 O20 2.092881 1_455
Mn3 O17 2.124100 1_555
Mn3 O10 2.129473 1_555
Mn3 O8 2.149779 1_455
Mn4 O12 2.096974 1_565
Mn4 O19 2.115949 1_555
Mn4 O5 2.121391 1_565
Mn4 O6 2.154636 1_555
Mn4 O9 2.178118 1_555
Mn5 O35 2.032882 1_554
Mn5 O33 2.178784 1_554
Mn5 O34 2.188686 1_554
Mn5 O15 2.189751 1_555
Mn5 O14 2.229371 1_555
Mn6 O2 2.043768 1_555
Mn6 O16 2.167631 1_555
Mn6 O7 2.205707 1_555
Mn6 O17 2.212613 1_555
Mn6 O10 2.262834 1_555
Mn7 O3 2.043768 1_555
Mn7 O16 2.167631 1_555
Mn7 O7 2.205707 1_555
Mn7 O18 2.212613 1_555
Mn7 O11 2.262834 1_555
Mn8 O13 2.078623 1_545
Mn8 O4 2.092881 1_545
Mn8 O18 2.124100 1_555
Mn8 O11 2.129473 1_555
Mn8 O8 2.149779 1_545
Mn9 O12 2.096974 1_655
Mn9 O32 2.115949 1_555
Mn9 O5 2.121391 1_655
Mn9 O22 2.154636 1_555
Mn9 O29 2.178118 1_555
Mn10 O30 2.072584 1_555
Mn10 O28 2.146797 1_555
Mn10 O6 2.189188 1_555
Mn10 O9 2.196278 1_555
Mn10 O21 2.199351 1_555
Mn11 O31 2.072584 1_555
Mn11 O28 2.146797 1_555
Mn11 O22 2.189188 1_555
Mn11 O29 2.196278 1_555
Mn11 O21 2.199351 1_555
B0 O0 1.373893 1_555
B0 O5 1.382518 1_555
B0 O8 1.413464 1_445
B1 O1 1.385812 1_555
B1 O10 1.395366 1_555
B1 O6 1.397451 1_555
B2 O35 1.373942 1_454
B2 O19 1.401245 1_554
B2 O20 1.402364 1_455
B3 O27 1.373942 1_544
B3 O32 1.401245 1_554
B3 O4 1.402364 1_545
B4 O21 1.393513 1_555
B4 O15 1.394514 1_555
B4 O7 1.394569 1_555
B5 O14 1.385812 1_555
B5 O11 1.395366 1_555
B5 O22 1.397451 1_555
B6 O23 1.385649 1_555
B6 O9 1.390214 1_555
B6 O18 1.396807 1_565
B7 O12 1.380721 1_555
B7 O24 1.388618 1_555
B7 O16 1.389815 1_555
B8 O33 1.383252 1_555
B8 O13 1.387607 1_555
B8 O28 1.390796 1_555
B9 O2 1.371606 1_556
B9 O25 1.400417 1_555
B9 O30 1.404049 1_555
B10 O3 1.371606 1_556
B10 O26 1.400417 1_555
B10 O31 1.404049 1_555
B11 O34 1.385649 1_555
B11 O29 1.390214 1_555
B11 O17 1.396807 1_655
