# generated using pymatgen
data_HfGaIr2
_symmetry_space_group_name_H-M   'P 1'
_cell_length_a   4.46383676
_cell_length_b   4.46383676
_cell_length_c   4.46383625
_cell_angle_alpha   60.00008070
_cell_angle_beta   60.00008279
_cell_angle_gamma   60.00007189
_symmetry_Int_Tables_number   1
_chemical_formula_structural   HfGaIr2
_chemical_formula_sum   'Hf1 Ga1 Ir2'
_cell_volume   62.89420572
_cell_formula_units_Z   1
loop_
 _symmetry_equiv_pos_site_id
 _symmetry_equiv_pos_as_xyz
  1  'x, y, z'
loop_
 _atom_site_type_symbol
 _atom_site_label
 _atom_site_symmetry_multiplicity
 _atom_site_fract_x
 _atom_site_fract_y
 _atom_site_fract_z
 _atom_site_occupancy
  Hf  Hf0  1  0.74999922  0.74999928  0.74999933  1
  Ga  Ga0  1  0.24999997  0.25000000  0.24999997  1
  Ir  Ir0  1  0.00000011  0.00000007  0.00000007  1
  Ir  Ir1  1  0.50000070  0.50000065  0.50000063  1
loop_
_geom_bond_atom_site_label_1
_geom_bond_atom_site_label_2
_geom_bond_distance
_geom_bond_site_symmetry_2
Hf0 Ir1 2.733514 1_555
Hf0 Ir0 2.733530 1_566
Hf0 Ir0 2.733530 1_656
Hf0 Ir0 2.733530 1_665
Hf0 Ir0 2.733538 1_666
Hf0 Ir1 2.733538 1_556
Hf0 Ir1 2.733538 1_565
Hf0 Ir1 2.733539 1_655
Ga0 Ir0 2.733528 1_555
Ga0 Ir1 2.733531 1_455
Ga0 Ir1 2.733531 1_554
Ga0 Ir1 2.733531 1_545
Ga0 Ir0 2.733533 1_565
Ga0 Ir0 2.733534 1_556
Ga0 Ir0 2.733534 1_655
Ga0 Ir1 2.733536 1_555
