# generated using pymatgen
data_Sn2N2O
_symmetry_space_group_name_H-M   'P 1'
_cell_length_a   8.84809400
_cell_length_b   8.85538911
_cell_length_c   8.85839277
_cell_angle_alpha   109.52458799
_cell_angle_beta   109.29541323
_cell_angle_gamma   109.48181437
_symmetry_Int_Tables_number   1
_chemical_formula_structural   Sn2N2O
_chemical_formula_sum   'Sn16 N16 O8'
_cell_volume   535.04088733
_cell_formula_units_Z   8
loop_
 _symmetry_equiv_pos_site_id
 _symmetry_equiv_pos_as_xyz
  1  'x, y, z'
loop_
 _atom_site_type_symbol
 _atom_site_label
 _atom_site_symmetry_multiplicity
 _atom_site_fract_x
 _atom_site_fract_y
 _atom_site_fract_z
 _atom_site_occupancy
  Sn  Sn0  1  0.50318100  0.00375900  0.00236900  1
  Sn  Sn1  1  0.71881300  0.96083000  0.74825100  1
  Sn  Sn2  1  0.55769800  0.34138400  0.70412300  1
  Sn  Sn3  1  0.03901600  0.32241300  0.21399200  1
  Sn  Sn4  1  0.77485400  0.52469800  0.25861400  1
  Sn  Sn5  1  0.69160800  0.22468700  0.52583500  1
  Sn  Sn6  1  0.98046800  0.98765500  0.50770500  1
  Sn  Sn7  1  0.67662300  0.70724300  0.03705200  1
  Sn  Sn8  1  0.51566600  0.50457300  0.49164500  1
  Sn  Sn9  1  0.99508600  0.49126900  0.00004700  1
  Sn  Sn10  1  0.31440700  0.28850900  0.96838600  1
  Sn  Sn11  1  0.30161800  0.77559000  0.47198100  1
  Sn  Sn12  1  0.19775800  0.45281300  0.76219700  1
  Sn  Sn13  1  0.47455000  0.69475100  0.27713600  1
  Sn  Sn14  1  0.96536200  0.68308400  0.78425700  1
  Sn  Sn15  1  0.28399000  0.03591200  0.25037400  1
  N  N0  1  0.69485000  0.95235500  0.04015000  1
  N  N1  1  0.01353500  0.50660700  0.25958700  1
  N  N2  1  0.21869800  0.45951500  0.00905200  1
  N  N3  1  0.97566600  0.25296400  0.49293700  1
  N  N4  1  0.80978400  0.57408900  0.46096600  1
  N  N5  1  0.00745000  0.50189500  0.72629700  1
  N  N6  1  0.03642500  0.77069500  0.50362300  1
  N  N7  1  0.18330000  0.23183500  0.27055700  1
  N  N8  1  0.78092200  0.55196300  0.99704100  1
  N  N9  1  0.24925600  0.70467500  0.76335400  1
  N  N10  1  0.47149800  0.51296200  0.74401900  1
  N  N11  1  0.53244900  0.98886400  0.23648300  1
  N  N12  1  0.81061200  0.81605500  0.22362400  1
  N  N13  1  0.41496600  0.18726700  0.53819100  1
  N  N14  1  0.81265100  0.77630800  0.72841600  1
  N  N15  1  0.44677900  0.18238000  0.04498700  1
  O  O0  1  0.30971600  0.02946100  0.95674200  1
  O  O1  1  0.17790100  0.40566200  0.55384700  1
  O  O2  1  0.57890600  0.84496800  0.93780000  1
  O  O3  1  0.18902500  0.19174300  0.76276000  1
  O  O4  1  0.73819700  0.28917700  0.24627600  1
  O  O5  1  0.59134400  0.81698400  0.45215300  1
  O  O6  1  0.45645500  0.00068200  0.77958400  1
  O  O7  1  0.50891800  0.45172700  0.26759100  1
loop_
_geom_bond_atom_site_label_1
_geom_bond_atom_site_label_2
_geom_bond_distance
_geom_bond_site_symmetry_2
N0 O2 0.968015 1_554
N0 Sn0 1.853905 1_565
N0 Sn1 2.686661 1_554
N1 Sn3 1.655173 1_555
N1 Sn4 2.168019 1_455
N1 Sn9 2.204414 1_455
N1 Sn11 2.344371 1_555
N2 Sn10 1.957663 1_554
N2 Sn9 2.069260 1_455
N2 Sn12 2.111358 1_554
N2 Sn13 2.258038 1_555
N3 O1 1.606807 1_655
N3 Sn12 2.108063 1_655
N3 Sn6 2.409776 1_545
N3 Sn5 2.564706 1_555
N4 Sn4 1.587320 1_555
N4 N6 1.981420 1_655
N5 Sn14 1.717840 1_455
N5 Sn12 1.830876 1_555
N5 Sn5 2.493973 1_455
N5 Sn9 2.494465 1_456
N6 Sn6 2.130163 1_455
N6 Sn4 2.229262 1_455
N6 Sn11 2.441562 1_555
N7 Sn3 1.747330 1_555
N7 Sn15 2.182836 1_555
N7 Sn8 2.571295 1_555
N8 Sn7 1.898656 1_556
N8 Sn9 2.129777 1_556
N8 Sn2 2.243512 1_555
N8 Sn4 2.424402 1_556
N9 Sn12 2.117993 1_555
N9 Sn0 2.384156 1_566
N9 Sn14 2.528101 1_455
N10 Sn2 1.899303 1_555
N10 Sn7 2.193332 1_556
N10 Sn12 2.372903 1_555
N10 Sn8 2.375296 1_555
N11 Sn0 2.058181 1_565
N11 Sn5 2.233640 1_565
N11 Sn15 2.403554 1_565
N11 Sn13 2.652236 1_555
N12 Sn7 1.394324 1_555
N12 Sn6 2.078884 1_555
N12 Sn4 2.628278 1_555
N13 Sn2 1.378675 1_555
N13 Sn15 2.089732 1_555
N13 Sn5 2.402825 1_555
N14 Sn14 1.824064 1_555
N14 Sn1 2.049316 1_555
N14 Sn8 2.420937 1_555
N15 O0 1.219046 1_554
N15 Sn0 1.773534 1_555
N15 Sn10 1.830504 1_554
O0 Sn0 1.734800 1_556
O0 Sn15 2.668610 1_556
O1 Sn12 1.683233 1_555
O2 Sn0 1.759961 1_566
O2 Sn1 2.661300 1_555
O3 Sn10 1.506672 1_555
O3 Sn6 2.016678 1_445
O3 Sn12 2.289012 1_555
O4 Sn4 1.959590 1_555
O4 Sn0 2.292470 1_555
O5 Sn13 1.310172 1_555
O5 Sn1 2.151248 1_555
O5 Sn11 2.539821 1_555
O6 Sn0 1.866483 1_556
O6 Sn11 2.314280 1_545
O6 Sn1 2.548943 1_545
O7 Sn8 1.855811 1_555
O7 Sn10 2.200354 1_554
O7 Sn13 2.250091 1_555
O7 Sn4 2.259299 1_555
