# generated using pymatgen
data_Sc3OsC4
_symmetry_space_group_name_H-M   'P 1'
_cell_length_a   4.47786413
_cell_length_b   6.70330411
_cell_length_c   6.79085110
_cell_angle_alpha   104.30847458
_cell_angle_beta   109.25046908
_cell_angle_gamma   90.00000000
_symmetry_Int_Tables_number   1
_chemical_formula_structural   Sc3OsC4
_chemical_formula_sum   'Sc6 Os2 C8'
_cell_volume   185.72935308
_cell_formula_units_Z   2
loop_
 _symmetry_equiv_pos_site_id
 _symmetry_equiv_pos_as_xyz
  1  'x, y, z'
loop_
 _atom_site_type_symbol
 _atom_site_label
 _atom_site_symmetry_multiplicity
 _atom_site_fract_x
 _atom_site_fract_y
 _atom_site_fract_z
 _atom_site_occupancy
  Sc  Sc0  1  0.49999900  0.00000000  -0.00000000  1
  Sc  Sc1  1  0.50000000  0.50000100  0.00000100  1
  Sc  Sc2  1  0.18951463  0.09442020  0.37902826  1
  Sc  Sc3  1  0.19170087  0.59624914  0.38340175  1
  Sc  Sc4  1  0.80829913  0.40375086  0.61659925  1
  Sc  Sc5  1  0.81048537  0.90557980  0.62097274  1
  Os  Os0  1  0.00035737  0.73691188  0.00071374  1
  Os  Os1  1  0.99964263  0.26308812  0.99928626  1
  C  C0  1  0.46670601  0.31496684  0.25537527  1
  C  C1  1  0.78867026  0.31496684  0.25537527  1
  C  C2  1  0.46823946  0.81327395  0.25759299  1
  C  C3  1  0.78935153  0.81327395  0.25759299  1
  C  C4  1  0.21064747  0.18672605  0.74240801  1
  C  C5  1  0.53175954  0.18672605  0.74240801  1
  C  C6  1  0.21133074  0.68503116  0.74462273  1
  C  C7  1  0.53329299  0.68503116  0.74462273  1
loop_
_geom_bond_atom_site_label_1
_geom_bond_atom_site_label_2
_geom_bond_distance
_geom_bond_site_symmetry_2
Os0 Sc1 2.744273 1_555
Os0 Sc1 2.744280 1_455
Os1 Sc1 2.744283 1_656
Os1 Sc1 2.744283 1_556
C0 C1 1.441712 1_555
C0 Os1 2.195942 1_454
C0 Sc4 2.348495 1_555
C0 Sc3 2.392317 1_555
C0 Sc2 2.394217 1_555
C0 Sc1 2.408702 1_555
C0 Sc0 2.418276 1_555
C1 Os1 2.195936 1_554
C1 Sc4 2.348498 1_555
C1 Sc3 2.392315 1_655
C1 Sc2 2.394217 1_655
C1 Sc1 2.408705 1_555
C1 Sc0 2.418280 1_555
C2 C3 1.437896 1_555
C2 Os0 2.200735 1_555
C2 Sc5 2.360604 1_555
C2 Sc3 2.385717 1_555
C2 Sc2 2.387471 1_565
C2 Sc1 2.416269 1_555
C2 Sc0 2.427590 1_565
C3 Os0 2.200745 1_655
C3 Sc5 2.360604 1_555
C3 Sc3 2.385722 1_655
C3 Sc2 2.387479 1_665
C3 Sc1 2.416267 1_555
C3 Sc0 2.427589 1_565
C4 C5 1.437896 1_555
C4 Os1 2.200736 1_455
C4 Sc2 2.360605 1_555
C4 Sc4 2.385719 1_455
C4 Sc5 2.387477 1_445
C4 Sc1 2.416280 1_556
C4 Sc0 2.427584 1_556
C5 Os1 2.200736 1_555
C5 Sc2 2.360603 1_555
C5 Sc4 2.385720 1_555
C5 Sc5 2.387474 1_545
C5 Sc1 2.416280 1_556
C5 Sc0 2.427585 1_556
C6 C7 1.441703 1_555
C6 Os0 2.195951 1_556
C6 Sc3 2.348477 1_555
C6 Sc4 2.392310 1_455
C6 Sc5 2.394224 1_455
C6 Sc1 2.408703 1_556
C6 Sc0 2.418290 1_566
C7 Os0 2.195951 1_656
C7 Sc3 2.348478 1_555
C7 Sc4 2.392304 1_555
C7 Sc5 2.394215 1_555
C7 Sc1 2.408706 1_556
C7 Sc0 2.418294 1_566
