# generated using pymatgen
data_NiS2
_symmetry_space_group_name_H-M   'P 1'
_cell_length_a   8.71991260
_cell_length_b   8.71991260
_cell_length_c   5.13527200
_cell_angle_alpha   90.00000000
_cell_angle_beta   90.00000000
_cell_angle_gamma   120.00000453
_symmetry_Int_Tables_number   1
_chemical_formula_structural   NiS2
_chemical_formula_sum   'Ni8 S16'
_cell_volume   338.15695753
_cell_formula_units_Z   8
loop_
 _symmetry_equiv_pos_site_id
 _symmetry_equiv_pos_as_xyz
  1  'x, y, z'
loop_
 _atom_site_type_symbol
 _atom_site_label
 _atom_site_symmetry_multiplicity
 _atom_site_fract_x
 _atom_site_fract_y
 _atom_site_fract_z
 _atom_site_occupancy
  Ni  Ni0_0  1  0.00000000  0.00000000  0.00000000  1
  Ni  Ni0_1  1  0.00000000  0.00000000  0.50000000  1
  Ni  Ni0_2  1  0.00000000  0.50000000  0.00000000  1
  Ni  Ni0_3  1  0.00000000  0.50000000  0.50000000  1
  Ni  Ni0_4  1  0.50000000  0.00000000  0.00000000  1
  Ni  Ni0_5  1  0.50000000  0.00000000  0.50000000  1
  Ni  Ni0_6  1  0.50000000  0.50000000  0.00000000  1
  Ni  Ni0_7  1  0.50000000  0.50000000  0.50000000  1
  S  S0_0  1  0.16666650  0.33333350  0.25000000  1
  S  S0_1  1  0.16666650  0.33333350  0.75000000  1
  S  S0_2  1  0.16666650  0.83333350  0.25000000  1
  S  S0_3  1  0.16666650  0.83333350  0.75000000  1
  S  S0_4  1  0.66666650  0.33333350  0.25000000  1
  S  S0_5  1  0.66666650  0.33333350  0.75000000  1
  S  S0_6  1  0.66666650  0.83333350  0.25000000  1
  S  S0_7  1  0.66666650  0.83333350  0.75000000  1
  S  S1_0  1  0.33333350  0.16666650  0.25000000  1
  S  S1_1  1  0.33333350  0.16666650  0.75000000  1
  S  S1_2  1  0.33333350  0.66666650  0.25000000  1
  S  S1_3  1  0.33333350  0.66666650  0.75000000  1
  S  S1_4  1  0.83333350  0.16666650  0.25000000  1
  S  S1_5  1  0.83333350  0.16666650  0.75000000  1
  S  S1_6  1  0.83333350  0.66666650  0.25000000  1
  S  S1_7  1  0.83333350  0.66666650  0.75000000  1
loop_
_geom_bond_atom_site_label_1
_geom_bond_atom_site_label_2
_geom_bond_distance
_geom_bond_site_symmetry_2
Ni0_0 Ni0_1 2.567636 1_555
Ni0_0 Ni0_1 2.567636 1_554
Ni0_0 S1_4 2.825700 1_455
Ni0_0 S1_5 2.825700 1_454
Ni0_0 S0_2 2.825700 1_545
Ni0_0 S0_3 2.825700 1_544
Ni0_0 S0_0 2.825704 1_555
Ni0_0 S0_6 2.825704 1_445
Ni0_0 S0_1 2.825704 1_554
Ni0_0 S1_0 2.825704 1_555
Ni0_0 S0_7 2.825704 1_444
Ni0_0 S1_6 2.825704 1_445
Ni0_0 S1_1 2.825704 1_554
Ni0_0 S1_7 2.825704 1_444
Ni0_1 S1_4 2.825700 1_455
Ni0_1 S1_5 2.825700 1_455
Ni0_1 S0_3 2.825700 1_545
Ni0_1 S0_2 2.825700 1_545
Ni0_1 S0_0 2.825704 1_555
Ni0_1 S0_6 2.825704 1_445
Ni0_1 S0_7 2.825704 1_445
Ni0_1 S0_1 2.825704 1_555
Ni0_1 S1_0 2.825704 1_555
Ni0_1 S1_6 2.825704 1_445
Ni0_1 S1_1 2.825704 1_555
Ni0_1 S1_7 2.825704 1_445
Ni0_2 Ni0_3 2.567636 1_555
Ni0_2 Ni0_3 2.567636 1_554
Ni0_2 S1_6 2.825700 1_455
Ni0_2 S1_7 2.825700 1_454
Ni0_2 S0_0 2.825700 1_555
Ni0_2 S0_1 2.825700 1_554
Ni0_2 S0_2 2.825704 1_555
Ni0_2 S0_4 2.825704 1_455
Ni0_2 S1_2 2.825704 1_555
Ni0_2 S0_5 2.825704 1_454
Ni0_2 S1_4 2.825704 1_455
Ni0_2 S0_3 2.825704 1_554
Ni0_2 S1_3 2.825704 1_554
Ni0_2 S1_5 2.825704 1_454
Ni0_3 S1_7 2.825700 1_455
Ni0_3 S1_6 2.825700 1_455
Ni0_3 S0_1 2.825700 1_555
Ni0_3 S0_0 2.825700 1_555
Ni0_3 S0_2 2.825704 1_555
Ni0_3 S0_3 2.825704 1_555
Ni0_3 S0_5 2.825704 1_455
Ni0_3 S0_4 2.825704 1_455
Ni0_3 S1_2 2.825704 1_555
Ni0_3 S1_3 2.825704 1_555
Ni0_3 S1_4 2.825704 1_455
Ni0_3 S1_5 2.825704 1_455
Ni0_4 Ni0_5 2.567636 1_555
Ni0_4 Ni0_5 2.567636 1_554
Ni0_4 S1_0 2.825700 1_555
Ni0_4 S1_1 2.825700 1_554
Ni0_4 S0_6 2.825700 1_545
Ni0_4 S0_7 2.825700 1_544
Ni0_4 S0_2 2.825704 1_545
Ni0_4 S1_4 2.825704 1_555
Ni0_4 S0_3 2.825704 1_544
Ni0_4 S0_4 2.825704 1_555
Ni0_4 S1_2 2.825704 1_545
Ni0_4 S0_5 2.825704 1_554
Ni0_4 S1_3 2.825704 1_544
Ni0_4 S1_5 2.825704 1_554
Ni0_5 S1_1 2.825700 1_555
Ni0_5 S1_0 2.825700 1_555
Ni0_5 S0_7 2.825700 1_545
Ni0_5 S0_6 2.825700 1_545
Ni0_5 S0_2 2.825704 1_545
Ni0_5 S0_3 2.825704 1_545
Ni0_5 S1_4 2.825704 1_555
Ni0_5 S1_5 2.825704 1_555
Ni0_5 S0_5 2.825704 1_555
Ni0_5 S0_4 2.825704 1_555
Ni0_5 S1_2 2.825704 1_545
Ni0_5 S1_3 2.825704 1_545
Ni0_6 Ni0_7 2.567636 1_555
Ni0_6 Ni0_7 2.567636 1_554
Ni0_6 S0_4 2.825700 1_555
Ni0_6 S1_2 2.825700 1_555
Ni0_6 S1_3 2.825700 1_554
Ni0_6 S0_5 2.825700 1_554
Ni0_6 S0_6 2.825704 1_555
Ni0_6 S1_0 2.825704 1_555
Ni0_6 S0_7 2.825704 1_554
Ni0_6 S1_6 2.825704 1_555
Ni0_6 S1_1 2.825704 1_554
Ni0_6 S0_0 2.825704 1_555
Ni0_6 S0_1 2.825704 1_554
Ni0_6 S1_7 2.825704 1_554
Ni0_7 S0_4 2.825700 1_555
Ni0_7 S1_2 2.825700 1_555
Ni0_7 S0_5 2.825700 1_555
Ni0_7 S1_3 2.825700 1_555
Ni0_7 S1_1 2.825704 1_555
Ni0_7 S0_6 2.825704 1_555
Ni0_7 S0_7 2.825704 1_555
Ni0_7 S1_0 2.825704 1_555
Ni0_7 S1_6 2.825704 1_555
Ni0_7 S0_1 2.825704 1_555
Ni0_7 S1_7 2.825704 1_555
Ni0_7 S0_0 2.825704 1_555
S0_0 S1_2 2.517219 1_555
S0_0 S1_4 2.517219 1_455
S0_0 S1_0 2.517227 1_555
S0_0 S0_1 2.567636 1_555
S0_0 S0_1 2.567636 1_554
S0_1 S1_3 2.517219 1_555
S0_1 S1_5 2.517219 1_455
S0_1 S1_1 2.517227 1_555
S0_2 S1_6 2.517219 1_455
S0_2 S1_0 2.517219 1_565
S0_2 S1_2 2.517227 1_555
S0_2 S0_3 2.567636 1_555
S0_2 S0_3 2.567636 1_554
S0_3 S1_7 2.517219 1_455
S0_3 S1_1 2.517219 1_565
S0_3 S1_3 2.517227 1_555
S0_4 S1_6 2.517219 1_555
S0_4 S1_0 2.517219 1_555
S0_4 S1_4 2.517227 1_555
S0_4 S0_5 2.567636 1_555
S0_4 S0_5 2.567636 1_554
S0_5 S1_7 2.517219 1_555
S0_5 S1_1 2.517219 1_555
S0_5 S1_5 2.517227 1_555
S0_6 S1_4 2.517219 1_565
S0_6 S1_2 2.517219 1_555
S0_6 S1_6 2.517227 1_555
S0_6 S0_7 2.567636 1_555
S0_6 S0_7 2.567636 1_554
S0_7 S1_5 2.517219 1_565
S0_7 S1_3 2.517219 1_555
S0_7 S1_7 2.517227 1_555
S1_0 S1_1 2.567636 1_555
S1_0 S1_1 2.567636 1_554
S1_2 S1_3 2.567636 1_555
S1_2 S1_3 2.567636 1_554
S1_4 S1_5 2.567636 1_555
S1_4 S1_5 2.567636 1_554
S1_6 S1_7 2.567636 1_555
S1_6 S1_7 2.567636 1_554
