# generated using pymatgen
data_PmGaCu2
_symmetry_space_group_name_H-M   'P 1'
_cell_length_a   4.59626100
_cell_length_b   4.59626100
_cell_length_c   4.59626100
_cell_angle_alpha   60.00000000
_cell_angle_beta   60.00000000
_cell_angle_gamma   60.00000000
_symmetry_Int_Tables_number   1
_chemical_formula_structural   PmGaCu2
_chemical_formula_sum   'Pm1 Ga1 Cu2'
_cell_volume   68.65924895
_cell_formula_units_Z   1
loop_
 _symmetry_equiv_pos_site_id
 _symmetry_equiv_pos_as_xyz
  1  'x, y, z'
loop_
 _atom_site_type_symbol
 _atom_site_label
 _atom_site_symmetry_multiplicity
 _atom_site_fract_x
 _atom_site_fract_y
 _atom_site_fract_z
 _atom_site_occupancy
  Pm  Pm0  1  0.74999900  0.74999900  0.74999900  1
  Ga  Ga0  1  0.25000000  0.25000000  0.25000000  1
  Cu  Cu0  1  0.50000000  0.50000000  0.50000000  1
  Cu  Cu1  1  0.00000000  -0.00000000  -0.00000000  1
loop_
_geom_bond_atom_site_label_1
_geom_bond_atom_site_label_2
_geom_bond_distance
_geom_bond_site_symmetry_2
Cu0 Pm0 2.814612 1_555
Cu0 Ga0 2.814624 1_565
Cu0 Ga0 2.814624 1_555
Cu0 Ga0 2.814624 1_655
Cu0 Ga0 2.814624 1_556
Cu0 Pm0 2.814627 1_554
Cu0 Pm0 2.814627 1_455
Cu0 Pm0 2.814627 1_545
Cu1 Pm0 2.814620 1_454
Cu1 Pm0 2.814620 1_544
Cu1 Pm0 2.814620 1_445
Cu1 Ga0 2.814624 1_554
Cu1 Ga0 2.814624 1_545
Cu1 Ga0 2.814624 1_455
Cu1 Ga0 2.814624 1_555
Cu1 Pm0 2.814635 1_444
