# generated using pymatgen
data_TbB4Ru
_symmetry_space_group_name_H-M   'P 1'
_cell_length_a   3.56193443
_cell_length_b   5.95876286
_cell_length_c   11.52540146
_cell_angle_alpha   90.00000000
_cell_angle_beta   90.00000000
_cell_angle_gamma   90.00000000
_symmetry_Int_Tables_number   1
_chemical_formula_structural   TbB4Ru
_chemical_formula_sum   'Tb4 B16 Ru4'
_cell_volume   244.62344874
_cell_formula_units_Z   4
loop_
 _symmetry_equiv_pos_site_id
 _symmetry_equiv_pos_as_xyz
  1  'x, y, z'
loop_
 _atom_site_type_symbol
 _atom_site_label
 _atom_site_symmetry_multiplicity
 _atom_site_fract_x
 _atom_site_fract_y
 _atom_site_fract_z
 _atom_site_occupancy
  Tb  Tb0  1  0.50000000  0.12847785  0.15003096  1
  Tb  Tb1  1  0.50000000  0.87152215  0.84996904  1
  Tb  Tb2  1  0.50000000  0.62847785  0.34996904  1
  Tb  Tb3  1  0.50000000  0.37152215  0.65003096  1
  B  B0  1  0.00000000  0.47594620  0.19108649  1
  B  B1  1  0.00000000  0.52405380  0.80891351  1
  B  B2  1  0.00000000  0.97594620  0.30891351  1
  B  B3  1  0.00000000  0.02405380  0.69108649  1
  B  B4  1  0.00000000  0.28787382  0.31492457  1
  B  B5  1  -0.00000000  0.71212618  0.68507543  1
  B  B6  1  0.00000000  0.78787382  0.18507543  1
  B  B7  1  -0.00000000  0.21212618  0.81492457  1
  B  B8  1  0.00000000  0.36295976  0.46961378  1
  B  B9  1  0.00000000  0.63704024  0.53038622  1
  B  B10  1  0.00000000  0.86295976  0.03038622  1
  B  B11  1  0.00000000  0.13704024  0.96961378  1
  B  B12  1  0.00000000  0.38841141  0.04639555  1
  B  B13  1  0.00000000  0.61158859  0.95360445  1
  B  B14  1  0.00000000  0.88841141  0.45360445  1
  B  B15  1  0.00000000  0.11158859  0.54639555  1
  Ru  Ru0  1  0.50000000  0.13977760  0.40758093  1
  Ru  Ru1  1  0.50000000  0.86022240  0.59241907  1
  Ru  Ru2  1  0.50000000  0.63977760  0.09241907  1
  Ru  Ru3  1  0.50000000  0.36022240  0.90758093  1
loop_
_geom_bond_atom_site_label_1
_geom_bond_atom_site_label_2
_geom_bond_distance
_geom_bond_site_symmetry_2
B0 B12 1.747291 1_555
B0 B4 1.814679 1_555
B0 B6 1.859993 1_555
B0 Ru2 2.327672 1_555
B0 Ru2 2.327672 1_455
B0 Tb2 2.711306 1_455
B0 Tb2 2.711306 1_555
B0 Tb0 2.771757 1_555
B0 Tb0 2.771757 1_455
B1 B13 1.747291 1_555
B1 B5 1.814679 1_555
B1 B7 1.859993 1_555
B1 Ru3 2.327672 1_555
B1 Ru3 2.327672 1_455
B1 Tb3 2.711306 1_455
B1 Tb3 2.711306 1_555
B1 Tb1 2.771757 1_455
B1 Tb1 2.771757 1_555
B2 B6 1.814679 1_555
B2 B4 1.859993 1_565
B2 Ru0 2.327672 1_565
B2 Ru0 2.327672 1_465
B2 Tb0 2.711306 1_565
B2 Tb0 2.711306 1_465
B2 Tb2 2.771757 1_455
B2 Tb2 2.771757 1_555
B3 B7 1.814679 1_555
B3 B5 1.859993 1_545
B3 Ru1 2.327672 1_445
B3 Ru1 2.327672 1_545
B3 Tb1 2.711306 1_445
B3 Tb1 2.711306 1_545
B3 Tb3 2.771757 1_555
B3 Tb3 2.771757 1_455
B4 B8 1.838140 1_555
B4 Ru0 2.256327 1_555
B4 Ru0 2.256327 1_455
B4 Tb2 2.730233 1_455
B4 Tb2 2.730233 1_555
B4 Tb0 2.772316 1_555
B4 Tb0 2.772316 1_455
B5 B9 1.838140 1_555
B5 Ru1 2.256327 1_555
B5 Ru1 2.256327 1_455
B5 Tb3 2.730233 1_455
B5 Tb3 2.730233 1_555
B5 Tb1 2.772316 1_455
B5 Tb1 2.772316 1_555
B6 Ru2 2.256327 1_555
B6 Ru2 2.256327 1_455
B6 Tb0 2.730233 1_565
B6 Tb0 2.730233 1_465
B6 Tb2 2.772316 1_555
B6 Tb2 2.772316 1_455
B7 Ru3 2.256327 1_555
B7 Ru3 2.256327 1_455
B7 Tb1 2.730233 1_545
B7 Tb1 2.730233 1_445
B7 Tb3 2.772316 1_555
B7 Tb3 2.772316 1_455
B8 B9 1.777041 1_555
B8 Ru0 2.334868 1_555
B8 Ru0 2.334868 1_455
B8 Tb3 2.738297 1_555
B8 Tb3 2.738297 1_455
B8 Tb2 2.752560 1_455
B8 Tb2 2.752560 1_555
B9 Ru1 2.334868 1_555
B9 Ru1 2.334868 1_455
B9 Tb2 2.738297 1_455
B9 Tb2 2.738297 1_555
B9 Tb3 2.752560 1_555
B9 Tb3 2.752560 1_455
B10 B13 1.739744 1_554
B10 B11 1.777041 1_564
B10 B6 1.838140 1_555
B10 Ru2 2.334868 1_555
B10 Ru2 2.334868 1_455
B10 Tb1 2.738297 1_454
B10 Tb1 2.738297 1_554
B10 Tb0 2.752560 1_565
B10 Tb0 2.752560 1_465
B11 B12 1.739744 1_556
B11 B7 1.838140 1_555
B11 Ru3 2.334868 1_555
B11 Ru3 2.334868 1_455
B11 Tb0 2.738297 1_456
B11 Tb0 2.738297 1_556
B11 Tb1 2.752560 1_545
B11 Tb1 2.752560 1_445
B12 B13 1.706535 1_554
B12 Ru2 2.386778 1_455
B12 Ru2 2.386778 1_555
B12 Ru3 2.399942 1_554
B12 Ru3 2.399942 1_454
B12 Tb0 2.645292 1_555
B12 Tb0 2.645292 1_455
B13 Ru3 2.386778 1_455
B13 Ru3 2.386778 1_555
B13 Ru2 2.399942 1_456
B13 Ru2 2.399942 1_556
B13 Tb1 2.645292 1_455
B13 Tb1 2.645292 1_555
B14 B15 1.706535 1_565
B14 B9 1.739744 1_555
B14 B2 1.747291 1_555
B14 Ru0 2.386778 1_465
B14 Ru0 2.386778 1_565
B14 Ru1 2.399942 1_455
B14 Ru1 2.399942 1_555
B14 Tb2 2.645292 1_455
B14 Tb2 2.645292 1_555
B15 B8 1.739744 1_555
B15 B3 1.747291 1_555
B15 Ru1 2.386778 1_445
B15 Ru1 2.386778 1_545
B15 Ru0 2.399942 1_555
B15 Ru0 2.399942 1_455
B15 Tb3 2.645292 1_555
B15 Tb3 2.645292 1_455
Ru0 Ru1 2.704297 1_545
Ru0 Tb0 2.969130 1_555
Ru0 Tb2 2.986792 1_555
Ru0 Tb3 3.116924 1_555
Ru0 Tb2 3.118231 1_545
Ru1 Tb1 2.969130 1_555
Ru1 Tb3 2.986792 1_555
Ru1 Tb2 3.116924 1_555
Ru1 Tb3 3.118231 1_565
Ru2 Ru3 2.704297 1_554
Ru2 Tb2 2.969130 1_555
Ru2 Tb0 2.986792 1_565
Ru2 Tb1 3.116924 1_554
Ru2 Tb0 3.118231 1_555
Ru3 Tb3 2.969130 1_555
Ru3 Tb1 2.986792 1_545
Ru3 Tb0 3.116924 1_556
Ru3 Tb1 3.118231 1_555
