# generated using pymatgen
data_Ba2AsAu
_symmetry_space_group_name_H-M   'P 1'
_cell_length_a   5.67329307
_cell_length_b   5.67329307
_cell_length_c   5.67329307
_cell_angle_alpha   60.00000000
_cell_angle_beta   60.00000000
_cell_angle_gamma   60.00000000
_symmetry_Int_Tables_number   1
_chemical_formula_structural   Ba2AsAu
_chemical_formula_sum   'Ba2 As1 Au1'
_cell_volume   129.11914996
_cell_formula_units_Z   1
loop_
 _symmetry_equiv_pos_site_id
 _symmetry_equiv_pos_as_xyz
  1  'x, y, z'
loop_
 _atom_site_type_symbol
 _atom_site_label
 _atom_site_symmetry_multiplicity
 _atom_site_fract_x
 _atom_site_fract_y
 _atom_site_fract_z
 _atom_site_occupancy
  Ba  Ba0  1  0.50000000  0.50000000  0.50000000  1
  Ba  Ba1  1  -0.00000000  -0.00000000  -0.00000000  1
  As  As0  1  0.24999900  0.24999900  0.24999900  1
  Au  Au0  1  0.75000000  0.75000000  0.75000000  1
loop_
_geom_bond_atom_site_label_1
_geom_bond_atom_site_label_2
_geom_bond_distance
_geom_bond_site_symmetry_2
As0 Ba1 3.474154 1_555
As0 Ba0 3.474164 1_455
As0 Ba0 3.474164 1_545
As0 Ba0 3.474164 1_554
As0 Ba1 3.474173 1_556
As0 Ba1 3.474173 1_655
As0 Ba1 3.474173 1_565
As0 Ba0 3.474182 1_555
Au0 Ba0 3.474168 1_655
Au0 Ba0 3.474168 1_565
Au0 Ba1 3.474168 1_566
Au0 Ba1 3.474168 1_656
Au0 Ba1 3.474168 1_665
Au0 Ba1 3.474168 1_666
Au0 Ba0 3.474168 1_556
Au0 Ba0 3.474168 1_555
