# generated using pymatgen
data_MgInPd2
_symmetry_space_group_name_H-M   'P 1'
_cell_length_a   4.54924893
_cell_length_b   4.54924893
_cell_length_c   4.54924893
_cell_angle_alpha   60.00000000
_cell_angle_beta   60.00000000
_cell_angle_gamma   60.00000000
_symmetry_Int_Tables_number   1
_chemical_formula_structural   MgInPd2
_chemical_formula_sum   'Mg1 In1 Pd2'
_cell_volume   66.57391665
_cell_formula_units_Z   1
loop_
 _symmetry_equiv_pos_site_id
 _symmetry_equiv_pos_as_xyz
  1  'x, y, z'
loop_
 _atom_site_type_symbol
 _atom_site_label
 _atom_site_symmetry_multiplicity
 _atom_site_fract_x
 _atom_site_fract_y
 _atom_site_fract_z
 _atom_site_occupancy
  Mg  Mg0  1  0.75000000  0.75000000  0.75000000  1
  In  In0  1  0.24999900  0.24999900  0.24999900  1
  Pd  Pd0  1  0.00000000  -0.00000000  -0.00000000  1
  Pd  Pd1  1  0.50000000  0.50000000  0.50000000  1
loop_
_geom_bond_atom_site_label_1
_geom_bond_atom_site_label_2
_geom_bond_distance
_geom_bond_site_symmetry_2
Mg0 Pd1 2.785835 1_555
Mg0 Pd0 2.785835 1_656
Mg0 Pd1 2.785835 1_556
Mg0 Pd0 2.785835 1_665
Mg0 Pd1 2.785835 1_565
Mg0 Pd0 2.785835 1_666
Mg0 Pd1 2.785835 1_655
Mg0 Pd0 2.785835 1_566
In0 Pd0 2.785824 1_555
In0 Pd1 2.785831 1_554
In0 Pd1 2.785831 1_455
In0 Pd1 2.785831 1_545
In0 Pd0 2.785838 1_565
In0 Pd0 2.785838 1_655
In0 Pd0 2.785838 1_556
In0 Pd1 2.785846 1_555
