# generated using pymatgen
data_Ba(GaS2)2
_symmetry_space_group_name_H-M   'P 1'
_cell_length_a   12.77293467
_cell_length_b   12.77293467
_cell_length_c   12.77293467
_cell_angle_alpha   90.00000000
_cell_angle_beta   90.00000000
_cell_angle_gamma   90.00000000
_symmetry_Int_Tables_number   1
_chemical_formula_structural   Ba(GaS2)2
_chemical_formula_sum   'Ba12 Ga24 S48'
_cell_volume   2083.87695840
_cell_formula_units_Z   12
loop_
 _symmetry_equiv_pos_site_id
 _symmetry_equiv_pos_as_xyz
  1  'x, y, z'
loop_
 _atom_site_type_symbol
 _atom_site_label
 _atom_site_symmetry_multiplicity
 _atom_site_fract_x
 _atom_site_fract_y
 _atom_site_fract_z
 _atom_site_occupancy
  Ba  Ba0  1  0.00000000  0.00000000  -0.00000000  1
  Ba  Ba1  1  0.00000000  0.50000000  0.50000000  1
  Ba  Ba2  1  0.12786104  0.87213896  0.37213896  1
  Ba  Ba3  1  0.12786104  0.62786104  0.87213896  1
  Ba  Ba4  1  0.37213896  0.37213896  0.37213896  1
  Ba  Ba5  1  0.37213896  0.12786104  0.87213896  1
  Ba  Ba6  1  0.50000000  0.00000000  0.50000000  1
  Ba  Ba7  1  0.50000000  0.50000000  -0.00000000  1
  Ba  Ba8  1  0.62786104  0.87213896  0.12786104  1
  Ba  Ba9  1  0.62786104  0.62786104  0.62786104  1
  Ba  Ba10  1  0.87213896  0.12786104  0.62786104  1
  Ba  Ba11  1  0.87213896  0.37213896  0.12786104  1
  Ga  Ga0  1  0.12698889  0.19517668  0.35624608  1
  Ga  Ga1  1  0.12698889  0.30482332  0.85624608  1
  Ga  Ga2  1  0.14375392  0.62698889  0.19517668  1
  Ga  Ga3  1  0.14375392  0.87301111  0.69517668  1
  Ga  Ga4  1  0.19517668  0.14375392  0.62698889  1
  Ga  Ga5  1  0.19517668  0.35624608  0.12698889  1
  Ga  Ga6  1  0.30482332  0.85624608  0.12698889  1
  Ga  Ga7  1  0.30482332  0.64375392  0.62698889  1
  Ga  Ga8  1  0.35624608  0.12698889  0.19517668  1
  Ga  Ga9  1  0.35624608  0.37301111  0.69517668  1
  Ga  Ga10  1  0.37301111  0.69517668  0.35624608  1
  Ga  Ga11  1  0.37301111  0.80482332  0.85624608  1
  Ga  Ga12  1  0.62698889  0.19517668  0.14375392  1
  Ga  Ga13  1  0.62698889  0.30482332  0.64375392  1
  Ga  Ga14  1  0.64375392  0.62698889  0.30482332  1
  Ga  Ga15  1  0.64375392  0.87301111  0.80482332  1
  Ga  Ga16  1  0.69517668  0.14375392  0.87301111  1
  Ga  Ga17  1  0.69517668  0.35624608  0.37301111  1
  Ga  Ga18  1  0.80482332  0.64375392  0.87301111  1
  Ga  Ga19  1  0.80482332  0.85624608  0.37301111  1
  Ga  Ga20  1  0.85624608  0.12698889  0.30482332  1
  Ga  Ga21  1  0.85624608  0.37301111  0.80482332  1
  Ga  Ga22  1  0.87301111  0.69517668  0.14375392  1
  Ga  Ga23  1  0.87301111  0.80482332  0.64375392  1
  S  S0  1  0.02545940  0.07797594  0.27098852  1
  S  S1  1  0.02545940  0.42202406  0.77098852  1
  S  S2  1  0.07797594  0.27098852  0.02545940  1
  S  S3  1  0.07797594  0.22901148  0.52545940  1
  S  S4  1  0.12714309  0.36088184  0.29232024  1
  S  S5  1  0.12714309  0.13911816  0.79232024  1
  S  S6  1  0.13911816  0.79232024  0.12714309  1
  S  S7  1  0.13911816  0.70767976  0.62714309  1
  S  S8  1  0.20767976  0.62714309  0.36088184  1
  S  S9  1  0.20767976  0.87285691  0.86088184  1
  S  S10  1  0.22901148  0.52545940  0.07797594  1
  S  S11  1  0.22901148  0.97454060  0.57797594  1
  S  S12  1  0.27098852  0.02545940  0.07797594  1
  S  S13  1  0.27098852  0.47454060  0.57797594  1
  S  S14  1  0.29232024  0.12714309  0.36088184  1
  S  S15  1  0.29232024  0.37285691  0.86088184  1
  S  S16  1  0.36088184  0.29232024  0.12714309  1
  S  S17  1  0.36088184  0.20767976  0.62714309  1
  S  S18  1  0.37285691  0.86088184  0.29232024  1
  S  S19  1  0.37285691  0.63911816  0.79232024  1
  S  S20  1  0.42202406  0.72901148  0.52545940  1
  S  S21  1  0.42202406  0.77098852  0.02545940  1
  S  S22  1  0.47454060  0.57797594  0.27098852  1
  S  S23  1  0.47454060  0.92202406  0.77098852  1
  S  S24  1  0.52545940  0.07797594  0.22901148  1
  S  S25  1  0.52545940  0.42202406  0.72901148  1
  S  S26  1  0.57797594  0.27098852  0.47454060  1
  S  S27  1  0.57797594  0.22901148  0.97454060  1
  S  S28  1  0.62714309  0.36088184  0.20767976  1
  S  S29  1  0.62714309  0.13911816  0.70767976  1
  S  S30  1  0.63911816  0.70767976  0.87285691  1
  S  S31  1  0.63911816  0.79232024  0.37285691  1
  S  S32  1  0.70767976  0.62714309  0.13911816  1
  S  S33  1  0.70767976  0.87285691  0.63911816  1
  S  S34  1  0.72901148  0.52545940  0.42202406  1
  S  S35  1  0.72901148  0.97454060  0.92202406  1
  S  S36  1  0.77098852  0.02545940  0.42202406  1
  S  S37  1  0.77098852  0.47454060  0.92202406  1
  S  S38  1  0.79232024  0.12714309  0.13911816  1
  S  S39  1  0.79232024  0.37285691  0.63911816  1
  S  S40  1  0.86088184  0.20767976  0.87285691  1
  S  S41  1  0.86088184  0.29232024  0.37285691  1
  S  S42  1  0.87285691  0.63911816  0.70767976  1
  S  S43  1  0.87285691  0.86088184  0.20767976  1
  S  S44  1  0.92202406  0.72901148  0.97454060  1
  S  S45  1  0.92202406  0.77098852  0.47454060  1
  S  S46  1  0.97454060  0.57797594  0.22901148  1
  S  S47  1  0.97454060  0.92202406  0.72901148  1
loop_
_geom_bond_atom_site_label_1
_geom_bond_atom_site_label_2
_geom_bond_distance
_geom_bond_site_symmetry_2
Ba0 S38 3.582122 1_455
Ba0 S40 3.582122 1_454
Ba0 S6 3.582122 1_545
Ba0 S9 3.582122 1_544
Ba0 S5 3.582122 1_554
Ba0 S43 3.582122 1_445
Ba0 S47 3.616415 1_444
Ba0 S35 3.616415 1_444
Ba0 S44 3.616415 1_444
Ba0 S12 3.616415 1_555
Ba0 S0 3.616415 1_555
Ba0 S2 3.616415 1_555
Ba1 S41 3.582122 1_455
Ba1 S8 3.582122 1_555
Ba1 S39 3.582122 1_455
Ba1 S7 3.582122 1_555
Ba1 S42 3.582122 1_455
Ba1 S4 3.582122 1_555
Ba1 S3 3.616415 1_555
Ba1 S46 3.616415 1_455
Ba1 S34 3.616415 1_455
Ba1 S13 3.616415 1_555
Ba1 S1 3.616415 1_555
Ba1 S45 3.616415 1_455
Ba2 S45 3.208178 1_455
Ba2 S11 3.208178 1_555
Ba2 S0 3.208178 1_565
Ba2 S8 3.294346 1_555
Ba2 S18 3.294346 1_555
Ba2 S6 3.294346 1_555
Ba3 S44 3.208178 1_455
Ba3 S10 3.208178 1_556
Ba3 S1 3.208178 1_555
Ba3 S7 3.294346 1_555
Ba3 S9 3.294346 1_555
Ba3 S19 3.294346 1_555
Ba4 S22 3.208178 1_555
Ba4 S13 3.208178 1_555
Ba4 S26 3.208178 1_555
Ba4 S14 3.294346 1_555
Ba4 S16 3.294346 1_555
Ba4 S4 3.294346 1_555
Ba5 S27 3.208178 1_555
Ba5 S23 3.208178 1_545
Ba5 S12 3.208178 1_556
Ba5 S17 3.294346 1_555
Ba5 S15 3.294346 1_555
Ba5 S5 3.294346 1_555
Ba6 S33 3.582122 1_545
Ba6 S17 3.582122 1_555
Ba6 S31 3.582122 1_545
Ba6 S14 3.582122 1_555
Ba6 S18 3.582122 1_545
Ba6 S29 3.582122 1_555
Ba6 S11 3.616415 1_545
Ba6 S24 3.616415 1_555
Ba6 S20 3.616415 1_545
Ba6 S26 3.616415 1_555
Ba6 S36 3.616415 1_555
Ba6 S23 3.616415 1_545
Ba7 S15 3.582122 1_554
Ba7 S32 3.582122 1_555
Ba7 S16 3.582122 1_555
Ba7 S30 3.582122 1_554
Ba7 S19 3.582122 1_554
Ba7 S28 3.582122 1_555
Ba7 S25 3.616415 1_554
Ba7 S10 3.616415 1_555
Ba7 S27 3.616415 1_554
Ba7 S22 3.616415 1_555
Ba7 S37 3.616415 1_554
Ba7 S21 3.616415 1_555
Ba8 S21 3.208178 1_555
Ba8 S24 3.208178 1_565
Ba8 S35 3.208178 1_554
Ba8 S31 3.294346 1_555
Ba8 S43 3.294346 1_555
Ba8 S32 3.294346 1_555
Ba9 S20 3.208178 1_555
Ba9 S34 3.208178 1_555
Ba9 S25 3.208178 1_555
Ba9 S33 3.294346 1_555
Ba9 S42 3.294346 1_555
Ba9 S30 3.294346 1_555
Ba10 S3 3.208178 1_655
Ba10 S36 3.208178 1_555
Ba10 S47 3.208178 1_545
Ba10 S39 3.294346 1_555
Ba10 S40 3.294346 1_555
Ba10 S29 3.294346 1_555
Ba11 S37 3.208178 1_554
Ba11 S2 3.208178 1_655
Ba11 S46 3.208178 1_555
Ba11 S28 3.294346 1_555
Ba11 S41 3.294346 1_555
Ba11 S38 3.294346 1_555
Ga0 S0 2.260236 1_555
Ga0 S4 2.268580 1_555
Ga0 S14 2.284339 1_555
Ga0 S3 2.291317 1_555
Ga1 S1 2.260236 1_555
Ga1 S5 2.268580 1_555
Ga1 S15 2.284339 1_555
Ga1 S2 2.291317 1_556
Ga2 S10 2.260236 1_555
Ga2 S8 2.268580 1_555
Ga2 S6 2.284339 1_555
Ga2 S46 2.291317 1_455
Ga3 S11 2.260236 1_555
Ga3 S9 2.268580 1_555
Ga3 S7 2.284339 1_555
Ga3 S47 2.291317 1_455
Ga4 S3 2.260236 1_555
Ga4 S17 2.268580 1_555
Ga4 S5 2.284339 1_555
Ga4 S11 2.291317 1_545
Ga5 S2 2.260236 1_555
Ga5 S16 2.268580 1_555
Ga5 S4 2.284339 1_555
Ga5 S10 2.291317 1_555
Ga6 S21 2.260236 1_555
Ga6 S6 2.268580 1_555
Ga6 S18 2.284339 1_555
Ga6 S12 2.291317 1_565
Ga7 S20 2.260236 1_555
Ga7 S7 2.268580 1_555
Ga7 S19 2.284339 1_555
Ga7 S13 2.291317 1_555
Ga8 S12 2.260236 1_555
Ga8 S14 2.268580 1_555
Ga8 S16 2.284339 1_555
Ga8 S24 2.291317 1_555
Ga9 S13 2.260236 1_555
Ga9 S15 2.268580 1_555
Ga9 S17 2.284339 1_555
Ga9 S25 2.291317 1_555
Ga10 S22 2.260236 1_555
Ga10 S18 2.268580 1_555
Ga10 S8 2.284339 1_555
Ga10 S20 2.291317 1_555
Ga11 S23 2.260236 1_555
Ga11 S19 2.268580 1_555
Ga11 S9 2.284339 1_555
Ga11 S21 2.291317 1_556
Ga12 S24 2.260236 1_555
Ga12 S28 2.268580 1_555
Ga12 S38 2.284339 1_555
Ga12 S27 2.291317 1_554
Ga13 S25 2.260236 1_555
Ga13 S29 2.268580 1_555
Ga13 S39 2.284339 1_555
Ga13 S26 2.291317 1_555
Ga14 S34 2.260236 1_555
Ga14 S32 2.268580 1_555
Ga14 S31 2.284339 1_555
Ga14 S22 2.291317 1_555
Ga15 S35 2.260236 1_555
Ga15 S33 2.268580 1_555
Ga15 S30 2.284339 1_555
Ga15 S23 2.291317 1_555
Ga16 S27 2.260236 1_555
Ga16 S40 2.268580 1_555
Ga16 S29 2.284339 1_555
Ga16 S35 2.291317 1_545
Ga17 S26 2.260236 1_555
Ga17 S41 2.268580 1_555
Ga17 S28 2.284339 1_555
Ga17 S34 2.291317 1_555
Ga18 S44 2.260236 1_555
Ga18 S30 2.268580 1_555
Ga18 S42 2.284339 1_555
Ga18 S37 2.291317 1_555
Ga19 S45 2.260236 1_555
Ga19 S31 2.268580 1_555
Ga19 S43 2.284339 1_555
Ga19 S36 2.291317 1_565
Ga20 S36 2.260236 1_555
Ga20 S38 2.268580 1_555
Ga20 S41 2.284339 1_555
Ga20 S0 2.291317 1_655
Ga21 S37 2.260236 1_555
Ga21 S39 2.268580 1_555
Ga21 S40 2.284339 1_555
Ga21 S1 2.291317 1_655
Ga22 S46 2.260236 1_555
Ga22 S43 2.268580 1_555
Ga22 S32 2.284339 1_555
Ga22 S44 2.291317 1_554
Ga23 S47 2.260236 1_555
Ga23 S42 2.268580 1_555
Ga23 S33 2.284339 1_555
Ga23 S45 2.291317 1_555
