# generated using pymatgen
data_CaSnS3
_symmetry_space_group_name_H-M   'P 1'
_cell_length_a   6.71131451
_cell_length_b   6.71131451
_cell_length_c   6.35131200
_cell_angle_alpha   90.00000000
_cell_angle_beta   90.00000000
_cell_angle_gamma   120.00000498
_symmetry_Int_Tables_number   1
_chemical_formula_structural   CaSnS3
_chemical_formula_sum   'Ca2 Sn2 S6'
_cell_volume   247.74747656
_cell_formula_units_Z   2
loop_
 _symmetry_equiv_pos_site_id
 _symmetry_equiv_pos_as_xyz
  1  'x, y, z'
loop_
 _atom_site_type_symbol
 _atom_site_label
 _atom_site_symmetry_multiplicity
 _atom_site_fract_x
 _atom_site_fract_y
 _atom_site_fract_z
 _atom_site_occupancy
  Ca  Ca0  1  0.33333300  0.66666700  0.75000000  1
  Ca  Ca1  1  0.66666700  0.33333300  0.25000000  1
  Sn  Sn0  1  0.00000000  0.00000000  0.00000000  1
  Sn  Sn1  1  0.00000000  0.00000000  0.50000000  1
  S  S0  1  0.82786600  0.65573100  0.75000000  1
  S  S1  1  0.34426900  0.17213400  0.75000000  1
  S  S2  1  0.82786600  0.17213400  0.75000000  1
  S  S3  1  0.17213400  0.34426900  0.25000000  1
  S  S4  1  0.65573100  0.82786600  0.25000000  1
  S  S5  1  0.17213400  0.82786600  0.25000000  1
loop_
_geom_bond_atom_site_label_1
_geom_bond_atom_site_label_2
_geom_bond_distance
_geom_bond_site_symmetry_2
Ca0 S1 3.356252 1_565
Ca0 S0 3.356252 1_455
Ca0 S2 3.356259 1_565
Ca0 S2 3.356259 1_455
Ca0 S0 3.356266 1_555
Ca0 S1 3.356266 1_555
Ca1 S3 3.356252 1_655
Ca1 S4 3.356252 1_545
Ca1 S5 3.356259 1_655
Ca1 S5 3.356259 1_545
Ca1 S4 3.356266 1_555
Ca1 S3 3.356266 1_555
S0 Sn0 2.554407 1_666
S0 Sn1 2.554407 1_665
S1 Sn0 2.554407 1_556
S1 Sn1 2.554407 1_555
S2 Sn0 2.554403 1_656
S2 Sn1 2.554403 1_655
S3 Sn1 2.554407 1_555
S3 Sn0 2.554407 1_555
S4 Sn1 2.554407 1_665
S4 Sn0 2.554407 1_665
S5 Sn1 2.554403 1_565
S5 Sn0 2.554403 1_565
