# generated using pymatgen
data_GaFeO3
_symmetry_space_group_name_H-M   'P 1'
_cell_length_a   5.16432200
_cell_length_b   8.85318475
_cell_length_c   9.52799723
_cell_angle_alpha   89.90989574
_cell_angle_beta   89.90724307
_cell_angle_gamma   89.91497385
_symmetry_Int_Tables_number   1
_chemical_formula_structural   GaFeO3
_chemical_formula_sum   'Ga8 Fe8 O24'
_cell_volume   435.62508465
_cell_formula_units_Z   8
loop_
 _symmetry_equiv_pos_site_id
 _symmetry_equiv_pos_as_xyz
  1  'x, y, z'
loop_
 _atom_site_type_symbol
 _atom_site_label
 _atom_site_symmetry_multiplicity
 _atom_site_fract_x
 _atom_site_fract_y
 _atom_site_fract_z
 _atom_site_occupancy
  Ga  Ga0  1  0.20303400  0.32344300  0.03410600  1
  Ga  Ga1  1  0.00103900  0.82497800  0.15347500  1
  Ga  Ga2  1  0.69384300  0.18557800  0.16104300  1
  Ga  Ga3  1  0.69400600  0.68490100  0.33841900  1
  Ga  Ga4  1  0.00105400  0.32365900  0.34650800  1
  Ga  Ga5  1  0.50080900  0.67472300  0.65181500  1
  Ga  Ga6  1  0.19373100  0.31311300  0.66062100  1
  Ga  Ga7  1  0.49970800  0.17640800  0.84706700  1
  Fe  Fe0  1  0.41711500  0.81216700  0.15169300  1
  Fe  Fe1  1  0.41675100  0.30960600  0.34654600  1
  Fe  Fe2  1  0.20295200  0.82396100  0.46886800  1
  Fe  Fe3  1  0.70220600  0.17533000  0.53104400  1
  Fe  Fe4  1  0.91783600  0.69037900  0.65135100  1
  Fe  Fe5  1  0.19260900  0.81238200  0.83960800  1
  Fe  Fe6  1  0.91712000  0.19099700  0.84845900  1
  Fe  Fe7  1  0.70152600  0.67498400  0.96945500  1
  O  O0  1  0.29699300  0.64811800  0.00170400  1
  O  O1  1  0.56769600  0.98593100  0.01067700  1
  O  O2  1  0.80316400  0.84630300  0.16057600  1
  O  O3  1  0.32698300  0.15357700  0.16914000  1
  O  O4  1  0.06139000  0.48588000  0.16859000  1
  O  O5  1  0.57763700  0.52530800  0.17654000  1
  O  O6  1  0.57606900  0.02463200  0.32105200  1
  O  O7  1  0.06030500  0.98523500  0.33162400  1
  O  O8  1  0.32871200  0.65342300  0.32941100  1
  O  O9  1  0.80348800  0.34572700  0.33918000  1
  O  O10  1  0.56862600  0.48537500  0.48768500  1
  O  O11  1  0.29890800  0.15444300  0.50229900  1
  O  O12  1  0.79712100  0.84367500  0.49784100  1
  O  O13  1  0.06855800  0.51338600  0.51100500  1
  O  O14  1  0.30360100  0.65228700  0.65873000  1
  O  O15  1  0.82795900  0.34695100  0.66996300  1
  O  O16  1  0.55986600  0.01419000  0.66931300  1
  O  O17  1  0.07447300  0.97930100  0.67429300  1
  O  O18  1  0.07586700  0.47445200  0.82218600  1
  O  O19  1  0.56007800  0.51499900  0.83026700  1
  O  O20  1  0.83007000  0.84550000  0.83158700  1
  O  O21  1  0.30230200  0.15677800  0.84164900  1
  O  O22  1  0.06911500  0.02364300  0.99238900  1
  O  O23  1  0.79728100  0.34427900  0.00222300  1
loop_
_geom_bond_atom_site_label_1
_geom_bond_atom_site_label_2
_geom_bond_distance
_geom_bond_site_symmetry_2
Ga0 O4 2.060268 1_555
Ga0 O3 2.078556 1_555
Ga0 O23 2.125538 1_455
Ga0 O21 2.409511 1_554
Ga0 O18 2.507765 1_554
Ga1 O2 1.041021 1_455
Ga1 O7 2.235699 1_555
Ga1 O22 2.358883 1_564
Ga2 O3 1.917476 1_555
Ga2 O23 2.131247 1_555
Ga2 O6 2.171927 1_555
Ga2 O9 2.285765 1_555
Ga2 O1 2.369704 1_545
Ga3 O8 1.909465 1_555
Ga3 O12 2.139691 1_555
Ga3 O5 2.179171 1_555
Ga3 O2 2.285296 1_555
Ga3 O10 2.356852 1_555
Ga4 O9 1.040981 1_455
Ga4 O4 2.241730 1_555
Ga4 O13 2.326195 1_555
Ga5 O14 1.039889 1_555
Ga5 O19 2.230940 1_555
Ga5 O10 2.320139 1_555
Ga6 O15 1.914083 1_455
Ga6 O11 2.132043 1_555
Ga6 O18 2.186721 1_555
Ga6 O21 2.279996 1_555
Ga6 O13 2.363344 1_555
Ga7 O21 1.035812 1_555
Ga7 O16 2.243228 1_555
Ga7 O1 2.321384 1_546
Fe0 O2 2.018830 1_555
Fe0 O0 2.132734 1_555
Fe0 O1 2.184086 1_555
Fe0 O8 2.245600 1_555
Fe0 O6 2.614246 1_565
Fe0 O5 2.680562 1_555
Fe1 O9 2.024230 1_555
Fe1 O11 2.110172 1_555
Fe1 O10 2.204246 1_555
Fe1 O3 2.234285 1_555
Fe1 O5 2.636576 1_555
Fe1 O6 2.663876 1_555
Fe2 O7 2.070114 1_555
Fe2 O8 2.113643 1_555
Fe2 O12 2.120475 1_455
Fe2 O14 2.417582 1_555
Fe2 O17 2.482760 1_555
Fe3 O16 2.074905 1_555
Fe3 O11 2.109561 1_555
Fe3 O15 2.119981 1_555
Fe3 O9 2.425237 1_555
Fe3 O6 2.494538 1_555
Fe4 O14 2.021380 1_655
Fe4 O12 2.089029 1_555
Fe4 O13 2.202035 1_655
Fe4 O20 2.245787 1_555
Fe4 O18 2.638138 1_655
Fe5 O20 1.896301 1_455
Fe5 O0 2.187259 1_556
Fe5 O17 2.242793 1_555
Fe5 O14 2.304265 1_555
Fe5 O22 2.454782 1_565
Fe6 O21 2.012654 1_655
Fe6 O23 2.090884 1_556
Fe6 O22 2.164629 1_655
Fe6 O15 2.236962 1_555
Fe6 O17 2.632033 1_645
Fe6 O18 2.652494 1_655
Fe7 O19 2.076200 1_555
Fe7 O20 2.106913 1_555
Fe7 O0 2.124771 1_556
Fe7 O2 2.430254 1_556
Fe7 O5 2.459393 1_556
