# generated using pymatgen
data_La(ZnAs)3
_symmetry_space_group_name_H-M   'P 1'
_cell_length_a   4.10140616
_cell_length_b   11.55224376
_cell_length_c   12.62368948
_cell_angle_alpha   90.00000000
_cell_angle_beta   90.00000000
_cell_angle_gamma   90.00000000
_symmetry_Int_Tables_number   1
_chemical_formula_structural   La(ZnAs)3
_chemical_formula_sum   'La4 Zn12 As12'
_cell_volume   598.11600893
_cell_formula_units_Z   4
loop_
 _symmetry_equiv_pos_site_id
 _symmetry_equiv_pos_as_xyz
  1  'x, y, z'
loop_
 _atom_site_type_symbol
 _atom_site_label
 _atom_site_symmetry_multiplicity
 _atom_site_fract_x
 _atom_site_fract_y
 _atom_site_fract_z
 _atom_site_occupancy
  La  La0  1  0.75000000  0.94103196  0.33769963  1
  La  La1  1  0.25000000  0.44103196  0.16230037  1
  La  La2  1  0.75000000  0.55896804  0.83769963  1
  La  La3  1  0.25000000  0.05896804  0.66230037  1
  Zn  Zn0  1  0.75000000  0.23597805  0.44959544  1
  Zn  Zn1  1  0.25000000  0.73597805  0.05040456  1
  Zn  Zn2  1  0.75000000  0.26402195  0.94959544  1
  Zn  Zn3  1  0.25000000  0.76402195  0.55040456  1
  Zn  Zn4  1  0.75000000  0.65411873  0.27669940  1
  Zn  Zn5  1  0.25000000  0.15411873  0.22330060  1
  Zn  Zn6  1  0.75000000  0.84588127  0.77669940  1
  Zn  Zn7  1  0.25000000  0.34588127  0.72330060  1
  Zn  Zn8  1  0.75000000  0.03680152  0.06630390  1
  Zn  Zn9  1  0.25000000  0.53680152  0.43369610  1
  Zn  Zn10  1  0.75000000  0.46319848  0.56630390  1
  Zn  Zn11  1  0.25000000  0.96319848  0.93369610  1
  As  As0  1  0.75000000  0.43459758  0.36157620  1
  As  As1  1  0.25000000  0.93459758  0.13842380  1
  As  As2  1  0.75000000  0.06540242  0.86157620  1
  As  As3  1  0.25000000  0.56540242  0.63842380  1
  As  As4  1  0.75000000  0.23745227  0.14656387  1
  As  As5  1  0.25000000  0.73745227  0.35343613  1
  As  As6  1  0.75000000  0.26254773  0.64656387  1
  As  As7  1  0.25000000  0.76254773  0.85343613  1
  As  As8  1  0.75000000  0.61870817  0.08460194  1
  As  As9  1  0.25000000  0.11870817  0.41539806  1
  As  As10  1  0.75000000  0.88129183  0.58460194  1
  As  As11  1  0.25000000  0.38129183  0.91539806  1
loop_
_geom_bond_atom_site_label_1
_geom_bond_atom_site_label_2
_geom_bond_distance
_geom_bond_site_symmetry_2
As0 Zn9 2.535402 1_555
As0 Zn9 2.535402 1_655
As0 Zn0 2.549380 1_555
As0 Zn10 2.605454 1_555
As0 Zn4 2.753021 1_555
As0 La1 3.246403 1_555
As0 La1 3.246403 1_655
As1 Zn8 2.535402 1_465
As1 Zn8 2.535402 1_565
As1 Zn1 2.549380 1_555
As1 Zn11 2.605454 1_554
As1 Zn5 2.753021 1_565
As1 La0 3.246403 1_555
As1 La0 3.246403 1_455
As2 Zn11 2.535402 1_645
As2 Zn11 2.535402 1_545
As2 Zn2 2.549380 1_555
As2 Zn8 2.605454 1_556
As2 Zn6 2.753021 1_545
As2 La3 3.246403 1_555
As2 La3 3.246403 1_655
As3 Zn10 2.535402 1_455
As3 Zn10 2.535402 1_555
As3 Zn3 2.549380 1_555
As3 Zn9 2.605454 1_555
As3 Zn7 2.753021 1_555
As3 La2 3.246403 1_455
As3 La2 3.246403 1_555
As4 Zn5 2.463846 1_655
As4 Zn5 2.463846 1_555
As4 Zn2 2.505342 1_554
As4 Zn8 2.529722 1_555
As4 La1 3.126631 1_555
As4 La1 3.126631 1_655
As5 Zn4 2.463846 1_455
As5 Zn4 2.463846 1_555
As5 Zn3 2.505342 1_555
As5 Zn9 2.529722 1_555
As5 La0 3.126631 1_555
As5 La0 3.126631 1_455
As6 Zn7 2.463846 1_655
As6 Zn7 2.463846 1_555
As6 Zn0 2.505342 1_555
As6 Zn10 2.529722 1_555
As6 La3 3.126631 1_555
As6 La3 3.126631 1_655
As7 Zn6 2.463846 1_555
As7 Zn6 2.463846 1_455
As7 Zn1 2.505342 1_556
As7 Zn11 2.529722 1_555
As7 La2 3.126631 1_455
As7 La2 3.126631 1_555
As8 Zn4 2.459240 1_555
As8 Zn1 2.495404 1_555
As8 Zn1 2.495404 1_655
As8 La1 3.062749 1_555
As8 La1 3.062749 1_655
As8 La2 3.192309 1_554
As9 Zn5 2.459240 1_555
As9 Zn0 2.495404 1_455
As9 Zn0 2.495404 1_555
As9 La0 3.062749 1_445
As9 La0 3.062749 1_545
As9 La3 3.192309 1_555
As10 Zn6 2.459240 1_555
As10 Zn3 2.495404 1_555
As10 Zn3 2.495404 1_655
As10 La3 3.062749 1_565
As10 La3 3.062749 1_665
As10 La0 3.192309 1_555
As11 Zn7 2.459240 1_555
As11 Zn2 2.495404 1_455
As11 Zn2 2.495404 1_555
As11 La2 3.062749 1_455
As11 La2 3.062749 1_555
As11 La1 3.192309 1_556
