# generated using pymatgen
data_LiHo2Ir
_symmetry_space_group_name_H-M   'P 1'
_cell_length_a   4.86476049
_cell_length_b   4.86476049
_cell_length_c   4.86476049
_cell_angle_alpha   60.00000000
_cell_angle_beta   60.00000000
_cell_angle_gamma   60.00000000
_symmetry_Int_Tables_number   1
_chemical_formula_structural   LiHo2Ir
_chemical_formula_sum   'Li1 Ho2 Ir1'
_cell_volume   81.40843226
_cell_formula_units_Z   1
loop_
 _symmetry_equiv_pos_site_id
 _symmetry_equiv_pos_as_xyz
  1  'x, y, z'
loop_
 _atom_site_type_symbol
 _atom_site_label
 _atom_site_symmetry_multiplicity
 _atom_site_fract_x
 _atom_site_fract_y
 _atom_site_fract_z
 _atom_site_occupancy
  Li  Li0  1  0.75000000  0.75000000  0.75000000  1
  Ho  Ho0  1  -0.00000000  -0.00000000  -0.00000000  1
  Ho  Ho1  1  0.50000000  0.50000000  0.50000000  1
  Ir  Ir0  1  0.25000000  0.25000000  0.25000000  1
loop_
_geom_bond_atom_site_label_1
_geom_bond_atom_site_label_2
_geom_bond_distance
_geom_bond_site_symmetry_2
Ho0 Ir0 2.979045 1_554
Ho0 Li0 2.979045 1_444
Ho0 Li0 2.979045 1_445
Ho0 Ir0 2.979045 1_555
Ho0 Ir0 2.979045 1_545
Ho0 Li0 2.979045 1_454
Ho0 Ir0 2.979045 1_455
Ho0 Li0 2.979045 1_544
Ho1 Li0 2.979045 1_554
Ho1 Ir0 2.979045 1_555
Ho1 Ir0 2.979045 1_556
Ho1 Li0 2.979045 1_555
Ho1 Ir0 2.979045 1_655
Ho1 Li0 2.979045 1_545
Ho1 Ir0 2.979045 1_565
Ho1 Li0 2.979045 1_455
