# generated using pymatgen
data_Li3Mn(PO4)2
_symmetry_space_group_name_H-M   'P 1'
_cell_length_a   4.81994411
_cell_length_b   9.04887700
_cell_length_c   6.60338554
_cell_angle_alpha   90.00134768
_cell_angle_beta   93.99767089
_cell_angle_gamma   89.99974273
_symmetry_Int_Tables_number   1
_chemical_formula_structural   Li3Mn(PO4)2
_chemical_formula_sum   'Li6 Mn2 P4 O16'
_cell_volume   287.30644277
_cell_formula_units_Z   2
loop_
 _symmetry_equiv_pos_site_id
 _symmetry_equiv_pos_as_xyz
  1  'x, y, z'
loop_
 _atom_site_type_symbol
 _atom_site_label
 _atom_site_symmetry_multiplicity
 _atom_site_fract_x
 _atom_site_fract_y
 _atom_site_fract_z
 _atom_site_occupancy
  Li  Li0  1  0.00002200  0.50004000  0.00010300  1
  Li  Li1  1  0.49999000  0.00009100  0.49988100  1
  Li  Li2  1  0.00479400  0.13387500  0.66815800  1
  Li  Li3  1  0.49517100  0.63382000  0.83195000  1
  Li  Li4  1  0.50481400  0.36613900  0.16825300  1
  Li  Li5  1  0.99515000  0.86619400  0.33185200  1
  Mn  Mn0  1  0.49974500  0.99995200  0.99982400  1
  Mn  Mn1  1  0.00022600  0.50012100  0.49999200  1
  P  P0  1  0.02480900  0.17740200  0.19677500  1
  P  P1  1  0.47516400  0.67746600  0.30320100  1
  P  P2  1  0.52507100  0.32257500  0.69690200  1
  P  P3  1  0.97492900  0.82255100  0.80311200  1
  O  O0  1  0.07559600  0.34587500  0.21610800  1
  O  O1  1  0.42452200  0.84594000  0.28387300  1
  O  O2  1  0.57572200  0.15409900  0.71615300  1
  O  O3  1  0.92438400  0.65401900  0.78380600  1
  O  O4  1  0.13701300  0.09134300  0.38339600  1
  O  O5  1  0.36292000  0.59133800  0.11666900  1
  O  O6  1  0.63728500  0.40853500  0.88361300  1
  O  O7  1  0.86267000  0.90853600  0.61643900  1
  O  O8  1  0.20134200  0.35036100  0.66545300  1
  O  O9  1  0.29866400  0.85026100  0.83449600  1
  O  O10  1  0.70101400  0.14972400  0.16546400  1
  O  O11  1  0.79898000  0.64980700  0.33447600  1
  O  O12  1  0.16626600  0.12336900  0.00192200  1
  O  O13  1  0.33373300  0.62345000  0.49810200  1
  O  O14  1  0.66665900  0.37660000  0.50205300  1
  O  O15  1  0.83334500  0.87651700  0.99797200  1
loop_
_geom_bond_atom_site_label_1
_geom_bond_atom_site_label_2
_geom_bond_distance
_geom_bond_site_symmetry_2
Li0 O0 2.010206 1_555
Li0 O3 2.010424 1_454
Li0 O6 2.036318 1_454
Li0 O5 2.036363 1_555
Li1 O1 2.010020 1_545
Li1 O2 2.010506 1_555
Li1 O4 2.036349 1_555
Li1 O7 2.036425 1_545
Li2 O4 2.063296 1_555
Li2 O2 2.121879 1_455
Li2 O7 2.170495 1_445
Li2 O8 2.176620 1_555
Li2 O12 2.287597 1_556
Li3 O5 2.063022 1_556
Li3 O3 2.122745 1_555
Li3 O6 2.169980 1_555
Li3 O9 2.176119 1_555
Li3 O13 2.288019 1_555
Li4 O6 2.062785 1_554
Li4 O0 2.122405 1_555
Li4 O5 2.168856 1_555
Li4 O10 2.175324 1_555
Li4 O14 2.288291 1_555
Li5 O7 2.062367 1_555
Li5 O1 2.123303 1_655
Li5 O4 2.168340 1_665
Li5 O11 2.175000 1_555
Li5 O15 2.288687 1_554
Mn0 O9 1.954069 1_555
Mn0 O10 1.956071 1_566
Mn0 O12 1.958077 1_566
Mn0 O15 1.958545 1_555
Mn0 O2 2.384186 1_565
Mn0 O1 2.384706 1_556
Mn1 O8 1.955069 1_555
Mn1 O11 1.955082 1_455
Mn1 O13 1.957654 1_555
Mn1 O14 1.958955 1_455
Mn1 O3 2.383432 1_455
Mn1 O0 2.385169 1_555
O0 P0 1.547880 1_555
O1 P1 1.547784 1_555
O2 P2 1.547772 1_555
O3 P3 1.548215 1_555
O4 P0 1.524686 1_555
O5 P1 1.524575 1_555
O6 P2 1.524682 1_555
O7 P3 1.524693 1_555
O8 P2 1.579833 1_555
O9 P3 1.579726 1_455
O10 P0 1.579933 1_655
O11 P1 1.579989 1_555
O12 P0 1.575370 1_555
O13 P1 1.575550 1_555
O14 P2 1.575655 1_555
O15 P3 1.575521 1_555
