# generated using pymatgen
data_HfNbTc2
_symmetry_space_group_name_H-M   'P 1'
_cell_length_a   4.54378623
_cell_length_b   4.54379274
_cell_length_c   4.54379056
_cell_angle_alpha   60.00003686
_cell_angle_beta   60.00002105
_cell_angle_gamma   60.00002631
_symmetry_Int_Tables_number   1
_chemical_formula_structural   HfNbTc2
_chemical_formula_sum   'Hf1 Nb1 Tc2'
_cell_volume   66.33458071
_cell_formula_units_Z   1
loop_
 _symmetry_equiv_pos_site_id
 _symmetry_equiv_pos_as_xyz
  1  'x, y, z'
loop_
 _atom_site_type_symbol
 _atom_site_label
 _atom_site_symmetry_multiplicity
 _atom_site_fract_x
 _atom_site_fract_y
 _atom_site_fract_z
 _atom_site_occupancy
  Hf  Hf0  1  0.25000000  0.25000100  0.24999900  1
  Nb  Nb0  1  0.75000000  0.75000000  0.75000000  1
  Tc  Tc0  1  0.50000000  0.50000000  0.50000100  1
  Tc  Tc1  1  0.00000100  -0.00000000  -0.00000000  1
loop_
_geom_bond_atom_site_label_1
_geom_bond_atom_site_label_2
_geom_bond_distance
_geom_bond_site_symmetry_2
Hf0 Tc0 2.782486 1_554
Hf0 Tc1 2.782487 1_555
Hf0 Tc0 2.782490 1_455
Hf0 Tc1 2.782491 1_565
Hf0 Tc1 2.782494 1_655
Hf0 Tc0 2.782495 1_555
Hf0 Tc1 2.782497 1_556
Hf0 Tc0 2.782498 1_545
Nb0 Tc1 2.782486 1_566
Nb0 Tc0 2.782487 1_555
Nb0 Tc0 2.782490 1_655
Nb0 Tc1 2.782493 1_665
Nb0 Tc1 2.782495 1_656
Nb0 Tc0 2.782495 1_565
Nb0 Tc1 2.782495 1_666
Nb0 Tc0 2.782497 1_556
