# generated using pymatgen
data_Mo3Se(NO6)2
_symmetry_space_group_name_H-M   'P 1'
_cell_length_a   7.31315970
_cell_length_b   7.31315970
_cell_length_c   14.10192000
_cell_angle_alpha   90.00000000
_cell_angle_beta   90.00000000
_cell_angle_gamma   119.99999732
_symmetry_Int_Tables_number   1
_chemical_formula_structural   Mo3Se(NO6)2
_chemical_formula_sum   'Mo6 Se2 N4 O24'
_cell_volume   653.15913500
_cell_formula_units_Z   2
loop_
 _symmetry_equiv_pos_site_id
 _symmetry_equiv_pos_as_xyz
  1  'x, y, z'
loop_
 _atom_site_type_symbol
 _atom_site_label
 _atom_site_symmetry_multiplicity
 _atom_site_fract_x
 _atom_site_fract_y
 _atom_site_fract_z
 _atom_site_occupancy
  Mo  Mo0  1  0.80635700  0.14884100  0.59472700  1
  Mo  Mo1  1  0.85115900  0.65751600  0.59472700  1
  Mo  Mo2  1  0.34248400  0.19364300  0.59472700  1
  Mo  Mo3  1  0.19364300  0.85115900  0.09472700  1
  Mo  Mo4  1  0.14884100  0.34248400  0.09472700  1
  Mo  Mo5  1  0.65751600  0.80635700  0.09472700  1
  Se  Se0  1  0.00000000  0.00000000  0.79872200  1
  Se  Se1  1  0.00000000  0.00000000  0.29872200  1
  N  N0  1  0.33333300  0.66666700  0.39886500  1
  N  N1  1  0.66666700  0.33333300  0.89886500  1
  N  N2  1  0.33333300  0.66666700  0.77103800  1
  N  N3  1  0.66666700  0.33333300  0.27103800  1
  O  O0  1  0.76089100  0.87514200  0.61396100  1
  O  O1  1  0.12485800  0.88574900  0.61396100  1
  O  O2  1  0.11425100  0.23910900  0.61396100  1
  O  O3  1  0.23910900  0.12485800  0.11396100  1
  O  O4  1  0.87514200  0.11425100  0.11396100  1
  O  O5  1  0.88574900  0.76089100  0.11396100  1
  O  O6  1  0.79455500  0.16802800  0.47494800  1
  O  O7  1  0.83197200  0.62652700  0.47494800  1
  O  O8  1  0.37347300  0.20544500  0.47494800  1
  O  O9  1  0.20544500  0.83197200  0.97494800  1
  O  O10  1  0.16802800  0.37347300  0.97494800  1
  O  O11  1  0.62652700  0.79455500  0.97494800  1
  O  O12  1  0.53821900  0.09210400  0.63443200  1
  O  O13  1  0.90789600  0.44611600  0.63443200  1
  O  O14  1  0.55388400  0.46178100  0.63443200  1
  O  O15  1  0.46178100  0.90789600  0.13443200  1
  O  O16  1  0.09210400  0.55388400  0.13443200  1
  O  O17  1  0.44611600  0.53821900  0.13443200  1
  O  O18  1  0.86871400  0.12675100  0.79838000  1
  O  O19  1  0.87324900  0.74196400  0.79838000  1
  O  O20  1  0.25803600  0.13128600  0.79838000  1
  O  O21  1  0.13128600  0.87324900  0.29838000  1
  O  O22  1  0.12675100  0.25803600  0.29838000  1
  O  O23  1  0.74196400  0.86871400  0.29838000  1
loop_
_geom_bond_atom_site_label_1
_geom_bond_atom_site_label_2
_geom_bond_distance
_geom_bond_site_symmetry_2
Mo0 O6 1.700692 1_555
Mo0 O12 1.875446 1_555
Mo0 O0 1.877502 1_545
Mo0 O13 1.994221 1_555
Mo0 O2 2.023112 1_655
Mo1 O7 1.700692 1_555
Mo1 O13 1.875439 1_555
Mo1 O1 1.877502 1_655
Mo1 O14 1.994219 1_555
Mo1 O0 2.023112 1_555
Mo2 O8 1.700692 1_555
Mo2 O14 1.875443 1_555
Mo2 O2 1.877502 1_555
Mo2 O12 1.994214 1_555
Mo2 O1 2.023112 1_545
Mo3 O9 1.700692 1_554
Mo3 O15 1.875446 1_555
Mo3 O3 1.877502 1_565
Mo3 O16 1.994221 1_555
Mo3 O5 2.023112 1_455
Mo4 O10 1.700692 1_554
Mo4 O16 1.875439 1_555
Mo4 O4 1.877502 1_455
Mo4 O17 1.994219 1_555
Mo4 O3 2.023112 1_555
Mo5 O11 1.700692 1_554
Mo5 O17 1.875443 1_555
Mo5 O5 1.877502 1_555
Mo5 O15 1.994214 1_555
Mo5 O4 2.023112 1_565
O18 Se0 1.634338 1_655
O19 Se0 1.634332 1_665
O20 Se0 1.634332 1_555
O21 Se1 1.634338 1_565
O22 Se1 1.634332 1_555
O23 Se1 1.634332 1_665
