# generated using pymatgen
data_Li6TiFe5O12
_symmetry_space_group_name_H-M   'P 1'
_cell_length_a   5.03968360
_cell_length_b   5.03968360
_cell_length_c   10.11363800
_cell_angle_alpha   86.77763728
_cell_angle_beta   86.77763728
_cell_angle_gamma   118.50011586
_symmetry_Int_Tables_number   1
_chemical_formula_structural   Li6TiFe5O12
_chemical_formula_sum   'Li6 Ti1 Fe5 O12'
_cell_volume   224.37341315
_cell_formula_units_Z   1
loop_
 _symmetry_equiv_pos_site_id
 _symmetry_equiv_pos_as_xyz
  1  'x, y, z'
loop_
 _atom_site_type_symbol
 _atom_site_label
 _atom_site_symmetry_multiplicity
 _atom_site_fract_x
 _atom_site_fract_y
 _atom_site_fract_z
 _atom_site_occupancy
  Li  Li0  1  0.70654800  0.05432000  0.75655200  1
  Li  Li1  1  0.05432000  0.70654800  0.75655200  1
  Li  Li2  1  0.61639100  0.61639100  0.24370100  1
  Li  Li3  1  0.38360900  0.38360900  0.75629900  1
  Li  Li4  1  0.94568000  0.29345200  0.24344800  1
  Li  Li5  1  0.29345200  0.94568000  0.24344800  1
  Ti  Ti0  1  0.00000000  0.00000000  0.00000000  1
  Fe  Fe0  1  0.50000000  0.50000000  0.50000000  1
  Fe  Fe1  1  0.66493300  0.33506700  0.00000000  1
  Fe  Fe2  1  0.33506700  0.66493300  0.00000000  1
  Fe  Fe3  1  0.16869000  0.83131000  0.50000000  1
  Fe  Fe4  1  0.83131000  0.16869000  0.50000000  1
  O  O0  1  0.89003500  0.89003500  0.39275400  1
  O  O1  1  0.70951000  0.70951000  0.88379400  1
  O  O2  1  0.77777200  0.42491800  0.61836600  1
  O  O3  1  0.42491800  0.77777200  0.61836600  1
  O  O4  1  0.02716200  0.34624600  0.88375400  1
  O  O5  1  0.34624600  0.02716200  0.88375400  1
  O  O6  1  0.65375400  0.97283800  0.11624600  1
  O  O7  1  0.97283800  0.65375400  0.11624600  1
  O  O8  1  0.57508200  0.22222800  0.38163400  1
  O  O9  1  0.22222800  0.57508200  0.38163400  1
  O  O10  1  0.29049000  0.29049000  0.11620600  1
  O  O11  1  0.10996500  0.10996500  0.60724600  1
loop_
_geom_bond_atom_site_label_1
_geom_bond_atom_site_label_2
_geom_bond_distance
_geom_bond_site_symmetry_2
Li0 O5 2.109816 1_555
Li0 O1 2.109860 1_545
Li0 O3 2.112892 1_545
Li0 O2 2.140255 1_555
Li0 O4 2.146662 1_655
Li0 O11 2.356999 1_655
Li1 O4 2.109816 1_555
Li1 O1 2.109860 1_455
Li1 O2 2.112892 1_455
Li1 O3 2.140255 1_555
Li1 O5 2.146662 1_565
Li1 O11 2.356999 1_565
Li2 O7 2.076928 1_555
Li2 O6 2.076928 1_555
Li2 O0 2.174541 1_555
Li2 O10 2.227029 1_555
Li2 O8 2.279593 1_555
Li2 O9 2.279593 1_555
Li3 O4 2.076928 1_555
Li3 O5 2.076928 1_555
Li3 O11 2.174541 1_555
Li3 O1 2.227029 1_555
Li3 O2 2.279593 1_555
Li3 O3 2.279593 1_555
Li4 O7 2.109816 1_555
Li4 O10 2.109860 1_655
Li4 O9 2.112892 1_655
Li4 O8 2.140255 1_555
Li4 O6 2.146662 1_545
Li4 O0 2.356999 1_545
Li5 O6 2.109816 1_555
Li5 O10 2.109860 1_565
Li5 O8 2.112892 1_565
Li5 O9 2.140255 1_555
Li5 O7 2.146662 1_455
Li5 O0 2.356999 1_455
Fe0 O3 2.044237 1_555
Fe0 O8 2.044237 1_555
Fe0 O2 2.044237 1_555
Fe0 O9 2.044237 1_555
Fe0 O11 2.176549 1_555
Fe0 O0 2.176549 1_555
Fe1 O10 2.075856 1_555
Fe1 O1 2.075856 1_554
Fe1 O4 2.090698 1_654
Fe1 O6 2.090698 1_545
Fe1 O5 2.099666 1_554
Fe1 O7 2.099666 1_555
Fe2 O10 2.075856 1_555
Fe2 O1 2.075856 1_554
Fe2 O5 2.090698 1_564
Fe2 O7 2.090698 1_455
Fe2 O6 2.099666 1_555
Fe2 O4 2.099666 1_554
Fe3 O3 1.908749 1_555
Fe3 O9 1.908749 1_555
Fe3 O0 1.941131 1_455
Fe3 O11 1.941131 1_565
Fe3 O2 2.262219 1_455
Fe3 O8 2.262219 1_565
Fe4 O2 1.908749 1_555
Fe4 O8 1.908749 1_555
Fe4 O0 1.941131 1_545
Fe4 O11 1.941131 1_655
Fe4 O3 2.262219 1_545
Fe4 O9 2.262219 1_655
O1 Ti0 2.002309 1_666
O4 Ti0 1.992279 1_556
O5 Ti0 1.992279 1_556
O6 Ti0 1.992279 1_665
O7 Ti0 1.992279 1_665
O10 Ti0 2.002309 1_555
