# generated using pymatgen
data_K2Y4Cu4Se9
_symmetry_space_group_name_H-M   'P 1'
_cell_length_a   7.46931931
_cell_length_b   7.46931931
_cell_length_c   16.55627114
_cell_angle_alpha   71.38725369
_cell_angle_beta   71.38725369
_cell_angle_gamma   32.04369378
_symmetry_Int_Tables_number   1
_chemical_formula_structural   K2Y4Cu4Se9
_chemical_formula_sum   'K2 Y4 Cu4 Se9'
_cell_volume   462.26716341
_cell_formula_units_Z   1
loop_
 _symmetry_equiv_pos_site_id
 _symmetry_equiv_pos_as_xyz
  1  'x, y, z'
loop_
 _atom_site_type_symbol
 _atom_site_label
 _atom_site_symmetry_multiplicity
 _atom_site_fract_x
 _atom_site_fract_y
 _atom_site_fract_z
 _atom_site_occupancy
  K  K0  1  0.03269300  0.03269300  0.73104700  1
  K  K1  1  0.96730700  0.96730700  0.26895300  1
  Y  Y0  1  0.23190800  0.23190800  0.89695700  1
  Y  Y1  1  0.34487900  0.34487900  0.55589000  1
  Y  Y2  1  0.65512100  0.65512100  0.44411000  1
  Y  Y3  1  0.76809200  0.76809200  0.10304300  1
  Cu  Cu0  1  0.42521500  0.42521500  0.97091100  1
  Cu  Cu1  1  0.76001600  0.76001600  0.72861700  1
  Cu  Cu2  1  0.23998400  0.23998400  0.27138300  1
  Cu  Cu3  1  0.57478500  0.57478500  0.02908900  1
  Se  Se0  1  0.86540100  0.86540100  0.92196100  1
  Se  Se1  1  0.60710800  0.60710800  0.87043500  1
  Se  Se2  1  0.35560900  0.35560900  0.72264200  1
  Se  Se3  1  0.69814700  0.69814700  0.60479200  1
  Se  Se4  1  0.00000000  0.00000000  0.50000000  1
  Se  Se5  1  0.30185300  0.30185300  0.39520800  1
  Se  Se6  1  0.64439100  0.64439100  0.27735800  1
  Se  Se7  1  0.39289200  0.39289200  0.12956500  1
  Se  Se8  1  0.13459900  0.13459900  0.07803900  1
loop_
_geom_bond_atom_site_label_1
_geom_bond_atom_site_label_2
_geom_bond_distance
_geom_bond_site_symmetry_2
K0 Se0 3.273865 1_445
K0 Se3 3.311366 1_455
K0 Se3 3.311366 1_545
K0 Se2 3.312007 1_455
K0 Se2 3.312007 1_545
K0 Se1 3.514966 1_545
K0 Se1 3.514966 1_455
K1 Se8 3.273865 1_665
K1 Se5 3.311366 1_565
K1 Se5 3.311366 1_655
K1 Se6 3.312007 1_655
K1 Se6 3.312007 1_565
K1 Se7 3.514966 1_655
K1 Se7 3.514966 1_565
Cu0 Se0 2.471169 1_455
Cu0 Se0 2.471169 1_545
Cu0 Se7 2.511058 1_556
Cu0 Se1 2.588973 1_555
Cu1 Se2 2.460399 1_565
Cu1 Se2 2.460399 1_655
Cu1 Se3 2.490277 1_555
Cu1 Se1 2.628617 1_555
Cu2 Se6 2.460399 1_545
Cu2 Se6 2.460399 1_455
Cu2 Se5 2.490277 1_555
Cu2 Se7 2.628617 1_555
Cu3 Se8 2.471169 1_655
Cu3 Se8 2.471169 1_565
Cu3 Se1 2.511058 1_554
Cu3 Se7 2.588973 1_555
Se0 Y3 2.856299 1_556
Se0 Y0 2.936373 1_565
Se0 Y0 2.936373 1_655
Se1 Y0 2.859443 1_655
Se1 Y0 2.859443 1_565
Se2 Y1 2.815704 1_555
Se2 Y0 2.842424 1_555
Se3 Y1 2.865558 1_655
Se3 Y1 2.865558 1_565
Se3 Y2 2.924094 1_555
Se4 Y2 2.949287 1_545
Se4 Y2 2.949287 1_455
Se4 Y1 2.949287 1_545
Se4 Y1 2.949287 1_455
Se5 Y2 2.865558 1_455
Se5 Y2 2.865558 1_545
Se5 Y1 2.924094 1_555
Se6 Y2 2.815704 1_555
Se6 Y3 2.842424 1_555
Se7 Y3 2.859443 1_455
Se7 Y3 2.859443 1_545
Se8 Y0 2.856299 1_554
Se8 Y3 2.936373 1_455
Se8 Y3 2.936373 1_545
