# generated using pymatgen
data_CaSnS3
_symmetry_space_group_name_H-M   'P 1'
_cell_length_a   6.73063800
_cell_length_b   7.06358000
_cell_length_c   9.63491800
_cell_angle_alpha   90.00000000
_cell_angle_beta   90.00000000
_cell_angle_gamma   90.00000000
_symmetry_Int_Tables_number   1
_chemical_formula_structural   CaSnS3
_chemical_formula_sum   'Ca4 Sn4 S12'
_cell_volume   458.06712518
_cell_formula_units_Z   4
loop_
 _symmetry_equiv_pos_site_id
 _symmetry_equiv_pos_as_xyz
  1  'x, y, z'
loop_
 _atom_site_type_symbol
 _atom_site_label
 _atom_site_symmetry_multiplicity
 _atom_site_fract_x
 _atom_site_fract_y
 _atom_site_fract_z
 _atom_site_occupancy
  Ca  Ca0  1  0.46857200  0.91196400  0.25000000  1
  Ca  Ca1  1  0.03142800  0.41196400  0.25000000  1
  Ca  Ca2  1  0.53142800  0.08803600  0.75000000  1
  Ca  Ca3  1  0.96857200  0.58803600  0.75000000  1
  Sn  Sn0  1  0.50000000  0.50000000  0.00000000  1
  Sn  Sn1  1  0.00000000  0.00000000  0.50000000  1
  Sn  Sn2  1  0.50000000  0.50000000  0.50000000  1
  Sn  Sn3  1  0.00000000  0.00000000  0.00000000  1
  S  S0  1  0.63313300  0.54838600  0.25000000  1
  S  S1  1  0.86686700  0.04838600  0.25000000  1
  S  S2  1  0.36686700  0.45161400  0.75000000  1
  S  S3  1  0.13313300  0.95161400  0.75000000  1
  S  S4  1  0.18597700  0.69105200  0.43507700  1
  S  S5  1  0.31402300  0.19105200  0.06492300  1
  S  S6  1  0.81402300  0.30894800  0.93507700  1
  S  S7  1  0.68597700  0.80894800  0.56492300  1
  S  S8  1  0.81402300  0.30894800  0.56492300  1
  S  S9  1  0.68597700  0.80894800  0.93507700  1
  S  S10  1  0.18597700  0.69105200  0.06492300  1
  S  S11  1  0.31402300  0.19105200  0.43507700  1
loop_
_geom_bond_atom_site_label_1
_geom_bond_atom_site_label_2
_geom_bond_distance
_geom_bond_site_symmetry_2
Ca0 S0 2.796826 1_555
Ca0 S1 2.848711 1_565
Ca0 S5 2.854490 1_565
Ca0 S11 2.854490 1_565
Ca0 S10 3.038507 1_555
Ca0 S4 3.038507 1_555
Ca0 S7 3.446358 1_555
Ca0 S9 3.446358 1_554
Ca1 S1 2.796826 1_455
Ca1 S0 2.848711 1_455
Ca1 S10 2.854490 1_555
Ca1 S4 2.854490 1_555
Ca1 S11 3.038507 1_555
Ca1 S5 3.038507 1_555
Ca1 S8 3.446358 1_455
Ca1 S6 3.446358 1_454
Ca2 S2 2.796826 1_555
Ca2 S3 2.848711 1_545
Ca2 S9 2.854490 1_545
Ca2 S7 2.854490 1_545
Ca2 S6 3.038507 1_555
Ca2 S8 3.038507 1_555
Ca2 S11 3.446358 1_555
Ca2 S5 3.446358 1_556
Ca3 S3 2.796826 1_655
Ca3 S2 2.848711 1_655
Ca3 S6 2.854490 1_555
Ca3 S8 2.854490 1_555
Ca3 S9 3.038507 1_555
Ca3 S7 3.038507 1_555
Ca3 S10 3.446358 1_656
Ca3 S4 3.446358 1_655
S0 Sn0 2.592630 1_555
S0 Sn2 2.592630 1_555
S1 Sn3 2.592630 1_655
S1 Sn1 2.592630 1_655
S2 Sn2 2.592630 1_555
S2 Sn0 2.592630 1_556
S3 Sn1 2.592630 1_565
S3 Sn3 2.592630 1_566
S4 Sn2 2.584505 1_555
S4 Sn1 2.592391 1_565
S5 Sn3 2.584505 1_555
S5 Sn0 2.592391 1_555
S6 Sn0 2.584505 1_556
S6 Sn3 2.592391 1_656
S7 Sn1 2.584505 1_665
S7 Sn2 2.592391 1_555
S8 Sn2 2.584505 1_555
S8 Sn1 2.592391 1_655
S9 Sn3 2.584505 1_666
S9 Sn0 2.592391 1_556
S10 Sn0 2.584505 1_555
S10 Sn3 2.592391 1_565
S11 Sn1 2.584505 1_555
S11 Sn2 2.592391 1_555
