# generated using pymatgen
data_Sc2GaRu
_symmetry_space_group_name_H-M   'P 1'
_cell_length_a   4.61981733
_cell_length_b   4.61981733
_cell_length_c   4.61981733
_cell_angle_alpha   60.00000000
_cell_angle_beta   60.00000000
_cell_angle_gamma   60.00000000
_symmetry_Int_Tables_number   1
_chemical_formula_structural   Sc2GaRu
_chemical_formula_sum   'Sc2 Ga1 Ru1'
_cell_volume   69.72032653
_cell_formula_units_Z   1
loop_
 _symmetry_equiv_pos_site_id
 _symmetry_equiv_pos_as_xyz
  1  'x, y, z'
loop_
 _atom_site_type_symbol
 _atom_site_label
 _atom_site_symmetry_multiplicity
 _atom_site_fract_x
 _atom_site_fract_y
 _atom_site_fract_z
 _atom_site_occupancy
  Sc  Sc0  1  0.49999900  0.49999900  0.49999900  1
  Sc  Sc1  1  -0.00000000  0.00000000  0.00000000  1
  Ga  Ga0  1  0.25000000  0.25000000  0.25000000  1
  Ru  Ru0  1  0.75000000  0.75000000  0.75000000  1
loop_
_geom_bond_atom_site_label_1
_geom_bond_atom_site_label_2
_geom_bond_distance
_geom_bond_site_symmetry_2
Ga0 Sc0 2.829037 1_555
Ga0 Sc1 2.829049 1_555
Ga0 Sc1 2.829049 1_556
Ga0 Sc1 2.829049 1_565
Ga0 Sc1 2.829049 1_655
Ga0 Sc0 2.829053 1_455
Ga0 Sc0 2.829053 1_545
Ga0 Sc0 2.829053 1_554
Ru0 Sc0 2.829045 1_655
Ru0 Sc0 2.829045 1_565
Ru0 Sc0 2.829045 1_556
Ru0 Sc1 2.829049 1_656
Ru0 Sc1 2.829049 1_665
Ru0 Sc1 2.829049 1_666
Ru0 Sc1 2.829049 1_566
Ru0 Sc0 2.829060 1_555
