# generated using pymatgen
data_Li4Ni(PO3)6
_symmetry_space_group_name_H-M   'P 1'
_cell_length_a   7.30257270
_cell_length_b   7.30257270
_cell_length_c   13.92682037
_cell_angle_alpha   86.71082888
_cell_angle_beta   86.71082888
_cell_angle_gamma   64.01485990
_symmetry_Int_Tables_number   1
_chemical_formula_structural   Li4Ni(PO3)6
_chemical_formula_sum   'Li8 Ni2 P12 O36'
_cell_volume   666.07397509
_cell_formula_units_Z   2
loop_
 _symmetry_equiv_pos_site_id
 _symmetry_equiv_pos_as_xyz
  1  'x, y, z'
loop_
 _atom_site_type_symbol
 _atom_site_label
 _atom_site_symmetry_multiplicity
 _atom_site_fract_x
 _atom_site_fract_y
 _atom_site_fract_z
 _atom_site_occupancy
  Li  Li0  1  0.96138400  0.70096300  0.92379300  1
  Li  Li1  1  0.70096300  0.96138400  0.42379300  1
  Li  Li2  1  0.78351800  0.55791000  0.54684000  1
  Li  Li3  1  0.55791000  0.78351800  0.04684000  1
  Li  Li4  1  0.44209000  0.21648200  0.95316000  1
  Li  Li5  1  0.21648200  0.44209000  0.45316000  1
  Li  Li6  1  0.29903700  0.03861600  0.57620700  1
  Li  Li7  1  0.03861600  0.29903700  0.07620700  1
  Ni  Ni0  1  0.37029900  0.62970100  0.75000000  1
  Ni  Ni1  1  0.62970100  0.37029900  0.25000000  1
  P  P0  1  0.96552000  0.85164900  0.61509200  1
  P  P1  1  0.85164900  0.96552000  0.11509200  1
  P  P2  1  0.62845800  0.90412100  0.75245700  1
  P  P3  1  0.90412100  0.62845800  0.25245700  1
  P  P4  1  0.76799500  0.40145600  0.88832700  1
  P  P5  1  0.40145600  0.76799500  0.38832700  1
  P  P6  1  0.59854400  0.23200500  0.61167300  1
  P  P7  1  0.23200500  0.59854400  0.11167300  1
  P  P8  1  0.09587900  0.37154200  0.74754300  1
  P  P9  1  0.37154200  0.09587900  0.24754300  1
  P  P10  1  0.14835100  0.03448000  0.88490800  1
  P  P11  1  0.03448000  0.14835100  0.38490800  1
  O  O0  1  0.86458600  0.81260500  0.71492600  1
  O  O1  1  0.91673300  0.75351800  0.53445800  1
  O  O2  1  0.81260500  0.86458600  0.21492600  1
  O  O3  1  0.75351800  0.91673300  0.03445800  1
  O  O4  1  0.62913700  0.90061100  0.85927300  1
  O  O5  1  0.90061100  0.62913700  0.35927300  1
  O  O6  1  0.80986900  0.50409700  0.96964800  1
  O  O7  1  0.52033300  0.80528100  0.70085500  1
  O  O8  1  0.86225100  0.45200400  0.78828000  1
  O  O9  1  0.50409700  0.80986900  0.46964800  1
  O  O10  1  0.80528100  0.52033300  0.20085500  1
  O  O11  1  0.45200400  0.86225100  0.28828000  1
  O  O12  1  0.90210200  0.15609700  0.89957500  1
  O  O13  1  0.19338000  0.81845800  0.86531300  1
  O  O14  1  0.55448100  0.43665200  0.86891200  1
  O  O15  1  0.15609700  0.90210200  0.39957500  1
  O  O16  1  0.56334800  0.44551900  0.63108800  1
  O  O17  1  0.81845800  0.19338000  0.36531300  1
  O  O18  1  0.18154200  0.80662000  0.63468700  1
  O  O19  1  0.43665200  0.55448100  0.36891200  1
  O  O20  1  0.84390300  0.09789800  0.60042500  1
  O  O21  1  0.44551900  0.56334800  0.13108800  1
  O  O22  1  0.80662000  0.18154200  0.13468700  1
  O  O23  1  0.09789800  0.84390300  0.10042500  1
  O  O24  1  0.54799600  0.13774900  0.71172000  1
  O  O25  1  0.19471900  0.47966700  0.79914500  1
  O  O26  1  0.49590300  0.19013100  0.53035200  1
  O  O27  1  0.13774900  0.54799600  0.21172000  1
  O  O28  1  0.47966700  0.19471900  0.29914500  1
  O  O29  1  0.19013100  0.49590300  0.03035200  1
  O  O30  1  0.09938900  0.37086300  0.64072700  1
  O  O31  1  0.37086300  0.09938900  0.14072700  1
  O  O32  1  0.24648200  0.08326700  0.96554200  1
  O  O33  1  0.18739500  0.13541400  0.78507400  1
  O  O34  1  0.08326700  0.24648200  0.46554200  1
  O  O35  1  0.13541400  0.18739500  0.28507400  1
loop_
_geom_bond_atom_site_label_1
_geom_bond_atom_site_label_2
_geom_bond_distance
_geom_bond_site_symmetry_2
Li0 O6 2.215008 1_555
Li0 O29 2.252250 1_656
Li0 O3 2.253132 1_556
Li0 O13 2.303250 1_655
Li0 O4 2.412444 1_555
Li0 O25 2.469424 1_655
Li1 O9 2.215008 1_555
Li1 O26 2.252250 1_565
Li1 O1 2.253132 1_555
Li1 O17 2.303250 1_565
Li1 O5 2.412444 1_555
Li1 O28 2.469424 1_565
Li2 O1 2.046145 1_555
Li2 O9 2.332290 1_555
Li2 O16 2.337663 1_555
Li2 O30 2.505274 1_655
Li2 O34 2.625707 1_655
Li3 O3 2.046145 1_555
Li3 O6 2.332290 1_554
Li3 O21 2.337663 1_555
Li3 O31 2.505274 1_565
Li3 O32 2.625707 1_564
Li4 O32 2.046145 1_555
Li4 O29 2.332290 1_556
Li4 O14 2.337663 1_555
Li4 O4 2.505274 1_545
Li4 O3 2.625707 1_546
Li5 O34 2.046145 1_555
Li5 O26 2.332290 1_555
Li5 O19 2.337663 1_555
Li5 O5 2.505274 1_455
Li5 O1 2.625707 1_455
Li6 O26 2.215008 1_555
Li6 O9 2.252250 1_545
Li6 O34 2.253132 1_555
Li6 O18 2.303250 1_545
Li6 O30 2.412444 1_555
Li6 O7 2.469424 1_545
Li7 O29 2.215008 1_555
Li7 O6 2.252250 1_454
Li7 O32 2.253132 1_554
Li7 O22 2.303250 1_455
Li7 O31 2.412444 1_555
Li7 O10 2.469424 1_455
Ni0 O25 2.087369 1_555
Ni0 O7 2.087369 1_555
Ni0 O18 2.145612 1_555
Ni0 O13 2.145612 1_555
Ni0 O14 2.205711 1_555
Ni0 O16 2.205711 1_555
Ni1 O28 2.087369 1_555
Ni1 O10 2.087369 1_555
Ni1 O22 2.145612 1_555
Ni1 O17 2.145612 1_555
Ni1 O21 2.205711 1_555
Ni1 O19 2.205711 1_555
O0 P0 1.605856 1_555
O0 P2 1.618654 1_555
O1 P0 1.504494 1_555
O2 P1 1.605856 1_555
O2 P3 1.618654 1_555
O3 P1 1.504494 1_555
O4 P2 1.486612 1_555
O5 P3 1.486612 1_555
O6 P4 1.508632 1_555
O7 P2 1.511598 1_555
O8 P4 1.613997 1_555
O8 P8 1.620678 1_655
O9 P5 1.508632 1_555
O10 P3 1.511598 1_555
O11 P5 1.613997 1_555
O11 P9 1.620678 1_565
O12 P4 1.625355 1_555
O12 P10 1.625850 1_655
O13 P10 1.501902 1_565
O14 P4 1.503169 1_555
O15 P5 1.625355 1_555
O15 P11 1.625850 1_565
O16 P6 1.503169 1_555
O17 P11 1.501902 1_655
O18 P0 1.501902 1_455
O19 P5 1.503169 1_555
O20 P6 1.625355 1_555
O20 P0 1.625850 1_545
O21 P7 1.503169 1_555
O22 P1 1.501902 1_545
O23 P7 1.625355 1_555
O23 P1 1.625850 1_455
O24 P6 1.613997 1_555
O24 P2 1.620678 1_545
O25 P8 1.511598 1_555
O26 P6 1.508632 1_555
O27 P7 1.613997 1_555
O27 P3 1.620678 1_455
O28 P9 1.511598 1_555
O29 P7 1.508632 1_555
O30 P8 1.486612 1_555
O31 P9 1.486612 1_555
O32 P10 1.504494 1_555
O33 P10 1.605856 1_555
O33 P8 1.618654 1_555
O34 P11 1.504494 1_555
O35 P11 1.605856 1_555
O35 P9 1.618654 1_555
