# generated using pymatgen
data_VP2H8(NO4)2
_symmetry_space_group_name_H-M   'P 1'
_cell_length_a   5.81121800
_cell_length_b   8.42552400
_cell_length_c   8.42597400
_cell_angle_alpha   90.00000000
_cell_angle_beta   90.00000000
_cell_angle_gamma   90.00000000
_symmetry_Int_Tables_number   1
_chemical_formula_structural   VP2H8(NO4)2
_chemical_formula_sum   'V2 P4 H16 N4 O16'
_cell_volume   412.55722997
_cell_formula_units_Z   2
loop_
 _symmetry_equiv_pos_site_id
 _symmetry_equiv_pos_as_xyz
  1  'x, y, z'
loop_
 _atom_site_type_symbol
 _atom_site_label
 _atom_site_symmetry_multiplicity
 _atom_site_fract_x
 _atom_site_fract_y
 _atom_site_fract_z
 _atom_site_occupancy
  V  V0  1  0.00000000  0.09692600  0.00000000  1
  V  V1  1  0.50000000  0.09692600  0.50000000  1
  P  P0  1  0.37179400  0.11197400  0.12824200  1
  P  P1  1  0.87179400  0.11197400  0.37175800  1
  P  P2  1  0.12820600  0.11197400  0.62824200  1
  P  P3  1  0.62820600  0.11197400  0.87175800  1
  H  H0  1  0.59777500  0.69433000  0.09839100  1
  H  H1  1  0.74912300  0.50914900  0.10839800  1
  H  H2  1  0.73685800  0.73077200  0.23783200  1
  H  H3  1  0.60805100  0.50835700  0.24925700  1
  H  H4  1  0.10805100  0.50835700  0.25074300  1
  H  H5  1  0.23685800  0.73077200  0.26216800  1
  H  H6  1  0.24912300  0.50914900  0.39160200  1
  H  H7  1  0.09777500  0.69433000  0.40160900  1
  H  H8  1  0.90222500  0.69433000  0.59839100  1
  H  H9  1  0.75087700  0.50914900  0.60839800  1
  H  H10  1  0.76314200  0.73077200  0.73783200  1
  H  H11  1  0.89194900  0.50835700  0.74925700  1
  H  H12  1  0.39194900  0.50835700  0.75074300  1
  H  H13  1  0.26314200  0.73077200  0.76216800  1
  H  H14  1  0.25087700  0.50914900  0.89160200  1
  H  H15  1  0.40222500  0.69433000  0.90160900  1
  N  N0  1  0.67352000  0.61051300  0.17401600  1
  N  N1  1  0.17352000  0.61051300  0.32598400  1
  N  N2  1  0.82648000  0.61051300  0.67401600  1
  N  N3  1  0.32648000  0.61051300  0.82598400  1
  O  O0  1  0.00000000  0.37909500  0.00000000  1
  O  O1  1  0.50000000  0.00434500  0.00000000  1
  O  O2  1  0.21513300  0.99637800  0.07595800  1
  O  O3  1  0.37322600  0.36894700  0.12703600  1
  O  O4  1  0.92400300  0.99641900  0.21515400  1
  O  O5  1  0.42400300  0.99641900  0.28484600  1
  O  O6  1  0.87322600  0.36894700  0.37296400  1
  O  O7  1  0.71513300  0.99637800  0.42404200  1
  O  O8  1  0.50000000  0.37909500  0.50000000  1
  O  O9  1  0.00000000  0.00434500  0.50000000  1
  O  O10  1  0.28486700  0.99637800  0.57595800  1
  O  O11  1  0.12677400  0.36894700  0.62703600  1
  O  O12  1  0.57599700  0.99641900  0.71515400  1
  O  O13  1  0.07599700  0.99641900  0.78484600  1
  O  O14  1  0.62677400  0.36894700  0.87296400  1
  O  O15  1  0.78486700  0.99637800  0.92404200  1
loop_
_geom_bond_atom_site_label_1
_geom_bond_atom_site_label_2
_geom_bond_distance
_geom_bond_site_symmetry_2
H0 N0 1.048100 1_555
H1 N0 1.108201 1_555
H2 N0 1.204689 1_555
H3 N0 1.134685 1_555
H4 N1 1.134685 1_555
H5 N1 1.204689 1_555
H6 N1 1.108201 1_555
H7 N1 1.048100 1_555
H8 N2 1.048100 1_555
H9 N2 1.108201 1_555
H10 N2 1.204689 1_555
H11 N2 1.134685 1_555
H12 N3 1.134685 1_555
H13 N3 1.204689 1_555
H14 N3 1.108201 1_555
H15 N3 1.048100 1_555
O0 V0 2.377422 1_555
O1 P0 1.595316 1_555
O1 P3 1.595316 1_554
O2 P0 1.404095 1_565
O2 V0 1.640209 1_565
O3 P0 2.165172 1_555
O4 P1 1.667681 1_565
O4 V0 2.049071 1_665
O5 P0 1.667681 1_565
O5 V1 2.049071 1_565
O6 P1 2.165172 1_555
O7 P1 1.404095 1_565
O7 V1 1.640209 1_565
O8 V1 2.377422 1_555
O9 P2 1.595316 1_555
O9 P1 1.595316 1_455
O10 P2 1.404095 1_565
O10 V1 1.640209 1_565
O11 P2 2.165172 1_555
O12 P3 1.667681 1_565
O12 V1 2.049071 1_565
O13 P2 1.667681 1_565
O13 V0 2.049071 1_566
O14 P3 2.165172 1_555
O15 P3 1.404095 1_565
O15 V0 1.640209 1_666
