# generated using pymatgen
data_Li2FeO3
_symmetry_space_group_name_H-M   'P 1'
_cell_length_a   5.15388153
_cell_length_b   8.32042664
_cell_length_c   5.14971479
_cell_angle_alpha   90.00003484
_cell_angle_beta   113.34068882
_cell_angle_gamma   89.99999476
_symmetry_Int_Tables_number   1
_chemical_formula_structural   Li2FeO3
_chemical_formula_sum   'Li8 Fe4 O12'
_cell_volume   202.76082813
_cell_formula_units_Z   4
loop_
 _symmetry_equiv_pos_site_id
 _symmetry_equiv_pos_as_xyz
  1  'x, y, z'
loop_
 _atom_site_type_symbol
 _atom_site_label
 _atom_site_symmetry_multiplicity
 _atom_site_fract_x
 _atom_site_fract_y
 _atom_site_fract_z
 _atom_site_occupancy
  Li  Li0  1  0.74999755  0.25004914  0.00000174  1
  Li  Li1  1  0.25000357  0.74997439  -0.00000252  1
  Li  Li2  1  0.25000317  0.24979083  0.49999692  1
  Li  Li3  1  0.75000870  0.75020910  0.49999559  1
  Li  Li4  1  0.24999963  0.08681238  0.00000070  1
  Li  Li5  1  0.74999768  0.58680705  -0.00000203  1
  Li  Li6  1  0.24999758  0.41317691  -0.00000058  1
  Li  Li7  1  0.74999990  0.91320171  -0.00000036  1
  Fe  Fe0  1  0.25001211  0.92134224  0.49999538  1
  Fe  Fe1  1  0.25001305  0.57861606  0.49999571  1
  Fe  Fe2  1  0.75001176  0.42137311  0.49999708  1
  Fe  Fe3  1  0.75001191  0.07868083  0.49999883  1
  O  O0  1  0.96182224  0.24999431  0.73011569  1
  O  O1  1  0.46176644  0.74999542  0.73006873  1
  O  O2  1  0.53817644  0.24999428  0.26989457  1
  O  O3  1  0.03823261  0.74999502  0.26993898  1
  O  O4  1  0.48694353  0.07090125  0.73073784  1
  O  O5  1  -0.01304062  0.57088977  0.73073210  1
  O  O6  1  0.01304272  0.07090272  0.26926417  1
  O  O7  1  0.51302736  0.57089218  0.26926844  1
  O  O8  1  0.01302222  0.42906974  0.26925988  1
  O  O9  1  0.51304440  0.92912746  0.26927307  1
  O  O10  1  0.48696393  0.42907176  0.73074100  1
  O  O11  1  -0.01305887  0.92913033  0.73072605  1
loop_
_geom_bond_atom_site_label_1
_geom_bond_atom_site_label_2
_geom_bond_distance
_geom_bond_site_symmetry_2
Li0 O0 2.079857 1_554
Li0 O2 2.079873 1_555
Li0 O8 2.118858 1_655
Li0 O10 2.118893 1_554
Li0 O6 2.119644 1_655
Li0 O4 2.119672 1_554
Li1 O1 2.079798 1_554
Li1 O3 2.079889 1_555
Li1 O7 2.119244 1_555
Li1 O5 2.119285 1_554
Li1 O9 2.119700 1_555
Li1 O11 2.119752 1_554
Li2 O4 1.992190 1_555
Li2 O6 1.992204 1_555
Li2 O10 1.994669 1_555
Li2 O8 1.994683 1_555
Li2 O2 2.237083 1_555
Li2 O0 2.237184 1_455
Li3 O11 1.992352 1_655
Li3 O9 1.992382 1_555
Li3 O5 1.994875 1_655
Li3 O7 1.994902 1_555
Li3 O3 2.237124 1_655
Li3 O1 2.237274 1_555
Li4 O9 1.998129 1_545
Li4 O11 1.998146 1_544
Li4 O0 2.084546 1_454
Li4 O2 2.084562 1_555
Li4 O4 2.184794 1_554
Li4 O6 2.184850 1_555
Li5 O10 1.998347 1_554
Li5 O8 1.998350 1_655
Li5 O1 2.084793 1_554
Li5 O3 2.084822 1_655
Li5 O5 2.184884 1_654
Li5 O7 2.184940 1_555
Li6 O7 1.998255 1_555
Li6 O5 1.998257 1_554
Li6 O0 2.084542 1_454
Li6 O2 2.084574 1_555
Li6 O10 2.184860 1_554
Li6 O8 2.184905 1_555
Li7 O6 1.998195 1_665
Li7 O4 1.998210 1_564
Li7 O1 2.084898 1_554
Li7 O3 2.084916 1_655
Li7 O11 2.184839 1_654
Li7 O9 2.184896 1_555
Fe0 O4 1.817095 1_565
Fe0 O6 1.817162 1_565
Fe0 O1 1.898102 1_555
Fe0 O3 1.898112 1_555
Fe0 O9 2.128374 1_555
Fe0 O11 2.128580 1_555
Fe1 O10 1.817059 1_555
Fe1 O8 1.817135 1_555
Fe1 O1 1.898302 1_555
Fe1 O3 1.898313 1_555
Fe1 O7 2.128299 1_555
Fe1 O5 2.128512 1_555
Fe2 O5 1.816873 1_655
Fe2 O7 1.816953 1_555
Fe2 O0 1.898489 1_555
Fe2 O2 1.898498 1_555
Fe2 O8 2.128317 1_655
Fe2 O10 2.128511 1_555
Fe3 O11 1.817012 1_645
Fe3 O9 1.817106 1_545
Fe3 O0 1.898076 1_555
Fe3 O2 1.898094 1_555
Fe3 O6 2.128417 1_655
Fe3 O4 2.128602 1_555
