# generated using pymatgen
data_Gd5(C2Cl)3
_symmetry_space_group_name_H-M   'P 1'
_cell_length_a   11.02271365
_cell_length_b   11.02271365
_cell_length_c   15.36541713
_cell_angle_alpha   57.38447449
_cell_angle_beta   122.61552551
_cell_angle_gamma   160.49703684
_symmetry_Int_Tables_number   1
_chemical_formula_structural   Gd5(C2Cl)3
_chemical_formula_sum   'Gd10 C12 Cl6'
_cell_volume   521.80465298
_cell_formula_units_Z   2
loop_
 _symmetry_equiv_pos_site_id
 _symmetry_equiv_pos_as_xyz
  1  'x, y, z'
loop_
 _atom_site_type_symbol
 _atom_site_label
 _atom_site_symmetry_multiplicity
 _atom_site_fract_x
 _atom_site_fract_y
 _atom_site_fract_z
 _atom_site_occupancy
  Gd  Gd0  1  0.17249500  0.82750500  0.38006100  1
  Gd  Gd1  1  0.82750500  0.17249500  0.61993900  1
  Gd  Gd2  1  0.83312800  0.16687300  0.39066800  1
  Gd  Gd3  1  0.16687300  0.83312800  0.60933100  1
  Gd  Gd4  1  0.49270300  0.50729700  0.10409400  1
  Gd  Gd5  1  0.50729800  0.49270300  0.89590500  1
  Gd  Gd6  1  0.16449900  0.83550100  0.13960000  1
  Gd  Gd7  1  0.83550100  0.16449900  0.86040100  1
  Gd  Gd8  1  0.49394600  0.50605500  0.38632100  1
  Gd  Gd9  1  0.50605500  0.49394500  0.61367900  1
  C  C0  1  0.03712800  0.96287200  0.52998900  1
  C  C1  1  0.96287300  0.03712800  0.47001100  1
  C  C2  1  0.69679400  0.30320600  0.27678600  1
  C  C3  1  0.30320600  0.69679500  0.72321400  1
  C  C4  1  0.03718600  0.96281500  0.02735600  1
  C  C5  1  0.96281500  0.03718600  0.97264400  1
  C  C6  1  0.62430200  0.37569900  0.22715900  1
  C  C7  1  0.37569800  0.62430200  0.77284100  1
  C  C8  1  0.62435200  0.37564800  0.46063500  1
  C  C9  1  0.37564900  0.62435200  0.53936500  1
  C  C10  1  0.30289900  0.69710100  0.48207000  1
  C  C11  1  0.69710100  0.30289900  0.51793100  1
  Cl  Cl0  1  0.32795300  0.67204800  0.24657600  1
  Cl  Cl1  1  0.67204700  0.32795300  0.75342400  1
  Cl  Cl2  1  0.66898100  0.33102000  0.00907600  1
  Cl  Cl3  1  0.33101900  0.66898100  0.99092300  1
  Cl  Cl4  1  0.96995600  0.03004500  0.22717000  1
  Cl  Cl5  1  0.03004500  0.96995600  0.77282900  1
loop_
_geom_bond_atom_site_label_1
_geom_bond_atom_site_label_2
_geom_bond_distance
_geom_bond_site_symmetry_2
C0 C1 1.351256 1_465
C0 Gd3 2.381956 1_555
C0 Gd9 2.558239 1_455
C0 Gd9 2.558239 1_565
C0 Gd8 2.640749 1_455
C0 Gd8 2.640752 1_565
C1 Gd2 2.381964 1_555
C1 Gd8 2.558239 1_655
C1 Gd8 2.558239 1_545
C1 Gd9 2.640749 1_655
C1 Gd9 2.640752 1_545
C2 C6 1.322318 1_555
C2 Gd2 2.483265 1_555
C2 Gd6 2.608342 1_655
C2 Gd6 2.608342 1_545
C2 Gd0 2.683058 1_545
C2 Gd0 2.683058 1_655
C3 C7 1.322318 1_555
C3 Gd3 2.483257 1_555
C3 Gd7 2.608349 1_565
C3 Gd7 2.608352 1_455
C3 Gd1 2.683062 1_565
C3 Gd1 2.683065 1_455
C4 C5 1.353471 1_464
C4 Gd6 2.325468 1_555
C4 Gd5 2.559731 1_564
C4 Gd5 2.559731 1_454
C4 Gd4 2.656390 1_565
C4 Gd4 2.656392 1_455
C5 Gd7 2.325467 1_555
C5 Gd4 2.559718 1_656
C5 Gd4 2.559721 1_546
C5 Gd5 2.656407 1_655
C5 Gd5 2.656407 1_545
C6 Gd4 2.416002 1_555
C6 Gd6 2.709913 1_655
C6 Gd6 2.709915 1_545
C6 Gd0 2.722292 1_655
C6 Gd0 2.722295 1_545
C7 Gd5 2.416016 1_555
C7 Gd7 2.709918 1_565
C7 Gd7 2.709918 1_455
C7 Gd1 2.722294 1_455
C7 Gd1 2.722294 1_565
C8 Gd8 2.406836 1_555
C8 Gd3 2.692675 1_545
C8 Gd3 2.692678 1_655
C8 Gd0 2.743893 1_545
C8 Gd0 2.743893 1_655
C9 Gd9 2.406836 1_555
C9 Gd2 2.692685 1_565
C9 Gd2 2.692685 1_455
C9 Gd1 2.743898 1_565
C9 Gd1 2.743901 1_455
C10 C9 1.323388 1_555
C10 Gd0 2.372078 1_555
C10 Gd2 2.626454 1_455
C10 Gd2 2.626457 1_565
C10 Gd1 2.649587 1_455
C10 Gd1 2.649587 1_565
C11 C8 1.323379 1_555
C11 Gd1 2.372078 1_555
C11 Gd3 2.626434 1_545
C11 Gd3 2.626436 1_655
C11 Gd0 2.649598 1_545
C11 Gd0 2.649598 1_655
Cl0 Gd2 2.850944 1_455
Cl0 Gd2 2.850944 1_565
Cl0 Gd6 2.988119 1_555
Cl0 Gd8 3.024422 1_555
Cl1 Gd3 2.850959 1_545
Cl1 Gd3 2.850961 1_655
Cl1 Gd7 2.988127 1_555
Cl1 Gd9 3.024405 1_555
Cl2 Gd6 2.780451 1_655
Cl2 Gd6 2.780454 1_545
Cl2 Gd5 2.946610 1_554
Cl3 Gd7 2.780434 1_455
Cl3 Gd7 2.780434 1_565
Cl3 Gd4 2.946629 1_556
Cl4 Gd4 2.885910 1_655
Cl4 Gd4 2.885913 1_545
Cl4 Gd8 2.888454 1_655
Cl4 Gd8 2.888454 1_545
Cl5 Gd5 2.885906 1_455
Cl5 Gd5 2.885906 1_565
Cl5 Gd9 2.888444 1_565
Cl5 Gd9 2.888446 1_455
