# generated using pymatgen
data_Li4V3P8O29
_symmetry_space_group_name_H-M   'P 1'
_cell_length_a   9.76967500
_cell_length_b   9.80035903
_cell_length_c   14.13035159
_cell_angle_alpha   89.95351484
_cell_angle_beta   90.27955539
_cell_angle_gamma   119.78812814
_symmetry_Int_Tables_number   1
_chemical_formula_structural   Li4V3P8O29
_chemical_formula_sum   'Li8 V6 P16 O58'
_cell_volume   1174.14851076
_cell_formula_units_Z   2
loop_
 _symmetry_equiv_pos_site_id
 _symmetry_equiv_pos_as_xyz
  1  'x, y, z'
loop_
 _atom_site_type_symbol
 _atom_site_label
 _atom_site_symmetry_multiplicity
 _atom_site_fract_x
 _atom_site_fract_y
 _atom_site_fract_z
 _atom_site_occupancy
  Li  Li0  1  0.90676400  0.67624500  0.44053900  1
  Li  Li1  1  0.32663100  0.09169400  0.94537200  1
  Li  Li2  1  0.89955400  0.23036300  0.94259800  1
  Li  Li3  1  0.22293600  0.91701000  0.55677800  1
  Li  Li4  1  0.77255300  0.08761700  0.43680200  1
  Li  Li5  1  0.09059200  0.31584100  0.55649000  1
  Li  Li6  1  0.23668800  0.33493800  0.06178300  1
  Li  Li7  1  0.96065900  0.92875600  0.00192900  1
  V  V0  1  0.43813000  0.00207000  0.75119700  1
  V  V1  1  0.56621400  0.99692300  0.24750200  1
  V  V2  1  0.00569900  0.57237400  0.24238700  1
  V  V3  1  0.00053800  0.43544300  0.75241500  1
  V  V4  1  0.56971500  0.56825200  0.74975900  1
  V  V5  1  0.43722500  0.43447100  0.25478900  1
  P  P0  1  0.77043500  0.68994400  0.15761700  1
  P  P1  1  0.91260300  0.68148200  0.65972600  1
  P  P2  1  0.31499500  0.22965800  0.65945100  1
  P  P3  1  0.66287600  0.33179800  0.87065400  1
  P  P4  1  0.67626600  0.33748600  0.36953200  1
  P  P5  1  0.31331800  0.08942800  0.15898000  1
  P  P6  1  0.22994500  0.91256200  0.34037100  1
  P  P7  1  0.91184800  0.22710800  0.15935800  1
  P  P8  1  0.08776500  0.77762200  0.84249600  1
  P  P9  1  0.77189200  0.08977600  0.65510200  1
  P  P10  1  0.69412400  0.91462100  0.83769700  1
  P  P11  1  0.33411700  0.66724900  0.63198500  1
  P  P12  1  0.33504900  0.66185500  0.12857500  1
  P  P13  1  0.68696200  0.77140300  0.34287000  1
  P  P14  1  0.09007500  0.32151700  0.34000600  1
  P  P15  1  0.23187900  0.31673600  0.84320800  1
  O  O0  1  0.76740300  0.75725900  0.42806300  1
  O  O1  1  0.74461300  0.65869700  0.66647100  1
  O  O2  1  0.00992500  0.80090900  0.92505700  1
  O  O3  1  0.90911900  0.65338100  0.16777000  1
  O  O4  1  0.61265600  0.53441100  0.17052400  1
  O  O5  1  0.66601900  0.47906700  0.82378000  1
  O  O6  1  0.47427900  0.38260500  0.67641700  1
  O  O7  1  0.23527700  0.23693300  0.93354400  1
  O  O8  1  0.33905900  0.26042400  0.16671100  1
  O  O9  1  0.82350900  0.48706700  0.32789100  1
  O  O10  1  0.90198600  0.52029600  0.67987800  1
  O  O11  1  0.52844000  0.34134200  0.32069300  1
  O  O12  1  0.64410300  0.32112100  0.97564500  1
  O  O13  1  0.67204800  0.34618500  0.47464700  1
  O  O14  1  0.50821400  0.18346700  0.82641000  1
  O  O15  1  0.90937100  0.38303100  0.17241800  1
  O  O16  1  0.80957200  0.32297000  0.83554800  1
  O  O17  1  0.34006900  0.08394300  0.66038300  1
  O  O18  1  0.20594200  0.00080800  0.25042000  1
  O  O19  1  0.23324300  0.98925600  0.43137100  1
  O  O20  1  0.22499400  0.01694300  0.06920500  1
  O  O21  1  0.47058600  0.09280000  0.17143500  1
  O  O22  1  0.67377900  0.18601500  0.33221000  1
  O  O23  1  0.26278100  0.91933700  0.83588400  1
  O  O24  1  0.62048800  0.09973800  0.68088400  1
  O  O25  1  0.91927800  0.25553400  0.66214000  1
  O  O26  1  0.00927500  0.79810100  0.74494900  1
  O  O27  1  0.99660500  0.75188200  0.56888500  1
  O  O28  1  0.00283100  0.24415500  0.42904200  1
  O  O29  1  0.08367600  0.74305000  0.33471100  1
  O  O30  1  0.38259600  0.90554700  0.32087900  1
  O  O31  1  0.74360200  0.08668300  0.16422000  1
  O  O32  1  0.33537300  0.81882300  0.67534700  1
  O  O33  1  0.53502300  0.91649200  0.82700000  1
  O  O34  1  0.79195600  0.00450100  0.92071700  1
  O  O35  1  0.75555100  0.01176400  0.56280500  1
  O  O36  1  0.78990900  0.99168900  0.74108900  1
  O  O37  1  0.66344000  0.91614700  0.34121000  1
  O  O38  1  0.18466400  0.66586200  0.17359100  1
  O  O39  1  0.08609900  0.62117200  0.83259300  1
  O  O40  1  0.48129600  0.80620700  0.17086600  1
  O  O41  1  0.31684000  0.64618400  0.02389000  1
  O  O42  1  0.33352600  0.67281200  0.52675600  1
  O  O43  1  0.48035800  0.66473400  0.67755500  1
  O  O44  1  0.09542300  0.47865600  0.32083800  1
  O  O45  1  0.18529100  0.51707200  0.67184200  1
  O  O46  1  0.65810000  0.74248500  0.83419700  1
  O  O47  1  0.79183700  0.79495500  0.24976500  1
  O  O48  1  0.78668600  0.78120900  0.07103000  1
  O  O49  1  0.52422600  0.61936000  0.32299100  1
  O  O50  1  0.32488400  0.50786300  0.17194300  1
  O  O51  1  0.38410600  0.47448900  0.82603800  1
  O  O52  1  0.08524300  0.33924800  0.84013300  1
  O  O53  1  0.99778900  0.22923600  0.07046100  1
  O  O54  1  0.00085200  0.20779300  0.25057800  1
  O  O55  1  0.25882500  0.34547700  0.33650000  1
  O  O56  1  0.22658000  0.23347600  0.57516700  1
  O  O57  1  0.21208800  0.20449800  0.75516000  1
loop_
_geom_bond_atom_site_label_1
_geom_bond_atom_site_label_2
_geom_bond_distance
_geom_bond_site_symmetry_2
Li0 O0 1.893850 1_555
Li0 O27 1.987238 1_555
Li0 O29 2.133402 1_655
Li0 O9 2.264165 1_555
Li1 O20 1.968902 1_556
Li1 O7 2.027543 1_555
Li1 O23 2.140982 1_545
Li1 O14 2.285396 1_555
Li2 O34 1.945848 1_555
Li2 O53 2.044288 1_556
Li2 O52 2.150755 1_655
Li2 O16 2.159205 1_555
Li3 O19 1.892212 1_555
Li3 O27 1.996328 1_455
Li3 O17 2.063165 1_565
Li3 O32 2.443218 1_555
Li4 O35 1.904817 1_555
Li4 O37 1.998647 1_545
Li4 O28 1.999945 1_655
Li4 O22 2.225709 1_555
Li5 O56 1.883634 1_555
Li5 O28 1.964784 1_555
Li5 O25 2.102211 1_455
Li5 O45 2.362135 1_555
Li6 O53 2.033679 1_455
Li6 O7 2.048344 1_554
Li6 O8 2.107441 1_555
Li6 O50 2.139588 1_555
Li7 O48 1.872199 1_555
Li7 O2 1.894184 1_654
Li7 O34 2.404207 1_564
Li7 O20 2.465674 1_665
O0 P13 1.478077 1_555
O1 P1 1.545920 1_555
O1 V4 1.898280 1_555
O2 P8 1.474085 1_555
O3 P0 1.570076 1_555
O3 V2 1.834522 1_655
O4 P0 1.549359 1_555
O4 V5 1.914326 1_555
O5 P3 1.573958 1_555
O5 V4 1.883921 1_555
O6 P2 1.550877 1_555
O6 V4 1.887252 1_555
O7 P15 1.505305 1_555
O8 P5 1.569984 1_555
O8 V5 1.935108 1_555
O9 P4 1.573575 1_555
O9 V2 1.966642 1_655
O10 P1 1.556918 1_555
O10 V3 1.858403 1_655
O11 P4 1.614896 1_555
O11 V5 1.814668 1_555
O12 P3 1.492941 1_555
O13 P4 1.489769 1_555
O14 P3 1.611524 1_555
O14 V0 1.882893 1_555
O15 P7 1.551444 1_555
O15 V2 1.888198 1_655
O16 P3 1.561330 1_555
O16 V3 2.012873 1_655
O17 P2 1.564306 1_555
O17 V0 1.989580 1_555
O18 P6 1.617188 1_545
O18 P5 1.621849 1_555
O19 P6 1.482068 1_555
O20 P5 1.496723 1_555
O21 P5 1.529604 1_555
O21 V1 1.942120 1_545
O22 P4 1.564504 1_555
O22 V1 2.006897 1_545
O23 P8 1.582112 1_555
O23 V0 1.913755 1_565
O24 P9 1.574482 1_555
O24 V0 1.843563 1_555
O25 P9 1.548206 1_555
O25 V3 1.992290 1_655
O26 P1 1.602197 1_455
O26 P8 1.634124 1_555
O27 P1 1.497815 1_555
O28 P14 1.500332 1_555
O29 P6 1.564813 1_555
O29 V2 1.951379 1_555
O30 P6 1.552619 1_555
O30 V1 1.874971 1_555
O31 P7 1.534217 1_555
O31 V1 1.914566 1_545
O32 P11 1.601724 1_555
O32 V0 1.892893 1_565
O33 P10 1.570113 1_555
O33 V0 1.877303 1_565
O34 P10 1.489908 1_545
O35 P9 1.479607 1_555
O36 P9 1.611051 1_565
O36 P10 1.618088 1_555
O37 P13 1.545772 1_555
O37 V1 2.003845 1_555
O38 P12 1.622106 1_555
O38 V2 1.806912 1_555
O39 P8 1.531758 1_555
O39 V3 1.943657 1_555
O40 P12 1.544219 1_555
O40 V1 1.951470 1_555
O41 P12 1.487961 1_555
O42 P11 1.487966 1_555
O43 P11 1.575591 1_555
O43 V4 1.872712 1_555
O44 P14 1.538591 1_555
O44 V2 1.905162 1_555
O45 P11 1.574111 1_555
O45 V3 1.943716 1_555
O46 P10 1.543472 1_555
O46 V4 1.900833 1_555
O47 P0 1.607481 1_555
O47 P13 1.616036 1_555
O48 P0 1.476889 1_555
O49 P13 1.571437 1_555
O49 V5 1.843653 1_555
O50 P12 1.585303 1_555
O50 V5 1.965398 1_555
O51 P15 1.542484 1_555
O51 V4 1.912121 1_555
O52 P15 1.554440 1_555
O52 V3 1.968037 1_555
O53 P7 1.508689 1_555
O54 P7 1.614183 1_455
O54 P14 1.620207 1_555
O55 P14 1.546518 1_555
O55 V5 1.907660 1_555
O56 P2 1.479162 1_555
O57 P15 1.607416 1_555
O57 P2 1.633086 1_555
