# generated using pymatgen
data_Mn9Zn6Si4(SbO14)2
_symmetry_space_group_name_H-M   'P 1'
_cell_length_a   5.53042802
_cell_length_b   9.11967278
_cell_length_c   11.68386804
_cell_angle_alpha   86.84642317
_cell_angle_beta   76.28323994
_cell_angle_gamma   78.82002922
_symmetry_Int_Tables_number   1
_chemical_formula_structural   Mn9Zn6Si4(SbO14)2
_chemical_formula_sum   'Mn9 Zn6 Si4 Sb2 O28'
_cell_volume   561.58833991
_cell_formula_units_Z   1
loop_
 _symmetry_equiv_pos_site_id
 _symmetry_equiv_pos_as_xyz
  1  'x, y, z'
loop_
 _atom_site_type_symbol
 _atom_site_label
 _atom_site_symmetry_multiplicity
 _atom_site_fract_x
 _atom_site_fract_y
 _atom_site_fract_z
 _atom_site_occupancy
  Mn  Mn0  1  0.63407142  0.65012057  0.29188299  1
  Mn  Mn1  1  -0.00000000  0.00000000  -0.00000000  1
  Mn  Mn2  1  0.92230650  0.64163228  0.71649344  1
  Mn  Mn3  1  0.27764217  0.00246330  0.42506387  1
  Mn  Mn4  1  0.42635727  0.00450462  0.14369914  1
  Mn  Mn5  1  0.57364273  0.99549538  0.85630086  1
  Mn  Mn6  1  0.72235783  0.99753670  0.57493613  1
  Mn  Mn7  1  0.07769350  0.35836772  0.28350656  1
  Mn  Mn8  1  0.36592858  0.34987943  0.70811701  1
  Zn  Zn0  1  0.65649960  0.34368554  0.13832351  1
  Zn  Zn1  1  0.05532475  0.66940898  0.42748263  1
  Zn  Zn2  1  0.20550171  0.65982289  0.13774381  1
  Zn  Zn3  1  0.79449829  0.34017711  0.86225619  1
  Zn  Zn4  1  0.94467525  0.33059102  0.57251737  1
  Zn  Zn5  1  0.34350040  0.65631446  0.86167649  1
  Si  Si0  1  0.75985404  0.68938615  0.00322614  1
  Si  Si1  1  0.51940316  0.31521070  0.42375287  1
  Si  Si2  1  0.48059684  0.68478930  0.57624713  1
  Si  Si3  1  0.24014596  0.31061385  0.99677386  1
  Sb  Sb0  1  0.13970476  0.99926439  0.71953831  1
  Sb  Sb1  1  0.86029524  0.00073561  0.28046169  1
  O  O0  1  0.58542504  0.88619970  0.29172678  1
  O  O1  1  0.40788892  0.87069061  0.58922265  1
  O  O2  1  0.69137678  0.87245333  0.00424968  1
  O  O3  1  0.66845063  0.39072039  0.30320444  1
  O  O4  1  0.39242472  0.64861648  0.45972700  1
  O  O5  1  0.72985203  0.11846453  0.15283463  1
  O  O6  1  0.58374035  0.62278909  0.12168849  1
  O  O7  1  0.93663340  0.35681207  0.00090551  1
  O  O8  1  0.21615268  0.36267648  0.43619742  1
  O  O9  1  0.88505081  0.87454139  0.71407043  1
  O  O10  1  0.98551613  0.40783903  0.71508380  1
  O  O11  1  0.11886056  0.88422277  0.15404598  1
  O  O12  1  0.30934842  0.37117478  0.11265173  1
  O  O13  1  0.97005952  0.89298367  0.41759735  1
  O  O14  1  0.02994048  0.10701633  0.58240265  1
  O  O15  1  0.69065158  0.62882522  0.88734827  1
  O  O16  1  0.88113944  0.11577723  0.84595402  1
  O  O17  1  0.01448387  0.59216097  0.28491620  1
  O  O18  1  0.11494919  0.12545861  0.28592957  1
  O  O19  1  0.78384732  0.63732352  0.56380258  1
  O  O20  1  0.06336660  0.64318793  0.99909449  1
  O  O21  1  0.41625965  0.37721091  0.87831151  1
  O  O22  1  0.27014797  0.88153547  0.84716537  1
  O  O23  1  0.60757528  0.35138352  0.54027300  1
  O  O24  1  0.33154937  0.60927961  0.69679556  1
  O  O25  1  0.30862322  0.12754667  0.99575032  1
  O  O26  1  0.59211108  0.12930939  0.41077735  1
  O  O27  1  0.41457496  0.11380030  0.70827322  1
loop_
_geom_bond_atom_site_label_1
_geom_bond_atom_site_label_2
_geom_bond_distance
_geom_bond_site_symmetry_2
Mn0 O17 2.050479 1_655
Mn0 O4 2.096000 1_555
Mn0 O6 2.106608 1_555
Mn0 O0 2.117269 1_555
Mn0 O3 2.335166 1_555
Mn1 O11 2.206640 1_545
Mn1 O16 2.206640 1_454
Mn1 O5 2.215658 1_455
Mn1 O22 2.215658 1_544
Mn1 O25 2.234285 1_554
Mn1 O2 2.234285 1_445
Mn2 O10 2.092966 1_555
Mn2 O9 2.093156 1_555
Mn2 O19 2.106625 1_555
Mn2 O15 2.111748 1_555
Mn2 O24 2.182655 1_655
Mn3 O13 2.153283 1_445
Mn3 O14 2.158064 1_555
Mn3 O0 2.161688 1_545
Mn3 O18 2.193643 1_555
Mn3 O26 2.238729 1_555
Mn3 O1 2.389078 1_545
Mn4 O2 2.156851 1_545
Mn4 O5 2.163865 1_555
Mn4 O25 2.169844 1_554
Mn4 O11 2.172824 1_545
Mn4 O18 2.247686 1_555
Mn4 O0 2.253313 1_545
Mn5 O25 2.156851 1_565
Mn5 O22 2.163865 1_555
Mn5 O2 2.169844 1_556
Mn5 O16 2.172824 1_565
Mn5 O9 2.247686 1_555
Mn5 O27 2.253313 1_565
Mn6 O14 2.153283 1_665
Mn6 O13 2.158064 1_555
Mn6 O27 2.161688 1_565
Mn6 O9 2.193643 1_555
Mn6 O1 2.238729 1_555
Mn6 O26 2.389078 1_565
Mn7 O17 2.092966 1_555
Mn7 O18 2.093156 1_555
Mn7 O8 2.106625 1_555
Mn7 O12 2.111748 1_555
Mn7 O3 2.182655 1_455
Mn8 O10 2.050479 1_455
Mn8 O23 2.096000 1_555
Mn8 O21 2.106608 1_555
Mn8 O27 2.117269 1_555
Mn8 O24 2.335166 1_555
O0 Sb1 1.981148 1_565
O1 Si2 1.671504 1_555
O1 Sb0 2.084233 1_555
O2 Si0 1.638812 1_555
O3 Si1 1.643249 1_555
O3 Zn0 2.015404 1_555
O4 Si2 1.620696 1_555
O4 Zn1 1.960019 1_555
O5 Sb1 1.982530 1_555
O5 Zn0 2.020689 1_555
O6 Si0 1.652518 1_555
O6 Zn2 2.017892 1_555
O6 Zn0 2.502778 1_555
O7 Si3 1.639192 1_654
O7 Zn0 1.965583 1_555
O7 Zn3 1.985541 1_554
O8 Si1 1.622024 1_555
O8 Zn4 1.965102 1_455
O9 Sb0 1.988247 1_655
O10 Zn4 1.921247 1_555
O10 Zn3 1.930839 1_555
O11 Sb1 1.984257 1_465
O11 Zn2 2.018217 1_555
O12 Si3 1.641502 1_554
O12 Zn0 1.979140 1_555
O13 Sb1 1.989506 1_565
O13 Zn1 2.004996 1_655
O14 Sb0 1.989506 1_545
O14 Zn4 2.004996 1_455
O15 Si0 1.641502 1_556
O15 Zn5 1.979140 1_555
O16 Sb0 1.984257 1_645
O16 Zn3 2.018217 1_555
O17 Zn1 1.921247 1_555
O17 Zn2 1.930839 1_555
O18 Sb1 1.988247 1_455
O19 Si2 1.622024 1_555
O19 Zn1 1.965102 1_655
O20 Si0 1.639192 1_456
O20 Zn5 1.965583 1_555
O20 Zn2 1.985541 1_556
O21 Si3 1.652518 1_555
O21 Zn3 2.017892 1_555
O21 Zn5 2.502778 1_555
O22 Sb0 1.982530 1_555
O22 Zn5 2.020689 1_555
O23 Si1 1.620696 1_555
O23 Zn4 1.960019 1_555
O24 Si2 1.643249 1_555
O24 Zn5 2.015404 1_555
O25 Si3 1.638812 1_555
O26 Si1 1.671504 1_555
O26 Sb1 2.084233 1_555
O27 Sb0 1.981148 1_545
