# generated using pymatgen
data_Li4Mn3Cr2Fe3O16
_symmetry_space_group_name_H-M   'P 1'
_cell_length_a   5.87978996
_cell_length_b   5.87978996
_cell_length_c   9.52224311
_cell_angle_alpha   89.47147688
_cell_angle_beta   89.47147688
_cell_angle_gamma   59.61907957
_symmetry_Int_Tables_number   1
_chemical_formula_structural   Li4Mn3Cr2Fe3O16
_chemical_formula_sum   'Li4 Mn3 Cr2 Fe3 O16'
_cell_volume   283.98091211
_cell_formula_units_Z   1
loop_
 _symmetry_equiv_pos_site_id
 _symmetry_equiv_pos_as_xyz
  1  'x, y, z'
loop_
 _atom_site_type_symbol
 _atom_site_label
 _atom_site_symmetry_multiplicity
 _atom_site_fract_x
 _atom_site_fract_y
 _atom_site_fract_z
 _atom_site_occupancy
  Li  Li0  1  0.66841900  0.66841900  0.89528500  1
  Li  Li1  1  0.99823500  0.99823500  0.99702800  1
  Li  Li2  1  0.99889700  0.99889700  0.49528500  1
  Li  Li3  1  0.33462200  0.33462200  0.39353600  1
  Mn  Mn0  1  0.82905100  0.82905100  0.21424100  1
  Mn  Mn1  1  0.66191000  0.16768600  0.71434300  1
  Mn  Mn2  1  0.16768600  0.66191000  0.71434300  1
  Cr  Cr0  1  0.66435800  0.66435800  0.48601300  1
  Cr  Cr1  1  0.33045900  0.33045900  0.98591700  1
  Fe  Fe0  1  0.82989000  0.33587000  0.21376200  1
  Fe  Fe1  1  0.33587000  0.82989000  0.21376200  1
  Fe  Fe2  1  0.16730300  0.16730300  0.71316900  1
  O  O0  1  0.83013900  0.32326600  0.59975400  1
  O  O1  1  0.51973800  0.51973800  0.34440900  1
  O  O2  1  0.67123800  0.67123800  0.10405200  1
  O  O3  1  0.99297400  0.99297400  0.30923300  1
  O  O4  1  0.99368200  0.99368200  0.81066700  1
  O  O5  1  0.32326600  0.83013900  0.59975400  1
  O  O6  1  0.96316800  0.52569500  0.34064500  1
  O  O7  1  0.52569500  0.96316800  0.34064500  1
  O  O8  1  0.16338500  0.16338500  0.09763200  1
  O  O9  1  0.83865000  0.83865000  0.60505700  1
  O  O10  1  0.49132600  0.03665300  0.83980700  1
  O  O11  1  0.03665300  0.49132600  0.83980700  1
  O  O12  1  0.33875200  0.33875200  0.60735600  1
  O  O13  1  0.67091800  0.15711900  0.09968200  1
  O  O14  1  0.48126100  0.48126100  0.83380000  1
  O  O15  1  0.15711900  0.67091800  0.09968200  1
loop_
_geom_bond_atom_site_label_1
_geom_bond_atom_site_label_2
_geom_bond_distance
_geom_bond_site_symmetry_2
Li0 O11 1.939016 1_655
Li0 O10 1.939016 1_565
Li0 O2 1.988444 1_556
Li0 O14 2.003357 1_555
Li1 O4 1.775676 1_555
Li1 O15 1.922420 1_656
Li1 O13 1.922420 1_566
Li1 O8 1.947223 1_666
Li2 O3 1.773305 1_555
Li2 O5 1.927237 1_655
Li2 O0 1.927237 1_565
Li2 O9 1.931267 1_555
Li3 O1 1.941080 1_555
Li3 O6 1.952927 1_455
Li3 O7 1.952927 1_545
Li3 O12 2.036930 1_555
Mn0 O3 1.909961 1_555
Mn0 O2 1.931262 1_555
Mn0 O6 1.951225 1_555
Mn0 O7 1.951225 1_555
Mn0 O15 1.985233 1_655
Mn0 O13 1.985233 1_565
Mn1 O4 1.921041 1_545
Mn1 O12 1.934840 1_555
Mn1 O10 1.941507 1_555
Mn1 O14 1.963939 1_555
Mn1 O0 1.970472 1_555
Mn1 O9 1.972153 1_545
Mn2 O4 1.921041 1_455
Mn2 O12 1.934840 1_555
Mn2 O11 1.941507 1_555
Mn2 O14 1.963939 1_555
Mn2 O5 1.970472 1_555
Mn2 O9 1.972153 1_455
Cr0 O1 2.009471 1_555
Cr0 O5 2.036524 1_555
Cr0 O0 2.036524 1_555
Cr0 O6 2.048097 1_555
Cr0 O7 2.048097 1_555
Cr0 O9 2.119092 1_555
Cr1 O8 1.999812 1_556
Cr1 O15 2.043415 1_556
Cr1 O13 2.043415 1_556
Cr1 O10 2.044985 1_555
Cr1 O11 2.044985 1_555
Cr1 O14 2.102002 1_555
Fe0 O3 1.958977 1_545
Fe0 O2 1.992309 1_555
Fe0 O1 2.007696 1_555
Fe0 O8 2.016331 1_655
Fe0 O13 2.047409 1_555
Fe0 O6 2.060746 1_555
Fe1 O3 1.958977 1_455
Fe1 O2 1.992309 1_555
Fe1 O1 2.007696 1_555
Fe1 O8 2.016331 1_565
Fe1 O15 2.047409 1_555
Fe1 O7 2.060746 1_555
Fe2 O4 1.991323 1_445
Fe2 O12 2.009506 1_555
Fe2 O0 2.029718 1_455
Fe2 O5 2.029718 1_545
Fe2 O10 2.054001 1_555
Fe2 O11 2.054001 1_555
