# generated using pymatgen
data_Li4V3P8O29
_symmetry_space_group_name_H-M   'P 1'
_cell_length_a   9.75663700
_cell_length_b   9.76780092
_cell_length_c   14.15608547
_cell_angle_alpha   89.89405141
_cell_angle_beta   90.41992068
_cell_angle_gamma   119.81239311
_symmetry_Int_Tables_number   1
_chemical_formula_structural   Li4V3P8O29
_chemical_formula_sum   'Li8 V6 P16 O58'
_cell_volume   1170.51254869
_cell_formula_units_Z   2
loop_
 _symmetry_equiv_pos_site_id
 _symmetry_equiv_pos_as_xyz
  1  'x, y, z'
loop_
 _atom_site_type_symbol
 _atom_site_label
 _atom_site_symmetry_multiplicity
 _atom_site_fract_x
 _atom_site_fract_y
 _atom_site_fract_z
 _atom_site_occupancy
  Li  Li0  1  0.09660400  0.33288300  0.43834400  1
  Li  Li1  1  0.66785400  0.76422300  0.44103100  1
  Li  Li2  1  0.69109900  0.91814300  0.94016200  1
  Li  Li3  1  0.09202600  0.77269600  0.94199400  1
  Li  Li4  1  0.23276100  0.90370400  0.43892900  1
  Li  Li5  1  0.31834300  0.09585500  0.05959600  1
  Li  Li6  1  0.77508000  0.68636600  0.06001100  1
  Li  Li7  1  0.99165100  0.99448800  0.49773100  1
  V  V0  1  0.56885200  0.00443600  0.74561700  1
  V  V1  1  0.43407300  0.99890300  0.25120200  1
  V  V2  1  0.99990700  0.43190900  0.24939400  1
  V  V3  1  0.99619200  0.55885300  0.74773300  1
  V  V4  1  0.43157800  0.43210000  0.75107700  1
  V  V5  1  0.56064900  0.56160600  0.25265300  1
  P  P0  1  0.22649100  0.31429000  0.15668100  1
  P  P1  1  0.08527900  0.30858700  0.65808700  1
  P  P2  1  0.68678600  0.77262200  0.65799600  1
  P  P3  1  0.33723200  0.67233400  0.86837600  1
  P  P4  1  0.33437400  0.66578700  0.37097800  1
  P  P5  1  0.67826900  0.90896100  0.15724700  1
  P  P6  1  0.77707600  0.08309500  0.33934900  1
  P  P7  1  0.08705300  0.76691100  0.15700800  1
  P  P8  1  0.91557600  0.22562900  0.84249600  1
  P  P9  1  0.22227400  0.90940600  0.65878200  1
  P  P10  1  0.31810300  0.08911600  0.83976900  1
  P  P11  1  0.66355800  0.33434100  0.63139900  1
  P  P12  1  0.66430700  0.33428800  0.13277300  1
  P  P13  1  0.30502800  0.22224700  0.34150500  1
  P  P14  1  0.91660900  0.69281100  0.33913800  1
  P  P15  1  0.77132600  0.68113900  0.84077700  1
  O  O0  1  0.20847200  0.21585200  0.42448000  1
  O  O1  1  0.25710500  0.34161800  0.67083000  1
  O  O2  1  0.00332600  0.23122100  0.92827500  1
  O  O3  1  0.08652900  0.34418100  0.16327600  1
  O  O4  1  0.38136000  0.47550900  0.17966700  1
  O  O5  1  0.34391000  0.52857200  0.82140100  1
  O  O6  1  0.53141300  0.61527200  0.67109200  1
  O  O7  1  0.76112200  0.76094700  0.92856400  1
  O  O8  1  0.66111800  0.74086000  0.16649500  1
  O  O9  1  0.19047200  0.50933900  0.33380800  1
  O  O10  1  0.08708000  0.46848300  0.67325000  1
  O  O11  1  0.49066100  0.67615700  0.32713000  1
  O  O12  1  0.34504100  0.67677500  0.97299000  1
  O  O13  1  0.35074400  0.66907500  0.47612400  1
  O  O14  1  0.48431000  0.82260900  0.82532600  1
  O  O15  1  0.10405700  0.62227800  0.17821400  1
  O  O16  1  0.18374300  0.66736500  0.82834400  1
  O  O17  1  0.65538400  0.91347600  0.66968000  1
  O  O18  1  0.79704300  0.01010100  0.24066600  1
  O  O19  1  0.79258000  0.98983100  0.41856300  1
  O  O20  1  0.74516800  0.97938100  0.06447000  1
  O  O21  1  0.51739900  0.89699000  0.17918300  1
  O  O22  1  0.32119900  0.80921500  0.33196700  1
  O  O23  1  0.74252900  0.08309500  0.83717200  1
  O  O24  1  0.38207400  0.91233700  0.67238500  1
  O  O25  1  0.08473900  0.73802300  0.67122700  1
  O  O26  1  0.99077100  0.19998700  0.74555000  1
  O  O27  1  0.01637500  0.23077900  0.56609100  1
  O  O28  1  0.00661800  0.80348900  0.41829500  1
  O  O29  1  0.91711900  0.25481000  0.33974700  1
  O  O30  1  0.61791200  0.08064200  0.33192100  1
  O  O31  1  0.25147600  0.91843300  0.16032500  1
  O  O32  1  0.66801400  0.18667600  0.67574600  1
  O  O33  1  0.47757600  0.09641900  0.82111200  1
  O  O34  1  0.24180400  0.00040500  0.92821300  1
  O  O35  1  0.20864700  0.97888400  0.56810800  1
  O  O36  1  0.20607300  0.00077400  0.74925500  1
  O  O37  1  0.33945700  0.08386000  0.34053200  1
  O  O38  1  0.80776800  0.33189100  0.17865000  1
  O  O39  1  0.90865400  0.38021900  0.82108800  1
  O  O40  1  0.51056500  0.18480200  0.16942400  1
  O  O41  1  0.66533700  0.35254400  0.02850900  1
  O  O42  1  0.66674200  0.33426200  0.52725800  1
  O  O43  1  0.51634500  0.33179000  0.67643300  1
  O  O44  1  0.92454600  0.53980400  0.33241300  1
  O  O45  1  0.81301200  0.48285300  0.67714900  1
  O  O46  1  0.34257300  0.25781100  0.83581600  1
  O  O47  1  0.20629400  0.20311600  0.24667800  1
  O  O48  1  0.24274200  0.23919500  0.07066200  1
  O  O49  1  0.46403300  0.38101000  0.32930000  1
  O  O50  1  0.66491500  0.48490300  0.17954600  1
  O  O51  1  0.61986700  0.52184000  0.82286500  1
  O  O52  1  0.91851800  0.65977600  0.84126400  1
  O  O53  1  0.00115600  0.75402500  0.06571500  1
  O  O54  1  0.98566700  0.78558300  0.24023700  1
  O  O55  1  0.74125900  0.65599100  0.33999900  1
  O  O56  1  0.77279000  0.78872400  0.56859400  1
  O  O57  1  0.79524800  0.79014400  0.74940500  1
loop_
_geom_bond_atom_site_label_1
_geom_bond_atom_site_label_2
_geom_bond_distance
_geom_bond_site_symmetry_2
Li0 O0 1.944510 1_555
Li0 O27 2.028676 1_555
Li0 O29 2.058280 1_455
Li0 O9 2.107189 1_555
Li1 O19 1.942911 1_555
Li1 O56 2.024164 1_555
Li1 O55 2.109394 1_555
Li1 O11 2.194111 1_555
Li2 O20 1.846405 1_556
Li2 O7 1.974074 1_555
Li2 O23 2.042432 1_565
Li2 O14 2.381079 1_555
Li3 O53 1.935851 1_556
Li3 O34 1.972661 1_565
Li3 O52 2.056570 1_455
Li3 O16 2.321707 1_555
Li4 O28 1.937984 1_555
Li4 O35 2.030198 1_555
Li4 O37 2.076355 1_565
Li4 O22 2.169152 1_555
Li5 O48 1.886351 1_555
Li5 O34 2.044454 1_554
Li5 O31 2.083880 1_545
Li5 O40 2.243080 1_555
Li6 O53 1.963851 1_655
Li6 O7 2.025253 1_554
Li6 O8 2.099495 1_555
Li6 O50 2.408798 1_555
Li7 O19 2.216050 1_555
Li7 O28 2.246664 1_655
Li7 O56 2.315621 1_555
Li7 O0 2.387755 1_665
Li7 O27 2.402699 1_665
Li7 O35 2.405718 1_655
O0 P13 1.492818 1_555
O1 P1 1.550828 1_555
O1 V4 1.857075 1_555
O2 P8 1.465943 1_455
O3 P0 1.535291 1_555
O3 V2 1.916718 1_455
O4 P0 1.580378 1_555
O4 V5 1.829925 1_555
O5 P3 1.585369 1_555
O5 V4 1.851488 1_555
O6 P2 1.543053 1_555
O6 V4 1.925570 1_555
O7 P15 1.498174 1_555
O8 P5 1.570845 1_555
O8 V5 1.953766 1_555
O9 P4 1.562732 1_555
O9 V2 2.007344 1_455
O10 P1 1.568311 1_555
O10 V3 1.863526 1_455
O11 P4 1.606467 1_555
O11 V5 1.898531 1_555
O12 P3 1.481932 1_555
O13 P4 1.494534 1_555
O14 P3 1.581232 1_555
O14 V0 1.912464 1_565
O15 P7 1.531091 1_555
O15 V2 1.906530 1_455
O16 P3 1.575280 1_555
O16 V3 1.954328 1_455
O17 P2 1.560404 1_555
O17 V0 1.849438 1_565
O18 P5 1.599779 1_545
O18 P6 1.625915 1_555
O19 P6 1.496990 1_565
O20 P5 1.478812 1_555
O21 P5 1.548584 1_555
O21 V1 1.874004 1_555
O22 P4 1.568245 1_555
O22 V1 1.983607 1_555
O23 P8 1.567110 1_555
O23 V0 1.954070 1_555
O24 P9 1.555623 1_555
O24 V0 1.884291 1_565
O25 P9 1.550111 1_555
O25 V3 1.866945 1_455
O26 P1 1.596174 1_655
O26 P8 1.638027 1_555
O27 P1 1.486054 1_555
O28 P14 1.497211 1_455
O29 P6 1.549641 1_555
O29 V2 1.974450 1_555
O30 P6 1.543945 1_555
O30 V1 1.926063 1_545
O31 P7 1.550662 1_555
O31 V1 2.006103 1_555
O32 P11 1.592171 1_555
O32 V0 1.837970 1_555
O33 P10 1.546391 1_555
O33 V0 1.885620 1_555
O34 P10 1.496938 1_555
O35 P9 1.486551 1_555
O36 P9 1.615316 1_545
O36 P10 1.620757 1_555
O37 P13 1.546558 1_555
O37 V1 1.980564 1_545
O38 P12 1.549411 1_555
O38 V2 1.904381 1_555
O39 P8 1.573507 1_555
O39 V3 1.837612 1_555
O40 P12 1.575452 1_555
O40 V1 1.962596 1_545
O41 P12 1.485883 1_555
O42 P11 1.474793 1_555
O43 P11 1.564538 1_555
O43 V4 1.892867 1_555
O44 P14 1.537669 1_555
O44 V2 1.954538 1_555
O45 P11 1.592610 1_555
O45 V3 1.844176 1_555
O46 P10 1.544019 1_555
O46 V4 1.905008 1_555
O47 P13 1.602452 1_555
O47 P0 1.620785 1_555
O48 P0 1.472322 1_555
O49 P13 1.565961 1_555
O49 V5 1.879399 1_555
O50 P12 1.611729 1_555
O50 V5 1.855634 1_555
O51 P15 1.542333 1_555
O51 V4 1.884326 1_555
O52 P15 1.550416 1_555
O52 V3 2.015326 1_555
O53 P7 1.506057 1_555
O54 P7 1.611573 1_655
O54 P14 1.623981 1_555
O55 P14 1.563620 1_555
O55 V5 1.959826 1_555
O56 P2 1.488000 1_555
O57 P15 1.616615 1_555
O57 P2 1.619941 1_555
