# generated using pymatgen
data_Li4Ti3Ni3(SnO8)2
_symmetry_space_group_name_H-M   'P 1'
_cell_length_a   5.91934600
_cell_length_b   5.95466022
_cell_length_c   9.75763081
_cell_angle_alpha   89.60401739
_cell_angle_beta   89.49425302
_cell_angle_gamma   60.30810847
_symmetry_Int_Tables_number   1
_chemical_formula_structural   Li4Ti3Ni3(SnO8)2
_chemical_formula_sum   'Li4 Ti3 Ni3 Sn2 O16'
_cell_volume   298.76309668
_cell_formula_units_Z   1
loop_
 _symmetry_equiv_pos_site_id
 _symmetry_equiv_pos_as_xyz
  1  'x, y, z'
loop_
 _atom_site_type_symbol
 _atom_site_label
 _atom_site_symmetry_multiplicity
 _atom_site_fract_x
 _atom_site_fract_y
 _atom_site_fract_z
 _atom_site_occupancy
  Li  Li0  1  0.66659300  0.66794100  0.89252700  1
  Li  Li1  1  0.01279800  0.99739200  0.99262000  1
  Li  Li2  1  0.00261400  0.00007800  0.49437300  1
  Li  Li3  1  0.33484800  0.32770500  0.39889500  1
  Ti  Ti0  1  0.82386000  0.34045000  0.21646300  1
  Ti  Ti1  1  0.82960700  0.82979700  0.21431700  1
  Ti  Ti2  1  0.66113100  0.16274800  0.71485600  1
  Ni  Ni0  1  0.34262100  0.82925200  0.21308400  1
  Ni  Ni1  1  0.17057400  0.16857600  0.71126300  1
  Ni  Ni2  1  0.17081400  0.65944400  0.71549300  1
  Sn  Sn0  1  0.65850800  0.66950900  0.49416600  1
  Sn  Sn1  1  0.32024100  0.34039100  0.98849900  1
  O  O0  1  0.82042700  0.32512100  0.59787800  1
  O  O1  1  0.96659100  0.51744800  0.33485400  1
  O  O2  1  0.69105400  0.65472000  0.10349200  1
  O  O3  1  0.98809200  0.00591800  0.30729200  1
  O  O4  1  0.99598500  0.02503900  0.80733800  1
  O  O5  1  0.84481300  0.83296700  0.60601500  1
  O  O6  1  0.52905800  0.50397800  0.34160400  1
  O  O7  1  0.53288000  0.96166400  0.34343500  1
  O  O8  1  0.66837000  0.16775100  0.10311800  1
  O  O9  1  0.31269600  0.84365800  0.60360000  1
  O  O10  1  0.50363400  0.03396100  0.84418300  1
  O  O11  1  0.47234700  0.49256800  0.83362000  1
  O  O12  1  0.34406800  0.30748700  0.60654100  1
  O  O13  1  0.14988200  0.17287900  0.10055900  1
  O  O14  1  0.03611800  0.48123900  0.82922300  1
  O  O15  1  0.14977400  0.68002000  0.09853000  1
loop_
_geom_bond_atom_site_label_1
_geom_bond_atom_site_label_2
_geom_bond_distance
_geom_bond_site_symmetry_2
Li0 O10 1.953040 1_565
Li0 O11 1.988084 1_555
Li0 O14 1.994634 1_655
Li0 O2 2.063102 1_556
Li1 O4 1.813392 1_465
Li1 O13 1.931325 1_566
Li1 O15 1.940795 1_556
Li1 O8 2.067761 1_466
Li2 O3 1.827529 1_455
Li2 O9 1.923439 1_545
Li2 O0 1.967033 1_455
Li2 O5 1.984260 1_445
Li3 O7 1.972748 1_545
Li3 O6 1.977825 1_555
Li3 O1 1.998280 1_455
Li3 O12 2.028487 1_555
Ni0 O3 2.036653 1_465
Ni0 O2 2.080968 1_555
Ni0 O13 2.091032 1_565
Ni0 O15 2.093645 1_555
Ni0 O6 2.101280 1_555
Ni0 O7 2.103960 1_555
Ni1 O4 1.877309 1_455
Ni1 O12 1.895884 1_555
Ni1 O9 1.988650 1_545
Ni1 O14 1.992499 1_555
Ni1 O0 2.121563 1_455
Ni1 O10 2.162567 1_555
Ni2 O11 1.940414 1_555
Ni2 O14 1.949240 1_555
Ni2 O5 1.994595 1_455
Ni2 O9 1.995138 1_555
Ni2 O4 2.095738 1_465
Ni2 O12 2.111053 1_555
O0 Ti2 1.998939 1_555
O0 Sn0 2.046809 1_555
O1 Ti1 1.998176 1_555
O1 Ti0 2.018760 1_555
O1 Sn0 2.212605 1_555
O2 Ti1 1.951199 1_555
O2 Ti0 1.965840 1_555
O3 Ti0 1.941919 1_555
O3 Ti1 1.950854 1_545
O4 Ti2 1.956194 1_555
O5 Ti2 2.014837 1_565
O5 Sn0 2.110448 1_555
O6 Ti0 1.944174 1_555
O6 Sn0 2.136221 1_555
O7 Ti1 1.974137 1_555
O7 Sn0 2.108317 1_555
O8 Ti0 2.024654 1_555
O8 Ti1 2.055074 1_545
O8 Sn1 2.116661 1_554
O9 Sn0 2.068703 1_555
O10 Ti2 1.929726 1_555
O10 Sn1 2.130047 1_555
O11 Ti2 2.069601 1_555
O11 Sn1 2.163561 1_555
O12 Ti2 1.949925 1_555
O13 Ti0 2.017018 1_455
O13 Sn1 2.041915 1_554
O14 Sn1 2.139646 1_555
O15 Ti1 1.991292 1_455
O15 Sn1 2.061586 1_554
