# generated using pymatgen
data_ScSbRh2
_symmetry_space_group_name_H-M   'P 1'
_cell_length_a   4.54229062
_cell_length_b   4.54229062
_cell_length_c   4.54229062
_cell_angle_alpha   60.00000000
_cell_angle_beta   60.00000000
_cell_angle_gamma   60.00000000
_symmetry_Int_Tables_number   1
_chemical_formula_structural   ScSbRh2
_chemical_formula_sum   'Sc1 Sb1 Rh2'
_cell_volume   66.26889887
_cell_formula_units_Z   1
loop_
 _symmetry_equiv_pos_site_id
 _symmetry_equiv_pos_as_xyz
  1  'x, y, z'
loop_
 _atom_site_type_symbol
 _atom_site_label
 _atom_site_symmetry_multiplicity
 _atom_site_fract_x
 _atom_site_fract_y
 _atom_site_fract_z
 _atom_site_occupancy
  Sc  Sc0  1  0.75000000  0.75000000  0.75000000  1
  Sb  Sb0  1  0.25000000  0.25000000  0.25000000  1
  Rh  Rh0  1  -0.00000000  -0.00000000  -0.00000000  1
  Rh  Rh1  1  0.49999900  0.49999900  0.49999900  1
loop_
_geom_bond_atom_site_label_1
_geom_bond_atom_site_label_2
_geom_bond_distance
_geom_bond_site_symmetry_2
Sb0 Sc0 3.211885 1_454
Sb0 Sc0 3.211885 1_455
Sb0 Sc0 3.211885 1_554
Sb0 Sc0 3.211885 1_544
Sb0 Sc0 3.211885 1_545
Sb0 Sc0 3.211885 1_445
Rh0 Sc0 2.781574 1_445
Rh0 Sc0 2.781574 1_454
Rh0 Sc0 2.781574 1_444
Rh0 Sc0 2.781574 1_544
Rh0 Sb0 2.781574 1_554
Rh0 Sb0 2.781574 1_455
Rh0 Sb0 2.781574 1_545
Rh0 Sb0 2.781574 1_555
Rh1 Sb0 2.781562 1_555
Rh1 Sc0 2.781570 1_545
Rh1 Sc0 2.781570 1_554
Rh1 Sc0 2.781570 1_455
Rh1 Sb0 2.781577 1_565
Rh1 Sb0 2.781577 1_655
Rh1 Sb0 2.781577 1_556
Rh1 Sc0 2.781585 1_555
