# generated using pymatgen
data_ThZnRh2
_symmetry_space_group_name_H-M   'P 1'
_cell_length_a   4.68142249
_cell_length_b   4.68142249
_cell_length_c   4.68142249
_cell_angle_alpha   60.00000000
_cell_angle_beta   60.00000000
_cell_angle_gamma   60.00000000
_symmetry_Int_Tables_number   1
_chemical_formula_structural   ThZnRh2
_chemical_formula_sum   'Th1 Zn1 Rh2'
_cell_volume   72.54684238
_cell_formula_units_Z   1
loop_
 _symmetry_equiv_pos_site_id
 _symmetry_equiv_pos_as_xyz
  1  'x, y, z'
loop_
 _atom_site_type_symbol
 _atom_site_label
 _atom_site_symmetry_multiplicity
 _atom_site_fract_x
 _atom_site_fract_y
 _atom_site_fract_z
 _atom_site_occupancy
  Th  Th0  1  0.25000000  0.25000000  0.25000000  1
  Zn  Zn0  1  0.75000100  0.75000100  0.75000100  1
  Rh  Rh0  1  0.50000100  0.50000100  0.50000100  1
  Rh  Rh1  1  0.00000000  0.00000000  -0.00000000  1
loop_
_geom_bond_atom_site_label_1
_geom_bond_atom_site_label_2
_geom_bond_distance
_geom_bond_site_symmetry_2
Rh0 Th0 2.866770 1_565
Rh0 Th0 2.866770 1_556
Rh0 Th0 2.866770 1_655
Rh0 Zn0 2.866774 1_555
Rh0 Zn0 2.866774 1_455
Rh0 Zn0 2.866774 1_545
Rh0 Zn0 2.866774 1_554
Rh0 Th0 2.866786 1_555
Rh1 Zn0 2.866763 1_444
Rh1 Th0 2.866774 1_555
Rh1 Th0 2.866774 1_545
Rh1 Th0 2.866774 1_455
Rh1 Th0 2.866774 1_554
Rh1 Zn0 2.866778 1_445
Rh1 Zn0 2.866778 1_454
Rh1 Zn0 2.866778 1_544
