# generated using pymatgen
data_Sc7V9O24
_symmetry_space_group_name_H-M   'P 1'
_cell_length_a   8.27097572
_cell_length_b   8.34886762
_cell_length_c   8.34384660
_cell_angle_alpha   109.27407545
_cell_angle_beta   109.63907064
_cell_angle_gamma   109.72308304
_symmetry_Int_Tables_number   1
_chemical_formula_structural   Sc7V9O24
_chemical_formula_sum   'Sc7 V9 O24'
_cell_volume   442.30762614
_cell_formula_units_Z   1
loop_
 _symmetry_equiv_pos_site_id
 _symmetry_equiv_pos_as_xyz
  1  'x, y, z'
loop_
 _atom_site_type_symbol
 _atom_site_label
 _atom_site_symmetry_multiplicity
 _atom_site_fract_x
 _atom_site_fract_y
 _atom_site_fract_z
 _atom_site_occupancy
  Sc  Sc0  1  0.74832696  0.28418049  0.53448919  1
  Sc  Sc1  1  0.54134221  0.74958790  0.28870051  1
  Sc  Sc2  1  0.24969509  0.71366093  0.46264048  1
  Sc  Sc3  1  0.25047129  0.21552288  0.96512664  1
  Sc  Sc4  1  0.21172589  0.96610141  0.25153078  1
  Sc  Sc5  1  0.28945499  0.53505423  0.74954537  1
  Sc  Sc6  1  0.03339525  0.75076087  0.78835382  1
  V  V0  1  0.50769056  0.00419291  0.99602770  1
  V  V1  1  0.95891124  0.24774709  0.20944245  1
  V  V2  1  0.78248384  0.03289363  0.75280504  1
  V  V3  1  0.71646729  0.46709605  0.24672558  1
  V  V4  1  0.74991088  0.78790091  0.03852938  1
  V  V5  1  0.50133808  0.50041043  0.50130000  1
  V  V6  1  0.99875733  0.99868891  0.50056475  1
  V  V7  1  0.46873228  0.25349215  0.71944280  1
  V  V8  1  0.99120766  0.49608319  0.99964331  1
  O  O0  1  0.73510098  0.22519574  0.26219992  1
  O  O1  1  0.77456344  0.03940394  0.49587553  1
  O  O2  1  0.95667688  0.50569245  0.23040572  1
  O  O3  1  0.28453136  0.01134614  0.04882125  1
  O  O4  1  0.46174854  0.23724922  0.45904493  1
  O  O5  1  0.79144372  0.73054474  0.27228882  1
  O  O6  1  0.45723433  0.46417056  0.23209267  1
  O  O7  1  0.03733499  0.27577358  0.01328136  1
  O  O8  1  0.99181405  0.04068655  0.26068657  1
  O  O9  1  0.50479368  0.76956384  0.03870534  1
  O  O10  1  0.76808711  0.54417939  0.52355803  1
  O  O11  1  0.71858646  0.24931368  0.76816020  1
  O  O12  1  0.22337467  0.44494022  0.45471980  1
  O  O13  1  0.27230016  0.73732195  0.22513592  1
  O  O14  1  0.51912112  0.24836313  0.96845875  1
  O  O15  1  0.97993681  0.95566636  0.72952835  1
  O  O16  1  0.55317864  0.53387535  0.77540451  1
  O  O17  1  0.94560717  0.71964188  0.99235602  1
  O  O18  1  0.22046392  0.26594511  0.72887133  1
  O  O19  1  0.54178266  0.76918639  0.54985874  1
  O  O20  1  0.03601107  0.49065880  0.77363695  1
  O  O21  1  0.71901290  0.98729490  0.94307798  1
  O  O22  1  0.24039017  0.97405020  0.51833443  1
  O  O23  1  0.26700330  0.77656592  0.73063109  1
loop_
_geom_bond_atom_site_label_1
_geom_bond_atom_site_label_2
_geom_bond_distance
_geom_bond_site_symmetry_2
O0 V0 2.004757 1_554
O0 V1 2.005773 1_555
O0 Sc0 2.115218 1_555
O0 V3 2.118499 1_555
O1 V6 1.985186 1_545
O1 Sc0 2.058850 1_555
O1 Sc1 2.100188 1_545
O1 V2 2.141954 1_555
O2 V3 1.961718 1_555
O2 V8 2.019525 1_554
O2 Sc2 2.103585 1_655
O2 V1 2.109283 1_555
O3 V0 2.051326 1_554
O3 Sc4 2.078206 1_545
O3 Sc3 2.109647 1_554
O3 Sc6 2.136580 1_544
O4 V5 1.996045 1_555
O4 Sc4 2.060310 1_545
O4 Sc0 2.091744 1_555
O4 V7 2.111463 1_555
O5 V3 1.987111 1_555
O5 V6 1.994629 1_555
O5 V4 2.104478 1_555
O5 Sc1 2.172805 1_555
O6 Sc3 2.046063 1_554
O6 V5 2.048461 1_555
O6 Sc1 2.074257 1_555
O6 V3 2.097481 1_555
O7 V1 2.004600 1_455
O7 V8 2.030836 1_454
O7 V2 2.098744 1_454
O7 Sc3 2.112651 1_554
O8 V4 1.991874 1_545
O8 V1 1.993149 1_555
O8 Sc4 2.128003 1_645
O8 V6 2.128827 1_545
O9 V4 1.981485 1_555
O9 Sc1 2.076078 1_555
O9 V0 2.097422 1_564
O9 Sc5 2.113287 1_554
O10 V3 2.025372 1_555
O10 V5 2.042373 1_555
O10 Sc6 2.083824 1_655
O10 Sc0 2.155975 1_555
O11 V7 1.982522 1_555
O11 V2 2.024272 1_555
O11 V8 2.090330 1_555
O11 Sc0 2.143682 1_555
O12 V1 2.004838 1_455
O12 V5 2.052556 1_555
O12 Sc5 2.124411 1_555
O12 Sc2 2.155901 1_555
O13 Sc1 2.064096 1_555
O13 Sc4 2.095270 1_555
O13 V8 2.097417 1_454
O13 Sc2 2.117471 1_555
O14 V7 1.995317 1_555
O14 V3 2.007858 1_556
O14 V0 2.100388 1_555
O14 Sc3 2.134352 1_555
O15 V2 1.990424 1_565
O15 Sc6 2.069299 1_655
O15 V6 2.101951 1_555
O15 Sc3 2.128183 1_665
O16 V7 2.035002 1_555
O16 V4 2.039909 1_556
O16 V5 2.081055 1_555
O16 Sc5 2.122274 1_555
O17 V4 1.997465 1_556
O17 V8 2.040654 1_555
O17 Sc6 2.118366 1_655
O17 Sc4 2.135684 1_656
O18 V6 2.013532 1_445
O18 Sc5 2.053274 1_555
O18 Sc3 2.101010 1_555
O18 V7 2.116795 1_555
O19 V2 1.998110 1_565
O19 V5 2.028179 1_555
O19 Sc2 2.102485 1_555
O19 Sc1 2.129315 1_555
O20 V8 2.029814 1_455
O20 Sc5 2.092840 1_555
O20 Sc0 2.093837 1_455
O20 Sc6 2.142117 1_555
O21 V2 1.940455 1_565
O21 V0 1.978483 1_565
O21 V4 2.120494 1_556
O21 V1 2.130266 1_566
O22 V7 2.033942 1_565
O22 V6 2.038845 1_455
O22 Sc2 2.101900 1_555
O22 Sc4 2.133897 1_555
O23 V0 2.045321 1_565
O23 Sc2 2.062799 1_555
O23 Sc6 2.103502 1_555
O23 Sc5 2.137324 1_555
