# generated using pymatgen
data_Co6O7F5
_symmetry_space_group_name_H-M   'P 1'
_cell_length_a   4.63506500
_cell_length_b   5.48031417
_cell_length_c   7.46039188
_cell_angle_alpha   83.77057063
_cell_angle_beta   85.36716443
_cell_angle_gamma   83.52740164
_symmetry_Int_Tables_number   1
_chemical_formula_structural   Co6O7F5
_chemical_formula_sum   'Co6 O7 F5'
_cell_volume   186.73505875
_cell_formula_units_Z   1
loop_
 _symmetry_equiv_pos_site_id
 _symmetry_equiv_pos_as_xyz
  1  'x, y, z'
loop_
 _atom_site_type_symbol
 _atom_site_label
 _atom_site_symmetry_multiplicity
 _atom_site_fract_x
 _atom_site_fract_y
 _atom_site_fract_z
 _atom_site_occupancy
  Co  Co0  1  0.54315400  0.53228300  0.01632200  1
  Co  Co1  1  0.49929200  0.16615500  0.33061500  1
  Co  Co2  1  0.49444900  0.82844300  0.66406300  1
  Co  Co3  1  0.00127400  0.33354900  0.66925300  1
  Co  Co4  1  0.99116400  0.66702300  0.32373000  1
  Co  Co5  1  0.99264100  0.98846200  0.00193400  1
  O  O0  1  0.81507500  0.71333800  0.10676100  1
  O  O1  1  0.69110400  0.53800800  0.77318000  1
  O  O2  1  0.69434100  0.20481800  0.10444700  1
  O  O3  1  0.69096500  0.87301200  0.43030300  1
  O  O4  1  0.31213300  0.12868600  0.56057200  1
  O  O5  1  0.30519300  0.46549400  0.22959100  1
  O  O6  1  0.30487200  0.78787300  0.90024500  1
  F  F0  1  0.81038100  0.38471800  0.42730400  1
  F  F1  1  0.81032400  0.02670500  0.77841100  1
  F  F2  1  0.18030700  0.95341800  0.22818100  1
  F  F3  1  0.18068200  0.27164000  0.90582800  1
  F  F4  1  0.18264600  0.63637700  0.54926100  1
loop_
_geom_bond_atom_site_label_1
_geom_bond_atom_site_label_2
_geom_bond_distance
_geom_bond_site_symmetry_2
Co0 O6 1.863923 1_554
Co0 O1 1.884984 1_554
Co0 O5 1.887633 1_555
Co0 O0 1.895500 1_555
Co0 O2 1.918012 1_555
Co1 O2 1.851593 1_555
Co1 O3 1.857133 1_545
Co1 O4 1.860427 1_555
Co1 O5 1.891306 1_555
Co1 F0 2.186111 1_555
Co1 F2 2.212184 1_545
Co2 O4 1.879853 1_565
Co2 O1 1.881100 1_555
Co2 O3 1.905722 1_555
Co2 O6 1.906606 1_555
Co2 F4 2.160721 1_555
Co2 F1 2.193964 1_565
Co3 O1 1.889131 1_455
Co3 O4 1.907371 1_555
Co3 F3 1.991271 1_555
Co3 F4 2.032954 1_555
Co3 F1 2.048472 1_455
Co3 F0 2.052283 1_455
Co4 O0 1.851549 1_555
Co4 O5 1.863441 1_655
Co4 O3 1.872050 1_555
Co4 F0 1.902903 1_555
Co4 F2 1.925260 1_655
Co4 F4 1.947611 1_655
Co5 O0 1.866077 1_555
Co5 O6 1.877058 1_654
Co5 O2 1.886489 1_565
Co5 F3 1.909100 1_664
Co5 F1 1.910677 1_564
Co5 F2 1.942074 1_655
