# generated using pymatgen
data_CeCd2
_symmetry_space_group_name_H-M   'P 1'
_cell_length_a   10.32306554
_cell_length_b   10.32306794
_cell_length_c   6.41325482
_cell_angle_alpha   90.00000000
_cell_angle_beta   90.00000000
_cell_angle_gamma   120.00000579
_symmetry_Int_Tables_number   1
_chemical_formula_structural   CeCd2
_chemical_formula_sum   'Ce8 Cd16'
_cell_volume   591.87033434
_cell_formula_units_Z   8
loop_
 _symmetry_equiv_pos_site_id
 _symmetry_equiv_pos_as_xyz
  1  'x, y, z'
loop_
 _atom_site_type_symbol
 _atom_site_label
 _atom_site_symmetry_multiplicity
 _atom_site_fract_x
 _atom_site_fract_y
 _atom_site_fract_z
 _atom_site_occupancy
  Ce  Ce0_0  1  0.00000000  0.00000000  0.00000000  1
  Ce  Ce0_1  1  0.00000000  0.00000000  0.50000000  1
  Ce  Ce0_2  1  0.00000000  0.50000000  0.00000000  1
  Ce  Ce0_3  1  0.00000000  0.50000000  0.50000000  1
  Ce  Ce0_4  1  0.50000000  0.00000000  0.00000000  1
  Ce  Ce0_5  1  0.50000000  0.00000000  0.50000000  1
  Ce  Ce0_6  1  0.50000000  0.50000000  0.00000000  1
  Ce  Ce0_7  1  0.50000000  0.50000000  0.50000000  1
  Cd  Cd0_0  1  0.16666650  0.33333350  0.25016879  1
  Cd  Cd0_1  1  0.16666650  0.33333350  0.75016880  1
  Cd  Cd0_2  1  0.16666650  0.83333350  0.25016879  1
  Cd  Cd0_3  1  0.16666650  0.83333350  0.75016880  1
  Cd  Cd0_4  1  0.66666650  0.33333350  0.25016879  1
  Cd  Cd0_5  1  0.66666650  0.33333350  0.75016880  1
  Cd  Cd0_6  1  0.66666650  0.83333350  0.25016879  1
  Cd  Cd0_7  1  0.66666650  0.83333350  0.75016880  1
  Cd  Cd1_0  1  0.33333350  0.16666650  0.24983121  1
  Cd  Cd1_1  1  0.33333350  0.16666650  0.74983121  1
  Cd  Cd1_2  1  0.33333350  0.66666650  0.24983121  1
  Cd  Cd1_3  1  0.33333350  0.66666650  0.74983121  1
  Cd  Cd1_4  1  0.83333350  0.16666650  0.24983121  1
  Cd  Cd1_5  1  0.83333350  0.16666650  0.74983121  1
  Cd  Cd1_6  1  0.83333350  0.66666650  0.24983121  1
  Cd  Cd1_7  1  0.83333350  0.66666650  0.74983121  1
loop_
_geom_bond_atom_site_label_1
_geom_bond_atom_site_label_2
_geom_bond_distance
_geom_bond_site_symmetry_2
Ce0_0 Ce0_1 3.206627 1_555
Ce0_0 Ce0_1 3.206627 1_554
Ce0_2 Ce0_3 3.206627 1_555
Ce0_2 Ce0_3 3.206627 1_554
Ce0_4 Ce0_5 3.206627 1_554
Ce0_4 Ce0_5 3.206627 1_555
Ce0_6 Ce0_7 3.206627 1_555
Ce0_6 Ce0_7 3.206627 1_554
Cd0_0 Cd1_4 2.980010 1_455
Cd0_0 Cd1_2 2.980011 1_555
Cd0_0 Cd1_0 2.980020 1_555
Cd0_0 Cd0_1 3.206627 1_554
Cd0_0 Cd0_1 3.206627 1_555
Cd0_0 Ce0_3 3.383431 1_555
Cd0_0 Ce0_7 3.383434 1_555
Cd0_0 Ce0_1 3.383435 1_555
Cd0_0 Ce0_2 3.384456 1_555
Cd0_0 Ce0_6 3.384460 1_555
Cd0_0 Ce0_0 3.384460 1_555
Cd0_1 Cd1_5 2.980010 1_455
Cd0_1 Cd1_3 2.980011 1_555
Cd0_1 Cd1_1 2.980020 1_555
Cd0_1 Ce0_2 3.383431 1_556
Cd0_1 Ce0_6 3.383434 1_556
Cd0_1 Ce0_0 3.383435 1_556
Cd0_1 Ce0_3 3.384456 1_555
Cd0_1 Ce0_7 3.384460 1_555
Cd0_1 Ce0_1 3.384460 1_555
Cd0_2 Cd1_6 2.980010 1_455
Cd0_2 Cd1_0 2.980011 1_565
Cd0_2 Cd1_2 2.980020 1_555
Cd0_2 Cd0_3 3.206627 1_554
Cd0_2 Cd0_3 3.206627 1_555
Cd0_2 Ce0_1 3.383431 1_565
Cd0_2 Ce0_5 3.383434 1_565
Cd0_2 Ce0_3 3.383435 1_555
Cd0_2 Ce0_0 3.384456 1_565
Cd0_2 Ce0_4 3.384460 1_565
Cd0_2 Ce0_2 3.384460 1_555
Cd0_3 Cd1_7 2.980010 1_455
Cd0_3 Cd1_1 2.980011 1_565
Cd0_3 Cd1_3 2.980020 1_555
Cd0_3 Ce0_0 3.383431 1_566
Cd0_3 Ce0_4 3.383434 1_566
Cd0_3 Ce0_2 3.383435 1_556
Cd0_3 Ce0_1 3.384456 1_565
Cd0_3 Ce0_5 3.384460 1_565
Cd0_3 Ce0_3 3.384460 1_555
Cd0_4 Cd1_0 2.980010 1_555
Cd0_4 Cd1_6 2.980011 1_555
Cd0_4 Cd1_4 2.980020 1_555
Cd0_4 Cd0_5 3.206627 1_554
Cd0_4 Cd0_5 3.206627 1_555
Cd0_4 Ce0_7 3.383431 1_555
Cd0_4 Ce0_3 3.383434 1_655
Cd0_4 Ce0_5 3.383435 1_555
Cd0_4 Ce0_6 3.384456 1_555
Cd0_4 Ce0_2 3.384460 1_655
Cd0_4 Ce0_4 3.384460 1_555
Cd0_5 Cd1_1 2.980010 1_555
Cd0_5 Cd1_7 2.980011 1_555
Cd0_5 Cd1_5 2.980020 1_555
Cd0_5 Ce0_6 3.383431 1_556
Cd0_5 Ce0_2 3.383434 1_656
Cd0_5 Ce0_4 3.383435 1_556
Cd0_5 Ce0_7 3.384456 1_555
Cd0_5 Ce0_3 3.384460 1_655
Cd0_5 Ce0_5 3.384460 1_555
Cd0_6 Cd1_2 2.980010 1_555
Cd0_6 Cd1_4 2.980011 1_565
Cd0_6 Cd1_6 2.980020 1_555
Cd0_6 Cd0_7 3.206627 1_554
Cd0_6 Cd0_7 3.206627 1_555
Cd0_6 Ce0_5 3.383431 1_565
Cd0_6 Ce0_1 3.383434 1_665
Cd0_6 Ce0_7 3.383435 1_555
Cd0_6 Ce0_4 3.384456 1_565
Cd0_6 Ce0_0 3.384460 1_665
Cd0_6 Ce0_6 3.384460 1_555
Cd0_7 Cd1_3 2.980010 1_555
Cd0_7 Cd1_5 2.980011 1_565
Cd0_7 Cd1_7 2.980020 1_555
Cd0_7 Ce0_4 3.383431 1_566
Cd0_7 Ce0_0 3.383434 1_666
Cd0_7 Ce0_6 3.383435 1_556
Cd0_7 Ce0_5 3.384456 1_565
Cd0_7 Ce0_1 3.384460 1_665
Cd0_7 Ce0_7 3.384460 1_555
Cd1_0 Cd1_1 3.206627 1_554
Cd1_0 Cd1_1 3.206627 1_555
Cd1_0 Ce0_4 3.383431 1_555
Cd1_0 Ce0_0 3.383434 1_555
Cd1_0 Ce0_6 3.383435 1_555
Cd1_0 Ce0_5 3.384456 1_555
Cd1_0 Ce0_1 3.384460 1_555
Cd1_0 Ce0_7 3.384460 1_555
Cd1_1 Ce0_5 3.383431 1_555
Cd1_1 Ce0_1 3.383434 1_555
Cd1_1 Ce0_7 3.383435 1_555
Cd1_1 Ce0_4 3.384456 1_556
Cd1_1 Ce0_0 3.384460 1_556
Cd1_1 Ce0_6 3.384460 1_556
Cd1_2 Cd1_3 3.206627 1_554
Cd1_2 Cd1_3 3.206627 1_555
Cd1_2 Ce0_6 3.383431 1_555
Cd1_2 Ce0_2 3.383434 1_555
Cd1_2 Ce0_4 3.383435 1_565
Cd1_2 Ce0_7 3.384456 1_555
Cd1_2 Ce0_3 3.384460 1_555
Cd1_2 Ce0_5 3.384460 1_565
Cd1_3 Ce0_7 3.383431 1_555
Cd1_3 Ce0_3 3.383434 1_555
Cd1_3 Ce0_5 3.383435 1_565
Cd1_3 Ce0_6 3.384456 1_556
Cd1_3 Ce0_2 3.384460 1_556
Cd1_3 Ce0_4 3.384460 1_566
Cd1_4 Cd1_5 3.206627 1_554
Cd1_4 Cd1_5 3.206627 1_555
Cd1_4 Ce0_0 3.383431 1_655
Cd1_4 Ce0_4 3.383434 1_555
Cd1_4 Ce0_2 3.383435 1_655
Cd1_4 Ce0_1 3.384456 1_655
Cd1_4 Ce0_5 3.384460 1_555
Cd1_4 Ce0_3 3.384460 1_655
Cd1_5 Ce0_1 3.383431 1_655
Cd1_5 Ce0_5 3.383434 1_555
Cd1_5 Ce0_3 3.383435 1_655
Cd1_5 Ce0_0 3.384456 1_656
Cd1_5 Ce0_4 3.384460 1_556
Cd1_5 Ce0_2 3.384460 1_656
Cd1_6 Cd1_7 3.206627 1_554
Cd1_6 Cd1_7 3.206627 1_555
Cd1_6 Ce0_2 3.383431 1_655
Cd1_6 Ce0_6 3.383434 1_555
Cd1_6 Ce0_0 3.383435 1_665
Cd1_6 Ce0_3 3.384456 1_655
Cd1_6 Ce0_7 3.384460 1_555
Cd1_6 Ce0_1 3.384460 1_665
Cd1_7 Ce0_3 3.383431 1_655
Cd1_7 Ce0_7 3.383434 1_555
Cd1_7 Ce0_1 3.383435 1_665
Cd1_7 Ce0_2 3.384456 1_656
Cd1_7 Ce0_6 3.384460 1_556
Cd1_7 Ce0_0 3.384460 1_666
