# generated using pymatgen
data_Li2Cu(PO3)3
_symmetry_space_group_name_H-M   'P 1'
_cell_length_a   8.52369200
_cell_length_b   8.96627400
_cell_length_c   8.96752800
_cell_angle_alpha   90.00000000
_cell_angle_beta   90.00000000
_cell_angle_gamma   90.00000000
_symmetry_Int_Tables_number   1
_chemical_formula_structural   Li2Cu(PO3)3
_chemical_formula_sum   'Li8 Cu4 P12 O36'
_cell_volume   685.35012446
_cell_formula_units_Z   4
loop_
 _symmetry_equiv_pos_site_id
 _symmetry_equiv_pos_as_xyz
  1  'x, y, z'
loop_
 _atom_site_type_symbol
 _atom_site_label
 _atom_site_symmetry_multiplicity
 _atom_site_fract_x
 _atom_site_fract_y
 _atom_site_fract_z
 _atom_site_occupancy
  Li  Li0  1  0.63918400  0.83821100  0.32497500  1
  Li  Li1  1  0.00774200  0.95193400  0.97009700  1
  Li  Li2  1  0.49225800  0.04806600  0.47009700  1
  Li  Li3  1  0.86081600  0.16178900  0.82497500  1
  Li  Li4  1  0.36081600  0.33821100  0.17502500  1
  Li  Li5  1  0.99225800  0.45193400  0.52990300  1
  Li  Li6  1  0.50774200  0.54806600  0.02990300  1
  Li  Li7  1  0.13918400  0.66178900  0.67502500  1
  Cu  Cu0  1  0.84817800  0.86939200  0.60431700  1
  Cu  Cu1  1  0.65182200  0.13060800  0.10431700  1
  Cu  Cu2  1  0.15182200  0.36939200  0.89568300  1
  Cu  Cu3  1  0.34817800  0.63060800  0.39568300  1
  P  P0  1  0.70529200  0.80136300  0.93543600  1
  P  P1  1  0.46857400  0.81658600  0.68130100  1
  P  P2  1  0.31466800  0.98929700  0.19227200  1
  P  P3  1  0.18533200  0.01070300  0.69227200  1
  P  P4  1  0.03142600  0.18341400  0.18130100  1
  P  P5  1  0.79470800  0.19863700  0.43543600  1
  P  P6  1  0.29470800  0.30136300  0.56456400  1
  P  P7  1  0.53142600  0.31658600  0.81869900  1
  P  P8  1  0.68533200  0.48929700  0.30772800  1
  P  P9  1  0.81466800  0.51070300  0.80772800  1
  P  P10  1  0.96857400  0.68341400  0.31869900  1
  P  P11  1  0.20529200  0.69863700  0.06456400  1
  O  O0  1  0.54725400  0.77229300  0.83873200  1
  O  O1  1  0.86874600  0.81146600  0.36816700  1
  O  O2  1  0.65568300  0.83655900  0.09068500  1
  O  O3  1  0.27170100  0.87003900  0.06076000  1
  O  O4  1  0.59160300  0.88079200  0.57792200  1
  O  O5  1  0.09543600  0.88336100  0.62571700  1
  O  O6  1  0.38313800  0.91153800  0.32618000  1
  O  O7  1  0.82130000  0.89951900  0.85416000  1
  O  O8  1  0.36130900  0.95656700  0.73469200  1
  O  O9  1  0.13869100  0.04343300  0.23469200  1
  O  O10  1  0.67870000  0.10048100  0.35416000  1
  O  O11  1  0.11686200  0.08846200  0.82618000  1
  O  O12  1  0.40456400  0.11663900  0.12571700  1
  O  O13  1  0.90839700  0.11920800  0.07792200  1
  O  O14  1  0.22829900  0.12996100  0.56076000  1
  O  O15  1  0.84431700  0.16344100  0.59068500  1
  O  O16  1  0.63125400  0.18853400  0.86816700  1
  O  O17  1  0.95274600  0.22770700  0.33873200  1
  O  O18  1  0.45274600  0.27229300  0.66126800  1
  O  O19  1  0.13125400  0.31146600  0.13183300  1
  O  O20  1  0.34431700  0.33655900  0.40931500  1
  O  O21  1  0.72829900  0.37003900  0.43924000  1
  O  O22  1  0.40839700  0.38079200  0.92207800  1
  O  O23  1  0.90456400  0.38336100  0.87428300  1
  O  O24  1  0.61686200  0.41153800  0.17382000  1
  O  O25  1  0.17870000  0.39951900  0.64584000  1
  O  O26  1  0.63869100  0.45656700  0.76530800  1
  O  O27  1  0.86130900  0.54343300  0.26530800  1
  O  O28  1  0.32130000  0.60048100  0.14584000  1
  O  O29  1  0.88313800  0.58846200  0.67382000  1
  O  O30  1  0.59543600  0.61663900  0.37428300  1
  O  O31  1  0.09160300  0.61920800  0.42207800  1
  O  O32  1  0.77170100  0.62996100  0.93924000  1
  O  O33  1  0.15568300  0.66344100  0.90931500  1
  O  O34  1  0.36874600  0.68853400  0.63183300  1
  O  O35  1  0.04725400  0.72770700  0.16126800  1
loop_
_geom_bond_atom_site_label_1
_geom_bond_atom_site_label_2
_geom_bond_distance
_geom_bond_site_symmetry_2
Li0 O1 2.009045 1_555
Li0 O30 2.069165 1_555
Li0 O2 2.105756 1_555
Li0 O6 2.279365 1_555
Li0 O4 2.335696 1_555
Li0 O10 2.389957 1_565
Li1 O7 1.956337 1_455
Li1 O13 1.975212 1_466
Li1 O11 2.007294 1_565
Li1 O3 2.502452 1_556
Li2 O10 1.956337 1_555
Li2 O4 1.975212 1_545
Li2 O6 2.007294 1_545
Li2 O14 2.502452 1_555
Li3 O16 2.009045 1_555
Li3 O23 2.069165 1_555
Li3 O15 2.105756 1_555
Li3 O11 2.279365 1_655
Li3 O13 2.335696 1_556
Li3 O7 2.389957 1_545
Li4 O19 2.009045 1_555
Li4 O12 2.069165 1_555
Li4 O20 2.105756 1_555
Li4 O24 2.279365 1_555
Li4 O22 2.335696 1_554
Li4 O28 2.389957 1_555
Li5 O25 1.956337 1_655
Li5 O31 1.975212 1_655
Li5 O29 2.007294 1_555
Li5 O21 2.502452 1_555
Li6 O28 1.956337 1_555
Li6 O22 1.975212 1_554
Li6 O24 2.007294 1_555
Li6 O32 2.502452 1_554
Li7 O34 2.009045 1_555
Li7 O5 2.069165 1_555
Li7 O33 2.105756 1_555
Li7 O29 2.279365 1_455
Li7 O31 2.335696 1_555
Li7 O25 2.389957 1_555
Cu0 O5 2.119973 1_655
Cu0 O1 2.187480 1_555
Cu0 O4 2.202112 1_555
Cu0 O7 2.268299 1_555
Cu0 O29 2.611914 1_555
Cu0 O15 2.639562 1_565
Cu1 O12 2.119973 1_555
Cu1 O16 2.187480 1_554
Cu1 O13 2.202112 1_555
Cu1 O10 2.268299 1_555
Cu1 O24 2.611914 1_555
Cu1 O2 2.639562 1_545
Cu2 O23 2.119973 1_455
Cu2 O19 2.187480 1_556
Cu2 O22 2.202112 1_555
Cu2 O25 2.268299 1_555
Cu2 O11 2.611914 1_555
Cu2 O33 2.639562 1_555
Cu3 O30 2.119973 1_555
Cu3 O34 2.187480 1_555
Cu3 O31 2.202112 1_555
Cu3 O28 2.268299 1_555
Cu3 O6 2.611914 1_555
Cu3 O20 2.639562 1_555
O0 P1 1.612629 1_555
O0 P0 1.623132 1_555
O1 P10 1.496352 1_555
O2 P0 1.488829 1_554
O3 P2 1.633514 1_555
O3 P11 1.638122 1_555
O4 P1 1.513452 1_555
O5 P3 1.499004 1_565
O6 P2 1.506216 1_555
O7 P0 1.511138 1_555
O8 P3 1.621801 1_565
O8 P1 1.624951 1_555
O9 P2 1.621801 1_545
O9 P4 1.624951 1_555
O10 P5 1.511138 1_555
O11 P3 1.506216 1_555
O12 P2 1.499004 1_545
O13 P4 1.513452 1_655
O14 P3 1.633514 1_555
O14 P6 1.638122 1_555
O15 P5 1.488829 1_555
O16 P7 1.496352 1_555
O17 P4 1.612629 1_655
O17 P5 1.623132 1_555
O18 P7 1.612629 1_555
O18 P6 1.623132 1_555
O19 P4 1.496352 1_555
O20 P6 1.488829 1_555
O21 P8 1.633514 1_555
O21 P5 1.638122 1_555
O22 P7 1.513452 1_555
O23 P9 1.499004 1_555
O24 P8 1.506216 1_555
O25 P6 1.511138 1_555
O26 P9 1.621801 1_555
O26 P7 1.624951 1_555
O27 P8 1.621801 1_555
O27 P10 1.624951 1_555
O28 P11 1.511138 1_555
O29 P9 1.506216 1_555
O30 P8 1.499004 1_555
O31 P10 1.513452 1_455
O32 P9 1.633514 1_555
O32 P0 1.638122 1_555
O33 P11 1.488829 1_556
O34 P1 1.496352 1_555
O35 P10 1.612629 1_455
O35 P11 1.623132 1_555
