# generated using pymatgen
data_Tc3Ru
_symmetry_space_group_name_H-M   'P 1'
_cell_length_a   5.47553109
_cell_length_b   5.47551721
_cell_length_c   4.33031315
_cell_angle_alpha   90.00010834
_cell_angle_beta   89.99990160
_cell_angle_gamma   120.00667325
_symmetry_Int_Tables_number   1
_chemical_formula_structural   Tc3Ru
_chemical_formula_sum   'Tc6 Ru2'
_cell_volume   112.42738910
_cell_formula_units_Z   2
loop_
 _symmetry_equiv_pos_site_id
 _symmetry_equiv_pos_as_xyz
  1  'x, y, z'
loop_
 _atom_site_type_symbol
 _atom_site_label
 _atom_site_symmetry_multiplicity
 _atom_site_fract_x
 _atom_site_fract_y
 _atom_site_fract_z
 _atom_site_occupancy
  Tc  Tc0  1  0.16412613  0.32813713  0.24997995  1
  Tc  Tc1  1  0.67186087  0.83587287  0.24997995  1
  Tc  Tc2  1  0.16414126  0.83585474  0.24999655  1
  Tc  Tc3  1  0.83587352  0.67186217  0.75001924  1
  Tc  Tc4  1  0.32814083  0.16412748  0.75001924  1
  Tc  Tc5  1  0.83585913  0.16414487  0.75000278  1
  Ru  Ru0  1  0.33330212  0.66669988  0.74999412  1
  Ru  Ru1  1  0.66669912  0.33329988  0.25000516  1
loop_
_geom_bond_atom_site_label_1
_geom_bond_atom_site_label_2
_geom_bond_distance
_geom_bond_site_symmetry_2
Tc0 Tc4 2.665860 1_554
Tc0 Tc4 2.666142 1_555
Tc0 Tc5 2.666503 1_454
Tc0 Tc5 2.666661 1_455
Tc0 Tc1 2.695136 1_445
Tc0 Tc2 2.695542 1_545
Tc0 Tc1 2.779836 1_555
Tc0 Tc2 2.779975 1_555
Tc1 Tc3 2.665857 1_554
Tc1 Tc3 2.666139 1_555
Tc1 Tc5 2.666515 1_564
Tc1 Tc5 2.666672 1_565
Tc1 Tc2 2.695546 1_655
Tc1 Tc2 2.779985 1_555
Tc2 Tc3 2.666506 1_454
Tc2 Tc4 2.666517 1_564
Tc2 Tc3 2.666663 1_455
Tc2 Tc4 2.666674 1_565
Tc3 Tc4 2.695144 1_665
Tc3 Tc5 2.695542 1_565
Tc3 Tc4 2.779828 1_555
Tc3 Tc5 2.779975 1_555
Tc4 Tc5 2.695551 1_455
Tc4 Tc5 2.779980 1_555
Ru0 Tc2 2.694762 1_555
Ru0 Tc2 2.694773 1_556
Ru0 Tc1 2.695310 1_556
Ru0 Tc0 2.695320 1_556
Ru0 Tc1 2.695407 1_555
Ru0 Tc0 2.695415 1_555
Ru0 Tc5 2.737588 1_455
Ru0 Tc5 2.737599 1_565
Ru0 Tc3 2.737819 1_555
Ru0 Tc4 2.737820 1_555
Ru0 Tc4 2.737916 1_565
Ru0 Tc3 2.737931 1_455
Ru1 Tc5 2.694760 1_555
Ru1 Tc5 2.694771 1_554
Ru1 Tc4 2.695309 1_554
Ru1 Tc3 2.695319 1_554
Ru1 Tc4 2.695405 1_555
Ru1 Tc3 2.695413 1_555
Ru1 Tc2 2.737585 1_655
Ru1 Tc2 2.737602 1_545
Ru1 Tc1 2.737822 1_555
Ru1 Tc0 2.737826 1_555
Ru1 Tc1 2.737914 1_545
Ru1 Tc0 2.737924 1_655
