# generated using pymatgen
data_GdFeB4
_symmetry_space_group_name_H-M   'P 1'
_cell_length_a   3.44225734
_cell_length_b   5.92399772
_cell_length_c   11.47171587
_cell_angle_alpha   90.00000000
_cell_angle_beta   90.00000000
_cell_angle_gamma   90.00000000
_symmetry_Int_Tables_number   1
_chemical_formula_structural   GdFeB4
_chemical_formula_sum   'Gd4 Fe4 B16'
_cell_volume   233.93036544
_cell_formula_units_Z   4
loop_
 _symmetry_equiv_pos_site_id
 _symmetry_equiv_pos_as_xyz
  1  'x, y, z'
loop_
 _atom_site_type_symbol
 _atom_site_label
 _atom_site_symmetry_multiplicity
 _atom_site_fract_x
 _atom_site_fract_y
 _atom_site_fract_z
 _atom_site_occupancy
  Gd  Gd0  1  0.50000000  0.62661902  0.65041601  1
  Gd  Gd1  1  0.50000000  0.37338098  0.34958399  1
  Gd  Gd2  1  0.50000000  0.12661902  0.84958399  1
  Gd  Gd3  1  0.50000000  0.87338098  0.15041601  1
  Fe  Fe0  1  0.50000000  0.62740453  0.91698368  1
  Fe  Fe1  1  0.50000000  0.37259547  0.08301632  1
  Fe  Fe2  1  0.50000000  0.12740453  0.58301632  1
  Fe  Fe3  1  0.50000000  0.87259547  0.41698368  1
  B  B0  1  -0.00000000  0.86029157  0.96694613  1
  B  B1  1  -0.00000000  0.13970843  0.03305387  1
  B  B2  1  -0.00000000  0.36029157  0.53305387  1
  B  B3  1  -0.00000000  0.63970843  0.46694613  1
  B  B4  1  -0.00000000  0.97713283  0.68975517  1
  B  B5  1  -0.00000000  0.02286717  0.31024483  1
  B  B6  1  -0.00000000  0.47713283  0.81024483  1
  B  B7  1  -0.00000000  0.52286717  0.18975517  1
  B  B8  1  -0.00000000  0.77914151  0.81716535  1
  B  B9  1  -0.00000000  0.22085849  0.18283465  1
  B  B10  1  -0.00000000  0.27914151  0.68283465  1
  B  B11  1  -0.00000000  0.72085849  0.31716535  1
  B  B12  1  -0.00000000  0.88810281  0.54619215  1
  B  B13  1  -0.00000000  0.11189719  0.45380785  1
  B  B14  1  -0.00000000  0.38810281  0.95380785  1
  B  B15  1  -0.00000000  0.61189719  0.04619215  1
loop_
_geom_bond_atom_site_label_1
_geom_bond_atom_site_label_2
_geom_bond_distance
_geom_bond_site_symmetry_2
B0 B15 1.729658 1_556
B0 B8 1.784226 1_555
B0 B1 1.820721 1_566
B0 Fe0 2.279067 1_455
B0 Fe0 2.279067 1_555
B0 Gd2 2.695207 1_465
B0 Gd2 2.695207 1_565
B0 Gd3 2.719948 1_556
B0 Gd3 2.719948 1_456
B1 B14 1.729658 1_554
B1 B9 1.784226 1_555
B1 Fe1 2.279067 1_455
B1 Fe1 2.279067 1_555
B1 Gd3 2.695207 1_545
B1 Gd3 2.695207 1_445
B1 Gd2 2.719948 1_554
B1 Gd2 2.719948 1_454
B2 B3 1.820721 1_555
B2 Fe2 2.279067 1_455
B2 Fe2 2.279067 1_555
B2 Gd0 2.695207 1_555
B2 Gd0 2.695207 1_455
B2 Gd1 2.719948 1_455
B2 Gd1 2.719948 1_555
B3 Fe3 2.279067 1_455
B3 Fe3 2.279067 1_555
B3 Gd1 2.695207 1_455
B3 Gd1 2.695207 1_555
B3 Gd0 2.719948 1_555
B3 Gd0 2.719948 1_455
B4 B8 1.874035 1_555
B4 Fe2 2.292183 1_465
B4 Fe2 2.292183 1_565
B4 Gd2 2.666131 1_465
B4 Gd2 2.666131 1_565
B4 Gd0 2.734513 1_455
B4 Gd0 2.734513 1_555
B5 B9 1.874035 1_555
B5 Fe3 2.292183 1_545
B5 Fe3 2.292183 1_445
B5 Gd3 2.666131 1_545
B5 Gd3 2.666131 1_445
B5 Gd1 2.734513 1_455
B5 Gd1 2.734513 1_555
B6 B8 1.790859 1_555
B6 Fe0 2.292183 1_555
B6 Fe0 2.292183 1_455
B6 Gd0 2.666131 1_455
B6 Gd0 2.666131 1_555
B6 Gd2 2.734513 1_455
B6 Gd2 2.734513 1_555
B7 B9 1.790859 1_555
B7 Fe1 2.292183 1_455
B7 Fe1 2.292183 1_555
B7 Gd1 2.666131 1_455
B7 Gd1 2.666131 1_555
B7 Gd3 2.734513 1_555
B7 Gd3 2.734513 1_455
B8 Fe0 2.254221 1_555
B8 Fe0 2.254221 1_455
B8 Gd2 2.708843 1_565
B8 Gd2 2.708843 1_465
B8 Gd0 2.727245 1_455
B8 Gd0 2.727245 1_555
B9 Fe1 2.254221 1_455
B9 Fe1 2.254221 1_555
B9 Gd3 2.708843 1_545
B9 Gd3 2.708843 1_445
B9 Gd1 2.727245 1_455
B9 Gd1 2.727245 1_555
B10 B2 1.784226 1_555
B10 B4 1.790859 1_545
B10 B6 1.874035 1_555
B10 Fe2 2.254221 1_555
B10 Fe2 2.254221 1_455
B10 Gd0 2.708843 1_455
B10 Gd0 2.708843 1_555
B10 Gd2 2.727245 1_555
B10 Gd2 2.727245 1_455
B11 B3 1.784226 1_555
B11 B5 1.790859 1_565
B11 B7 1.874035 1_555
B11 Fe3 2.254221 1_555
B11 Fe3 2.254221 1_455
B11 Gd1 2.708843 1_455
B11 Gd1 2.708843 1_555
B11 Gd3 2.727245 1_455
B11 Gd3 2.727245 1_555
B12 B13 1.697299 1_565
B12 B4 1.729304 1_555
B12 B3 1.729658 1_555
B12 Fe2 2.269447 1_465
B12 Fe2 2.269447 1_565
B12 Fe3 2.273272 1_455
B12 Fe3 2.273272 1_555
B12 Gd0 2.606012 1_455
B12 Gd0 2.606012 1_555
B13 B5 1.729304 1_555
B13 B2 1.729658 1_555
B13 Fe3 2.269447 1_545
B13 Fe3 2.269447 1_445
B13 Fe2 2.273272 1_455
B13 Fe2 2.273272 1_555
B13 Gd1 2.606012 1_455
B13 Gd1 2.606012 1_555
B14 B15 1.697299 1_556
B14 B6 1.729304 1_555
B14 Fe0 2.269447 1_555
B14 Fe0 2.269447 1_455
B14 Fe1 2.273272 1_556
B14 Fe1 2.273272 1_456
B14 Gd2 2.606012 1_455
B14 Gd2 2.606012 1_555
B15 B7 1.729304 1_555
B15 Fe1 2.269447 1_455
B15 Fe1 2.269447 1_555
B15 Fe0 2.273272 1_554
B15 Fe0 2.273272 1_454
B15 Gd3 2.606012 1_455
B15 Gd3 2.606012 1_555
