# generated using pymatgen
data_W2Cl4O7
_symmetry_space_group_name_H-M   'P 1'
_cell_length_a   13.25189436
_cell_length_b   13.25189436
_cell_length_c   12.16256900
_cell_angle_alpha   90.00000000
_cell_angle_beta   90.00000000
_cell_angle_gamma   129.39458886
_symmetry_Int_Tables_number   1
_chemical_formula_structural   W2Cl4O7
_chemical_formula_sum   'W8 Cl16 O28'
_cell_volume   1650.61093011
_cell_formula_units_Z   4
loop_
 _symmetry_equiv_pos_site_id
 _symmetry_equiv_pos_as_xyz
  1  'x, y, z'
loop_
 _atom_site_type_symbol
 _atom_site_label
 _atom_site_symmetry_multiplicity
 _atom_site_fract_x
 _atom_site_fract_y
 _atom_site_fract_z
 _atom_site_occupancy
  W  W0  1  0.56491800  0.40575400  0.65776000  1
  W  W1  1  0.09424600  0.93508200  0.15776000  1
  W  W2  1  0.90575400  0.06491800  0.15776000  1
  W  W3  1  0.43508200  0.59424600  0.65776000  1
  W  W4  1  0.93508200  0.09424600  0.84224000  1
  W  W5  1  0.40575400  0.56491800  0.34224000  1
  W  W6  1  0.59424600  0.43508200  0.34224000  1
  W  W7  1  0.06491800  0.90575400  0.84224000  1
  Cl  Cl0  1  0.72207600  0.36858100  0.65280000  1
  Cl  Cl1  1  0.13141900  0.77792400  0.15280000  1
  Cl  Cl2  1  0.86858100  0.22207600  0.15280000  1
  Cl  Cl3  1  0.27792400  0.63141900  0.65280000  1
  Cl  Cl4  1  0.77792400  0.13141900  0.84720000  1
  Cl  Cl5  1  0.36858100  0.72207600  0.34720000  1
  Cl  Cl6  1  0.63141900  0.27792400  0.34720000  1
  Cl  Cl7  1  0.22207600  0.86858100  0.84720000  1
  Cl  Cl8  1  0.61666800  0.45540600  0.84701100  1
  Cl  Cl9  1  0.04459400  0.88333200  0.34701100  1
  Cl  Cl10  1  0.95540600  0.11666800  0.34701100  1
  Cl  Cl11  1  0.38333200  0.54459400  0.84701100  1
  Cl  Cl12  1  0.88333200  0.04459400  0.65298900  1
  Cl  Cl13  1  0.45540600  0.61666800  0.15298900  1
  Cl  Cl14  1  0.54459400  0.38333200  0.15298900  1
  Cl  Cl15  1  0.11666800  0.95540600  0.65298900  1
  O  O0  1  0.42770700  0.24294200  0.67006700  1
  O  O1  1  0.25705800  0.07229300  0.17006700  1
  O  O2  1  0.74294200  0.92770700  0.17006700  1
  O  O3  1  0.57229300  0.75705800  0.67006700  1
  O  O4  1  0.07229300  0.25705800  0.82993300  1
  O  O5  1  0.24294200  0.42770700  0.32993300  1
  O  O6  1  0.75705800  0.57229300  0.32993300  1
  O  O7  1  0.92770700  0.74294200  0.82993300  1
  O  O8  1  0.76837800  0.57558600  0.66092800  1
  O  O9  1  0.92441400  0.73162200  0.16092800  1
  O  O10  1  0.07558600  0.26837800  0.16092800  1
  O  O11  1  0.23162200  0.42441400  0.66092800  1
  O  O12  1  0.73162200  0.92441400  0.83907200  1
  O  O13  1  0.57558600  0.76837800  0.33907200  1
  O  O14  1  0.42441400  0.23162200  0.33907200  1
  O  O15  1  0.26837800  0.07558600  0.83907200  1
  O  O16  1  0.50000000  0.50000000  0.66023500  1
  O  O17  1  0.00000000  0.00000000  0.16023500  1
  O  O18  1  0.00000000  0.00000000  0.83976500  1
  O  O19  1  0.50000000  0.50000000  0.33976500  1
  O  O20  1  0.57847900  0.42152100  0.50000000  1
  O  O21  1  0.07847900  0.92152100  0.00000000  1
  O  O22  1  0.92152100  0.07847900  0.00000000  1
  O  O23  1  0.42152100  0.57847900  0.50000000  1
  O  O24  1  0.21517700  0.21517700  0.50000000  1
  O  O25  1  0.28482300  0.28482300  0.00000000  1
  O  O26  1  0.71517700  0.71517700  0.00000000  1
  O  O27  1  0.78482300  0.78482300  0.50000000  1
loop_
_geom_bond_atom_site_label_1
_geom_bond_atom_site_label_2
_geom_bond_distance
_geom_bond_site_symmetry_2
Cl0 W0 2.426095 1_555
Cl1 W1 2.426095 1_555
Cl2 W2 2.426095 1_555
Cl3 W3 2.426095 1_555
Cl4 W4 2.426095 1_555
Cl5 W5 2.426095 1_555
Cl6 W6 2.426095 1_555
Cl7 W7 2.426095 1_555
Cl8 W0 2.372481 1_555
Cl9 W1 2.372481 1_555
Cl10 W2 2.372481 1_555
Cl11 W3 2.372481 1_555
Cl12 W4 2.372481 1_555
Cl13 W5 2.372481 1_555
Cl14 W6 2.372481 1_555
Cl15 W7 2.372481 1_555
O0 W0 1.733224 1_555
O1 W1 1.733224 1_545
O2 W2 1.733224 1_565
O3 W3 1.733224 1_555
O4 W4 1.733224 1_455
O5 W5 1.733224 1_555
O6 W6 1.733224 1_555
O7 W7 1.733224 1_655
O8 W0 2.152664 1_555
O9 W1 2.152664 1_655
O10 W2 2.152664 1_455
O11 W3 2.152664 1_555
O12 W4 2.152664 1_565
O13 W5 2.152664 1_555
O14 W6 2.152664 1_555
O15 W7 2.152664 1_545
O16 W0 1.914329 1_555
O16 W3 1.914329 1_555
O17 W1 1.914329 1_545
O17 W2 1.914329 1_455
O18 W4 1.914329 1_455
O18 W7 1.914329 1_545
O19 W5 1.914329 1_555
O19 W6 1.914329 1_555
O20 W6 1.926125 1_555
O20 W0 1.926125 1_555
O21 W7 1.926125 1_554
O21 W1 1.926125 1_555
O22 W4 1.926125 1_554
O22 W2 1.926125 1_555
O23 W3 1.926125 1_555
O23 W5 1.926125 1_555
