# generated using pymatgen
data_MnV4NiO12
_symmetry_space_group_name_H-M   'P 1'
_cell_length_a   6.82946831
_cell_length_b   6.82946831
_cell_length_c   5.86392339
_cell_angle_alpha   74.55604942
_cell_angle_beta   74.55604942
_cell_angle_gamma   84.04224498
_symmetry_Int_Tables_number   1
_chemical_formula_structural   MnV4NiO12
_chemical_formula_sum   'Mn1 V4 Ni1 O12'
_cell_volume   253.94878655
_cell_formula_units_Z   1
loop_
 _symmetry_equiv_pos_site_id
 _symmetry_equiv_pos_as_xyz
  1  'x, y, z'
loop_
 _atom_site_type_symbol
 _atom_site_label
 _atom_site_symmetry_multiplicity
 _atom_site_fract_x
 _atom_site_fract_y
 _atom_site_fract_z
 _atom_site_occupancy
  Mn  Mn0  1  0.91462800  0.08537200  0.50000000  1
  V  V0  1  0.79516300  0.61259300  0.51103400  1
  V  V1  1  0.60909500  0.79400700  0.01638500  1
  V  V2  1  0.38740700  0.20483700  0.48896600  1
  V  V3  1  0.20599300  0.39090500  0.98361500  1
  Ni  Ni0  1  0.08628700  0.91371300  0.00000000  1
  O  O0  1  0.96595500  0.80326300  0.38154300  1
  O  O1  1  0.91374900  0.38299100  0.54090000  1
  O  O2  1  0.80114100  0.96346100  0.90225300  1
  O  O3  1  0.63415600  0.63749800  0.30713700  1
  O  O4  1  0.61700900  0.08625100  0.45910000  1
  O  O5  1  0.64462500  0.63930000  0.80367000  1
  O  O6  1  0.36250200  0.36584400  0.69286300  1
  O  O7  1  0.37732800  0.90901400  0.04144200  1
  O  O8  1  0.36070000  0.35537500  0.19633000  1
  O  O9  1  0.19673700  0.03404500  0.61845700  1
  O  O10  1  0.09098600  0.62267200  0.95855800  1
  O  O11  1  0.03653900  0.19885900  0.09774700  1
loop_
_geom_bond_atom_site_label_1
_geom_bond_atom_site_label_2
_geom_bond_distance
_geom_bond_site_symmetry_2
Mn0 O4 2.108380 1_555
Mn0 O1 2.108380 1_555
Mn0 O9 2.181802 1_655
Mn0 O0 2.181802 1_545
Mn0 O11 2.229819 1_655
Mn0 O2 2.229819 1_545
Ni0 O10 2.061727 1_554
Ni0 O7 2.061727 1_555
Ni0 O9 2.121471 1_564
Ni0 O0 2.121471 1_455
Ni0 O2 2.142367 1_454
Ni0 O11 2.142367 1_565
O0 V0 1.717483 1_555
O1 V0 1.676616 1_555
O2 V1 1.715377 1_556
O3 V0 1.794617 1_555
O3 V1 1.795964 1_555
O4 V2 1.676616 1_555
O5 V1 1.794036 1_556
O5 V0 1.795286 1_555
O6 V2 1.794617 1_555
O6 V3 1.795964 1_555
O7 V1 1.680303 1_555
O8 V3 1.794036 1_554
O8 V2 1.795286 1_555
O9 V2 1.717483 1_555
O10 V3 1.680303 1_555
O11 V3 1.715377 1_554
