# generated using pymatgen
data_Li4Mn3Nb(PO4)4
_symmetry_space_group_name_H-M   'P 1'
_cell_length_a   6.23068100
_cell_length_b   4.79034900
_cell_length_c   10.66667123
_cell_angle_alpha   89.98818812
_cell_angle_beta   90.00000000
_cell_angle_gamma   90.00000000
_symmetry_Int_Tables_number   1
_chemical_formula_structural   Li4Mn3Nb(PO4)4
_chemical_formula_sum   'Li4 Mn3 Nb1 P4 O16'
_cell_volume   318.36958531
_cell_formula_units_Z   1
loop_
 _symmetry_equiv_pos_site_id
 _symmetry_equiv_pos_as_xyz
  1  'x, y, z'
loop_
 _atom_site_type_symbol
 _atom_site_label
 _atom_site_symmetry_multiplicity
 _atom_site_fract_x
 _atom_site_fract_y
 _atom_site_fract_z
 _atom_site_occupancy
  Li  Li0  1  0.24853700  0.99999700  0.00208600  1
  Li  Li1  1  0.75146300  0.99999700  0.00208600  1
  Li  Li2  1  0.74694700  0.50090300  0.50066800  1
  Li  Li3  1  0.25305300  0.50090300  0.50066800  1
  Mn  Mn0  1  0.00000000  0.02817200  0.28059900  1
  Mn  Mn1  1  0.00000000  0.47615500  0.78059900  1
  Mn  Mn2  1  0.50000000  0.52847900  0.21858100  1
  Nb  Nb0  1  0.50000000  0.97216700  0.72309600  1
  P  P0  1  0.50000000  0.09080800  0.40517200  1
  P  P1  1  0.50000000  0.41160100  0.91075700  1
  P  P2  1  0.00000000  0.59016000  0.09210500  1
  P  P3  1  0.00000000  0.90683900  0.58908700  1
  O  O0  1  0.50000000  0.21476800  0.54033300  1
  O  O1  1  0.30057500  0.22291600  0.33674400  1
  O  O2  1  0.69942500  0.22291600  0.33674400  1
  O  O3  1  0.00000000  0.22751300  0.59706300  1
  O  O4  1  0.00000000  0.26917200  0.09642300  1
  O  O5  1  0.29779700  0.28294900  0.84207100  1
  O  O6  1  0.70220300  0.28294900  0.84207100  1
  O  O7  1  0.50000000  0.28585200  0.04496900  1
  O  O8  1  0.00000000  0.71129800  0.95621600  1
  O  O9  1  0.80071500  0.72233200  0.16052300  1
  O  O10  1  0.19928500  0.72233200  0.16052300  1
  O  O11  1  0.50000000  0.73274300  0.91150800  1
  O  O12  1  0.50000000  0.77002300  0.40136500  1
  O  O13  1  0.80386100  0.76742500  0.65745200  1
  O  O14  1  0.19613900  0.76742500  0.65745200  1
  O  O15  1  0.00000000  0.79120600  0.45303800  1
loop_
_geom_bond_atom_site_label_1
_geom_bond_atom_site_label_2
_geom_bond_distance
_geom_bond_site_symmetry_2
Li0 O7 2.130590 1_565
Li0 O8 2.133143 1_554
Li0 O10 2.172217 1_555
Li0 O5 2.200846 1_564
Li0 O11 2.242280 1_554
Li0 O4 2.252505 1_565
Li1 O7 2.130590 1_565
Li1 O8 2.133143 1_654
Li1 O9 2.172217 1_555
Li1 O6 2.200846 1_564
Li1 O11 2.242280 1_554
Li1 O4 2.252505 1_665
Li2 O0 2.103566 1_555
Li2 O13 2.133888 1_555
Li2 O15 2.162799 1_655
Li2 O2 2.217943 1_555
Li2 O12 2.269544 1_555
Li2 O3 2.292982 1_655
Li3 O0 2.103566 1_555
Li3 O14 2.133888 1_555
Li3 O15 2.162799 1_555
Li3 O1 2.217943 1_555
Li3 O12 2.269544 1_555
Li3 O3 2.292982 1_555
Mn0 O15 2.161230 1_545
Mn0 O1 2.176351 1_555
Mn0 O2 2.176351 1_455
Mn0 O4 2.278445 1_555
Mn0 O10 2.308567 1_545
Mn0 O9 2.308567 1_445
Mn1 O6 2.174647 1_455
Mn1 O5 2.174647 1_555
Mn1 O8 2.186034 1_555
Mn1 O14 2.272665 1_555
Mn1 O13 2.272665 1_455
Mn1 O3 2.291789 1_555
Mn2 O9 2.180876 1_555
Mn2 O10 2.180876 1_555
Mn2 O7 2.186584 1_555
Mn2 O12 2.267395 1_555
Mn2 O1 2.296601 1_555
Mn2 O2 2.296601 1_555
Nb0 O13 2.244314 1_555
Nb0 O14 2.244314 1_555
Nb0 O0 2.269380 1_565
Nb0 O11 2.313762 1_555
Nb0 O6 2.327005 1_565
Nb0 O5 2.327005 1_565
O0 P0 1.559332 1_555
O1 P0 1.573846 1_555
O2 P0 1.573846 1_555
O3 P3 1.538512 1_545
O4 P2 1.538325 1_555
O5 P1 1.582412 1_555
O6 P1 1.582412 1_555
O7 P1 1.553053 1_554
O8 P2 1.561216 1_556
O9 P2 1.573353 1_655
O10 P2 1.573353 1_555
O11 P1 1.538405 1_555
O12 P0 1.537217 1_565
O13 P3 1.571961 1_655
O14 P3 1.571961 1_555
O15 P3 1.553420 1_555
