# generated using pymatgen
data_Li4Ni7(PO4)6
_symmetry_space_group_name_H-M   'P 1'
_cell_length_a   8.76733402
_cell_length_b   8.76733402
_cell_length_c   6.41295202
_cell_angle_alpha   81.20726733
_cell_angle_beta   81.20726733
_cell_angle_gamma   105.02126389
_symmetry_Int_Tables_number   1
_chemical_formula_structural   Li4Ni7(PO4)6
_chemical_formula_sum   'Li4 Ni7 P6 O24'
_cell_volume   460.83389743
_cell_formula_units_Z   1
loop_
 _symmetry_equiv_pos_site_id
 _symmetry_equiv_pos_as_xyz
  1  'x, y, z'
loop_
 _atom_site_type_symbol
 _atom_site_label
 _atom_site_symmetry_multiplicity
 _atom_site_fract_x
 _atom_site_fract_y
 _atom_site_fract_z
 _atom_site_occupancy
  Li  Li0  1  0.73159000  0.73159000  0.53573900  1
  Li  Li1  1  0.53696500  0.25338900  0.52998700  1
  Li  Li2  1  0.25338900  0.53696500  0.52998700  1
  Li  Li3  1  0.05805000  0.05805000  0.50516300  1
  Ni  Ni0  1  0.97856800  0.36406700  0.18445400  1
  Ni  Ni1  1  0.36406700  0.97856800  0.18445400  1
  Ni  Ni2  1  0.62281200  0.37497200  0.99886400  1
  Ni  Ni3  1  0.37497200  0.62281200  0.99886400  1
  Ni  Ni4  1  0.99983900  0.99983900  0.00297200  1
  Ni  Ni5  1  0.64277800  0.01651600  0.81608200  1
  Ni  Ni6  1  0.01651600  0.64277800  0.81608200  1
  P  P0  1  0.90313800  0.28455100  0.71224000  1
  P  P1  1  0.28455100  0.90313800  0.71224000  1
  P  P2  1  0.68472400  0.68472400  0.04677300  1
  P  P3  1  0.30880800  0.30880800  0.95493800  1
  P  P4  1  0.71646900  0.09078900  0.28622000  1
  P  P5  1  0.09078900  0.71646900  0.28622000  1
  O  O0  1  0.77761900  0.60114700  0.89109600  1
  O  O1  1  0.60114700  0.77761900  0.89109600  1
  O  O2  1  0.79074000  0.79074000  0.16790900  1
  O  O3  1  0.39335300  0.97660400  0.86211400  1
  O  O4  1  0.97660400  0.39335300  0.86211400  1
  O  O5  1  0.09968800  0.89222300  0.77558300  1
  O  O6  1  0.89222300  0.09968800  0.77558300  1
  O  O7  1  0.71813300  0.27877700  0.73607400  1
  O  O8  1  0.27877700  0.71813300  0.73607400  1
  O  O9  1  0.54376300  0.54376300  0.19356700  1
  O  O10  1  0.44310700  0.44310700  0.78418200  1
  O  O11  1  0.11475500  0.90280800  0.21727100  1
  O  O12  1  0.90280800  0.11475500  0.21727100  1
  O  O13  1  0.70630400  0.27075800  0.27142100  1
  O  O14  1  0.27075800  0.70630400  0.27142100  1
  O  O15  1  0.66071800  0.98487300  0.51144100  1
  O  O16  1  0.98487300  0.66071800  0.51144100  1
  O  O17  1  0.19531300  0.19531300  0.85202900  1
  O  O18  1  0.61043100  0.01549200  0.13529000  1
  O  O19  1  0.01549200  0.61043100  0.13529000  1
  O  O20  1  0.40173500  0.21972700  0.09864800  1
  O  O21  1  0.21972700  0.40173500  0.09864800  1
  O  O22  1  0.34595800  0.01295200  0.48873700  1
  O  O23  1  0.01295200  0.34595800  0.48873700  1
loop_
_geom_bond_atom_site_label_1
_geom_bond_atom_site_label_2
_geom_bond_distance
_geom_bond_site_symmetry_2
Li0 O2 2.283592 1_555
Li0 O15 2.445515 1_555
Li0 O16 2.445515 1_555
Li0 O1 2.527389 1_555
Li0 O0 2.527389 1_555
Li1 O13 2.007461 1_555
Li1 O7 2.206258 1_555
Li1 O22 2.407081 1_555
Li2 O14 2.007461 1_555
Li2 O8 2.206258 1_555
Li2 O23 2.407081 1_555
Li3 O6 2.225363 1_455
Li3 O5 2.225363 1_545
Li3 O12 2.519245 1_455
Li3 O11 2.519245 1_545
Li3 O22 2.643430 1_555
Li3 O23 2.643430 1_555
Ni0 O23 2.008430 1_655
Ni0 O21 2.027073 1_655
Ni0 O4 2.047009 1_554
Ni0 O19 2.065856 1_655
Ni0 O12 2.080207 1_555
Ni0 O13 2.262628 1_555
Ni1 O22 2.008430 1_565
Ni1 O20 2.027073 1_565
Ni1 O3 2.047009 1_554
Ni1 O18 2.065856 1_565
Ni1 O11 2.080207 1_555
Ni1 O14 2.262628 1_555
Ni2 O20 2.001480 1_556
Ni2 O0 2.037408 1_555
Ni2 O7 2.149206 1_555
Ni2 O13 2.162261 1_556
Ni2 O9 2.249731 1_556
Ni2 O10 2.373636 1_555
Ni3 O21 2.001480 1_556
Ni3 O1 2.037408 1_555
Ni3 O8 2.149206 1_555
Ni3 O14 2.162261 1_556
Ni3 O9 2.249731 1_556
Ni3 O10 2.373636 1_555
Ni4 O11 2.034108 1_655
Ni4 O12 2.034108 1_565
Ni4 O5 2.059487 1_654
Ni4 O6 2.059487 1_564
Ni4 O17 2.067450 1_664
Ni4 O2 2.216447 1_555
Ni5 O1 1.998385 1_545
Ni5 O15 2.003202 1_545
Ni5 O18 2.021525 1_556
Ni5 O6 2.079381 1_555
Ni5 O3 2.089513 1_545
Ni5 O7 2.175987 1_555
Ni6 O0 1.998385 1_455
Ni6 O16 2.003202 1_455
Ni6 O19 2.021525 1_556
Ni6 O5 2.079381 1_555
Ni6 O4 2.089513 1_455
Ni6 O8 2.175987 1_555
O0 P2 1.575228 1_556
O1 P2 1.575228 1_556
O2 P2 1.524798 1_555
O3 P1 1.549081 1_555
O4 P0 1.549081 1_555
O5 P1 1.583495 1_555
O6 P0 1.583495 1_555
O7 P0 1.592511 1_555
O8 P1 1.592511 1_555
O9 P2 1.561347 1_555
O10 P3 1.569994 1_555
O11 P5 1.575260 1_555
O12 P4 1.575260 1_555
O13 P4 1.592561 1_555
O14 P5 1.592561 1_555
O15 P4 1.525177 1_565
O16 P5 1.525177 1_655
O17 P3 1.517915 1_555
O18 P4 1.545720 1_555
O19 P5 1.545720 1_555
O20 P3 1.569211 1_554
O21 P3 1.569211 1_554
O22 P1 1.531241 1_545
O23 P0 1.531241 1_455
