# generated using pymatgen
data_CaSn2S5
_symmetry_space_group_name_H-M   'P 1'
_cell_length_a   7.13742700
_cell_length_b   10.51244300
_cell_length_c   12.88164306
_cell_angle_alpha   72.54443871
_cell_angle_beta   90.00000000
_cell_angle_gamma   90.00000000
_symmetry_Int_Tables_number   1
_chemical_formula_structural   CaSn2S5
_chemical_formula_sum   'Ca4 Sn8 S20'
_cell_volume   922.02385492
_cell_formula_units_Z   4
loop_
 _symmetry_equiv_pos_site_id
 _symmetry_equiv_pos_as_xyz
  1  'x, y, z'
loop_
 _atom_site_type_symbol
 _atom_site_label
 _atom_site_symmetry_multiplicity
 _atom_site_fract_x
 _atom_site_fract_y
 _atom_site_fract_z
 _atom_site_occupancy
  Ca  Ca0  1  0.70893500  0.05681900  0.82696800  1
  Ca  Ca1  1  0.20893500  0.94318100  0.67303200  1
  Ca  Ca2  1  0.29106500  0.94318100  0.17303200  1
  Ca  Ca3  1  0.79106500  0.05681900  0.32696800  1
  Sn  Sn0  1  0.10903300  0.36825000  0.69370100  1
  Sn  Sn1  1  0.60903300  0.63175000  0.80629900  1
  Sn  Sn2  1  0.89096700  0.63175000  0.30629900  1
  Sn  Sn3  1  0.39096700  0.36825000  0.19370100  1
  Sn  Sn4  1  0.93731100  0.32389500  0.03404200  1
  Sn  Sn5  1  0.43731100  0.67610500  0.46595800  1
  Sn  Sn6  1  0.06268900  0.67610500  0.96595800  1
  Sn  Sn7  1  0.56268900  0.32389500  0.53404200  1
  S  S0  1  0.88473200  0.20524600  0.62640100  1
  S  S1  1  0.38473200  0.79475400  0.87359900  1
  S  S2  1  0.11526800  0.79475400  0.37359900  1
  S  S3  1  0.61526800  0.20524600  0.12640100  1
  S  S4  1  0.48660300  0.09819200  0.00125400  1
  S  S5  1  0.98660300  0.90180800  0.49874600  1
  S  S6  1  0.51339700  0.90180800  0.99874600  1
  S  S7  1  0.01339700  0.09819200  0.50125400  1
  S  S8  1  0.94007900  0.22873400  0.88378600  1
  S  S9  1  0.44007900  0.77126600  0.61621400  1
  S  S10  1  0.05992100  0.77126600  0.11621400  1
  S  S11  1  0.55992100  0.22873400  0.38378600  1
  S  S12  1  0.39318300  0.18482900  0.69781800  1
  S  S13  1  0.89318300  0.81517100  0.80218200  1
  S  S14  1  0.60681700  0.81517100  0.30218200  1
  S  S15  1  0.10681700  0.18482900  0.19781800  1
  S  S16  1  0.22555900  0.47236500  0.95806100  1
  S  S17  1  0.72555900  0.52763500  0.54193900  1
  S  S18  1  0.77444100  0.52763500  0.04193900  1
  S  S19  1  0.27444100  0.47236500  0.45806100  1
loop_
_geom_bond_atom_site_label_1
_geom_bond_atom_site_label_2
_geom_bond_distance
_geom_bond_site_symmetry_2
Ca0 S8 2.705021 1_555
Ca0 S6 2.708575 1_545
Ca0 S0 2.875002 1_555
Ca0 S12 2.883493 1_555
Ca0 S4 2.886795 1_556
Ca0 S13 2.961603 1_545
Ca1 S9 2.705021 1_555
Ca1 S7 2.708575 1_565
Ca1 S1 2.875002 1_555
Ca1 S13 2.883493 1_455
Ca1 S5 2.886795 1_455
Ca1 S12 2.961603 1_565
Ca2 S10 2.705021 1_555
Ca2 S4 2.708575 1_565
Ca2 S2 2.875002 1_555
Ca2 S14 2.883493 1_555
Ca2 S6 2.886795 1_554
Ca2 S15 2.961603 1_565
Ca3 S11 2.705021 1_555
Ca3 S5 2.708575 1_545
Ca3 S3 2.875002 1_555
Ca3 S15 2.883493 1_655
Ca3 S7 2.886795 1_655
Ca3 S14 2.961603 1_545
S0 S7 2.407729 1_655
S0 Sn0 2.672473 1_655
S0 Sn7 2.713726 1_555
S1 S6 2.407729 1_555
S1 Sn1 2.672473 1_555
S1 Sn6 2.713726 1_555
S2 S5 2.407729 1_455
S2 Sn2 2.672473 1_455
S2 Sn5 2.713726 1_555
S3 S4 2.407729 1_555
S3 Sn3 2.672473 1_555
S3 Sn4 2.713726 1_555
S4 S6 2.083192 1_544
S5 S7 2.083192 1_665
S8 Sn4 2.430864 1_556
S8 Sn0 2.728814 1_655
S9 Sn5 2.430864 1_555
S9 Sn1 2.728814 1_555
S10 Sn6 2.430864 1_554
S10 Sn2 2.728814 1_455
S11 Sn7 2.430864 1_555
S11 Sn3 2.728814 1_555
S12 Sn7 2.490271 1_555
S12 Sn0 2.787942 1_555
S13 Sn6 2.490271 1_655
S13 Sn1 2.787942 1_555
S14 Sn5 2.490271 1_555
S14 Sn2 2.787942 1_555
S15 Sn4 2.490271 1_455
S15 Sn3 2.787942 1_555
S16 Sn6 2.465711 1_555
S16 Sn4 2.590410 1_456
S16 Sn3 3.132477 1_556
S17 Sn7 2.465711 1_555
S17 Sn5 2.590410 1_555
S17 Sn2 3.132477 1_555
S18 Sn4 2.465711 1_555
S18 Sn6 2.590410 1_654
S18 Sn1 3.132477 1_554
S19 Sn5 2.465711 1_555
S19 Sn7 2.590410 1_555
S19 Sn0 3.132477 1_555
