# generated using pymatgen
data_LiFePH2O5
_symmetry_space_group_name_H-M   'P 1'
_cell_length_a   5.08611700
_cell_length_b   8.21505700
_cell_length_c   11.02135800
_cell_angle_alpha   90.00000000
_cell_angle_beta   90.00000000
_cell_angle_gamma   90.00000000
_symmetry_Int_Tables_number   1
_chemical_formula_structural   LiFePH2O5
_chemical_formula_sum   'Li4 Fe4 P4 H8 O20'
_cell_volume   460.50254748
_cell_formula_units_Z   4
loop_
 _symmetry_equiv_pos_site_id
 _symmetry_equiv_pos_as_xyz
  1  'x, y, z'
loop_
 _atom_site_type_symbol
 _atom_site_label
 _atom_site_symmetry_multiplicity
 _atom_site_fract_x
 _atom_site_fract_y
 _atom_site_fract_z
 _atom_site_occupancy
  Li  Li0  1  0.26003200  0.67729100  0.18475800  1
  Li  Li1  1  0.76003200  0.17729100  0.31524200  1
  Li  Li2  1  0.26003200  0.82270900  0.68475800  1
  Li  Li3  1  0.76003200  0.32270900  0.81524200  1
  Fe  Fe0  1  0.75432100  0.86886700  0.12014600  1
  Fe  Fe1  1  0.25432100  0.36886700  0.37985400  1
  Fe  Fe2  1  0.75432100  0.63113300  0.62014600  1
  Fe  Fe3  1  0.25432100  0.13113300  0.87985400  1
  P  P0  1  0.25708700  0.07910900  0.17318100  1
  P  P1  1  0.75708700  0.57910900  0.32681900  1
  P  P2  1  0.25708700  0.42089100  0.67318100  1
  P  P3  1  0.75708700  0.92089100  0.82681900  1
  H  H0  1  0.59077300  0.45406200  0.01667800  1
  H  H1  1  0.82361100  0.32969000  0.04345400  1
  H  H2  1  0.32361100  0.82969000  0.45654600  1
  H  H3  1  0.09077300  0.95406200  0.48332200  1
  H  H4  1  0.59077300  0.04593800  0.51667800  1
  H  H5  1  0.82361100  0.17031000  0.54345400  1
  H  H6  1  0.32361100  0.67031000  0.95654600  1
  H  H7  1  0.09077300  0.54593800  0.98332200  1
  O  O0  1  0.25789100  0.58947300  0.01460500  1
  O  O1  1  0.18952300  0.17255500  0.05509900  1
  O  O2  1  0.14063100  0.90353100  0.16745500  1
  O  O3  1  0.55985500  0.06411500  0.19179500  1
  O  O4  1  0.63670900  0.67269500  0.21757500  1
  O  O5  1  0.13670900  0.17269500  0.28242500  1
  O  O6  1  0.05985500  0.56411500  0.30820500  1
  O  O7  1  0.64063100  0.40353100  0.33254500  1
  O  O8  1  0.68952300  0.67255500  0.44490100  1
  O  O9  1  0.75789100  0.08947300  0.48539500  1
  O  O10  1  0.25789100  0.91052700  0.51460500  1
  O  O11  1  0.18952300  0.32744500  0.55509900  1
  O  O12  1  0.14063100  0.59646900  0.66745500  1
  O  O13  1  0.55985500  0.43588500  0.69179500  1
  O  O14  1  0.63670900  0.82730500  0.71757500  1
  O  O15  1  0.13670900  0.32730500  0.78242500  1
  O  O16  1  0.05985500  0.93588500  0.80820500  1
  O  O17  1  0.64063100  0.09646900  0.83254500  1
  O  O18  1  0.68952300  0.82744500  0.94490100  1
  O  O19  1  0.75789100  0.41052700  0.98539500  1
loop_
_geom_bond_atom_site_label_1
_geom_bond_atom_site_label_2
_geom_bond_distance
_geom_bond_site_symmetry_2
Li0 O6 1.937037 1_555
Li0 O4 1.950031 1_555
Li0 O2 1.964552 1_555
Li0 O0 2.009327 1_555
Li1 O3 1.937037 1_555
Li1 O5 1.950031 1_655
Li1 O7 1.964552 1_555
Li1 O9 2.009327 1_555
Li2 O16 1.937037 1_555
Li2 O14 1.950031 1_555
Li2 O12 1.964552 1_555
Li2 O10 2.009327 1_555
Li3 O13 1.937037 1_555
Li3 O15 1.950031 1_655
Li3 O17 1.964552 1_555
Li3 O19 2.009327 1_555
Fe0 O18 1.988684 1_554
Fe0 O4 2.026824 1_555
Fe0 O3 2.043179 1_565
Fe0 O2 2.052674 1_655
Fe1 O11 1.988684 1_555
Fe1 O5 2.026824 1_555
Fe1 O6 2.043179 1_555
Fe1 O7 2.052674 1_555
Fe2 O8 1.988684 1_555
Fe2 O14 2.026824 1_555
Fe2 O13 2.043179 1_555
Fe2 O12 2.052674 1_655
Fe3 O1 1.988684 1_556
Fe3 O15 2.026824 1_555
Fe3 O16 2.043179 1_545
Fe3 O17 2.052674 1_555
H0 O19 0.984506 1_554
H1 O19 0.980913 1_554
H2 O10 0.980913 1_555
H3 O10 0.984506 1_555
H4 O9 0.984506 1_555
H5 O9 0.980913 1_555
H6 O0 0.980913 1_556
H7 O0 0.984506 1_556
O1 P0 1.549548 1_555
O2 P0 1.560539 1_565
O3 P0 1.558394 1_555
O4 P1 1.554217 1_555
O5 P0 1.554217 1_555
O6 P1 1.558394 1_455
O7 P1 1.560539 1_555
O8 P1 1.549548 1_555
O11 P2 1.549548 1_555
O12 P2 1.560539 1_555
O13 P2 1.558394 1_555
O14 P3 1.554217 1_555
O15 P2 1.554217 1_555
O16 P3 1.558394 1_455
O17 P3 1.560539 1_545
O18 P3 1.549548 1_555
