# generated using pymatgen
data_RbV(PO4)2
_symmetry_space_group_name_H-M   'P 1'
_cell_length_a   7.48945900
_cell_length_b   8.77723715
_cell_length_c   9.42290595
_cell_angle_alpha   64.46257586
_cell_angle_beta   68.06124316
_cell_angle_gamma   67.30778927
_symmetry_Int_Tables_number   1
_chemical_formula_structural   RbV(PO4)2
_chemical_formula_sum   'Rb3 V3 P6 O24'
_cell_volume   499.40505168
_cell_formula_units_Z   3
loop_
 _symmetry_equiv_pos_site_id
 _symmetry_equiv_pos_as_xyz
  1  'x, y, z'
loop_
 _atom_site_type_symbol
 _atom_site_label
 _atom_site_symmetry_multiplicity
 _atom_site_fract_x
 _atom_site_fract_y
 _atom_site_fract_z
 _atom_site_occupancy
  Rb  Rb0  1  0.13824700  0.65948600  0.03095600  1
  Rb  Rb1  1  0.86175300  0.34051400  0.96904400  1
  Rb  Rb2  1  0.00000000  0.50000000  0.50000000  1
  V  V0  1  0.70138900  0.21193700  0.43728500  1
  V  V1  1  0.29861100  0.78806300  0.56271500  1
  V  V2  1  0.50000000  0.00000000  0.00000000  1
  P  P0  1  0.54595400  0.62263500  0.27089300  1
  P  P1  1  0.45404600  0.37736500  0.72910700  1
  P  P2  1  0.39802700  0.16688600  0.27585500  1
  P  P3  1  0.60197300  0.83311400  0.72414500  1
  P  P4  1  0.06059300  0.93381600  0.27995400  1
  P  P5  1  0.93940700  0.06618400  0.72004600  1
  O  O0  1  0.63726600  0.76449200  0.11719800  1
  O  O1  1  0.36273400  0.23550800  0.88280200  1
  O  O2  1  0.50900000  0.68230300  0.41824900  1
  O  O3  1  0.49100000  0.31769700  0.58175100  1
  O  O4  1  0.36699000  0.59917900  0.25671700  1
  O  O5  1  0.63301000  0.40082100  0.74328300  1
  O  O6  1  0.72227400  0.44727500  0.29514400  1
  O  O7  1  0.27772600  0.55272500  0.70485600  1
  O  O8  1  0.53935100  0.22374000  0.32080400  1
  O  O9  1  0.46064900  0.77626000  0.67919600  1
  O  O10  1  0.22259900  0.31686500  0.23353000  1
  O  O11  1  0.77740100  0.68313500  0.76647000  1
  O  O12  1  0.33526600  0.00971300  0.42568400  1
  O  O13  1  0.66473400  0.99028700  0.57431600  1
  O  O14  1  0.53664000  0.09384000  0.13391000  1
  O  O15  1  0.46336000  0.90616000  0.86609000  1
  O  O16  1  0.95279900  0.85084500  0.24146900  1
  O  O17  1  0.04720100  0.14915500  0.75853100  1
  O  O18  1  0.12154700  0.82015500  0.44444200  1
  O  O19  1  0.87845300  0.17984500  0.55555800  1
  O  O20  1  0.25468100  0.97323900  0.14191000  1
  O  O21  1  0.74531900  0.02676100  0.85809000  1
  O  O22  1  0.93123000  0.11967900  0.29177500  1
  O  O23  1  0.06877000  0.88032100  0.70822500  1
loop_
_geom_bond_atom_site_label_1
_geom_bond_atom_site_label_2
_geom_bond_distance
_geom_bond_site_symmetry_2
O0 P0 1.574035 1_555
O0 V2 1.946761 1_565
O0 Rb0 3.359635 1_655
O1 P1 1.574035 1_555
O1 V2 1.946761 1_556
O1 Rb1 3.359635 1_455
O2 P0 1.583310 1_555
O2 V1 1.885688 1_555
O3 P1 1.583310 1_555
O3 V0 1.885688 1_555
O4 P0 1.492367 1_555
O4 Rb0 2.965351 1_555
O4 Rb2 2.997479 1_555
O5 P1 1.492367 1_555
O5 Rb1 2.965351 1_555
O5 Rb2 2.997479 1_655
O6 P0 1.587170 1_555
O6 V0 1.947439 1_555
O6 Rb1 3.277242 1_554
O7 P1 1.587170 1_555
O7 V1 1.947439 1_555
O7 Rb0 3.277242 1_556
O8 P2 1.572724 1_555
O8 V0 1.867747 1_555
O8 Rb1 3.296571 1_554
O9 P3 1.572724 1_555
O9 V1 1.867747 1_555
O9 Rb0 3.296571 1_556
O10 P2 1.490845 1_555
O10 Rb0 2.751781 1_555
O10 Rb2 3.154717 1_555
O11 P3 1.490845 1_555
O11 Rb1 2.751781 1_555
O11 Rb2 3.154717 1_655
O12 P2 1.562846 1_555
O12 V1 1.873184 1_545
O13 P3 1.562846 1_555
O13 V0 1.873184 1_565
O14 P2 1.570370 1_555
O14 V2 1.917061 1_555
O14 Rb1 3.372087 1_554
O15 P3 1.570370 1_555
O15 V2 1.917061 1_566
O15 Rb0 3.372087 1_556
O16 P4 1.487859 1_655
O16 Rb0 2.774707 1_655
O16 Rb2 2.979608 1_655
O17 P5 1.487859 1_455
O17 Rb1 2.774707 1_455
O17 Rb2 2.979608 1_555
O18 P4 1.565296 1_555
O18 V1 1.904061 1_555
O18 Rb2 3.057529 1_555
O19 P5 1.565296 1_555
O19 V0 1.904061 1_555
O19 Rb2 3.057529 1_655
O20 P4 1.584888 1_555
O20 V2 1.856155 1_565
O21 P5 1.584888 1_555
O21 V2 1.856155 1_556
O22 P4 1.571298 1_645
O22 V0 1.901852 1_555
O22 Rb1 2.932209 1_554
O23 P5 1.571298 1_465
O23 V1 1.901852 1_555
O23 Rb0 2.932209 1_556
