# generated using pymatgen
data_Li3Co3OF7
_symmetry_space_group_name_H-M   'P 1'
_cell_length_a   6.06976900
_cell_length_b   6.06998832
_cell_length_c   10.49589376
_cell_angle_alpha   106.77761086
_cell_angle_beta   90.06995551
_cell_angle_gamma   119.91086994
_symmetry_Int_Tables_number   1
_chemical_formula_structural   Li3Co3OF7
_chemical_formula_sum   'Li6 Co6 O2 F14'
_cell_volume   315.98050907
_cell_formula_units_Z   2
loop_
 _symmetry_equiv_pos_site_id
 _symmetry_equiv_pos_as_xyz
  1  'x, y, z'
loop_
 _atom_site_type_symbol
 _atom_site_label
 _atom_site_symmetry_multiplicity
 _atom_site_fract_x
 _atom_site_fract_y
 _atom_site_fract_z
 _atom_site_occupancy
  Li  Li0  1  0.00442300  0.00596000  0.00058100  1
  Li  Li1  1  0.67839000  0.74314700  0.68835000  1
  Li  Li2  1  0.68965900  0.25306500  0.18848300  1
  Li  Li3  1  0.86937600  0.48455400  0.87171500  1
  Li  Li4  1  0.39812600  0.51237900  0.37171700  1
  Li  Li5  1  0.48979400  0.99161200  0.50058000  1
  Co  Co0  1  0.68591900  0.24202100  0.69442100  1
  Co  Co1  1  0.44382700  0.76301700  0.93174100  1
  Co  Co2  1  0.16280400  0.24351900  0.69356500  1
  Co  Co3  1  0.17293600  0.22794300  0.19432900  1
  Co  Co4  1  0.93942300  0.75818200  0.43170400  1
  Co  Co5  1  0.17357600  0.75335600  0.19364600  1
  O  O0  1  0.79828300  0.21992800  0.80920600  1
  O  O1  1  0.85053900  0.77120000  0.30912900  1
  F  F0  1  0.02961700  0.73080900  0.56224500  1
  F  F1  1  0.03767100  0.22380300  0.57103700  1
  F  F2  1  0.80172000  0.75155400  0.80723300  1
  F  F3  1  0.06538000  0.73560200  0.06676800  1
  F  F4  1  0.32537900  0.26132900  0.80239000  1
  F  F5  1  0.56165500  0.73207200  0.56659100  1
  F  F6  1  0.82942300  0.26426200  0.30245900  1
  F  F7  1  0.54897100  0.25200000  0.57424700  1
  F  F8  1  0.52339500  0.72567000  0.07413700  1
  F  F9  1  0.08064800  0.28137000  0.06213700  1
  F  F10  1  0.32836700  0.24844600  0.30580400  1
  F  F11  1  0.33106900  0.75237100  0.80575200  1
  F  F12  1  0.56100300  0.24617800  0.07102200  1
  F  F13  1  0.32438700  0.77337700  0.30732100  1
loop_
_geom_bond_atom_site_label_1
_geom_bond_atom_site_label_2
_geom_bond_distance
_geom_bond_site_symmetry_2
Li3 O0 1.377104 1_555
Co0 O0 1.455025 1_555
Co0 F7 1.541868 1_555
Co1 F11 1.457945 1_555
Co1 F8 1.679708 1_556
Co2 F1 1.436390 1_555
Co2 F4 1.452471 1_555
Co3 F10 1.438980 1_555
Co3 F9 1.668258 1_555
Co4 O1 1.432478 1_555
Co4 F0 1.557217 1_655
Co5 F3 1.435532 1_555
Co5 F13 1.441846 1_555
F2 Li1 1.429268 1_555
F2 Li3 2.132987 1_555
F3 Li3 2.076951 1_454
F3 Li0 2.139086 1_565
F5 Li1 1.428447 1_555
F5 Li4 2.011814 1_555
F5 Li5 2.113505 1_555
F6 Li2 1.431244 1_555
F7 Li5 1.397357 1_545
F9 Li0 1.424968 1_555
F10 Li4 1.381096 1_555
F12 Li2 1.437654 1_555
F13 Li5 1.998668 1_555
F13 Li4 2.119347 1_555
