# generated using pymatgen
data_SmCuSi
_symmetry_space_group_name_H-M   'P 1'
_cell_length_a   4.15107465
_cell_length_b   4.15107515
_cell_length_c   7.87009379
_cell_angle_alpha   90.00000000
_cell_angle_beta   90.00000000
_cell_angle_gamma   120.00000410
_symmetry_Int_Tables_number   1
_chemical_formula_structural   SmCuSi
_chemical_formula_sum   'Sm2 Cu2 Si2'
_cell_volume   117.44422341
_cell_formula_units_Z   2
loop_
 _symmetry_equiv_pos_site_id
 _symmetry_equiv_pos_as_xyz
  1  'x, y, z'
loop_
 _atom_site_type_symbol
 _atom_site_label
 _atom_site_symmetry_multiplicity
 _atom_site_fract_x
 _atom_site_fract_y
 _atom_site_fract_z
 _atom_site_occupancy
  Sm  Sm0  1  0.00000000  0.00000000  0.50000000  1
  Sm  Sm1  1  0.00000000  0.00000000  -0.00000000  1
  Cu  Cu0  1  0.33333300  0.66666700  0.25000000  1
  Cu  Cu1  1  0.66666700  0.33333300  0.75000000  1
  Si  Si0  1  0.66666700  0.33333300  0.25000000  1
  Si  Si1  1  0.33333300  0.66666700  0.75000000  1
loop_
_geom_bond_atom_site_label_1
_geom_bond_atom_site_label_2
_geom_bond_distance
_geom_bond_site_symmetry_2
Cu0 Si0 2.396622 1_455
Cu0 Si0 2.396622 1_565
Cu0 Si0 2.396629 1_555
Cu0 Sm1 3.100797 1_565
Cu0 Sm0 3.100797 1_565
Cu0 Sm1 3.100800 1_665
Cu0 Sm0 3.100800 1_665
Cu0 Sm0 3.100800 1_555
Cu0 Sm1 3.100800 1_555
Cu1 Si1 2.396622 1_655
Cu1 Si1 2.396622 1_545
Cu1 Si1 2.396629 1_555
Cu1 Sm0 3.100797 1_655
Cu1 Sm1 3.100797 1_656
Cu1 Sm1 3.100800 1_556
Cu1 Sm0 3.100800 1_555
Cu1 Sm1 3.100800 1_666
Cu1 Sm0 3.100800 1_665
Si0 Sm0 3.100797 1_655
Si0 Sm1 3.100797 1_655
Si0 Sm1 3.100800 1_555
Si0 Sm0 3.100800 1_555
Si0 Sm0 3.100800 1_665
Si0 Sm1 3.100800 1_665
Si1 Sm1 3.100797 1_566
Si1 Sm0 3.100797 1_565
Si1 Sm1 3.100800 1_666
Si1 Sm0 3.100800 1_665
Si1 Sm0 3.100800 1_555
Si1 Sm1 3.100800 1_556
