# generated using pymatgen
data_LiMnPO4
_symmetry_space_group_name_H-M   'P 1'
_cell_length_a   5.89877200
_cell_length_b   7.66723700
_cell_length_c   13.95145500
_cell_angle_alpha   90.00000000
_cell_angle_beta   90.00000000
_cell_angle_gamma   90.00000000
_symmetry_Int_Tables_number   1
_chemical_formula_structural   LiMnPO4
_chemical_formula_sum   'Li8 Mn8 P8 O32'
_cell_volume   630.98640261
_cell_formula_units_Z   8
loop_
 _symmetry_equiv_pos_site_id
 _symmetry_equiv_pos_as_xyz
  1  'x, y, z'
loop_
 _atom_site_type_symbol
 _atom_site_label
 _atom_site_symmetry_multiplicity
 _atom_site_fract_x
 _atom_site_fract_y
 _atom_site_fract_z
 _atom_site_occupancy
  Li  Li0  1  0.41854600  0.17015500  0.52721400  1
  Li  Li1  1  0.91854600  0.17015500  0.97278600  1
  Li  Li2  1  0.41854600  0.32984500  0.02721400  1
  Li  Li3  1  0.91854600  0.32984500  0.47278600  1
  Li  Li4  1  0.08145400  0.67015500  0.52721400  1
  Li  Li5  1  0.58145400  0.67015500  0.97278600  1
  Li  Li6  1  0.08145400  0.82984500  0.02721400  1
  Li  Li7  1  0.58145400  0.82984500  0.47278600  1
  Mn  Mn0  1  0.14802800  0.18075100  0.20769300  1
  Mn  Mn1  1  0.64802800  0.18075100  0.29230700  1
  Mn  Mn2  1  0.64802800  0.31924900  0.79230700  1
  Mn  Mn3  1  0.14802800  0.31924900  0.70769300  1
  Mn  Mn4  1  0.35197200  0.68075100  0.20769300  1
  Mn  Mn5  1  0.85197200  0.68075100  0.29230700  1
  Mn  Mn6  1  0.35197200  0.81924900  0.70769300  1
  Mn  Mn7  1  0.85197200  0.81924900  0.79230700  1
  P  P0  1  0.89213500  0.03799400  0.62582400  1
  P  P1  1  0.39213500  0.03799400  0.87417600  1
  P  P2  1  0.89213500  0.46200600  0.12582400  1
  P  P3  1  0.39213500  0.46200600  0.37417600  1
  P  P4  1  0.60786500  0.53799400  0.62582400  1
  P  P5  1  0.10786500  0.53799400  0.87417600  1
  P  P6  1  0.60786500  0.96200600  0.12582400  1
  P  P7  1  0.10786500  0.96200600  0.37417600  1
  O  O0  1  0.82511000  0.98762300  0.06864500  1
  O  O1  1  0.32511000  0.98762300  0.43135500  1
  O  O2  1  0.33849700  0.09915500  0.76802500  1
  O  O3  1  0.83849700  0.09915500  0.73197500  1
  O  O4  1  0.47872200  0.13887600  0.14265000  1
  O  O5  1  0.97872200  0.13887600  0.35735000  1
  O  O6  1  0.05501300  0.17724500  0.58222200  1
  O  O7  1  0.55501300  0.17724500  0.91777800  1
  O  O8  1  0.05501300  0.32275500  0.08222200  1
  O  O9  1  0.55501300  0.32275500  0.41777800  1
  O  O10  1  0.47872200  0.36112400  0.64265000  1
  O  O11  1  0.97872200  0.36112400  0.85735000  1
  O  O12  1  0.83849700  0.40084500  0.23197500  1
  O  O13  1  0.33849700  0.40084500  0.26802500  1
  O  O14  1  0.82511000  0.51237700  0.56864500  1
  O  O15  1  0.32511000  0.51237700  0.93135500  1
  O  O16  1  0.17489000  0.48762300  0.43135500  1
  O  O17  1  0.67489000  0.48762300  0.06864500  1
  O  O18  1  0.66150300  0.59915500  0.73197500  1
  O  O19  1  0.16150300  0.59915500  0.76802500  1
  O  O20  1  0.02127800  0.63887600  0.14265000  1
  O  O21  1  0.52127800  0.63887600  0.35735000  1
  O  O22  1  0.44498700  0.67724500  0.58222200  1
  O  O23  1  0.94498700  0.67724500  0.91777800  1
  O  O24  1  0.44498700  0.82275500  0.08222200  1
  O  O25  1  0.94498700  0.82275500  0.41777800  1
  O  O26  1  0.02127800  0.86112400  0.64265000  1
  O  O27  1  0.52127800  0.86112400  0.85735000  1
  O  O28  1  0.66150300  0.90084500  0.23197500  1
  O  O29  1  0.16150300  0.90084500  0.26802500  1
  O  O30  1  0.67489000  0.01237700  0.56864500  1
  O  O31  1  0.17489000  0.01237700  0.93135500  1
loop_
_geom_bond_atom_site_label_1
_geom_bond_atom_site_label_2
_geom_bond_distance
_geom_bond_site_symmetry_2
Li0 O1 2.012706 1_545
Li0 O30 2.020898 1_555
Li0 O9 2.085197 1_555
Li0 O10 2.205358 1_555
Li0 O6 2.278237 1_555
Li1 O0 2.012706 1_546
Li1 O31 2.020898 1_655
Li1 O8 2.085197 1_656
Li1 O11 2.205358 1_555
Li1 O7 2.278237 1_555
Li2 O15 2.012706 1_554
Li2 O17 2.020898 1_555
Li2 O7 2.085197 1_554
Li2 O4 2.205358 1_555
Li2 O8 2.278237 1_555
Li3 O14 2.012706 1_555
Li3 O16 2.020898 1_655
Li3 O6 2.085197 1_655
Li3 O5 2.205358 1_555
Li3 O9 2.278237 1_555
Li4 O16 2.012706 1_555
Li4 O14 2.020898 1_455
Li4 O25 2.085197 1_455
Li4 O26 2.205358 1_555
Li4 O22 2.278237 1_555
Li5 O17 2.012706 1_556
Li5 O15 2.020898 1_555
Li5 O24 2.085197 1_556
Li5 O27 2.205358 1_555
Li5 O23 2.278237 1_555
Li6 O31 2.012706 1_564
Li6 O0 2.020898 1_455
Li6 O23 2.085197 1_454
Li6 O20 2.205358 1_555
Li6 O24 2.278237 1_555
Li7 O30 2.012706 1_565
Li7 O1 2.020898 1_555
Li7 O22 2.085197 1_555
Li7 O21 2.205358 1_555
Li7 O25 2.278237 1_555
Mn0 O8 2.133247 1_555
Mn0 O4 2.175253 1_555
Mn0 O13 2.195112 1_555
Mn0 O29 2.306638 1_545
Mn0 O5 2.336652 1_455
Mn0 O12 2.509224 1_455
Mn1 O9 2.133247 1_555
Mn1 O5 2.175253 1_555
Mn1 O12 2.195112 1_555
Mn1 O28 2.306638 1_545
Mn1 O4 2.336652 1_555
Mn1 O13 2.509224 1_555
Mn2 O7 2.133247 1_555
Mn2 O11 2.175253 1_555
Mn2 O3 2.195112 1_555
Mn2 O18 2.306638 1_555
Mn2 O10 2.336652 1_555
Mn2 O2 2.509224 1_555
Mn3 O6 2.133247 1_555
Mn3 O10 2.175253 1_555
Mn3 O2 2.195112 1_555
Mn3 O19 2.306638 1_555
Mn3 O11 2.336652 1_455
Mn3 O3 2.509224 1_455
Mn4 O24 2.133247 1_555
Mn4 O20 2.175253 1_555
Mn4 O29 2.195112 1_555
Mn4 O13 2.306638 1_555
Mn4 O21 2.336652 1_555
Mn4 O28 2.509224 1_555
Mn5 O25 2.133247 1_555
Mn5 O21 2.175253 1_555
Mn5 O28 2.195112 1_555
Mn5 O12 2.306638 1_555
Mn5 O20 2.336652 1_655
Mn5 O29 2.509224 1_655
Mn6 O22 2.133247 1_555
Mn6 O26 2.175253 1_555
Mn6 O19 2.195112 1_555
Mn6 O2 2.306638 1_565
Mn6 O27 2.336652 1_555
Mn6 O18 2.509224 1_555
Mn7 O23 2.133247 1_555
Mn7 O27 2.175253 1_555
Mn7 O18 2.195112 1_555
Mn7 O3 2.306638 1_565
Mn7 O26 2.336652 1_655
Mn7 O19 2.509224 1_655
O0 P6 1.522215 1_555
O1 P7 1.522215 1_555
O2 P1 1.585325 1_555
O3 P0 1.585325 1_555
O4 P6 1.573036 1_545
O5 P7 1.573036 1_645
O6 P0 1.559827 1_455
O7 P1 1.559827 1_555
O8 P2 1.559827 1_455
O9 P3 1.559827 1_555
O10 P4 1.573036 1_555
O11 P5 1.573036 1_655
O12 P2 1.585325 1_555
O13 P3 1.585325 1_555
O14 P4 1.522215 1_555
O15 P5 1.522215 1_555
O16 P3 1.522215 1_555
O17 P2 1.522215 1_555
O18 P4 1.585325 1_555
O19 P5 1.585325 1_555
O20 P2 1.573036 1_455
O21 P3 1.573036 1_555
O22 P4 1.559827 1_555
O23 P5 1.559827 1_655
O24 P6 1.559827 1_555
O25 P7 1.559827 1_655
O26 P0 1.573036 1_465
O27 P1 1.573036 1_565
O28 P6 1.585325 1_555
O29 P7 1.585325 1_555
O30 P0 1.522215 1_555
O31 P1 1.522215 1_555
