# generated using pymatgen
data_MnPHO5
_symmetry_space_group_name_H-M   'P 1'
_cell_length_a   5.09742800
_cell_length_b   5.19049230
_cell_length_c   7.19182568
_cell_angle_alpha   109.53371481
_cell_angle_beta   106.23518401
_cell_angle_gamma   97.73310358
_symmetry_Int_Tables_number   1
_chemical_formula_structural   MnPHO5
_chemical_formula_sum   'Mn2 P2 H2 O10'
_cell_volume   166.62201156
_cell_formula_units_Z   2
loop_
 _symmetry_equiv_pos_site_id
 _symmetry_equiv_pos_as_xyz
  1  'x, y, z'
loop_
 _atom_site_type_symbol
 _atom_site_label
 _atom_site_symmetry_multiplicity
 _atom_site_fract_x
 _atom_site_fract_y
 _atom_site_fract_z
 _atom_site_occupancy
  Mn  Mn0  1  0.50000000  0.50000000  0.50000000  1
  Mn  Mn1  1  0.00000000  0.00000000  0.00000000  1
  P  P0  1  0.09218400  0.41764500  0.23135500  1
  P  P1  1  0.90781600  0.58235500  0.76864500  1
  H  H0  1  0.31259200  0.62852500  0.33716700  1
  H  H1  1  0.68740800  0.37147500  0.66283300  1
  O  O0  1  0.41116300  0.22448600  0.72747400  1
  O  O1  1  0.88891400  0.41400400  0.39106600  1
  O  O2  1  0.04528100  0.00464400  0.65704200  1
  O  O3  1  0.56877200  0.70595600  0.06562000  1
  O  O4  1  0.98207200  0.54824500  0.12501800  1
  O  O5  1  0.01792800  0.45175500  0.87498200  1
  O  O6  1  0.43122800  0.29404400  0.93438000  1
  O  O7  1  0.95471900  0.99535600  0.34295800  1
  O  O8  1  0.11108600  0.58599600  0.60893400  1
  O  O9  1  0.58883700  0.77551400  0.27252600  1
loop_
_geom_bond_atom_site_label_1
_geom_bond_atom_site_label_2
_geom_bond_distance
_geom_bond_site_symmetry_2
Mn0 O8 2.369789 1_555
Mn0 O1 2.369789 1_555
Mn1 P1 2.136634 1_444
Mn1 P0 2.136634 1_555
Mn1 O2 2.548342 1_554
Mn1 O7 2.548342 1_445
Mn1 O3 2.746423 1_445
Mn1 O6 2.746423 1_554
Mn1 O5 2.777246 1_554
Mn1 O4 2.777246 1_445
H0 P0 1.293612 1_555
H0 Mn0 1.672546 1_555
H0 O9 1.759308 1_555
H1 P1 1.293612 1_555
H1 Mn0 1.672546 1_555
H1 O0 1.759308 1_555
O0 O6 1.378675 1_555
O0 O2 1.884036 1_555
O1 O8 1.528037 1_655
O1 P0 1.751575 1_655
O3 O9 1.378675 1_555
O3 O6 1.957211 1_554
O4 P0 1.252384 1_655
O5 P1 1.252384 1_455
O7 O9 1.884036 1_555
O8 P1 1.751575 1_455
