# generated using pymatgen
data_LiBePt2
_symmetry_space_group_name_H-M   'P 1'
_cell_length_a   4.04048228
_cell_length_b   4.04048228
_cell_length_c   4.04048228
_cell_angle_alpha   60.00000000
_cell_angle_beta   60.00000000
_cell_angle_gamma   60.00000000
_symmetry_Int_Tables_number   1
_chemical_formula_structural   LiBePt2
_chemical_formula_sum   'Li1 Be1 Pt2'
_cell_volume   46.64280089
_cell_formula_units_Z   1
loop_
 _symmetry_equiv_pos_site_id
 _symmetry_equiv_pos_as_xyz
  1  'x, y, z'
loop_
 _atom_site_type_symbol
 _atom_site_label
 _atom_site_symmetry_multiplicity
 _atom_site_fract_x
 _atom_site_fract_y
 _atom_site_fract_z
 _atom_site_occupancy
  Li  Li0  1  0.75000000  0.75000000  0.75000000  1
  Be  Be0  1  0.25000000  0.25000000  0.25000000  1
  Pt  Pt0  1  -0.00000000  -0.00000000  -0.00000000  1
  Pt  Pt1  1  0.50000000  0.50000000  0.50000000  1
loop_
_geom_bond_atom_site_label_1
_geom_bond_atom_site_label_2
_geom_bond_distance
_geom_bond_site_symmetry_2
Li0 Pt0 2.474280 1_566
Li0 Pt0 2.474280 1_656
Li0 Pt1 2.474280 1_655
Li0 Pt1 2.474280 1_565
Li0 Pt1 2.474280 1_555
Li0 Pt1 2.474280 1_556
Li0 Pt0 2.474280 1_666
Li0 Pt0 2.474280 1_665
Be0 Pt1 2.474280 1_545
Be0 Pt1 2.474280 1_455
Be0 Pt0 2.474280 1_655
Be0 Pt0 2.474280 1_565
Be0 Pt1 2.474280 1_555
Be0 Pt0 2.474280 1_555
Be0 Pt0 2.474280 1_556
Be0 Pt1 2.474280 1_554
