# generated using pymatgen
data_V3OF11
_symmetry_space_group_name_H-M   'P 1'
_cell_length_a   5.19886400
_cell_length_b   5.35095559
_cell_length_c   15.02915496
_cell_angle_alpha   100.25416687
_cell_angle_beta   89.72523060
_cell_angle_gamma   91.63389818
_symmetry_Int_Tables_number   1
_chemical_formula_structural   V3OF11
_chemical_formula_sum   'V6 O2 F22'
_cell_volume   411.24921725
_cell_formula_units_Z   2
loop_
 _symmetry_equiv_pos_site_id
 _symmetry_equiv_pos_as_xyz
  1  'x, y, z'
loop_
 _atom_site_type_symbol
 _atom_site_label
 _atom_site_symmetry_multiplicity
 _atom_site_fract_x
 _atom_site_fract_y
 _atom_site_fract_z
 _atom_site_occupancy
  V  V0  1  0.00000000  0.00000000  0.00000000  1
  V  V1  1  0.50008400  0.50050000  0.33324100  1
  V  V2  1  0.00014400  0.99952800  0.66677600  1
  V  V3  1  0.50000000  0.50000000  0.00000000  1
  V  V4  1  0.99985600  0.00047200  0.33322400  1
  V  V5  1  0.49991600  0.49950000  0.66675900  1
  O  O0  1  0.23155400  0.28627700  0.98730600  1
  O  O1  1  0.76844600  0.71372300  0.01269400  1
  F  F0  1  0.18666400  0.35275000  0.63760100  1
  F  F1  1  0.27303600  0.81172600  0.97322800  1
  F  F2  1  0.69022300  0.15762600  0.69007200  1
  F  F3  1  0.07481600  0.81044900  0.11767100  1
  F  F4  1  0.40706800  0.34077000  0.44834700  1
  F  F5  1  0.09176700  0.85685700  0.78112900  1
  F  F6  1  0.59091900  0.66258600  0.21856900  1
  F  F7  1  0.90796600  0.14340700  0.55185200  1
  F  F8  1  0.57391600  0.64969600  0.88255600  1
  F  F9  1  0.18650300  0.35242800  0.30501000  1
  F  F10  1  0.31031300  0.84170000  0.64292100  1
  F  F11  1  0.68968700  0.15830000  0.35707900  1
  F  F12  1  0.81349700  0.64757200  0.69499000  1
  F  F13  1  0.42608400  0.35030400  0.11744400  1
  F  F14  1  0.09203400  0.85659300  0.44814800  1
  F  F15  1  0.40908100  0.33741400  0.78143100  1
  F  F16  1  0.90823300  0.14314300  0.21887100  1
  F  F17  1  0.59293200  0.65923000  0.55165300  1
  F  F18  1  0.92518400  0.18955100  0.88232900  1
  F  F19  1  0.30977700  0.84237400  0.30992800  1
  F  F20  1  0.72696400  0.18827400  0.02677200  1
  F  F21  1  0.81333600  0.64725000  0.36239900  1
loop_
_geom_bond_atom_site_label_1
_geom_bond_atom_site_label_2
_geom_bond_distance
_geom_bond_site_symmetry_2
O0 V3 1.768012 1_556
O0 V0 1.956743 1_556
O1 V3 1.768012 1_555
O1 V0 1.956743 1_665
F0 V5 1.808937 1_555
F0 V2 2.211654 1_545
F1 V0 1.767345 1_566
F1 V3 2.166163 1_556
F2 V2 1.844237 1_645
F2 V5 2.186985 1_555
F3 V0 2.230549 1_565
F4 V1 2.109957 1_555
F5 V2 2.063763 1_555
F6 V1 2.108660 1_555
F7 V2 2.075585 1_645
F8 V3 2.093833 1_556
F9 V1 1.810760 1_555
F9 V4 2.200993 1_455
F10 V2 1.845623 1_555
F10 V5 2.189245 1_555
F11 V4 1.845623 1_555
F11 V1 2.189245 1_555
F12 V5 1.810760 1_555
F12 V2 2.200993 1_655
F13 V3 2.093833 1_555
F14 V4 2.075585 1_465
F15 V5 2.108660 1_555
F16 V4 2.063763 1_555
F17 V5 2.109957 1_555
F18 V0 2.230549 1_656
F19 V4 1.844237 1_465
F19 V1 2.186985 1_555
F20 V0 1.767345 1_655
F20 V3 2.166163 1_555
F21 V1 1.808937 1_555
F21 V4 2.211654 1_565
