# generated using pymatgen
data_Rb2Hf2O5
_symmetry_space_group_name_H-M   'P 1'
_cell_length_a   4.03150368
_cell_length_b   4.03150368
_cell_length_c   9.01397468
_cell_angle_alpha   90.00000000
_cell_angle_beta   90.00000000
_cell_angle_gamma   90.00000000
_symmetry_Int_Tables_number   1
_chemical_formula_structural   Rb2Hf2O5
_chemical_formula_sum   'Rb2 Hf2 O5'
_cell_volume   146.50432808
_cell_formula_units_Z   1
loop_
 _symmetry_equiv_pos_site_id
 _symmetry_equiv_pos_as_xyz
  1  'x, y, z'
loop_
 _atom_site_type_symbol
 _atom_site_label
 _atom_site_symmetry_multiplicity
 _atom_site_fract_x
 _atom_site_fract_y
 _atom_site_fract_z
 _atom_site_occupancy
  Rb  Rb0  1  -0.00000000  0.00000000  0.00000000  1
  Rb  Rb1  1  -0.00000000  0.00000000  0.50000000  1
  Hf  Hf0  1  0.50000000  0.50000000  0.27988560  1
  Hf  Hf1  1  0.50000000  0.50000000  0.72011440  1
  O  O0  1  0.50000000  -0.00000000  0.23593954  1
  O  O1  1  0.50000000  0.00000000  0.76406046  1
  O  O2  1  0.50000000  0.50000000  0.50000000  1
  O  O3  1  0.00000000  0.50000000  0.23593954  1
  O  O4  1  -0.00000000  0.50000000  0.76406046  1
loop_
_geom_bond_atom_site_label_1
_geom_bond_atom_site_label_2
_geom_bond_distance
_geom_bond_site_symmetry_2
Hf0 O2 1.984106 1_555
Hf0 O0 2.054306 1_565
Hf0 O3 2.054306 1_655
Hf0 O3 2.054306 1_555
Hf0 O0 2.054306 1_555
Hf1 O2 1.984106 1_555
Hf1 O1 2.054306 1_565
Hf1 O1 2.054306 1_555
Hf1 O4 2.054306 1_555
Hf1 O4 2.054306 1_655
O0 Rb0 2.930245 1_655
O0 Rb0 2.930245 1_555
O0 Rb1 3.119098 1_555
O0 Rb1 3.119098 1_655
O1 Rb0 2.930245 1_556
O1 Rb0 2.930245 1_656
O1 Rb1 3.119098 1_655
O1 Rb1 3.119098 1_555
O2 Rb1 2.850704 1_555
O2 Rb1 2.850704 1_565
O2 Rb1 2.850704 1_655
O2 Rb1 2.850704 1_665
O3 Rb0 2.930245 1_555
O3 Rb0 2.930245 1_565
O3 Rb1 3.119098 1_555
O3 Rb1 3.119098 1_565
O4 Rb0 2.930245 1_566
O4 Rb0 2.930245 1_556
O4 Rb1 3.119098 1_565
O4 Rb1 3.119098 1_555
