# generated using pymatgen
data_CaPmAu2
_symmetry_space_group_name_H-M   'P 1'
_cell_length_a   5.13872907
_cell_length_b   5.13872907
_cell_length_c   5.13872907
_cell_angle_alpha   60.00345705
_cell_angle_beta   60.00345705
_cell_angle_gamma   60.00345705
_symmetry_Int_Tables_number   1
_chemical_formula_structural   CaPmAu2
_chemical_formula_sum   'Ca1 Pm1 Au2'
_cell_volume   95.95910815
_cell_formula_units_Z   1
loop_
 _symmetry_equiv_pos_site_id
 _symmetry_equiv_pos_as_xyz
  1  'x, y, z'
loop_
 _atom_site_type_symbol
 _atom_site_label
 _atom_site_symmetry_multiplicity
 _atom_site_fract_x
 _atom_site_fract_y
 _atom_site_fract_z
 _atom_site_occupancy
  Ca  Ca0  1  0.25000223  0.25000223  0.25000223  1
  Pm  Pm0  1  0.74999837  0.74999837  0.74999837  1
  Au  Au0  1  0.50000044  0.50000044  0.50000044  1
  Au  Au1  1  0.99999796  0.99999796  0.99999796  1
loop_
_geom_bond_atom_site_label_1
_geom_bond_atom_site_label_2
_geom_bond_distance
_geom_bond_site_symmetry_2
Au0 Pm0 3.146708 1_555
Au0 Ca0 3.146711 1_555
Au0 Ca0 3.146961 1_655
Au0 Ca0 3.146961 1_565
Au0 Ca0 3.146961 1_556
Au0 Pm0 3.146962 1_545
Au0 Pm0 3.146962 1_455
Au0 Pm0 3.146962 1_554
Au1 Pm0 3.146729 1_555
Au1 Ca0 3.146788 1_666
Au1 Ca0 3.146935 1_656
Au1 Ca0 3.146935 1_566
Au1 Ca0 3.146935 1_665
Au1 Pm0 3.146955 1_556
Au1 Pm0 3.146955 1_565
Au1 Pm0 3.146955 1_655
