# generated using pymatgen
data_Bi3BrO4
_symmetry_space_group_name_H-M   'P 1'
_cell_length_a   3.94070813
_cell_length_b   5.57304723
_cell_length_c   10.86438616
_cell_angle_alpha   120.86156033
_cell_angle_beta   111.20697865
_cell_angle_gamma   45.00173105
_symmetry_Int_Tables_number   1
_chemical_formula_structural   Bi3BrO4
_chemical_formula_sum   'Bi3 Br1 O4'
_cell_volume   144.83187076
_cell_formula_units_Z   1
loop_
 _symmetry_equiv_pos_site_id
 _symmetry_equiv_pos_as_xyz
  1  'x, y, z'
loop_
 _atom_site_type_symbol
 _atom_site_label
 _atom_site_symmetry_multiplicity
 _atom_site_fract_x
 _atom_site_fract_y
 _atom_site_fract_z
 _atom_site_occupancy
  Bi  Bi0  1  0.51907851  0.76476105  0.27437400  1
  Bi  Bi1  1  0.52339144  0.21388202  0.72563644  1
  Bi  Bi2  1  0.52129565  0.98928302  0.00001989  1
  Br  Br0  1  0.52046612  0.49002926  0.49999269  1
  O  O0  1  0.01985795  0.14854551  0.15855552  1
  O  O1  1  0.02256483  0.33009467  0.84145010  1
  O  O2  1  0.02254877  0.83014017  0.84143639  1
  O  O3  1  0.01988873  0.64854830  0.15853297  1
loop_
_geom_bond_atom_site_label_1
_geom_bond_atom_site_label_2
_geom_bond_distance
_geom_bond_site_symmetry_2
Bi0 O3 2.246652 1_555
Bi0 O0 2.246761 1_565
Bi0 O0 2.247358 1_655
Bi0 O3 2.247538 1_655
Bi1 O2 2.246466 1_645
Bi1 O1 2.246567 1_655
Bi1 O1 2.247378 1_555
Bi1 O2 2.247487 1_555
Bi2 O3 2.462296 1_655
Bi2 O0 2.462491 1_665
Bi2 O2 2.462813 1_554
Bi2 O1 2.463035 1_564
Bi2 O1 2.464254 1_654
Bi2 O0 2.464295 1_565
Bi2 O3 2.464358 1_565
Bi2 O2 2.464508 1_654
