# generated using pymatgen
data_DyBr3
_symmetry_space_group_name_H-M   'P 1'
_cell_length_a   9.97203762
_cell_length_b   9.97246883
_cell_length_c   3.73619688
_cell_angle_alpha   90.00066992
_cell_angle_beta   90.00048840
_cell_angle_gamma   120.00445667
_symmetry_Int_Tables_number   1
_chemical_formula_structural   DyBr3
_chemical_formula_sum   'Dy2 Br6'
_cell_volume   321.75660883
_cell_formula_units_Z   2
loop_
 _symmetry_equiv_pos_site_id
 _symmetry_equiv_pos_as_xyz
  1  'x, y, z'
loop_
 _atom_site_type_symbol
 _atom_site_label
 _atom_site_symmetry_multiplicity
 _atom_site_fract_x
 _atom_site_fract_y
 _atom_site_fract_z
 _atom_site_occupancy
  Dy  Dy0  1  0.33333637  0.66666581  0.75000077  1
  Dy  Dy1  1  0.66666137  0.33333187  0.25000000  1
  Br  Br0  1  0.21133083  0.42303635  0.24998692  1
  Br  Br1  1  0.57697483  0.78829931  0.25001453  1
  Br  Br2  1  0.21172136  0.78866707  0.24999085  1
  Br  Br3  1  0.78829771  0.57696011  0.75001118  1
  Br  Br4  1  0.42302119  0.21132713  0.74999782  1
  Br  Br5  1  0.78865634  0.21171235  0.75000094  1
loop_
_geom_bond_atom_site_label_1
_geom_bond_atom_site_label_2
_geom_bond_distance
_geom_bond_site_symmetry_2
Br0 Dy0 2.813631 1_554
Br0 Dy0 2.813648 1_555
Br1 Dy0 2.813619 1_555
Br1 Dy0 2.813641 1_554
Br2 Dy0 2.813599 1_554
Br2 Dy0 2.813654 1_555
Br3 Dy1 2.813630 1_556
Br3 Dy1 2.813634 1_555
Br4 Dy1 2.813623 1_556
Br4 Dy1 2.813659 1_555
Br5 Dy1 2.813610 1_556
Br5 Dy1 2.813620 1_555
