# generated using pymatgen
data_YbF2
_symmetry_space_group_name_H-M   'P 1'
_cell_length_a   4.87852186
_cell_length_b   4.87852186
_cell_length_c   3.86572430
_cell_angle_alpha   90.00000000
_cell_angle_beta   90.00000000
_cell_angle_gamma   90.00000000
_symmetry_Int_Tables_number   1
_chemical_formula_structural   YbF2
_chemical_formula_sum   'Yb2 F4'
_cell_volume   92.00414359
_cell_formula_units_Z   2
loop_
 _symmetry_equiv_pos_site_id
 _symmetry_equiv_pos_as_xyz
  1  'x, y, z'
loop_
 _atom_site_type_symbol
 _atom_site_label
 _atom_site_symmetry_multiplicity
 _atom_site_fract_x
 _atom_site_fract_y
 _atom_site_fract_z
 _atom_site_occupancy
  Yb  Yb0  1  0.00000000  0.00000000  0.00000000  1
  Yb  Yb1  1  0.50000000  0.50000000  0.50000000  1
  F  F0  1  0.31731752  0.31731752  0.00000000  1
  F  F1  1  0.68268248  0.68268248  0.00000000  1
  F  F2  1  0.18268248  0.81731752  0.50000000  1
  F  F3  1  0.81731752  0.18268248  0.50000000  1
loop_
_geom_bond_atom_site_label_1
_geom_bond_atom_site_label_2
_geom_bond_distance
_geom_bond_site_symmetry_2
F0 Yb0 2.189260 1_555
F0 Yb1 2.307489 1_555
F0 Yb1 2.307489 1_554
F1 Yb0 2.189260 1_665
F1 Yb1 2.307489 1_555
F1 Yb1 2.307489 1_554
F2 Yb1 2.189260 1_555
F2 Yb0 2.307489 1_565
F2 Yb0 2.307489 1_566
F3 Yb1 2.189260 1_555
F3 Yb0 2.307489 1_655
F3 Yb0 2.307489 1_656
