# generated using pymatgen
data_USe2
_symmetry_space_group_name_H-M   'P 1'
_cell_length_a   7.69763907
_cell_length_b   7.69763231
_cell_length_c   4.16581903
_cell_angle_alpha   90.00000000
_cell_angle_beta   90.00000000
_cell_angle_gamma   119.99997731
_symmetry_Int_Tables_number   1
_chemical_formula_structural   USe2
_chemical_formula_sum   'U3 Se6'
_cell_volume   213.76954699
_cell_formula_units_Z   3
loop_
 _symmetry_equiv_pos_site_id
 _symmetry_equiv_pos_as_xyz
  1  'x, y, z'
loop_
 _atom_site_type_symbol
 _atom_site_label
 _atom_site_symmetry_multiplicity
 _atom_site_fract_x
 _atom_site_fract_y
 _atom_site_fract_z
 _atom_site_occupancy
  U  U0  1  -0.00000000  -0.00000000  -0.00000000  1
  U  U1  1  0.66666700  0.33333300  0.50000000  1
  U  U2  1  0.33333300  0.66666700  0.50000000  1
  Se  Se0  1  -0.00000000  0.59678702  -0.00000000  1
  Se  Se1  1  0.40321298  0.40321298  0.00000000  1
  Se  Se2  1  0.59678702  0.00000000  0.00000000  1
  Se  Se3  1  0.25946791  0.00000000  0.50000000  1
  Se  Se4  1  0.74053209  0.74053209  0.50000000  1
  Se  Se5  1  -0.00000000  0.25946791  0.50000000  1
loop_
_geom_bond_atom_site_label_1
_geom_bond_atom_site_label_2
_geom_bond_distance
_geom_bond_site_symmetry_2
Se0 U0 3.103785 1_565
Se0 U2 3.135502 1_555
Se0 U2 3.135502 1_554
Se0 U1 3.135504 1_454
Se0 U1 3.135504 1_455
Se1 U0 3.103788 1_555
Se1 U2 3.135506 1_555
Se1 U2 3.135506 1_554
Se1 U1 3.135507 1_555
Se1 U1 3.135507 1_554
Se2 U0 3.103788 1_655
Se2 U1 3.135500 1_554
Se2 U1 3.135500 1_555
Se2 U2 3.135503 1_544
Se2 U2 3.135503 1_545
Se3 U0 2.885772 1_556
Se3 U0 2.885772 1_555
Se3 U2 2.892391 1_545
Se3 U1 2.892399 1_555
Se4 U0 2.885772 1_665
Se4 U0 2.885772 1_666
Se4 U1 2.892399 1_555
Se4 U2 2.892401 1_555
Se5 U0 2.885771 1_556
Se5 U0 2.885771 1_555
Se5 U1 2.892393 1_455
Se5 U2 2.892398 1_555
