# generated using pymatgen
data_TiMn9O20
_symmetry_space_group_name_H-M   'P 1'
_cell_length_a   5.80720200
_cell_length_b   5.82276400
_cell_length_c   24.04637762
_cell_angle_alpha   96.87161806
_cell_angle_beta   89.95905772
_cell_angle_gamma   119.87012393
_symmetry_Int_Tables_number   1
_chemical_formula_structural   TiMn9O20
_chemical_formula_sum   'Ti2 Mn18 O40'
_cell_volume   698.38446150
_cell_formula_units_Z   2
loop_
 _symmetry_equiv_pos_site_id
 _symmetry_equiv_pos_as_xyz
  1  'x, y, z'
loop_
 _atom_site_type_symbol
 _atom_site_label
 _atom_site_symmetry_multiplicity
 _atom_site_fract_x
 _atom_site_fract_y
 _atom_site_fract_z
 _atom_site_occupancy
  Ti  Ti0  1  0.12006500  0.49628000  0.87543000  1
  Ti  Ti1  1  0.12376000  0.50072800  0.37496400  1
  Mn  Mn0  1  0.32320700  0.69956900  0.97543300  1
  Mn  Mn1  1  0.12177000  0.99761600  0.87492000  1
  Mn  Mn2  1  0.72527000  0.60052900  0.67451500  1
  Mn  Mn3  1  0.62112400  0.99654600  0.87492000  1
  Mn  Mn4  1  0.92191200  0.29729900  0.77464400  1
  Mn  Mn5  1  0.72404400  0.09961200  0.67481800  1
  Mn  Mn6  1  0.22465100  0.59854300  0.67479800  1
  Mn  Mn7  1  0.82422000  0.20242400  0.47546600  1
  Mn  Mn8  1  0.32397700  0.70209800  0.47555900  1
  Mn  Mn9  1  0.52514200  0.90229000  0.57508400  1
  Mn  Mn10  1  0.92382400  0.80103100  0.27435100  1
  Mn  Mn11  1  0.42312800  0.80001700  0.27428800  1
  Mn  Mn12  1  0.52332100  0.39904200  0.07529500  1
  Mn  Mn13  1  0.32430300  0.20202500  0.47571400  1
  Mn  Mn14  1  0.52267100  0.89887000  0.07514700  1
  Mn  Mn15  1  0.92270300  0.30053600  0.27432400  1
  Mn  Mn16  1  0.72299600  0.09842800  0.17484100  1
  Mn  Mn17  1  0.02296900  0.39880300  0.07525800  1
  O  O0  1  0.00919600  0.62379300  0.92322700  1
  O  O1  1  0.45593300  0.62315300  0.92312600  1
  O  O2  1  0.05303800  0.66184700  0.72189200  1
  O  O3  1  0.45105800  0.06274500  0.92179200  1
  O  O4  1  0.27687300  0.89084700  0.83338700  1
  O  O5  1  0.96550800  0.10227900  0.91665800  1
  O  O6  1  0.83714700  0.97749700  0.62772000  1
  O  O7  1  0.23426100  0.37091200  0.82712400  1
  O  O8  1  0.78660800  0.37072500  0.82706400  1
  O  O9  1  0.61147500  0.22363000  0.72143900  1
  O  O10  1  0.05261300  0.22169400  0.72171000  1
  O  O11  1  0.65416300  0.82636900  0.52223100  1
  O  O12  1  0.65350300  0.26687600  0.52238400  1
  O  O13  1  0.47711500  0.09046600  0.43446600  1
  O  O14  1  0.87831300  0.48783900  0.63357800  1
  O  O15  1  0.79252500  0.93252900  0.82798000  1
  O  O16  1  0.39682500  0.53693700  0.62751600  1
  O  O17  1  0.57171900  0.71115400  0.71574200  1
  O  O18  1  0.17055400  0.31400800  0.51657600  1
  O  O19  1  0.44004700  0.57908000  0.42926300  1
  O  O20  1  0.39408100  0.97580700  0.62809200  1
  O  O21  1  0.59335000  0.17577900  0.22737700  1
  O  O22  1  0.99310300  0.57966400  0.42911600  1
  O  O23  1  0.21298900  0.82621100  0.52264600  1
  O  O24  1  0.80745100  0.42403000  0.32081900  1
  O  O25  1  0.07634700  0.68845900  0.23334600  1
  O  O26  1  0.25496400  0.87100100  0.32044900  1
  O  O27  1  0.36975300  0.51097300  0.11629900  1
  O  O28  1  0.99342900  0.13186600  0.42929800  1
  O  O29  1  0.76992300  0.91248900  0.31542900  1
  O  O30  1  0.59464800  0.73504100  0.22758400  1
  O  O31  1  0.19458300  0.33547000  0.02820500  1
  O  O32  1  0.03482500  0.17658400  0.22740100  1
  O  O33  1  0.63488300  0.77562200  0.02824300  1
  O  O34  1  0.19325700  0.77561000  0.02837000  1
  O  O35  1  0.41094000  0.02255400  0.12221600  1
  O  O36  1  0.25414600  0.42285400  0.32070300  1
  O  O37  1  0.85269400  0.02201100  0.12197200  1
  O  O38  1  0.85199800  0.46292000  0.12223200  1
  O  O39  1  0.67628600  0.28722900  0.03422300  1
loop_
_geom_bond_atom_site_label_1
_geom_bond_atom_site_label_2
_geom_bond_distance
_geom_bond_site_symmetry_2
Mn0 O1 1.606366 1_555
Mn0 O34 1.607015 1_556
Mn0 O33 2.038393 1_556
Mn0 O0 2.040875 1_555
Mn0 O31 2.393314 1_556
Mn0 O3 2.402989 1_565
Mn1 O4 1.613422 1_555
Mn1 O5 1.614111 1_465
Mn1 O3 2.061386 1_565
Mn1 O15 2.062121 1_455
Mn1 O7 2.377950 1_565
Mn1 O0 2.387721 1_555
Mn2 O17 1.615830 1_555
Mn2 O14 1.616947 1_555
Mn2 O16 2.061988 1_555
Mn2 O2 2.068136 1_655
Mn2 O9 2.381815 1_555
Mn2 O6 2.382395 1_555
Mn3 O3 1.633385 1_565
Mn3 O15 1.634325 1_555
Mn3 O4 2.000746 1_555
Mn3 O5 2.003637 1_565
Mn3 O8 2.346822 1_565
Mn3 O1 2.348404 1_555
Mn4 O10 1.608556 1_655
Mn4 O8 1.610375 1_555
Mn4 O7 2.041029 1_655
Mn4 O9 2.042674 1_555
Mn4 O2 2.393240 1_655
Mn4 O15 2.404486 1_545
Mn5 O9 1.575131 1_555
Mn5 O6 1.578308 1_545
Mn5 O10 1.969192 1_655
Mn5 O20 1.971588 1_545
Mn5 O17 2.324970 1_545
Mn5 O14 2.326811 1_555
Mn6 O2 1.635815 1_555
Mn6 O16 1.636793 1_555
Mn6 O17 1.998372 1_555
Mn6 O14 2.000428 1_455
Mn6 O20 2.343274 1_555
Mn6 O10 2.343650 1_555
Mn7 O28 1.630417 1_555
Mn7 O12 1.632246 1_555
Mn7 O18 1.997987 1_655
Mn7 O13 2.000055 1_555
Mn7 O22 2.338267 1_555
Mn7 O11 2.338423 1_545
Mn8 O23 1.576971 1_555
Mn8 O19 1.579806 1_555
Mn8 O11 1.971423 1_555
Mn8 O22 1.973714 1_455
Mn8 O18 2.323737 1_555
Mn8 O13 2.326241 1_565
Mn9 O11 1.601926 1_555
Mn9 O20 1.606182 1_555
Mn9 O23 2.035181 1_555
Mn9 O6 2.038870 1_555
Mn9 O16 2.394167 1_555
Mn9 O12 2.394665 1_565
Mn10 O25 1.615180 1_655
Mn10 O29 1.618254 1_555
Mn10 O26 2.051158 1_655
Mn10 O30 2.057800 1_555
Mn10 O24 2.373246 1_555
Mn10 O32 2.378586 1_665
Mn11 O26 1.627064 1_555
Mn11 O30 1.633591 1_555
Mn11 O25 1.998378 1_555
Mn11 O29 1.999377 1_555
Mn11 O36 2.338806 1_555
Mn11 O21 2.339128 1_565
Mn12 O39 1.615338 1_555
Mn12 O27 1.617464 1_555
Mn12 O38 2.061752 1_555
Mn12 O31 2.064605 1_555
Mn12 O35 2.381267 1_555
Mn12 O33 2.384440 1_555
Mn13 O13 1.616168 1_555
Mn13 O18 1.616526 1_555
Mn13 O28 2.053465 1_455
Mn13 O12 2.058967 1_555
Mn13 O19 2.373919 1_555
Mn13 O23 2.379272 1_545
Mn14 O33 1.575694 1_555
Mn14 O35 1.577996 1_565
Mn14 O34 1.970309 1_555
Mn14 O37 1.973843 1_565
Mn14 O39 2.323720 1_565
Mn14 O27 2.324856 1_555
Mn15 O32 1.578024 1_655
Mn15 O24 1.581443 1_555
Mn15 O21 1.970575 1_555
Mn15 O36 1.975664 1_655
Mn15 O25 2.322292 1_655
Mn15 O29 2.325054 1_545
Mn16 O21 1.601832 1_555
Mn16 O37 1.605797 1_555
Mn16 O32 2.031863 1_655
Mn16 O35 2.037774 1_555
Mn16 O30 2.389787 1_545
Mn16 O38 2.392357 1_555
Mn17 O38 1.633327 1_455
Mn17 O31 1.635239 1_555
Mn17 O27 1.998638 1_555
Mn17 O39 1.998892 1_455
Mn17 O37 2.341005 1_455
Mn17 O34 2.343548 1_555
O0 Ti0 1.599279 1_555
O1 Ti0 2.007648 1_555
O4 Ti0 2.366488 1_555
O5 Ti0 2.354486 1_655
O7 Ti0 1.612493 1_555
O8 Ti0 2.006633 1_655
O19 Ti1 2.076731 1_555
O22 Ti1 1.638695 1_655
O24 Ti1 2.077471 1_655
O26 Ti1 2.446621 1_555
O28 Ti1 2.437988 1_655
O36 Ti1 1.637187 1_555
