# generated using pymatgen
data_CsAsH6(CSe)2
_symmetry_space_group_name_H-M   'P 1'
_cell_length_a   7.12899756
_cell_length_b   7.12899756
_cell_length_c   9.83924686
_cell_angle_alpha   72.43488686
_cell_angle_beta   72.43488686
_cell_angle_gamma   91.27600070
_symmetry_Int_Tables_number   1
_chemical_formula_structural   CsAsH6(CSe)2
_chemical_formula_sum   'Cs2 As2 H12 C4 Se4'
_cell_volume   450.96474468
_cell_formula_units_Z   2
loop_
 _symmetry_equiv_pos_site_id
 _symmetry_equiv_pos_as_xyz
  1  'x, y, z'
loop_
 _atom_site_type_symbol
 _atom_site_label
 _atom_site_symmetry_multiplicity
 _atom_site_fract_x
 _atom_site_fract_y
 _atom_site_fract_z
 _atom_site_occupancy
  Cs  Cs0  1  0.88826700  0.11173300  0.25000000  1
  Cs  Cs1  1  0.11173300  0.88826700  0.75000000  1
  As  As0  1  0.32340800  0.67659200  0.25000000  1
  As  As1  1  0.67659200  0.32340800  0.75000000  1
  H  H0  1  0.17716400  0.41355100  0.50576500  1
  H  H1  1  0.82283600  0.58644900  0.49423500  1
  H  H2  1  0.44216700  0.41704000  0.43739200  1
  H  H3  1  0.28796300  0.30265100  0.36154100  1
  H  H4  1  0.69734900  0.71203700  0.13845900  1
  H  H5  1  0.58296000  0.55783300  0.06260800  1
  H  H6  1  0.41355100  0.17716400  0.00576500  1
  H  H7  1  0.58644900  0.82283600  0.99423500  1
  H  H8  1  0.41704000  0.44216700  0.93739200  1
  H  H9  1  0.30265100  0.28796300  0.86154100  1
  H  H10  1  0.71203700  0.69734900  0.63845900  1
  H  H11  1  0.55783300  0.58296000  0.56260800  1
  C  C0  1  0.30594700  0.42269800  0.40710800  1
  C  C1  1  0.57730200  0.69405300  0.09289200  1
  C  C2  1  0.42269800  0.30594700  0.90710800  1
  C  C3  1  0.69405300  0.57730200  0.59289200  1
  Se  Se0  1  0.34319400  0.93247900  0.34547700  1
  Se  Se1  1  0.06752100  0.65680600  0.15452300  1
  Se  Se2  1  0.93247900  0.34319400  0.84547700  1
  Se  Se3  1  0.65680600  0.06752100  0.65452300  1
loop_
_geom_bond_atom_site_label_1
_geom_bond_atom_site_label_2
_geom_bond_distance
_geom_bond_site_symmetry_2
Cs0 Se3 3.730906 1_555
Cs0 Se2 3.730906 1_554
Cs0 Se1 3.785847 1_645
Cs0 Se0 3.785847 1_645
Cs0 Se0 3.803433 1_545
Cs0 Se1 3.803433 1_655
Cs1 Se0 3.730906 1_555
Cs1 Se1 3.730906 1_556
Cs1 Se3 3.785847 1_465
Cs1 Se2 3.785847 1_465
Cs1 Se2 3.803433 1_455
Cs1 Se3 3.803433 1_565
As0 C0 1.966275 1_555
As0 C1 1.966275 1_555
As0 Se0 2.309342 1_555
As0 Se1 2.309342 1_555
As1 C2 1.966275 1_555
As1 C3 1.966275 1_555
As1 Se2 2.309342 1_555
As1 Se3 2.309342 1_555
C0 H2 1.096639 1_555
C0 H0 1.100292 1_555
C0 H3 1.100577 1_555
C1 H5 1.096639 1_555
C1 H7 1.100292 1_554
C1 H4 1.100577 1_555
C2 H8 1.096639 1_555
C2 H6 1.100292 1_556
C2 H9 1.100577 1_555
C3 H11 1.096639 1_555
C3 H1 1.100292 1_555
C3 H10 1.100577 1_555
