# generated using pymatgen
data_LiMnSiO4
_symmetry_space_group_name_H-M   'P 1'
_cell_length_a   10.04567000
_cell_length_b   4.82448300
_cell_length_c   6.01617623
_cell_angle_alpha   89.91118268
_cell_angle_beta   90.00000000
_cell_angle_gamma   90.00000000
_symmetry_Int_Tables_number   1
_chemical_formula_structural   LiMnSiO4
_chemical_formula_sum   'Li4 Mn4 Si4 O16'
_cell_volume   291.57461807
_cell_formula_units_Z   4
loop_
 _symmetry_equiv_pos_site_id
 _symmetry_equiv_pos_as_xyz
  1  'x, y, z'
loop_
 _atom_site_type_symbol
 _atom_site_label
 _atom_site_symmetry_multiplicity
 _atom_site_fract_x
 _atom_site_fract_y
 _atom_site_fract_z
 _atom_site_occupancy
  Li  Li0  1  0.30401300  0.75140100  0.25656200  1
  Li  Li1  1  0.78651500  0.26087500  0.24842300  1
  Li  Li2  1  0.28651500  0.73912500  0.75157700  1
  Li  Li3  1  0.80401300  0.24859900  0.74343800  1
  Mn  Mn0  1  0.02306000  0.72988400  0.99688700  1
  Mn  Mn1  1  0.07120800  0.23203900  0.49671800  1
  Mn  Mn2  1  0.57120800  0.76796100  0.50328200  1
  Mn  Mn3  1  0.52306000  0.27011600  0.00311300  1
  Si  Si0  1  0.20396700  0.18341400  0.01692300  1
  Si  Si1  1  0.89103200  0.68729100  0.48260600  1
  Si  Si2  1  0.39103200  0.31270900  0.51739400  1
  Si  Si3  1  0.70396700  0.81658600  0.98307700  1
  O  O0  1  0.35820400  0.06689000  0.02101600  1
  O  O1  1  0.19273900  0.52101300  0.00814000  1
  O  O2  1  0.62821800  0.98238500  0.19057800  1
  O  O3  1  0.13320200  0.03055100  0.23566000  1
  O  O4  1  0.95626700  0.53495100  0.25950400  1
  O  O5  1  0.23769800  0.43425600  0.50494300  1
  O  O6  1  0.90055600  0.02508400  0.48884700  1
  O  O7  1  0.47224000  0.47933600  0.31531600  1
  O  O8  1  0.97224000  0.52066400  0.68468400  1
  O  O9  1  0.40055600  0.97491600  0.51115300  1
  O  O10  1  0.73769800  0.56574400  0.49505700  1
  O  O11  1  0.45626700  0.46504900  0.74049600  1
  O  O12  1  0.63320200  0.96944900  0.76434000  1
  O  O13  1  0.12821800  0.01761500  0.80942200  1
  O  O14  1  0.69273900  0.47898700  0.99186000  1
  O  O15  1  0.85820400  0.93311000  0.97898400  1
loop_
_geom_bond_atom_site_label_1
_geom_bond_atom_site_label_2
_geom_bond_distance
_geom_bond_site_symmetry_2
Li0 O9 2.110576 1_555
Li0 O0 2.148139 1_565
Li0 O7 2.168477 1_555
Li0 O1 2.173430 1_555
Li0 O3 2.184808 1_565
Li0 O5 2.238467 1_555
Li1 O14 2.090975 1_554
Li1 O2 2.111036 1_545
Li1 O10 2.147617 1_555
Li1 O4 2.158954 1_555
Li1 O6 2.166466 1_555
Li1 O15 2.377961 1_544
Li2 O1 2.090975 1_556
Li2 O13 2.111036 1_565
Li2 O5 2.147617 1_555
Li2 O11 2.158954 1_555
Li2 O9 2.166466 1_555
Li2 O0 2.377961 1_566
Li3 O6 2.110576 1_555
Li3 O15 2.148139 1_545
Li3 O8 2.168477 1_555
Li3 O14 2.173430 1_555
Li3 O12 2.184808 1_545
Li3 O10 2.238467 1_555
Mn0 O15 1.927487 1_455
Mn0 O4 1.956093 1_456
Mn0 O1 1.981230 1_556
Mn0 O13 2.076064 1_565
Mn0 O8 2.193911 1_455
Mn0 O3 2.323437 1_566
Mn1 O5 1.936917 1_555
Mn1 O3 1.950436 1_555
Mn1 O6 1.984481 1_455
Mn1 O8 2.052089 1_455
Mn1 O13 2.220662 1_555
Mn1 O4 2.345020 1_455
Mn2 O10 1.936917 1_555
Mn2 O12 1.950436 1_555
Mn2 O9 1.984481 1_555
Mn2 O7 2.052089 1_555
Mn2 O2 2.220662 1_555
Mn2 O11 2.345020 1_555
Mn3 O0 1.927487 1_555
Mn3 O11 1.956093 1_554
Mn3 O14 1.981230 1_554
Mn3 O2 2.076064 1_545
Mn3 O7 2.193911 1_555
Mn3 O12 2.323437 1_544
O0 Si0 1.648417 1_555
O1 Si0 1.633415 1_555
O2 Si3 1.667447 1_554
O3 Si0 1.666727 1_555
O4 Si1 1.665605 1_555
O5 Si2 1.649848 1_555
O6 Si1 1.632972 1_545
O7 Si2 1.669352 1_555
O8 Si1 1.669352 1_555
O9 Si2 1.632972 1_565
O10 Si1 1.649848 1_555
O11 Si2 1.665605 1_555
O12 Si3 1.666727 1_555
O13 Si0 1.667447 1_556
O14 Si3 1.633415 1_555
O15 Si3 1.648417 1_555
