# generated using pymatgen
data_MgGaRh2
_symmetry_space_group_name_H-M   'P 1'
_cell_length_a   4.28246409
_cell_length_b   4.28246410
_cell_length_c   4.28246409
_cell_angle_alpha   59.99983581
_cell_angle_beta   59.99983516
_cell_angle_gamma   59.99983592
_symmetry_Int_Tables_number   1
_chemical_formula_structural   MgGaRh2
_chemical_formula_sum   'Mg1 Ga1 Rh2'
_cell_volume   55.53471834
_cell_formula_units_Z   1
loop_
 _symmetry_equiv_pos_site_id
 _symmetry_equiv_pos_as_xyz
  1  'x, y, z'
loop_
 _atom_site_type_symbol
 _atom_site_label
 _atom_site_symmetry_multiplicity
 _atom_site_fract_x
 _atom_site_fract_y
 _atom_site_fract_z
 _atom_site_occupancy
  Mg  Mg0  1  0.74999915  0.74999915  0.74999915  1
  Ga  Ga0  1  0.24999932  0.24999932  0.24999932  1
  Rh  Rh0  1  0.00000070  0.00000065  0.00000068  1
  Rh  Rh1  1  0.49999983  0.49999988  0.49999985  1
loop_
_geom_bond_atom_site_label_1
_geom_bond_atom_site_label_2
_geom_bond_distance
_geom_bond_site_symmetry_2
Mg0 Rh0 2.622452 1_566
Mg0 Rh0 2.622452 1_665
Mg0 Rh0 2.622452 1_656
Mg0 Rh1 2.622459 1_555
Mg0 Rh1 2.622460 1_655
Mg0 Rh1 2.622460 1_556
Mg0 Rh1 2.622460 1_565
Mg0 Rh0 2.622482 1_666
Ga0 Rh0 2.622452 1_555
Ga0 Rh1 2.622456 1_545
Ga0 Rh1 2.622456 1_554
Ga0 Rh1 2.622456 1_455
Ga0 Rh0 2.622462 1_565
Ga0 Rh0 2.622462 1_556
Ga0 Rh0 2.622462 1_655
Ga0 Rh1 2.622472 1_555
