# generated using pymatgen
data_HoCdPd2
_symmetry_space_group_name_H-M   'P 1'
_cell_length_a   4.74375512
_cell_length_b   4.74375531
_cell_length_c   4.74375526
_cell_angle_alpha   59.99997081
_cell_angle_beta   59.99997184
_cell_angle_gamma   59.99997253
_symmetry_Int_Tables_number   1
_chemical_formula_structural   HoCdPd2
_chemical_formula_sum   'Ho1 Cd1 Pd2'
_cell_volume   75.48341498
_cell_formula_units_Z   1
loop_
 _symmetry_equiv_pos_site_id
 _symmetry_equiv_pos_as_xyz
  1  'x, y, z'
loop_
 _atom_site_type_symbol
 _atom_site_label
 _atom_site_symmetry_multiplicity
 _atom_site_fract_x
 _atom_site_fract_y
 _atom_site_fract_z
 _atom_site_occupancy
  Ho  Ho0  1  0.74999900  0.74999912  0.74999901  1
  Cd  Cd0  1  0.24999913  0.24999908  0.24999911  1
  Pd  Pd0  1  -0.00000010  -0.00000015  -0.00000010  1
  Pd  Pd1  1  0.50000098  0.50000095  0.50000098  1
loop_
_geom_bond_atom_site_label_1
_geom_bond_atom_site_label_2
_geom_bond_distance
_geom_bond_site_symmetry_2
Ho0 Pd1 2.904923 1_555
Ho0 Pd0 2.904940 1_566
Ho0 Pd0 2.904940 1_665
Ho0 Pd0 2.904941 1_656
Ho0 Pd1 2.904951 1_565
Ho0 Pd1 2.904952 1_556
Ho0 Pd1 2.904952 1_655
Ho0 Pd0 2.904955 1_666
Cd0 Pd0 2.904937 1_555
Cd0 Pd1 2.904937 1_554
Cd0 Pd1 2.904937 1_455
Cd0 Pd1 2.904937 1_545
Cd0 Pd0 2.904947 1_655
Cd0 Pd0 2.904947 1_565
Cd0 Pd0 2.904947 1_556
Cd0 Pd1 2.904967 1_555
