# generated using pymatgen
data_Sr2CdPb
_symmetry_space_group_name_H-M   'P 1'
_cell_length_a   5.75766446
_cell_length_b   5.75766446
_cell_length_c   5.75766446
_cell_angle_alpha   60.00000000
_cell_angle_beta   60.00000000
_cell_angle_gamma   60.00000000
_symmetry_Int_Tables_number   1
_chemical_formula_structural   Sr2CdPb
_chemical_formula_sum   'Sr2 Cd1 Pb1'
_cell_volume   134.96590048
_cell_formula_units_Z   1
loop_
 _symmetry_equiv_pos_site_id
 _symmetry_equiv_pos_as_xyz
  1  'x, y, z'
loop_
 _atom_site_type_symbol
 _atom_site_label
 _atom_site_symmetry_multiplicity
 _atom_site_fract_x
 _atom_site_fract_y
 _atom_site_fract_z
 _atom_site_occupancy
  Sr  Sr0  1  0.50000000  0.50000000  0.50000000  1
  Sr  Sr1  1  0.00000000  0.00000000  0.00000000  1
  Cd  Cd0  1  0.24999900  0.24999900  0.24999900  1
  Pb  Pb0  1  0.74999900  0.74999900  0.74999900  1
loop_
_geom_bond_atom_site_label_1
_geom_bond_atom_site_label_2
_geom_bond_distance
_geom_bond_site_symmetry_2
Cd0 Sr1 3.525821 1_555
Cd0 Sr0 3.525830 1_455
Cd0 Sr0 3.525830 1_545
Cd0 Sr0 3.525830 1_554
Cd0 Sr1 3.525840 1_655
Cd0 Sr1 3.525840 1_565
Cd0 Sr1 3.525840 1_556
Cd0 Sr0 3.525849 1_555
Pb0 Sr0 3.525821 1_555
Pb0 Sr1 3.525830 1_566
Pb0 Sr1 3.525830 1_656
Pb0 Sr1 3.525830 1_665
Pb0 Sr0 3.525840 1_565
Pb0 Sr0 3.525840 1_556
Pb0 Sr0 3.525840 1_655
Pb0 Sr1 3.525849 1_666
