# generated using pymatgen
data_AcTlAg2
_symmetry_space_group_name_H-M   'P 1'
_cell_length_a   5.25350209
_cell_length_b   5.25350209
_cell_length_c   5.25350209
_cell_angle_alpha   60.00000000
_cell_angle_beta   60.00000000
_cell_angle_gamma   60.00000000
_symmetry_Int_Tables_number   1
_chemical_formula_structural   AcTlAg2
_chemical_formula_sum   'Ac1 Tl1 Ag2'
_cell_volume   102.52546066
_cell_formula_units_Z   1
loop_
 _symmetry_equiv_pos_site_id
 _symmetry_equiv_pos_as_xyz
  1  'x, y, z'
loop_
 _atom_site_type_symbol
 _atom_site_label
 _atom_site_symmetry_multiplicity
 _atom_site_fract_x
 _atom_site_fract_y
 _atom_site_fract_z
 _atom_site_occupancy
  Ac  Ac0  1  0.25000100  0.25000100  0.25000100  1
  Tl  Tl0  1  0.75000000  0.75000000  0.75000000  1
  Ag  Ag0  1  0.00000000  -0.00000000  0.00000000  1
  Ag  Ag1  1  0.50000000  0.50000000  0.50000000  1
loop_
_geom_bond_atom_site_label_1
_geom_bond_atom_site_label_2
_geom_bond_distance
_geom_bond_site_symmetry_2
Ac0 Ag1 3.217087 1_555
Ac0 Ag0 3.217096 1_565
Ac0 Ag0 3.217096 1_655
Ac0 Ag0 3.217096 1_556
Ac0 Ag1 3.217104 1_545
Ac0 Ag1 3.217104 1_455
Ac0 Ag1 3.217104 1_554
Ac0 Ag0 3.217113 1_555
Ag0 Tl0 3.217100 1_454
Ag0 Tl0 3.217100 1_444
Ag0 Tl0 3.217100 1_445
Ag0 Tl0 3.217100 1_544
Ag1 Tl0 3.217100 1_554
Ag1 Tl0 3.217100 1_455
Ag1 Tl0 3.217100 1_555
Ag1 Tl0 3.217100 1_545
