# generated using pymatgen
data_BP4(SBr)3
_symmetry_space_group_name_H-M   'P 1'
_cell_length_a   11.13340200
_cell_length_b   6.73269500
_cell_length_c   9.04422739
_cell_angle_alpha   70.55838525
_cell_angle_beta   90.00000000
_cell_angle_gamma   90.00000000
_symmetry_Int_Tables_number   1
_chemical_formula_structural   BP4(SBr)3
_chemical_formula_sum   'B2 P8 S6 Br6'
_cell_volume   639.28029560
_cell_formula_units_Z   2
loop_
 _symmetry_equiv_pos_site_id
 _symmetry_equiv_pos_as_xyz
  1  'x, y, z'
loop_
 _atom_site_type_symbol
 _atom_site_label
 _atom_site_symmetry_multiplicity
 _atom_site_fract_x
 _atom_site_fract_y
 _atom_site_fract_z
 _atom_site_occupancy
  B  B0  1  0.75000000  0.67825800  0.72113600  1
  B  B1  1  0.25000000  0.32174200  0.27886400  1
  P  P0  1  0.35235000  0.05730700  0.86045400  1
  P  P1  1  0.85235000  0.94269300  0.13954600  1
  P  P2  1  0.64765000  0.94269300  0.13954600  1
  P  P3  1  0.14765000  0.05730700  0.86045400  1
  P  P4  1  0.75000000  0.74687900  0.48634600  1
  P  P5  1  0.25000000  0.25312100  0.51365400  1
  P  P6  1  0.75000000  0.63846200  0.17095000  1
  P  P7  1  0.25000000  0.36153800  0.82905000  1
  S  S0  1  0.75000000  0.48216900  0.41485200  1
  S  S1  1  0.25000000  0.51783100  0.58514800  1
  S  S2  1  0.39800300  0.07809700  0.62984600  1
  S  S3  1  0.89800300  0.92190300  0.37015400  1
  S  S4  1  0.60199700  0.92190300  0.37015400  1
  S  S5  1  0.10199700  0.07809700  0.62984600  1
  Br  Br0  1  0.75000000  0.95815000  0.75931600  1
  Br  Br1  1  0.25000000  0.04185000  0.24068400  1
  Br  Br2  1  0.40064000  0.48617800  0.20216100  1
  Br  Br3  1  0.90064000  0.51382200  0.79783900  1
  Br  Br4  1  0.59936000  0.51382200  0.79783900  1
  Br  Br5  1  0.09936000  0.48617800  0.20216100  1
loop_
_geom_bond_atom_site_label_1
_geom_bond_atom_site_label_2
_geom_bond_distance
_geom_bond_site_symmetry_2
B0 Br4 2.002107 1_555
B0 Br3 2.002107 1_555
B0 P4 2.017322 1_555
B0 Br0 2.025704 1_555
B1 Br5 2.002107 1_555
B1 Br2 2.002107 1_555
B1 P5 2.017322 1_555
B1 Br1 2.025704 1_555
P0 S2 2.105616 1_555
P1 S3 2.105616 1_555
P2 S4 2.105616 1_555
P3 S5 2.105616 1_555
P4 S0 2.088425 1_555
P4 S4 2.093737 1_555
P4 S3 2.093737 1_555
P5 S1 2.088425 1_555
P5 S2 2.093737 1_555
P5 S5 2.093737 1_555
P6 S0 2.104301 1_555
P7 S1 2.104301 1_555
