# generated using pymatgen
data_K3Mo4(P2O11)2
_symmetry_space_group_name_H-M   'P 1'
_cell_length_a   10.01609700
_cell_length_b   9.86031500
_cell_length_c   12.55789724
_cell_angle_alpha   51.37040020
_cell_angle_beta   90.00000000
_cell_angle_gamma   90.00000000
_symmetry_Int_Tables_number   1
_chemical_formula_structural   K3Mo4(P2O11)2
_chemical_formula_sum   'K6 Mo8 P8 O44'
_cell_volume   968.87420551
_cell_formula_units_Z   2
loop_
 _symmetry_equiv_pos_site_id
 _symmetry_equiv_pos_as_xyz
  1  'x, y, z'
loop_
 _atom_site_type_symbol
 _atom_site_label
 _atom_site_symmetry_multiplicity
 _atom_site_fract_x
 _atom_site_fract_y
 _atom_site_fract_z
 _atom_site_occupancy
  K  K0  1  0.00000000  0.50000000  0.00000000  1
  K  K1  1  0.50000000  0.50000000  0.50000000  1
  K  K2  1  0.34657500  0.31414700  0.15669200  1
  K  K3  1  0.84657500  0.68585300  0.34330800  1
  K  K4  1  0.65342500  0.68585300  0.84330800  1
  K  K5  1  0.15342500  0.31414700  0.65669200  1
  Mo  Mo0  1  0.03439500  0.01657500  0.39141700  1
  Mo  Mo1  1  0.53439500  0.98342500  0.10858300  1
  Mo  Mo2  1  0.96560500  0.98342500  0.60858300  1
  Mo  Mo3  1  0.46560500  0.01657500  0.89141700  1
  Mo  Mo4  1  0.20022100  0.75380400  0.16608600  1
  Mo  Mo5  1  0.70022100  0.24619600  0.33391400  1
  Mo  Mo6  1  0.79977900  0.24619600  0.83391400  1
  Mo  Mo7  1  0.29977900  0.75380400  0.66608600  1
  P  P0  1  0.30937300  0.84870400  0.35975800  1
  P  P1  1  0.80937300  0.15129600  0.14024200  1
  P  P2  1  0.69062700  0.15129600  0.64024200  1
  P  P3  1  0.19062700  0.84870400  0.85975800  1
  P  P4  1  0.01224500  0.37004200  0.34246800  1
  P  P5  1  0.51224500  0.62995800  0.15753200  1
  P  P6  1  0.98775500  0.62995800  0.65753200  1
  P  P7  1  0.48775500  0.37004200  0.84246800  1
  O  O0  1  0.07405200  0.89502800  0.12469100  1
  O  O1  1  0.57405200  0.10497200  0.37530900  1
  O  O2  1  0.92594800  0.10497200  0.87530900  1
  O  O3  1  0.42594800  0.89502800  0.62469100  1
  O  O4  1  0.25532900  0.71748400  0.34056500  1
  O  O5  1  0.75532900  0.28251600  0.15943500  1
  O  O6  1  0.74467100  0.28251600  0.65943500  1
  O  O7  1  0.24467100  0.71748400  0.84056500  1
  O  O8  1  0.16135500  0.73531100  0.01416400  1
  O  O9  1  0.66135500  0.26468900  0.48583600  1
  O  O10  1  0.83864500  0.26468900  0.98583600  1
  O  O11  1  0.33864500  0.73531100  0.51416400  1
  O  O12  1  0.35437600  0.93499600  0.05743400  1
  O  O13  1  0.85437600  0.06500400  0.44256600  1
  O  O14  1  0.64562400  0.06500400  0.94256600  1
  O  O15  1  0.14562400  0.93499600  0.55743400  1
  O  O16  1  0.09321500  0.52783100  0.30114500  1
  O  O17  1  0.59321500  0.47216900  0.19885500  1
  O  O18  1  0.90678500  0.47216900  0.69885500  1
  O  O19  1  0.40678500  0.52783100  0.80114500  1
  O  O20  1  0.36969500  0.57759600  0.21332500  1
  O  O21  1  0.86969500  0.42240400  0.28667500  1
  O  O22  1  0.63030500  0.42240400  0.78667500  1
  O  O23  1  0.13030500  0.57759600  0.71332500  1
  O  O24  1  0.21132500  0.99713900  0.31330200  1
  O  O25  1  0.71132500  0.00286100  0.18669800  1
  O  O26  1  0.78867500  0.00286100  0.68669800  1
  O  O27  1  0.28867500  0.99713900  0.81330200  1
  O  O28  1  0.93976100  0.06891800  0.22365000  1
  O  O29  1  0.43976100  0.93108200  0.27635000  1
  O  O30  1  0.06023900  0.93108200  0.77635000  1
  O  O31  1  0.56023900  0.06891800  0.72365000  1
  O  O32  1  0.99209500  0.75853000  0.49679800  1
  O  O33  1  0.49209500  0.24147000  0.00320200  1
  O  O34  1  0.00790500  0.24147000  0.50320200  1
  O  O35  1  0.50790500  0.75853000  0.99679800  1
  O  O36  1  0.08120600  0.27495900  0.29184300  1
  O  O37  1  0.58120600  0.72504100  0.20815700  1
  O  O38  1  0.91879400  0.72504100  0.70815700  1
  O  O39  1  0.41879400  0.27495900  0.79184300  1
  O  O40  1  0.33102900  0.28078100  0.50663200  1
  O  O41  1  0.83102900  0.71921900  0.99336800  1
  O  O42  1  0.66897100  0.71921900  0.49336800  1
  O  O43  1  0.16897100  0.28078100  0.00663200  1
loop_
_geom_bond_atom_site_label_1
_geom_bond_atom_site_label_2
_geom_bond_distance
_geom_bond_site_symmetry_2
K0 O41 2.705339 1_454
K0 O43 2.705339 1_555
K0 O8 2.922734 1_555
K0 O10 2.922734 1_454
K0 O36 2.977133 1_555
K0 O38 2.977133 1_454
K0 O7 3.041753 1_554
K0 O5 3.041753 1_455
K1 O42 2.705339 1_555
K1 O40 2.705339 1_555
K1 O11 2.922734 1_555
K1 O9 2.922734 1_555
K1 O39 2.977133 1_555
K1 O37 2.977133 1_555
K1 O6 3.041753 1_555
K1 O4 3.041753 1_555
K2 O43 2.756431 1_555
K2 O24 2.792508 1_545
K2 O33 2.842166 1_555
K2 O36 3.045615 1_555
K2 O20 3.100659 1_555
K2 O17 3.137032 1_555
K2 O1 3.148404 1_555
K2 O29 3.210825 1_545
K3 O42 2.756431 1_555
K3 O25 2.792508 1_565
K3 O32 2.842166 1_555
K3 O37 3.045615 1_555
K3 O21 3.100659 1_555
K3 O16 3.137032 1_655
K3 O0 3.148404 1_655
K3 O28 3.210825 1_565
K4 O41 2.756431 1_555
K4 O26 2.792508 1_565
K4 O35 2.842166 1_555
K4 O38 3.045615 1_555
K4 O22 3.100659 1_555
K4 O19 3.137032 1_555
K4 O3 3.148404 1_555
K4 O31 3.210825 1_565
K5 O40 2.756431 1_555
K5 O27 2.792508 1_545
K5 O34 2.842166 1_555
K5 O39 3.045615 1_555
K5 O23 3.100659 1_555
K5 O18 3.137032 1_455
K5 O2 3.148404 1_455
K5 O30 3.210825 1_545
Mo0 O15 2.034907 1_545
Mo0 O32 2.049550 1_445
Mo0 O28 2.060532 1_455
Mo0 O13 2.067536 1_455
Mo0 O36 2.072863 1_555
Mo0 O24 2.091470 1_545
Mo1 O14 2.034907 1_564
Mo1 O33 2.049550 1_565
Mo1 O29 2.060532 1_555
Mo1 O12 2.067536 1_555
Mo1 O37 2.072863 1_555
Mo1 O25 2.091470 1_565
Mo2 O13 2.034907 1_565
Mo2 O34 2.049550 1_665
Mo2 O30 2.060532 1_655
Mo2 O15 2.067536 1_655
Mo2 O38 2.072863 1_555
Mo2 O26 2.091470 1_565
Mo3 O12 2.034907 1_546
Mo3 O35 2.049550 1_545
Mo3 O31 2.060532 1_555
Mo3 O14 2.067536 1_555
Mo3 O39 2.072863 1_555
Mo3 O27 2.091470 1_545
Mo4 O0 1.703674 1_555
Mo4 O4 2.062537 1_555
Mo4 O8 2.063718 1_555
Mo4 O16 2.066784 1_555
Mo4 O12 2.096198 1_555
Mo4 O20 2.228272 1_555
Mo5 O1 1.703674 1_555
Mo5 O5 2.062537 1_555
Mo5 O9 2.063718 1_555
Mo5 O17 2.066784 1_555
Mo5 O13 2.096198 1_555
Mo5 O21 2.228272 1_555
Mo6 O2 1.703674 1_555
Mo6 O6 2.062537 1_555
Mo6 O10 2.063718 1_555
Mo6 O18 2.066784 1_555
Mo6 O14 2.096198 1_555
Mo6 O22 2.228272 1_555
Mo7 O3 1.703674 1_555
Mo7 O7 2.062537 1_555
Mo7 O11 2.063718 1_555
Mo7 O19 2.066784 1_555
Mo7 O15 2.096198 1_555
Mo7 O23 2.228272 1_555
O4 P0 1.553892 1_555
O5 P1 1.553892 1_555
O6 P2 1.553892 1_555
O7 P3 1.553892 1_555
O8 P3 1.545633 1_554
O9 P2 1.545633 1_555
O10 P1 1.545633 1_556
O11 P0 1.545633 1_555
O16 P4 1.529581 1_555
O17 P5 1.529581 1_555
O18 P6 1.529581 1_555
O19 P7 1.529581 1_555
O20 P5 1.531145 1_555
O21 P4 1.531145 1_655
O22 P7 1.531145 1_555
O23 P6 1.531145 1_455
O24 P0 1.543002 1_555
O25 P1 1.543002 1_555
O26 P2 1.543002 1_555
O27 P3 1.543002 1_555
O28 P1 1.549257 1_555
O29 P0 1.549257 1_555
O30 P3 1.549257 1_555
O31 P2 1.549257 1_555
O32 P6 1.577451 1_555
O33 P7 1.577451 1_554
O34 P4 1.577451 1_555
O35 P5 1.577451 1_556
O36 P4 1.582548 1_555
O37 P5 1.582548 1_555
O38 P6 1.582548 1_555
O39 P7 1.582548 1_555
