# generated using pymatgen
data_LiCoO2
_symmetry_space_group_name_H-M   'P 1'
_cell_length_a   5.84841507
_cell_length_b   5.78492064
_cell_length_c   5.84794773
_cell_angle_alpha   120.32571587
_cell_angle_beta   89.55186719
_cell_angle_gamma   59.97640132
_symmetry_Int_Tables_number   1
_chemical_formula_structural   LiCoO2
_chemical_formula_sum   'Li4 Co4 O8'
_cell_volume   138.59356673
_cell_formula_units_Z   4
loop_
 _symmetry_equiv_pos_site_id
 _symmetry_equiv_pos_as_xyz
  1  'x, y, z'
loop_
 _atom_site_type_symbol
 _atom_site_label
 _atom_site_symmetry_multiplicity
 _atom_site_fract_x
 _atom_site_fract_y
 _atom_site_fract_z
 _atom_site_occupancy
  Li  Li0  1  0.50002100  0.00001400  0.99999200  1
  Li  Li1  1  0.50002000  0.49998200  0.49995700  1
  Li  Li2  1  0.00003600  0.99998300  0.99997400  1
  Li  Li3  1  0.50000700  0.50001000  0.99997600  1
  Co  Co0  1  0.00001200  0.49999300  0.99998500  1
  Co  Co1  1  0.00000900  0.49999500  0.49999000  1
  Co  Co2  1  0.50000600  0.99999600  0.49998400  1
  Co  Co3  1  0.00000800  0.00000100  0.49999000  1
  O  O0  1  0.76946300  0.98348300  0.25950200  1
  O  O1  1  0.75653500  0.51761800  0.24949800  1
  O  O2  1  0.22398200  0.51626100  0.24698000  1
  O  O3  1  0.76832500  0.98287100  0.72613500  1
  O  O4  1  0.23168400  0.01713100  0.27384200  1
  O  O5  1  0.77603500  0.48374500  0.75300100  1
  O  O6  1  0.24350200  0.48236500  0.75047600  1
  O  O7  1  0.23054800  0.01650500  0.74047700  1
loop_
_geom_bond_atom_site_label_1
_geom_bond_atom_site_label_2
_geom_bond_distance
_geom_bond_site_symmetry_2
Li0 O2 2.096231 1_556
Li0 O5 2.096311 1_545
Li0 O3 2.163669 1_545
Li0 O4 2.163878 1_556
Li0 O0 2.197406 1_546
Li0 O7 2.197546 1_555
Li1 O0 2.097350 1_545
Li1 O7 2.097433 1_565
Li1 O1 2.162402 1_555
Li1 O6 2.162577 1_555
Li1 O2 2.197642 1_555
Li1 O5 2.197816 1_555
Li2 O7 2.091144 1_565
Li2 O0 2.091421 1_456
Li2 O6 2.100356 1_555
Li2 O1 2.100415 1_466
Li2 O4 2.101965 1_566
Li2 O3 2.102091 1_455
Li3 O5 2.091695 1_555
Li3 O2 2.091850 1_556
Li3 O4 2.097948 1_566
Li3 O3 2.098011 1_545
Li3 O6 2.103997 1_555
Li3 O1 2.104172 1_556
Co0 O5 1.956159 1_455
Co0 O2 1.956178 1_556
Co0 O1 1.959363 1_456
Co0 O6 1.959387 1_555
Co0 O7 1.962581 1_555
Co0 O0 1.962589 1_456
Co1 O4 1.959986 1_555
Co1 O3 1.960036 1_455
Co1 O5 2.036473 1_455
Co1 O2 2.036533 1_555
Co1 O1 2.054746 1_455
Co1 O6 2.054798 1_555
Co2 O6 1.957463 1_565
Co2 O1 1.957504 1_555
Co2 O0 2.036996 1_555
Co2 O7 2.037058 1_565
Co2 O4 2.056816 1_565
Co2 O3 2.056839 1_555
Co3 O7 1.956460 1_555
Co3 O0 1.956488 1_445
Co3 O4 1.957898 1_555
Co3 O3 1.957914 1_445
Co3 O2 1.963751 1_545
Co3 O5 1.963768 1_455
