# generated using pymatgen
data_Mg(PtO2)3
_symmetry_space_group_name_H-M   'P 1'
_cell_length_a   3.19415951
_cell_length_b   6.10343674
_cell_length_c   6.10343689
_cell_angle_alpha   108.81234544
_cell_angle_beta   90.00000000
_cell_angle_gamma   90.00000000
_symmetry_Int_Tables_number   1
_chemical_formula_structural   Mg(PtO2)3
_chemical_formula_sum   'Mg1 Pt3 O6'
_cell_volume   112.63224451
_cell_formula_units_Z   1
loop_
 _symmetry_equiv_pos_site_id
 _symmetry_equiv_pos_as_xyz
  1  'x, y, z'
loop_
 _atom_site_type_symbol
 _atom_site_label
 _atom_site_symmetry_multiplicity
 _atom_site_fract_x
 _atom_site_fract_y
 _atom_site_fract_z
 _atom_site_occupancy
  Mg  Mg0  1  -0.00000000  0.50000000  0.50000000  1
  Pt  Pt0  1  0.50000000  0.50000000  -0.00000000  1
  Pt  Pt1  1  0.00000000  -0.00000000  -0.00000000  1
  Pt  Pt2  1  0.50000000  -0.00000000  0.50000000  1
  O  O0  1  0.00000000  0.91412690  0.65977322  1
  O  O1  1  0.00000000  0.08587310  0.34022678  1
  O  O2  1  0.00000000  0.65977322  0.91412690  1
  O  O3  1  0.00000000  0.34022678  0.08587310  1
  O  O4  1  0.50000000  0.35220263  0.64779737  1
  O  O5  1  0.50000000  0.64779737  0.35220263  1
loop_
_geom_bond_atom_site_label_1
_geom_bond_atom_site_label_2
_geom_bond_distance
_geom_bond_site_symmetry_2
Mg0 O4 2.168626 1_455
Mg0 O4 2.168626 1_555
Mg0 O5 2.168626 1_555
Mg0 O5 2.168626 1_455
Mg0 O0 2.397923 1_555
Mg0 O1 2.397923 1_555
Mg0 O3 2.397923 1_555
Mg0 O2 2.397923 1_555
O0 Pt1 1.971001 1_566
O0 Pt2 2.026314 1_565
O0 Pt2 2.026314 1_465
O1 Pt1 1.971001 1_555
O1 Pt2 2.026314 1_555
O1 Pt2 2.026314 1_455
O2 Pt1 1.971001 1_566
O2 Pt0 2.026314 1_556
O2 Pt0 2.026314 1_456
O3 Pt1 1.971001 1_555
O3 Pt0 2.026314 1_555
O3 Pt0 2.026314 1_455
O4 Pt2 2.045505 1_555
O4 Pt0 2.045505 1_556
O5 Pt2 2.045505 1_565
O5 Pt0 2.045505 1_555
