# generated using pymatgen
data_Pr10C4Br15
_symmetry_space_group_name_H-M   'P 1'
_cell_length_a   9.21909206
_cell_length_b   10.21502879
_cell_length_c   11.13760902
_cell_angle_alpha   70.31438896
_cell_angle_beta   66.26487453
_cell_angle_gamma   70.80357231
_symmetry_Int_Tables_number   1
_chemical_formula_structural   Pr10C4Br15
_chemical_formula_sum   'Pr10 C4 Br15'
_cell_volume   881.02393640
_cell_formula_units_Z   1
loop_
 _symmetry_equiv_pos_site_id
 _symmetry_equiv_pos_as_xyz
  1  'x, y, z'
loop_
 _atom_site_type_symbol
 _atom_site_label
 _atom_site_symmetry_multiplicity
 _atom_site_fract_x
 _atom_site_fract_y
 _atom_site_fract_z
 _atom_site_occupancy
  Pr  Pr0  1  0.33454073  0.75191283  0.83092429  1
  Pr  Pr1  1  0.66545927  0.24808717  0.16907571  1
  Pr  Pr2  1  0.17072656  0.42971506  0.04601069  1
  Pr  Pr3  1  0.82927344  0.57028494  0.95398931  1
  Pr  Pr4  1  0.07915048  0.17881086  0.88711272  1
  Pr  Pr5  1  0.92084952  0.82118914  0.11288728  1
  Pr  Pr6  1  0.24730272  0.53999833  0.64353614  1
  Pr  Pr7  1  0.75269728  0.46000167  0.35646386  1
  Pr  Pr8  1  0.02837607  0.10281416  0.26534347  1
  Pr  Pr9  1  0.97162393  0.89718584  0.73465653  1
  C  C0  1  0.87972991  0.35904157  0.17174047  1
  C  C1  1  0.12027009  0.64095843  0.82825953  1
  C  C2  1  0.95590426  0.29547277  0.06157460  1
  C  C3  1  0.04409574  0.70452723  0.93842540  1
  Br  Br0  1  0.50000000  0.50000000  0.00000000  1
  Br  Br1  1  0.13296950  0.81404558  0.46673402  1
  Br  Br2  1  0.86703050  0.18595442  0.53326598  1
  Br  Br3  1  0.25785602  0.02794668  0.64337724  1
  Br  Br4  1  0.74214398  0.97205332  0.35662276  1
  Br  Br5  1  0.33713174  0.16590453  0.22103309  1
  Br  Br6  1  0.66286826  0.83409547  0.77896691  1
  Br  Br7  1  0.45152722  0.36767044  0.41428819  1
  Br  Br8  1  0.54847278  0.63232956  0.58571181  1
  Br  Br9  1  0.94675029  0.44332076  0.70197205  1
  Br  Br10  1  0.05324971  0.55667924  0.29802795  1
  Br  Br11  1  0.23497490  0.90694083  0.06193875  1
  Br  Br12  1  0.76502510  0.09305917  0.93806125  1
  Br  Br13  1  0.38823171  0.27064483  0.81654840  1
  Br  Br14  1  0.61176829  0.72935517  0.18345160  1
loop_
_geom_bond_atom_site_label_1
_geom_bond_atom_site_label_2
_geom_bond_distance
_geom_bond_site_symmetry_2
C0 C2 1.401275 1_555
C0 Pr7 2.315926 1_555
C0 Pr1 2.594187 1_555
C0 Pr8 2.601619 1_655
C0 Pr2 2.692110 1_655
C0 Pr3 2.734367 1_554
C1 C3 1.401275 1_555
C1 Pr6 2.315926 1_555
C1 Pr0 2.594187 1_555
C1 Pr9 2.601619 1_455
C1 Pr3 2.692110 1_455
C1 Pr2 2.734367 1_556
C2 Pr4 2.319281 1_654
C2 Pr1 2.592031 1_555
C2 Pr8 2.610932 1_655
C2 Pr2 2.679956 1_655
C2 Pr3 2.717328 1_554
C3 Pr5 2.319281 1_456
C3 Pr0 2.592031 1_555
C3 Pr9 2.610932 1_455
C3 Pr3 2.679956 1_455
C3 Pr2 2.717328 1_556
Br0 Pr1 2.993508 1_555
Br0 Pr0 2.993508 1_554
Br0 Pr2 3.150562 1_555
Br0 Pr3 3.150562 1_554
Br1 Pr6 2.973524 1_555
Br1 Pr9 3.023515 1_455
Br1 Pr8 3.174137 1_565
Br2 Pr7 2.973524 1_555
Br2 Pr8 3.023515 1_655
Br2 Pr9 3.174137 1_545
Br3 Pr0 2.953549 1_545
Br3 Pr9 3.004063 1_445
Br3 Pr4 3.163371 1_555
Br4 Pr1 2.953549 1_565
Br4 Pr8 3.004063 1_665
Br4 Pr5 3.163371 1_555
Br5 Pr8 2.936390 1_555
Br5 Pr2 3.092745 1_555
Br5 Pr1 3.183602 1_555
Br6 Pr9 2.936390 1_555
Br6 Pr3 3.092745 1_555
Br6 Pr0 3.183602 1_555
Br7 Pr7 2.981065 1_555
Br7 Pr1 3.027858 1_555
Br7 Pr6 3.184566 1_555
Br8 Pr6 2.981065 1_555
Br8 Pr0 3.027858 1_555
Br8 Pr7 3.184566 1_555
Br9 Pr6 2.998505 1_655
Br9 Pr4 3.024265 1_655
Br9 Pr3 3.132922 1_555
Br10 Pr7 2.998505 1_455
Br10 Pr5 3.024265 1_455
Br10 Pr2 3.132922 1_555
Br11 Pr5 3.079977 1_455
Br11 Pr4 3.090750 1_564
Br11 Pr8 3.136478 1_565
Br11 Pr0 3.139810 1_554
Br12 Pr4 3.079977 1_655
Br12 Pr5 3.090750 1_546
Br12 Pr9 3.136478 1_545
Br12 Pr1 3.139810 1_556
Br13 Pr6 3.010683 1_555
Br13 Pr4 3.012535 1_555
Br13 Pr2 3.118047 1_556
Br14 Pr7 3.010683 1_555
Br14 Pr5 3.012535 1_555
Br14 Pr3 3.118047 1_554
