# generated using pymatgen
data_VCrO3
_symmetry_space_group_name_H-M   'P 1'
_cell_length_a   5.12699300
_cell_length_b   5.49904417
_cell_length_c   8.82791853
_cell_angle_alpha   105.45597249
_cell_angle_beta   89.97797843
_cell_angle_gamma   117.72080830
_symmetry_Int_Tables_number   1
_chemical_formula_structural   VCrO3
_chemical_formula_sum   'V4 Cr4 O12'
_cell_volume   210.11675665
_cell_formula_units_Z   4
loop_
 _symmetry_equiv_pos_site_id
 _symmetry_equiv_pos_as_xyz
  1  'x, y, z'
loop_
 _atom_site_type_symbol
 _atom_site_label
 _atom_site_symmetry_multiplicity
 _atom_site_fract_x
 _atom_site_fract_y
 _atom_site_fract_z
 _atom_site_occupancy
  V  V0  1  0.78011100  0.70483800  0.92421100  1
  V  V1  1  0.47679300  0.29764000  0.82531000  1
  V  V2  1  0.97312700  0.29882300  0.32438600  1
  V  V3  1  0.72183000  0.29576800  0.57543500  1
  Cr  Cr0  1  0.27198400  0.69784800  0.42498300  1
  Cr  Cr1  1  0.02374800  0.69813400  0.67473100  1
  Cr  Cr2  1  0.52503900  0.70019500  0.17493200  1
  Cr  Cr3  1  0.22804500  0.30348900  0.07511900  1
  O  O0  1  0.52389600  0.19596000  0.27678200  1
  O  O1  1  0.02472500  0.19793200  0.77692500  1
  O  O2  1  0.57109700  0.50149000  0.62496600  1
  O  O3  1  0.93277600  0.50165400  0.87464600  1
  O  O4  1  0.47746800  0.20040600  0.02653600  1
  O  O5  1  0.97418800  0.19616800  0.52753300  1
  O  O6  1  0.02477800  0.80211500  0.47295000  1
  O  O7  1  0.52546000  0.80060800  0.97521300  1
  O  O8  1  0.07602700  0.50293100  0.12395600  1
  O  O9  1  0.42628900  0.50041600  0.37447800  1
  O  O10  1  0.97400000  0.80379700  0.22371400  1
  O  O11  1  0.46862200  0.79978800  0.72319400  1
loop_
_geom_bond_atom_site_label_1
_geom_bond_atom_site_label_2
_geom_bond_distance
_geom_bond_site_symmetry_2
Cr0 O9 1.595045 1_555
Cr0 O6 1.631157 1_555
Cr0 V2 1.945694 1_455
Cr1 O6 2.009998 1_555
Cr1 O2 2.039863 1_455
Cr1 O11 2.094034 1_555
Cr1 O3 2.246424 1_455
Cr2 O7 1.982730 1_554
Cr2 O8 2.023904 1_555
Cr2 O10 2.111490 1_555
Cr2 O9 2.253826 1_555
Cr3 O8 1.593464 1_555
Cr3 O4 1.638585 1_555
O0 V2 2.112658 1_555
O1 V1 2.132768 1_555
O2 V3 1.617912 1_555
O2 V1 2.273809 1_555
O3 V0 1.614082 1_555
O3 V1 2.052814 1_555
O4 V1 1.987338 1_554
O5 V3 1.639579 1_555
O5 V2 2.019233 1_555
O7 V0 1.642403 1_555
O8 V2 2.275019 1_455
O9 V2 2.041034 1_455
O10 V2 2.630958 1_565
O11 V1 2.624381 1_565
