# generated using pymatgen
data_CuH6BrN2
_symmetry_space_group_name_H-M   'P 1'
_cell_length_a   7.24993794
_cell_length_b   7.24993794
_cell_length_c   5.80565712
_cell_angle_alpha   78.93965668
_cell_angle_beta   78.93965668
_cell_angle_gamma   125.17316693
_symmetry_Int_Tables_number   1
_chemical_formula_structural   CuH6BrN2
_chemical_formula_sum   'Cu2 H12 Br2 N4'
_cell_volume   226.75231230
_cell_formula_units_Z   2
loop_
 _symmetry_equiv_pos_site_id
 _symmetry_equiv_pos_as_xyz
  1  'x, y, z'
loop_
 _atom_site_type_symbol
 _atom_site_label
 _atom_site_symmetry_multiplicity
 _atom_site_fract_x
 _atom_site_fract_y
 _atom_site_fract_z
 _atom_site_occupancy
  Cu  Cu0  1  0.00000000  0.00000000  0.50000000  1
  Cu  Cu1  1  0.00000000  0.00000000  0.00000000  1
  H  H0  1  0.58881500  0.81995800  0.28708300  1
  H  H1  1  0.18004200  0.41118500  0.21291700  1
  H  H2  1  0.59826400  0.85491100  0.99171500  1
  H  H3  1  0.14508900  0.40173600  0.50828500  1
  H  H4  1  0.91101600  0.28832200  0.41247300  1
  H  H5  1  0.71167800  0.08898400  0.08752700  1
  H  H6  1  0.28832200  0.91101600  0.91247300  1
  H  H7  1  0.08898400  0.71167800  0.58752700  1
  H  H8  1  0.85491100  0.59826400  0.49171500  1
  H  H9  1  0.40173600  0.14508900  0.00828500  1
  H  H10  1  0.81995800  0.58881500  0.78708300  1
  H  H11  1  0.41118500  0.18004200  0.71291700  1
  Br  Br0  1  0.36336000  0.63664000  0.75000000  1
  Br  Br1  1  0.63664000  0.36336000  0.25000000  1
  N  N0  1  0.69516500  0.93616000  0.09986700  1
  N  N1  1  0.06384000  0.30483500  0.40013300  1
  N  N2  1  0.93616000  0.69516400  0.59986700  1
  N  N3  1  0.30483500  0.06384000  0.90013300  1
loop_
_geom_bond_atom_site_label_1
_geom_bond_atom_site_label_2
_geom_bond_distance
_geom_bond_site_symmetry_2
Cu0 N1 1.913522 1_555
Cu0 N2 1.913529 1_445
Cu1 N0 1.913522 1_445
Cu1 N3 1.913522 1_554
H0 N0 1.031681 1_555
H1 N1 1.031681 1_555
H2 N0 1.034005 1_556
H3 N1 1.034005 1_555
H4 N1 1.029799 1_655
H5 N0 1.029799 1_545
H6 N3 1.029799 1_565
H7 N2 1.029795 1_455
H8 N2 1.034002 1_555
H9 N3 1.034005 1_554
H10 N2 1.031680 1_555
H11 N3 1.031681 1_555
