# generated using pymatgen
data_Zn3Ir
_symmetry_space_group_name_H-M   'P 1'
_cell_length_a   4.78488413
_cell_length_b   4.78488413
_cell_length_c   4.78488413
_cell_angle_alpha   134.67247435
_cell_angle_beta   134.67247435
_cell_angle_gamma   66.03952854
_symmetry_Int_Tables_number   1
_chemical_formula_structural   Zn3Ir
_chemical_formula_sum   'Zn3 Ir1'
_cell_volume   54.55280445
_cell_formula_units_Z   1
loop_
 _symmetry_equiv_pos_site_id
 _symmetry_equiv_pos_as_xyz
  1  'x, y, z'
loop_
 _atom_site_type_symbol
 _atom_site_label
 _atom_site_symmetry_multiplicity
 _atom_site_fract_x
 _atom_site_fract_y
 _atom_site_fract_z
 _atom_site_occupancy
  Zn  Zn0  1  0.74999900  0.25000000  0.49999900  1
  Zn  Zn1  1  0.25000000  0.74999900  0.49999900  1
  Zn  Zn2  1  0.50000000  0.50000000  -0.00000000  1
  Ir  Ir0  1  -0.00000000  -0.00000000  -0.00000000  1
loop_
_geom_bond_atom_site_label_1
_geom_bond_atom_site_label_2
_geom_bond_distance
_geom_bond_site_symmetry_2
Zn0 Zn1 2.607414 1_555
Zn0 Zn1 2.607419 1_544
Zn0 Zn1 2.607419 1_656
Zn0 Zn1 2.607424 1_645
Zn0 Zn2 2.724596 1_555
Zn0 Zn2 2.724599 1_556
Zn0 Zn2 2.724599 1_545
Zn0 Zn2 2.724601 1_656
Zn1 Zn2 2.724596 1_555
Zn1 Zn2 2.724599 1_455
Zn1 Zn2 2.724599 1_556
Zn1 Zn2 2.724601 1_566
Ir0 Zn2 2.607419 1_444
Ir0 Zn2 2.607419 1_455
Ir0 Zn2 2.607419 1_545
Ir0 Zn2 2.607419 1_556
Ir0 Zn0 2.724596 1_555
Ir0 Zn1 2.724596 1_555
Ir0 Zn1 2.724599 1_444
Ir0 Zn0 2.724599 1_455
Ir0 Zn0 2.724599 1_444
Ir0 Zn1 2.724599 1_545
Ir0 Zn0 2.724601 1_454
Ir0 Zn1 2.724601 1_544
