# generated using pymatgen
data_Li2FeF4
_symmetry_space_group_name_H-M   'P 1'
_cell_length_a   5.88170838
_cell_length_b   5.88170838
_cell_length_c   8.17951558
_cell_angle_alpha   90.00000000
_cell_angle_beta   90.00000000
_cell_angle_gamma   90.00000000
_symmetry_Int_Tables_number   1
_chemical_formula_structural   Li2FeF4
_chemical_formula_sum   'Li8 Fe4 F16'
_cell_volume   282.96619830
_cell_formula_units_Z   4
loop_
 _symmetry_equiv_pos_site_id
 _symmetry_equiv_pos_as_xyz
  1  'x, y, z'
loop_
 _atom_site_type_symbol
 _atom_site_label
 _atom_site_symmetry_multiplicity
 _atom_site_fract_x
 _atom_site_fract_y
 _atom_site_fract_z
 _atom_site_occupancy
  Li  Li0  1  0.27404990  0.27404990  0.37500000  1
  Li  Li1  1  0.27404990  0.72595010  0.12500000  1
  Li  Li2  1  0.25559645  0.50000000  0.75000000  1
  Li  Li3  1  0.50000000  0.25559645  -0.00000000  1
  Li  Li4  1  0.50000000  0.74440355  0.50000000  1
  Li  Li5  1  0.74440355  0.50000000  0.25000000  1
  Li  Li6  1  0.72595010  0.27404990  0.62500000  1
  Li  Li7  1  0.72595010  0.72595010  0.87500000  1
  Fe  Fe0  1  -0.00000000  0.23019716  -0.00000000  1
  Fe  Fe1  1  -0.00000000  0.76980284  0.50000000  1
  Fe  Fe2  1  0.23019716  0.00000000  0.75000000  1
  Fe  Fe3  1  0.76980284  0.00000000  0.25000000  1
  F  F0  1  0.99920593  0.25827657  0.74190282  1
  F  F1  1  0.99920593  0.74172343  0.75809718  1
  F  F2  1  0.25827657  0.99920593  0.00809718  1
  F  F3  1  0.25827657  0.00079407  0.49190282  1
  F  F4  1  0.24908377  0.46813956  0.99346163  1
  F  F5  1  0.24908377  0.53186044  0.50653837  1
  F  F6  1  0.46813956  0.24908377  0.75653837  1
  F  F7  1  0.46813956  0.75091623  0.74346163  1
  F  F8  1  0.53186044  0.24908377  0.24346163  1
  F  F9  1  0.53186044  0.75091623  0.25653837  1
  F  F10  1  0.75091623  0.53186044  0.49346163  1
  F  F11  1  0.75091623  0.46813956  0.00653837  1
  F  F12  1  0.74172343  0.00079407  0.50809718  1
  F  F13  1  0.74172343  0.99920593  0.99190282  1
  F  F14  1  0.00079407  0.25827657  0.25809718  1
  F  F15  1  0.00079407  0.74172343  0.24190282  1
loop_
_geom_bond_atom_site_label_1
_geom_bond_atom_site_label_2
_geom_bond_distance
_geom_bond_site_symmetry_2
F0 Li6 1.872450 1_555
F0 Fe2 2.039100 1_655
F0 Li2 2.073610 1_655
F0 Fe0 2.117565 1_656
F1 Li7 1.872450 1_555
F1 Fe2 2.039100 1_665
F1 Li2 2.073610 1_655
F1 Fe1 2.117565 1_655
F2 Li1 1.872450 1_555
F2 Fe0 2.039100 1_565
F2 Li3 2.073610 1_565
F2 Fe2 2.117565 1_564
F3 Li0 1.872450 1_555
F3 Fe1 2.039100 1_545
F3 Li4 2.073610 1_545
F3 Fe2 2.117565 1_555
F4 Li1 1.865083 1_556
F4 Li3 1.934860 1_556
F4 Li2 2.000563 1_555
F4 Fe0 2.026775 1_556
F5 Li0 1.865083 1_555
F5 Li4 1.934860 1_555
F5 Li2 2.000563 1_555
F5 Fe1 2.026775 1_555
F6 Li6 1.865083 1_555
F6 Li2 1.934860 1_555
F6 Li3 2.000563 1_556
F6 Fe2 2.026775 1_555
F7 Li7 1.865083 1_555
F7 Li2 1.934860 1_555
F7 Li4 2.000563 1_555
F7 Fe2 2.026775 1_565
F8 Li0 1.865083 1_555
F8 Li5 1.934860 1_555
F8 Li3 2.000563 1_555
F8 Fe3 2.026775 1_555
F9 Li1 1.865083 1_555
F9 Li5 1.934860 1_555
F9 Li4 2.000563 1_555
F9 Fe3 2.026775 1_565
F10 Li6 1.865083 1_555
F10 Li4 1.934860 1_555
F10 Li5 2.000563 1_555
F10 Fe1 2.026775 1_655
F11 Li7 1.865083 1_554
F11 Li3 1.934860 1_555
F11 Li5 2.000563 1_555
F11 Fe0 2.026775 1_655
F12 Li6 1.872450 1_555
F12 Fe1 2.039100 1_645
F12 Li4 2.073610 1_545
F12 Fe3 2.117565 1_555
F13 Li7 1.872450 1_555
F13 Fe0 2.039100 1_666
F13 Li3 2.073610 1_566
F13 Fe3 2.117565 1_566
F14 Li0 1.872450 1_555
F14 Fe3 2.039100 1_455
F14 Li5 2.073610 1_455
F14 Fe0 2.117565 1_555
F15 Li1 1.872450 1_555
F15 Fe3 2.039100 1_465
F15 Li5 2.073610 1_455
F15 Fe1 2.117565 1_555
