# generated using pymatgen
data_Li2Mn(Si2O5)2
_symmetry_space_group_name_H-M   'P 1'
_cell_length_a   7.18232900
_cell_length_b   9.58297500
_cell_length_c   14.37852500
_cell_angle_alpha   90.00000000
_cell_angle_beta   90.00000000
_cell_angle_gamma   90.00000000
_symmetry_Int_Tables_number   1
_chemical_formula_structural   Li2Mn(Si2O5)2
_chemical_formula_sum   'Li8 Mn4 Si16 O40'
_cell_volume   989.64625818
_cell_formula_units_Z   4
loop_
 _symmetry_equiv_pos_site_id
 _symmetry_equiv_pos_as_xyz
  1  'x, y, z'
loop_
 _atom_site_type_symbol
 _atom_site_label
 _atom_site_symmetry_multiplicity
 _atom_site_fract_x
 _atom_site_fract_y
 _atom_site_fract_z
 _atom_site_occupancy
  Li  Li0  1  0.68362400  0.09000800  0.82964100  1
  Li  Li1  1  0.07275500  0.15505500  0.53427200  1
  Li  Li2  1  0.57275500  0.34494500  0.46572800  1
  Li  Li3  1  0.18362400  0.40999200  0.17035900  1
  Li  Li4  1  0.31637600  0.59000800  0.67035900  1
  Li  Li5  1  0.92724500  0.65505500  0.96572800  1
  Li  Li6  1  0.42724500  0.84494500  0.03427200  1
  Li  Li7  1  0.81637600  0.90999200  0.32964100  1
  Mn  Mn0  1  0.01071000  0.19872800  0.34392800  1
  Mn  Mn1  1  0.51071000  0.30127200  0.65607200  1
  Mn  Mn2  1  0.98929000  0.69872800  0.15607200  1
  Mn  Mn3  1  0.48929000  0.80127200  0.84392800  1
  Si  Si0  1  0.46404300  0.02703400  0.56301900  1
  Si  Si1  1  0.24043800  0.06459200  0.89569200  1
  Si  Si2  1  0.31731500  0.09496500  0.21274500  1
  Si  Si3  1  0.73774300  0.12956600  0.17467500  1
  Si  Si4  1  0.23774300  0.37043400  0.82532500  1
  Si  Si5  1  0.81731500  0.40503500  0.78725500  1
  Si  Si6  1  0.74043800  0.43540800  0.10430800  1
  Si  Si7  1  0.96404300  0.47296600  0.43698100  1
  Si  Si8  1  0.53595700  0.52703400  0.93698100  1
  Si  Si9  1  0.75956200  0.56459200  0.60430800  1
  Si  Si10  1  0.68268500  0.59496500  0.28725500  1
  Si  Si11  1  0.26225700  0.62956600  0.32532500  1
  Si  Si12  1  0.76225700  0.87043400  0.67467500  1
  Si  Si13  1  0.18268500  0.90503500  0.71274500  1
  Si  Si14  1  0.25956200  0.93540800  0.39569200  1
  Si  Si15  1  0.03595700  0.97296600  0.06301900  1
  O  O0  1  0.12947000  0.99215400  0.80752200  1
  O  O1  1  0.19989000  0.98583800  0.14452400  1
  O  O2  1  0.08373700  0.02804300  0.42820500  1
  O  O3  1  0.82938600  0.01178000  0.10459300  1
  O  O4  1  0.08436900  0.08320200  0.97896700  1
  O  O5  1  0.51222900  0.12461600  0.15715700  1
  O  O6  1  0.79449100  0.09681600  0.28070500  1
  O  O7  1  0.46004600  0.18950700  0.53320500  1
  O  O8  1  0.31388500  0.21785900  0.86078300  1
  O  O9  1  0.20155600  0.23489500  0.23650700  1
  O  O10  1  0.70155600  0.26510500  0.76349300  1
  O  O11  1  0.81388500  0.28214100  0.13921700  1
  O  O12  1  0.96004600  0.31049300  0.46679500  1
  O  O13  1  0.29449100  0.40318400  0.71929500  1
  O  O14  1  0.01222900  0.37538400  0.84284300  1
  O  O15  1  0.58436900  0.41679800  0.02103300  1
  O  O16  1  0.32938600  0.48822000  0.89540700  1
  O  O17  1  0.58373700  0.47195700  0.57179500  1
  O  O18  1  0.69989000  0.51416200  0.85547600  1
  O  O19  1  0.62947000  0.50784600  0.19247800  1
  O  O20  1  0.87053000  0.49215400  0.69247800  1
  O  O21  1  0.80011000  0.48583800  0.35547600  1
  O  O22  1  0.91626300  0.52804300  0.07179500  1
  O  O23  1  0.17061400  0.51178000  0.39540700  1
  O  O24  1  0.91563100  0.58320200  0.52103300  1
  O  O25  1  0.48777100  0.62461600  0.34284300  1
  O  O26  1  0.20550900  0.59681600  0.21929500  1
  O  O27  1  0.53995400  0.68950700  0.96679500  1
  O  O28  1  0.68611500  0.71785900  0.63921700  1
  O  O29  1  0.79844400  0.73489500  0.26349300  1
  O  O30  1  0.29844400  0.76510500  0.73650700  1
  O  O31  1  0.18611500  0.78214100  0.36078300  1
  O  O32  1  0.03995400  0.81049300  0.03320500  1
  O  O33  1  0.70550900  0.90318400  0.78070500  1
  O  O34  1  0.98777100  0.87538400  0.65715700  1
  O  O35  1  0.41563100  0.91679800  0.47896700  1
  O  O36  1  0.67061400  0.98822000  0.60459300  1
  O  O37  1  0.41626300  0.97195700  0.92820500  1
  O  O38  1  0.30011000  0.01416200  0.64452400  1
  O  O39  1  0.37053000  0.00784600  0.30752200  1
loop_
_geom_bond_atom_site_label_1
_geom_bond_atom_site_label_2
_geom_bond_distance
_geom_bond_site_symmetry_2
Li0 O33 1.930046 1_545
Li0 O10 1.933059 1_555
Li1 O2 1.952837 1_555
Li1 O12 1.953311 1_455
Li2 O17 1.952837 1_555
Li2 O7 1.953311 1_555
Li3 O26 1.930046 1_555
Li3 O9 1.933059 1_555
Li4 O13 1.930046 1_555
Li4 O30 1.933059 1_555
Li5 O22 1.952837 1_556
Li5 O32 1.953311 1_656
Li6 O37 1.952837 1_554
Li6 O27 1.953311 1_554
Li7 O6 1.930046 1_565
Li7 O29 1.933059 1_555
Mn0 O6 2.047398 1_455
Mn0 O9 2.093954 1_555
Mn0 O12 2.097756 1_455
Mn0 O2 2.102125 1_555
Mn1 O13 2.047398 1_555
Mn1 O10 2.093954 1_555
Mn1 O7 2.097756 1_555
Mn1 O17 2.102125 1_555
Mn2 O26 2.047398 1_655
Mn2 O29 2.093954 1_555
Mn2 O32 2.097756 1_655
Mn2 O22 2.102125 1_555
Mn3 O33 2.047398 1_555
Mn3 O30 2.093954 1_555
Mn3 O27 2.097756 1_555
Mn3 O37 2.102125 1_555
O0 Si13 1.643219 1_555
O0 Si1 1.650545 1_565
O1 Si2 1.663464 1_565
O1 Si15 1.665814 1_555
O2 Si14 1.612866 1_545
O3 Si15 1.642234 1_645
O3 Si3 1.650062 1_555
O4 Si15 1.642388 1_546
O4 Si1 1.649851 1_555
O5 Si2 1.636887 1_555
O5 Si3 1.639870 1_555
O6 Si3 1.609002 1_555
O7 Si0 1.615166 1_555
O8 Si1 1.639347 1_555
O8 Si4 1.642196 1_555
O9 Si2 1.614350 1_555
O10 Si5 1.614350 1_555
O11 Si6 1.639347 1_555
O11 Si3 1.642196 1_555
O12 Si7 1.615166 1_555
O13 Si4 1.609002 1_555
O14 Si5 1.636887 1_455
O14 Si4 1.639870 1_555
O15 Si8 1.642388 1_554
O15 Si6 1.649851 1_555
O16 Si8 1.642234 1_555
O16 Si4 1.650062 1_555
O17 Si9 1.612866 1_555
O18 Si5 1.663464 1_555
O18 Si8 1.665814 1_555
O19 Si10 1.643219 1_555
O19 Si6 1.650545 1_555
O20 Si5 1.643219 1_555
O20 Si9 1.650545 1_555
O21 Si10 1.663464 1_555
O21 Si7 1.665814 1_555
O22 Si6 1.612866 1_555
O23 Si7 1.642234 1_455
O23 Si11 1.650062 1_555
O24 Si7 1.642388 1_555
O24 Si9 1.649851 1_555
O25 Si10 1.636887 1_555
O25 Si11 1.639870 1_555
O26 Si11 1.609002 1_555
O27 Si8 1.615166 1_555
O28 Si9 1.639347 1_555
O28 Si12 1.642196 1_555
O29 Si10 1.614350 1_555
O30 Si13 1.614350 1_555
O31 Si14 1.639347 1_555
O31 Si11 1.642196 1_555
O32 Si15 1.615166 1_555
O33 Si12 1.609002 1_555
O34 Si13 1.636887 1_655
O34 Si12 1.639870 1_555
O35 Si0 1.642388 1_565
O35 Si14 1.649851 1_555
O36 Si0 1.642234 1_565
O36 Si12 1.650062 1_555
O37 Si1 1.612866 1_565
O38 Si13 1.663464 1_545
O38 Si0 1.665814 1_555
O39 Si2 1.643219 1_555
O39 Si14 1.650545 1_545
