# generated using pymatgen
data_Na5InO4
_symmetry_space_group_name_H-M   'P 1'
_cell_length_a   5.44417776
_cell_length_b   7.35578362
_cell_length_c   7.55698058
_cell_angle_alpha   90.00000000
_cell_angle_beta   90.00000000
_cell_angle_gamma   90.00000000
_symmetry_Int_Tables_number   1
_chemical_formula_structural   Na5InO4
_chemical_formula_sum   'Na10 In2 O8'
_cell_volume   302.62830727
_cell_formula_units_Z   2
loop_
 _symmetry_equiv_pos_site_id
 _symmetry_equiv_pos_as_xyz
  1  'x, y, z'
loop_
 _atom_site_type_symbol
 _atom_site_label
 _atom_site_symmetry_multiplicity
 _atom_site_fract_x
 _atom_site_fract_y
 _atom_site_fract_z
 _atom_site_occupancy
  Na  Na0  1  0.25561396  0.74042155  0.69467016  1
  Na  Na1  1  0.74438604  0.24042155  0.80532984  1
  Na  Na2  1  0.80355799  -0.00000000  0.50000000  1
  Na  Na3  1  0.19644201  0.50000000  0.00000000  1
  Na  Na4  1  0.25561396  0.25957845  0.69467016  1
  Na  Na5  1  0.25561396  0.74042155  0.30532984  1
  Na  Na6  1  0.74438604  0.75957845  0.80532984  1
  Na  Na7  1  0.74438604  0.24042155  0.19467016  1
  Na  Na8  1  0.74438604  0.75957845  0.19467016  1
  Na  Na9  1  0.25561396  0.25957845  0.30532984  1
  In  In0  1  0.22097851  -0.00000000  0.00000000  1
  In  In1  1  0.77902149  0.50000000  0.50000000  1
  O  O0  1  0.01684127  -0.00000000  0.23427893  1
  O  O1  1  0.01684127  -0.00000000  0.76572107  1
  O  O2  1  0.42238252  0.76105002  0.00000000  1
  O  O3  1  0.42238252  0.23894998  0.00000000  1
  O  O4  1  0.57761748  0.26105002  0.50000000  1
  O  O5  1  0.57761748  0.73894998  0.50000000  1
  O  O6  1  0.98315873  0.50000000  0.26572107  1
  O  O7  1  0.98315873  0.50000000  0.73427893  1
loop_
_geom_bond_atom_site_label_1
_geom_bond_atom_site_label_2
_geom_bond_distance
_geom_bond_site_symmetry_2
Na0 O5 2.288552 1_555
Na0 O7 2.327512 1_455
Na0 O1 2.371478 1_565
Na0 O2 2.484211 1_556
Na1 O3 2.288552 1_556
Na1 O1 2.327512 1_655
Na1 O7 2.371478 1_555
Na1 O4 2.484211 1_555
Na2 O5 2.280421 1_545
Na2 O4 2.280421 1_555
Na2 O0 2.319598 1_655
Na2 O1 2.319598 1_655
Na3 O3 2.280421 1_555
Na3 O2 2.280421 1_555
Na3 O7 2.319598 1_454
Na3 O6 2.319598 1_455
Na4 O4 2.288552 1_555
Na4 O7 2.327512 1_455
Na4 O1 2.371478 1_555
Na4 O3 2.484211 1_556
Na5 O5 2.288552 1_555
Na5 O6 2.327512 1_455
Na5 O0 2.371478 1_565
Na5 O2 2.484211 1_555
Na6 O2 2.288552 1_556
Na6 O1 2.327512 1_665
Na6 O7 2.371478 1_555
Na6 O5 2.484211 1_555
Na7 O3 2.288552 1_555
Na7 O0 2.327512 1_655
Na7 O6 2.371478 1_555
Na7 O4 2.484211 1_555
Na8 O2 2.288552 1_555
Na8 O0 2.327512 1_665
Na8 O6 2.371478 1_555
Na8 O5 2.484211 1_555
Na9 O4 2.288552 1_555
Na9 O6 2.327512 1_455
Na9 O0 2.371478 1_555
Na9 O3 2.484211 1_555
In0 O2 2.071630 1_545
In0 O3 2.071630 1_555
In0 O1 2.090355 1_554
In0 O0 2.090355 1_555
In1 O5 2.071630 1_555
In1 O4 2.071630 1_555
In1 O6 2.090355 1_555
In1 O7 2.090355 1_555
