# generated using pymatgen
data_LiFeSiO4
_symmetry_space_group_name_H-M   'P 1'
_cell_length_a   5.01936500
_cell_length_b   6.07637700
_cell_length_c   11.30198900
_cell_angle_alpha   90.00000000
_cell_angle_beta   90.00000000
_cell_angle_gamma   90.00000000
_symmetry_Int_Tables_number   1
_chemical_formula_structural   LiFeSiO4
_chemical_formula_sum   'Li4 Fe4 Si4 O16'
_cell_volume   344.70562427
_cell_formula_units_Z   4
loop_
 _symmetry_equiv_pos_site_id
 _symmetry_equiv_pos_as_xyz
  1  'x, y, z'
loop_
 _atom_site_type_symbol
 _atom_site_label
 _atom_site_symmetry_multiplicity
 _atom_site_fract_x
 _atom_site_fract_y
 _atom_site_fract_z
 _atom_site_occupancy
  Li  Li0  1  0.24301900  0.01003200  0.17263100  1
  Li  Li1  1  0.74301900  0.51003200  0.32736900  1
  Li  Li2  1  0.24301900  0.48996800  0.67263100  1
  Li  Li3  1  0.74301900  0.98996800  0.82736900  1
  Fe  Fe0  1  0.74458900  0.25996100  0.07797300  1
  Fe  Fe1  1  0.24458900  0.75996100  0.42202700  1
  Fe  Fe2  1  0.74458900  0.24003900  0.57797300  1
  Fe  Fe3  1  0.24458900  0.74003900  0.92202700  1
  Si  Si0  1  0.74861000  0.75991400  0.08330400  1
  Si  Si1  1  0.24861000  0.25991400  0.41669600  1
  Si  Si2  1  0.74861000  0.74008600  0.58330400  1
  Si  Si3  1  0.24861000  0.24008600  0.91669600  1
  O  O0  1  0.11944900  0.24443500  0.05199700  1
  O  O1  1  0.07625200  0.77015700  0.07162500  1
  O  O2  1  0.66767600  0.53351600  0.15535300  1
  O  O3  1  0.64276500  0.98529300  0.15077500  1
  O  O4  1  0.14276500  0.48529300  0.34922500  1
  O  O5  1  0.16767600  0.03351600  0.34464700  1
  O  O6  1  0.57625200  0.27015700  0.42837500  1
  O  O7  1  0.61944900  0.74443500  0.44800300  1
  O  O8  1  0.11944900  0.25556500  0.55199700  1
  O  O9  1  0.07625200  0.72984300  0.57162500  1
  O  O10  1  0.66767600  0.96648400  0.65535300  1
  O  O11  1  0.64276500  0.51470700  0.65077500  1
  O  O12  1  0.14276500  0.01470700  0.84922500  1
  O  O13  1  0.16767600  0.46648400  0.84464700  1
  O  O14  1  0.57625200  0.22984300  0.92837500  1
  O  O15  1  0.61944900  0.75556500  0.94800300  1
loop_
_geom_bond_atom_site_label_1
_geom_bond_atom_site_label_2
_geom_bond_distance
_geom_bond_site_symmetry_2
Li0 O5 1.985697 1_555
Li0 O3 2.027200 1_545
Li0 O1 2.031839 1_545
Li0 O0 2.066945 1_555
Li1 O2 1.985697 1_555
Li1 O4 2.027200 1_655
Li1 O6 2.031839 1_555
Li1 O7 2.066945 1_555
Li2 O13 1.985697 1_555
Li2 O11 2.027200 1_555
Li2 O9 2.031839 1_555
Li2 O8 2.066945 1_555
Li3 O10 1.985697 1_555
Li3 O12 2.027200 1_665
Li3 O14 2.031839 1_565
Li3 O15 2.066945 1_555
Fe0 O14 1.898967 1_554
Fe0 O0 1.906661 1_655
Fe0 O2 1.917514 1_555
Fe0 O3 1.929700 1_545
Fe1 O9 1.898967 1_555
Fe1 O7 1.906661 1_555
Fe1 O5 1.917514 1_565
Fe1 O4 1.929700 1_555
Fe2 O6 1.898967 1_555
Fe2 O8 1.906661 1_655
Fe2 O10 1.917514 1_545
Fe2 O11 1.929700 1_555
Fe3 O1 1.898967 1_556
Fe3 O15 1.906661 1_555
Fe3 O13 1.917514 1_555
Fe3 O12 1.929700 1_565
O0 Si3 1.661133 1_554
O1 Si0 1.651017 1_455
O2 Si0 1.649425 1_555
O3 Si0 1.655066 1_555
O4 Si1 1.655066 1_555
O5 Si1 1.649425 1_555
O6 Si1 1.651017 1_555
O7 Si2 1.661133 1_555
O8 Si1 1.661133 1_555
O9 Si2 1.651017 1_455
O10 Si2 1.649425 1_555
O11 Si2 1.655066 1_555
O12 Si3 1.655066 1_555
O13 Si3 1.649425 1_555
O14 Si3 1.651017 1_555
O15 Si0 1.661133 1_556
