# generated using pymatgen
data_KNaPrTaO5
_symmetry_space_group_name_H-M   'P 1'
_cell_length_a   5.81810100
_cell_length_b   5.81810100
_cell_length_c   8.33948800
_cell_angle_alpha   90.00000000
_cell_angle_beta   90.00000000
_cell_angle_gamma   90.00000000
_symmetry_Int_Tables_number   1
_chemical_formula_structural   KNaPrTaO5
_chemical_formula_sum   'K2 Na2 Pr2 Ta2 O10'
_cell_volume   282.29416436
_cell_formula_units_Z   2
loop_
 _symmetry_equiv_pos_site_id
 _symmetry_equiv_pos_as_xyz
  1  'x, y, z'
loop_
 _atom_site_type_symbol
 _atom_site_label
 _atom_site_symmetry_multiplicity
 _atom_site_fract_x
 _atom_site_fract_y
 _atom_site_fract_z
 _atom_site_occupancy
  K  K0  1  0.00000000  0.00000000  0.00000000  1
  K  K1  1  0.50000000  0.50000000  0.00000000  1
  Na  Na0  1  0.00000000  0.50000000  0.24089800  1
  Na  Na1  1  0.50000000  0.00000000  0.75910200  1
  Pr  Pr0  1  0.00000000  0.00000000  0.50000000  1
  Pr  Pr1  1  0.50000000  0.50000000  0.50000000  1
  Ta  Ta0  1  0.50000000  0.00000000  0.25542600  1
  Ta  Ta1  1  0.00000000  0.50000000  0.74457400  1
  O  O0  1  0.50000000  0.00000000  0.03279400  1
  O  O1  1  0.27078500  0.77078500  0.32613000  1
  O  O2  1  0.72921500  0.77078500  0.32613000  1
  O  O3  1  0.27078500  0.22921500  0.32613000  1
  O  O4  1  0.72921500  0.22921500  0.32613000  1
  O  O5  1  0.77078500  0.27078500  0.67387000  1
  O  O6  1  0.22921500  0.27078500  0.67387000  1
  O  O7  1  0.77078500  0.72921500  0.67387000  1
  O  O8  1  0.22921500  0.72921500  0.67387000  1
  O  O9  1  0.00000000  0.50000000  0.96720600  1
loop_
_geom_bond_atom_site_label_1
_geom_bond_atom_site_label_2
_geom_bond_distance
_geom_bond_site_symmetry_2
K0 O9 2.921878 1_544
K0 O0 2.921878 1_455
K0 O0 2.921878 1_555
K0 O9 2.921878 1_554
K1 O9 2.921878 1_654
K1 O0 2.921878 1_565
K1 O0 2.921878 1_555
K1 O9 2.921878 1_554
Na0 O9 2.282451 1_554
Na0 O3 2.338662 1_555
Na0 O4 2.338662 1_455
Na0 O2 2.338662 1_455
Na0 O1 2.338662 1_555
Na1 O0 2.282451 1_556
Na1 O6 2.338662 1_555
Na1 O8 2.338662 1_545
Na1 O5 2.338662 1_555
Na1 O7 2.338662 1_545
O0 Ta0 1.856637 1_555
O1 Ta0 1.976013 1_565
O1 Pr0 2.522498 1_565
O1 Pr1 2.522498 1_555
O2 Ta0 1.976013 1_565
O2 Pr0 2.522498 1_665
O2 Pr1 2.522498 1_555
O3 Ta0 1.976013 1_555
O3 Pr0 2.522498 1_555
O3 Pr1 2.522498 1_555
O4 Ta0 1.976013 1_555
O4 Pr1 2.522498 1_555
O4 Pr0 2.522498 1_655
O5 Ta1 1.976013 1_655
O5 Pr0 2.522498 1_655
O5 Pr1 2.522498 1_555
O6 Ta1 1.976013 1_555
O6 Pr0 2.522498 1_555
O6 Pr1 2.522498 1_555
O7 Ta1 1.976013 1_655
O7 Pr0 2.522498 1_665
O7 Pr1 2.522498 1_555
O8 Ta1 1.976013 1_555
O8 Pr1 2.522498 1_555
O8 Pr0 2.522498 1_565
O9 Ta1 1.856637 1_555
