# generated using pymatgen
data_Li7Co(O2F)2
_symmetry_space_group_name_H-M   'P 1'
_cell_length_a   5.34668422
_cell_length_b   5.97007524
_cell_length_c   10.31428815
_cell_angle_alpha   82.54093715
_cell_angle_beta   80.54589512
_cell_angle_gamma   119.61423374
_symmetry_Int_Tables_number   1
_chemical_formula_structural   Li7Co(O2F)2
_chemical_formula_sum   'Li14 Co2 O8 F4'
_cell_volume   273.66000479
_cell_formula_units_Z   2
loop_
 _symmetry_equiv_pos_site_id
 _symmetry_equiv_pos_as_xyz
  1  'x, y, z'
loop_
 _atom_site_type_symbol
 _atom_site_label
 _atom_site_symmetry_multiplicity
 _atom_site_fract_x
 _atom_site_fract_y
 _atom_site_fract_z
 _atom_site_occupancy
  Li  Li0  1  0.08653000  0.03315500  0.23174400  1
  Li  Li1  1  0.10319900  0.63266800  0.74178500  1
  Li  Li2  1  0.47912400  0.94350400  0.38806300  1
  Li  Li3  1  0.54945000  0.58183700  0.12191000  1
  Li  Li4  1  0.26604300  0.22319500  0.44321600  1
  Li  Li5  1  0.22846300  0.71181300  0.95739900  1
  Li  Li6  1  0.30602900  0.35740400  0.67794400  1
  Li  Li7  1  0.72222800  0.23593700  0.06286500  1
  Li  Li8  1  0.75328800  0.78115900  0.53087600  1
  Li  Li9  1  0.47949400  0.49654400  0.89676700  1
  Li  Li10  1  0.52436400  0.03413200  0.61376000  1
  Li  Li11  1  0.92301700  0.43685200  0.27802200  1
  Li  Li12  1  0.89716000  0.90631000  0.74566600  1
  Li  Li13  1  0.67171800  0.15100500  0.82786300  1
  Co  Co0  1  0.05531100  0.05007500  0.94837400  1
  Co  Co1  1  0.00179800  0.49624900  0.50778300  1
  O  O0  1  0.07423300  0.81813000  0.40415900  1
  O  O1  1  0.25785900  0.97536900  0.79523200  1
  O  O2  1  0.34450500  0.18029100  0.03636700  1
  O  O3  1  0.34896000  0.68427800  0.56535400  1
  O  O4  1  0.06637300  0.37612300  0.88190900  1
  O  O5  1  0.65139100  0.30591700  0.45941800  1
  O  O6  1  0.65643900  0.82901100  0.94419700  1
  O  O7  1  0.94174500  0.16730200  0.60689100  1
  F  F0  1  0.25555600  0.39172700  0.27871800  1
  F  F1  1  0.90505000  0.58439100  0.11174600  1
  F  F2  1  0.71005600  0.56353600  0.72279200  1
  F  F3  1  0.74061600  0.05208600  0.21917800  1
loop_
_geom_bond_atom_site_label_1
_geom_bond_atom_site_label_2
_geom_bond_distance
_geom_bond_site_symmetry_2
Li0 O0 2.024893 1_545
Li0 O2 2.040801 1_555
Li1 O4 1.872732 1_555
Li1 O3 1.949827 1_555
Li1 O1 1.985983 1_555
Li2 O0 1.876836 1_555
Li2 O3 2.001497 1_555
Li2 O5 2.176672 1_565
Li3 O6 1.995895 1_554
Li4 O5 1.909375 1_555
Li4 O7 2.070774 1_455
Li4 O0 2.235987 1_545
Li5 O6 2.008670 1_555
Li5 O4 2.069784 1_555
Li5 O1 2.069800 1_555
Li6 O3 2.022577 1_555
Li6 O7 2.029511 1_455
Li6 O1 2.309215 1_545
Li6 O4 2.323179 1_555
Li7 O2 1.950776 1_555
Li7 O4 2.124613 1_654
Li8 O0 1.874984 1_655
Li8 O3 1.895448 1_555
Li8 O7 2.318948 1_565
Li9 O6 1.903233 1_555
Li9 O2 1.940334 1_556
Li9 O4 1.997409 1_555
Li10 O5 1.874379 1_555
Li10 O7 1.948620 1_555
Li10 O3 1.994977 1_545
Li10 O1 2.028845 1_545
Li11 O5 1.956117 1_555
Li12 O7 1.864188 1_565
Li12 O1 1.934793 1_655
Li12 O6 2.089118 1_555
Li13 O1 2.037717 1_545
Li13 O4 2.085108 1_655
Li13 O6 2.086984 1_545
Li13 O7 2.451753 1_555
Co0 O2 1.809723 1_556
Co0 O6 1.885484 1_445
Co0 O4 1.946504 1_555
Co0 O1 1.991233 1_545
Co1 O5 1.843988 1_455
Co1 O3 1.879876 1_555
Co1 O0 1.892172 1_555
Co1 O7 1.937131 1_455
F0 Li3 1.816335 1_555
F0 Li4 1.880953 1_555
F0 Li11 1.926376 1_455
F0 Li0 2.033518 1_555
F1 Li11 1.863303 1_555
F1 Li3 1.879241 1_555
F1 Li5 1.893237 1_654
F1 Li7 1.990431 1_555
F2 Li12 1.850342 1_555
F2 Li9 1.870637 1_555
F2 Li1 1.981420 1_655
F2 Li6 2.060007 1_555
F2 Li8 2.131877 1_555
F2 Li13 2.452994 1_555
F3 Li2 1.849400 1_545
F3 Li7 1.874311 1_555
F3 Li0 1.931768 1_655
F3 Li11 2.222261 1_555
