# generated using pymatgen
data_LiLuPt2
_symmetry_space_group_name_H-M   'P 1'
_cell_length_a   4.56744118
_cell_length_b   4.56744118
_cell_length_c   4.56744118
_cell_angle_alpha   60.00000000
_cell_angle_beta   60.00000000
_cell_angle_gamma   60.00000000
_symmetry_Int_Tables_number   1
_chemical_formula_structural   LiLuPt2
_chemical_formula_sum   'Li1 Lu1 Pt2'
_cell_volume   67.37579323
_cell_formula_units_Z   1
loop_
 _symmetry_equiv_pos_site_id
 _symmetry_equiv_pos_as_xyz
  1  'x, y, z'
loop_
 _atom_site_type_symbol
 _atom_site_label
 _atom_site_symmetry_multiplicity
 _atom_site_fract_x
 _atom_site_fract_y
 _atom_site_fract_z
 _atom_site_occupancy
  Li  Li0  1  0.25000000  0.25000000  0.25000000  1
  Lu  Lu0  1  0.74999900  0.74999900  0.74999900  1
  Pt  Pt0  1  0.00000000  -0.00000000  -0.00000000  1
  Pt  Pt1  1  0.50000000  0.50000000  0.50000000  1
loop_
_geom_bond_atom_site_label_1
_geom_bond_atom_site_label_2
_geom_bond_distance
_geom_bond_site_symmetry_2
Li0 Pt0 2.796975 1_555
Li0 Pt0 2.796975 1_556
Li0 Pt1 2.796975 1_554
Li0 Pt1 2.796975 1_555
Li0 Pt1 2.796975 1_545
Li0 Pt0 2.796975 1_655
Li0 Pt0 2.796975 1_565
Li0 Pt1 2.796975 1_455
Lu0 Pt1 2.796964 1_555
Lu0 Pt0 2.796971 1_656
Lu0 Pt0 2.796971 1_566
Lu0 Pt0 2.796971 1_665
Lu0 Pt1 2.796979 1_655
Lu0 Pt1 2.796979 1_565
Lu0 Pt1 2.796979 1_556
Lu0 Pt0 2.796986 1_666
