# generated using pymatgen
data_KF3
_symmetry_space_group_name_H-M   'P 1'
_cell_length_a   7.37124700
_cell_length_b   7.59648500
_cell_length_c   9.89794900
_cell_angle_alpha   90.00000000
_cell_angle_beta   90.00000000
_cell_angle_gamma   90.00000000
_symmetry_Int_Tables_number   1
_chemical_formula_structural   KF3
_chemical_formula_sum   'K8 F24'
_cell_volume   554.24126903
_cell_formula_units_Z   8
loop_
 _symmetry_equiv_pos_site_id
 _symmetry_equiv_pos_as_xyz
  1  'x, y, z'
loop_
 _atom_site_type_symbol
 _atom_site_label
 _atom_site_symmetry_multiplicity
 _atom_site_fract_x
 _atom_site_fract_y
 _atom_site_fract_z
 _atom_site_occupancy
  K  K0  1  0.42841300  0.77306500  0.64748200  1
  K  K1  1  0.92841300  0.72693500  0.35251800  1
  K  K2  1  0.57158700  0.27306500  0.85251800  1
  K  K3  1  0.07158700  0.22693500  0.14748200  1
  K  K4  1  0.46789200  0.82579300  0.12942300  1
  K  K5  1  0.96789200  0.67420700  0.87057700  1
  K  K6  1  0.53210800  0.32579300  0.37057700  1
  K  K7  1  0.03210800  0.17420700  0.62942300  1
  F  F0  1  0.78930900  0.69315100  0.62430400  1
  F  F1  1  0.28930900  0.80684900  0.37569600  1
  F  F2  1  0.21069100  0.19315100  0.87569600  1
  F  F3  1  0.71069100  0.30684900  0.12430400  1
  F  F4  1  0.03916300  0.79670400  0.61053100  1
  F  F5  1  0.53916300  0.70329600  0.38946900  1
  F  F6  1  0.96083700  0.29670400  0.88946900  1
  F  F7  1  0.46083700  0.20329600  0.11053100  1
  F  F8  1  0.26844500  0.93821600  0.87161900  1
  F  F9  1  0.76844500  0.56178400  0.12838100  1
  F  F10  1  0.73155500  0.43821600  0.62838100  1
  F  F11  1  0.23155500  0.06178400  0.37161900  1
  F  F12  1  0.76623700  0.96684900  0.00968200  1
  F  F13  1  0.26623700  0.53315100  0.99031700  1
  F  F14  1  0.23376300  0.46684900  0.49031800  1
  F  F15  1  0.73376300  0.03315100  0.50968300  1
  F  F16  1  0.23461200  0.46325800  0.68941800  1
  F  F17  1  0.73461200  0.03674200  0.31058200  1
  F  F18  1  0.76538800  0.96325800  0.81058200  1
  F  F19  1  0.26538800  0.53674200  0.18941800  1
  F  F20  1  0.49306700  0.62125800  0.90535500  1
  F  F21  1  0.99306700  0.87874200  0.09464500  1
  F  F22  1  0.50693300  0.12125800  0.59464500  1
  F  F23  1  0.00693300  0.37874200  0.40535500  1
loop_
_geom_bond_atom_site_label_1
_geom_bond_atom_site_label_2
_geom_bond_distance
_geom_bond_site_symmetry_2
F0 K0 2.738267 1_555
F0 K5 2.774067 1_555
F0 K1 2.890331 1_555
F1 K1 2.738267 1_455
F1 K4 2.774067 1_555
F1 K0 2.890331 1_555
F2 K2 2.738267 1_555
F2 K7 2.774067 1_555
F2 K3 2.890331 1_556
F3 K3 2.738267 1_655
F3 K6 2.774067 1_555
F3 K2 2.890331 1_554
F4 K1 2.732992 1_455
F4 K5 2.786932 1_455
F4 K7 2.874256 1_565
F4 K0 2.898043 1_555
F5 K0 2.732992 1_555
F5 K4 2.786932 1_555
F5 K6 2.874256 1_555
F5 K1 2.898043 1_555
F6 K3 2.732992 1_656
F6 K7 2.786932 1_655
F6 K5 2.874256 1_555
F6 K2 2.898043 1_555
F7 K2 2.732992 1_554
F7 K6 2.786932 1_555
F7 K4 2.874256 1_545
F7 K3 2.898043 1_555
F8 K0 2.808219 1_555
F8 K5 2.988397 1_455
F8 K4 3.066283 1_556
F9 K1 2.808219 1_555
F9 K4 2.988397 1_555
F9 K5 3.066283 1_554
F10 K2 2.808219 1_555
F10 K7 2.988397 1_655
F10 K6 3.066283 1_555
F11 K3 2.808219 1_555
F11 K6 2.988397 1_555
F11 K7 3.066283 1_555
F12 K4 2.718312 1_555
F12 K5 3.007858 1_554
F13 K5 2.718308 1_455
F13 K4 3.007863 1_556
F14 K6 2.718312 1_555
F14 K7 3.007858 1_555
F15 K7 2.718308 1_655
F15 K6 3.007863 1_555
F16 K7 2.720702 1_555
F16 K0 2.784198 1_555
F16 K5 3.106206 1_455
F17 K6 2.720702 1_555
F17 K1 2.784198 1_545
F17 K4 3.106206 1_545
F18 K5 2.720702 1_555
F18 K2 2.784198 1_565
F18 K7 3.106206 1_665
F19 K4 2.720702 1_555
F19 K3 2.784198 1_555
F19 K6 3.106206 1_555
F20 K4 2.714270 1_556
F20 K2 2.757672 1_555
F20 K0 2.841094 1_555
F21 K5 2.714270 1_554
F21 K3 2.757672 1_665
F21 K1 2.841094 1_555
F22 K6 2.714270 1_555
F22 K0 2.757672 1_545
F22 K2 2.841094 1_555
F23 K7 2.714270 1_555
F23 K1 2.757672 1_455
F23 K3 2.841094 1_555
