# generated using pymatgen
data_Li2Mn2P2O9
_symmetry_space_group_name_H-M   'P 1'
_cell_length_a   5.64843600
_cell_length_b   8.38068900
_cell_length_c   15.04165500
_cell_angle_alpha   90.00000000
_cell_angle_beta   90.00000000
_cell_angle_gamma   90.00000000
_symmetry_Int_Tables_number   1
_chemical_formula_structural   Li2Mn2P2O9
_chemical_formula_sum   'Li8 Mn8 P8 O36'
_cell_volume   712.03863724
_cell_formula_units_Z   4
loop_
 _symmetry_equiv_pos_site_id
 _symmetry_equiv_pos_as_xyz
  1  'x, y, z'
loop_
 _atom_site_type_symbol
 _atom_site_label
 _atom_site_symmetry_multiplicity
 _atom_site_fract_x
 _atom_site_fract_y
 _atom_site_fract_z
 _atom_site_occupancy
  Li  Li0  1  0.25000000  0.06030600  0.75993700  1
  Li  Li1  1  0.25000000  0.05952600  0.12917100  1
  Li  Li2  1  0.75000000  0.44047400  0.62917100  1
  Li  Li3  1  0.75000000  0.43969400  0.25993700  1
  Li  Li4  1  0.25000000  0.56030600  0.74006300  1
  Li  Li5  1  0.25000000  0.55952600  0.37082900  1
  Li  Li6  1  0.75000000  0.94047400  0.87082900  1
  Li  Li7  1  0.75000000  0.93969400  0.24006300  1
  Mn  Mn0  1  0.00000000  0.00000000  0.50000000  1
  Mn  Mn1  1  0.50000000  0.00000000  0.50000000  1
  Mn  Mn2  1  0.25000000  0.20391700  0.93920000  1
  Mn  Mn3  1  0.75000000  0.29608300  0.43920000  1
  Mn  Mn4  1  0.00000000  0.50000000  0.00000000  1
  Mn  Mn5  1  0.50000000  0.50000000  0.00000000  1
  Mn  Mn6  1  0.25000000  0.70391700  0.56080000  1
  Mn  Mn7  1  0.75000000  0.79608300  0.06080000  1
  P  P0  1  0.75000000  0.16897800  0.07678900  1
  P  P1  1  0.25000000  0.20991300  0.33479200  1
  P  P2  1  0.75000000  0.29008700  0.83479200  1
  P  P3  1  0.25000000  0.33102200  0.57678900  1
  P  P4  1  0.75000000  0.66897800  0.42321100  1
  P  P5  1  0.25000000  0.70991300  0.16520800  1
  P  P6  1  0.75000000  0.79008700  0.66520800  1
  P  P7  1  0.25000000  0.83102200  0.92321100  1
  O  O0  1  0.25000000  0.99084800  0.97791200  1
  O  O1  1  0.25000000  0.07490700  0.41108500  1
  O  O2  1  0.75000000  0.06889800  0.42535600  1
  O  O3  1  0.25000000  0.12633800  0.24741400  1
  O  O4  1  0.75000000  0.14224500  0.17589700  1
  O  O5  1  0.52717500  0.17981400  0.85044500  1
  O  O6  1  0.97282500  0.17981400  0.85044500  1
  O  O7  1  0.01751700  0.24137500  0.54707600  1
  O  O8  1  0.48248300  0.24137500  0.54707600  1
  O  O9  1  0.51751700  0.25862500  0.04707600  1
  O  O10  1  0.98248300  0.25862500  0.04707600  1
  O  O11  1  0.02717500  0.32018600  0.35044500  1
  O  O12  1  0.47282500  0.32018600  0.35044500  1
  O  O13  1  0.25000000  0.35775500  0.67589700  1
  O  O14  1  0.75000000  0.37366200  0.74741400  1
  O  O15  1  0.25000000  0.43110200  0.92535600  1
  O  O16  1  0.75000000  0.42509300  0.91108500  1
  O  O17  1  0.75000000  0.50915200  0.47791200  1
  O  O18  1  0.25000000  0.49084800  0.52208800  1
  O  O19  1  0.25000000  0.57490700  0.08891500  1
  O  O20  1  0.75000000  0.56889800  0.07464400  1
  O  O21  1  0.25000000  0.62633800  0.25258600  1
  O  O22  1  0.75000000  0.64224500  0.32410300  1
  O  O23  1  0.52717500  0.67981400  0.64955500  1
  O  O24  1  0.97282500  0.67981400  0.64955500  1
  O  O25  1  0.01751700  0.74137500  0.95292400  1
  O  O26  1  0.48248300  0.74137500  0.95292400  1
  O  O27  1  0.51751700  0.75862500  0.45292400  1
  O  O28  1  0.98248300  0.75862500  0.45292400  1
  O  O29  1  0.02717500  0.82018600  0.14955500  1
  O  O30  1  0.47282500  0.82018600  0.14955500  1
  O  O31  1  0.25000000  0.85775500  0.82410300  1
  O  O32  1  0.75000000  0.87366200  0.75258600  1
  O  O33  1  0.25000000  0.93110200  0.57464400  1
  O  O34  1  0.75000000  0.92509300  0.58891500  1
  O  O35  1  0.75000000  0.00915200  0.02208800  1
loop_
_geom_bond_atom_site_label_1
_geom_bond_atom_site_label_2
_geom_bond_distance
_geom_bond_site_symmetry_2
Li0 O31 1.952717 1_545
Li0 O5 2.303828 1_555
Li0 O6 2.303828 1_455
Li1 O3 1.864627 1_555
Li1 O0 2.346860 1_544
Li1 O29 2.387778 1_545
Li1 O30 2.387778 1_545
Li1 O9 2.567548 1_555
Li1 O10 2.567548 1_455
Li2 O14 1.864627 1_555
Li2 O17 2.346860 1_555
Li2 O23 2.387778 1_555
Li2 O24 2.387778 1_555
Li2 O8 2.567548 1_555
Li2 O7 2.567548 1_655
Li3 O22 1.952717 1_555
Li3 O12 2.303828 1_555
Li3 O11 2.303828 1_655
Li4 O13 1.952717 1_555
Li4 O24 2.303828 1_455
Li4 O23 2.303828 1_555
Li5 O21 1.864627 1_555
Li5 O18 2.346860 1_555
Li5 O11 2.387778 1_555
Li5 O12 2.387778 1_555
Li5 O28 2.567548 1_455
Li5 O27 2.567548 1_555
Li6 O32 1.864627 1_555
Li6 O35 2.346860 1_566
Li6 O6 2.387778 1_565
Li6 O5 2.387778 1_565
Li6 O25 2.567548 1_655
Li6 O26 2.567548 1_555
Li7 O4 1.952717 1_565
Li7 O29 2.303828 1_655
Li7 O30 2.303828 1_555
Mn0 O2 1.894220 1_455
Mn0 O33 1.894220 1_545
Mn0 O34 2.043738 1_445
Mn0 O1 2.043738 1_555
Mn0 O28 2.145525 1_445
Mn0 O7 2.145525 1_555
Mn1 O2 1.894220 1_555
Mn1 O33 1.894220 1_545
Mn1 O34 2.043738 1_545
Mn1 O1 2.043738 1_555
Mn1 O8 2.145525 1_555
Mn1 O27 2.145525 1_545
Mn2 O0 1.878208 1_545
Mn2 O15 1.915320 1_555
Mn2 O5 2.067416 1_555
Mn2 O6 2.067416 1_455
Mn2 O9 2.264163 1_556
Mn2 O10 2.264163 1_456
Mn3 O17 1.878208 1_555
Mn3 O2 1.915320 1_555
Mn3 O12 2.067416 1_555
Mn3 O11 2.067416 1_655
Mn3 O8 2.264163 1_555
Mn3 O7 2.264163 1_655
Mn4 O20 1.894220 1_455
Mn4 O15 1.894220 1_554
Mn4 O16 2.043738 1_454
Mn4 O19 2.043738 1_555
Mn4 O10 2.145525 1_455
Mn4 O25 2.145525 1_554
Mn5 O20 1.894220 1_555
Mn5 O15 1.894220 1_554
Mn5 O19 2.043738 1_555
Mn5 O16 2.043738 1_554
Mn5 O9 2.145525 1_555
Mn5 O26 2.145525 1_554
Mn6 O18 1.878208 1_555
Mn6 O33 1.915320 1_555
Mn6 O24 2.067416 1_455
Mn6 O23 2.067416 1_555
Mn6 O27 2.264163 1_555
Mn6 O28 2.264163 1_455
Mn7 O35 1.878208 1_565
Mn7 O20 1.915320 1_555
Mn7 O29 2.067416 1_655
Mn7 O30 2.067416 1_555
Mn7 O25 2.264163 1_654
Mn7 O26 2.264163 1_554
O0 P7 1.571980 1_555
O1 P1 1.611548 1_555
O3 P1 1.489293 1_555
O4 P0 1.507490 1_555
O5 P2 1.579120 1_555
O6 P2 1.579120 1_555
O7 P3 1.577533 1_555
O8 P3 1.577533 1_555
O9 P0 1.577533 1_555
O10 P0 1.577533 1_555
O11 P1 1.579120 1_555
O12 P1 1.579120 1_555
O13 P3 1.507490 1_555
O14 P2 1.489293 1_555
O16 P2 1.611548 1_555
O17 P4 1.571980 1_555
O18 P3 1.571980 1_555
O19 P5 1.611548 1_555
O21 P5 1.489293 1_555
O22 P4 1.507490 1_555
O23 P6 1.579120 1_555
O24 P6 1.579120 1_555
O25 P7 1.577533 1_555
O26 P7 1.577533 1_555
O27 P4 1.577533 1_555
O28 P4 1.577533 1_555
O29 P5 1.579120 1_555
O30 P5 1.579120 1_555
O31 P7 1.507490 1_555
O32 P6 1.489293 1_555
O34 P6 1.611548 1_555
O35 P0 1.571980 1_555
