# generated using pymatgen
data_V3CoO8
_symmetry_space_group_name_H-M   'P 1'
_cell_length_a   8.34562463
_cell_length_b   8.33580613
_cell_length_c   8.34244102
_cell_angle_alpha   90.00816199
_cell_angle_beta   89.99521097
_cell_angle_gamma   90.31673604
_symmetry_Int_Tables_number   1
_chemical_formula_structural   V3CoO8
_chemical_formula_sum   'V12 Co4 O32'
_cell_volume   580.35396463
_cell_formula_units_Z   4
loop_
 _symmetry_equiv_pos_site_id
 _symmetry_equiv_pos_as_xyz
  1  'x, y, z'
loop_
 _atom_site_type_symbol
 _atom_site_label
 _atom_site_symmetry_multiplicity
 _atom_site_fract_x
 _atom_site_fract_y
 _atom_site_fract_z
 _atom_site_occupancy
  V  V0  1  0.10558900  0.62317600  0.12973100  1
  V  V1  1  0.12571200  0.37893200  0.88282200  1
  V  V2  1  0.13272600  0.10175700  0.63648600  1
  V  V3  1  0.36780200  0.89839400  0.13647600  1
  V  V4  1  0.37412400  0.62091800  0.38212100  1
  V  V5  1  0.39398600  0.37747200  0.63007700  1
  V  V6  1  0.60656400  0.87292600  0.87864600  1
  V  V7  1  0.64318000  0.12630300  0.10889900  1
  V  V8  1  0.63139500  0.38962100  0.36866700  1
  V  V9  1  0.86821300  0.61064800  0.86823000  1
  V  V10  1  0.85717600  0.87407400  0.60856600  1
  V  V11  1  0.89342000  0.12723100  0.37871600  1
  Co  Co0  1  0.00455200  0.49757200  0.50498800  1
  Co  Co1  1  0.49557700  0.50214800  0.00505700  1
  Co  Co2  1  0.50128900  0.00703800  0.49352900  1
  Co  Co3  1  0.99888600  0.99283200  0.99359700  1
  O  O0  1  0.09894700  0.13858100  0.39978600  1
  O  O1  1  0.10949800  0.89980800  0.63283800  1
  O  O2  1  0.10590600  0.61617100  0.89041100  1
  O  O3  1  0.13437400  0.39938800  0.09573900  1
  O  O4  1  0.11615100  0.14037000  0.85336600  1
  O  O5  1  0.13730600  0.36396000  0.64286500  1
  O  O6  1  0.13364600  0.61351700  0.34569500  1
  O  O7  1  0.15028600  0.85599700  0.11146700  1
  O  O8  1  0.34982200  0.14394400  0.61122900  1
  O  O9  1  0.36640100  0.38601000  0.84594400  1
  O  O10  1  0.36288800  0.63576000  0.14285500  1
  O  O11  1  0.38404500  0.85939600  0.35334900  1
  O  O12  1  0.36524200  0.60042700  0.59562300  1
  O  O13  1  0.39431600  0.38370900  0.39008800  1
  O  O14  1  0.39027700  0.10027700  0.13302000  1
  O  O15  1  0.40104300  0.86138800  0.89984800  1
  O  O16  1  0.59883400  0.36539400  0.60561800  1
  O  O17  1  0.61147800  0.59519300  0.36476200  1
  O  O18  1  0.60890600  0.89700900  0.11681300  1
  O  O19  1  0.63204000  0.11208300  0.90414900  1
  O  O20  1  0.61096400  0.34919900  0.14378300  1
  O  O21  1  0.64289000  0.13795900  0.36089200  1
  O  O22  1  0.64263200  0.88485800  0.63953800  1
  O  O23  1  0.65263500  0.63406500  0.88883100  1
  O  O24  1  0.84704100  0.36584900  0.38921900  1
  O  O25  1  0.85767200  0.11532700  0.13952400  1
  O  O26  1  0.85709500  0.86176900  0.86124700  1
  O  O27  1  0.88927900  0.65086800  0.64372600  1
  O  O28  1  0.86792400  0.88784700  0.40387800  1
  O  O29  1  0.89102900  0.10298500  0.61688500  1
  O  O30  1  0.88839000  0.40515100  0.86479000  1
  O  O31  1  0.90085200  0.63477900  0.10569200  1
loop_
_geom_bond_atom_site_label_1
_geom_bond_atom_site_label_2
_geom_bond_distance
_geom_bond_site_symmetry_2
Co0 O5 1.950691 1_555
Co0 O6 1.961991 1_555
Co0 O24 1.962228 1_455
Co0 O27 1.977618 1_455
Co1 O10 1.949697 1_555
Co1 O9 1.962072 1_554
Co1 O23 1.962537 1_554
Co1 O20 1.976458 1_555
Co2 O21 1.948790 1_555
Co2 O11 1.956051 1_545
Co2 O8 1.969737 1_555
Co2 O22 1.981489 1_545
Co3 O26 1.948984 1_555
Co3 O4 1.955962 1_665
Co3 O7 1.970006 1_656
Co3 O25 1.981485 1_566
O0 V11 1.726322 1_455
O0 V2 2.018460 1_555
O1 V2 1.693737 1_565
O1 V10 2.125185 1_455
O2 V1 1.986384 1_555
O2 V9 1.992602 1_455
O2 V0 1.997360 1_556
O3 V1 1.785821 1_554
O3 V0 1.903374 1_555
O4 V2 1.842991 1_555
O4 V1 2.004849 1_555
O5 V1 2.008054 1_555
O5 V5 2.147136 1_555
O5 V2 2.186437 1_555
O6 V0 1.818690 1_555
O6 V4 2.030439 1_555
O7 V3 1.859225 1_555
O7 V0 1.980138 1_555
O8 V2 1.855694 1_555
O8 V5 1.985443 1_555
O9 V5 1.816928 1_555
O9 V1 2.032633 1_555
O10 V4 2.002148 1_555
O10 V0 2.152097 1_555
O10 V3 2.190078 1_555
O11 V3 1.843403 1_555
O11 V4 2.003635 1_555
O12 V4 1.790813 1_555
O12 V5 1.897186 1_555
O13 V4 1.986546 1_555
O13 V8 1.986952 1_555
O13 V5 2.002778 1_555
O14 V3 1.692497 1_545
O14 V7 2.130073 1_555
O15 V6 1.726436 1_555
O15 V3 2.017348 1_556
O16 V5 1.725193 1_555
O16 V8 2.005389 1_555
O17 V8 1.722878 1_555
O17 V4 1.998857 1_555
O18 V7 1.932207 1_565
O18 V6 1.997068 1_554
O18 V3 2.018922 1_555
O19 V7 1.714700 1_556
O19 V6 2.014939 1_545
O20 V7 1.901201 1_555
O20 V8 1.913512 1_555
O21 V11 2.098523 1_555
O21 V8 2.101519 1_555
O21 V7 2.104469 1_555
O22 V10 1.811751 1_555
O22 V6 2.019686 1_555
O23 V9 1.818885 1_555
O23 V6 2.031759 1_555
O24 V8 1.819777 1_555
O24 V11 2.030361 1_555
O25 V7 1.811046 1_555
O25 V11 2.019993 1_555
O26 V9 2.096682 1_555
O26 V6 2.098432 1_555
O26 V10 2.110485 1_555
O27 V10 1.904032 1_555
O27 V9 1.910649 1_555
O28 V10 1.713777 1_555
O28 V11 2.016584 1_565
O29 V10 1.928654 1_545
O29 V11 1.997279 1_555
O29 V2 2.023826 1_655
O30 V9 1.722401 1_555
O30 V1 1.999505 1_655
O31 V0 1.723652 1_655
O31 V9 2.009588 1_554
