# generated using pymatgen
data_LiMnP2O7
_symmetry_space_group_name_H-M   'P 1'
_cell_length_a   6.21832388
_cell_length_b   7.28686454
_cell_length_c   6.29691814
_cell_angle_alpha   68.95699889
_cell_angle_beta   80.73313637
_cell_angle_gamma   74.42531783
_symmetry_Int_Tables_number   1
_chemical_formula_structural   LiMnP2O7
_chemical_formula_sum   'Li2 Mn2 P4 O14'
_cell_volume   255.85668392
_cell_formula_units_Z   2
loop_
 _symmetry_equiv_pos_site_id
 _symmetry_equiv_pos_as_xyz
  1  'x, y, z'
loop_
 _atom_site_type_symbol
 _atom_site_label
 _atom_site_symmetry_multiplicity
 _atom_site_fract_x
 _atom_site_fract_y
 _atom_site_fract_z
 _atom_site_occupancy
  Li  Li0  1  0.33333700  0.15613600  0.91167700  1
  Li  Li1  1  0.66667000  0.84382500  0.08833600  1
  Mn  Mn0  1  0.05704100  0.78434300  0.72940000  1
  Mn  Mn1  1  0.94295300  0.21568200  0.27057300  1
  P  P0  1  0.18172200  0.76003200  0.21125100  1
  P  P1  1  0.39028600  0.30671300  0.36470100  1
  P  P2  1  0.60972000  0.69329300  0.63529800  1
  P  P3  1  0.81827300  0.23996500  0.78875500  1
  O  O0  1  0.99133400  0.24624000  0.93945800  1
  O  O1  1  0.05769200  0.86555600  0.39159900  1
  O  O2  1  0.24298800  0.27455400  0.20745200  1
  O  O3  1  0.27073300  0.53498200  0.37432700  1
  O  O4  1  0.35727900  0.86312900  0.06750300  1
  O  O5  1  0.38421400  0.16924300  0.60339200  1
  O  O6  1  0.37541200  0.67101300  0.75344600  1
  O  O7  1  0.62459000  0.32900300  0.24656200  1
  O  O8  1  0.61579800  0.83074100  0.39660700  1
  O  O9  1  0.64274400  0.13683600  0.93251200  1
  O  O10  1  0.72921200  0.46501200  0.62570800  1
  O  O11  1  0.75703500  0.72545900  0.79253600  1
  O  O12  1  0.94229600  0.13447100  0.60838100  1
  O  O13  1  0.00867400  0.75377100  0.06052400  1
loop_
_geom_bond_atom_site_label_1
_geom_bond_atom_site_label_2
_geom_bond_distance
_geom_bond_site_symmetry_2
Li0 O5 1.887572 1_555
Li0 O9 1.913501 1_555
Li0 O4 1.978756 1_546
Li0 O0 2.048740 1_455
Li0 O2 2.255179 1_556
Li1 O8 1.887530 1_555
Li1 O4 1.913393 1_555
Li1 O9 1.978794 1_564
Li1 O13 2.048726 1_655
Li1 O11 2.255093 1_554
Mn0 O6 1.937285 1_555
Mn0 O11 1.972525 1_455
Mn0 O1 1.992318 1_555
Mn0 O13 1.996998 1_556
Mn0 O12 2.323893 1_465
Mn1 O7 1.937212 1_555
Mn1 O2 1.972668 1_655
Mn1 O12 1.992358 1_555
Mn1 O0 1.996966 1_554
Mn1 O1 2.323877 1_645
O0 P3 1.564356 1_555
O1 P0 1.581876 1_555
O2 P1 1.564715 1_555
O3 P0 1.592621 1_555
O3 P1 1.648331 1_555
O4 P0 1.486359 1_555
O5 P1 1.478086 1_555
O6 P2 1.547217 1_555
O7 P1 1.547191 1_555
O8 P2 1.478037 1_555
O9 P3 1.486355 1_555
O10 P3 1.592600 1_555
O10 P2 1.648270 1_555
O11 P2 1.564765 1_555
O12 P3 1.581865 1_555
O13 P0 1.564358 1_555
