# generated using pymatgen
data_Y3Al7Cu2
_symmetry_space_group_name_H-M   'P 1'
_cell_length_a   9.01317746
_cell_length_b   9.01317746
_cell_length_c   9.01317814
_cell_angle_alpha   35.34492653
_cell_angle_beta   35.34492653
_cell_angle_gamma   35.34492236
_symmetry_Int_Tables_number   1
_chemical_formula_structural   Y3Al7Cu2
_chemical_formula_sum   'Y3 Al7 Cu2'
_cell_volume   218.92083252
_cell_formula_units_Z   1
loop_
 _symmetry_equiv_pos_site_id
 _symmetry_equiv_pos_as_xyz
  1  'x, y, z'
loop_
 _atom_site_type_symbol
 _atom_site_label
 _atom_site_symmetry_multiplicity
 _atom_site_fract_x
 _atom_site_fract_y
 _atom_site_fract_z
 _atom_site_occupancy
  Y  Y0  1  -0.00000000  0.00000000  0.00000000  1
  Y  Y1  1  0.85785177  0.85785177  0.85785177  1
  Y  Y2  1  0.14214823  0.14214823  0.14214823  1
  Al  Al0  1  0.41892568  0.41892568  0.92758611  1
  Al  Al1  1  0.92758611  0.41892568  0.41892568  1
  Al  Al2  1  0.41892568  0.92758611  0.41892568  1
  Al  Al3  1  0.50000000  0.50000000  0.50000000  1
  Al  Al4  1  0.58107432  0.07241389  0.58107432  1
  Al  Al5  1  0.07241389  0.58107432  0.58107432  1
  Al  Al6  1  0.58107432  0.58107432  0.07241389  1
  Cu  Cu0  1  0.66471268  0.66471268  0.66471268  1
  Cu  Cu1  1  0.33528732  0.33528732  0.33528732  1
loop_
_geom_bond_atom_site_label_1
_geom_bond_atom_site_label_2
_geom_bond_distance
_geom_bond_site_symmetry_2
Al0 Cu0 2.511908 1_555
Al0 Cu1 2.555129 1_556
Al0 Al3 2.757387 1_555
Al0 Y1 3.179770 1_545
Al0 Y1 3.179770 1_455
Al0 Y2 3.255490 1_556
Al0 Y0 3.377549 1_656
Al0 Y0 3.377549 1_566
Al1 Cu0 2.511908 1_555
Al1 Cu1 2.555128 1_655
Al1 Al3 2.757387 1_555
Al1 Y1 3.179770 1_545
Al1 Y1 3.179771 1_554
Al1 Y2 3.255490 1_655
Al1 Y0 3.377550 1_665
Al1 Y0 3.377550 1_656
Al2 Cu0 2.511908 1_555
Al2 Cu1 2.555128 1_565
Al2 Al3 2.757387 1_555
Al2 Y1 3.179770 1_455
Al2 Y1 3.179771 1_554
Al2 Y2 3.255490 1_565
Al2 Y0 3.377550 1_665
Al2 Y0 3.377550 1_566
Al3 Al4 2.757387 1_555
Al3 Al5 2.757387 1_555
Al3 Al6 2.757387 1_555
Al3 Y1 3.219897 1_545
Al3 Y1 3.219897 1_455
Al3 Y2 3.219897 1_565
Al3 Y2 3.219897 1_655
Al3 Y1 3.219897 1_554
Al3 Y2 3.219897 1_556
Al4 Cu1 2.511908 1_555
Al4 Cu0 2.555128 1_545
Al4 Y2 3.179770 1_655
Al4 Y2 3.179771 1_556
Al4 Y1 3.255490 1_545
Al4 Y0 3.377550 1_556
Al4 Y0 3.377550 1_655
Al5 Cu1 2.511908 1_555
Al5 Cu0 2.555128 1_455
Al5 Y2 3.179770 1_565
Al5 Y2 3.179771 1_556
Al5 Y1 3.255490 1_455
Al5 Y0 3.377550 1_556
Al5 Y0 3.377550 1_565
Al6 Cu1 2.511908 1_555
Al6 Cu0 2.555129 1_554
Al6 Y2 3.179770 1_655
Al6 Y2 3.179770 1_565
Al6 Y1 3.255490 1_554
Al6 Y0 3.377549 1_565
Al6 Y0 3.377549 1_655
Cu0 Y0 3.159852 1_656
Cu0 Y0 3.159852 1_566
Cu0 Y0 3.159853 1_665
Cu1 Y0 3.159852 1_565
Cu1 Y0 3.159852 1_655
Cu1 Y0 3.159853 1_556
