# generated using pymatgen
data_AlGeRu2
_symmetry_space_group_name_H-M   'P 1'
_cell_length_a   4.22143405
_cell_length_b   4.22143405
_cell_length_c   4.22143405
_cell_angle_alpha   60.00000000
_cell_angle_beta   60.00000000
_cell_angle_gamma   60.00000000
_symmetry_Int_Tables_number   1
_chemical_formula_structural   AlGeRu2
_chemical_formula_sum   'Al1 Ge1 Ru2'
_cell_volume   53.19429131
_cell_formula_units_Z   1
loop_
 _symmetry_equiv_pos_site_id
 _symmetry_equiv_pos_as_xyz
  1  'x, y, z'
loop_
 _atom_site_type_symbol
 _atom_site_label
 _atom_site_symmetry_multiplicity
 _atom_site_fract_x
 _atom_site_fract_y
 _atom_site_fract_z
 _atom_site_occupancy
  Al  Al0  1  0.25000100  0.25000100  0.25000100  1
  Ge  Ge0  1  0.75000100  0.75000100  0.75000100  1
  Ru  Ru0  1  0.00000000  -0.00000000  0.00000000  1
  Ru  Ru1  1  0.50000000  0.50000000  0.50000000  1
loop_
_geom_bond_atom_site_label_1
_geom_bond_atom_site_label_2
_geom_bond_distance
_geom_bond_site_symmetry_2
Al0 Ru1 2.585080 1_555
Al0 Ru0 2.585086 1_565
Al0 Ru0 2.585086 1_655
Al0 Ru0 2.585086 1_556
Al0 Ru1 2.585093 1_455
Al0 Ru1 2.585093 1_554
Al0 Ru1 2.585093 1_545
Al0 Ru0 2.585100 1_555
Ge0 Ru0 2.585080 1_666
Ge0 Ru1 2.585086 1_565
Ge0 Ru1 2.585086 1_556
Ge0 Ru1 2.585086 1_655
Ge0 Ru0 2.585093 1_656
Ge0 Ru0 2.585093 1_665
Ge0 Ru0 2.585093 1_566
Ge0 Ru1 2.585100 1_555
