# generated using pymatgen
data_TaZnCo2
_symmetry_space_group_name_H-M   'P 1'
_cell_length_a   4.15480011
_cell_length_b   4.15480011
_cell_length_c   4.15480011
_cell_angle_alpha   60.00000000
_cell_angle_beta   60.00000000
_cell_angle_gamma   60.00000000
_symmetry_Int_Tables_number   1
_chemical_formula_structural   TaZnCo2
_chemical_formula_sum   'Ta1 Zn1 Co2'
_cell_volume   50.71488027
_cell_formula_units_Z   1
loop_
 _symmetry_equiv_pos_site_id
 _symmetry_equiv_pos_as_xyz
  1  'x, y, z'
loop_
 _atom_site_type_symbol
 _atom_site_label
 _atom_site_symmetry_multiplicity
 _atom_site_fract_x
 _atom_site_fract_y
 _atom_site_fract_z
 _atom_site_occupancy
  Ta  Ta0  1  0.25000000  0.25000000  0.25000000  1
  Zn  Zn0  1  0.75000000  0.75000000  0.75000000  1
  Co  Co0  1  0.49999900  0.49999900  0.49999900  1
  Co  Co1  1  0.00000000  -0.00000000  -0.00000000  1
loop_
_geom_bond_atom_site_label_1
_geom_bond_atom_site_label_2
_geom_bond_distance
_geom_bond_site_symmetry_2
Co0 Ta0 2.544275 1_555
Co0 Zn0 2.544282 1_554
Co0 Zn0 2.544282 1_455
Co0 Zn0 2.544282 1_545
Co0 Ta0 2.544288 1_565
Co0 Ta0 2.544288 1_556
Co0 Ta0 2.544288 1_655
Co0 Zn0 2.544295 1_555
Co1 Ta0 2.544285 1_455
Co1 Ta0 2.544285 1_545
Co1 Zn0 2.544285 1_544
Co1 Zn0 2.544285 1_454
Co1 Zn0 2.544285 1_445
Co1 Zn0 2.544285 1_444
Co1 Ta0 2.544285 1_555
Co1 Ta0 2.544285 1_554
