# generated using pymatgen
data_YbZn11
_symmetry_space_group_name_H-M   'P 1'
_cell_length_a   8.28675810
_cell_length_b   8.28675810
_cell_length_c   8.28675810
_cell_angle_alpha   99.81467332
_cell_angle_beta   99.81467332
_cell_angle_gamma   131.22946352
_symmetry_Int_Tables_number   1
_chemical_formula_structural   YbZn11
_chemical_formula_sum   'Yb2 Zn22'
_cell_volume   389.79291998
_cell_formula_units_Z   2
loop_
 _symmetry_equiv_pos_site_id
 _symmetry_equiv_pos_as_xyz
  1  'x, y, z'
loop_
 _atom_site_type_symbol
 _atom_site_label
 _atom_site_symmetry_multiplicity
 _atom_site_fract_x
 _atom_site_fract_y
 _atom_site_fract_z
 _atom_site_occupancy
  Yb  Yb0  1  0.50000000  0.50000000  0.00000000  1
  Yb  Yb1  1  0.75000000  0.25000000  0.50000000  1
  Zn  Zn0  1  0.40345700  0.07771200  0.08379400  1
  Zn  Zn1  1  0.99391800  0.31966300  0.91620600  1
  Zn  Zn2  1  0.25608200  0.67228800  0.82574500  1
  Zn  Zn3  1  0.84654300  0.43033700  0.17425500  1
  Zn  Zn4  1  0.92228800  0.59654300  0.91620600  1
  Zn  Zn5  1  0.68033700  0.00608200  0.08379400  1
  Zn  Zn6  1  0.32771200  0.74391800  0.17425500  1
  Zn  Zn7  1  0.56966300  0.15345700  0.82574500  1
  Zn  Zn8  1  0.84654300  0.67228800  0.41620600  1
  Zn  Zn9  1  0.25608200  0.43033700  0.58379400  1
  Zn  Zn10  1  0.99391800  0.07771200  0.67425500  1
  Zn  Zn11  1  0.40345700  0.31966300  0.32574500  1
  Zn  Zn12  1  0.32771200  0.15345700  0.58379400  1
  Zn  Zn13  1  0.56966300  0.74391800  0.41620600  1
  Zn  Zn14  1  0.92228800  0.00608200  0.32574500  1
  Zn  Zn15  1  0.68033700  0.59654300  0.67425500  1
  Zn  Zn16  1  0.25000000  0.75000000  0.50000000  1
  Zn  Zn17  1  0.00000000  0.00000000  0.00000000  1
  Zn  Zn18  1  0.12500000  0.87500000  0.75000000  1
  Zn  Zn19  1  0.12500000  0.37500000  0.25000000  1
  Zn  Zn20  1  0.12500000  0.87500000  0.25000000  1
  Zn  Zn21  1  0.62500000  0.87500000  0.75000000  1
loop_
_geom_bond_atom_site_label_1
_geom_bond_atom_site_label_2
_geom_bond_distance
_geom_bond_site_symmetry_2
Yb0 Zn5 3.270395 1_565
Yb0 Zn0 3.270395 1_555
Yb0 Zn15 3.270395 1_554
Yb0 Zn14 3.270395 1_565
Yb0 Zn10 3.270395 1_454
Yb0 Zn1 3.270395 1_454
Yb0 Zn11 3.270395 1_555
Yb0 Zn4 3.270395 1_554
Yb0 Zn17 3.421356 1_555
Yb0 Zn17 3.421356 1_665
Yb0 Zn6 3.423573 1_555
Yb0 Zn3 3.423573 1_555
Yb0 Zn12 3.423573 1_554
Yb0 Zn13 3.423573 1_555
Yb0 Zn8 3.423573 1_555
Yb0 Zn7 3.423573 1_554
Yb0 Zn2 3.423573 1_554
Yb0 Zn9 3.423573 1_554
Yb1 Zn7 3.270395 1_555
Yb1 Zn9 3.270395 1_655
Yb1 Zn2 3.270395 1_655
Yb1 Zn8 3.270395 1_555
Yb1 Zn6 3.270395 1_545
Yb1 Zn3 3.270395 1_555
Yb1 Zn13 3.270395 1_545
Yb1 Zn12 3.270395 1_555
Yb1 Zn16 3.421356 1_545
Yb1 Zn16 3.421356 1_655
Yb1 Zn11 3.423573 1_555
Yb1 Zn14 3.423573 1_555
Yb1 Zn1 3.423573 1_555
Yb1 Zn5 3.423573 1_555
Yb1 Zn10 3.423573 1_555
Yb1 Zn0 3.423573 1_555
Yb1 Zn4 3.423573 1_555
Yb1 Zn15 3.423573 1_555
Zn0 Zn11 2.582529 1_555
Zn0 Zn3 2.598932 1_555
Zn0 Zn20 2.608874 1_545
Zn0 Zn18 2.632106 1_544
Zn0 Zn7 2.680636 1_554
Zn0 Zn6 2.680636 1_545
Zn0 Zn5 2.722502 1_555
Zn0 Zn17 2.879738 1_555
Zn0 Zn2 2.933161 1_544
Zn0 Zn4 2.998920 1_444
Zn1 Zn10 2.582529 1_555
Zn1 Zn2 2.598932 1_655
Zn1 Zn21 2.608874 1_545
Zn1 Zn19 2.632106 1_656
Zn1 Zn7 2.680636 1_555
Zn1 Zn6 2.680636 1_656
Zn1 Zn4 2.722502 1_555
Zn1 Zn17 2.879738 1_656
Zn1 Zn3 2.933161 1_556
Zn1 Zn5 2.998920 1_556
Zn2 Zn9 2.582529 1_555
Zn2 Zn21 2.608874 1_555
Zn2 Zn5 2.680636 1_566
Zn2 Zn4 2.680636 1_455
Zn2 Zn6 2.722502 1_556
Zn2 Zn7 2.998920 1_565
Zn3 Zn8 2.582529 1_555
Zn3 Zn5 2.680636 1_555
Zn3 Zn4 2.680636 1_554
Zn3 Zn7 2.722502 1_554
Zn3 Zn6 2.998920 1_655
Zn4 Zn7 2.598932 1_555
Zn4 Zn6 2.933161 1_656
Zn5 Zn6 2.598932 1_545
Zn5 Zn7 2.933161 1_554
Zn10 Zn9 2.598932 1_655
Zn10 Zn21 2.608874 1_545
Zn10 Zn18 2.632106 1_645
Zn10 Zn13 2.680636 1_545
Zn10 Zn12 2.680636 1_655
Zn10 Zn14 2.722502 1_555
Zn10 Zn17 2.879738 1_656
Zn10 Zn8 2.933161 1_545
Zn10 Zn15 2.998920 1_545
Zn11 Zn8 2.598932 1_555
Zn11 Zn20 2.608874 1_545
Zn11 Zn19 2.632106 1_555
Zn11 Zn13 2.680636 1_555
Zn11 Zn12 2.680636 1_555
Zn11 Zn15 2.722502 1_555
Zn11 Zn17 2.879738 1_555
Zn11 Zn9 2.933161 1_555
Zn11 Zn14 2.998920 1_455
Zn12 Zn7 2.582529 1_555
Zn12 Zn15 2.598932 1_555
Zn12 Zn18 2.608874 1_545
Zn12 Zn20 2.632106 1_545
Zn12 Zn9 2.722502 1_555
Zn12 Zn16 2.879738 1_545
Zn12 Zn14 2.933161 1_455
Zn12 Zn8 2.998920 1_445
Zn13 Zn6 2.582529 1_555
Zn13 Zn14 2.598932 1_565
Zn13 Zn19 2.608874 1_555
Zn13 Zn21 2.632106 1_555
Zn13 Zn8 2.722502 1_555
Zn13 Zn16 2.879738 1_555
Zn13 Zn15 2.933161 1_555
Zn13 Zn9 2.998920 1_555
Zn14 Zn5 2.582529 1_555
Zn14 Zn19 2.608874 1_655
Zn14 Zn20 2.632106 1_645
Zn14 Zn8 2.680636 1_545
Zn14 Zn9 2.680636 1_655
Zn14 Zn17 2.879738 1_655
Zn15 Zn4 2.582529 1_555
Zn15 Zn18 2.608874 1_655
Zn15 Zn21 2.632106 1_555
Zn15 Zn9 2.680636 1_555
Zn15 Zn8 2.680636 1_555
Zn15 Zn17 2.879738 1_666
Zn16 Zn19 2.802176 1_555
Zn16 Zn20 2.802176 1_555
Zn16 Zn18 2.802176 1_555
Zn16 Zn21 2.802176 1_555
Zn16 Zn7 2.879738 1_565
Zn16 Zn8 2.879738 1_455
Zn16 Zn2 2.879738 1_555
Zn16 Zn9 2.879738 1_555
Zn16 Zn3 2.879738 1_455
Zn16 Zn6 2.879738 1_555
Zn17 Zn19 2.802176 1_555
Zn17 Zn20 2.802176 1_545
Zn17 Zn18 2.802176 1_544
Zn17 Zn21 2.802176 1_444
Zn17 Zn4 2.879738 1_444
Zn17 Zn5 2.879738 1_455
Zn18 Zn4 2.608874 1_455
Zn18 Zn7 2.608874 1_565
Zn18 Zn2 2.632106 1_555
Zn18 Zn8 2.632106 1_455
Zn19 Zn6 2.608874 1_555
Zn19 Zn5 2.608874 1_455
Zn19 Zn9 2.632106 1_555
Zn19 Zn3 2.632106 1_455
Zn20 Zn8 2.608874 1_455
Zn20 Zn3 2.608874 1_455
Zn20 Zn4 2.632106 1_454
Zn20 Zn6 2.632106 1_555
Zn21 Zn9 2.608874 1_555
Zn21 Zn5 2.632106 1_566
Zn21 Zn7 2.632106 1_565
