# generated using pymatgen
data_H5NO5
_symmetry_space_group_name_H-M   'P 1'
_cell_length_a   7.65043300
_cell_length_b   6.32025000
_cell_length_c   16.85641673
_cell_angle_alpha   87.08654857
_cell_angle_beta   90.00000000
_cell_angle_gamma   90.00000000
_symmetry_Int_Tables_number   1
_chemical_formula_structural   H5NO5
_chemical_formula_sum   'H40 N8 O40'
_cell_volume   813.99890991
_cell_formula_units_Z   8
loop_
 _symmetry_equiv_pos_site_id
 _symmetry_equiv_pos_as_xyz
  1  'x, y, z'
loop_
 _atom_site_type_symbol
 _atom_site_label
 _atom_site_symmetry_multiplicity
 _atom_site_fract_x
 _atom_site_fract_y
 _atom_site_fract_z
 _atom_site_occupancy
  H  H0  1  0.34338600  0.19399100  0.97319400  1
  H  H1  1  0.14041100  0.18574700  0.93836300  1
  H  H2  1  0.14974900  0.70193100  0.95874700  1
  H  H3  1  0.31031200  0.21679100  0.87284300  1
  H  H4  1  0.35220100  0.68099800  0.92875500  1
  H  H5  1  0.19882800  0.73793300  0.85637300  1
  H  H6  1  0.42692400  0.44347900  0.79379400  1
  H  H7  1  0.26807700  0.31818500  0.75494200  1
  H  H8  1  0.06271600  0.82178400  0.76049700  1
  H  H9  1  0.76807700  0.68181500  0.74505800  1
  H  H10  1  0.26746200  0.80668400  0.74386700  1
  H  H11  1  0.92692400  0.55652100  0.70620600  1
  H  H12  1  0.76746200  0.19331600  0.75613300  1
  H  H13  1  0.56271600  0.17821600  0.73950300  1
  H  H14  1  0.81031200  0.78320900  0.62715700  1
  H  H15  1  0.69882800  0.26206700  0.64362700  1
  H  H16  1  0.64041100  0.81425300  0.56163700  1
  H  H17  1  0.84338600  0.80600900  0.52680600  1
  H  H18  1  0.85220100  0.31900200  0.57124500  1
  H  H19  1  0.64974900  0.29806900  0.54125300  1
  H  H20  1  0.35025100  0.70193100  0.45874700  1
  H  H21  1  0.14779900  0.68099800  0.42875500  1
  H  H22  1  0.15661400  0.19399100  0.47319400  1
  H  H23  1  0.35958900  0.18574700  0.43836300  1
  H  H24  1  0.30117200  0.73793300  0.35637300  1
  H  H25  1  0.18968800  0.21679100  0.37284300  1
  H  H26  1  0.43728400  0.82178400  0.26049700  1
  H  H27  1  0.23253800  0.80668400  0.24386700  1
  H  H28  1  0.07307600  0.44347900  0.29379400  1
  H  H29  1  0.73253800  0.19331600  0.25613300  1
  H  H30  1  0.23192300  0.31818500  0.25494200  1
  H  H31  1  0.93728400  0.17821600  0.23950300  1
  H  H32  1  0.73192300  0.68181500  0.24505800  1
  H  H33  1  0.57307600  0.55652100  0.20620600  1
  H  H34  1  0.80117200  0.26206700  0.14362700  1
  H  H35  1  0.64779900  0.31900200  0.07124500  1
  H  H36  1  0.68968800  0.78320900  0.12715700  1
  H  H37  1  0.85025100  0.29806900  0.04125300  1
  H  H38  1  0.85958900  0.81425300  0.06163700  1
  H  H39  1  0.65661400  0.80600900  0.02680600  1
  N  N0  1  0.85083600  0.23664800  0.89827900  1
  N  N1  1  0.65590100  0.71633300  0.88733200  1
  N  N2  1  0.35083600  0.76335200  0.60172100  1
  N  N3  1  0.15590100  0.28366700  0.61266800  1
  N  N4  1  0.84409900  0.71633300  0.38733200  1
  N  N5  1  0.64916400  0.23664800  0.39827900  1
  N  N6  1  0.34409900  0.28366700  0.11266800  1
  N  N7  1  0.14916400  0.76335200  0.10172100  1
  O  O0  1  0.95427500  0.23428900  0.96001500  1
  O  O1  1  0.27014600  0.14637300  0.92718600  1
  O  O2  1  0.69025000  0.23922800  0.90881300  1
  O  O3  1  0.55155400  0.72684200  0.94778900  1
  O  O4  1  0.22524200  0.65206300  0.91404700  1
  O  O5  1  0.81488600  0.74481200  0.89647600  1
  O  O6  1  0.92089000  0.23613500  0.83068700  1
  O  O7  1  0.36968500  0.30443800  0.79181000  1
  O  O8  1  0.59031000  0.67813100  0.82034500  1
  O  O9  1  0.17859500  0.84145500  0.78472400  1
  O  O10  1  0.86968500  0.69556200  0.70819000  1
  O  O11  1  0.67859500  0.15854500  0.71527600  1
  O  O12  1  0.42089000  0.76386500  0.66931300  1
  O  O13  1  0.09031000  0.32186900  0.67965500  1
  O  O14  1  0.19025000  0.76077200  0.59118700  1
  O  O15  1  0.77014600  0.85362700  0.57281400  1
  O  O16  1  0.31488600  0.25518800  0.60352400  1
  O  O17  1  0.45427500  0.76571100  0.53998500  1
  O  O18  1  0.72524200  0.34793700  0.58595300  1
  O  O19  1  0.05155400  0.27315800  0.55221100  1
  O  O20  1  0.94844600  0.72684200  0.44778900  1
  O  O21  1  0.27475800  0.65206300  0.41404700  1
  O  O22  1  0.54572500  0.23428900  0.46001500  1
  O  O23  1  0.68511400  0.74481200  0.39647600  1
  O  O24  1  0.22985400  0.14637300  0.42718600  1
  O  O25  1  0.80975000  0.23922800  0.40881300  1
  O  O26  1  0.90969000  0.67813100  0.32034500  1
  O  O27  1  0.57911000  0.23613500  0.33068700  1
  O  O28  1  0.32140500  0.84145500  0.28472400  1
  O  O29  1  0.13031500  0.30443800  0.29181000  1
  O  O30  1  0.82140500  0.15854500  0.21527600  1
  O  O31  1  0.40969000  0.32186900  0.17965500  1
  O  O32  1  0.63031500  0.69556200  0.20819000  1
  O  O33  1  0.07911000  0.76386500  0.16931300  1
  O  O34  1  0.18511400  0.25518800  0.10352400  1
  O  O35  1  0.77475800  0.34793700  0.08595300  1
  O  O36  1  0.44844600  0.27315800  0.05221100  1
  O  O37  1  0.30975000  0.76077200  0.09118700  1
  O  O38  1  0.72985400  0.85362700  0.07281400  1
  O  O39  1  0.04572500  0.76571100  0.03998500  1
loop_
_geom_bond_atom_site_label_1
_geom_bond_atom_site_label_2
_geom_bond_distance
_geom_bond_site_symmetry_2
H0 O1 1.014744 1_555
H0 O36 1.654750 1_556
H1 O1 1.042739 1_555
H1 O0 1.505507 1_455
H2 O4 1.012315 1_555
H2 O39 1.651411 1_556
H3 O1 1.044111 1_555
H3 O7 1.517242 1_555
H4 O4 1.021237 1_555
H4 O3 1.588202 1_555
H5 O4 1.107643 1_555
H5 O9 1.352911 1_555
H6 O7 0.983925 1_555
H7 O7 0.996264 1_555
H8 O9 0.986569 1_555
H9 O10 0.996264 1_555
H10 O9 1.000108 1_555
H11 O10 0.983925 1_555
H12 O11 1.000108 1_555
H13 O11 0.986569 1_555
H14 O15 1.044111 1_555
H14 O10 1.517242 1_555
H15 O18 1.107643 1_555
H15 O11 1.352911 1_555
H16 O15 1.042739 1_555
H16 O17 1.505507 1_555
H17 O15 1.014744 1_555
H17 O20 1.654750 1_555
H18 O18 1.021237 1_555
H18 O19 1.588202 1_655
H19 O18 1.012315 1_555
H19 O22 1.651411 1_555
H20 O21 1.012315 1_555
H20 O17 1.651411 1_555
H21 O21 1.021237 1_555
H21 O20 1.588202 1_455
H22 O24 1.014744 1_555
H22 O19 1.654750 1_555
H23 O24 1.042739 1_555
H23 O22 1.505507 1_555
H24 O21 1.107643 1_555
H24 O28 1.352911 1_555
H25 O24 1.044111 1_555
H25 O29 1.517242 1_555
H26 O28 0.986569 1_555
H27 O28 1.000108 1_555
H28 O29 0.983925 1_555
H29 O30 1.000108 1_555
H30 O29 0.996264 1_555
H31 O30 0.986569 1_555
H32 O32 0.996264 1_555
H33 O32 0.983925 1_555
H34 O35 1.107643 1_555
H34 O30 1.352911 1_555
H35 O35 1.021237 1_555
H35 O36 1.588202 1_555
H36 O38 1.044111 1_555
H36 O32 1.517242 1_555
H37 O35 1.012315 1_555
H37 O0 1.651411 1_554
H38 O38 1.042739 1_555
H38 O39 1.505507 1_655
H39 O38 1.014744 1_555
H39 O3 1.654750 1_554
N0 O2 1.241544 1_555
N0 O6 1.259270 1_555
N0 O0 1.306841 1_555
N1 O5 1.240311 1_555
N1 O8 1.269967 1_555
N1 O3 1.298890 1_555
N2 O14 1.241544 1_555
N2 O12 1.259270 1_555
N2 O17 1.306841 1_555
N3 O16 1.240311 1_555
N3 O13 1.269967 1_555
N3 O19 1.298890 1_555
N4 O23 1.240311 1_555
N4 O26 1.269967 1_555
N4 O20 1.298890 1_555
N5 O25 1.241544 1_555
N5 O27 1.259270 1_555
N5 O22 1.306841 1_555
N6 O34 1.240311 1_555
N6 O31 1.269967 1_555
N6 O36 1.298890 1_555
N7 O37 1.241544 1_555
N7 O33 1.259270 1_555
N7 O39 1.306841 1_555
