# generated using pymatgen
data_Ni6OF11
_symmetry_space_group_name_H-M   'P 1'
_cell_length_a   5.63576113
_cell_length_b   5.63576113
_cell_length_c   7.30872937
_cell_angle_alpha   72.74159722
_cell_angle_beta   72.74159722
_cell_angle_gamma   72.70963772
_symmetry_Int_Tables_number   1
_chemical_formula_structural   Ni6OF11
_chemical_formula_sum   'Ni6 O1 F11'
_cell_volume   206.06065144
_cell_formula_units_Z   1
loop_
 _symmetry_equiv_pos_site_id
 _symmetry_equiv_pos_as_xyz
  1  'x, y, z'
loop_
 _atom_site_type_symbol
 _atom_site_label
 _atom_site_symmetry_multiplicity
 _atom_site_fract_x
 _atom_site_fract_y
 _atom_site_fract_z
 _atom_site_occupancy
  Ni  Ni0  1  0.33326100  0.33326100  0.16656000  1
  Ni  Ni1  1  0.66518200  0.66518200  0.33950900  1
  Ni  Ni2  1  0.33990700  0.33990700  0.66813100  1
  Ni  Ni3  1  0.00097500  0.00097500  0.49989300  1
  Ni  Ni4  1  0.66309800  0.66309800  0.82845700  1
  Ni  Ni5  1  0.99826400  0.99826400  0.99939700  1
  O  O0  1  0.56619800  0.56619800  0.62963700  1
  F  F0  1  0.96984500  0.36218000  0.33298500  1
  F  F1  1  0.63872900  0.03034400  0.66697700  1
  F  F2  1  0.10567400  0.10567400  0.70086900  1
  F  F3  1  0.76388800  0.76388800  0.03657000  1
  F  F4  1  0.43358000  0.43358000  0.36865600  1
  F  F5  1  0.89883500  0.89883500  0.29742600  1
  F  F6  1  0.23137300  0.23137300  0.96500400  1
  F  F7  1  0.69643700  0.30223000  0.99998300  1
  F  F8  1  0.36218000  0.96984500  0.33298500  1
  F  F9  1  0.03034400  0.63872900  0.66697700  1
  F  F10  1  0.30223000  0.69643700  0.99998300  1
loop_
_geom_bond_atom_site_label_1
_geom_bond_atom_site_label_2
_geom_bond_distance
_geom_bond_site_symmetry_2
Ni1 O0 1.974836 1_555
Ni2 O0 1.968007 1_555
Ni4 O0 1.956281 1_555
F0 Ni3 2.025844 1_655
F0 Ni1 2.030589 1_555
F0 Ni0 2.035164 1_655
F1 Ni3 2.031327 1_655
F1 Ni2 2.033163 1_555
F1 Ni4 2.042858 1_545
F2 Ni3 2.022244 1_555
F2 Ni5 2.035637 1_445
F2 Ni2 2.050244 1_555
F3 Ni5 2.043171 1_554
F3 Ni4 2.043527 1_554
F3 Ni1 2.059959 1_555
F4 Ni0 2.000513 1_555
F4 Ni1 2.033593 1_555
F4 Ni2 2.035330 1_555
F5 Ni3 2.015017 1_665
F5 Ni5 2.027504 1_554
F5 Ni1 2.027975 1_555
F6 Ni0 2.007327 1_556
F6 Ni2 2.025724 1_555
F6 Ni5 2.036932 1_445
F7 Ni5 2.023862 1_545
F7 Ni0 2.033977 1_556
F7 Ni4 2.035409 1_555
F8 Ni3 2.025844 1_565
F8 Ni1 2.030589 1_555
F8 Ni0 2.035164 1_565
F9 Ni3 2.031327 1_565
F9 Ni2 2.033163 1_555
F9 Ni4 2.042858 1_455
F10 Ni5 2.023862 1_455
F10 Ni0 2.033977 1_556
F10 Ni4 2.035409 1_555
