# generated using pymatgen
data_AcIn3
_symmetry_space_group_name_H-M   'P 1'
_cell_length_a   7.23534850
_cell_length_b   7.23534899
_cell_length_c   5.15803022
_cell_angle_alpha   90.00000000
_cell_angle_beta   90.00000000
_cell_angle_gamma   119.99999777
_symmetry_Int_Tables_number   1
_chemical_formula_structural   AcIn3
_chemical_formula_sum   'Ac2 In6'
_cell_volume   233.84789325
_cell_formula_units_Z   2
loop_
 _symmetry_equiv_pos_site_id
 _symmetry_equiv_pos_as_xyz
  1  'x, y, z'
loop_
 _atom_site_type_symbol
 _atom_site_label
 _atom_site_symmetry_multiplicity
 _atom_site_fract_x
 _atom_site_fract_y
 _atom_site_fract_z
 _atom_site_occupancy
  Ac  Ac0  1  0.33333400  0.66666700  0.75000100  1
  Ac  Ac1  1  0.66666800  0.33333400  0.25000000  1
  In  In0  1  0.14544256  0.29088713  0.25000000  1
  In  In1  1  0.70911387  0.85455844  0.25000000  1
  In  In2  1  0.14544256  0.85455844  0.25000000  1
  In  In3  1  0.85455844  0.70911387  0.75000100  1
  In  In4  1  0.29088613  0.14544256  0.75000100  1
  In  In5  1  0.85455944  0.14544256  0.75000100  1
loop_
_geom_bond_atom_site_label_1
_geom_bond_atom_site_label_2
_geom_bond_distance
_geom_bond_site_symmetry_2
Ac0 In1 3.492220 1_556
Ac0 In0 3.492220 1_556
Ac0 In1 3.492227 1_555
Ac0 In0 3.492227 1_555
Ac0 In2 3.492232 1_556
Ac0 In2 3.492240 1_555
Ac0 In3 3.627431 1_455
Ac0 In4 3.627435 1_565
Ac0 In5 3.627436 1_455
Ac0 In4 3.627443 1_555
Ac0 In5 3.627443 1_565
Ac0 In3 3.627445 1_555
Ac1 In3 3.492220 1_554
Ac1 In3 3.492227 1_555
Ac1 In4 3.492228 1_554
Ac1 In5 3.492232 1_554
Ac1 In4 3.492236 1_555
Ac1 In5 3.492240 1_555
Ac1 In0 3.627424 1_655
Ac1 In1 3.627427 1_545
Ac1 In2 3.627436 1_655
Ac1 In2 3.627443 1_545
Ac1 In1 3.627449 1_555
Ac1 In0 3.627453 1_555
In0 In2 3.156990 1_545
In0 In1 3.156990 1_445
In0 In5 3.158073 1_454
In0 In5 3.158082 1_455
In0 In4 3.158091 1_554
In0 In4 3.158100 1_555
In1 In2 3.156990 1_655
In1 In5 3.158077 1_564
In1 In5 3.158085 1_565
In1 In3 3.158095 1_554
In1 In3 3.158103 1_555
In2 In3 3.158077 1_454
In2 In4 3.158077 1_564
In2 In3 3.158085 1_455
In2 In4 3.158085 1_565
In3 In5 3.156987 1_565
In3 In4 3.156987 1_665
In4 In5 3.156976 1_455
