# generated using pymatgen
data_Li3Mn5(FeO6)2
_symmetry_space_group_name_H-M   'P 1'
_cell_length_a   5.10599100
_cell_length_b   5.20878157
_cell_length_c   29.43787777
_cell_angle_alpha   88.07740638
_cell_angle_beta   87.35517212
_cell_angle_gamma   61.05795503
_symmetry_Int_Tables_number   1
_chemical_formula_structural   Li3Mn5(FeO6)2
_chemical_formula_sum   'Li9 Mn15 Fe6 O36'
_cell_volume   684.36300330
_cell_formula_units_Z   3
loop_
 _symmetry_equiv_pos_site_id
 _symmetry_equiv_pos_as_xyz
  1  'x, y, z'
loop_
 _atom_site_type_symbol
 _atom_site_label
 _atom_site_symmetry_multiplicity
 _atom_site_fract_x
 _atom_site_fract_y
 _atom_site_fract_z
 _atom_site_occupancy
  Li  Li0  1  0.67753100  0.14659200  0.00051800  1
  Li  Li1  1  0.66446500  0.84842300  0.33913600  1
  Li  Li2  1  0.00641700  0.83755100  0.67267300  1
  Li  Li3  1  0.97873100  0.85772700  0.16197400  1
  Li  Li4  1  0.32794200  0.83633700  0.49568100  1
  Li  Li5  1  0.65665100  0.85236500  0.83040800  1
  Li  Li6  1  0.00869600  0.15406600  0.08073300  1
  Li  Li7  1  0.33443300  0.15603300  0.41664600  1
  Li  Li8  1  0.66523900  0.15324500  0.74986500  1
  Mn  Mn0  1  0.32864500  0.85529500  0.24952200  1
  Mn  Mn1  1  0.66385600  0.84630200  0.58231700  1
  Mn  Mn2  1  0.00177600  0.84927400  0.91605800  1
  Mn  Mn3  1  0.67133100  0.16563600  0.24937700  1
  Mn  Mn4  1  0.00361700  0.16817500  0.58267100  1
  Mn  Mn5  1  0.66248900  0.84478100  0.08351300  1
  Mn  Mn6  1  0.33386900  0.15352400  0.91773100  1
  Mn  Mn7  1  0.99558600  0.84302100  0.41679400  1
  Mn  Mn8  1  0.66739900  0.48642400  0.16331800  1
  Mn  Mn9  1  0.33047800  0.83814200  0.75069100  1
  Mn  Mn10  1  0.99340400  0.49111100  0.49593100  1
  Mn  Mn11  1  0.01007300  0.49186500  0.00190800  1
  Mn  Mn12  1  0.33215300  0.49485300  0.83163600  1
  Mn  Mn13  1  0.34632900  0.47780900  0.33672500  1
  Mn  Mn14  1  0.67709300  0.47898000  0.67011500  1
  Fe  Fe0  1  0.34165400  0.49344600  0.08342900  1
  Fe  Fe1  1  0.67726000  0.47861200  0.41687100  1
  Fe  Fe2  1  0.01124200  0.47131600  0.75098900  1
  Fe  Fe3  1  0.99992900  0.49898000  0.24978000  1
  Fe  Fe4  1  0.33198100  0.50555000  0.58252300  1
  Fe  Fe5  1  0.66955800  0.50120100  0.91652200  1
  O  O0  1  0.36440400  0.50896400  0.21216200  1
  O  O1  1  0.66147200  0.54749800  0.54163600  1
  O  O2  1  0.36191500  0.15585000  0.28821500  1
  O  O3  1  0.65258500  0.47913600  0.28656100  1
  O  O4  1  0.34748800  0.19078900  0.04761200  1
  O  O5  1  0.00394100  0.55043400  0.87691800  1
  O  O6  1  0.67179300  0.16949100  0.61841200  1
  O  O7  1  0.00013500  0.48058700  0.61967800  1
  O  O8  1  0.67568400  0.16299900  0.38251700  1
  O  O9  1  0.65071900  0.17068500  0.11828700  1
  O  O10  1  0.36477000  0.77947300  0.12215000  1
  O  O11  1  0.00264300  0.15745600  0.95413700  1
  O  O12  1  0.33719200  0.44539700  0.95769500  1
  O  O13  1  0.00944500  0.15110700  0.71490400  1
  O  O14  1  0.99080000  0.16178300  0.45140400  1
  O  O15  1  0.69980600  0.77541400  0.45470800  1
  O  O16  1  0.95865700  0.18479900  0.20702700  1
  O  O17  1  0.65540700  0.85960800  0.21401400  1
  O  O18  1  0.33113000  0.15025900  0.78605700  1
  O  O19  1  0.04121300  0.77676800  0.79014300  1
  O  O20  1  0.29021700  0.21089900  0.54133500  1
  O  O21  1  0.00704900  0.84252600  0.54762200  1
  O  O22  1  0.68469900  0.52542400  0.04633300  1
  O  O23  1  0.99356100  0.85455100  0.28436800  1
  O  O24  1  0.99938500  0.81097200  0.04848600  1
  O  O25  1  0.61401800  0.19511900  0.87511800  1
  O  O26  1  0.33196700  0.84921400  0.88102500  1
  O  O27  1  0.98405400  0.54672500  0.37874500  1
  O  O28  1  0.35723000  0.80128900  0.61963600  1
  O  O29  1  0.95293600  0.55226900  0.12375800  1
  O  O30  1  0.35264300  0.78537100  0.38064700  1
  O  O31  1  0.32179600  0.53904700  0.71283000  1
  O  O32  1  0.72178500  0.80849800  0.95786300  1
  O  O33  1  0.28666500  0.54194000  0.45622400  1
  O  O34  1  0.68146100  0.78742500  0.71377600  1
  O  O35  1  0.62647700  0.53381900  0.79044300  1
loop_
_geom_bond_atom_site_label_1
_geom_bond_atom_site_label_2
_geom_bond_distance
_geom_bond_site_symmetry_2
Li0 O4 2.060380 1_555
Li0 O32 2.113327 1_544
Li0 O12 2.117595 1_554
Li0 O11 2.121232 1_654
Li0 O24 2.240257 1_545
Li0 O22 2.442760 1_555
Li1 O27 2.015608 1_555
Li1 O30 2.106114 1_555
Li1 O8 2.134712 1_565
Li1 O2 2.203666 1_565
Li1 O23 2.285263 1_555
Li1 O3 2.533847 1_555
Li2 O31 2.009272 1_555
Li2 O13 2.091818 1_565
Li2 O34 2.120863 1_455
Li2 O28 2.261885 1_555
Li2 O6 2.380665 1_465
Li2 O7 2.479710 1_555
Li3 O29 2.037413 1_555
Li3 O10 2.113524 1_655
Li3 O9 2.128851 1_565
Li3 O16 2.154519 1_565
Li3 O17 2.196438 1_555
Li3 O0 2.446815 1_655
Li4 O33 2.049377 1_555
Li4 O15 2.095679 1_555
Li4 O1 2.142455 1_555
Li4 O21 2.178202 1_555
Li4 O14 2.184122 1_465
Li4 O20 2.331971 1_565
Li5 O18 2.107861 1_565
Li5 O19 2.117504 1_655
Li5 O35 2.134489 1_555
Li5 O25 2.173056 1_565
Li5 O26 2.183041 1_555
Li5 O5 2.207454 1_655
Li6 O4 2.032674 1_555
Li6 O9 2.058493 1_455
Li6 O24 2.073007 1_445
Li6 O22 2.104743 1_455
Li6 O10 2.282691 1_545
Li6 O29 2.357711 1_455
Li7 O14 1.977858 1_455
Li7 O8 1.985935 1_555
Li7 O30 2.194019 1_545
Li7 O27 2.257212 1_455
Li7 O33 2.261385 1_555
Li7 O15 2.265071 1_545
Li8 O18 1.975467 1_555
Li8 O13 1.990748 1_655
Li8 O34 2.177456 1_545
Li8 O31 2.218297 1_555
Li8 O35 2.270030 1_555
Li8 O19 2.312405 1_645
Mn0 O17 1.936639 1_555
Mn0 O23 1.955439 1_455
Mn0 O2 2.042558 1_565
Mn0 O0 2.071951 1_555
Mn0 O3 2.156422 1_555
Mn0 O16 2.239520 1_465
Mn1 O28 1.972900 1_555
Mn1 O21 1.979154 1_655
Mn1 O1 2.000361 1_555
Mn1 O6 2.038285 1_565
Mn1 O7 2.157458 1_655
Mn1 O20 2.292119 1_565
Mn2 O32 1.928064 1_455
Mn2 O26 1.935215 1_555
Mn2 O5 1.962951 1_555
Mn2 O11 1.990350 1_565
Mn2 O25 2.289141 1_465
Mn2 O12 2.322653 1_555
Mn3 O16 1.918627 1_555
Mn3 O2 1.926938 1_555
Mn3 O3 1.957773 1_555
Mn3 O23 1.964124 1_545
Mn3 O17 1.968719 1_545
Mn3 O0 2.041762 1_555
Mn4 O6 1.949972 1_455
Mn4 O20 1.950484 1_555
Mn4 O7 1.980996 1_555
Mn4 O21 2.007251 1_545
Mn4 O28 2.190529 1_545
Mn4 O1 2.260286 1_455
Mn5 O24 1.899622 1_555
Mn5 O29 1.943831 1_555
Mn5 O22 1.976366 1_555
Mn5 O9 1.986308 1_565
Mn5 O10 2.008780 1_555
Mn5 O4 2.043420 1_565
Mn6 O25 1.944947 1_555
Mn6 O11 1.951909 1_555
Mn6 O26 1.952168 1_545
Mn6 O12 1.960223 1_555
Mn6 O32 2.275295 1_545
Mn6 O5 2.281427 1_555
Mn7 O33 1.948556 1_655
Mn7 O27 1.962138 1_555
Mn7 O30 1.964384 1_655
Mn7 O14 1.966566 1_565
Mn7 O8 1.966844 1_565
Mn7 O15 1.995836 1_555
Mn8 O29 1.974821 1_555
Mn8 O10 1.988028 1_555
Mn8 O0 2.026069 1_555
Mn8 O16 2.028594 1_555
Mn8 O9 2.182096 1_555
Mn8 O17 2.465860 1_555
Mn9 O34 1.960537 1_555
Mn9 O18 1.961145 1_565
Mn9 O31 1.964487 1_555
Mn9 O35 1.971390 1_555
Mn9 O19 1.976426 1_555
Mn9 O13 1.977912 1_565
Mn10 O15 1.952340 1_555
Mn10 O33 1.969764 1_655
Mn10 O1 2.025658 1_555
Mn10 O20 2.031943 1_655
Mn10 O14 2.198969 1_555
Mn10 O21 2.447647 1_655
Mn11 O12 1.992889 1_554
Mn11 O22 2.008656 1_455
Mn11 O32 2.061797 1_454
Mn11 O4 2.166821 1_555
Mn11 O24 2.168882 1_455
Mn11 O11 2.290499 1_554
Mn12 O19 1.947031 1_555
Mn12 O35 1.969936 1_555
Mn12 O25 2.002113 1_555
Mn12 O5 2.004829 1_555
Mn12 O18 2.278893 1_555
Mn12 O26 2.387263 1_555
Mn13 O27 2.063153 1_455
Mn13 O3 2.103022 1_555
Mn13 O30 2.105258 1_555
Mn13 O8 2.173948 1_555
Mn13 O2 2.208849 1_555
Mn13 O23 2.470444 1_455
Mn14 O31 2.058319 1_555
Mn14 O34 2.099900 1_555
Mn14 O7 2.170661 1_655
Mn14 O13 2.187526 1_655
Mn14 O28 2.257634 1_555
Mn14 O6 2.264220 1_555
Fe0 O4 1.913387 1_555
Fe0 O10 1.956895 1_555
Fe0 O9 1.958483 1_555
Fe0 O24 2.025342 1_455
Fe0 O22 2.093313 1_555
Fe0 O29 2.158953 1_455
Fe1 O14 1.949474 1_555
Fe1 O8 1.962275 1_555
Fe1 O30 1.980662 1_555
Fe1 O15 1.985841 1_555
Fe1 O27 2.046545 1_555
Fe1 O33 2.145713 1_555
Fe2 O18 1.981485 1_555
Fe2 O13 2.011212 1_555
Fe2 O34 2.027892 1_455
Fe2 O31 2.061837 1_555
Fe2 O19 2.063563 1_555
Fe2 O35 2.123762 1_455
Fe3 O3 2.078740 1_555
Fe3 O23 2.129136 1_555
Fe3 O17 2.138141 1_555
Fe3 O0 2.142890 1_655
Fe3 O2 2.179644 1_655
Fe3 O16 2.191566 1_555
Fe4 O28 1.975178 1_555
Fe4 O21 2.026540 1_555
Fe4 O7 2.029010 1_555
Fe4 O6 2.072760 1_555
Fe4 O20 2.082454 1_555
Fe4 O1 2.116153 1_555
Fe5 O26 2.089044 1_555
Fe5 O11 2.101904 1_655
Fe5 O5 2.135428 1_655
Fe5 O32 2.165183 1_555
Fe5 O12 2.167373 1_555
Fe5 O25 2.169729 1_555
