# generated using pymatgen
data_Pm2SiNi
_symmetry_space_group_name_H-M   'P 1'
_cell_length_a   5.01266811
_cell_length_b   5.01268055
_cell_length_c   5.01268347
_cell_angle_alpha   60.00003868
_cell_angle_beta   60.00004344
_cell_angle_gamma   59.99993728
_symmetry_Int_Tables_number   1
_chemical_formula_structural   Pm2SiNi
_chemical_formula_sum   'Pm2 Si1 Ni1'
_cell_volume   89.06238623
_cell_formula_units_Z   1
loop_
 _symmetry_equiv_pos_site_id
 _symmetry_equiv_pos_as_xyz
  1  'x, y, z'
loop_
 _atom_site_type_symbol
 _atom_site_label
 _atom_site_symmetry_multiplicity
 _atom_site_fract_x
 _atom_site_fract_y
 _atom_site_fract_z
 _atom_site_occupancy
  Pm  Pm0  1  0.49999900  0.49999900  0.49999900  1
  Pm  Pm1  1  0.99999900  -0.00000000  -0.00000000  1
  Si  Si0  1  0.75000000  0.75000000  0.75000000  1
  Ni  Ni0  1  0.25000000  0.25000000  0.25000100  1
loop_
_geom_bond_atom_site_label_1
_geom_bond_atom_site_label_2
_geom_bond_distance
_geom_bond_site_symmetry_2
Pm0 Si0 3.069615 1_455
Pm0 Si0 3.069622 1_545
Pm0 Si0 3.069627 1_554
Pm0 Si0 3.069638 1_555
Pm1 Si0 3.069621 1_544
Pm1 Si0 3.069623 1_644
Pm1 Si0 3.069627 1_554
Pm1 Si0 3.069632 1_545
Ni0 Pm0 3.069609 1_555
Ni0 Pm1 3.069615 1_555
Ni0 Pm0 3.069623 1_455
Ni0 Pm1 3.069627 1_465
Ni0 Pm1 3.069627 1_456
Ni0 Pm0 3.069631 1_545
Ni0 Pm1 3.069633 1_455
Ni0 Pm0 3.069640 1_554
