# generated using pymatgen
data_TaFeO4
_symmetry_space_group_name_H-M   'P 1'
_cell_length_a   10.37328083
_cell_length_b   10.37328083
_cell_length_c   10.37328083
_cell_angle_alpha   142.32776535
_cell_angle_beta   142.32776535
_cell_angle_gamma   54.33538511
_symmetry_Int_Tables_number   1
_chemical_formula_structural   TaFeO4
_chemical_formula_sum   'Ta6 Fe6 O24'
_cell_volume   414.07035340
_cell_formula_units_Z   6
loop_
 _symmetry_equiv_pos_site_id
 _symmetry_equiv_pos_as_xyz
  1  'x, y, z'
loop_
 _atom_site_type_symbol
 _atom_site_label
 _atom_site_symmetry_multiplicity
 _atom_site_fract_x
 _atom_site_fract_y
 _atom_site_fract_z
 _atom_site_occupancy
  Ta  Ta0  1  0.08960400  0.58960400  0.50000000  1
  Ta  Ta1  1  0.16808800  0.16808800  0.00000000  1
  Ta  Ta2  1  0.82735600  0.82735600  0.00000000  1
  Ta  Ta3  1  0.33960400  0.33960400  0.00000000  1
  Ta  Ta4  1  0.57735600  0.07735600  0.50000000  1
  Ta  Ta5  1  0.91808800  0.41808800  0.50000000  1
  Fe  Fe0  1  0.99753900  0.99753900  0.00000000  1
  Fe  Fe1  1  0.25391200  0.75391200  0.50000000  1
  Fe  Fe2  1  0.41419500  0.91419500  0.50000000  1
  Fe  Fe3  1  0.50391200  0.50391200  0.00000000  1
  Fe  Fe4  1  0.66419500  0.66419500  0.00000000  1
  Fe  Fe5  1  0.74753900  0.24753900  0.50000000  1
  O  O0  1  0.08528700  0.28308400  0.19779700  1
  O  O1  1  0.30264300  0.00164300  0.30100000  1
  O  O2  1  0.13271300  0.83343400  0.29927900  1
  O  O3  1  0.53415500  0.83343400  0.70072100  1
  O  O4  1  0.36103100  0.66487300  0.69615700  1
  O  O5  1  0.03308400  0.33528700  0.69779700  1
  O  O6  1  0.70064300  0.00164300  0.69900000  1
  O  O7  1  0.19166200  0.49982500  0.69183700  1
  O  O8  1  0.24982500  0.05798800  0.80816300  1
  O  O9  1  0.75164300  0.55264300  0.80100000  1
  O  O10  1  0.58343400  0.38271300  0.79927900  1
  O  O11  1  0.41487300  0.21871600  0.80384300  1
  O  O12  1  0.08528700  0.88749000  0.80220300  1
  O  O13  1  0.41487300  0.61103100  0.19615700  1
  O  O14  1  0.58343400  0.78415500  0.20072100  1
  O  O15  1  0.91459000  0.11426100  0.19967100  1
  O  O16  1  0.75164300  0.95064300  0.19900000  1
  O  O17  1  0.24982500  0.44166200  0.19183700  1
  O  O18  1  0.80798800  0.49982500  0.30816300  1
  O  O19  1  0.96871600  0.66487300  0.30384300  1
  O  O20  1  0.46491900  0.16459000  0.30032900  1
  O  O21  1  0.63749000  0.33528700  0.30220300  1
  O  O22  1  0.86426100  0.16459000  0.69967100  1
  O  O23  1  0.91459000  0.71491900  0.80032900  1
loop_
_geom_bond_atom_site_label_1
_geom_bond_atom_site_label_2
_geom_bond_distance
_geom_bond_site_symmetry_2
Fe0 O1 2.017606 1_665
Fe0 O6 2.017606 1_564
Fe0 O15 2.032949 1_565
Fe0 O23 2.032949 1_554
Fe0 O12 2.092497 1_654
Fe0 O0 2.092497 1_665
Fe1 O2 1.990491 1_555
Fe1 O3 1.990491 1_555
Fe1 O8 2.065541 1_565
Fe1 O17 2.065541 1_555
Fe1 O4 2.104113 1_555
Fe1 O19 2.104118 1_455
Fe2 O3 2.007414 1_555
Fe2 O2 2.007414 1_555
Fe2 O13 2.035262 1_555
Fe2 O11 2.035265 1_565
Fe2 O6 2.093336 1_565
Fe2 O1 2.093336 1_565
Fe3 O14 1.990491 1_555
Fe3 O10 1.990491 1_554
Fe3 O18 2.065541 1_555
Fe3 O7 2.065541 1_554
Fe3 O13 2.104113 1_555
Fe3 O11 2.104118 1_554
Fe4 O10 2.007414 1_554
Fe4 O14 2.007414 1_555
Fe4 O4 2.035262 1_554
Fe4 O19 2.035265 1_555
Fe4 O9 2.093336 1_554
Fe4 O16 2.093336 1_555
Fe5 O16 2.017606 1_545
Fe5 O9 2.017606 1_555
Fe5 O20 2.032949 1_555
Fe5 O22 2.032949 1_555
Fe5 O21 2.092497 1_555
Fe5 O5 2.092497 1_655
O0 Ta1 2.022648 1_555
O0 Ta0 2.025809 1_555
O1 Ta4 1.931255 1_555
O2 Ta2 2.007792 1_455
O3 Ta2 2.007792 1_556
O4 Ta0 1.912207 1_555
O5 Ta5 2.022648 1_455
O5 Ta3 2.025809 1_556
O6 Ta4 1.931255 1_555
O7 Ta5 1.981734 1_455
O7 Ta0 2.096948 1_555
O8 Ta1 1.981734 1_556
O8 Ta3 2.096948 1_556
O9 Ta2 1.931255 1_556
O10 Ta4 2.007792 1_555
O11 Ta3 1.912198 1_556
O12 Ta1 2.022648 1_566
O12 Ta0 2.025809 1_555
O13 Ta3 1.912207 1_555
O14 Ta4 2.007792 1_565
O15 Ta5 2.012725 1_555
O15 Ta2 2.093161 1_545
O16 Ta2 1.931255 1_555
O17 Ta1 1.981734 1_555
O17 Ta3 2.096948 1_555
O18 Ta5 1.981734 1_555
O18 Ta0 2.096948 1_655
O19 Ta0 1.912198 1_655
O20 Ta1 2.012725 1_555
O20 Ta4 2.093161 1_555
O21 Ta5 2.022648 1_555
O21 Ta3 2.025809 1_555
O22 Ta1 2.012725 1_656
O22 Ta4 2.093161 1_555
O23 Ta5 2.012725 1_555
O23 Ta2 2.093161 1_556
