# generated using pymatgen
data_Rb(MoS)3
_symmetry_space_group_name_H-M   'P 1'
_cell_length_a   9.09126801
_cell_length_b   9.09126902
_cell_length_c   4.42703349
_cell_angle_alpha   90.00000000
_cell_angle_beta   90.00000000
_cell_angle_gamma   120.00000522
_symmetry_Int_Tables_number   1
_chemical_formula_structural   Rb(MoS)3
_chemical_formula_sum   'Rb2 Mo6 S6'
_cell_volume   316.87821729
_cell_formula_units_Z   2
loop_
 _symmetry_equiv_pos_site_id
 _symmetry_equiv_pos_as_xyz
  1  'x, y, z'
loop_
 _atom_site_type_symbol
 _atom_site_label
 _atom_site_symmetry_multiplicity
 _atom_site_fract_x
 _atom_site_fract_y
 _atom_site_fract_z
 _atom_site_occupancy
  Rb  Rb0  1  0.33333300  0.66666700  0.75000000  1
  Rb  Rb1  1  0.66666700  0.33333300  0.25000000  1
  Mo  Mo0  1  0.97297660  0.82046434  0.25000000  1
  Mo  Mo1  1  0.84748874  0.02702340  0.25000000  1
  Mo  Mo2  1  0.15251126  0.97297660  0.75000000  1
  Mo  Mo3  1  0.02702340  0.17953566  0.75000000  1
  Mo  Mo4  1  0.17953566  0.15251126  0.25000000  1
  Mo  Mo5  1  0.82046434  0.84748874  0.75000000  1
  S  S0  1  0.94667316  0.65981781  0.75000000  1
  S  S1  1  0.05332684  0.34018219  0.25000000  1
  S  S2  1  0.28685534  0.94667316  0.25000000  1
  S  S3  1  0.65981781  0.71314466  0.25000000  1
  S  S4  1  0.34018219  0.28685534  0.75000000  1
  S  S5  1  0.71314466  0.05332684  0.75000000  1
loop_
_geom_bond_atom_site_label_1
_geom_bond_atom_site_label_2
_geom_bond_distance
_geom_bond_site_symmetry_2
Rb0 S0 3.484512 1_455
Rb0 S5 3.484516 1_565
Rb0 S4 3.484521 1_555
Rb0 S2 3.554428 1_555
Rb0 S2 3.554428 1_556
Rb0 S1 3.554432 1_556
Rb0 S1 3.554432 1_555
Rb0 S3 3.554435 1_555
Rb0 S3 3.554435 1_556
Rb1 S1 3.484512 1_655
Rb1 S2 3.484516 1_545
Rb1 S3 3.484521 1_555
Rb1 S5 3.554428 1_554
Rb1 S5 3.554428 1_555
Rb1 S0 3.554432 1_555
Rb1 S0 3.554432 1_554
Rb1 S4 3.554435 1_555
Rb1 S4 3.554435 1_554
Mo0 S2 2.486994 1_655
Mo0 S3 2.505924 1_555
Mo0 S0 2.596266 1_555
Mo0 S0 2.596266 1_554
Mo1 S3 2.486995 1_545
Mo1 S1 2.505923 1_655
Mo1 S5 2.596271 1_555
Mo1 S5 2.596271 1_554
Mo2 S4 2.486995 1_565
Mo2 S0 2.505923 1_455
Mo2 S2 2.596271 1_556
Mo2 S2 2.596271 1_555
Mo3 S5 2.486994 1_455
Mo3 S4 2.505924 1_555
Mo3 S1 2.596266 1_556
Mo3 S1 2.596266 1_555
Mo4 S1 2.487002 1_555
Mo4 S2 2.505916 1_545
Mo4 S4 2.596268 1_554
Mo4 S4 2.596268 1_555
Mo5 S0 2.487002 1_555
Mo5 S5 2.505916 1_565
Mo5 S3 2.596268 1_555
Mo5 S3 2.596268 1_556
