# generated using pymatgen
data_K4Li3Nb18P12(WO42)2
_symmetry_space_group_name_H-M   'P 1'
_cell_length_a   15.85213865
_cell_length_b   10.57971420
_cell_length_c   10.64673050
_cell_angle_alpha   90.00000000
_cell_angle_beta   90.00000000
_cell_angle_gamma   90.11615064
_symmetry_Int_Tables_number   1
_chemical_formula_structural   K4Li3Nb18P12(WO42)2
_chemical_formula_sum   'K4 Li3 Nb18 P12 W2 O84'
_cell_volume   1785.57117547
_cell_formula_units_Z   1
loop_
 _symmetry_equiv_pos_site_id
 _symmetry_equiv_pos_as_xyz
  1  'x, y, z'
loop_
 _atom_site_type_symbol
 _atom_site_label
 _atom_site_symmetry_multiplicity
 _atom_site_fract_x
 _atom_site_fract_y
 _atom_site_fract_z
 _atom_site_occupancy
  K  K0  1  0.00011603  0.50210818  0.00000000  1
  K  K1  1  0.00806108  0.39113003  0.50000000  1
  K  K2  1  0.50008180  0.00076365  0.00000000  1
  K  K3  1  0.59441266  0.00362285  0.50000000  1
  Li  Li0  1  0.03390832  0.80807057  0.50000000  1
  Li  Li1  1  0.46489224  0.31018218  0.50000000  1
  Li  Li2  1  0.53387365  0.68744819  0.50000000  1
  Nb  Nb0  1  0.21669947  0.82792852  0.50000000  1
  Nb  Nb1  1  0.22289252  0.43037691  0.17692161  1
  Nb  Nb2  1  0.22289252  0.43037691  0.82307839  1
  Nb  Nb3  1  0.27943209  0.92741366  0.17504071  1
  Nb  Nb4  1  0.27943209  0.92741366  0.82495929  1
  Nb  Nb5  1  0.28246721  0.32575582  0.50000000  1
  Nb  Nb6  1  0.42349719  0.63581030  0.18092953  1
  Nb  Nb7  1  0.42349719  0.63581030  0.81907047  1
  Nb  Nb8  1  0.57841411  0.35964584  0.18037306  1
  Nb  Nb9  1  0.57841411  0.35964584  0.81962694  1
  Nb  Nb10  1  0.71732473  0.66846278  0.50000000  1
  Nb  Nb11  1  0.72341859  0.06985118  0.17608647  1
  Nb  Nb12  1  0.72341859  0.06985118  0.82391353  1
  Nb  Nb13  1  0.77814653  0.56987425  0.17540230  1
  Nb  Nb14  1  0.77814653  0.56987425  0.82459770  1
  Nb  Nb15  1  0.79115549  0.17183345  0.50000000  1
  Nb  Nb16  1  0.92292603  0.86178010  0.18057803  1
  Nb  Nb17  1  0.92292603  0.86178010  0.81942197  1
  P  P0  1  0.11957399  0.71470767  0.23225184  1
  P  P1  1  0.11957399  0.71470767  0.76774816  1
  P  P2  1  0.11968910  0.11847690  0.50000000  1
  P  P3  1  0.37824926  0.61902821  0.50000000  1
  P  P4  1  0.38035075  0.21466876  0.23209640  1
  P  P5  1  0.38035075  0.21466876  0.76790360  1
  P  P6  1  0.61936386  0.78516601  0.23163134  1
  P  P7  1  0.61936386  0.78516601  0.76836866  1
  P  P8  1  0.62300448  0.37906684  0.50000000  1
  P  P9  1  0.87771486  0.87921817  0.50000000  1
  P  P10  1  0.88022375  0.28570548  0.22996818  1
  P  P11  1  0.88022375  0.28570548  0.77003182  1
  W  W0  1  0.07712477  0.14249093  0.18117424  1
  W  W1  1  0.07712477  0.14249093  0.81882576  1
  O  O0  1  0.00087759  0.00370830  0.20442548  1
  O  O1  1  0.00087759  0.00370830  0.79557452  1
  O  O2  1  0.03084496  0.73808902  0.81849787  1
  O  O3  1  0.03084496  0.73808902  0.18150213  1
  O  O4  1  0.07197949  0.12844986  0.00000000  1
  O  O5  1  0.07435257  0.17279439  0.38195209  1
  O  O6  1  0.07435257  0.17279439  0.61804791  1
  O  O7  1  0.12052262  0.97216017  0.50000000  1
  O  O8  1  0.12397450  0.74046866  0.37583219  1
  O  O9  1  0.12397450  0.74046866  0.62416781  1
  O  O10  1  0.13426347  0.30888161  0.16347749  1
  O  O11  1  0.13426347  0.30888161  0.83652251  1
  O  O12  1  0.13884613  0.57231852  0.20699107  1
  O  O13  1  0.13884613  0.57231852  0.79300893  1
  O  O14  1  0.17477969  0.05818464  0.20330537  1
  O  O15  1  0.17477969  0.05818464  0.79669463  1
  O  O16  1  0.18591283  0.79616527  0.16256424  1
  O  O17  1  0.18591283  0.79616527  0.83743576  1
  O  O18  1  0.21305789  0.16685452  0.50000000  1
  O  O19  1  0.22624150  0.39960072  0.36756617  1
  O  O20  1  0.22624150  0.39960072  0.63243383  1
  O  O21  1  0.22705434  0.46667321  0.00000000  1
  O  O22  1  0.26828526  0.97154603  0.00000000  1
  O  O23  1  0.27052925  0.90239493  0.36585124  1
  O  O24  1  0.27052925  0.90239493  0.63414876  1
  O  O25  1  0.28567168  0.66833338  0.50000000  1
  O  O26  1  0.31345416  0.29578384  0.16251823  1
  O  O27  1  0.31345416  0.29578384  0.83748177  1
  O  O28  1  0.32070531  0.55528822  0.20742480  1
  O  O29  1  0.32070531  0.55528822  0.79257520  1
  O  O30  1  0.35958442  0.07289201  0.20675345  1
  O  O31  1  0.35958442  0.07289201  0.79324655  1
  O  O32  1  0.36535854  0.81189175  0.16042570  1
  O  O33  1  0.36535854  0.81189175  0.83957430  1
  O  O34  1  0.37606943  0.24116864  0.37548813  1
  O  O35  1  0.37606943  0.24116864  0.62451187  1
  O  O36  1  0.37686554  0.47222516  0.50000000  1
  O  O37  1  0.42832319  0.67082733  0.38555823  1
  O  O38  1  0.42832319  0.67082733  0.61444177  1
  O  O39  1  0.42735338  0.62275515  0.00000000  1
  O  O40  1  0.46892495  0.23657186  0.18104899  1
  O  O41  1  0.46892495  0.23657186  0.81895101  1
  O  O42  1  0.49981938  0.49907684  0.21051822  1
  O  O43  1  0.49981938  0.49907684  0.78948178  1
  O  O44  1  0.53065130  0.76289428  0.18080650  1
  O  O45  1  0.53065130  0.76289428  0.81919350  1
  O  O46  1  0.57257614  0.37725848  0.00000000  1
  O  O47  1  0.57184730  0.32742554  0.61398634  1
  O  O48  1  0.57184730  0.32742554  0.38601366  1
  O  O49  1  0.62251966  0.52681616  0.50000000  1
  O  O50  1  0.62330609  0.76151057  0.37641337  1
  O  O51  1  0.62330609  0.76151057  0.62358663  1
  O  O52  1  0.63572343  0.18772401  0.16272241  1
  O  O53  1  0.63572343  0.18772401  0.83727759  1
  O  O54  1  0.63871265  0.92827201  0.20938976  1
  O  O55  1  0.63871265  0.92827201  0.79061024  1
  O  O56  1  0.67867267  0.44383406  0.20886929  1
  O  O57  1  0.67867267  0.44383406  0.79113071  1
  O  O58  1  0.68601021  0.70443560  0.16285614  1
  O  O59  1  0.68601021  0.70443560  0.83714386  1
  O  O60  1  0.71525272  0.33149702  0.50000000  1
  O  O61  1  0.72882213  0.10115547  0.36826419  1
  O  O62  1  0.72882213  0.10115547  0.63173581  1
  O  O63  1  0.72960835  0.02871678  0.00000000  1
  O  O64  1  0.76982662  0.52881763  0.00000000  1
  O  O65  1  0.77315218  0.59788101  0.36681502  1
  O  O66  1  0.77315218  0.59788101  0.63318498  1
  O  O67  1  0.78478713  0.83100899  0.50000000  1
  O  O68  1  0.81519758  0.20402810  0.15945927  1
  O  O69  1  0.81519758  0.20402810  0.84054073  1
  O  O70  1  0.82205679  0.94467687  0.20878159  1
  O  O71  1  0.82205679  0.94467687  0.79121841  1
  O  O72  1  0.86351886  0.42778660  0.20284688  1
  O  O73  1  0.86351886  0.42778660  0.79715312  1
  O  O74  1  0.86426181  0.68903403  0.16122326  1
  O  O75  1  0.86426181  0.68903403  0.83877674  1
  O  O76  1  0.87489471  0.26371590  0.62693628  1
  O  O77  1  0.87489471  0.26371590  0.37306372  1
  O  O78  1  0.87463611  0.02542854  0.50000000  1
  O  O79  1  0.92836278  0.82939304  0.38557570  1
  O  O80  1  0.92836278  0.82939304  0.61442430  1
  O  O81  1  0.92785875  0.87760442  0.00000000  1
  O  O82  1  0.97062595  0.26071535  0.18213158  1
  O  O83  1  0.97062595  0.26071535  0.81786842  1
loop_
_geom_bond_atom_site_label_1
_geom_bond_atom_site_label_2
_geom_bond_distance
_geom_bond_site_symmetry_2
K0 O73 3.156620 1_454
K0 O72 3.156620 1_455
K0 O2 3.193681 1_554
K0 O3 3.193681 1_555
K0 O13 3.199706 1_554
K0 O12 3.199706 1_555
K0 O83 3.239763 1_454
K0 O82 3.239763 1_455
K1 O6 2.833643 1_555
K1 O5 2.833643 1_555
K1 O77 2.843979 1_455
K1 O76 2.843979 1_455
K2 O40 3.191934 1_555
K2 O41 3.191934 1_554
K2 O44 3.206028 1_545
K2 O45 3.206028 1_544
K2 O55 3.224021 1_544
K2 O54 3.224021 1_545
K2 O30 3.224136 1_555
K2 O31 3.224136 1_554
K2 O32 3.384353 1_545
K2 O33 3.384353 1_544
K2 O53 3.394115 1_554
K2 O52 3.394115 1_555
K3 O62 2.750052 1_555
K3 O61 2.750052 1_555
K3 O50 2.916681 1_545
K3 O51 2.916681 1_545
Li0 O9 2.074065 1_555
Li0 O8 2.074065 1_555
Li0 O80 2.082277 1_455
Li0 O79 2.082277 1_455
Li0 O7 2.211175 1_555
Li1 O35 2.066114 1_555
Li1 O34 2.066114 1_555
Li1 O47 2.092705 1_555
Li1 O48 2.092705 1_555
Li1 O36 2.212675 1_555
Li2 O37 2.076993 1_555
Li2 O38 2.076993 1_555
Li2 O50 2.085817 1_555
Li2 O51 2.085817 1_555
Li2 O49 2.207363 1_555
Nb0 O23 1.840106 1_555
Nb0 O24 1.840106 1_555
Nb0 O25 2.013417 1_555
Nb0 O7 2.159242 1_555
Nb0 O8 2.181484 1_555
Nb0 O9 2.181484 1_555
Nb1 O10 1.907694 1_555
Nb1 O21 1.923486 1_555
Nb1 O26 2.029874 1_555
Nb1 O12 2.034889 1_555
Nb1 O19 2.056394 1_555
Nb1 O28 2.061012 1_555
Nb2 O11 1.907694 1_555
Nb2 O21 1.923486 1_556
Nb2 O27 2.029874 1_555
Nb2 O13 2.034889 1_555
Nb2 O20 2.056394 1_555
Nb2 O29 2.061012 1_555
Nb3 O32 1.838497 1_555
Nb3 O22 1.929406 1_555
Nb3 O30 2.022213 1_565
Nb3 O16 2.033513 1_555
Nb3 O23 2.053498 1_555
Nb3 O14 2.183152 1_565
Nb4 O33 1.838497 1_555
Nb4 O22 1.929406 1_556
Nb4 O31 2.022213 1_565
Nb4 O17 2.033513 1_555
Nb4 O24 2.053498 1_555
Nb4 O15 2.183152 1_565
Nb5 O20 1.842732 1_555
Nb5 O19 1.842732 1_555
Nb5 O18 2.007319 1_555
Nb5 O36 2.152006 1_555
Nb5 O34 2.182940 1_555
Nb5 O35 2.182940 1_555
Nb6 O28 1.858724 1_555
Nb6 O42 1.913838 1_555
Nb6 O39 1.932229 1_555
Nb6 O32 2.091499 1_555
Nb6 O44 2.164202 1_555
Nb6 O37 2.211199 1_555
Nb7 O29 1.858724 1_555
Nb7 O43 1.913838 1_555
Nb7 O39 1.932229 1_556
Nb7 O33 2.091499 1_555
Nb7 O45 2.164202 1_555
Nb7 O38 2.211199 1_555
Nb8 O56 1.845412 1_555
Nb8 O46 1.931639 1_555
Nb8 O42 1.959273 1_555
Nb8 O52 2.043448 1_555
Nb8 O40 2.167662 1_555
Nb8 O48 2.218190 1_555
Nb9 O57 1.845412 1_555
Nb9 O46 1.931639 1_556
Nb9 O43 1.959273 1_555
Nb9 O53 2.043448 1_555
Nb9 O41 2.167662 1_555
Nb9 O47 2.218190 1_555
Nb10 O65 1.831439 1_555
Nb10 O66 1.831439 1_555
Nb10 O67 2.023253 1_555
Nb10 O49 2.120191 1_555
Nb10 O50 2.219825 1_555
Nb10 O51 2.219825 1_555
Nb11 O52 1.874825 1_555
Nb11 O63 1.927138 1_555
Nb11 O68 2.038335 1_555
Nb11 O54 2.040638 1_545
Nb11 O61 2.074437 1_555
Nb11 O70 2.080454 1_545
Nb12 O53 1.874825 1_555
Nb12 O63 1.927138 1_556
Nb12 O69 2.038335 1_555
Nb12 O55 2.040638 1_545
Nb12 O62 2.074437 1_555
Nb12 O71 2.080454 1_545
Nb13 O74 1.862430 1_555
Nb13 O64 1.921782 1_555
Nb13 O72 2.045700 1_555
Nb13 O58 2.046020 1_555
Nb13 O65 2.060892 1_555
Nb13 O56 2.093586 1_555
Nb14 O75 1.862430 1_555
Nb14 O64 1.921782 1_556
Nb14 O73 2.045700 1_555
Nb14 O59 2.046020 1_555
Nb14 O66 2.060892 1_555
Nb14 O57 2.093586 1_555
Nb15 O62 1.870742 1_555
Nb15 O61 1.870742 1_555
Nb15 O78 2.039293 1_555
Nb15 O60 2.075900 1_555
Nb15 O77 2.127974 1_555
Nb15 O76 2.127974 1_555
Nb16 O70 1.849811 1_555
Nb16 O81 1.931411 1_555
Nb16 O0 1.959228 1_665
Nb16 O74 2.059253 1_555
Nb16 O3 2.155992 1_655
Nb16 O79 2.210995 1_555
Nb17 O71 1.849811 1_555
Nb17 O81 1.931411 1_556
Nb17 O1 1.959228 1_665
Nb17 O75 2.059253 1_555
Nb17 O2 2.155992 1_655
Nb17 O80 2.210995 1_555
O0 W0 1.915944 1_555
O1 W1 1.915944 1_555
O2 P1 1.527388 1_555
O3 P0 1.527388 1_555
O4 W1 1.936331 1_554
O4 W0 1.936331 1_555
O5 P2 1.558211 1_555
O5 W0 2.161996 1_555
O6 P2 1.558211 1_555
O6 W1 2.161996 1_555
O7 P2 1.548072 1_565
O8 P0 1.554308 1_555
O9 P1 1.554308 1_555
O10 W0 1.987044 1_555
O11 W1 1.987044 1_555
O12 P0 1.561051 1_555
O13 P1 1.561051 1_555
O14 W0 1.803633 1_555
O15 W1 1.803633 1_555
O16 P0 1.547706 1_555
O17 P1 1.547706 1_555
O18 P2 1.565111 1_555
O25 P3 1.558498 1_555
O26 P4 1.553535 1_555
O27 P5 1.553535 1_555
O30 P4 1.558538 1_555
O31 P5 1.558538 1_555
O34 P4 1.553691 1_555
O35 P5 1.553691 1_555
O36 P3 1.553245 1_555
O37 P3 1.553454 1_555
O38 P3 1.553454 1_555
O40 P4 1.522901 1_555
O41 P5 1.522901 1_555
O44 P6 1.524671 1_555
O45 P7 1.524671 1_555
O47 P8 1.557923 1_555
O48 P8 1.557923 1_555
O49 P8 1.563180 1_555
O50 P6 1.562910 1_555
O51 P7 1.562910 1_555
O54 P6 1.562219 1_555
O55 P7 1.562219 1_555
O58 P6 1.544500 1_555
O59 P7 1.544500 1_555
O60 P8 1.547477 1_555
O67 P9 1.557924 1_555
O68 P10 1.539217 1_555
O69 P11 1.539217 1_555
O72 P10 1.553917 1_555
O73 P11 1.553917 1_555
O76 P11 1.543448 1_555
O77 P10 1.543448 1_555
O78 P9 1.547733 1_545
O79 P9 1.551877 1_555
O80 P9 1.551877 1_555
O82 P10 1.544186 1_555
O82 W0 2.103153 1_655
O83 P11 1.544186 1_555
O83 W1 2.103153 1_655
