# generated using pymatgen
data_RbLiS
_symmetry_space_group_name_H-M   'P 1'
_cell_length_a   4.41180301
_cell_length_b   4.41180301
_cell_length_c   7.26324285
_cell_angle_alpha   90.00000000
_cell_angle_beta   90.00000000
_cell_angle_gamma   90.00000000
_symmetry_Int_Tables_number   1
_chemical_formula_structural   RbLiS
_chemical_formula_sum   'Rb2 Li2 S2'
_cell_volume   141.37180095
_cell_formula_units_Z   2
loop_
 _symmetry_equiv_pos_site_id
 _symmetry_equiv_pos_as_xyz
  1  'x, y, z'
loop_
 _atom_site_type_symbol
 _atom_site_label
 _atom_site_symmetry_multiplicity
 _atom_site_fract_x
 _atom_site_fract_y
 _atom_site_fract_z
 _atom_site_occupancy
  Rb  Rb0  1  0.25000000  0.25000000  0.65953247  1
  Rb  Rb1  1  0.75000000  0.75000000  0.34046753  1
  Li  Li0  1  0.25000000  0.75000000  -0.00000000  1
  Li  Li1  1  0.75000000  0.25000000  -0.00000000  1
  S  S0  1  0.25000000  0.25000000  0.17472365  1
  S  S1  1  0.75000000  0.75000000  0.82527635  1
loop_
_geom_bond_atom_site_label_1
_geom_bond_atom_site_label_2
_geom_bond_distance
_geom_bond_site_symmetry_2
Rb0 S1 3.343834 1_455
Rb0 S1 3.343834 1_555
Rb0 S1 3.343834 1_545
Rb0 S1 3.343834 1_445
Rb0 S0 3.521284 1_555
Rb1 S0 3.343834 1_555
Rb1 S0 3.343834 1_565
Rb1 S0 3.343834 1_655
Rb1 S0 3.343834 1_665
Rb1 S1 3.521284 1_555
Li0 S1 2.544900 1_454
Li0 S0 2.544900 1_555
Li0 S0 2.544900 1_565
Li0 S1 2.544900 1_554
Li1 S0 2.544900 1_655
Li1 S1 2.544900 1_544
Li1 S0 2.544900 1_555
Li1 S1 2.544900 1_554
