# generated using pymatgen
data_Li3V3P8O29
_symmetry_space_group_name_H-M   'P 1'
_cell_length_a   9.76023500
_cell_length_b   9.76516297
_cell_length_c   14.16811562
_cell_angle_alpha   89.78578618
_cell_angle_beta   89.58230021
_cell_angle_gamma   60.16071983
_symmetry_Int_Tables_number   1
_chemical_formula_structural   Li3V3P8O29
_chemical_formula_sum   'Li6 V6 P16 O58'
_cell_volume   1171.31046165
_cell_formula_units_Z   2
loop_
 _symmetry_equiv_pos_site_id
 _symmetry_equiv_pos_as_xyz
  1  'x, y, z'
loop_
 _atom_site_type_symbol
 _atom_site_label
 _atom_site_symmetry_multiplicity
 _atom_site_fract_x
 _atom_site_fract_y
 _atom_site_fract_z
 _atom_site_occupancy
  Li  Li0  1  0.31041300  0.77646700  0.94308400  1
  Li  Li1  1  0.91498200  0.31299200  0.94004400  1
  Li  Li2  1  0.77074200  0.33075800  0.44260000  1
  Li  Li3  1  0.68667600  0.22151100  0.05657100  1
  Li  Li4  1  0.67219400  0.08917900  0.55888000  1
  Li  Li5  1  0.06592100  0.95208200  0.49831000  1
  V  V0  1  0.42699300  0.56800900  0.74470400  1
  V  V1  1  0.56109100  0.43991000  0.25182400  1
  V  V2  1  0.99628400  0.56856000  0.25006900  1
  V  V3  1  0.00511200  0.43794300  0.74512900  1
  V  V4  1  0.56602300  0.99479800  0.75424900  1
  V  V5  1  0.43325100  0.00002700  0.25221600  1
  P  P0  1  0.77302700  0.91379600  0.16155600  1
  P  P1  1  0.91636000  0.78007000  0.65787200  1
  P  P2  1  0.30771800  0.91881900  0.65617000  1
  P  P3  1  0.66485900  0.65990700  0.86902600  1
  P  P4  1  0.66688500  0.66630200  0.36944600  1
  P  P5  1  0.31668600  0.77380700  0.15858000  1
  P  P6  1  0.21902400  0.69243800  0.33952000  1
  P  P7  1  0.91125100  0.31794400  0.15573000  1
  P  P8  1  0.08215200  0.68986500  0.84460400  1
  P  P9  1  0.77302900  0.31718100  0.66023900  1
  P  P10  1  0.67750400  0.23231300  0.83978500  1
  P  P11  1  0.33918800  0.32854900  0.62926900  1
  P  P12  1  0.33422500  0.33232700  0.13256300  1
  P  P13  1  0.68572500  0.08837200  0.34406500  1
  P  P14  1  0.08315800  0.22433600  0.33828100  1
  P  P15  1  0.22567900  0.08773300  0.84086200  1
  O  O0  1  0.76443200  0.01962900  0.43564000  1
  O  O1  1  0.74054500  0.91627600  0.66515200  1
  O  O2  1  0.99968300  0.76291800  0.93316800  1
  O  O3  1  0.91398000  0.74294900  0.16602600  1
  O  O4  1  0.61828700  0.90823000  0.17917300  1
  O  O5  1  0.65984500  0.81248100  0.82163000  1
  O  O6  1  0.46479000  0.92040500  0.67079800  1
  O  O7  1  0.23697300  0.99526600  0.92625800  1
  O  O8  1  0.34303500  0.91623100  0.16908700  1
  O  O9  1  0.81329800  0.66843700  0.32399600  1
  O  O10  1  0.91703700  0.61899800  0.67197200  1
  O  O11  1  0.51887700  0.81255300  0.32664000  1
  O  O12  1  0.66199300  0.66394900  0.97366400  1
  O  O13  1  0.67214200  0.65434900  0.47408100  1
  O  O14  1  0.51450900  0.66306800  0.82772900  1
  O  O15  1  0.90383900  0.47708900  0.17720500  1
  O  O16  1  0.81642500  0.51436700  0.82645100  1
  O  O17  1  0.34561900  0.74388600  0.66954800  1
  O  O18  1  0.20120100  0.79185900  0.24435600  1
  O  O19  1  0.21005900  0.78427800  0.42377800  1
  O  O20  1  0.25444700  0.75804500  0.06696100  1
  O  O21  1  0.47784600  0.62110600  0.18175200  1
  O  O22  1  0.67315600  0.51057700  0.32817900  1
  O  O23  1  0.25460500  0.66176000  0.83628200  1
  O  O24  1  0.61630500  0.47510000  0.67436100  1
  O  O25  1  0.91379000  0.34664800  0.66625500  1
  O  O26  1  0.99727000  0.79685900  0.75225100  1
  O  O27  1  0.99425900  0.79401900  0.57174000  1
  O  O28  1  0.99338400  0.21128600  0.42025500  1
  O  O29  1  0.08434600  0.65341200  0.33199500  1
  O  O30  1  0.38025000  0.53478100  0.32728700  1
  O  O31  1  0.74097400  0.34091400  0.16342900  1
  O  O32  1  0.33222400  0.48155200  0.67462500  1
  O  O33  1  0.51924300  0.38342100  0.82070300  1
  O  O34  1  0.75419100  0.24276400  0.92847400  1
  O  O35  1  0.77053300  0.23428500  0.57185800  1
  O  O36  1  0.79278000  0.20886700  0.75103800  1
  O  O37  1  0.65667000  0.26100000  0.33590800  1
  O  O38  1  0.18446000  0.47538700  0.17706800  1
  O  O39  1  0.09076400  0.52780400  0.82024800  1
  O  O40  1  0.48312300  0.33681500  0.17584000  1
  O  O41  1  0.34534700  0.32785300  0.02803100  1
  O  O42  1  0.34174400  0.33330900  0.52481700  1
  O  O43  1  0.49057700  0.18252100  0.66983500  1
  O  O44  1  0.07945400  0.38409300  0.32867000  1
  O  O45  1  0.18977600  0.32877500  0.67470000  1
  O  O46  1  0.65376000  0.08730300  0.83359900  1
  O  O47  1  0.79685000  0.99552800  0.25594800  1
  O  O48  1  0.76556600  0.00684500  0.07709900  1
  O  O49  1  0.52862800  0.08882500  0.32882300  1
  O  O50  1  0.34097900  0.18222500  0.17845800  1
  O  O51  1  0.38088500  0.09462600  0.82210100  1
  O  O52  1  0.08341700  0.25850800  0.83871200  1
  O  O53  1  0.98572500  0.24876100  0.06338900  1
  O  O54  1  0.00703200  0.20286100  0.24143800  1
  O  O55  1  0.25668200  0.08779600  0.33443200  1
  O  O56  1  0.21652700  0.99027800  0.56978700  1
  O  O57  1  0.20209500  0.00682100  0.74815400  1
loop_
_geom_bond_atom_site_label_1
_geom_bond_atom_site_label_2
_geom_bond_distance
_geom_bond_site_symmetry_2
Li0 O20 1.868844 1_556
Li0 O7 1.900090 1_555
Li0 O23 2.114941 1_555
Li0 O14 2.374122 1_555
Li1 O53 1.871515 1_556
Li1 O34 2.008897 1_555
Li1 O52 2.036607 1_655
Li1 O16 2.344983 1_555
Li2 O28 1.911356 1_555
Li2 O35 2.056765 1_555
Li2 O37 2.185316 1_555
Li2 O22 2.226100 1_555
Li3 O48 1.861236 1_555
Li3 O34 1.971543 1_554
Li3 O31 2.138303 1_555
Li3 O40 2.410296 1_555
Li4 O0 1.923025 1_555
Li4 O35 2.078662 1_555
Li4 O1 2.106565 1_545
Li4 O43 2.192369 1_555
Li5 O19 1.864558 1_555
Li5 O56 1.973718 1_555
Li5 O27 2.237347 1_455
Li5 O28 2.517585 1_465
O0 P13 1.489619 1_555
O1 P1 1.565733 1_555
O1 V4 1.938829 1_555
O2 P8 1.466912 1_655
O3 P0 1.548057 1_555
O3 V2 1.897522 1_555
O4 P0 1.556390 1_555
O4 V5 1.872110 1_565
O5 P3 1.610464 1_555
O5 V4 1.815832 1_555
O6 P2 1.556197 1_555
O6 V4 1.907797 1_555
O7 P15 1.478534 1_565
O8 P5 1.542934 1_555
O8 V5 1.889823 1_565
O9 P4 1.572685 1_555
O9 V2 1.866810 1_555
O10 P1 1.581542 1_555
O10 V3 1.850959 1_655
O11 P4 1.564460 1_555
O11 V5 1.907273 1_565
O12 P3 1.482886 1_555
O13 P4 1.485887 1_555
O14 P3 1.569719 1_555
O14 V0 1.945986 1_555
O15 P7 1.550580 1_555
O15 V2 1.870887 1_555
O16 P3 1.572673 1_555
O16 V3 1.970748 1_655
O17 P2 1.568642 1_555
O17 V0 1.831819 1_555
O18 P5 1.600744 1_555
O18 P6 1.617497 1_555
O19 P6 1.471550 1_555
O20 P5 1.477744 1_555
O21 P5 1.573299 1_555
O21 V1 1.828815 1_555
O22 P4 1.603609 1_555
O22 V1 1.901794 1_555
O23 P8 1.568430 1_555
O23 V0 1.948525 1_555
O24 P9 1.551903 1_555
O24 V0 1.882069 1_555
O25 P9 1.540407 1_555
O25 V3 1.910702 1_655
O26 P1 1.607611 1_555
O26 P8 1.623047 1_655
O27 P1 1.474490 1_555
O28 P14 1.492667 1_655
O29 P6 1.544454 1_555
O29 V2 1.871653 1_455
O30 P6 1.569597 1_555
O30 V1 1.862644 1_555
O31 P7 1.565515 1_555
O31 V1 1.968118 1_555
O32 P11 1.598556 1_555
O32 V0 1.830562 1_555
O33 P10 1.539919 1_555
O33 V0 1.898361 1_555
O34 P10 1.496751 1_555
O35 P9 1.500502 1_555
O36 P9 1.612882 1_555
O36 P10 1.620029 1_555
O37 P13 1.568054 1_555
O37 V1 1.928870 1_555
O38 P12 1.564264 1_555
O38 V2 1.893997 1_455
O39 P8 1.581740 1_555
O39 V3 1.830733 1_555
O40 P12 1.602022 1_555
O40 V1 1.879900 1_555
O41 P12 1.483421 1_555
O42 P11 1.480862 1_555
O43 P11 1.567329 1_555
O43 V4 1.996544 1_545
O44 P14 1.547893 1_555
O44 V2 1.920159 1_455
O45 P11 1.588732 1_555
O45 V3 1.857508 1_555
O46 P10 1.547375 1_555
O46 V4 1.898589 1_545
O47 P13 1.602233 1_565
O47 P0 1.636088 1_555
O48 P0 1.479887 1_545
O49 P13 1.547819 1_555
O49 V5 1.903046 1_555
O50 P12 1.572575 1_555
O50 V5 1.863848 1_555
O51 P15 1.570163 1_555
O51 V4 1.835323 1_545
O52 P15 1.551091 1_555
O52 V3 2.019184 1_555
O53 P7 1.483401 1_555
O54 P7 1.603845 1_455
O54 P14 1.628103 1_555
O55 P14 1.549565 1_555
O55 V5 1.889373 1_555
O56 P2 1.472564 1_555
O57 P15 1.611120 1_555
O57 P2 1.614580 1_545
