# generated using pymatgen
data_Li7V3P8O29
_symmetry_space_group_name_H-M   'P 1'
_cell_length_a   9.85057728
_cell_length_b   9.85656607
_cell_length_c   13.90435335
_cell_angle_alpha   89.94481787
_cell_angle_beta   90.05428707
_cell_angle_gamma   60.13961716
_symmetry_Int_Tables_number   1
_chemical_formula_structural   Li7V3P8O29
_chemical_formula_sum   'Li14 V6 P16 O58'
_cell_volume   1170.78523908
_cell_formula_units_Z   2
loop_
 _symmetry_equiv_pos_site_id
 _symmetry_equiv_pos_as_xyz
  1  'x, y, z'
loop_
 _atom_site_type_symbol
 _atom_site_label
 _atom_site_symmetry_multiplicity
 _atom_site_fract_x
 _atom_site_fract_y
 _atom_site_fract_z
 _atom_site_occupancy
  Li  Li0  1  0.76607849  0.90694833  0.56573125  1
  Li  Li1  1  0.90717427  0.33091448  0.56609441  1
  Li  Li2  1  0.66683512  0.66104219  0.38479323  1
  Li  Li3  1  0.67416441  0.67495373  0.88612744  1
  Li  Li4  1  0.76484613  0.32422260  0.06222877  1
  Li  Li5  1  0.32158002  0.90949035  0.05885232  1
  Li  Li6  1  0.32633569  0.76709770  0.56548426  1
  Li  Li7  1  0.66307022  0.10135346  0.93680176  1
  Li  Li8  1  0.23551847  0.65841338  0.93936427  1
  Li  Li9  1  0.09758835  0.66652843  0.44120441  1
  Li  Li10  1  0.23284515  0.09762258  0.44533973  1
  Li  Li11  1  0.09966653  0.23119524  0.93420609  1
  Li  Li12  1  0.98464866  0.96090577  -0.00002732  1
  Li  Li13  1  0.95219163  0.03067605  0.50358348  1
  V  V0  1  0.56257348  0.43483239  0.25470277  1
  V  V1  1  0.43772863  0.55945366  0.74834772  1
  V  V2  1  0.56550589  0.00038430  0.74844798  1
  V  V3  1  0.43864498  0.00253724  0.24849053  1
  V  V4  1  0.99985154  0.56552042  0.24401085  1
  V  V5  1  0.00179437  0.43609312  0.74969096  1
  P  P0  1  0.91225012  0.78051234  0.84231506  1
  P  P1  1  0.77898348  0.90761366  0.34242544  1
  P  P2  1  0.91190923  0.31513146  0.34189118  1
  P  P3  1  0.66235609  0.66679257  0.12997023  1
  P  P4  1  0.66471972  0.66544354  0.62556643  1
  P  P5  1  0.77284130  0.31539626  0.84479118  1
  P  P6  1  0.69510836  0.22342130  0.65708871  1
  P  P7  1  0.31728428  0.90557116  0.84270189  1
  P  P8  1  0.69193260  0.08657035  0.15690193  1
  P  P9  1  0.31519924  0.77634718  0.34314763  1
  P  P10  1  0.22920147  0.68570141  0.15785056  1
  P  P11  1  0.33010503  0.33466606  0.36936226  1
  P  P12  1  0.33618120  0.33372858  0.87410696  1
  P  P13  1  0.08627238  0.68740147  0.65519595  1
  P  P14  1  0.22744410  0.08501418  0.65736106  1
  P  P15  1  0.08680523  0.22629072  0.15605085  1
  O  O0  1  0.00256018  0.77887041  0.56463162  1
  O  O1  1  0.92115894  0.73964468  0.33940722  1
  O  O2  1  0.77865398  0.01068881  0.06626929  1
  O  O3  1  0.74765320  0.92496165  0.84441111  1
  O  O4  1  0.89747422  0.63196765  0.83684947  1
  O  O5  1  0.80652948  0.67065506  0.17391399  1
  O  O6  1  0.90375045  0.47594524  0.32964842  1
  O  O7  1  0.99770235  0.22649794  0.06760615  1
  O  O8  1  0.91862369  0.33312868  0.84560369  1
  O  O9  1  0.67582611  0.80918193  0.66103478  1
  O  O10  1  0.62773930  0.89480140  0.32879009  1
  O  O11  1  0.80940472  0.51224159  0.66212006  1
  O  O12  1  0.65693761  0.66521671  0.02254100  1
  O  O13  1  0.65208968  0.66598597  0.51685563  1
  O  O14  1  0.66703577  0.51648566  0.17144066  1
  O  O15  1  0.48088586  0.88791112  0.83321607  1
  O  O16  1  0.51021670  0.81601043  0.16954157  1
  O  O17  1  0.74398732  0.34530335  0.34174426  1
  O  O18  1  0.78911596  0.20464622  0.75697598  1
  O  O19  1  0.80197242  0.21244536  0.57631913  1
  O  O20  1  0.76170631  0.23569884  0.93542724  1
  O  O21  1  0.62666530  0.48025398  0.82931507  1
  O  O22  1  0.51180818  0.67435431  0.66971237  1
  O  O23  1  0.66593619  0.25394734  0.16449614  1
  O  O24  1  0.48032276  0.62995834  0.32992154  1
  O  O25  1  0.33365741  0.92290415  0.34382051  1
  O  O26  1  0.79690847  0.99522411  0.24997621  1
  O  O27  1  0.78205747  0.98759001  0.43307189  1
  O  O28  1  0.22710095  0.99513120  0.56802412  1
  O  O29  1  0.66720983  0.08433114  0.65554417  1
  O  O30  1  0.54169158  0.38167909  0.66407771  1
  O  O31  1  0.33385384  0.74129516  0.84348938  1
  O  O32  1  0.47602486  0.33744748  0.32532689  1
  O  O33  1  0.38549969  0.53350883  0.16897973  1
  O  O34  1  0.22140509  0.77804016  0.06891061  1
  O  O35  1  0.23193999  0.76571251  0.43124889  1
  O  O36  1  0.21034286  0.79425910  0.25035575  1
  O  O37  1  0.25173535  0.66825675  0.65926616  1
  O  O38  1  0.48693137  0.18742133  0.83831263  1
  O  O39  1  0.53608408  0.08521221  0.16768614  1
  O  O40  1  0.33436511  0.48248712  0.82331890  1
  O  O41  1  0.33480033  0.35777827  0.98053210  1
  O  O42  1  0.32717412  0.32868207  0.47559475  1
  O  O43  1  0.18241400  0.48385355  0.32849925  1
  O  O44  1  0.37683575  0.09277013  0.66916818  1
  O  O45  1  0.33408950  0.18316230  0.32507415  1
  O  O46  1  0.09044777  0.65699611  0.16271271  1
  O  O47  1  0.98932493  0.79786880  0.74353355  1
  O  O48  1  0.01293760  0.78571453  0.92237124  1
  O  O49  1  0.09222551  0.53102105  0.66476470  1
  O  O50  1  0.19014544  0.32760996  0.83661381  1
  O  O51  1  0.09052696  0.37897706  0.16841822  1
  O  O52  1  0.25313526  0.08273847  0.15702668  1
  O  O53  1  0.22775217  0.99780501  0.93113474  1
  O  O54  1  0.21161070  0.99360320  0.75035092  1
  O  O55  1  0.08112259  0.24721184  0.65819994  1
  O  O56  1  0.00202941  0.22723493  0.43054446  1
  O  O57  1  0.99958246  0.20727104  0.24973513  1
loop_
_geom_bond_atom_site_label_1
_geom_bond_atom_site_label_2
_geom_bond_distance
_geom_bond_site_symmetry_2
Li0 O29 1.968696 1_565
Li0 O0 2.022909 1_655
Li0 O27 2.044800 1_555
Li0 O9 2.080346 1_555
Li1 O19 1.913787 1_555
Li1 O55 1.960340 1_655
Li1 O11 2.048792 1_555
Li1 O56 2.127400 1_655
Li2 O13 1.840893 1_555
Li2 O24 2.147042 1_555
Li2 O6 2.264761 1_555
Li2 O10 2.275031 1_555
Li3 O12 1.911051 1_556
Li3 O4 2.136150 1_555
Li3 O15 2.141711 1_555
Li3 O21 2.328542 1_555
Li4 O20 1.974972 1_554
Li4 O7 1.998554 1_555
Li4 O23 2.030722 1_555
Li4 O14 2.239555 1_555
Li5 O34 1.986210 1_555
Li5 O53 1.989554 1_554
Li5 O52 2.023294 1_565
Li5 O16 2.226539 1_555
Li6 O28 1.954743 1_555
Li6 O37 1.975288 1_555
Li6 O35 2.087552 1_555
Li6 O22 2.145510 1_555
Li7 O3 1.982707 1_545
Li7 O20 1.994753 1_555
Li7 O38 2.032985 1_555
Li7 O2 2.077344 1_556
Li8 O48 1.922619 1_555
Li8 O31 2.042329 1_555
Li8 O34 2.120257 1_556
Li8 O40 2.210321 1_555
Li9 O35 2.003703 1_555
Li9 O0 2.005539 1_555
Li9 O1 2.071083 1_455
Li9 O43 2.214884 1_555
Li10 O56 1.987503 1_555
Li10 O28 1.996855 1_545
Li10 O25 2.061254 1_545
Li10 O45 2.310750 1_555
Li11 O8 1.979101 1_455
Li11 O53 1.998944 1_545
Li11 O50 2.093327 1_555
Li11 O7 2.121576 1_456
Li12 O48 1.936149 1_654
Li12 O2 2.054497 1_565
Li12 O34 2.326634 1_655
Li13 O19 1.946470 1_555
Li13 O27 2.157937 1_545
Li13 O0 2.428090 1_645
Li13 O56 2.443388 1_655
O0 P13 1.527755 1_555
O1 P1 1.547756 1_555
O1 V4 1.996852 1_555
O2 P8 1.498285 1_555
O3 P0 1.535671 1_555
O3 V2 2.053705 1_565
O4 P0 1.543719 1_555
O4 V5 2.069624 1_655
O5 P3 1.563319 1_555
O5 V4 1.918269 1_555
O6 P2 1.555793 1_555
O6 V4 1.981388 1_555
O7 P15 1.509595 1_655
O8 P5 1.530619 1_555
O8 V5 2.075358 1_655
O9 P4 1.554991 1_555
O9 V2 2.043884 1_565
O10 P1 1.567923 1_555
O10 V3 1.966719 1_565
O11 P4 1.556894 1_555
O11 V5 2.053040 1_655
O12 P3 1.495009 1_555
O13 P4 1.516333 1_555
O14 P3 1.568370 1_555
O14 V0 1.967746 1_555
O15 P7 1.538169 1_555
O15 V2 2.057313 1_565
O16 P3 1.587494 1_555
O16 V3 1.948550 1_565
O17 P2 1.527983 1_555
O17 V0 1.964804 1_555
O18 P5 1.592757 1_555
O18 P6 1.627007 1_555
O19 P6 1.506696 1_555
O20 P5 1.517055 1_555
O21 P5 1.558500 1_555
O21 V1 1.971863 1_555
O22 P4 1.588537 1_555
O22 V1 1.957716 1_555
O23 P8 1.542123 1_555
O23 V0 1.996922 1_555
O24 P9 1.557401 1_555
O24 V0 1.975617 1_555
O25 P9 1.543190 1_555
O25 V3 2.061914 1_565
O26 P1 1.606043 1_555
O26 P8 1.619525 1_565
O27 P1 1.495490 1_555
O28 P14 1.527410 1_565
O29 P6 1.526665 1_555
O29 V2 2.045197 1_555
O30 P6 1.542625 1_555
O30 V1 1.926501 1_555
O31 P7 1.544459 1_555
O31 V1 2.047043 1_555
O32 P11 1.575634 1_555
O32 V0 1.851263 1_555
O33 P10 1.530998 1_555
O33 V0 1.927083 1_555
O34 P10 1.513809 1_555
O35 P9 1.507150 1_555
O36 P9 1.605658 1_555
O36 P10 1.624490 1_555
O37 P13 1.545620 1_555
O37 V1 2.019313 1_555
O38 P12 1.550108 1_555
O38 V2 2.035778 1_555
O39 P8 1.549320 1_555
O39 V3 1.904412 1_555
O40 P12 1.618873 1_555
O40 V1 1.862398 1_555
O41 P12 1.497867 1_555
O42 P11 1.479097 1_555
O43 P11 1.571062 1_555
O43 V4 1.953140 1_455
O44 P14 1.519860 1_555
O44 V2 1.951247 1_555
O45 P11 1.598176 1_555
O45 V3 1.882583 1_555
O46 P10 1.529052 1_555
O46 V4 1.920511 1_455
O47 P13 1.604864 1_655
O47 P0 1.619581 1_555
O48 P0 1.508003 1_455
O49 P13 1.518735 1_555
O49 V5 1.973123 1_555
O50 P12 1.558790 1_555
O50 V5 2.015988 1_555
O51 P15 1.533380 1_555
O51 V4 1.911390 1_455
O52 P15 1.542124 1_555
O52 V3 2.033901 1_555
O53 P7 1.523822 1_555
O54 P7 1.606623 1_555
O54 P14 1.626638 1_565
O55 P14 1.529380 1_555
O55 V5 2.062213 1_555
O56 P2 1.512659 1_455
O57 P2 1.615074 1_555
O57 P15 1.622412 1_655
