# generated using pymatgen
data_Li4Mn(PO3)6
_symmetry_space_group_name_H-M   'P 1'
_cell_length_a   7.37615859
_cell_length_b   7.37615859
_cell_length_c   14.03197012
_cell_angle_alpha   86.49842255
_cell_angle_beta   86.49842255
_cell_angle_gamma   64.40268189
_symmetry_Int_Tables_number   1
_chemical_formula_structural   Li4Mn(PO3)6
_chemical_formula_sum   'Li8 Mn2 P12 O36'
_cell_volume   686.72133641
_cell_formula_units_Z   2
loop_
 _symmetry_equiv_pos_site_id
 _symmetry_equiv_pos_as_xyz
  1  'x, y, z'
loop_
 _atom_site_type_symbol
 _atom_site_label
 _atom_site_symmetry_multiplicity
 _atom_site_fract_x
 _atom_site_fract_y
 _atom_site_fract_z
 _atom_site_occupancy
  Li  Li0  1  0.96031800  0.70030600  0.92433600  1
  Li  Li1  1  0.70030600  0.96031800  0.42433600  1
  Li  Li2  1  0.78321600  0.55836300  0.54725100  1
  Li  Li3  1  0.55836300  0.78321600  0.04725100  1
  Li  Li4  1  0.44163700  0.21678400  0.95274900  1
  Li  Li5  1  0.21678400  0.44163700  0.45274900  1
  Li  Li6  1  0.29969400  0.03968200  0.57566400  1
  Li  Li7  1  0.03968200  0.29969400  0.07566400  1
  Mn  Mn0  1  0.37450900  0.62549100  0.75000000  1
  Mn  Mn1  1  0.62549100  0.37450900  0.25000000  1
  P  P0  1  0.96266200  0.85308900  0.61303400  1
  P  P1  1  0.85308900  0.96266200  0.11303400  1
  P  P2  1  0.63064000  0.90827600  0.75082100  1
  P  P3  1  0.90827600  0.63064000  0.25082100  1
  P  P4  1  0.77063300  0.39857000  0.89037500  1
  P  P5  1  0.39857000  0.77063300  0.39037500  1
  P  P6  1  0.60143000  0.22936700  0.60962500  1
  P  P7  1  0.22936700  0.60143000  0.10962500  1
  P  P8  1  0.09172400  0.36936000  0.74917900  1
  P  P9  1  0.36936000  0.09172400  0.24917900  1
  P  P10  1  0.14691100  0.03733800  0.88696600  1
  P  P11  1  0.03733800  0.14691100  0.38696600  1
  O  O0  1  0.86465800  0.81610000  0.71386600  1
  O  O1  1  0.91300300  0.75341500  0.53493400  1
  O  O2  1  0.81610000  0.86465800  0.21386600  1
  O  O3  1  0.75341500  0.91300300  0.03493400  1
  O  O4  1  0.62990800  0.90156700  0.85686500  1
  O  O5  1  0.90156700  0.62990800  0.35686500  1
  O  O6  1  0.81293800  0.50416800  0.96855900  1
  O  O7  1  0.52287500  0.81339800  0.69818900  1
  O  O8  1  0.85933000  0.44745300  0.78852000  1
  O  O9  1  0.50416800  0.81293800  0.46855900  1
  O  O10  1  0.81339800  0.52287500  0.19818900  1
  O  O11  1  0.44745300  0.85933000  0.28852000  1
  O  O12  1  0.90426100  0.15746300  0.90205500  1
  O  O13  1  0.18850600  0.82377000  0.86954100  1
  O  O14  1  0.55953000  0.42888400  0.87405700  1
  O  O15  1  0.15746300  0.90426100  0.40205500  1
  O  O16  1  0.57111600  0.44047000  0.62594300  1
  O  O17  1  0.82377000  0.18850600  0.36954100  1
  O  O18  1  0.17623000  0.81149400  0.63045900  1
  O  O19  1  0.42888400  0.55953000  0.37405700  1
  O  O20  1  0.84253700  0.09573900  0.59794500  1
  O  O21  1  0.44047000  0.57111600  0.12594300  1
  O  O22  1  0.81149400  0.17623000  0.13045900  1
  O  O23  1  0.09573900  0.84253700  0.09794500  1
  O  O24  1  0.55254700  0.14067000  0.71148000  1
  O  O25  1  0.18660200  0.47712500  0.80181100  1
  O  O26  1  0.49583200  0.18706200  0.53144100  1
  O  O27  1  0.14067000  0.55254700  0.21148000  1
  O  O28  1  0.47712500  0.18660200  0.30181100  1
  O  O29  1  0.18706200  0.49583200  0.03144100  1
  O  O30  1  0.09843300  0.37009200  0.64313500  1
  O  O31  1  0.37009200  0.09843300  0.14313500  1
  O  O32  1  0.24658500  0.08699700  0.96506600  1
  O  O33  1  0.18390000  0.13534200  0.78613400  1
  O  O34  1  0.08699700  0.24658500  0.46506600  1
  O  O35  1  0.13534200  0.18390000  0.28613400  1
loop_
_geom_bond_atom_site_label_1
_geom_bond_atom_site_label_2
_geom_bond_distance
_geom_bond_site_symmetry_2
Li0 O6 2.197009 1_555
Li0 O3 2.266743 1_556
Li0 O29 2.276223 1_656
Li0 O13 2.309635 1_655
Li0 O4 2.454338 1_555
Li0 O25 2.464297 1_655
Li1 O9 2.197009 1_555
Li1 O1 2.266743 1_555
Li1 O26 2.276223 1_565
Li1 O17 2.309635 1_565
Li1 O5 2.454338 1_555
Li1 O28 2.464297 1_565
Li2 O1 2.038594 1_555
Li2 O16 2.295720 1_555
Li2 O9 2.380454 1_555
Li2 O30 2.551204 1_655
Li3 O3 2.038594 1_555
Li3 O21 2.295720 1_555
Li3 O6 2.380454 1_554
Li3 O31 2.551204 1_565
Li4 O32 2.038594 1_555
Li4 O14 2.295720 1_555
Li4 O29 2.380454 1_556
Li4 O4 2.551204 1_545
Li5 O34 2.038594 1_555
Li5 O19 2.295720 1_555
Li5 O26 2.380454 1_555
Li5 O5 2.551204 1_455
Li6 O26 2.197009 1_555
Li6 O34 2.266743 1_555
Li6 O9 2.276223 1_545
Li6 O18 2.309635 1_545
Li6 O30 2.454338 1_555
Li6 O7 2.464297 1_545
Li7 O29 2.197009 1_555
Li7 O32 2.266743 1_554
Li7 O6 2.276223 1_454
Li7 O22 2.309635 1_455
Li7 O31 2.454338 1_555
Li7 O10 2.464297 1_455
Mn0 O25 2.176621 1_555
Mn0 O7 2.176621 1_555
Mn0 O18 2.262678 1_555
Mn0 O13 2.262678 1_555
Mn0 O14 2.295113 1_555
Mn0 O16 2.295113 1_555
Mn1 O10 2.176621 1_555
Mn1 O28 2.176621 1_555
Mn1 O17 2.262678 1_555
Mn1 O22 2.262678 1_555
Mn1 O21 2.295113 1_555
Mn1 O19 2.295113 1_555
O0 P0 1.611586 1_555
O0 P2 1.621848 1_555
O1 P0 1.501949 1_555
O2 P1 1.611586 1_555
O2 P3 1.621848 1_555
O3 P1 1.501949 1_555
O4 P2 1.485562 1_555
O5 P3 1.485562 1_555
O6 P4 1.504615 1_555
O7 P2 1.510821 1_555
O8 P4 1.620926 1_555
O8 P8 1.626341 1_655
O9 P5 1.504615 1_555
O10 P3 1.510821 1_555
O11 P5 1.620926 1_555
O11 P9 1.626341 1_565
O12 P4 1.621938 1_555
O12 P10 1.624710 1_655
O13 P10 1.501924 1_565
O14 P4 1.504501 1_555
O15 P5 1.621938 1_555
O15 P11 1.624710 1_565
O16 P6 1.504501 1_555
O17 P11 1.501924 1_655
O18 P0 1.501924 1_455
O19 P5 1.504501 1_555
O20 P6 1.621938 1_555
O20 P0 1.624710 1_545
O21 P7 1.504501 1_555
O22 P1 1.501924 1_545
O23 P7 1.621938 1_555
O23 P1 1.624710 1_455
O24 P6 1.620926 1_555
O24 P2 1.626341 1_545
O25 P8 1.510821 1_555
O26 P6 1.504615 1_555
O27 P7 1.620926 1_555
O27 P3 1.626341 1_455
O28 P9 1.510821 1_555
O29 P7 1.504615 1_555
O30 P8 1.485562 1_555
O31 P9 1.485562 1_555
O32 P10 1.501949 1_555
O33 P10 1.611586 1_555
O33 P8 1.621848 1_555
O34 P11 1.501949 1_555
O35 P11 1.611586 1_555
O35 P9 1.621848 1_555
