# generated using pymatgen
data_NbAlFe2
_symmetry_space_group_name_H-M   'P 1'
_cell_length_a   4.16458403
_cell_length_b   4.16458403
_cell_length_c   4.16458403
_cell_angle_alpha   60.00000000
_cell_angle_beta   60.00000000
_cell_angle_gamma   60.00000000
_symmetry_Int_Tables_number   1
_chemical_formula_structural   NbAlFe2
_chemical_formula_sum   'Nb1 Al1 Fe2'
_cell_volume   51.07400222
_cell_formula_units_Z   1
loop_
 _symmetry_equiv_pos_site_id
 _symmetry_equiv_pos_as_xyz
  1  'x, y, z'
loop_
 _atom_site_type_symbol
 _atom_site_label
 _atom_site_symmetry_multiplicity
 _atom_site_fract_x
 _atom_site_fract_y
 _atom_site_fract_z
 _atom_site_occupancy
  Nb  Nb0  1  0.75000000  0.75000000  0.75000000  1
  Al  Al0  1  0.24999900  0.24999900  0.24999900  1
  Fe  Fe0  1  -0.00000000  0.00000000  0.00000000  1
  Fe  Fe1  1  0.50000100  0.50000100  0.50000100  1
loop_
_geom_bond_atom_site_label_1
_geom_bond_atom_site_label_2
_geom_bond_distance
_geom_bond_site_symmetry_2
Al0 Fe0 2.550266 1_555
Al0 Fe1 2.550270 1_545
Al0 Fe1 2.550270 1_455
Al0 Fe1 2.550270 1_554
Al0 Fe0 2.550280 1_556
Al0 Fe0 2.550280 1_655
Al0 Fe0 2.550280 1_565
Al0 Fe1 2.550297 1_555
Fe0 Nb0 2.550276 1_445
Fe0 Nb0 2.550276 1_454
Fe0 Nb0 2.550276 1_444
Fe0 Nb0 2.550276 1_544
Fe1 Nb0 2.550266 1_555
Fe1 Nb0 2.550280 1_545
Fe1 Nb0 2.550280 1_455
Fe1 Nb0 2.550280 1_554
