# generated using pymatgen
data_NaSr2In
_symmetry_space_group_name_H-M   'P 1'
_cell_length_a   5.90395926
_cell_length_b   5.90395926
_cell_length_c   5.90395926
_cell_angle_alpha   60.00000000
_cell_angle_beta   60.00000000
_cell_angle_gamma   60.00000000
_symmetry_Int_Tables_number   1
_chemical_formula_structural   NaSr2In
_chemical_formula_sum   'Na1 Sr2 In1'
_cell_volume   145.51744427
_cell_formula_units_Z   1
loop_
 _symmetry_equiv_pos_site_id
 _symmetry_equiv_pos_as_xyz
  1  'x, y, z'
loop_
 _atom_site_type_symbol
 _atom_site_label
 _atom_site_symmetry_multiplicity
 _atom_site_fract_x
 _atom_site_fract_y
 _atom_site_fract_z
 _atom_site_occupancy
  Na  Na0  1  0.74999900  0.74999900  0.74999900  1
  Sr  Sr0  1  0.00000000  -0.00000000  -0.00000000  1
  Sr  Sr1  1  0.50000000  0.50000000  0.50000000  1
  In  In0  1  0.24999900  0.24999900  0.24999900  1
loop_
_geom_bond_atom_site_label_1
_geom_bond_atom_site_label_2
_geom_bond_distance
_geom_bond_site_symmetry_2
Na0 Sr1 3.615407 1_555
Na0 Sr0 3.615417 1_665
Na0 Sr0 3.615417 1_656
Na0 Sr0 3.615417 1_566
Na0 Sr1 3.615427 1_655
Na0 Sr1 3.615427 1_556
Na0 Sr1 3.615427 1_565
Na0 Sr0 3.615436 1_666
In0 Sr0 3.615407 1_555
In0 Sr1 3.615417 1_554
In0 Sr1 3.615417 1_545
In0 Sr1 3.615417 1_455
In0 Sr0 3.615427 1_655
In0 Sr0 3.615427 1_556
In0 Sr0 3.615427 1_565
In0 Sr1 3.615436 1_555
