# generated using pymatgen
data_Co3OF5
_symmetry_space_group_name_H-M   'P 1'
_cell_length_a   5.67641900
_cell_length_b   5.67813855
_cell_length_c   7.47641172
_cell_angle_alpha   72.51273318
_cell_angle_beta   72.67313276
_cell_angle_gamma   71.67930234
_symmetry_Int_Tables_number   1
_chemical_formula_structural   Co3OF5
_chemical_formula_sum   'Co6 O2 F10'
_cell_volume   212.61404893
_cell_formula_units_Z   2
loop_
 _symmetry_equiv_pos_site_id
 _symmetry_equiv_pos_as_xyz
  1  'x, y, z'
loop_
 _atom_site_type_symbol
 _atom_site_label
 _atom_site_symmetry_multiplicity
 _atom_site_fract_x
 _atom_site_fract_y
 _atom_site_fract_z
 _atom_site_occupancy
  Co  Co0  1  0.65226600  0.66730800  0.83857600  1
  Co  Co1  1  0.66569100  0.67197000  0.33560500  1
  Co  Co2  1  0.31039500  0.31672400  0.66489200  1
  Co  Co3  1  0.33241400  0.34832600  0.16095300  1
  Co  Co4  1  0.00483900  0.00663500  0.50385100  1
  Co  Co5  1  0.03322900  0.97423900  0.99351900  1
  O  O0  1  0.11021400  0.11006800  0.70189100  1
  O  O1  1  0.29888300  0.70396600  0.00153000  1
  F  F0  1  0.36598800  0.97710500  0.32771700  1
  F  F1  1  0.02358200  0.63723200  0.66828100  1
  F  F2  1  0.54872700  0.54899300  0.63726400  1
  F  F3  1  0.90226100  0.90522900  0.29612100  1
  F  F4  1  0.23625900  0.23870200  0.96085900  1
  F  F5  1  0.42888800  0.43200600  0.37631200  1
  F  F6  1  0.76953000  0.77330900  0.03390400  1
  F  F7  1  0.96876600  0.36867800  0.33079000  1
  F  F8  1  0.63428200  0.02947600  0.66580700  1
  F  F9  1  0.71378700  0.29003600  0.00212800  1
loop_
_geom_bond_atom_site_label_1
_geom_bond_atom_site_label_2
_geom_bond_distance
_geom_bond_site_symmetry_2
Co0 O1 1.996416 1_556
Co0 F8 2.063493 1_565
Co0 F6 2.072946 1_556
Co0 F1 2.097309 1_655
Co0 F9 2.101421 1_556
Co0 F2 2.108284 1_555
Co1 F0 2.011193 1_555
Co1 F7 2.016071 1_555
Co1 F3 2.071651 1_555
Co1 F6 2.099451 1_555
Co1 F5 2.101084 1_555
Co1 F2 2.113761 1_555
Co2 O0 1.789019 1_555
Co2 F5 2.024724 1_555
Co2 F1 2.025759 1_555
Co2 F8 2.038644 1_555
Co2 F4 2.059882 1_555
Co2 F2 2.098533 1_555
Co3 O1 1.995424 1_555
Co3 F4 2.045222 1_554
Co3 F7 2.064862 1_455
Co3 F5 2.065596 1_555
Co3 F0 2.084080 1_545
Co3 F9 2.112023 1_555
Co4 O0 2.041070 1_555
Co4 F7 2.058325 1_455
Co4 F0 2.067233 1_545
Co4 F1 2.076084 1_545
Co4 F8 2.076830 1_455
Co4 F3 2.090334 1_445
Co5 O1 1.782239 1_556
Co5 O0 2.042886 1_565
Co5 F6 2.056902 1_456
Co5 F4 2.083945 1_565
Co5 F9 2.112637 1_466
Co5 F3 2.114974 1_456
