# generated using pymatgen
data_Ti2N2O
_symmetry_space_group_name_H-M   'P 1'
_cell_length_a   8.21563900
_cell_length_b   8.21920064
_cell_length_c   8.22800939
_cell_angle_alpha   109.59115730
_cell_angle_beta   109.43630530
_cell_angle_gamma   109.31135197
_symmetry_Int_Tables_number   1
_chemical_formula_structural   Ti2N2O
_chemical_formula_sum   'Ti16 N16 O8'
_cell_volume   428.09719792
_cell_formula_units_Z   8
loop_
 _symmetry_equiv_pos_site_id
 _symmetry_equiv_pos_as_xyz
  1  'x, y, z'
loop_
 _atom_site_type_symbol
 _atom_site_label
 _atom_site_symmetry_multiplicity
 _atom_site_fract_x
 _atom_site_fract_y
 _atom_site_fract_z
 _atom_site_occupancy
  Ti  Ti0  1  0.70020500  0.16216500  0.04243300  1
  Ti  Ti1  1  0.98967800  0.98900300  0.00040500  1
  Ti  Ti2  1  0.48903600  0.99448600  0.49869600  1
  Ti  Ti3  1  0.51402100  0.50809200  0.98840000  1
  Ti  Ti4  1  0.05530300  0.80560100  0.24290900  1
  Ti  Ti5  1  0.45106200  0.70101800  0.75126200  1
  Ti  Ti6  1  0.32272400  0.02308400  0.71419900  1
  Ti  Ti7  1  0.34968500  0.56371800  0.20400600  1
  Ti  Ti8  1  0.19278600  0.15719200  0.54957300  1
  Ti  Ti9  1  0.78441100  0.82787400  0.46279800  1
  Ti  Ti10  1  0.67304600  0.46806700  0.78548100  1
  Ti  Ti11  1  0.67261900  0.95541700  0.29712100  1
  Ti  Ti12  1  0.99188000  0.48078800  0.51212100  1
  Ti  Ti13  1  0.54498800  0.29580900  0.24993500  1
  Ti  Ti14  1  0.96518500  0.21442700  0.74568300  1
  Ti  Ti15  1  0.29390700  0.83410600  0.95153200  1
  N  N0  1  0.21487500  0.67564800  0.27458100  1
  N  N1  1  0.99730300  0.03568300  0.22746900  1
  N  N2  1  0.49196400  0.50224300  0.27319800  1
  N  N3  1  0.17874300  0.68888700  0.77389300  1
  N  N4  1  0.51111400  0.50150800  0.72393800  1
  N  N5  1  0.24896600  0.47523000  0.48780000  1
  N  N6  1  0.55963800  0.28556300  0.99036000  1
  N  N7  1  0.82621800  0.31659900  0.22491900  1
  N  N8  1  0.03483900  0.80956800  0.95853200  1
  N  N9  1  0.99788400  0.95544700  0.77587100  1
  N  N10  1  0.40993800  0.67540100  0.55192500  1
  N  N11  1  0.68907100  0.74382700  0.76757000  1
  N  N12  1  0.54366800  0.99179000  0.73384400  1
  N  N13  1  0.82712300  0.06162000  0.95039100  1
  N  N14  1  0.18581700  0.91120800  0.54018500  1
  N  N15  1  0.77891500  0.31940100  0.72735900  1
  O  O0  1  0.81649400  0.08772000  0.45969100  1
  O  O1  1  0.16908400  0.93783400  0.05454500  1
  O  O2  1  0.46267300  0.01505600  0.26292000  1
  O  O3  1  0.29765000  0.25091600  0.23934500  1
  O  O4  1  0.59656000  0.32882500  0.44856500  1
  O  O5  1  0.96884500  0.19749800  0.03967600  1
  O  O6  1  0.76084100  0.53637200  0.50513900  1
  O  O7  1  0.44124400  0.71530800  0.01173100  1
loop_
_geom_bond_atom_site_label_1
_geom_bond_atom_site_label_2
_geom_bond_distance
_geom_bond_site_symmetry_2
N0 Ti7 1.775925 1_555
N0 Ti4 1.952664 1_555
N0 Ti2 2.330737 1_555
N1 Ti1 1.751322 1_545
N1 Ti4 2.129846 1_645
N1 Ti8 2.220834 1_655
N2 Ti7 1.444451 1_555
N2 Ti13 1.852523 1_555
N2 Ti9 2.412880 1_555
N2 Ti3 2.424601 1_554
N3 Ti15 1.272384 1_555
N3 Ti12 1.874460 1_455
N3 Ti5 2.278635 1_555
N4 Ti10 1.410216 1_555
N4 Ti5 1.828830 1_555
N4 Ti3 2.150360 1_555
N4 Ti8 2.606110 1_555
N5 Ti5 1.941340 1_555
N5 Ti12 2.200496 1_455
N5 Ti8 2.748379 1_555
N6 Ti0 1.811830 1_556
N6 Ti3 1.988748 1_555
N6 Ti6 2.144238 1_555
N6 Ti13 2.154141 1_556
N7 Ti0 1.325024 1_555
N7 Ti12 1.940086 1_555
N7 Ti13 2.342832 1_555
N8 O1 1.022016 1_556
N8 Ti1 1.593007 1_456
N8 Ti4 2.301573 1_556
N9 Ti1 1.802009 1_556
N9 Ti9 2.185553 1_555
N9 Ti14 2.313701 1_565
N9 Ti6 2.792496 1_665
N10 Ti5 1.483623 1_555
N10 N5 1.499528 1_555
N11 Ti5 1.817703 1_555
N11 Ti1 2.191104 1_556
N12 Ti2 1.844664 1_555
N12 Ti6 1.878467 1_565
N12 Ti0 2.076794 1_566
N12 Ti5 2.326093 1_555
N13 O5 1.078481 1_556
N13 Ti1 1.623355 1_546
N13 Ti0 1.737667 1_556
N14 Ti6 1.233663 1_565
N14 Ti8 1.978042 1_565
N14 Ti4 2.025137 1_555
N15 Ti10 1.751053 1_555
N15 Ti14 1.978899 1_555
N15 Ti2 2.405276 1_545
O0 Ti11 1.221095 1_545
O0 Ti14 1.927746 1_555
O0 Ti9 2.073699 1_545
O0 Ti8 2.730919 1_655
O1 Ti1 1.626796 1_455
O1 Ti15 1.780186 1_554
O1 Ti4 2.424661 1_555
O2 Ti11 1.903479 1_545
O2 Ti2 1.950258 1_545
O2 Ti15 2.101261 1_544
O2 Ti13 2.230446 1_555
O3 Ti13 1.907253 1_555
O3 Ti1 2.269354 1_445
O4 Ti13 1.445643 1_555
O4 O6 1.573172 1_555
O5 Ti1 1.711668 1_545
O5 Ti14 2.460039 1_554
O6 Ti13 1.970260 1_555
O6 Ti12 2.081708 1_555
O6 Ti9 2.489390 1_555
O7 Ti15 1.836034 1_554
O7 Ti3 1.955946 1_554
O7 Ti11 2.112473 1_555
O7 Ti5 2.136788 1_554
O7 Ti7 2.472862 1_555
