# generated using pymatgen
data_BaNd2PdO5
_symmetry_space_group_name_H-M   'P 1'
_cell_length_a   6.81248700
_cell_length_b   6.81248700
_cell_length_c   5.98297600
_cell_angle_alpha   90.00000000
_cell_angle_beta   90.00000000
_cell_angle_gamma   90.00000000
_symmetry_Int_Tables_number   1
_chemical_formula_structural   BaNd2PdO5
_chemical_formula_sum   'Ba2 Nd4 Pd2 O10'
_cell_volume   277.66979127
_cell_formula_units_Z   2
loop_
 _symmetry_equiv_pos_site_id
 _symmetry_equiv_pos_as_xyz
  1  'x, y, z'
loop_
 _atom_site_type_symbol
 _atom_site_label
 _atom_site_symmetry_multiplicity
 _atom_site_fract_x
 _atom_site_fract_y
 _atom_site_fract_z
 _atom_site_occupancy
  Ba  Ba0  1  0.50000000  0.50000000  0.00000000  1
  Ba  Ba1  1  0.00000000  0.00000000  0.00000000  1
  Nd  Nd0  1  0.67367800  0.17367800  0.50000000  1
  Nd  Nd1  1  0.17367800  0.32632200  0.50000000  1
  Nd  Nd2  1  0.82632200  0.67367800  0.50000000  1
  Nd  Nd3  1  0.32632200  0.82632200  0.50000000  1
  Pd  Pd0  1  0.00000000  0.50000000  0.00000000  1
  Pd  Pd1  1  0.50000000  0.00000000  0.00000000  1
  O  O0  1  0.50000000  0.50000000  0.50000000  1
  O  O1  1  0.00000000  0.00000000  0.50000000  1
  O  O2  1  0.14045100  0.64045100  0.25188300  1
  O  O3  1  0.85954900  0.35954900  0.25188300  1
  O  O4  1  0.35954900  0.14045100  0.25188300  1
  O  O5  1  0.64045100  0.85954900  0.25188300  1
  O  O6  1  0.14045100  0.64045100  0.74811700  1
  O  O7  1  0.64045100  0.85954900  0.74811700  1
  O  O8  1  0.85954900  0.35954900  0.74811700  1
  O  O9  1  0.35954900  0.14045100  0.74811700  1
loop_
_geom_bond_atom_site_label_1
_geom_bond_atom_site_label_2
_geom_bond_distance
_geom_bond_site_symmetry_2
Ba0 O0 2.991488 1_554
Ba0 O0 2.991488 1_555
Ba0 O5 3.030884 1_555
Ba0 O2 3.030884 1_555
Ba0 O3 3.030884 1_555
Ba0 O4 3.030884 1_555
Ba0 O6 3.030884 1_554
Ba0 O7 3.030884 1_554
Ba0 O8 3.030884 1_554
Ba0 O9 3.030884 1_554
Ba1 O1 2.991488 1_555
Ba1 O1 2.991488 1_554
Ba1 O3 3.030884 1_455
Ba1 O5 3.030884 1_445
Ba1 O2 3.030884 1_545
Ba1 O4 3.030884 1_555
Ba1 O8 3.030884 1_454
Ba1 O7 3.030884 1_444
Ba1 O6 3.030884 1_544
Ba1 O9 3.030884 1_554
Nd0 O8 2.326031 1_555
Nd0 O3 2.326031 1_555
Nd0 O1 2.518319 1_655
Nd0 O0 2.518319 1_555
Nd0 O7 2.614290 1_545
Nd0 O9 2.614290 1_555
Nd0 O5 2.614290 1_545
Nd0 O4 2.614290 1_555
Nd1 O9 2.326031 1_555
Nd1 O4 2.326031 1_555
Nd1 O1 2.518319 1_555
Nd1 O0 2.518319 1_555
Nd1 O8 2.614290 1_455
Nd1 O6 2.614290 1_555
Nd1 O2 2.614290 1_555
Nd1 O3 2.614290 1_455
Nd2 O7 2.326031 1_555
Nd2 O5 2.326031 1_555
Nd2 O1 2.518319 1_665
Nd2 O0 2.518319 1_555
Nd2 O8 2.614290 1_555
Nd2 O6 2.614290 1_655
Nd2 O3 2.614290 1_555
Nd2 O2 2.614290 1_655
Nd3 O6 2.326031 1_555
Nd3 O2 2.326031 1_555
Nd3 O1 2.518319 1_565
Nd3 O0 2.518319 1_555
Nd3 O7 2.614290 1_555
Nd3 O9 2.614290 1_565
Nd3 O5 2.614290 1_555
Nd3 O4 2.614290 1_565
O2 Pd0 2.025362 1_555
O3 Pd0 2.025362 1_655
O4 Pd1 2.025362 1_555
O5 Pd1 2.025362 1_565
O6 Pd0 2.025362 1_556
O7 Pd1 2.025362 1_566
O8 Pd0 2.025362 1_656
O9 Pd1 2.025362 1_556
