# generated using pymatgen
data_Ca2SnS4
_symmetry_space_group_name_H-M   'P 1'
_cell_length_a   7.81828784
_cell_length_b   7.81828784
_cell_length_c   7.08181200
_cell_angle_alpha   90.00000000
_cell_angle_beta   90.00000000
_cell_angle_gamma   126.18410309
_symmetry_Int_Tables_number   1
_chemical_formula_structural   Ca2SnS4
_chemical_formula_sum   'Ca4 Sn2 S8'
_cell_volume   349.38804807
_cell_formula_units_Z   2
loop_
 _symmetry_equiv_pos_site_id
 _symmetry_equiv_pos_as_xyz
  1  'x, y, z'
loop_
 _atom_site_type_symbol
 _atom_site_label
 _atom_site_symmetry_multiplicity
 _atom_site_fract_x
 _atom_site_fract_y
 _atom_site_fract_z
 _atom_site_occupancy
  Ca  Ca0  1  0.80760100  0.51284600  0.51881500  1
  Ca  Ca1  1  0.48715400  0.19239900  0.98118500  1
  Ca  Ca2  1  0.51284600  0.80760100  0.48118500  1
  Ca  Ca3  1  0.19239900  0.48715400  0.01881500  1
  Sn  Sn0  1  0.21480600  0.21480600  0.50000000  1
  Sn  Sn1  1  0.78519400  0.78519400  0.00000000  1
  S  S0  1  0.92574300  0.07425700  0.75000000  1
  S  S1  1  0.07425700  0.92574300  0.25000000  1
  S  S2  1  0.52924900  0.47075100  0.25000000  1
  S  S3  1  0.47075100  0.52924900  0.75000000  1
  S  S4  1  0.09033400  0.43458800  0.39703900  1
  S  S5  1  0.56541200  0.90966600  0.10296100  1
  S  S6  1  0.43458800  0.09033400  0.60296100  1
  S  S7  1  0.90966600  0.56541200  0.89703900  1
loop_
_geom_bond_atom_site_label_1
_geom_bond_atom_site_label_2
_geom_bond_distance
_geom_bond_site_symmetry_2
Ca0 S7 2.755514 1_555
Ca0 S4 2.757043 1_655
Ca0 S2 2.760922 1_555
Ca0 S6 2.897762 1_555
Ca0 S3 3.167252 1_555
Ca0 S1 3.231842 1_655
Ca1 S6 2.755514 1_555
Ca1 S5 2.757043 1_546
Ca1 S2 2.760922 1_556
Ca1 S7 2.897762 1_555
Ca1 S3 3.167252 1_555
Ca1 S1 3.231842 1_546
Ca2 S5 2.755514 1_555
Ca2 S6 2.757043 1_565
Ca2 S3 2.760922 1_555
Ca2 S4 2.897762 1_555
Ca2 S2 3.167252 1_555
Ca2 S0 3.231842 1_565
Ca3 S4 2.755514 1_555
Ca3 S7 2.757043 1_454
Ca3 S3 2.760922 1_554
Ca3 S5 2.897762 1_555
Ca3 S2 3.167252 1_555
Ca3 S0 3.231842 1_454
S0 Sn1 2.552879 1_546
S0 Sn0 2.552879 1_655
S1 Sn1 2.552879 1_455
S1 Sn0 2.552879 1_565
S2 Sn1 2.715479 1_555
S2 Sn0 2.715479 1_555
S3 Sn0 2.715479 1_555
S3 Sn1 2.715479 1_556
S4 Sn0 2.530965 1_555
S5 Sn1 2.530965 1_555
S6 Sn0 2.530965 1_555
S7 Sn1 2.530965 1_556
