# generated using pymatgen
data_TiH8(NF3)2
_symmetry_space_group_name_H-M   'P 1'
_cell_length_a   5.82372320
_cell_length_b   5.82372320
_cell_length_c   4.88648100
_cell_angle_alpha   90.00000000
_cell_angle_beta   90.00000000
_cell_angle_gamma   119.99999086
_symmetry_Int_Tables_number   1
_chemical_formula_structural   TiH8(NF3)2
_chemical_formula_sum   'Ti1 H8 N2 F6'
_cell_volume   143.52525769
_cell_formula_units_Z   1
loop_
 _symmetry_equiv_pos_site_id
 _symmetry_equiv_pos_as_xyz
  1  'x, y, z'
loop_
 _atom_site_type_symbol
 _atom_site_label
 _atom_site_symmetry_multiplicity
 _atom_site_fract_x
 _atom_site_fract_y
 _atom_site_fract_z
 _atom_site_occupancy
  Ti  Ti0  1  0.00000000  0.00000000  0.00000000  1
  H  H0  1  0.14125400  0.57062700  0.23581200  1
  H  H1  1  0.42937300  0.85874600  0.23581200  1
  H  H2  1  0.42937300  0.57062700  0.23581200  1
  H  H3  1  0.66666700  0.33333300  0.48283400  1
  H  H4  1  0.33333300  0.66666700  0.51716600  1
  H  H5  1  0.57062700  0.42937300  0.76418800  1
  H  H6  1  0.57062700  0.14125400  0.76418800  1
  H  H7  1  0.85874600  0.42937300  0.76418800  1
  N  N0  1  0.33333300  0.66666700  0.30579700  1
  N  N1  1  0.66666700  0.33333300  0.69420300  1
  F  F0  1  0.84342900  0.15657100  0.21652000  1
  F  F1  1  0.84342900  0.68685900  0.21652000  1
  F  F2  1  0.31314100  0.15657100  0.21652000  1
  F  F3  1  0.68685900  0.84342900  0.78348000  1
  F  F4  1  0.15657100  0.31314100  0.78348000  1
  F  F5  1  0.15657100  0.84342900  0.78348000  1
loop_
_geom_bond_atom_site_label_1
_geom_bond_atom_site_label_2
_geom_bond_distance
_geom_bond_site_symmetry_2
H0 N0 1.027339 1_555
H1 N0 1.027339 1_555
H2 N0 1.027344 1_555
H3 N1 1.032851 1_555
H4 N0 1.032851 1_555
H5 N1 1.027344 1_555
H6 N1 1.027339 1_555
H7 N1 1.027339 1_555
F0 Ti0 1.900970 1_655
F1 Ti0 1.900966 1_665
F2 Ti0 1.900966 1_555
F3 Ti0 1.900966 1_666
F4 Ti0 1.900966 1_556
F5 Ti0 1.900970 1_566
