# generated using pymatgen
data_TiMnCo2
_symmetry_space_group_name_H-M   'P 1'
_cell_length_a   4.13783845
_cell_length_b   4.13783920
_cell_length_c   4.13783845
_cell_angle_alpha   59.99992250
_cell_angle_beta   59.99992866
_cell_angle_gamma   59.99991074
_symmetry_Int_Tables_number   1
_chemical_formula_structural   TiMnCo2
_chemical_formula_sum   'Ti1 Mn1 Co2'
_cell_volume   50.09621249
_cell_formula_units_Z   1
loop_
 _symmetry_equiv_pos_site_id
 _symmetry_equiv_pos_as_xyz
  1  'x, y, z'
loop_
 _atom_site_type_symbol
 _atom_site_label
 _atom_site_symmetry_multiplicity
 _atom_site_fract_x
 _atom_site_fract_y
 _atom_site_fract_z
 _atom_site_occupancy
  Ti  Ti0  1  0.75000000  0.75000100  0.75000000  1
  Mn  Mn0  1  0.25000200  0.25000100  0.25000200  1
  Co  Co0  1  0.99999900  0.00000000  -0.00000000  1
  Co  Co1  1  0.50000000  0.50000100  0.50000000  1
loop_
_geom_bond_atom_site_label_1
_geom_bond_atom_site_label_2
_geom_bond_distance
_geom_bond_site_symmetry_2
Co0 Mn0 2.533885 1_555
Co0 Mn0 2.533889 1_654
Co0 Mn0 2.533893 1_645
Co0 Ti0 2.533893 1_544
Co0 Ti0 2.533896 1_545
Co0 Ti0 2.533899 1_644
Co0 Ti0 2.533899 1_554
Co0 Mn0 2.533920 1_655
Co1 Mn0 2.533886 1_555
Co1 Ti0 2.533896 1_455
Co1 Ti0 2.533896 1_545
Co1 Mn0 2.533896 1_565
Co1 Ti0 2.533896 1_554
Co1 Ti0 2.533900 1_555
Co1 Mn0 2.533902 1_655
Co1 Mn0 2.533903 1_556
