# generated using pymatgen
data_Li4V5O12
_symmetry_space_group_name_H-M   'P 1'
_cell_length_a   9.19360500
_cell_length_b   9.01171100
_cell_length_c   15.56125419
_cell_angle_alpha   55.53122084
_cell_angle_beta   90.00000000
_cell_angle_gamma   90.00000000
_symmetry_Int_Tables_number   1
_chemical_formula_structural   Li4V5O12
_chemical_formula_sum   'Li16 V20 O48'
_cell_volume   1062.90379630
_cell_formula_units_Z   4
loop_
 _symmetry_equiv_pos_site_id
 _symmetry_equiv_pos_as_xyz
  1  'x, y, z'
loop_
 _atom_site_type_symbol
 _atom_site_label
 _atom_site_symmetry_multiplicity
 _atom_site_fract_x
 _atom_site_fract_y
 _atom_site_fract_z
 _atom_site_occupancy
  Li  Li0  1  0.91256700  0.13085100  0.79754500  1
  Li  Li1  1  0.59521100  0.75583100  0.22600300  1
  Li  Li2  1  0.32540400  0.34705700  0.53023300  1
  Li  Li3  1  0.23053100  0.50680900  0.30935200  1
  Li  Li4  1  0.73053100  0.49319100  0.19064800  1
  Li  Li5  1  0.82540400  0.65294300  0.96976700  1
  Li  Li6  1  0.09521100  0.24416900  0.27399700  1
  Li  Li7  1  0.41256700  0.86914900  0.70245500  1
  Li  Li8  1  0.58743300  0.13085100  0.29754500  1
  Li  Li9  1  0.90478900  0.75583100  0.72600300  1
  Li  Li10  1  0.17459600  0.34705700  0.03023300  1
  Li  Li11  1  0.26946900  0.50680900  0.80935200  1
  Li  Li12  1  0.76946900  0.49319100  0.69064800  1
  Li  Li13  1  0.67459600  0.65294300  0.46976700  1
  Li  Li14  1  0.40478900  0.24416900  0.77399700  1
  Li  Li15  1  0.08743300  0.86914900  0.20245500  1
  V  V0  1  0.03304200  0.63610400  0.11872500  1
  V  V1  1  0.53304200  0.36389600  0.38127500  1
  V  V2  1  0.46695800  0.63610400  0.61872500  1
  V  V3  1  0.96695800  0.36389600  0.88127500  1
  V  V4  1  0.74939800  0.95419200  0.00605200  1
  V  V5  1  0.61821400  0.23419900  0.65009600  1
  V  V6  1  0.88477700  0.53619700  0.35799900  1
  V  V7  1  0.47211500  0.85794400  0.89260600  1
  V  V8  1  0.97211500  0.14205600  0.60739400  1
  V  V9  1  0.38477700  0.46380300  0.14200100  1
  V  V10  1  0.11821400  0.76580100  0.84990400  1
  V  V11  1  0.24939800  0.04580800  0.49394800  1
  V  V12  1  0.75060200  0.95419200  0.50605200  1
  V  V13  1  0.88178600  0.23419900  0.15009600  1
  V  V14  1  0.61522300  0.53619700  0.85799900  1
  V  V15  1  0.02788500  0.85794400  0.39260600  1
  V  V16  1  0.52788500  0.14205600  0.10739400  1
  V  V17  1  0.11522300  0.46380300  0.64200100  1
  V  V18  1  0.38178600  0.76580100  0.34990400  1
  V  V19  1  0.25060200  0.04580800  0.99394800  1
  O  O0  1  0.42478600  0.61525400  0.31558800  1
  O  O1  1  0.13517500  0.31866900  0.60210400  1
  O  O2  1  0.32548100  0.03241500  0.89481600  1
  O  O3  1  0.12096600  0.88334100  0.06825800  1
  O  O4  1  0.62561900  0.98260400  0.91388000  1
  O  O5  1  0.80902800  0.21724600  0.66227300  1
  O  O6  1  0.56344900  0.33678300  0.52279900  1
  O  O7  1  0.71722300  0.53131000  0.30487600  1
  O  O8  1  0.01882900  0.61494500  0.26195200  1
  O  O9  1  0.81856700  0.73234300  0.06506800  1
  O  O10  1  0.50513300  0.04489800  0.73059900  1
  O  O11  1  0.93283100  0.32165600  0.46036900  1
  O  O12  1  0.00513300  0.95510200  0.76940100  1
  O  O13  1  0.43283100  0.67834400  0.03963100  1
  O  O14  1  0.31856700  0.26765700  0.43493200  1
  O  O15  1  0.06344900  0.66321700  0.97720100  1
  O  O16  1  0.51882900  0.38505500  0.23804800  1
  O  O17  1  0.21722300  0.46869000  0.19512400  1
  O  O18  1  0.30902800  0.78275400  0.83772700  1
  O  O19  1  0.12561900  0.01739600  0.58612000  1
  O  O20  1  0.82548100  0.96758500  0.60518400  1
  O  O21  1  0.63517500  0.68133100  0.89789600  1
  O  O22  1  0.62096600  0.11665900  0.43174200  1
  O  O23  1  0.92478600  0.38474600  0.18441200  1
  O  O24  1  0.07521400  0.61525400  0.81558800  1
  O  O25  1  0.37903400  0.88334100  0.56825800  1
  O  O26  1  0.36482500  0.31866900  0.10210400  1
  O  O27  1  0.17451900  0.03241500  0.39481600  1
  O  O28  1  0.87438100  0.98260400  0.41388000  1
  O  O29  1  0.69097200  0.21724600  0.16227300  1
  O  O30  1  0.78277700  0.53131000  0.80487600  1
  O  O31  1  0.48117100  0.61494500  0.76195200  1
  O  O32  1  0.93655100  0.33678300  0.02279900  1
  O  O33  1  0.68143300  0.73234300  0.56506800  1
  O  O34  1  0.56716900  0.32165600  0.96036900  1
  O  O35  1  0.99486700  0.04489800  0.23059900  1
  O  O36  1  0.06716900  0.67834400  0.53963100  1
  O  O37  1  0.49486700  0.95510200  0.26940100  1
  O  O38  1  0.18143300  0.26765700  0.93493200  1
  O  O39  1  0.98117100  0.38505500  0.73804800  1
  O  O40  1  0.28277700  0.46869000  0.69512400  1
  O  O41  1  0.43655100  0.66321700  0.47720100  1
  O  O42  1  0.19097200  0.78275400  0.33772700  1
  O  O43  1  0.37438100  0.01739600  0.08612000  1
  O  O44  1  0.87903400  0.11665900  0.93174200  1
  O  O45  1  0.67451900  0.96758500  0.10518400  1
  O  O46  1  0.86482500  0.68133100  0.39789600  1
  O  O47  1  0.57521400  0.38474600  0.68441200  1
loop_
_geom_bond_atom_site_label_1
_geom_bond_atom_site_label_2
_geom_bond_distance
_geom_bond_site_symmetry_2
Li0 O5 2.021937 1_555
Li0 O39 2.025363 1_555
Li0 O44 2.042052 1_555
Li0 O12 2.051728 1_645
Li1 O45 1.909678 1_555
Li1 O0 2.001046 1_555
Li1 O7 2.011860 1_555
Li1 O37 2.429944 1_555
Li2 O14 1.978975 1_555
Li2 O1 2.012717 1_555
Li2 O6 2.196264 1_555
Li3 O17 1.995934 1_555
Li3 O0 2.064287 1_555
Li3 O14 2.086024 1_555
Li3 O8 2.113808 1_555
Li4 O7 1.995934 1_555
Li4 O23 2.064287 1_555
Li4 O9 2.086024 1_555
Li4 O16 2.113808 1_555
Li5 O9 1.978975 1_556
Li5 O21 2.012717 1_555
Li5 O15 2.196264 1_655
Li6 O27 1.909678 1_555
Li6 O23 2.001046 1_455
Li6 O17 2.011860 1_555
Li6 O35 2.429944 1_455
Li7 O18 2.021937 1_555
Li7 O31 2.025363 1_555
Li7 O25 2.042052 1_555
Li7 O10 2.051728 1_565
Li8 O29 2.021937 1_555
Li8 O16 2.025363 1_555
Li8 O22 2.042052 1_555
Li8 O37 2.051728 1_545
Li9 O20 1.909678 1_555
Li9 O24 2.001046 1_655
Li9 O30 2.011860 1_555
Li9 O12 2.429944 1_655
Li10 O38 1.978975 1_554
Li10 O26 2.012717 1_555
Li10 O32 2.196264 1_455
Li11 O40 1.995934 1_555
Li11 O24 2.064287 1_555
Li11 O38 2.086024 1_555
Li11 O31 2.113808 1_555
Li12 O30 1.995934 1_555
Li12 O47 2.064287 1_555
Li12 O33 2.086024 1_555
Li12 O39 2.113808 1_555
Li13 O33 1.978975 1_555
Li13 O46 2.012717 1_555
Li13 O41 2.196264 1_555
Li14 O2 1.909678 1_555
Li14 O47 2.001046 1_555
Li14 O40 2.011860 1_555
Li14 O10 2.429944 1_555
Li15 O42 2.021937 1_555
Li15 O8 2.025363 1_555
Li15 O3 2.042052 1_555
Li15 O35 2.051728 1_465
O0 V18 1.761270 1_555
O0 V1 2.132027 1_555
O1 V17 1.746093 1_555
O1 V8 2.153822 1_455
O2 V19 1.754676 1_555
O2 V7 2.086101 1_545
O3 V19 1.727670 1_564
O3 V0 2.062453 1_555
O4 V4 1.732659 1_556
O4 V7 1.945308 1_555
O5 V5 1.761799 1_555
O5 V8 2.022741 1_555
O6 V5 1.720251 1_555
O6 V1 2.092571 1_555
O7 V6 1.760519 1_555
O7 V1 2.127564 1_555
O8 V6 1.748074 1_455
O8 V0 2.130704 1_555
O9 V4 1.779468 1_555
O9 V0 2.125478 1_655
O10 V5 1.772387 1_555
O10 V7 2.116260 1_545
O11 V6 1.727611 1_555
O11 V8 1.947565 1_555
O12 V10 1.772387 1_555
O12 V8 2.116260 1_465
O13 V9 1.727611 1_555
O13 V7 1.947565 1_554
O14 V11 1.779468 1_555
O14 V1 2.125478 1_555
O15 V10 1.720251 1_555
O15 V0 2.092571 1_556
O16 V9 1.748074 1_555
O16 V1 2.130704 1_555
O17 V9 1.760519 1_555
O17 V0 2.127564 1_555
O18 V10 1.761799 1_555
O18 V7 2.022741 1_555
O19 V11 1.732659 1_555
O19 V8 1.945308 1_455
O20 V12 1.754676 1_555
O20 V8 2.086101 1_565
O21 V14 1.746093 1_555
O21 V7 2.153822 1_555
O22 V12 1.727670 1_545
O22 V1 2.062453 1_555
O23 V13 1.761270 1_555
O23 V0 2.132027 1_655
O24 V10 1.761270 1_555
O24 V3 2.132027 1_455
O25 V11 1.727670 1_565
O25 V2 2.062453 1_555
O26 V9 1.746093 1_555
O26 V16 2.153822 1_555
O27 V11 1.754676 1_555
O27 V15 2.086101 1_545
O28 V12 1.732659 1_555
O28 V15 1.945308 1_655
O29 V13 1.761799 1_555
O29 V16 2.022741 1_555
O30 V14 1.760519 1_555
O30 V3 2.127564 1_555
O31 V14 1.748074 1_555
O31 V2 2.130704 1_555
O32 V13 1.720251 1_555
O32 V3 2.092571 1_554
O33 V12 1.779468 1_555
O33 V2 2.125478 1_555
O34 V14 1.727611 1_555
O34 V16 1.947565 1_556
O35 V13 1.772387 1_555
O35 V15 2.116260 1_645
O36 V17 1.727611 1_555
O36 V15 1.947565 1_555
O37 V18 1.772387 1_555
O37 V16 2.116260 1_565
O38 V19 1.779468 1_555
O38 V3 2.125478 1_455
O39 V17 1.748074 1_655
O39 V3 2.130704 1_555
O40 V17 1.760519 1_555
O40 V2 2.127564 1_555
O41 V18 1.720251 1_555
O41 V2 2.092571 1_555
O42 V18 1.761799 1_555
O42 V15 2.022741 1_555
O43 V19 1.732659 1_554
O43 V16 1.945308 1_555
O44 V4 1.727670 1_546
O44 V3 2.062453 1_555
O45 V4 1.754676 1_555
O45 V16 2.086101 1_565
O46 V6 1.746093 1_555
O46 V15 2.153822 1_655
O47 V5 1.761270 1_555
O47 V2 2.132027 1_555
