# generated using pymatgen
data_La2AgIr
_symmetry_space_group_name_H-M   'P 1'
_cell_length_a   5.22497747
_cell_length_b   5.22497747
_cell_length_c   5.22497747
_cell_angle_alpha   60.00000000
_cell_angle_beta   60.00000000
_cell_angle_gamma   60.00000000
_symmetry_Int_Tables_number   1
_chemical_formula_structural   La2AgIr
_chemical_formula_sum   'La2 Ag1 Ir1'
_cell_volume   100.86448335
_cell_formula_units_Z   1
loop_
 _symmetry_equiv_pos_site_id
 _symmetry_equiv_pos_as_xyz
  1  'x, y, z'
loop_
 _atom_site_type_symbol
 _atom_site_label
 _atom_site_symmetry_multiplicity
 _atom_site_fract_x
 _atom_site_fract_y
 _atom_site_fract_z
 _atom_site_occupancy
  La  La0  1  0.75000000  0.75000000  0.75000000  1
  La  La1  1  0.25000000  0.25000000  0.25000000  1
  Ag  Ag0  1  0.00000000  0.00000000  0.00000000  1
  Ir  Ir0  1  0.50000000  0.50000000  0.50000000  1
loop_
_geom_bond_atom_site_label_1
_geom_bond_atom_site_label_2
_geom_bond_distance
_geom_bond_site_symmetry_2
Ag0 La1 3.199632 1_545
Ag0 La0 3.199632 1_544
Ag0 La0 3.199632 1_454
Ag0 La1 3.199632 1_455
Ag0 La0 3.199632 1_444
Ag0 La0 3.199632 1_445
Ag0 La1 3.199632 1_555
Ag0 La1 3.199632 1_554
Ir0 La1 3.199632 1_655
Ir0 La1 3.199632 1_565
Ir0 La0 3.199632 1_455
Ir0 La0 3.199632 1_545
Ir0 La0 3.199632 1_555
Ir0 La0 3.199632 1_554
Ir0 La1 3.199632 1_556
Ir0 La1 3.199632 1_555
