# generated using pymatgen
data_Na6ZnS4
_symmetry_space_group_name_H-M   'P 1'
_cell_length_a   8.87355742
_cell_length_b   8.87354888
_cell_length_c   6.86111426
_cell_angle_alpha   90.00000683
_cell_angle_beta   89.99999741
_cell_angle_gamma   120.00158078
_symmetry_Int_Tables_number   1
_chemical_formula_structural   Na6ZnS4
_chemical_formula_sum   'Na12 Zn2 S8'
_cell_volume   467.85737027
_cell_formula_units_Z   2
loop_
 _symmetry_equiv_pos_site_id
 _symmetry_equiv_pos_as_xyz
  1  'x, y, z'
loop_
 _atom_site_type_symbol
 _atom_site_label
 _atom_site_symmetry_multiplicity
 _atom_site_fract_x
 _atom_site_fract_y
 _atom_site_fract_z
 _atom_site_occupancy
  Na  Na0  1  0.14775299  0.85224690  0.53841967  1
  Na  Na1  1  0.29550791  0.14774536  0.03841451  1
  Na  Na2  1  0.85225502  0.70449275  0.03841376  1
  Na  Na3  1  0.14774481  0.29550651  0.53841516  1
  Na  Na4  1  0.70449230  0.85225498  0.53841404  1
  Na  Na5  1  0.85224586  0.14775312  0.03842045  1
  Na  Na6  1  0.53048311  0.46951570  0.36570354  1
  Na  Na7  1  0.06097545  0.53049018  0.86568427  1
  Na  Na8  1  0.46951053  0.93902524  0.86568529  1
  Na  Na9  1  0.53049077  0.06097511  0.36568411  1
  Na  Na10  1  0.93902569  0.46951084  0.36568432  1
  Na  Na11  1  0.46951598  0.53048339  0.86570363  1
  Zn  Zn0  1  0.66666833  0.33333115  0.74852101  1
  Zn  Zn1  1  0.33333114  0.66666818  0.24852060  1
  S  S0  1  0.81236497  0.18763557  0.64165819  1
  S  S1  1  0.62473058  0.81236542  0.14165552  1
  S  S2  1  0.33333522  0.66666556  0.59368600  1
  S  S3  1  0.66666512  0.33333569  0.09368584  1
  S  S4  1  0.18763548  0.81236461  0.14165823  1
  S  S5  1  0.37526978  0.18763417  0.64165450  1
  S  S6  1  0.81236620  0.62473074  0.64165573  1
  S  S7  1  0.18763278  0.37526884  0.14165562  1
loop_
_geom_bond_atom_site_label_1
_geom_bond_atom_site_label_2
_geom_bond_distance
_geom_bond_site_symmetry_2
Na0 S6 2.725064 1_455
Na0 S5 2.725064 1_565
Na0 S4 2.790385 1_555
Na0 S2 2.877406 1_555
Na1 S4 2.725051 1_545
Na1 S7 2.725230 1_555
Na1 S5 2.790368 1_554
Na1 S3 2.877296 1_555
Na2 S4 2.725054 1_655
Na2 S1 2.725224 1_555
Na2 S6 2.790355 1_554
Na2 S3 2.877293 1_555
Na3 S0 2.725048 1_455
Na3 S5 2.725222 1_555
Na3 S7 2.790365 1_555
Na3 S2 2.877307 1_555
Na4 S0 2.725050 1_565
Na4 S6 2.725229 1_555
Na4 S1 2.790357 1_555
Na4 S2 2.877296 1_555
Na5 S7 2.725063 1_655
Na5 S1 2.725065 1_545
Na5 S0 2.790388 1_554
Na5 S3 2.877403 1_555
Na6 S3 2.804295 1_555
Na6 S5 2.879742 1_555
Na6 S6 2.879759 1_555
Na6 S1 3.126274 1_555
Na6 S7 3.126281 1_555
Na7 S2 2.804157 1_555
Na7 S4 2.879812 1_556
Na7 S7 2.879864 1_556
Na7 S0 3.126211 1_455
Na7 S6 3.126257 1_455
Na8 S2 2.804160 1_555
Na8 S4 2.879812 1_556
Na8 S1 2.879865 1_556
Na8 S0 3.126215 1_565
Na8 S5 3.126262 1_565
Na9 S3 2.804160 1_555
Na9 S0 2.879813 1_555
Na9 S5 2.879867 1_555
Na9 S4 3.126215 1_545
Na9 S1 3.126255 1_545
Na10 S3 2.804163 1_555
Na10 S0 2.879816 1_555
Na10 S6 2.879867 1_555
Na10 S4 3.126205 1_655
Na10 S7 3.126250 1_655
Na11 S2 2.804300 1_555
Na11 S1 2.879750 1_556
Na11 S7 2.879758 1_556
Na11 S5 3.126276 1_555
Na11 S6 3.126280 1_555
S0 Zn0 2.356264 1_555
S1 Zn1 2.356272 1_555
S2 Zn1 2.368219 1_555
S3 Zn0 2.368215 1_554
S4 Zn1 2.356263 1_555
S5 Zn0 2.356269 1_555
S6 Zn0 2.356272 1_555
S7 Zn1 2.356269 1_555
