# generated using pymatgen
data_Li2CrFe(PO4)2
_symmetry_space_group_name_H-M   'P 1'
_cell_length_a   4.77893274
_cell_length_b   10.76937635
_cell_length_c   5.97806404
_cell_angle_alpha   90.01194766
_cell_angle_beta   89.99523921
_cell_angle_gamma   91.83040608
_symmetry_Int_Tables_number   1
_chemical_formula_structural   Li2CrFe(PO4)2
_chemical_formula_sum   'Li4 Cr2 Fe2 P4 O16'
_cell_volume   307.51079729
_cell_formula_units_Z   2
loop_
 _symmetry_equiv_pos_site_id
 _symmetry_equiv_pos_as_xyz
  1  'x, y, z'
loop_
 _atom_site_type_symbol
 _atom_site_label
 _atom_site_symmetry_multiplicity
 _atom_site_fract_x
 _atom_site_fract_y
 _atom_site_fract_z
 _atom_site_occupancy
  Li  Li0  1  0.00007900  0.00008300  0.99989100  1
  Li  Li1  1  0.00007200  0.00007100  0.50004800  1
  Li  Li2  1  0.50011100  0.49990700  0.99996800  1
  Li  Li3  1  0.50011700  0.49988300  0.50005300  1
  Cr  Cr0  1  0.50716000  0.22446100  0.75001600  1
  Cr  Cr1  1  0.49252900  0.77534400  0.25015900  1
  Fe  Fe0  1  0.01828400  0.72040100  0.75018800  1
  Fe  Fe1  1  0.98155100  0.27968600  0.24996700  1
  P  P0  1  0.41044200  0.09856500  0.24997500  1
  P  P1  1  0.58948900  0.90138800  0.74987100  1
  P  P2  1  0.92095000  0.41229600  0.75000900  1
  P  P3  1  0.07937800  0.58775600  0.25010700  1
  O  O0  1  0.71972200  0.03470800  0.75004800  1
  O  O1  1  0.28043400  0.96519100  0.24993900  1
  O  O2  1  0.73266900  0.10357700  0.24998600  1
  O  O3  1  0.26729600  0.89666000  0.74997200  1
  O  O4  1  0.23929000  0.41635400  0.74999600  1
  O  O5  1  0.76105500  0.58362200  0.25001000  1
  O  O6  1  0.20996700  0.45760800  0.24997400  1
  O  O7  1  0.79019900  0.54241800  0.74998900  1
  O  O8  1  0.28128300  0.16728100  0.04212000  1
  O  O9  1  0.28128400  0.16726000  0.45789700  1
  O  O10  1  0.71811300  0.83278900  0.54162700  1
  O  O11  1  0.71830800  0.83253800  0.95773300  1
  O  O12  1  0.78622000  0.33754600  0.54610000  1
  O  O13  1  0.78620400  0.33757100  0.95391100  1
  O  O14  1  0.21397200  0.66257900  0.04624300  1
  O  O15  1  0.21382100  0.66245700  0.45420100  1
loop_
_geom_bond_atom_site_label_1
_geom_bond_atom_site_label_2
_geom_bond_distance
_geom_bond_site_symmetry_2
Li0 O0 2.048752 1_455
Li0 O1 2.050225 1_546
Li0 O8 2.226474 1_556
Li0 O11 2.230942 1_445
Li0 O3 2.278880 1_545
Li0 O2 2.280488 1_456
Li1 O0 2.049165 1_455
Li1 O1 2.050210 1_545
Li1 O9 2.226427 1_555
Li1 O10 2.228897 1_445
Li1 O3 2.279297 1_545
Li1 O2 2.280849 1_455
Li2 O6 2.079275 1_556
Li2 O7 2.079436 1_555
Li2 O4 2.127080 1_555
Li2 O5 2.128416 1_556
Li2 O13 2.270227 1_555
Li2 O14 2.273380 1_556
Li3 O7 2.079312 1_555
Li3 O6 2.079586 1_555
Li3 O4 2.126988 1_555
Li3 O5 2.128627 1_555
Li3 O12 2.270374 1_555
Li3 O15 2.272826 1_555
Cr0 O8 2.133391 1_556
Cr0 O9 2.133461 1_555
Cr0 O13 2.154931 1_555
Cr0 O12 2.155063 1_555
Cr0 O0 2.310948 1_555
Cr0 O4 2.465450 1_555
Cr1 O10 2.130301 1_555
Cr1 O11 2.134776 1_554
Cr1 O14 2.151579 1_555
Cr1 O15 2.153316 1_555
Cr1 O1 2.310815 1_555
Cr1 O5 2.465590 1_555
Fe0 O15 2.104759 1_555
Fe0 O14 2.105369 1_556
Fe0 O7 2.174541 1_455
Fe0 O3 2.207938 1_555
Fe0 O11 2.272129 1_455
Fe0 O10 2.277950 1_455
Fe1 O12 2.104766 1_555
Fe1 O13 2.104846 1_554
Fe1 O6 2.174722 1_655
Fe1 O2 2.206258 1_555
Fe1 O8 2.273953 1_655
Fe1 O9 2.274758 1_655
O0 P1 1.546516 1_545
O1 P0 1.546648 1_565
O2 P0 1.539123 1_555
O3 P1 1.538954 1_555
O4 P2 1.520557 1_455
O5 P3 1.520474 1_655
O6 P3 1.552375 1_555
O7 P2 1.552452 1_555
O8 P0 1.581867 1_555
O9 P0 1.581748 1_555
O10 P1 1.581734 1_555
O11 P1 1.581936 1_555
O12 P2 1.585916 1_555
O13 P2 1.585956 1_555
O14 P3 1.586021 1_555
O15 P3 1.585972 1_555
