# generated using pymatgen
data_ScZnRh2
_symmetry_space_group_name_H-M   'P 1'
_cell_length_a   4.38198256
_cell_length_b   4.38198256
_cell_length_c   4.38198256
_cell_angle_alpha   60.00000000
_cell_angle_beta   60.00000000
_cell_angle_gamma   60.00000000
_symmetry_Int_Tables_number   1
_chemical_formula_structural   ScZnRh2
_chemical_formula_sum   'Sc1 Zn1 Rh2'
_cell_volume   59.49725579
_cell_formula_units_Z   1
loop_
 _symmetry_equiv_pos_site_id
 _symmetry_equiv_pos_as_xyz
  1  'x, y, z'
loop_
 _atom_site_type_symbol
 _atom_site_label
 _atom_site_symmetry_multiplicity
 _atom_site_fract_x
 _atom_site_fract_y
 _atom_site_fract_z
 _atom_site_occupancy
  Sc  Sc0  1  0.25000000  0.25000000  0.25000000  1
  Zn  Zn0  1  0.75000000  0.75000000  0.75000000  1
  Rh  Rh0  1  -0.00000000  0.00000000  0.00000000  1
  Rh  Rh1  1  0.49999900  0.49999900  0.49999900  1
loop_
_geom_bond_atom_site_label_1
_geom_bond_atom_site_label_2
_geom_bond_distance
_geom_bond_site_symmetry_2
Rh0 Sc0 2.683405 1_455
Rh0 Zn0 2.683405 1_544
Rh0 Zn0 2.683405 1_444
Rh0 Sc0 2.683405 1_545
Rh0 Sc0 2.683405 1_554
Rh0 Zn0 2.683405 1_445
Rh0 Zn0 2.683405 1_454
Rh0 Sc0 2.683405 1_555
Rh1 Sc0 2.683395 1_555
Rh1 Zn0 2.683402 1_545
Rh1 Zn0 2.683402 1_554
Rh1 Zn0 2.683402 1_455
Rh1 Sc0 2.683409 1_565
Rh1 Sc0 2.683409 1_655
Rh1 Sc0 2.683409 1_556
Rh1 Zn0 2.683416 1_555
