# generated using pymatgen
data_Ho2OsRu
_symmetry_space_group_name_H-M   'P 1'
_cell_length_a   4.76644230
_cell_length_b   4.76644230
_cell_length_c   4.76644230
_cell_angle_alpha   60.00000000
_cell_angle_beta   60.00000000
_cell_angle_gamma   60.00000000
_symmetry_Int_Tables_number   1
_chemical_formula_structural   Ho2OsRu
_chemical_formula_sum   'Ho2 Os1 Ru1'
_cell_volume   76.57165279
_cell_formula_units_Z   1
loop_
 _symmetry_equiv_pos_site_id
 _symmetry_equiv_pos_as_xyz
  1  'x, y, z'
loop_
 _atom_site_type_symbol
 _atom_site_label
 _atom_site_symmetry_multiplicity
 _atom_site_fract_x
 _atom_site_fract_y
 _atom_site_fract_z
 _atom_site_occupancy
  Ho  Ho0  1  0.00000000  -0.00000000  0.00000000  1
  Ho  Ho1  1  0.50000000  0.50000000  0.50000000  1
  Os  Os0  1  0.25000100  0.25000100  0.25000100  1
  Ru  Ru0  1  0.75000100  0.75000100  0.75000100  1
loop_
_geom_bond_atom_site_label_1
_geom_bond_atom_site_label_2
_geom_bond_distance
_geom_bond_site_symmetry_2
Ho0 Ru0 2.918826 1_444
Ho0 Os0 2.918834 1_545
Ho0 Os0 2.918834 1_455
Ho0 Os0 2.918834 1_554
Ho0 Ru0 2.918842 1_445
Ho0 Ru0 2.918842 1_454
Ho0 Ru0 2.918842 1_544
Ho0 Os0 2.918850 1_555
Ho1 Os0 2.918826 1_555
Ho1 Ru0 2.918834 1_545
Ho1 Ru0 2.918834 1_554
Ho1 Ru0 2.918834 1_455
Ho1 Os0 2.918842 1_655
Ho1 Os0 2.918842 1_556
Ho1 Os0 2.918842 1_565
Ho1 Ru0 2.918850 1_555
