# generated using pymatgen
data_Li3MnV3O8
_symmetry_space_group_name_H-M   'P 1'
_cell_length_a   6.58147685
_cell_length_b   6.58147685
_cell_length_c   6.61762845
_cell_angle_alpha   73.30436965
_cell_angle_beta   73.30436965
_cell_angle_gamma   36.09551826
_symmetry_Int_Tables_number   1
_chemical_formula_structural   Li3MnV3O8
_chemical_formula_sum   'Li3 Mn1 V3 O8'
_cell_volume   160.98060345
_cell_formula_units_Z   1
loop_
 _symmetry_equiv_pos_site_id
 _symmetry_equiv_pos_as_xyz
  1  'x, y, z'
loop_
 _atom_site_type_symbol
 _atom_site_label
 _atom_site_symmetry_multiplicity
 _atom_site_fract_x
 _atom_site_fract_y
 _atom_site_fract_z
 _atom_site_occupancy
  Li  Li0  1  0.93934700  0.93934700  0.36574200  1
  Li  Li1  1  0.82299800  0.82299800  0.00372900  1
  Li  Li2  1  0.06219800  0.06219800  0.63246600  1
  Mn  Mn0  1  0.28585500  0.28585500  0.30340600  1
  V  V0  1  0.70877500  0.70877500  0.69410800  1
  V  V1  1  0.39220800  0.39220800  0.69854200  1
  V  V2  1  0.60441600  0.60441600  0.29110500  1
  O  O0  1  0.36105100  0.36105100  0.97626100  1
  O  O1  1  0.87955400  0.87955400  0.68726000  1
  O  O2  1  0.44118400  0.44118400  0.37432800  1
  O  O3  1  0.76185800  0.76185800  0.34765200  1
  O  O4  1  0.23121900  0.23121900  0.67175300  1
  O  O5  1  0.55933600  0.55933600  0.62846000  1
  O  O6  1  0.65843100  0.65843100  0.00874200  1
  O  O7  1  0.10531400  0.10531400  0.32212000  1
loop_
_geom_bond_atom_site_label_1
_geom_bond_atom_site_label_2
_geom_bond_distance
_geom_bond_site_symmetry_2
Li0 O7 2.008843 1_665
Li0 O1 2.030976 1_555
Li0 O2 2.040120 1_655
Li0 O2 2.040120 1_565
Li0 O3 2.260385 1_555
Li1 O1 1.997795 1_554
Li1 O6 2.049829 1_555
Li1 O0 2.089277 1_654
Li1 O0 2.089277 1_564
Li1 O3 2.170958 1_555
Li2 O7 1.959433 1_555
Li2 O5 2.039633 1_545
Li2 O5 2.039633 1_455
Li2 O1 2.203564 1_445
Li2 O4 2.207862 1_555
Mn0 O3 2.068896 1_545
Mn0 O3 2.068896 1_455
Mn0 O0 2.083589 1_554
Mn0 O2 2.133247 1_555
Mn0 O7 2.225242 1_555
Mn0 O4 2.324247 1_555
O0 V1 1.759727 1_555
O1 V1 2.048253 1_655
O1 V1 2.048253 1_565
O1 V0 2.124100 1_555
O2 V2 1.948550 1_555
O2 V1 2.045549 1_555
O3 V2 2.113821 1_555
O3 V0 2.185738 1_555
O4 V0 2.057478 1_455
O4 V0 2.057478 1_545
O4 V1 2.075286 1_555
O5 V1 2.000978 1_555
O5 V0 2.043936 1_555
O5 V2 2.131001 1_555
O6 V2 1.784716 1_555
O6 V0 1.984811 1_554
O7 V2 2.049680 1_545
O7 V2 2.049680 1_455
