# generated using pymatgen
data_Li2Ni(PO3)4
_symmetry_space_group_name_H-M   'P 1'
_cell_length_a   8.16181061
_cell_length_b   8.16181061
_cell_length_c   7.58860032
_cell_angle_alpha   81.40245576
_cell_angle_beta   81.40245576
_cell_angle_gamma   100.31108678
_symmetry_Int_Tables_number   1
_chemical_formula_structural   Li2Ni(PO3)4
_chemical_formula_sum   'Li4 Ni2 P8 O24'
_cell_volume   483.62433582
_cell_formula_units_Z   2
loop_
 _symmetry_equiv_pos_site_id
 _symmetry_equiv_pos_as_xyz
  1  'x, y, z'
loop_
 _atom_site_type_symbol
 _atom_site_label
 _atom_site_symmetry_multiplicity
 _atom_site_fract_x
 _atom_site_fract_y
 _atom_site_fract_z
 _atom_site_occupancy
  Li  Li0  1  0.48340000  0.80899200  0.86868800  1
  Li  Li1  1  0.80899200  0.48340000  0.36868800  1
  Li  Li2  1  0.22967000  0.57497000  0.57344200  1
  Li  Li3  1  0.57497000  0.22967000  0.07344200  1
  Ni  Ni0  1  0.83849600  0.14282900  0.75149400  1
  Ni  Ni1  1  0.14282900  0.83849600  0.25149400  1
  P  P0  1  0.95528100  0.80078700  0.67762300  1
  P  P1  1  0.80078700  0.95528100  0.17762300  1
  P  P2  1  0.86240000  0.48179000  0.93672600  1
  P  P3  1  0.48179000  0.86240000  0.43672600  1
  P  P4  1  0.50916100  0.18794200  0.56793100  1
  P  P5  1  0.18794200  0.50916100  0.06793100  1
  P  P6  1  0.18634800  0.04301500  0.83228600  1
  P  P7  1  0.04301500  0.18634800  0.33228600  1
  O  O0  1  0.84908000  0.92970700  0.64596400  1
  O  O1  1  0.92970700  0.84908000  0.14596400  1
  O  O2  1  0.84462200  0.66827300  0.85217000  1
  O  O3  1  0.66827300  0.84462200  0.35217000  1
  O  O4  1  0.28044900  0.98796400  0.98056900  1
  O  O5  1  0.79494300  0.36279900  0.81789800  1
  O  O6  1  0.43930500  0.77095100  0.62845700  1
  O  O7  1  0.98796400  0.28044900  0.48056900  1
  O  O8  1  0.36279900  0.79494300  0.31789800  1
  O  O9  1  0.77095100  0.43930500  0.12845700  1
  O  O10  1  0.12334900  0.87470900  0.75155100  1
  O  O11  1  0.36596000  0.56785600  0.97223800  1
  O  O12  1  0.87470900  0.12334900  0.25155100  1
  O  O13  1  0.56785600  0.36596000  0.47223800  1
  O  O14  1  0.59729000  0.10841200  0.70863400  1
  O  O15  1  0.01142800  0.70304000  0.53227200  1
  O  O16  1  0.06711400  0.49841500  0.91167200  1
  O  O17  1  0.10841200  0.59729000  0.20863400  1
  O  O18  1  0.70304000  0.01142800  0.03227200  1
  O  O19  1  0.49841500  0.06711400  0.41167200  1
  O  O20  1  0.31392700  0.16478200  0.66017700  1
  O  O21  1  0.16478200  0.31392700  0.16017700  1
  O  O22  1  0.04773600  0.13864700  0.86528900  1
  O  O23  1  0.13864700  0.04773600  0.36528900  1
loop_
_geom_bond_atom_site_label_1
_geom_bond_atom_site_label_2
_geom_bond_distance
_geom_bond_site_symmetry_2
Li0 O6 1.968428 1_555
Li0 O11 2.011658 1_555
Li0 O14 2.504647 1_565
Li0 O4 2.532768 1_555
Li1 O9 1.968428 1_555
Li1 O13 2.011658 1_555
Li1 O17 2.504647 1_655
Li1 O7 2.532768 1_555
Li2 O6 2.256966 1_555
Li2 O15 2.257955 1_555
Li2 O8 2.407340 1_555
Li2 O16 2.635179 1_555
Li3 O9 2.256966 1_555
Li3 O18 2.257955 1_555
Li3 O5 2.407340 1_554
Li3 O19 2.635179 1_555
Ni0 O5 2.012209 1_555
Ni0 O14 2.020192 1_555
Ni0 O22 2.028881 1_655
Ni0 O0 2.030789 1_545
Ni0 O7 2.246308 1_555
Ni0 O18 2.258411 1_556
Ni1 O8 2.012209 1_555
Ni1 O17 2.020192 1_555
Ni1 O23 2.028881 1_565
Ni1 O1 2.030789 1_455
Ni1 O4 2.246308 1_554
Ni1 O15 2.258411 1_555
O0 P0 1.493117 1_555
O1 P1 1.493117 1_555
O2 P2 1.601338 1_555
O2 P0 1.613775 1_555
O3 P3 1.601338 1_555
O3 P1 1.613775 1_555
O4 P6 1.512858 1_565
O5 P2 1.509408 1_555
O6 P3 1.492008 1_555
O7 P7 1.512858 1_655
O8 P3 1.509408 1_555
O9 P2 1.492008 1_554
O10 P0 1.611033 1_455
O10 P6 1.618552 1_565
O11 P5 1.482985 1_556
O12 P1 1.611033 1_545
O12 P7 1.618552 1_655
O13 P4 1.482985 1_555
O14 P4 1.506100 1_555
O15 P0 1.518539 1_455
O16 P2 1.631687 1_455
O16 P5 1.654113 1_556
O17 P5 1.506100 1_555
O18 P1 1.518539 1_545
O19 P3 1.631687 1_545
O19 P4 1.654113 1_555
O20 P4 1.607478 1_555
O20 P6 1.616358 1_555
O21 P5 1.607478 1_555
O21 P7 1.616358 1_555
O22 P6 1.497228 1_555
O23 P7 1.497228 1_555
