# generated using pymatgen
data_CeHg3
_symmetry_space_group_name_H-M   'P 1'
_cell_length_a   6.83635398
_cell_length_b   6.84281798
_cell_length_c   5.03183155
_cell_angle_alpha   90.00086929
_cell_angle_beta   90.00064629
_cell_angle_gamma   119.94125191
_symmetry_Int_Tables_number   1
_chemical_formula_structural   CeHg3
_chemical_formula_sum   'Ce2 Hg6'
_cell_volume   203.97317059
_cell_formula_units_Z   2
loop_
 _symmetry_equiv_pos_site_id
 _symmetry_equiv_pos_as_xyz
  1  'x, y, z'
loop_
 _atom_site_type_symbol
 _atom_site_label
 _atom_site_symmetry_multiplicity
 _atom_site_fract_x
 _atom_site_fract_y
 _atom_site_fract_z
 _atom_site_occupancy
  Ce  Ce0  1  0.33289195  0.66660240  0.75000163  1
  Ce  Ce1  1  0.66637284  0.33349015  0.24999709  1
  Hg  Hg0  1  0.16182142  0.32322564  0.25000038  1
  Hg  Hg1  1  0.67660655  0.83816534  0.25000229  1
  Hg  Hg2  1  0.16181051  0.83841946  0.25000330  1
  Hg  Hg3  1  0.83857149  0.67671497  0.75000142  1
  Hg  Hg4  1  0.32339945  0.16163372  0.75000262  1
  Hg  Hg5  1  0.83852979  0.16175133  0.74999527  1
loop_
_geom_bond_atom_site_label_1
_geom_bond_atom_site_label_2
_geom_bond_distance
_geom_bond_site_symmetry_2
Ce0 Hg2 3.233057 1_555
Ce0 Hg2 3.233062 1_556
Ce0 Hg0 3.236545 1_555
Ce0 Hg1 3.236594 1_556
Ce0 Hg0 3.236611 1_556
Ce0 Hg1 3.236657 1_555
Ce0 Hg3 3.414414 1_455
Ce0 Hg4 3.420261 1_565
Ce0 Hg5 3.420769 1_455
Ce0 Hg3 3.422992 1_555
Ce0 Hg4 3.423481 1_555
Ce0 Hg5 3.426019 1_565
Ce1 Hg4 3.233814 1_554
Ce1 Hg4 3.233926 1_555
Ce1 Hg3 3.235992 1_555
Ce1 Hg3 3.236034 1_554
Ce1 Hg5 3.236765 1_555
Ce1 Hg5 3.236772 1_554
Ce1 Hg0 3.414778 1_555
Ce1 Hg1 3.419019 1_555
Ce1 Hg2 3.421975 1_545
Ce1 Hg0 3.422660 1_655
Ce1 Hg2 3.424609 1_655
Ce1 Hg1 3.424873 1_545
Hg0 Hg4 3.160983 1_554
Hg0 Hg4 3.161008 1_555
Hg0 Hg5 3.161901 1_454
Hg0 Hg5 3.161926 1_455
Hg0 Hg2 3.317403 1_545
Hg0 Hg1 3.321086 1_445
Hg1 Hg3 3.161875 1_555
Hg1 Hg3 3.161875 1_554
Hg1 Hg5 3.164004 1_565
Hg1 Hg5 3.164133 1_564
Hg1 Hg2 3.316158 1_655
Hg2 Hg3 3.161700 1_454
Hg2 Hg3 3.161752 1_455
Hg2 Hg4 3.162693 1_565
Hg2 Hg4 3.162771 1_564
Hg3 Hg5 3.319158 1_565
Hg3 Hg4 3.319279 1_665
Hg4 Hg5 3.315142 1_455
