# generated using pymatgen
data_LiMnPH2O5
_symmetry_space_group_name_H-M   'P 1'
_cell_length_a   4.73668800
_cell_length_b   10.07549533
_cell_length_c   10.07916562
_cell_angle_alpha   70.85318159
_cell_angle_beta   90.00079198
_cell_angle_gamma   90.00065380
_symmetry_Int_Tables_number   1
_chemical_formula_structural   LiMnPH2O5
_chemical_formula_sum   'Li4 Mn4 P4 H8 O20'
_cell_volume   454.41331318
_cell_formula_units_Z   4
loop_
 _symmetry_equiv_pos_site_id
 _symmetry_equiv_pos_as_xyz
  1  'x, y, z'
loop_
 _atom_site_type_symbol
 _atom_site_label
 _atom_site_symmetry_multiplicity
 _atom_site_fract_x
 _atom_site_fract_y
 _atom_site_fract_z
 _atom_site_occupancy
  Li  Li0  1  0.09318400  0.21342500  0.21266700  1
  Li  Li1  1  0.09353900  0.71337500  0.71301700  1
  Li  Li2  1  0.59320500  0.53658200  0.03734800  1
  Li  Li3  1  0.59353200  0.03659800  0.53698300  1
  Mn  Mn0  1  0.02065300  0.98717300  0.98610700  1
  Mn  Mn1  1  0.52068100  0.76285000  0.26389500  1
  Mn  Mn2  1  0.02116500  0.48718400  0.48636500  1
  Mn  Mn3  1  0.52119300  0.26280800  0.76362700  1
  P  P0  1  0.59942600  0.11301800  0.11331200  1
  P  P1  1  0.59998500  0.61308500  0.61355800  1
  P  P2  1  0.09944500  0.63701300  0.13669200  1
  P  P3  1  0.09997800  0.13689400  0.63643800  1
  H  H0  1  0.55852200  0.46208700  0.32935900  1
  H  H1  1  0.55720900  0.96184100  0.82931600  1
  H  H2  1  0.05857200  0.28791600  0.92064000  1
  H  H3  1  0.05724400  0.78813600  0.42068400  1
  H  H4  1  0.05710400  0.42025800  0.78768700  1
  H  H5  1  0.05687300  0.92030300  0.28758200  1
  H  H6  1  0.55686000  0.82969500  0.96243400  1
  H  H7  1  0.55703500  0.32973000  0.46229300  1
  O  O0  1  0.27344100  0.10549500  0.10527800  1
  O  O1  1  0.27398600  0.60541500  0.60552200  1
  O  O2  1  0.77346400  0.64452500  0.14473100  1
  O  O3  1  0.77396300  0.14456400  0.64447300  1
  O  O4  1  0.69168000  0.20292000  0.20208700  1
  O  O5  1  0.69210900  0.70298700  0.70237200  1
  O  O6  1  0.19170400  0.54712500  0.04790300  1
  O  O7  1  0.19211400  0.04699200  0.54762100  1
  O  O8  1  0.68569700  0.39087900  0.39124300  1
  O  O9  1  0.68497400  0.89076000  0.89103200  1
  O  O10  1  0.18575100  0.35911200  0.85874500  1
  O  O11  1  0.18499400  0.85923300  0.35897700  1
  O  O12  1  0.72781300  0.17147400  0.96011400  1
  O  O13  1  0.72839600  0.67164300  0.46026700  1
  O  O14  1  0.22783900  0.57854800  0.28988700  1
  O  O15  1  0.22838300  0.07833500  0.78973900  1
  O  O16  1  0.22721400  0.79012900  0.07717100  1
  O  O17  1  0.22812900  0.28998200  0.57696200  1
  O  O18  1  0.72812900  0.46000600  0.67302700  1
  O  O19  1  0.72721300  0.95990600  0.17284500  1
loop_
_geom_bond_atom_site_label_1
_geom_bond_atom_site_label_2
_geom_bond_distance
_geom_bond_site_symmetry_2
Li0 O4 1.909662 1_455
Li0 O0 1.963489 1_555
Li1 O5 1.909275 1_455
Li1 O1 1.964886 1_555
Li2 O6 1.909663 1_555
Li2 O2 1.963521 1_555
Li3 O7 1.909223 1_555
Li3 O3 1.964836 1_555
Mn0 O15 2.129942 1_565
Mn0 O16 2.132112 1_556
Mn0 O9 2.236204 1_455
Mn0 O12 2.263128 1_465
Mn0 O19 2.282717 1_456
Mn0 O0 2.288437 1_566
Mn1 O13 2.129983 1_555
Mn1 O19 2.132118 1_555
Mn1 O11 2.236133 1_555
Mn1 O14 2.263122 1_555
Mn1 O16 2.282638 1_555
Mn1 O2 2.288429 1_555
Mn2 O14 2.128769 1_555
Mn2 O17 2.133664 1_555
Mn2 O8 2.235139 1_455
Mn2 O13 2.264006 1_455
Mn2 O18 2.281085 1_455
Mn2 O1 2.287786 1_555
Mn3 O12 2.128669 1_555
Mn3 O18 2.133566 1_555
Mn3 O10 2.235057 1_555
Mn3 O15 2.264192 1_555
Mn3 O17 2.281168 1_555
Mn3 O3 2.287761 1_555
H0 O8 0.986463 1_555
H1 O9 0.986843 1_555
H2 O10 0.986456 1_555
H3 O11 0.986848 1_555
H4 O10 0.987104 1_555
H5 O11 0.987050 1_555
H6 O9 0.987050 1_555
H7 O8 0.987121 1_555
O0 P0 1.549366 1_555
O1 P1 1.549532 1_555
O2 P2 1.549347 1_655
O3 P3 1.549611 1_655
O4 P0 1.530919 1_555
O5 P1 1.531050 1_555
O6 P2 1.530938 1_555
O7 P3 1.531102 1_555
O12 P0 1.582537 1_556
O13 P1 1.583435 1_555
O14 P2 1.582518 1_555
O15 P3 1.583499 1_555
O16 P2 1.580832 1_555
O17 P3 1.581259 1_555
O18 P1 1.581172 1_555
O19 P0 1.580845 1_565
