# generated using pymatgen
data_LiTi3Nb(CuO4)3
_symmetry_space_group_name_H-M   'P 1'
_cell_length_a   6.45253100
_cell_length_b   6.47876873
_cell_length_c   6.52149671
_cell_angle_alpha   109.37127980
_cell_angle_beta   109.38043386
_cell_angle_gamma   109.28967143
_symmetry_Int_Tables_number   1
_chemical_formula_structural   LiTi3Nb(CuO4)3
_chemical_formula_sum   'Li1 Ti3 Nb1 Cu3 O12'
_cell_volume   210.82742888
_cell_formula_units_Z   1
loop_
 _symmetry_equiv_pos_site_id
 _symmetry_equiv_pos_as_xyz
  1  'x, y, z'
loop_
 _atom_site_type_symbol
 _atom_site_label
 _atom_site_symmetry_multiplicity
 _atom_site_fract_x
 _atom_site_fract_y
 _atom_site_fract_z
 _atom_site_occupancy
  Li  Li0  1  0.95418100  0.91354500  0.87596600  1
  Ti  Ti0  1  0.48216700  0.48283900  0.47597000  1
  Ti  Ti1  1  0.00356900  0.99238700  0.48113000  1
  Ti  Ti2  1  0.98684900  0.48649000  0.98165100  1
  Nb  Nb0  1  0.50374000  0.00080100  0.99472500  1
  Cu  Cu0  1  0.49920200  0.49778800  0.99643100  1
  Cu  Cu1  1  0.50360400  0.99828600  0.50079700  1
  Cu  Cu2  1  0.99801500  0.50284800  0.50048400  1
  O  O0  1  0.17900400  0.31094000  0.48959700  1
  O  O1  1  0.52188200  0.82099500  0.69566200  1
  O  O2  1  0.13179900  0.82186200  0.31244900  1
  O  O3  1  0.30940400  0.48858700  0.18001200  1
  O  O4  1  0.69182900  0.86797500  0.17919200  1
  O  O5  1  0.17230800  0.69644300  0.87148000  1
  O  O6  1  0.82160100  0.31343500  0.13151600  1
  O  O7  1  0.69655400  0.51612000  0.82088100  1
  O  O8  1  0.30104200  0.12554700  0.81890600  1
  O  O9  1  0.87537000  0.17972100  0.69856900  1
  O  O10  1  0.48921100  0.17879300  0.31159700  1
  O  O11  1  0.81766900  0.69359400  0.51098500  1
loop_
_geom_bond_atom_site_label_1
_geom_bond_atom_site_label_2
_geom_bond_distance
_geom_bond_site_symmetry_2
Li0 O11 2.000289 1_555
Li0 O5 2.295258 1_655
Li0 O7 2.384181 1_555
Li0 O1 2.402800 1_555
Li0 O8 2.427965 1_665
Li0 O9 2.466434 1_565
Nb0 O1 1.977119 1_545
Nb0 O6 1.986801 1_556
Nb0 O8 1.999091 1_555
Nb0 O4 2.017052 1_546
Nb0 O5 2.032119 1_545
Nb0 O10 2.056234 1_556
Cu0 O4 1.966869 1_556
Cu0 O7 1.975909 1_555
Cu0 O3 1.977102 1_556
Cu0 O8 1.979749 1_555
Cu1 O10 1.962557 1_565
Cu1 O2 1.967738 1_555
Cu1 O9 1.969145 1_565
Cu1 O1 1.976505 1_555
Cu2 O11 1.957788 1_555
Cu2 O0 1.967369 1_655
Cu2 O6 1.972818 1_555
Cu2 O5 1.985142 1_655
O0 Ti0 1.953581 1_555
O0 Ti1 1.970597 1_545
O1 Ti0 2.054574 1_555
O2 Ti1 1.875389 1_555
O2 Ti2 2.111517 1_454
O3 Ti0 1.901701 1_555
O3 Ti2 2.046506 1_454
O4 Ti1 1.954576 1_655
O5 Ti2 1.985446 1_455
O6 Ti2 1.994463 1_554
O7 Ti2 1.926771 1_555
O7 Ti0 2.106117 1_555
O8 Ti1 2.029789 1_545
O9 Ti2 1.901520 1_555
O9 Ti1 2.113820 1_645
O10 Ti0 1.929288 1_555
O11 Ti1 2.023612 1_655
O11 Ti0 2.028594 1_555
