# generated using pymatgen
data_KSiBiS4
_symmetry_space_group_name_H-M   'P 1'
_cell_length_a   6.76564956
_cell_length_b   6.52519190
_cell_length_c   17.26641365
_cell_angle_alpha   72.63386457
_cell_angle_beta   90.00000000
_cell_angle_gamma   90.00000000
_symmetry_Int_Tables_number   1
_chemical_formula_structural   KSiBiS4
_chemical_formula_sum   'K4 Si4 Bi4 S16'
_cell_volume   727.51684532
_cell_formula_units_Z   4
loop_
 _symmetry_equiv_pos_site_id
 _symmetry_equiv_pos_as_xyz
  1  'x, y, z'
loop_
 _atom_site_type_symbol
 _atom_site_label
 _atom_site_symmetry_multiplicity
 _atom_site_fract_x
 _atom_site_fract_y
 _atom_site_fract_z
 _atom_site_occupancy
  K  K0  1  0.25004034  0.27701116  0.96537572  1
  K  K1  1  0.75004034  0.72298884  0.53462428  1
  K  K2  1  0.74995966  0.72298884  0.03462428  1
  K  K3  1  0.24995966  0.27701116  0.46537572  1
  Si  Si0  1  0.73276739  0.20911441  0.84287210  1
  Si  Si1  1  0.23276739  0.79088559  0.65712790  1
  Si  Si2  1  0.26723261  0.79088559  0.15712790  1
  Si  Si3  1  0.76723261  0.20911441  0.34287210  1
  Bi  Bi0  1  0.80447966  0.76232001  0.77919719  1
  Bi  Bi1  1  0.30447966  0.23767999  0.72080281  1
  Bi  Bi2  1  0.19552034  0.23767999  0.22080281  1
  Bi  Bi3  1  0.69552034  0.76232001  0.27919719  1
  S  S0  1  0.49792453  0.98721072  0.86824833  1
  S  S1  1  -0.00207547  0.01278928  0.63175167  1
  S  S2  1  0.50207547  0.01278928  0.13175167  1
  S  S3  1  0.00207547  0.98721072  0.36824833  1
  S  S4  1  0.74942899  0.41397729  0.91706856  1
  S  S5  1  0.24942899  0.58602271  0.58293144  1
  S  S6  1  0.25057101  0.58602271  0.08293144  1
  S  S7  1  0.75057101  0.41397729  0.41706856  1
  S  S8  1  -0.00851326  0.01659244  0.85769425  1
  S  S9  1  0.49148674  0.98340756  0.64230575  1
  S  S10  1  0.00851326  0.98340756  0.14230575  1
  S  S11  1  0.50851326  0.01659244  0.35769425  1
  S  S12  1  0.68629321  0.40128307  0.71941995  1
  S  S13  1  0.18629321  0.59871693  0.78058005  1
  S  S14  1  0.31370679  0.59871693  0.28058005  1
  S  S15  1  0.81370679  0.40128307  0.21941995  1
loop_
_geom_bond_atom_site_label_1
_geom_bond_atom_site_label_2
_geom_bond_distance
_geom_bond_site_symmetry_2
K0 S6 3.260190 1_556
K0 S13 3.282553 1_555
K0 S0 3.330786 1_545
K0 S2 3.343058 1_556
K0 S8 3.360131 1_555
K0 S10 3.489914 1_546
K0 S4 3.530580 1_555
K0 S4 3.538498 1_455
K1 S7 3.260190 1_555
K1 S12 3.282553 1_555
K1 S1 3.330786 1_665
K1 S3 3.343058 1_655
K1 S9 3.360131 1_555
K1 S11 3.489914 1_565
K1 S5 3.530580 1_655
K1 S5 3.538498 1_555
K2 S4 3.260190 1_554
K2 S15 3.282553 1_555
K2 S2 3.330786 1_565
K2 S0 3.343058 1_554
K2 S10 3.360131 1_655
K2 S8 3.489914 1_664
K2 S6 3.530580 1_555
K2 S6 3.538498 1_655
K3 S5 3.260190 1_555
K3 S14 3.282553 1_555
K3 S3 3.330786 1_545
K3 S1 3.343058 1_555
K3 S11 3.360131 1_555
K3 S9 3.489914 1_545
K3 S7 3.530580 1_455
K3 S7 3.538498 1_555
Bi0 S8 2.744647 1_665
Bi0 S4 2.782472 1_555
Bi0 S13 2.792491 1_655
Bi0 S1 2.895097 1_665
Bi0 S12 2.950621 1_555
Bi0 S9 3.180665 1_555
Bi0 S0 3.188450 1_555
Bi1 S9 2.744647 1_545
Bi1 S5 2.782472 1_555
Bi1 S12 2.792491 1_555
Bi1 S0 2.895097 1_545
Bi1 S13 2.950621 1_555
Bi1 S8 3.180665 1_555
Bi1 S1 3.188450 1_555
Bi2 S10 2.744647 1_545
Bi2 S6 2.782472 1_555
Bi2 S15 2.792491 1_455
Bi2 S3 2.895097 1_545
Bi2 S14 2.950621 1_555
Bi2 S11 3.180665 1_555
Bi2 S2 3.188450 1_555
Bi3 S11 2.744647 1_565
Bi3 S7 2.782472 1_555
Bi3 S14 2.792491 1_555
Bi3 S2 2.895097 1_565
Bi3 S15 2.950621 1_555
Bi3 S10 3.180665 1_655
Bi3 S3 3.188450 1_655
S0 Si0 2.105788 1_565
S1 Si1 2.105788 1_545
S2 Si2 2.105788 1_545
S3 Si3 2.105788 1_465
S4 Si0 2.112630 1_555
S5 Si1 2.112630 1_555
S6 Si2 2.112630 1_555
S7 Si3 2.112630 1_555
S8 Si0 2.125003 1_455
S9 Si1 2.125003 1_555
S10 Si2 2.125003 1_555
S11 Si3 2.125003 1_555
S12 Si0 2.149248 1_555
S13 Si1 2.149248 1_555
S14 Si2 2.149248 1_555
S15 Si3 2.149248 1_555
