# generated using pymatgen
data_Li12Mg3Si4
_symmetry_space_group_name_H-M   'P 1'
_cell_length_a   9.25340523
_cell_length_b   9.25340523
_cell_length_c   9.25340523
_cell_angle_alpha   109.47122063
_cell_angle_beta   109.47122063
_cell_angle_gamma   109.47122063
_symmetry_Int_Tables_number   1
_chemical_formula_structural   Li12Mg3Si4
_chemical_formula_sum   'Li24 Mg6 Si8'
_cell_volume   609.93401435
_cell_formula_units_Z   2
loop_
 _symmetry_equiv_pos_site_id
 _symmetry_equiv_pos_as_xyz
  1  'x, y, z'
loop_
 _atom_site_type_symbol
 _atom_site_label
 _atom_site_symmetry_multiplicity
 _atom_site_fract_x
 _atom_site_fract_y
 _atom_site_fract_z
 _atom_site_occupancy
  Li  Li0  1  0.65644500  0.18740900  0.26975600  1
  Li  Li1  1  0.61331100  0.34355500  0.03096500  1
  Li  Li2  1  0.81259100  0.58234600  0.46903500  1
  Li  Li3  1  0.91765400  0.73024400  0.88668900  1
  Li  Li4  1  0.58234600  0.46903500  0.81259100  1
  Li  Li5  1  0.03096500  0.61331100  0.34355500  1
  Li  Li6  1  0.73024400  0.88668900  0.91765400  1
  Li  Li7  1  0.96903500  0.08234600  0.31259100  1
  Li  Li8  1  0.38668900  0.23024400  0.41765400  1
  Li  Li9  1  0.23024400  0.41765400  0.38668900  1
  Li  Li10  1  0.11331100  0.53096500  0.84355500  1
  Li  Li11  1  0.26975600  0.65644500  0.18740900  1
  Li  Li12  1  0.18740900  0.26975600  0.65644500  1
  Li  Li13  1  0.31259100  0.96903500  0.08234600  1
  Li  Li14  1  0.53096500  0.84355500  0.11331100  1
  Li  Li15  1  0.41765400  0.38668900  0.23024400  1
  Li  Li16  1  0.84355500  0.11331100  0.53096500  1
  Li  Li17  1  0.08234600  0.31259100  0.96903500  1
  Li  Li18  1  0.68740900  0.15644500  0.76975600  1
  Li  Li19  1  0.34355500  0.03096500  0.61331100  1
  Li  Li20  1  0.46903500  0.81259100  0.58234600  1
  Li  Li21  1  0.88668900  0.91765400  0.73024400  1
  Li  Li22  1  0.15644500  0.76975600  0.68740900  1
  Li  Li23  1  0.76975600  0.68740900  0.15644500  1
  Mg  Mg0  1  0.62500000  0.75000000  0.37500000  1
  Mg  Mg1  1  0.75000000  0.37500000  0.62500000  1
  Mg  Mg2  1  0.25000000  0.12500000  0.87500000  1
  Mg  Mg3  1  0.37500000  0.62500000  0.75000000  1
  Mg  Mg4  1  0.12500000  0.87500000  0.25000000  1
  Mg  Mg5  1  0.87500000  0.25000000  0.12500000  1
  Si  Si0  1  0.50000000  0.00000000  0.40644800  1
  Si  Si1  1  0.90644800  0.50000000  0.00000000  1
  Si  Si2  1  0.00000000  0.90644800  0.50000000  1
  Si  Si3  1  0.59355200  0.59355200  0.59355200  1
  Si  Si4  1  0.00000000  0.40644800  0.50000000  1
  Si  Si5  1  0.09355200  0.09355200  0.09355200  1
  Si  Si6  1  0.40644800  0.50000000  0.00000000  1
  Si  Si7  1  0.50000000  0.00000000  0.90644800  1
loop_
_geom_bond_atom_site_label_1
_geom_bond_atom_site_label_2
_geom_bond_distance
_geom_bond_site_symmetry_2
Li0 Si4 2.657782 1_655
Li0 Si7 2.756839 1_554
Li0 Si0 2.777108 1_555
Li0 Mg5 2.786031 1_555
Li0 Mg1 2.804523 1_555
Li1 Si7 2.657782 1_554
Li1 Si6 2.756839 1_555
Li1 Si1 2.777114 1_555
Li1 Mg2 2.786030 1_554
Li1 Mg5 2.804522 1_555
Li2 Si3 2.657790 1_555
Li2 Si4 2.756832 1_655
Li2 Si2 2.777112 1_655
Li2 Mg1 2.786032 1_555
Li2 Mg0 2.804528 1_555
Li3 Si1 2.657782 1_556
Li3 Si5 2.756839 1_666
Li3 Si3 2.777114 1_555
Li3 Mg4 2.786030 1_656
Li3 Mg1 2.804522 1_555
Li4 Si3 2.657790 1_555
Li4 Si6 2.756832 1_556
Li4 Si1 2.777112 1_556
Li4 Mg3 2.786032 1_555
Li4 Mg1 2.804528 1_555
Li5 Si1 2.657782 1_455
Li5 Si4 2.756839 1_555
Li5 Si2 2.777114 1_555
Li5 Mg5 2.786030 1_455
Li5 Mg4 2.804522 1_555
Li6 Si7 2.657782 1_565
Li6 Si5 2.756839 1_666
Li6 Si3 2.777114 1_555
Li6 Mg5 2.786030 1_566
Li6 Mg3 2.804522 1_555
Li7 Si5 2.657790 1_655
Li7 Si2 2.756832 1_645
Li7 Si4 2.777112 1_655
Li7 Mg4 2.786032 1_645
Li7 Mg5 2.804528 1_555
Li8 Si0 2.657782 1_555
Li8 Si3 2.756839 1_555
Li8 Si5 2.777114 1_555
Li8 Mg1 2.786030 1_555
Li8 Mg4 2.804522 1_545
Li9 Si4 2.657782 1_555
Li9 Si3 2.756839 1_555
Li9 Si5 2.777114 1_555
Li9 Mg3 2.786030 1_555
Li9 Mg5 2.804522 1_455
Li10 Si4 2.657782 1_555
Li10 Si1 2.756839 1_456
Li10 Si6 2.777114 1_556
Li10 Mg1 2.786030 1_455
Li10 Mg3 2.804522 1_555
Li11 Si0 2.657782 1_565
Li11 Si1 2.756839 1_455
Li11 Si6 2.777108 1_555
Li11 Mg4 2.786031 1_555
Li11 Mg0 2.804523 1_555
Li12 Si6 2.657782 1_556
Li12 Si2 2.756839 1_545
Li12 Si4 2.777108 1_555
Li12 Mg2 2.786031 1_555
Li12 Mg3 2.804523 1_555
Li13 Si5 2.657790 1_565
Li13 Si7 2.756832 1_564
Li13 Si0 2.777112 1_565
Li13 Mg2 2.786032 1_564
Li13 Mg4 2.804528 1_555
Li14 Si6 2.657782 1_555
Li14 Si7 2.756839 1_564
Li14 Si0 2.777114 1_565
Li14 Mg3 2.786030 1_554
Li14 Mg0 2.804522 1_555
Li15 Si6 2.657782 1_555
Li15 Si3 2.756839 1_555
Li15 Si5 2.777114 1_555
Li15 Mg0 2.786030 1_555
Li15 Mg2 2.804522 1_554
Li16 Si0 2.657782 1_555
Li16 Si2 2.756839 1_645
Li16 Si4 2.777114 1_655
Li16 Mg0 2.786030 1_545
Li16 Mg1 2.804522 1_555
Li17 Si5 2.657790 1_556
Li17 Si1 2.756832 1_456
Li17 Si6 2.777112 1_556
Li17 Mg5 2.786032 1_456
Li17 Mg2 2.804528 1_555
Li18 Si1 2.657782 1_556
Li18 Si0 2.756839 1_555
Li18 Si7 2.777108 1_555
Li18 Mg1 2.786031 1_555
Li18 Mg5 2.804523 1_556
Li19 Si2 2.657782 1_545
Li19 Si0 2.756839 1_555
Li19 Si7 2.777114 1_555
Li19 Mg4 2.786030 1_545
Li19 Mg2 2.804522 1_555
Li20 Si3 2.657790 1_555
Li20 Si0 2.756832 1_565
Li20 Si7 2.777112 1_565
Li20 Mg0 2.786032 1_555
Li20 Mg3 2.804528 1_555
Li21 Si2 2.657782 1_655
Li21 Si5 2.756839 1_666
Li21 Si3 2.777114 1_555
Li21 Mg2 2.786030 1_665
Li21 Mg0 2.804522 1_555
Li22 Si7 2.657782 1_565
Li22 Si4 2.756839 1_555
Li22 Si2 2.777108 1_555
Li22 Mg3 2.786031 1_555
Li22 Mg2 2.804523 1_565
Li23 Si2 2.657782 1_655
Li23 Si6 2.756839 1_555
Li23 Si1 2.777108 1_555
Li23 Mg0 2.786031 1_555
Li23 Mg4 2.804523 1_655
Mg0 Si0 2.886805 1_565
Mg0 Si2 2.886805 1_655
Mg0 Si6 2.886805 1_555
Mg0 Si3 2.886805 1_555
Mg1 Si0 2.886805 1_555
Mg1 Si4 2.886805 1_655
Mg1 Si1 2.886805 1_556
Mg1 Si3 2.886805 1_555
Mg2 Si6 2.886805 1_556
Mg2 Si2 2.886805 1_545
Mg2 Si7 2.886805 1_555
Mg2 Si5 2.886805 1_556
Mg3 Si3 2.886805 1_555
Mg3 Si4 2.886805 1_555
Mg3 Si7 2.886805 1_565
Mg3 Si6 2.886805 1_556
Mg4 Si0 2.886805 1_565
Mg4 Si2 2.886805 1_555
Mg4 Si1 2.886805 1_455
Mg4 Si5 2.886805 1_565
Mg5 Si4 2.886805 1_655
Mg5 Si1 2.886805 1_555
Mg5 Si7 2.886805 1_554
Mg5 Si5 2.886805 1_655
