# generated using pymatgen
data_Mn3(OF2)2
_symmetry_space_group_name_H-M   'P 1'
_cell_length_a   5.73463900
_cell_length_b   5.80105973
_cell_length_c   7.28754729
_cell_angle_alpha   74.32384996
_cell_angle_beta   73.87790973
_cell_angle_gamma   73.98941426
_symmetry_Int_Tables_number   1
_chemical_formula_structural   Mn3(OF2)2
_chemical_formula_sum   'Mn6 O4 F8'
_cell_volume   218.89025732
_cell_formula_units_Z   2
loop_
 _symmetry_equiv_pos_site_id
 _symmetry_equiv_pos_as_xyz
  1  'x, y, z'
loop_
 _atom_site_type_symbol
 _atom_site_label
 _atom_site_symmetry_multiplicity
 _atom_site_fract_x
 _atom_site_fract_y
 _atom_site_fract_z
 _atom_site_occupancy
  Mn  Mn0  1  0.29777400  0.33113000  0.16239900  1
  Mn  Mn1  1  0.68681600  0.64110000  0.32881200  1
  Mn  Mn2  1  0.34683200  0.35200800  0.68378400  1
  Mn  Mn3  1  0.67419400  0.66681700  0.83397600  1
  Mn  Mn4  1  0.00453000  0.01976900  0.49384900  1
  Mn  Mn5  1  0.98949600  0.00079100  0.99924800  1
  O  O0  1  0.77683800  0.75895600  0.03498300  1
  O  O1  1  0.21012800  0.23642800  0.96660400  1
  O  O2  1  0.58438800  0.56334900  0.63051900  1
  O  O3  1  0.97159600  0.35201600  0.32921500  1
  F  F0  1  0.38235800  0.94269200  0.33556800  1
  F  F1  1  0.03137600  0.66365400  0.65925900  1
  F  F2  1  0.10749900  0.12190000  0.69876800  1
  F  F3  1  0.41532900  0.41625100  0.37256400  1
  F  F4  1  0.90867300  0.89791400  0.29651200  1
  F  F5  1  0.63869300  0.02956900  0.66871100  1
  F  F6  1  0.31036800  0.70307700  0.99429300  1
  F  F7  1  0.66311300  0.30258000  0.01093700  1
loop_
_geom_bond_atom_site_label_1
_geom_bond_atom_site_label_2
_geom_bond_distance
_geom_bond_site_symmetry_2
Mn0 O1 1.888015 1_554
Mn0 O3 1.919134 1_455
Mn1 O3 1.992137 1_555
Mn1 O0 2.026997 1_555
Mn1 O2 2.067785 1_555
Mn2 O2 1.969791 1_555
Mn2 O1 1.989454 1_555
Mn3 O0 1.963031 1_556
Mn3 O2 1.974699 1_555
Mn4 O3 1.966050 1_455
Mn5 O0 2.023146 1_546
Mn5 O1 2.033995 1_655
F0 Mn1 2.103687 1_555
F0 Mn4 2.140408 1_565
F0 Mn0 2.259594 1_565
F1 Mn4 2.079996 1_565
F1 Mn3 2.088198 1_455
F1 Mn2 2.184900 1_555
F2 Mn4 2.022537 1_555
F2 Mn5 2.086745 1_455
F2 Mn2 2.127477 1_555
F3 Mn0 2.051778 1_555
F3 Mn2 2.136903 1_555
F3 Mn1 2.201518 1_555
F4 Mn4 2.018107 1_665
F4 Mn5 2.039670 1_564
F4 Mn1 2.140865 1_555
F5 Mn3 2.109618 1_545
F5 Mn4 2.125343 1_655
F5 Mn2 2.143380 1_555
F6 Mn3 2.073467 1_555
F6 Mn5 2.147952 1_465
F6 Mn0 2.184036 1_556
F7 Mn0 2.063549 1_555
F7 Mn3 2.165124 1_554
F7 Mn5 2.181719 1_554
