# generated using pymatgen
data_Hf
_symmetry_space_group_name_H-M   'P 1'
_cell_length_a   6.32229132
_cell_length_b   6.32229034
_cell_length_c   6.32229034
_cell_angle_alpha   60.00000012
_cell_angle_beta   60.00000522
_cell_angle_gamma   60.00000448
_symmetry_Int_Tables_number   1
_chemical_formula_structural   Hf
_chemical_formula_sum   Hf8
_cell_volume   178.69335806
_cell_formula_units_Z   8
loop_
 _symmetry_equiv_pos_site_id
 _symmetry_equiv_pos_as_xyz
  1  'x, y, z'
loop_
 _atom_site_type_symbol
 _atom_site_label
 _atom_site_symmetry_multiplicity
 _atom_site_fract_x
 _atom_site_fract_y
 _atom_site_fract_z
 _atom_site_occupancy
  Hf  Hf0_0  1  0.00000000  0.00000000  0.00000000  1
  Hf  Hf0_1  1  0.00000000  0.00000000  0.50000000  1
  Hf  Hf0_2  1  0.00000000  0.50000000  0.00000000  1
  Hf  Hf0_3  1  0.00000000  0.50000000  0.50000000  1
  Hf  Hf0_4  1  0.50000000  0.00000000  0.00000000  1
  Hf  Hf0_5  1  0.50000000  0.00000000  0.50000000  1
  Hf  Hf0_6  1  0.50000000  0.50000000  0.00000000  1
  Hf  Hf0_7  1  0.50000000  0.50000000  0.50000000  1
loop_
_geom_bond_atom_site_label_1
_geom_bond_atom_site_label_2
_geom_bond_distance
_geom_bond_site_symmetry_2
Hf0_0 Hf0_1 3.161145 1_554
Hf0_0 Hf0_1 3.161145 1_555
Hf0_0 Hf0_2 3.161145 1_545
Hf0_0 Hf0_2 3.161145 1_555
Hf0_0 Hf0_3 3.161145 1_545
Hf0_0 Hf0_3 3.161145 1_554
Hf0_0 Hf0_6 3.161146 1_455
Hf0_0 Hf0_6 3.161146 1_545
Hf0_0 Hf0_4 3.161146 1_455
Hf0_0 Hf0_4 3.161146 1_555
Hf0_0 Hf0_5 3.161146 1_554
Hf0_0 Hf0_5 3.161146 1_455
Hf0_1 Hf0_3 3.161145 1_545
Hf0_1 Hf0_3 3.161145 1_555
Hf0_1 Hf0_2 3.161145 1_555
Hf0_1 Hf0_2 3.161145 1_546
Hf0_1 Hf0_7 3.161146 1_455
Hf0_1 Hf0_7 3.161146 1_545
Hf0_1 Hf0_5 3.161146 1_455
Hf0_1 Hf0_5 3.161146 1_555
Hf0_1 Hf0_4 3.161146 1_555
Hf0_1 Hf0_4 3.161146 1_456
Hf0_2 Hf0_3 3.161145 1_554
Hf0_2 Hf0_3 3.161145 1_555
Hf0_2 Hf0_4 3.161146 1_465
Hf0_2 Hf0_4 3.161146 1_555
Hf0_2 Hf0_6 3.161146 1_555
Hf0_2 Hf0_6 3.161146 1_455
Hf0_2 Hf0_7 3.161146 1_455
Hf0_2 Hf0_7 3.161146 1_554
Hf0_3 Hf0_5 3.161146 1_465
Hf0_3 Hf0_5 3.161146 1_555
Hf0_3 Hf0_7 3.161146 1_555
Hf0_3 Hf0_7 3.161146 1_455
Hf0_3 Hf0_6 3.161146 1_456
Hf0_3 Hf0_6 3.161146 1_555
Hf0_4 Hf0_5 3.161145 1_554
Hf0_4 Hf0_5 3.161145 1_555
Hf0_4 Hf0_6 3.161145 1_545
Hf0_4 Hf0_6 3.161145 1_555
Hf0_4 Hf0_7 3.161145 1_545
Hf0_4 Hf0_7 3.161145 1_554
Hf0_5 Hf0_7 3.161145 1_555
Hf0_5 Hf0_7 3.161145 1_545
Hf0_5 Hf0_6 3.161145 1_546
Hf0_5 Hf0_6 3.161145 1_555
Hf0_6 Hf0_7 3.161145 1_555
Hf0_6 Hf0_7 3.161145 1_554
