# generated using pymatgen
data_La2Mg(NiH4)2
_symmetry_space_group_name_H-M   'P 1'
_cell_length_a   7.74702400
_cell_length_b   11.75604500
_cell_length_c   11.92923321
_cell_angle_alpha   87.16945608
_cell_angle_beta   90.00000000
_cell_angle_gamma   90.00000000
_symmetry_Int_Tables_number   1
_chemical_formula_structural   La2Mg(NiH4)2
_chemical_formula_sum   'La16 Mg8 Ni16 H64'
_cell_volume   1085.12179742
_cell_formula_units_Z   8
loop_
 _symmetry_equiv_pos_site_id
 _symmetry_equiv_pos_as_xyz
  1  'x, y, z'
loop_
 _atom_site_type_symbol
 _atom_site_label
 _atom_site_symmetry_multiplicity
 _atom_site_fract_x
 _atom_site_fract_y
 _atom_site_fract_z
 _atom_site_occupancy
  La  La0  1  0.82694800  0.60000100  0.58680600  1
  La  La1  1  0.65541700  0.10320300  0.61124100  1
  La  La2  1  0.32042500  0.66149200  0.65816000  1
  La  La3  1  0.16280000  0.16647900  0.68193100  1
  La  La4  1  0.66280000  0.83352100  0.81806900  1
  La  La5  1  0.82042500  0.33850800  0.84184000  1
  La  La6  1  0.15541700  0.89679700  0.88875900  1
  La  La7  1  0.32694800  0.39999900  0.91319400  1
  La  La8  1  0.67305200  0.60000100  0.08680600  1
  La  La9  1  0.84458300  0.10320300  0.11124100  1
  La  La10  1  0.17957500  0.66149200  0.15816000  1
  La  La11  1  0.33720000  0.16647900  0.18193100  1
  La  La12  1  0.83720000  0.83352100  0.31806900  1
  La  La13  1  0.67957500  0.33850800  0.34184000  1
  La  La14  1  0.34458300  0.89679700  0.38875900  1
  La  La15  1  0.17305200  0.39999900  0.41319400  1
  Mg  Mg0  1  0.99707700  0.89743400  0.58671100  1
  Mg  Mg1  1  0.49812300  0.38825200  0.61886300  1
  Mg  Mg2  1  0.99812300  0.61174800  0.88113700  1
  Mg  Mg3  1  0.49707700  0.10256600  0.91328900  1
  Mg  Mg4  1  0.50292300  0.89743400  0.08671100  1
  Mg  Mg5  1  0.00187700  0.38825200  0.11886300  1
  Mg  Mg6  1  0.50187700  0.61174800  0.38113700  1
  Mg  Mg7  1  0.00292300  0.10256600  0.41328900  1
  Ni  Ni0  1  0.64885000  0.85012800  0.54625400  1
  Ni  Ni1  1  0.85559600  0.32318100  0.58029900  1
  Ni  Ni2  1  0.35512700  0.94277900  0.64931400  1
  Ni  Ni3  1  0.13048700  0.42788000  0.68087900  1
  Ni  Ni4  1  0.63048700  0.57212000  0.81912100  1
  Ni  Ni5  1  0.85512700  0.05722100  0.85068600  1
  Ni  Ni6  1  0.35559600  0.67681900  0.91970100  1
  Ni  Ni7  1  0.14885000  0.14987200  0.95374600  1
  Ni  Ni8  1  0.85115000  0.85012800  0.04625400  1
  Ni  Ni9  1  0.64440400  0.32318100  0.08029900  1
  Ni  Ni10  1  0.14487300  0.94277900  0.14931400  1
  Ni  Ni11  1  0.36951300  0.42788000  0.18087900  1
  Ni  Ni12  1  0.86951300  0.57212000  0.31912100  1
  Ni  Ni13  1  0.64487300  0.05722100  0.35068600  1
  Ni  Ni14  1  0.14440400  0.67681900  0.41970100  1
  Ni  Ni15  1  0.35115000  0.14987200  0.45374600  1
  H  H0  1  0.07460500  0.73520900  0.53254600  1
  H  H1  1  0.71529000  0.40757900  0.53717200  1
  H  H2  1  0.37130500  0.25029200  0.53977800  1
  H  H3  1  0.31561200  0.04080500  0.54387100  1
  H  H4  1  0.53513700  0.56969200  0.56249500  1
  H  H5  1  0.95636000  0.06445300  0.57252300  1
  H  H6  1  0.99505500  0.42724900  0.57750200  1
  H  H7  1  0.44665000  0.84248800  0.58339900  1
  H  H8  1  0.27771300  0.46567000  0.59848000  1
  H  H9  1  0.78945300  0.81301400  0.63242700  1
  H  H10  1  0.86426900  0.22999000  0.67877100  1
  H  H11  1  0.19282900  0.87053100  0.68422100  1
  H  H12  1  0.62412600  0.66444300  0.72014400  1
  H  H13  1  0.06750900  0.54665800  0.72949200  1
  H  H14  1  0.48443700  0.25066600  0.73403300  1
  H  H15  1  0.41469400  0.02182800  0.74679300  1
  H  H16  1  0.91469400  0.97817200  0.75320700  1
  H  H17  1  0.98443700  0.74933400  0.76596700  1
  H  H18  1  0.56750900  0.45334200  0.77050800  1
  H  H19  1  0.12412600  0.33555700  0.77985600  1
  H  H20  1  0.69282900  0.12946900  0.81577900  1
  H  H21  1  0.36426900  0.77001000  0.82122900  1
  H  H22  1  0.28945300  0.18698600  0.86757300  1
  H  H23  1  0.77771300  0.53433000  0.90152000  1
  H  H24  1  0.94665000  0.15751200  0.91660100  1
  H  H25  1  0.49505500  0.57275100  0.92249800  1
  H  H26  1  0.45636000  0.93554700  0.92747700  1
  H  H27  1  0.03513700  0.43030800  0.93750500  1
  H  H28  1  0.81561200  0.95919500  0.95612900  1
  H  H29  1  0.87130500  0.74970800  0.96022200  1
  H  H30  1  0.21529000  0.59242100  0.96282800  1
  H  H31  1  0.57460500  0.26479100  0.96745400  1
  H  H32  1  0.42539500  0.73520900  0.03254600  1
  H  H33  1  0.78471000  0.40757900  0.03717200  1
  H  H34  1  0.12869500  0.25029200  0.03977800  1
  H  H35  1  0.18438800  0.04080500  0.04387100  1
  H  H36  1  0.96486300  0.56969200  0.06249500  1
  H  H37  1  0.54364000  0.06445300  0.07252300  1
  H  H38  1  0.50494500  0.42724900  0.07750200  1
  H  H39  1  0.05335000  0.84248800  0.08339900  1
  H  H40  1  0.22228700  0.46567000  0.09848000  1
  H  H41  1  0.71054700  0.81301400  0.13242700  1
  H  H42  1  0.63573100  0.22999000  0.17877100  1
  H  H43  1  0.30717100  0.87053100  0.18422100  1
  H  H44  1  0.87587400  0.66444300  0.22014400  1
  H  H45  1  0.43249100  0.54665800  0.22949200  1
  H  H46  1  0.01556300  0.25066600  0.23403300  1
  H  H47  1  0.08530600  0.02182800  0.24679300  1
  H  H48  1  0.58530600  0.97817200  0.25320700  1
  H  H49  1  0.51556300  0.74933400  0.26596700  1
  H  H50  1  0.93249100  0.45334200  0.27050800  1
  H  H51  1  0.37587400  0.33555700  0.27985600  1
  H  H52  1  0.80717100  0.12946900  0.31577900  1
  H  H53  1  0.13573100  0.77001000  0.32122900  1
  H  H54  1  0.21054700  0.18698600  0.36757300  1
  H  H55  1  0.72228700  0.53433000  0.40152000  1
  H  H56  1  0.55335000  0.15751200  0.41660100  1
  H  H57  1  0.00494500  0.57275100  0.42249800  1
  H  H58  1  0.04364000  0.93554700  0.42747700  1
  H  H59  1  0.46486300  0.43030800  0.43750500  1
  H  H60  1  0.68438800  0.95919500  0.45612900  1
  H  H61  1  0.62869500  0.74970800  0.46022200  1
  H  H62  1  0.28471000  0.59242100  0.46282800  1
  H  H63  1  0.92539500  0.26479100  0.46745400  1
loop_
_geom_bond_atom_site_label_1
_geom_bond_atom_site_label_2
_geom_bond_distance
_geom_bond_site_symmetry_2
H0 Ni14 1.633090 1_555
H0 Mg0 2.130040 1_455
H0 La2 2.548500 1_555
H0 La0 2.554398 1_455
H1 Ni1 1.542780 1_555
H1 Mg1 1.951894 1_555
H1 La0 2.519585 1_555
H1 La13 2.520401 1_555
H2 Ni15 1.609660 1_555
H2 Mg1 2.153333 1_555
H2 La3 2.508115 1_555
H2 La15 2.733887 1_555
H2 La1 2.900990 1_555
H3 Ni15 1.655163 1_555
H3 Ni2 1.691380 1_545
H3 La3 2.556762 1_555
H3 La14 2.578711 1_545
H4 Mg6 2.210376 1_555
H4 Mg1 2.223170 1_555
H4 La0 2.309088 1_555
H4 La2 2.314198 1_555
H5 Mg7 1.963433 1_655
H5 Mg0 1.987609 1_545
H5 La3 2.419586 1_655
H5 La1 2.424277 1_555
H6 Ni3 1.619436 1_655
H6 Ni1 1.631289 1_555
H6 La0 2.419735 1_555
H6 La15 2.430639 1_655
H7 Ni2 1.613283 1_555
H7 Ni0 1.629185 1_555
H7 La2 2.468138 1_555
H7 La14 2.505533 1_555
H8 Ni3 1.556062 1_555
H8 Mg1 1.944539 1_555
H8 La2 2.465328 1_555
H8 La15 2.511473 1_555
H9 Ni0 1.545732 1_555
H9 Mg0 1.953478 1_555
H9 La4 2.444970 1_555
H9 La0 2.605019 1_555
H10 Ni1 1.567663 1_555
H10 La1 2.367920 1_555
H10 La5 2.402527 1_555
H10 La3 2.429983 1_655
H11 Ni2 1.562285 1_555
H11 Mg0 1.927831 1_455
H11 La6 2.491440 1_555
H11 La2 2.681117 1_555
H12 Ni4 1.564594 1_555
H12 La4 2.373735 1_555
H12 La0 2.385770 1_555
H12 La2 2.466992 1_555
H13 Ni3 1.613734 1_555
H13 Mg2 2.069711 1_455
H13 La2 2.504427 1_555
H13 La0 2.580353 1_455
H14 Mg1 2.072568 1_555
H14 La1 2.675129 1_555
H14 La3 2.763204 1_555
H15 Ni2 1.592327 1_545
H15 Mg3 2.332229 1_555
H15 La1 2.618203 1_555
H15 La3 2.677424 1_555
H15 La4 3.021941 1_545
H16 Ni5 1.592327 1_565
H16 Mg0 2.332229 1_555
H16 La6 2.618203 1_655
H16 La4 2.677424 1_555
H16 La3 3.021941 1_665
H17 Mg2 2.072568 1_555
H17 La6 2.675129 1_655
H17 La4 2.763204 1_555
H18 Ni4 1.613734 1_555
H18 Mg1 2.069711 1_555
H18 La5 2.504427 1_555
H18 La7 2.580353 1_555
H19 Ni3 1.564594 1_555
H19 La3 2.373735 1_555
H19 La7 2.385770 1_555
H19 La5 2.466992 1_455
H20 Ni5 1.562285 1_555
H20 Mg3 1.927831 1_555
H20 La1 2.491440 1_555
H20 La5 2.681117 1_555
H21 Ni6 1.567663 1_555
H21 La6 2.367920 1_555
H21 La2 2.402527 1_555
H21 La4 2.429983 1_555
H22 Ni7 1.545732 1_555
H22 Mg3 1.953478 1_555
H22 La3 2.444970 1_555
H22 La7 2.605019 1_555
H23 Ni4 1.556062 1_555
H23 Mg2 1.944539 1_555
H23 La5 2.465328 1_555
H23 La8 2.511473 1_556
H24 Ni5 1.613283 1_555
H24 Ni7 1.629185 1_655
H24 La5 2.468138 1_555
H24 La9 2.505533 1_556
H25 Ni4 1.619436 1_555
H25 Ni6 1.631289 1_555
H25 La7 2.419735 1_555
H25 La8 2.430639 1_556
H26 Mg4 1.963433 1_556
H26 Mg3 1.987609 1_565
H26 La4 2.419586 1_555
H26 La6 2.424277 1_555
H27 Mg5 2.210376 1_556
H27 Mg2 2.223170 1_455
H27 La7 2.309088 1_555
H27 La5 2.314198 1_455
H28 Ni8 1.655163 1_556
H28 Ni5 1.691380 1_565
H28 La4 2.556762 1_555
H28 La9 2.578711 1_566
H29 Ni8 1.609660 1_556
H29 Mg2 2.153333 1_555
H29 La4 2.508115 1_555
H29 La8 2.733887 1_556
H29 La6 2.900990 1_655
H30 Ni6 1.542780 1_555
H30 Mg2 1.951894 1_455
H30 La7 2.519585 1_555
H30 La10 2.520401 1_556
H31 Ni9 1.633090 1_556
H31 Mg3 2.130040 1_555
H31 La5 2.548500 1_555
H31 La7 2.554398 1_555
H32 Ni6 1.633090 1_554
H32 Mg4 2.130040 1_555
H32 La10 2.548500 1_555
H32 La8 2.554398 1_555
H33 Ni9 1.542780 1_555
H33 Mg5 1.951894 1_655
H33 La8 2.519585 1_555
H33 La5 2.520401 1_554
H34 Ni7 1.609660 1_554
H34 Mg5 2.153333 1_555
H34 La11 2.508115 1_555
H34 La7 2.733887 1_554
H34 La9 2.900990 1_455
H35 Ni7 1.655163 1_554
H35 Ni10 1.691380 1_545
H35 La11 2.556762 1_555
H35 La6 2.578711 1_544
H36 Mg2 2.210376 1_554
H36 Mg5 2.223170 1_655
H36 La8 2.309088 1_555
H36 La10 2.314198 1_655
H37 Mg3 1.963433 1_554
H37 Mg4 1.987609 1_545
H37 La11 2.419586 1_555
H37 La9 2.424277 1_555
H38 Ni11 1.619436 1_555
H38 Ni9 1.631289 1_555
H38 La8 2.419735 1_555
H38 La7 2.430639 1_554
H39 Ni10 1.613283 1_555
H39 Ni8 1.629185 1_455
H39 La10 2.468138 1_555
H39 La6 2.505533 1_554
H40 Ni11 1.556062 1_555
H40 Mg5 1.944539 1_555
H40 La10 2.465328 1_555
H40 La7 2.511473 1_554
H41 Ni8 1.545732 1_555
H41 Mg4 1.953478 1_555
H41 La12 2.444970 1_555
H41 La8 2.605019 1_555
H42 Ni9 1.567663 1_555
H42 La9 2.367920 1_555
H42 La13 2.402527 1_555
H42 La11 2.429983 1_555
H43 Ni10 1.562285 1_555
H43 Mg4 1.927831 1_555
H43 La14 2.491440 1_555
H43 La10 2.681117 1_555
H44 Ni12 1.564594 1_555
H44 La12 2.373735 1_555
H44 La8 2.385770 1_555
H44 La10 2.466992 1_655
H45 Ni11 1.613734 1_555
H45 Mg6 2.069711 1_555
H45 La10 2.504427 1_555
H45 La8 2.580353 1_555
H46 Mg5 2.072568 1_555
H46 La9 2.675129 1_455
H46 La11 2.763204 1_555
H47 Ni10 1.592327 1_545
H47 Mg7 2.332229 1_555
H47 La9 2.618203 1_455
H47 La11 2.677424 1_555
H47 La12 3.021941 1_445
H48 Ni13 1.592327 1_565
H48 Mg4 2.332229 1_555
H48 La14 2.618203 1_555
H48 La12 2.677424 1_555
H48 La11 3.021941 1_565
H49 Mg6 2.072568 1_555
H49 La14 2.675129 1_555
H49 La12 2.763204 1_555
H50 Ni12 1.613734 1_555
H50 Mg5 2.069711 1_655
H50 La13 2.504427 1_555
H50 La15 2.580353 1_655
H51 Ni11 1.564594 1_555
H51 La11 2.373735 1_555
H51 La15 2.385770 1_555
H51 La13 2.466992 1_555
H52 Ni13 1.562285 1_555
H52 Mg7 1.927831 1_655
H52 La9 2.491440 1_555
H52 La13 2.681117 1_555
H53 Ni14 1.567663 1_555
H53 La14 2.367920 1_555
H53 La10 2.402527 1_555
H53 La12 2.429983 1_455
H54 Ni15 1.545732 1_555
H54 Mg7 1.953478 1_555
H54 La11 2.444970 1_555
H54 La15 2.605019 1_555
H55 Ni12 1.556062 1_555
H55 Mg6 1.944539 1_555
H55 La13 2.465328 1_555
H55 La0 2.511473 1_555
H56 Ni13 1.613283 1_555
H56 Ni15 1.629185 1_555
H56 La13 2.468138 1_555
H56 La1 2.505533 1_555
H57 Ni12 1.619436 1_455
H57 Ni14 1.631289 1_555
H57 La15 2.419735 1_555
H57 La0 2.430639 1_455
H58 Mg0 1.963433 1_455
H58 Mg7 1.987609 1_565
H58 La12 2.419586 1_455
H58 La14 2.424277 1_555
H59 Mg1 2.210376 1_555
H59 Mg6 2.223170 1_555
H59 La15 2.309088 1_555
H59 La13 2.314198 1_555
H60 Ni0 1.655163 1_555
H60 Ni13 1.691380 1_565
H60 La12 2.556762 1_555
H60 La1 2.578711 1_565
H61 Ni0 1.609660 1_555
H61 Mg6 2.153333 1_555
H61 La12 2.508115 1_555
H61 La0 2.733887 1_555
H61 La14 2.900990 1_555
H62 Ni14 1.542780 1_555
H62 Mg6 1.951894 1_555
H62 La15 2.519585 1_555
H62 La2 2.520401 1_555
H63 Ni1 1.633090 1_555
H63 Mg7 2.130040 1_655
H63 La13 2.548500 1_555
H63 La15 2.554398 1_655
