# generated using pymatgen
data_TiV3Cr2(PO4)6
_symmetry_space_group_name_H-M   'P 1'
_cell_length_a   8.60317190
_cell_length_b   8.60317190
_cell_length_c   8.60317162
_cell_angle_alpha   60.19331887
_cell_angle_beta   60.19331887
_cell_angle_gamma   60.19331710
_symmetry_Int_Tables_number   1
_chemical_formula_structural   TiV3Cr2(PO4)6
_chemical_formula_sum   'Ti1 V3 Cr2 P6 O24'
_cell_volume   452.22839053
_cell_formula_units_Z   1
loop_
 _symmetry_equiv_pos_site_id
 _symmetry_equiv_pos_as_xyz
  1  'x, y, z'
loop_
 _atom_site_type_symbol
 _atom_site_label
 _atom_site_symmetry_multiplicity
 _atom_site_fract_x
 _atom_site_fract_y
 _atom_site_fract_z
 _atom_site_occupancy
  Ti  Ti0  1  0.14568500  0.14568500  0.14568500  1
  V  V0  1  0.64300800  0.64300800  0.64300800  1
  V  V1  1  0.85604700  0.85604700  0.85604700  1
  V  V2  1  0.35713100  0.35713100  0.35713100  1
  Cr  Cr0  1  0.00011700  0.00011700  0.00011700  1
  Cr  Cr1  1  0.49965500  0.49965500  0.49965500  1
  P  P0  1  0.95652600  0.25033900  0.54465900  1
  P  P1  1  0.54465900  0.95652600  0.25033900  1
  P  P2  1  0.25033900  0.54465900  0.95652600  1
  P  P3  1  0.74999700  0.45669300  0.04300300  1
  P  P4  1  0.45669300  0.04300300  0.74999700  1
  P  P5  1  0.04300300  0.74999700  0.45669300  1
  O  O0  1  0.50696700  0.11297700  0.31120000  1
  O  O1  1  0.31120000  0.50696700  0.11297700  1
  O  O2  1  0.11297700  0.31120000  0.50696700  1
  O  O3  1  0.93850200  0.08738200  0.74028700  1
  O  O4  1  0.00414500  0.18558500  0.38182100  1
  O  O5  1  0.76023900  0.41186800  0.55347700  1
  O  O6  1  0.74028700  0.93850200  0.08738200  1
  O  O7  1  0.55347700  0.76023900  0.41186800  1
  O  O8  1  0.81137300  0.61365400  0.00627600  1
  O  O9  1  0.41186800  0.55347700  0.76023900  1
  O  O10  1  0.91508900  0.25890100  0.06077900  1
  O  O11  1  0.61365400  0.00627600  0.81137300  1
  O  O12  1  0.38182100  0.00414500  0.18558500  1
  O  O13  1  0.08738200  0.74028700  0.93850200  1
  O  O14  1  0.58937800  0.43806200  0.24169100  1
  O  O15  1  0.18558500  0.38182100  0.00414500  1
  O  O16  1  0.43806200  0.24169100  0.58937800  1
  O  O17  1  0.25890100  0.06077900  0.91508900  1
  O  O18  1  0.24169100  0.58937800  0.43806200  1
  O  O19  1  0.00627600  0.81137300  0.61365400  1
  O  O20  1  0.06077900  0.91508900  0.25890100  1
  O  O21  1  0.88685000  0.68931100  0.49133700  1
  O  O22  1  0.68931100  0.49133700  0.88685000  1
  O  O23  1  0.49133700  0.88685000  0.68931100  1
loop_
_geom_bond_atom_site_label_1
_geom_bond_atom_site_label_2
_geom_bond_distance
_geom_bond_site_symmetry_2
Cr0 O20 2.218257 1_545
Cr0 O10 2.218257 1_455
Cr0 O17 2.218257 1_554
Cr0 O3 2.226081 1_454
Cr0 O13 2.226081 1_544
Cr0 O6 2.226081 1_445
Cr1 O9 2.193576 1_555
Cr1 O5 2.193576 1_555
Cr1 O7 2.193576 1_555
Cr1 O14 2.204852 1_555
Cr1 O18 2.204852 1_555
Cr1 O16 2.204852 1_555
O0 P1 1.512904 1_545
O0 V2 1.963887 1_555
O1 P2 1.512904 1_554
O1 V2 1.963887 1_555
O2 P0 1.512904 1_455
O2 V2 1.963887 1_555
O3 P0 1.559816 1_555
O3 V1 2.046152 1_545
O4 P0 1.555374 1_455
O4 Ti0 1.883111 1_555
O5 P0 1.559826 1_555
O5 V0 2.078785 1_555
O6 P1 1.559816 1_555
O6 V1 2.046152 1_554
O7 P1 1.559826 1_555
O7 V0 2.078785 1_555
O8 P3 1.523465 1_555
O8 V1 1.946879 1_554
O9 P2 1.559826 1_555
O9 V0 2.078785 1_555
O10 P3 1.578214 1_555
O10 Ti0 2.056769 1_655
O11 P4 1.523465 1_555
O11 V1 1.946879 1_545
O12 P1 1.555374 1_545
O12 Ti0 1.883111 1_555
O13 P2 1.559816 1_555
O13 V1 2.046152 1_455
O14 P3 1.567360 1_555
O14 V2 2.046021 1_555
O15 P2 1.555374 1_554
O15 Ti0 1.883111 1_555
O16 P4 1.567360 1_555
O16 V2 2.046020 1_555
O17 P4 1.578214 1_555
O17 Ti0 2.056769 1_556
O18 P5 1.567360 1_555
O18 V2 2.046021 1_555
O19 P5 1.523465 1_555
O19 V1 1.946879 1_455
O20 P5 1.578214 1_555
O20 Ti0 2.056769 1_565
O21 P5 1.520095 1_655
O21 V0 1.963379 1_555
O22 P3 1.520095 1_556
O22 V0 1.963379 1_555
O23 P4 1.520095 1_565
O23 V0 1.963379 1_555
