# generated using pymatgen
data_Li11Fe12(BO3)12
_symmetry_space_group_name_H-M   'P 1'
_cell_length_a   10.34020700
_cell_length_b   8.79243959
_cell_length_c   8.78132680
_cell_angle_alpha   107.78807540
_cell_angle_beta   99.14099329
_cell_angle_gamma   99.11474863
_symmetry_Int_Tables_number   1
_chemical_formula_structural   Li11Fe12(BO3)12
_chemical_formula_sum   'Li11 Fe12 B12 O36'
_cell_volume   732.12824167
_cell_formula_units_Z   1
loop_
 _symmetry_equiv_pos_site_id
 _symmetry_equiv_pos_as_xyz
  1  'x, y, z'
loop_
 _atom_site_type_symbol
 _atom_site_label
 _atom_site_symmetry_multiplicity
 _atom_site_fract_x
 _atom_site_fract_y
 _atom_site_fract_z
 _atom_site_occupancy
  Li  Li0  1  0.03030300  0.73041600  0.01614500  1
  Li  Li1  1  0.68706600  0.70654400  0.40215100  1
  Li  Li2  1  0.43703300  0.45161600  0.15369200  1
  Li  Li3  1  0.94012100  0.95590000  0.65520500  1
  Li  Li4  1  0.65967100  0.94004300  0.95750900  1
  Li  Li5  1  0.15751600  0.44261100  0.45614600  1
  Li  Li6  1  0.40991000  0.69259700  0.70767300  1
  Li  Li7  1  0.52602600  0.22777500  0.51348900  1
  Li  Li8  1  0.77826400  0.47823600  0.76427500  1
  Li  Li9  1  0.18589300  0.20488000  0.90119600  1
  Li  Li10  1  0.90782600  0.19256100  0.20514800  1
  Fe  Fe0  1  0.31124100  0.68644900  0.32169400  1
  Fe  Fe1  1  0.56050700  0.93358500  0.56705400  1
  Fe  Fe2  1  0.06085800  0.43370100  0.06989600  1
  Fe  Fe3  1  0.28305100  0.90915000  0.90298500  1
  Fe  Fe4  1  0.02128000  0.66038400  0.65552300  1
  Fe  Fe5  1  0.92224700  0.90807100  0.27325900  1
  Fe  Fe6  1  0.66620800  0.65548900  0.02298200  1
  Fe  Fe7  1  0.77087400  0.40993500  0.40210200  1
  Fe  Fe8  1  0.51819100  0.15830500  0.15841100  1
  Fe  Fe9  1  0.16330300  0.15430500  0.51725700  1
  Fe  Fe10  1  0.41226700  0.40598300  0.77338200  1
  Fe  Fe11  1  0.81198600  0.18440400  0.81865900  1
  B  B0  1  0.21097100  0.87555100  0.55379500  1
  B  B1  1  0.54187300  0.87049900  0.20775500  1
  B  B2  1  0.70609000  0.37321300  0.03986900  1
  B  B3  1  0.95926900  0.62522400  0.29259500  1
  B  B4  1  0.50055100  0.50067100  0.50001400  1
  B  B5  1  0.75051200  0.75023700  0.74926200  1
  B  B6  1  0.25112500  0.25567400  0.24904300  1
  B  B7  1  0.00142900  0.99991800  0.99196700  1
  B  B8  1  0.04206800  0.37512000  0.70678000  1
  B  B9  1  0.29337900  0.62796500  0.96348200  1
  B  B10  1  0.45560700  0.11912600  0.79238200  1
  B  B11  1  0.79111200  0.12483300  0.45787900  1
  O  O0  1  0.11519300  0.91917600  0.01106000  1
  O  O1  1  0.16194600  0.94950800  0.44042000  1
  O  O2  1  0.49696900  0.94228500  0.08268400  1
  O  O3  1  0.19737900  0.62044800  0.06085300  1
  O  O4  1  0.45989400  0.86171500  0.31599100  1
  O  O5  1  0.13282300  0.87073600  0.67452100  1
  O  O6  1  0.33360900  0.80536600  0.55766400  1
  O  O7  1  0.08614000  0.55781800  0.30442900  1
  O  O8  1  0.67203000  0.80842700  0.21802800  1
  O  O9  1  0.92086600  0.70051100  0.17417500  1
  O  O10  1  0.01172400  0.45186300  0.58857700  1
  O  O11  1  0.26629700  0.71149200  0.85049000  1
  O  O12  1  0.73776200  0.82231100  0.62753900  1
  O  O13  1  0.48272500  0.56843800  0.37372000  1
  O  O14  1  0.22867400  0.32093400  0.11891700  1
  O  O15  1  0.39645700  0.50649400  0.59194300  1
  O  O16  1  0.64542500  0.75501900  0.83971700  1
  O  O17  1  0.14509900  0.25825100  0.33915200  1
  O  O18  1  0.87086800  0.61711200  0.39959100  1
  O  O19  1  0.61593400  0.36151400  0.14453400  1
  O  O20  1  0.83309300  0.30629900  0.05087100  1
  O  O21  1  0.41429800  0.55585400  0.97353700  1
  O  O22  1  0.16504800  0.30384400  0.72212900  1
  O  O23  1  0.86706600  0.67232900  0.78276300  1
  O  O24  1  0.62166800  0.42719700  0.53692600  1
  O  O25  1  0.37953200  0.19332700  0.29094300  1
  O  O26  1  0.66848700  0.45138200  0.92431700  1
  O  O27  1  0.41977100  0.20096200  0.68244400  1
  O  O28  1  0.75862400  0.19870700  0.33642300  1
  O  O29  1  0.89930300  0.00407700  0.08689400  1
  O  O30  1  0.94914300  0.37140200  0.80867100  1
  O  O31  1  0.69835300  0.12217800  0.56036400  1
  O  O32  1  0.36055900  0.10099100  0.89460400  1
  O  O33  1  0.58261400  0.05295400  0.80346900  1
  O  O34  1  0.91406500  0.05436400  0.47458700  1
  O  O35  1  0.98423900  0.07587500  0.87284300  1
loop_
_geom_bond_atom_site_label_1
_geom_bond_atom_site_label_2
_geom_bond_distance
_geom_bond_site_symmetry_2
Li0 O0 1.767242 1_555
Li0 O9 1.975606 1_455
Li0 O3 2.149246 1_555
Li0 O23 2.301780 1_454
Li1 O12 1.870433 1_555
Li1 O8 2.071235 1_555
Li1 O18 2.169599 1_555
Li1 O13 2.198995 1_555
Li2 O13 1.831678 1_555
Li2 O21 2.057658 1_554
Li2 O19 2.128087 1_555
Li2 O14 2.201708 1_555
Li3 O35 1.819920 1_565
Li3 O34 2.028495 1_565
Li3 O12 2.168500 1_555
Li3 O5 2.236688 1_655
Li4 O16 1.608001 1_555
Li4 O33 2.044221 1_565
Li4 O2 2.150313 1_556
Li4 O29 2.453623 1_566
Li5 O17 1.604419 1_555
Li5 O7 2.023545 1_555
Li5 O10 2.041981 1_555
Li5 O15 2.461061 1_555
Li6 O15 1.611383 1_555
Li6 O6 2.014062 1_555
Li6 O11 2.085234 1_555
Li6 O16 2.422147 1_555
Li7 O24 1.805626 1_555
Li7 O27 2.028177 1_555
Li7 O31 2.175141 1_555
Li7 O25 2.181241 1_555
Li8 O23 1.751773 1_555
Li8 O26 1.985958 1_555
Li8 O30 2.164966 1_555
Li8 O24 2.237027 1_555
Li9 O14 1.813416 1_556
Li9 O22 2.015912 1_555
Li9 O35 2.146988 1_455
Li9 O32 2.150173 1_555
Li10 O29 1.644902 1_555
Li10 O20 2.042687 1_555
Li10 O28 2.065282 1_555
Li10 O17 2.440532 1_655
Fe0 O6 1.971747 1_555
Fe0 O4 2.015210 1_555
Fe0 O13 2.246034 1_555
Fe0 O3 2.254774 1_555
Fe0 O7 2.380938 1_555
Fe1 O33 1.976270 1_565
Fe1 O31 2.030271 1_565
Fe1 O4 2.134001 1_555
Fe1 O12 2.274861 1_555
Fe1 O6 2.413711 1_555
Fe2 O7 1.966257 1_555
Fe2 O3 2.018919 1_555
Fe2 O14 2.178993 1_555
Fe2 O30 2.255283 1_454
Fe2 O20 2.398787 1_455
Fe3 O11 1.628664 1_555
Fe3 O32 1.777401 1_565
Fe3 O0 2.107556 1_556
Fe3 O5 2.231945 1_555
Fe3 O2 2.423555 1_556
Fe4 O10 1.726950 1_555
Fe4 O5 1.962979 1_555
Fe4 O23 2.085592 1_455
Fe4 O18 2.407091 1_455
Fe5 O9 1.762199 1_555
Fe5 O34 1.865422 1_565
Fe5 O29 2.056991 1_565
Fe5 O8 2.514043 1_555
Fe5 O1 2.581041 1_655
Fe6 O26 1.744042 1_554
Fe6 O8 1.811015 1_555
Fe6 O16 2.052330 1_554
Fe6 O21 2.535003 1_554
Fe7 O28 1.745195 1_555
Fe7 O18 1.955202 1_555
Fe7 O24 2.085615 1_555
Fe7 O19 2.430622 1_555
Fe7 O10 2.657847 1_655
Fe8 O2 1.774187 1_545
Fe8 O19 1.956701 1_555
Fe8 O25 1.988976 1_555
Fe8 O32 2.470624 1_554
Fe9 O1 1.715956 1_545
Fe9 O22 1.871510 1_555
Fe9 O17 2.037432 1_555
Fe9 O34 2.515729 1_455
Fe10 O27 1.754331 1_555
Fe10 O21 1.841331 1_555
Fe10 O15 2.041950 1_555
Fe10 O22 2.490757 1_555
Fe11 O20 1.950265 1_556
Fe11 O30 2.027615 1_555
Fe11 O35 2.203636 1_555
Fe11 O31 2.239616 1_555
Fe11 O33 2.432204 1_555
B0 O1 1.417969 1_555
B0 O5 1.437852 1_555
B0 O6 1.495693 1_555
B1 O4 1.381300 1_555
B1 O2 1.474646 1_555
B1 O8 1.530205 1_555
B2 O19 1.422671 1_555
B2 O26 1.427793 1_554
B2 O20 1.522915 1_555
B3 O18 1.420068 1_555
B3 O9 1.431745 1_555
B3 O7 1.524370 1_655
B4 O13 1.411571 1_555
B4 O15 1.442603 1_555
B4 O24 1.531709 1_555
B5 O12 1.398946 1_555
B5 O16 1.442830 1_555
B5 O23 1.510064 1_555
B6 O14 1.430864 1_555
B6 O17 1.449524 1_555
B6 O25 1.548364 1_555
B7 O35 1.406148 1_465
B7 O29 1.443829 1_466
B7 O0 1.480041 1_556
B8 O30 1.416320 1_455
B8 O10 1.422208 1_555
B8 O22 1.509175 1_555
B9 O3 1.415722 1_556
B9 O11 1.422805 1_555
B9 O21 1.491107 1_555
B10 O27 1.407934 1_555
B10 O32 1.454382 1_555
B10 O33 1.519458 1_555
B11 O31 1.417896 1_555
B11 O28 1.432070 1_555
B11 O34 1.505864 1_555
