# generated using pymatgen
data_LiNi(PO3)3
_symmetry_space_group_name_H-M   'P 1'
_cell_length_a   7.20824400
_cell_length_b   9.07210800
_cell_length_c   11.77332500
_cell_angle_alpha   90.00000000
_cell_angle_beta   90.00000000
_cell_angle_gamma   90.00000000
_symmetry_Int_Tables_number   1
_chemical_formula_structural   LiNi(PO3)3
_chemical_formula_sum   'Li4 Ni4 P12 O36'
_cell_volume   769.90443899
_cell_formula_units_Z   4
loop_
 _symmetry_equiv_pos_site_id
 _symmetry_equiv_pos_as_xyz
  1  'x, y, z'
loop_
 _atom_site_type_symbol
 _atom_site_label
 _atom_site_symmetry_multiplicity
 _atom_site_fract_x
 _atom_site_fract_y
 _atom_site_fract_z
 _atom_site_occupancy
  Li  Li0  1  0.75000000  0.95848200  0.02195700  1
  Li  Li1  1  0.75000000  0.45848200  0.47804300  1
  Li  Li2  1  0.25000000  0.54151800  0.52195700  1
  Li  Li3  1  0.25000000  0.04151800  0.97804300  1
  Ni  Ni0  1  0.75000000  0.52017700  0.70878700  1
  Ni  Ni1  1  0.75000000  0.02017700  0.79121300  1
  Ni  Ni2  1  0.25000000  0.97982300  0.20878700  1
  Ni  Ni3  1  0.25000000  0.47982300  0.29121300  1
  P  P0  1  0.95783500  0.75209900  0.34796200  1
  P  P1  1  0.95783500  0.25209900  0.15203800  1
  P  P2  1  0.75000000  0.30689300  0.95322800  1
  P  P3  1  0.75000000  0.80689300  0.54677200  1
  P  P4  1  0.54216500  0.25209900  0.15203800  1
  P  P5  1  0.54216500  0.75209900  0.34796200  1
  P  P6  1  0.45783500  0.24790100  0.65203800  1
  P  P7  1  0.45783500  0.74790100  0.84796200  1
  P  P8  1  0.25000000  0.19310700  0.45322800  1
  P  P9  1  0.25000000  0.69310700  0.04677200  1
  P  P10  1  0.04216500  0.24790100  0.65203800  1
  P  P11  1  0.04216500  0.74790100  0.84796200  1
  O  O0  1  0.97043500  0.64775500  0.75810600  1
  O  O1  1  0.97043500  0.14775500  0.74189400  1
  O  O2  1  0.93873900  0.88612000  0.88224400  1
  O  O3  1  0.93873900  0.38612000  0.61775600  1
  O  O4  1  0.92218300  0.34629200  0.03682100  1
  O  O5  1  0.92218300  0.84629200  0.46317900  1
  O  O6  1  0.75000000  0.69848600  0.31224000  1
  O  O7  1  0.75000000  0.40815300  0.85596500  1
  O  O8  1  0.75000000  0.90815300  0.64403500  1
  O  O9  1  0.75000000  0.14087300  0.93824700  1
  O  O10  1  0.75000000  0.19848600  0.18776000  1
  O  O11  1  0.75000000  0.64087300  0.56175300  1
  O  O12  1  0.57781700  0.34629200  0.03682100  1
  O  O13  1  0.57781700  0.84629200  0.46317900  1
  O  O14  1  0.56126100  0.88612000  0.88224400  1
  O  O15  1  0.56126100  0.38612000  0.61775600  1
  O  O16  1  0.52956500  0.64775500  0.75810600  1
  O  O17  1  0.52956500  0.14775500  0.74189400  1
  O  O18  1  0.47043500  0.85224500  0.25810600  1
  O  O19  1  0.47043500  0.35224500  0.24189400  1
  O  O20  1  0.43873900  0.11388000  0.11775600  1
  O  O21  1  0.43873900  0.61388000  0.38224400  1
  O  O22  1  0.42218300  0.15370800  0.53682100  1
  O  O23  1  0.42218300  0.65370800  0.96317900  1
  O  O24  1  0.25000000  0.85912700  0.06175300  1
  O  O25  1  0.25000000  0.59184700  0.14403500  1
  O  O26  1  0.25000000  0.35912700  0.43824700  1
  O  O27  1  0.25000000  0.09184700  0.35596500  1
  O  O28  1  0.25000000  0.30151400  0.68776000  1
  O  O29  1  0.25000000  0.80151400  0.81224000  1
  O  O30  1  0.07781700  0.15370800  0.53682100  1
  O  O31  1  0.07781700  0.65370800  0.96317900  1
  O  O32  1  0.06126100  0.61388000  0.38224400  1
  O  O33  1  0.06126100  0.11388000  0.11775600  1
  O  O34  1  0.02956500  0.35224500  0.24189400  1
  O  O35  1  0.02956500  0.85224500  0.25810600  1
loop_
_geom_bond_atom_site_label_1
_geom_bond_atom_site_label_2
_geom_bond_distance
_geom_bond_site_symmetry_2
Li0 O9 1.925937 1_564
Li0 O2 2.233273 1_554
Li0 O14 2.233273 1_554
Li1 O11 1.925937 1_555
Li1 O3 2.233273 1_555
Li1 O15 2.233273 1_555
Li2 O26 1.925937 1_555
Li2 O21 2.233273 1_555
Li2 O32 2.233273 1_555
Li3 O24 1.925937 1_546
Li3 O20 2.233273 1_556
Li3 O33 2.233273 1_556
Ni0 O7 2.008821 1_555
Ni0 O11 2.048313 1_555
Ni0 O16 2.049754 1_555
Ni0 O0 2.049754 1_555
Ni0 O3 2.116273 1_555
Ni0 O15 2.116273 1_555
Ni1 O8 2.008821 1_545
Ni1 O9 2.048313 1_555
Ni1 O17 2.049754 1_555
Ni1 O1 2.049754 1_555
Ni1 O14 2.116273 1_545
Ni1 O2 2.116273 1_545
Ni2 O27 2.008821 1_565
Ni2 O24 2.048313 1_555
Ni2 O18 2.049754 1_555
Ni2 O35 2.049754 1_555
Ni2 O20 2.116273 1_565
Ni2 O33 2.116273 1_565
Ni3 O25 2.008821 1_555
Ni3 O26 2.048313 1_555
Ni3 O34 2.049754 1_555
Ni3 O19 2.049754 1_555
Ni3 O21 2.116273 1_555
Ni3 O32 2.116273 1_555
O0 P11 1.487258 1_655
O1 P10 1.487258 1_655
O2 P11 1.513626 1_655
O3 P10 1.513626 1_655
O4 P1 1.623675 1_555
O4 P2 1.623812 1_554
O5 P0 1.623675 1_555
O5 P3 1.623812 1_555
O6 P0 1.630284 1_555
O6 P5 1.630284 1_555
O7 P2 1.468052 1_555
O8 P3 1.468052 1_555
O9 P2 1.516443 1_555
O10 P4 1.630284 1_555
O10 P1 1.630284 1_555
O11 P3 1.516443 1_555
O12 P4 1.623675 1_555
O12 P2 1.623812 1_554
O13 P5 1.623675 1_555
O13 P3 1.623812 1_555
O14 P7 1.513626 1_555
O15 P6 1.513626 1_555
O16 P7 1.487258 1_555
O17 P6 1.487258 1_555
O18 P5 1.487258 1_555
O19 P4 1.487258 1_555
O20 P4 1.513626 1_555
O21 P5 1.513626 1_555
O22 P6 1.623675 1_555
O22 P8 1.623812 1_555
O23 P7 1.623675 1_555
O23 P9 1.623812 1_556
O24 P9 1.516443 1_555
O25 P9 1.468052 1_555
O26 P8 1.516443 1_555
O27 P8 1.468052 1_555
O28 P10 1.630284 1_555
O28 P6 1.630284 1_555
O29 P11 1.630284 1_555
O29 P7 1.630284 1_555
O30 P10 1.623675 1_555
O30 P8 1.623812 1_555
O31 P11 1.623675 1_555
O31 P9 1.623812 1_556
O32 P0 1.513626 1_455
O33 P1 1.513626 1_455
O34 P1 1.487258 1_455
O35 P0 1.487258 1_455
