# generated using pymatgen
data_Ba3NaTaO6
_symmetry_space_group_name_H-M   'P 1'
_cell_length_a   7.23648080
_cell_length_b   7.23648080
_cell_length_c   7.23648066
_cell_angle_alpha   91.90242336
_cell_angle_beta   91.90242336
_cell_angle_gamma   91.90241671
_symmetry_Int_Tables_number   1
_chemical_formula_structural   Ba3NaTaO6
_chemical_formula_sum   'Ba6 Na2 Ta2 O12'
_cell_volume   378.30943205
_cell_formula_units_Z   2
loop_
 _symmetry_equiv_pos_site_id
 _symmetry_equiv_pos_as_xyz
  1  'x, y, z'
loop_
 _atom_site_type_symbol
 _atom_site_label
 _atom_site_symmetry_multiplicity
 _atom_site_fract_x
 _atom_site_fract_y
 _atom_site_fract_z
 _atom_site_occupancy
  Ba  Ba0  1  0.89907400  0.25000000  0.60092600  1
  Ba  Ba1  1  0.60092600  0.89907400  0.25000000  1
  Ba  Ba2  1  0.75000000  0.39907400  0.10092600  1
  Ba  Ba3  1  0.10092600  0.75000000  0.39907400  1
  Ba  Ba4  1  0.39907400  0.10092600  0.75000000  1
  Ba  Ba5  1  0.25000000  0.60092600  0.89907400  1
  Na  Na0  1  0.25000000  0.25000000  0.25000000  1
  Na  Na1  1  0.75000000  0.75000000  0.75000000  1
  Ta  Ta0  1  0.00000000  0.00000000  0.00000000  1
  Ta  Ta1  1  0.50000000  0.50000000  0.50000000  1
  O  O0  1  0.55057100  0.23406400  0.42279500  1
  O  O1  1  0.42279500  0.55057100  0.23406400  1
  O  O2  1  0.23406400  0.42279500  0.55057100  1
  O  O3  1  0.94942900  0.07720500  0.26593600  1
  O  O4  1  0.26593600  0.94942900  0.07720500  1
  O  O5  1  0.07720500  0.26593600  0.94942900  1
  O  O6  1  0.44942900  0.76593600  0.57720500  1
  O  O7  1  0.57720500  0.44942900  0.76593600  1
  O  O8  1  0.76593600  0.57720500  0.44942900  1
  O  O9  1  0.05057100  0.92279500  0.73406400  1
  O  O10  1  0.92279500  0.73406400  0.05057100  1
  O  O11  1  0.73406400  0.05057100  0.92279500  1
loop_
_geom_bond_atom_site_label_1
_geom_bond_atom_site_label_2
_geom_bond_distance
_geom_bond_site_symmetry_2
Ba0 O3 2.731390 1_555
Ba0 O2 2.731390 1_655
Ba0 O5 2.791068 1_655
Ba0 O0 2.791068 1_555
Ba0 O9 2.826720 1_645
Ba0 O8 2.826720 1_555
Ba0 O7 3.037626 1_555
Ba0 O11 3.037626 1_555
Ba1 O4 2.731390 1_555
Ba1 O0 2.731390 1_565
Ba1 O3 2.791069 1_565
Ba1 O1 2.791069 1_555
Ba1 O6 2.826720 1_555
Ba1 O11 2.826720 1_564
Ba1 O8 3.037626 1_555
Ba1 O10 3.037626 1_555
Ba2 O7 2.731390 1_554
Ba2 O10 2.731390 1_555
Ba2 O8 2.791068 1_555
Ba2 O11 2.791068 1_554
Ba2 O1 2.826720 1_555
Ba2 O5 2.826720 1_654
Ba2 O3 3.037626 1_555
Ba2 O0 3.037626 1_555
Ba3 O9 2.731390 1_555
Ba3 O8 2.731390 1_455
Ba3 O10 2.791068 1_455
Ba3 O6 2.791068 1_555
Ba3 O3 2.826720 1_465
Ba3 O2 2.826720 1_555
Ba3 O1 3.037626 1_555
Ba3 O4 3.037626 1_555
Ba4 O6 2.731390 1_545
Ba4 O11 2.731390 1_555
Ba4 O7 2.791069 1_555
Ba4 O9 2.791069 1_545
Ba4 O0 2.826720 1_555
Ba4 O4 2.826720 1_546
Ba4 O5 3.037626 1_555
Ba4 O2 3.037626 1_555
Ba5 O1 2.731390 1_556
Ba5 O5 2.731390 1_555
Ba5 O2 2.791068 1_555
Ba5 O4 2.791068 1_556
Ba5 O7 2.826720 1_555
Ba5 O10 2.826720 1_456
Ba5 O9 3.037626 1_555
Ba5 O6 3.037626 1_555
Na0 O2 2.480620 1_555
Na0 O5 2.480620 1_554
Na0 O0 2.480620 1_555
Na0 O4 2.480620 1_545
Na0 O1 2.480620 1_555
Na0 O3 2.480620 1_455
Na1 O10 2.480620 1_556
Na1 O8 2.480620 1_555
Na1 O11 2.480620 1_565
Na1 O6 2.480620 1_555
Na1 O9 2.480620 1_655
Na1 O7 2.480620 1_555
O0 Ta1 2.034326 1_555
O1 Ta1 2.034326 1_555
O2 Ta1 2.034326 1_555
O3 Ta0 2.034326 1_655
O4 Ta0 2.034326 1_565
O5 Ta0 2.034326 1_556
O6 Ta1 2.034326 1_555
O7 Ta1 2.034326 1_555
O8 Ta1 2.034326 1_555
O9 Ta0 2.034326 1_566
O10 Ta0 2.034326 1_665
O11 Ta0 2.034326 1_656
