# generated using pymatgen
data_ThAu3
_symmetry_space_group_name_H-M   'P 1'
_cell_length_a   6.56089034
_cell_length_b   6.56088997
_cell_length_c   4.69814055
_cell_angle_alpha   90.00000000
_cell_angle_beta   90.00000000
_cell_angle_gamma   120.00000719
_symmetry_Int_Tables_number   1
_chemical_formula_structural   ThAu3
_chemical_formula_sum   'Th2 Au6'
_cell_volume   175.13870685
_cell_formula_units_Z   2
loop_
 _symmetry_equiv_pos_site_id
 _symmetry_equiv_pos_as_xyz
  1  'x, y, z'
loop_
 _atom_site_type_symbol
 _atom_site_label
 _atom_site_symmetry_multiplicity
 _atom_site_fract_x
 _atom_site_fract_y
 _atom_site_fract_z
 _atom_site_occupancy
  Th  Th0  1  0.33333400  0.66666800  0.75000200  1
  Th  Th1  1  0.66666700  0.33333400  0.25000100  1
  Au  Au0  1  0.15386829  0.30773558  0.25000100  1
  Au  Au1  1  0.69226442  0.84613271  0.25000100  1
  Au  Au2  1  0.15386829  0.84613271  0.25000100  1
  Au  Au3  1  0.84613271  0.69226342  0.75000200  1
  Au  Au4  1  0.30773758  0.15386929  0.75000200  1
  Au  Au5  1  0.84613271  0.15386929  0.75000200  1
loop_
_geom_bond_atom_site_label_1
_geom_bond_atom_site_label_2
_geom_bond_distance
_geom_bond_site_symmetry_2
Au0 Au5 2.928385 1_454
Au0 Au4 2.928385 1_554
Au0 Au5 2.928392 1_455
Au0 Au4 2.928393 1_555
Au0 Au2 3.028526 1_545
Au0 Au1 3.028529 1_445
Au0 Th0 3.110841 1_554
Au0 Th0 3.110848 1_555
Au0 Th1 3.283665 1_555
Au0 Th1 3.283671 1_455
Au1 Au5 2.928388 1_564
Au1 Au3 2.928392 1_554
Au1 Au5 2.928396 1_565
Au1 Au3 2.928399 1_555
Au1 Au2 3.028532 1_655
Au1 Th0 3.110833 1_554
Au1 Th0 3.110841 1_555
Au1 Th1 3.283668 1_555
Au1 Th1 3.283668 1_565
Au2 Au3 2.928385 1_454
Au2 Au4 2.928388 1_564
Au2 Au3 2.928392 1_455
Au2 Au4 2.928396 1_565
Au2 Th0 3.110834 1_554
Au2 Th0 3.110841 1_555
Au2 Th1 3.283667 1_455
Au2 Th1 3.283667 1_565
Au3 Au4 3.028542 1_665
Au3 Au5 3.028545 1_565
Au3 Th1 3.110830 1_556
Au3 Th1 3.110837 1_555
Au3 Th0 3.283661 1_655
Au3 Th0 3.283674 1_555
Au4 Au5 3.028539 1_455
Au4 Th1 3.110830 1_556
Au4 Th1 3.110837 1_555
Au4 Th0 3.283664 1_545
Au4 Th0 3.283671 1_555
Au5 Th1 3.110834 1_556
Au5 Th1 3.110841 1_555
Au5 Th0 3.283667 1_655
Au5 Th0 3.283667 1_545
