# generated using pymatgen
data_Ca2SnS4
_symmetry_space_group_name_H-M   'P 1'
_cell_length_a   6.99577400
_cell_length_b   6.83109200
_cell_length_c   7.79261126
_cell_angle_alpha   72.96690595
_cell_angle_beta   90.00000000
_cell_angle_gamma   90.00000000
_symmetry_Int_Tables_number   1
_chemical_formula_structural   Ca2SnS4
_chemical_formula_sum   'Ca4 Sn2 S8'
_cell_volume   356.06432404
_cell_formula_units_Z   2
loop_
 _symmetry_equiv_pos_site_id
 _symmetry_equiv_pos_as_xyz
  1  'x, y, z'
loop_
 _atom_site_type_symbol
 _atom_site_label
 _atom_site_symmetry_multiplicity
 _atom_site_fract_x
 _atom_site_fract_y
 _atom_site_fract_z
 _atom_site_occupancy
  Ca  Ca0  1  0.25000000  0.71096400  0.94633700  1
  Ca  Ca1  1  0.75000000  0.28903600  0.05366300  1
  Ca  Ca2  1  0.25000000  0.72353100  0.44596200  1
  Ca  Ca3  1  0.75000000  0.27646900  0.55403800  1
  Sn  Sn0  1  0.25000000  0.24064200  0.81310400  1
  Sn  Sn1  1  0.75000000  0.75935800  0.18689600  1
  S  S0  1  0.25000000  0.03147500  0.11491800  1
  S  S1  1  0.75000000  0.96852500  0.88508200  1
  S  S2  1  0.25000000  0.03623400  0.61470600  1
  S  S3  1  0.75000000  0.96376600  0.38529400  1
  S  S4  1  0.50367100  0.49487600  0.74831700  1
  S  S5  1  0.00367100  0.50512400  0.25168300  1
  S  S6  1  0.49632900  0.50512400  0.25168300  1
  S  S7  1  0.99632900  0.49487600  0.74831700  1
loop_
_geom_bond_atom_site_label_1
_geom_bond_atom_site_label_2
_geom_bond_distance
_geom_bond_site_symmetry_2
Ca0 S0 2.864342 1_566
Ca0 S2 2.872544 1_565
Ca0 S6 2.940820 1_556
Ca0 S5 2.940820 1_556
Ca0 S4 3.007289 1_555
Ca0 S7 3.007289 1_455
Ca1 S1 2.864342 1_544
Ca1 S3 2.872544 1_545
Ca1 S7 2.940820 1_554
Ca1 S4 2.940820 1_554
Ca1 S5 3.007289 1_655
Ca1 S6 3.007289 1_555
Ca2 S0 2.810829 1_565
Ca2 S2 2.817379 1_565
Ca2 S6 2.968310 1_555
Ca2 S5 2.968310 1_555
Ca2 S4 2.997392 1_555
Ca2 S7 2.997392 1_455
Ca3 S1 2.810829 1_545
Ca3 S3 2.817379 1_545
Ca3 S7 2.968310 1_555
Ca3 S4 2.968310 1_555
Ca3 S5 2.997392 1_655
Ca3 S6 2.997392 1_555
S0 Sn0 2.367352 1_554
S1 Sn1 2.367352 1_556
S2 Sn0 2.367422 1_555
S3 Sn1 2.367422 1_555
S4 Sn0 2.430355 1_555
S5 Sn1 2.430355 1_455
S6 Sn1 2.430355 1_555
S7 Sn0 2.430355 1_655
