# generated using pymatgen
data_LiFe4(BO3)4
_symmetry_space_group_name_H-M   'P 1'
_cell_length_a   5.23909000
_cell_length_b   9.19429110
_cell_length_c   10.12721086
_cell_angle_alpha   89.19811944
_cell_angle_beta   89.66104513
_cell_angle_gamma   88.79150875
_symmetry_Int_Tables_number   1
_chemical_formula_structural   LiFe4(BO3)4
_chemical_formula_sum   'Li2 Fe8 B8 O24'
_cell_volume   487.66091686
_cell_formula_units_Z   2
loop_
 _symmetry_equiv_pos_site_id
 _symmetry_equiv_pos_as_xyz
  1  'x, y, z'
loop_
 _atom_site_type_symbol
 _atom_site_label
 _atom_site_symmetry_multiplicity
 _atom_site_fract_x
 _atom_site_fract_y
 _atom_site_fract_z
 _atom_site_occupancy
  Li  Li0  1  0.18579500  0.16735100  0.16084600  1
  Li  Li1  1  0.33279800  0.32742300  0.89956600  1
  Fe  Fe0  1  0.16797500  0.83333500  0.63093200  1
  Fe  Fe1  1  0.18418400  0.50560700  0.13127500  1
  Fe  Fe2  1  0.31040400  0.99597800  0.87373300  1
  Fe  Fe3  1  0.33147600  0.66333700  0.37561300  1
  Fe  Fe4  1  0.66985800  0.33708000  0.62572000  1
  Fe  Fe5  1  0.67119100  0.99893700  0.12253300  1
  Fe  Fe6  1  0.82308100  0.15996300  0.38324600  1
  Fe  Fe7  1  0.83336400  0.50103200  0.87832200  1
  B  B0  1  0.16093000  0.50028800  0.62778000  1
  B  B1  1  0.16863300  0.83824000  0.13529700  1
  B  B2  1  0.33680000  0.99551400  0.37607500  1
  B  B3  1  0.33403800  0.66119200  0.87075600  1
  B  B4  1  0.65684900  0.99811400  0.62708600  1
  B  B5  1  0.67538900  0.32292400  0.11960300  1
  B  B6  1  0.84225600  0.49829000  0.37893200  1
  B  B7  1  0.82562500  0.17702200  0.88367500  1
  O  O0  1  0.09520300  0.50463500  0.33800300  1
  O  O1  1  0.08405600  0.17471100  0.88785100  1
  O  O2  1  0.20750800  0.78613300  0.82714600  1
  O  O3  1  0.25731600  0.86543000  0.43089300  1
  O  O4  1  0.17291900  0.11192400  0.35698200  1
  O  O5  1  0.19180300  0.54025200  0.91366400  1
  O  O6  1  0.32163500  0.38310300  0.63991200  1
  O  O7  1  0.31074700  0.95965500  0.09378700  1
  O  O8  1  0.24082900  0.63201200  0.57458800  1
  O  O9  1  0.29300100  0.71270600  0.17910400  1
  O  O10  1  0.41440900  0.32485400  0.11053700  1
  O  O11  1  0.40352800  0.99200700  0.66625000  1
  O  O12  1  0.58920600  0.00808300  0.33135100  1
  O  O13  1  0.59264800  0.65031300  0.87329800  1
  O  O14  1  0.68983600  0.30207500  0.83241000  1
  O  O15  1  0.75545000  0.36261000  0.42901500  1
  O  O16  1  0.67927300  0.61322100  0.37466400  1
  O  O17  1  0.67460300  0.06605100  0.93254600  1
  O  O18  1  0.82502000  0.43325200  0.07065300  1
  O  O19  1  0.82030900  0.88352200  0.63155900  1
  O  O20  1  0.74450100  0.13424500  0.57769800  1
  O  O21  1  0.80557500  0.19877300  0.17488100  1
  O  O22  1  0.90978400  0.84930700  0.13211900  1
  O  O23  1  0.90830900  0.49005500  0.67402200  1
loop_
_geom_bond_atom_site_label_1
_geom_bond_atom_site_label_2
_geom_bond_distance
_geom_bond_site_symmetry_2
Li0 O10 1.958699 1_555
Li0 O21 2.011289 1_455
Li0 O4 2.044802 1_555
Li0 O7 2.124782 1_545
Li1 O1 1.940997 1_555
Li1 O14 1.996703 1_555
Li1 O5 2.083447 1_555
Li1 O10 2.181096 1_556
Fe0 O19 1.869531 1_455
Fe0 O11 1.968497 1_555
Fe0 O8 1.973511 1_555
Fe0 O2 2.038812 1_555
Fe0 O3 2.094768 1_555
Fe1 O10 2.045255 1_555
Fe1 O9 2.064028 1_555
Fe1 O18 2.106690 1_455
Fe1 O0 2.142096 1_555
Fe1 O5 2.222523 1_554
Fe2 O1 2.012357 1_565
Fe2 O2 2.075585 1_555
Fe2 O17 2.118163 1_565
Fe2 O11 2.154942 1_555
Fe2 O7 2.248797 1_556
Fe3 O16 1.870055 1_555
Fe3 O0 1.975806 1_555
Fe3 O3 1.978131 1_555
Fe3 O9 2.045170 1_555
Fe3 O8 2.084985 1_555
Fe4 O6 1.869246 1_555
Fe4 O20 1.964627 1_555
Fe4 O23 1.969463 1_555
Fe4 O15 2.050688 1_555
Fe4 O14 2.116202 1_555
Fe5 O22 1.841134 1_555
Fe5 O7 1.954343 1_555
Fe5 O17 2.012422 1_564
Fe5 O21 2.058843 1_565
Fe5 O12 2.157872 1_565
Fe6 O4 1.894328 1_655
Fe6 O15 1.950966 1_555
Fe6 O12 1.956500 1_555
Fe6 O20 2.021101 1_555
Fe6 O21 2.137366 1_555
Fe7 O13 1.844636 1_555
Fe7 O5 1.955697 1_655
Fe7 O18 2.037223 1_556
Fe7 O14 2.052758 1_555
Fe7 O23 2.107044 1_555
B0 O6 1.357972 1_555
B0 O8 1.390197 1_555
B0 O23 1.405884 1_455
B1 O22 1.358341 1_455
B1 O9 1.382354 1_555
B1 O7 1.412612 1_555
B2 O4 1.370229 1_565
B2 O3 1.382672 1_555
B2 O12 1.401812 1_565
B3 O13 1.356833 1_555
B3 O2 1.382478 1_555
B3 O5 1.413565 1_555
B4 O19 1.344084 1_555
B4 O11 1.384969 1_555
B4 O20 1.425349 1_565
B5 O10 1.370644 1_555
B5 O18 1.379907 1_555
B5 O21 1.426660 1_555
B6 O16 1.344885 1_555
B6 O0 1.388338 1_655
B6 O15 1.422597 1_555
B7 O1 1.354563 1_655
B7 O17 1.388263 1_555
B7 O14 1.432056 1_555
