# generated using pymatgen
data_Li2CeN2
_symmetry_space_group_name_H-M   'P 1'
_cell_length_a   3.57350791
_cell_length_b   3.57350760
_cell_length_c   5.43007881
_cell_angle_alpha   90.00000000
_cell_angle_beta   90.00000000
_cell_angle_gamma   120.00000296
_symmetry_Int_Tables_number   1
_chemical_formula_structural   Li2CeN2
_chemical_formula_sum   'Li2 Ce1 N2'
_cell_volume   60.05182487
_cell_formula_units_Z   1
loop_
 _symmetry_equiv_pos_site_id
 _symmetry_equiv_pos_as_xyz
  1  'x, y, z'
loop_
 _atom_site_type_symbol
 _atom_site_label
 _atom_site_symmetry_multiplicity
 _atom_site_fract_x
 _atom_site_fract_y
 _atom_site_fract_z
 _atom_site_occupancy
  Li  Li0  1  0.66666700  0.33333300  0.39485366  1
  Li  Li1  1  0.33333300  0.66666700  0.60514634  1
  Ce  Ce0  1  -0.00000000  -0.00000000  0.00000000  1
  N  N0  1  0.66666700  0.33333300  0.77233664  1
  N  N1  1  0.33333300  0.66666700  0.22766336  1
loop_
_geom_bond_atom_site_label_1
_geom_bond_atom_site_label_2
_geom_bond_distance
_geom_bond_site_symmetry_2
Li0 N0 2.049762 1_555
Li0 N1 2.254073 1_545
Li0 N1 2.254074 1_655
Li0 N1 2.254079 1_555
Li1 N1 2.049762 1_555
Li1 N0 2.254073 1_565
Li1 N0 2.254074 1_455
Li1 N0 2.254079 1_555
Ce0 N1 2.405184 1_545
Ce0 N0 2.405184 1_454
Ce0 N0 2.405186 1_444
Ce0 N1 2.405186 1_555
Ce0 N1 2.405186 1_445
Ce0 N0 2.405186 1_554
