# generated using pymatgen
data_LiFePO5
_symmetry_space_group_name_H-M   'P 1'
_cell_length_a   6.79937900
_cell_length_b   6.94582347
_cell_length_c   8.14270454
_cell_angle_alpha   90.32287873
_cell_angle_beta   92.04520016
_cell_angle_gamma   115.22678027
_symmetry_Int_Tables_number   1
_chemical_formula_structural   LiFePO5
_chemical_formula_sum   'Li4 Fe4 P4 O20'
_cell_volume   347.56772810
_cell_formula_units_Z   4
loop_
 _symmetry_equiv_pos_site_id
 _symmetry_equiv_pos_as_xyz
  1  'x, y, z'
loop_
 _atom_site_type_symbol
 _atom_site_label
 _atom_site_symmetry_multiplicity
 _atom_site_fract_x
 _atom_site_fract_y
 _atom_site_fract_z
 _atom_site_occupancy
  Li  Li0  1  0.30140200  0.79957100  0.43124400  1
  Li  Li1  1  0.20828800  0.27338300  0.07005600  1
  Li  Li2  1  0.79171200  0.72661700  0.92994400  1
  Li  Li3  1  0.69859800  0.20042900  0.56875600  1
  Fe  Fe0  1  0.24668800  0.49746200  0.74826300  1
  Fe  Fe1  1  0.24641800  0.99709500  0.75394500  1
  Fe  Fe2  1  0.75358200  0.00290500  0.24605500  1
  Fe  Fe3  1  0.75331200  0.50253800  0.25173700  1
  P  P0  1  0.23978000  0.75454700  0.08854400  1
  P  P1  1  0.26084600  0.24153700  0.41229100  1
  P  P2  1  0.73915400  0.75846300  0.58770900  1
  P  P3  1  0.76022000  0.24545300  0.91145600  1
  O  O0  1  0.13454400  0.86613700  0.97516700  1
  O  O1  1  0.08822400  0.64025400  0.22976100  1
  O  O2  1  0.22841400  0.74101200  0.66915900  1
  O  O3  1  0.28819600  0.59033500  0.98601400  1
  O  O4  1  0.20022600  0.39280400  0.51870300  1
  O  O5  1  0.44658700  0.92327800  0.17884100  1
  O  O6  1  0.05886400  0.07987800  0.31251800  1
  O  O7  1  0.27154100  0.25845400  0.83188100  1
  O  O8  1  0.64231500  0.88264200  0.47849500  1
  O  O9  1  0.41903400  0.36775100  0.27828500  1
  O  O10  1  0.58096600  0.63224900  0.72171500  1
  O  O11  1  0.35768500  0.11735800  0.52150500  1
  O  O12  1  0.72845900  0.74154600  0.16811900  1
  O  O13  1  0.94113600  0.92012200  0.68748200  1
  O  O14  1  0.55341300  0.07672200  0.82115900  1
  O  O15  1  0.79977400  0.60719600  0.48129700  1
  O  O16  1  0.71180400  0.40966500  0.01398600  1
  O  O17  1  0.77158600  0.25898800  0.33084100  1
  O  O18  1  0.91177600  0.35974600  0.77023900  1
  O  O19  1  0.86545600  0.13386300  0.02483300  1
loop_
_geom_bond_atom_site_label_1
_geom_bond_atom_site_label_2
_geom_bond_distance
_geom_bond_site_symmetry_2
Li0 O2 2.017470 1_555
Li0 O1 2.111804 1_555
Li0 O8 2.155884 1_555
Li0 O11 2.190976 1_565
Li0 O5 2.319163 1_555
Li1 O7 2.013016 1_554
Li1 O9 2.090761 1_555
Li1 O19 2.125474 1_455
Li1 O3 2.152676 1_554
Li1 O6 2.397006 1_555
Li2 O12 2.013016 1_556
Li2 O10 2.090761 1_555
Li2 O0 2.125474 1_655
Li2 O16 2.152676 1_556
Li2 O13 2.397006 1_555
Li3 O17 2.017470 1_555
Li3 O18 2.111804 1_555
Li3 O11 2.155884 1_555
Li3 O8 2.190976 1_545
Li3 O14 2.319163 1_555
Fe0 O2 1.864876 1_555
Fe0 O7 1.868625 1_555
Fe0 O4 1.966997 1_555
Fe0 O3 2.008822 1_555
Fe0 O18 2.075303 1_455
Fe0 O10 2.076714 1_555
Fe1 O7 1.855361 1_565
Fe1 O2 1.857402 1_555
Fe1 O13 1.964169 1_455
Fe1 O14 1.973205 1_565
Fe1 O0 2.043854 1_555
Fe1 O11 2.105645 1_565
Fe2 O12 1.855361 1_545
Fe2 O17 1.857402 1_555
Fe2 O6 1.964169 1_655
Fe2 O5 1.973205 1_545
Fe2 O19 2.043854 1_555
Fe2 O8 2.105645 1_545
Fe3 O17 1.864876 1_555
Fe3 O12 1.868625 1_555
Fe3 O15 1.966997 1_555
Fe3 O16 2.008822 1_555
Fe3 O1 2.075303 1_655
Fe3 O9 2.076714 1_555
O0 P0 1.548775 1_556
O1 P0 1.553031 1_555
O3 P0 1.560534 1_556
O4 P1 1.552087 1_555
O5 P0 1.550214 1_555
O6 P1 1.550013 1_555
O8 P2 1.555411 1_555
O9 P1 1.551407 1_555
O10 P2 1.551407 1_555
O11 P1 1.555411 1_555
O13 P2 1.550013 1_555
O14 P3 1.550214 1_555
O15 P2 1.552087 1_555
O16 P3 1.560534 1_554
O18 P3 1.553031 1_555
O19 P3 1.548775 1_554
