# generated using pymatgen
data_Rb2U5(PO7)4
_symmetry_space_group_name_H-M   'P 1'
_cell_length_a   10.32122105
_cell_length_b   10.32122105
_cell_length_c   9.51572808
_cell_angle_alpha   64.29902584
_cell_angle_beta   64.29902584
_cell_angle_gamma   100.58015488
_symmetry_Int_Tables_number   1
_chemical_formula_structural   Rb2U5(PO7)4
_chemical_formula_sum   'Rb2 U5 P4 O28'
_cell_volume   731.73606358
_cell_formula_units_Z   1
loop_
 _symmetry_equiv_pos_site_id
 _symmetry_equiv_pos_as_xyz
  1  'x, y, z'
loop_
 _atom_site_type_symbol
 _atom_site_label
 _atom_site_symmetry_multiplicity
 _atom_site_fract_x
 _atom_site_fract_y
 _atom_site_fract_z
 _atom_site_occupancy
  Rb  Rb0  1  0.65107700  0.65107700  0.43285100  1
  Rb  Rb1  1  0.21365800  0.21365800  0.42904000  1
  U  U0  1  0.73158900  0.26477700  0.69707500  1
  U  U1  1  0.26477700  0.73158900  0.69707500  1
  U  U2  1  0.12359900  0.67096300  0.20247800  1
  U  U3  1  0.67096300  0.12359900  0.20247800  1
  U  U4  1  0.71086300  0.71086300  0.90937700  1
  P  P0  1  0.94820100  0.51304100  0.71603000  1
  P  P1  1  0.51304100  0.94820100  0.71603000  1
  P  P2  1  0.85300900  0.47875200  0.18390500  1
  P  P3  1  0.47875200  0.85300900  0.18390500  1
  O  O0  1  0.88151700  0.19936700  0.61608700  1
  O  O1  1  0.19936700  0.88151700  0.61608700  1
  O  O2  1  0.59394700  0.34594500  0.76566600  1
  O  O3  1  0.34594500  0.59394700  0.76566600  1
  O  O4  1  0.11569800  0.55475700  0.67928200  1
  O  O5  1  0.55475700  0.11569800  0.67928200  1
  O  O6  1  0.03770400  0.59850100  0.02147900  1
  O  O7  1  0.59850100  0.03770400  0.02147900  1
  O  O8  1  0.84138900  0.45601000  0.36460500  1
  O  O9  1  0.45601000  0.84138900  0.36460500  1
  O  O10  1  0.95513300  0.53753700  0.53858000  1
  O  O11  1  0.53753700  0.95513300  0.53858000  1
  O  O12  1  0.83264200  0.32717900  0.86872900  1
  O  O13  1  0.32717900  0.83264200  0.86872900  1
  O  O14  1  0.03970900  0.81163900  0.17460400  1
  O  O15  1  0.81163900  0.03970900  0.17460400  1
  O  O16  1  0.19315300  0.51915000  0.24047200  1
  O  O17  1  0.51915000  0.19315300  0.24047200  1
  O  O18  1  0.81440200  0.31789000  0.20370400  1
  O  O19  1  0.31789000  0.81440200  0.20370400  1
  O  O20  1  0.53485900  0.53485900  0.01148000  1
  O  O21  1  0.88691800  0.88691800  0.80936200  1
  O  O22  1  0.87638900  0.61085300  0.77890400  1
  O  O23  1  0.61085300  0.87638900  0.77890400  1
  O  O24  1  0.74455000  0.55341100  0.15172900  1
  O  O25  1  0.55341100  0.74455000  0.15172900  1
  O  O26  1  0.80325200  0.80325200  0.59998800  1
  O  O27  1  0.34947100  0.34947100  0.59284700  1
loop_
_geom_bond_atom_site_label_1
_geom_bond_atom_site_label_2
_geom_bond_distance
_geom_bond_site_symmetry_2
O0 U0 1.801334 1_555
O0 Rb1 3.039078 1_655
O1 U1 1.801334 1_555
O1 Rb1 3.039078 1_565
O2 U0 1.803637 1_555
O2 Rb0 3.056679 1_555
O3 U1 1.803637 1_555
O3 Rb0 3.056679 1_555
O4 P0 1.538850 1_455
O4 U1 2.278156 1_555
O5 P1 1.538850 1_545
O5 U0 2.278156 1_555
O6 P2 1.572502 1_455
O6 U1 2.402861 1_554
O6 U2 2.551450 1_555
O7 P3 1.572502 1_545
O7 U0 2.402861 1_554
O7 U3 2.551450 1_555
O8 P2 1.576978 1_555
O8 U0 2.416984 1_555
O8 U2 2.558708 1_655
O8 Rb0 3.132636 1_555
O9 P3 1.576978 1_555
O9 U1 2.416984 1_555
O9 U3 2.558708 1_565
O9 Rb0 3.132636 1_555
O10 P0 1.561596 1_555
O10 U2 2.371881 1_655
O10 U0 2.537199 1_555
O11 P1 1.561596 1_555
O11 U3 2.371881 1_565
O11 U1 2.537199 1_555
O12 P0 1.566151 1_555
O12 U3 2.369310 1_556
O12 U0 2.512791 1_555
O13 P1 1.566151 1_555
O13 U2 2.369310 1_556
O13 U1 2.512791 1_555
O14 U2 1.804167 1_555
O14 Rb0 3.217423 1_455
O15 U3 1.804167 1_555
O15 Rb0 3.217423 1_545
O16 U2 1.802238 1_555
O16 Rb1 2.978836 1_555
O17 U3 1.802238 1_555
O17 Rb1 2.978836 1_555
O18 P2 1.539960 1_555
O18 U3 2.271186 1_555
O19 P3 1.539960 1_555
O19 U2 2.271186 1_555
O20 U4 1.808423 1_554
O20 Rb1 3.298857 1_555
O21 U4 1.815777 1_555
O21 Rb1 3.239635 1_665
O22 P0 1.529874 1_555
O22 U4 2.333469 1_555
O23 P1 1.529874 1_555
O23 U4 2.333469 1_555
O24 P2 1.532990 1_555
O24 U4 2.394275 1_554
O24 Rb0 3.092002 1_555
O25 P3 1.532990 1_555
O25 U4 2.394275 1_554
O25 Rb0 3.092002 1_555
O26 U4 2.298314 1_555
O26 Rb0 3.300088 1_555
O27 Rb1 3.070543 1_555
O27 Rb0 3.149417 1_555
