# generated using pymatgen
data_Sr(DySe2)2
_symmetry_space_group_name_H-M   'P 1'
_cell_length_a   4.13987351
_cell_length_b   12.58885188
_cell_length_c   14.94418270
_cell_angle_alpha   90.00000000
_cell_angle_beta   90.00000000
_cell_angle_gamma   90.00000000
_symmetry_Int_Tables_number   1
_chemical_formula_structural   Sr(DySe2)2
_chemical_formula_sum   'Sr4 Dy8 Se16'
_cell_volume   778.83482768
_cell_formula_units_Z   4
loop_
 _symmetry_equiv_pos_site_id
 _symmetry_equiv_pos_as_xyz
  1  'x, y, z'
loop_
 _atom_site_type_symbol
 _atom_site_label
 _atom_site_symmetry_multiplicity
 _atom_site_fract_x
 _atom_site_fract_y
 _atom_site_fract_z
 _atom_site_occupancy
  Sr  Sr0  1  0.25000000  0.75836167  0.66400114  1
  Sr  Sr1  1  0.75000000  0.74163833  0.16400114  1
  Sr  Sr2  1  0.25000000  0.25836167  0.83599886  1
  Sr  Sr3  1  0.75000000  0.24163833  0.33599886  1
  Dy  Dy0  1  0.25000000  0.43522980  0.61076548  1
  Dy  Dy1  1  0.75000000  0.06477020  0.11076548  1
  Dy  Dy2  1  0.25000000  0.93522980  0.88923452  1
  Dy  Dy3  1  0.75000000  0.56477020  0.38923452  1
  Dy  Dy4  1  0.25000000  0.41819845  0.09872219  1
  Dy  Dy5  1  0.75000000  0.08180155  0.59872219  1
  Dy  Dy6  1  0.25000000  0.91819845  0.40127781  1
  Dy  Dy7  1  0.75000000  0.58180155  0.90127781  1
  Se  Se0  1  0.25000000  0.41142885  0.42210204  1
  Se  Se1  1  0.75000000  0.08857115  0.92210204  1
  Se  Se2  1  0.25000000  0.91142885  0.07789796  1
  Se  Se3  1  0.75000000  0.58857115  0.57789796  1
  Se  Se4  1  0.25000000  0.02449813  0.71549487  1
  Se  Se5  1  0.75000000  0.47550187  0.21549487  1
  Se  Se6  1  0.25000000  0.52449813  0.78450513  1
  Se  Se7  1  0.75000000  0.97550187  0.28450513  1
  Se  Se8  1  0.25000000  0.12987861  0.47094648  1
  Se  Se9  1  0.75000000  0.37012139  0.97094648  1
  Se  Se10  1  0.25000000  0.62987861  0.02905352  1
  Se  Se11  1  0.75000000  0.87012139  0.52905352  1
  Se  Se12  1  0.25000000  0.20681347  0.17242764  1
  Se  Se13  1  0.75000000  0.29318653  0.67242764  1
  Se  Se14  1  0.25000000  0.70681347  0.32757236  1
  Se  Se15  1  0.75000000  0.79318653  0.82757236  1
loop_
_geom_bond_atom_site_label_1
_geom_bond_atom_site_label_2
_geom_bond_distance
_geom_bond_site_symmetry_2
Dy0 Se6 2.829165 1_555
Dy0 Se0 2.835297 1_555
Dy0 Se3 2.872683 1_455
Dy0 Se3 2.872683 1_555
Dy0 Se13 2.886400 1_555
Dy0 Se13 2.886400 1_455
Dy1 Se7 2.829165 1_545
Dy1 Se1 2.835297 1_554
Dy1 Se2 2.872683 1_645
Dy1 Se2 2.872683 1_545
Dy1 Se12 2.886400 1_655
Dy1 Se12 2.886400 1_555
Dy2 Se4 2.829165 1_565
Dy2 Se2 2.835297 1_556
Dy2 Se1 2.872683 1_565
Dy2 Se1 2.872683 1_465
Dy2 Se15 2.886400 1_455
Dy2 Se15 2.886400 1_555
Dy3 Se5 2.829165 1_555
Dy3 Se3 2.835297 1_555
Dy3 Se0 2.872683 1_655
Dy3 Se0 2.872683 1_555
Dy3 Se14 2.886400 1_655
Dy3 Se14 2.886400 1_555
Dy4 Se5 2.801841 1_555
Dy4 Se5 2.801841 1_455
Dy4 Se10 2.860977 1_555
Dy4 Se12 2.880044 1_555
Dy4 Se9 2.880478 1_554
Dy4 Se9 2.880478 1_454
Dy5 Se4 2.801841 1_555
Dy5 Se4 2.801841 1_655
Dy5 Se11 2.860977 1_545
Dy5 Se13 2.880044 1_555
Dy5 Se8 2.880478 1_555
Dy5 Se8 2.880478 1_655
Dy6 Se7 2.801841 1_555
Dy6 Se7 2.801841 1_455
Dy6 Se8 2.860977 1_565
Dy6 Se14 2.880044 1_555
Dy6 Se11 2.880478 1_555
Dy6 Se11 2.880478 1_455
Dy7 Se6 2.801841 1_555
Dy7 Se6 2.801841 1_655
Dy7 Se9 2.860977 1_555
Dy7 Se15 2.880044 1_555
Dy7 Se10 2.880478 1_556
Dy7 Se10 2.880478 1_656
Se0 Sr3 3.241776 1_455
Se0 Sr3 3.241776 1_555
Se1 Sr2 3.241776 1_555
Se1 Sr2 3.241776 1_655
Se2 Sr1 3.241776 1_555
Se2 Sr1 3.241776 1_455
Se3 Sr0 3.241776 1_555
Se3 Sr0 3.241776 1_655
Se4 Sr0 3.437592 1_545
Se4 Sr2 3.451169 1_555
Se5 Sr1 3.437592 1_555
Se5 Sr3 3.451169 1_555
Se6 Sr2 3.437592 1_555
Se6 Sr0 3.451169 1_555
Se7 Sr3 3.437592 1_565
Se7 Sr1 3.451169 1_555
Se8 Sr3 3.214201 1_455
Se8 Sr3 3.214201 1_555
Se9 Sr2 3.214201 1_555
Se9 Sr2 3.214201 1_655
Se10 Sr1 3.214201 1_455
Se10 Sr1 3.214201 1_555
Se11 Sr0 3.214201 1_655
Se11 Sr0 3.214201 1_555
Se12 Sr3 3.232973 1_455
Se12 Sr3 3.232973 1_555
Se13 Sr2 3.232973 1_555
Se13 Sr2 3.232973 1_655
Se14 Sr1 3.232973 1_555
Se14 Sr1 3.232973 1_455
Se15 Sr0 3.232973 1_555
Se15 Sr0 3.232973 1_655
