# generated using pymatgen
data_Li4V3P8O29
_symmetry_space_group_name_H-M   'P 1'
_cell_length_a   9.77062500
_cell_length_b   9.78407030
_cell_length_c   14.13026201
_cell_angle_alpha   89.79403591
_cell_angle_beta   90.47251850
_cell_angle_gamma   119.89073850
_symmetry_Int_Tables_number   1
_chemical_formula_structural   Li4V3P8O29
_chemical_formula_sum   'Li8 V6 P16 O58'
_cell_volume   1171.07581780
_cell_formula_units_Z   2
loop_
 _symmetry_equiv_pos_site_id
 _symmetry_equiv_pos_as_xyz
  1  'x, y, z'
loop_
 _atom_site_type_symbol
 _atom_site_label
 _atom_site_symmetry_multiplicity
 _atom_site_fract_x
 _atom_site_fract_y
 _atom_site_fract_z
 _atom_site_occupancy
  Li  Li0  1  0.91319000  0.68331200  0.06252600  1
  Li  Li1  1  0.77268400  0.09547100  0.05819900  1
  Li  Li2  1  0.30797700  0.22195300  0.06009400  1
  Li  Li3  1  0.66965100  0.90271300  0.43794200  1
  Li  Li4  1  0.33088100  0.09191600  0.55910300  1
  Li  Li5  1  0.68285600  0.77283000  0.93983300  1
  Li  Li6  1  0.23251600  0.33387300  0.43975600  1
  Li  Li7  1  0.97564800  0.94669300  0.49534500  1
  V  V0  1  0.56675400  0.00200600  0.24937500  1
  V  V1  1  0.43105900  0.99587000  0.75378400  1
  V  V2  1  0.56970400  0.56186800  0.74483300  1
  V  V3  1  0.43255900  0.43385100  0.24888600  1
  V  V4  1  0.00504900  0.56713100  0.25701600  1
  V  V5  1  0.99817600  0.43551900  0.74713400  1
  P  P0  1  0.91407000  0.68381000  0.84386000  1
  P  P1  1  0.77688500  0.69120700  0.33832900  1
  P  P2  1  0.91818800  0.22414300  0.34161400  1
  P  P3  1  0.67031000  0.33730600  0.13125500  1
  P  P4  1  0.66281500  0.32730500  0.62933600  1
  P  P5  1  0.77437100  0.09176000  0.83834200  1
  P  P6  1  0.68429600  0.91185700  0.65742800  1
  P  P7  1  0.31994900  0.23051800  0.84251500  1
  P  P8  1  0.67880600  0.76765100  0.15622600  1
  P  P9  1  0.31526200  0.08824200  0.34499600  1
  P  P10  1  0.22656500  0.91261500  0.16342000  1
  P  P11  1  0.33631600  0.66515900  0.37236200  1
  P  P12  1  0.33627400  0.66288900  0.86862400  1
  P  P13  1  0.08300900  0.77918800  0.65934500  1
  P  P14  1  0.22476700  0.31403800  0.66105000  1
  P  P15  1  0.08286900  0.31580700  0.15607300  1
  O  O0  1  0.00179600  0.80025300  0.57664300  1
  O  O1  1  0.91635600  0.65741400  0.33431800  1
  O  O2  1  0.74910200  0.74996500  0.06602900  1
  O  O3  1  0.74441400  0.66133400  0.83550000  1
  O  O4  1  0.90575700  0.52418100  0.82056200  1
  O  O5  1  0.81758400  0.48623400  0.17664200  1
  O  O6  1  0.91748000  0.38272400  0.33021900  1
  O  O7  1  0.99036200  0.23624200  0.06998400  1
  O  O8  1  0.91656200  0.25983700  0.83375500  1
  O  O9  1  0.66665300  0.47948000  0.67512400  1
  O  O10  1  0.61870600  0.53830200  0.33209500  1
  O  O11  1  0.81071400  0.32816900  0.67463200  1
  O  O12  1  0.67593700  0.34357900  0.02565400  1
  O  O13  1  0.65820700  0.33262600  0.52472400  1
  O  O14  1  0.67329200  0.18667700  0.16960600  1
  O  O15  1  0.47872400  0.38161000  0.82033800  1
  O  O16  1  0.51679700  0.33128500  0.17011100  1
  O  O17  1  0.74526900  0.08507800  0.33833100  1
  O  O18  1  0.79480900  0.00220200  0.74826400  1
  O  O19  1  0.76584000  0.97911400  0.56647300  1
  O  O20  1  0.76060100  0.00237500  0.92744000  1
  O  O21  1  0.61999300  0.09817600  0.82055400  1
  O  O22  1  0.50982000  0.18120600  0.66896800  1
  O  O23  1  0.66264300  0.91697400  0.15742200  1
  O  O24  1  0.47169500  0.09067000  0.33094000  1
  O  O25  1  0.34033500  0.25829500  0.33330600  1
  O  O26  1  0.79720200  0.78927600  0.24129300  1
  O  O27  1  0.79673600  0.79994700  0.41804900  1
  O  O28  1  0.22743800  0.23005200  0.57317800  1
  O  O29  1  0.65151000  0.73986900  0.67000900  1
  O  O30  1  0.52936400  0.91450000  0.67226300  1
  O  O31  1  0.34515800  0.08626600  0.83144600  1
  O  O32  1  0.48904400  0.81110600  0.33406800  1
  O  O33  1  0.38075700  0.90531900  0.18056900  1
  O  O34  1  0.23407100  0.00567600  0.07851400  1
  O  O35  1  0.23166400  0.02135700  0.43617500  1
  O  O36  1  0.20136100  0.98980100  0.25804800  1
  O  O37  1  0.25876800  0.91630800  0.66381800  1
  O  O38  1  0.48604200  0.66292200  0.82994800  1
  O  O39  1  0.51821000  0.62023400  0.17828400  1
  O  O40  1  0.34258800  0.81661300  0.82177400  1
  O  O41  1  0.33755600  0.67226800  0.97309300  1
  O  O42  1  0.32519200  0.66006800  0.47751600  1
  O  O43  1  0.18915500  0.67123600  0.32463500  1
  O  O44  1  0.38207200  0.47269600  0.67432000  1
  O  O45  1  0.32234700  0.50983300  0.33216500  1
  O  O46  1  0.08294900  0.74278600  0.16330900  1
  O  O47  1  0.00901300  0.79881100  0.75742300  1
  O  O48  1  0.98837000  0.75098600  0.93634100  1
  O  O49  1  0.07789400  0.61805500  0.66948800  1
  O  O50  1  0.18588800  0.52445300  0.82011900  1
  O  O51  1  0.09152400  0.47539400  0.17908800  1
  O  O52  1  0.25151500  0.33821300  0.15777800  1
  O  O53  1  0.25042200  0.23760300  0.93341500  1
  O  O54  1  0.20503000  0.20918900  0.75350600  1
  O  O55  1  0.08493500  0.34499000  0.66479100  1
  O  O56  1  0.00624800  0.21535900  0.42582300  1
  O  O57  1  0.99771000  0.20524100  0.24741400  1
loop_
_geom_bond_atom_site_label_1
_geom_bond_atom_site_label_2
_geom_bond_distance
_geom_bond_site_symmetry_2
Li0 O48 1.919772 1_554
Li0 O2 2.010408 1_555
Li0 O46 2.030464 1_655
Li0 O5 2.323360 1_555
Li1 O7 1.877329 1_555
Li1 O20 2.039305 1_554
Li1 O23 2.075450 1_545
Li1 O14 2.261986 1_555
Li2 O34 1.882311 1_555
Li2 O53 1.900278 1_554
Li2 O52 2.037832 1_555
Li2 O16 2.346938 1_555
Li3 O27 1.970775 1_555
Li3 O19 2.005478 1_555
Li3 O17 2.096620 1_565
Li3 O32 2.112338 1_555
Li4 O35 1.935809 1_555
Li4 O28 2.062631 1_555
Li4 O37 2.104806 1_545
Li4 O22 2.161615 1_555
Li5 O2 1.941947 1_556
Li5 O20 1.987630 1_565
Li5 O3 2.098892 1_555
Li5 O38 2.273076 1_555
Li6 O56 1.926211 1_555
Li6 O28 2.127474 1_555
Li6 O45 2.131359 1_555
Li6 O25 2.174774 1_555
Li7 O0 1.945751 1_655
Li7 O27 1.946379 1_555
Li7 O35 2.387191 1_665
Li7 O19 2.448973 1_555
O0 P13 1.477744 1_555
O1 P1 1.555639 1_555
O1 V4 1.873465 1_655
O2 P8 1.503508 1_555
O3 P0 1.563245 1_555
O3 V2 1.954354 1_555
O4 P0 1.559192 1_555
O4 V5 1.856634 1_555
O5 P3 1.583288 1_555
O5 V4 1.948957 1_655
O6 P2 1.562760 1_555
O6 V4 1.876133 1_655
O7 P15 1.479904 1_655
O8 P5 1.536962 1_555
O8 V5 1.929610 1_555
O9 P4 1.608628 1_555
O9 V2 1.816439 1_555
O10 P1 1.526002 1_555
O10 V3 1.963557 1_555
O11 P4 1.571799 1_555
O11 V5 1.888626 1_555
O12 P3 1.493550 1_555
O13 P4 1.480028 1_555
O14 P3 1.582180 1_555
O14 V0 1.936184 1_555
O15 P7 1.552135 1_555
O15 V2 1.865073 1_555
O16 P3 1.574788 1_555
O16 V3 1.941608 1_555
O17 P2 1.554315 1_555
O17 V0 1.959859 1_555
O18 P5 1.616902 1_555
O18 P6 1.621337 1_545
O19 P6 1.485884 1_555
O20 P5 1.498522 1_555
O21 P5 1.558943 1_555
O21 V1 1.853698 1_545
O22 P4 1.571565 1_555
O22 V1 1.981285 1_545
O23 P8 1.545927 1_555
O23 V0 2.015662 1_565
O24 P9 1.531323 1_555
O24 V0 1.942016 1_555
O25 P9 1.564610 1_555
O25 V3 1.909346 1_555
O26 P8 1.600861 1_555
O26 P1 1.626437 1_555
O27 P1 1.495930 1_555
O28 P14 1.498954 1_555
O29 P6 1.558000 1_555
O29 V2 1.844741 1_555
O30 P6 1.542866 1_555
O30 V1 1.915800 1_555
O31 P7 1.557500 1_555
O31 V1 1.858213 1_545
O32 P11 1.562881 1_555
O32 V0 2.020573 1_565
O33 P10 1.560307 1_555
O33 V0 1.845742 1_565
O34 P10 1.483525 1_545
O35 P9 1.494620 1_555
O36 P9 1.610357 1_565
O36 P10 1.617682 1_555
O37 P13 1.566987 1_555
O37 V1 1.929135 1_555
O38 P12 1.566113 1_555
O38 V2 1.980541 1_555
O39 P8 1.545556 1_555
O39 V3 1.871015 1_555
O40 P12 1.614077 1_555
O40 V1 1.799098 1_555
O41 P12 1.478916 1_555
O42 P11 1.489561 1_555
O43 P11 1.610807 1_555
O43 V4 1.827205 1_555
O44 P14 1.557719 1_555
O44 V2 1.869973 1_555
O45 P11 1.564924 1_555
O45 V3 1.980424 1_555
O46 P10 1.551153 1_555
O46 V4 1.995675 1_555
O47 P0 1.608356 1_455
O47 P13 1.623881 1_555
O48 P0 1.477037 1_555
O49 P13 1.558355 1_555
O49 V5 1.900940 1_455
O50 P12 1.571562 1_555
O50 V5 1.889218 1_455
O51 P15 1.556441 1_555
O51 V4 1.873585 1_555
O52 P15 1.550211 1_555
O52 V3 1.995830 1_555
O53 P7 1.475818 1_555
O54 P14 1.610483 1_555
O54 P7 1.622100 1_555
O55 P14 1.541045 1_555
O55 V5 1.904979 1_455
O56 P2 1.489835 1_455
O57 P2 1.603651 1_555
O57 P15 1.624486 1_655
