# generated using pymatgen
data_Li2MnCr2O6
_symmetry_space_group_name_H-M   'P 1'
_cell_length_a   7.84934811
_cell_length_b   7.84934811
_cell_length_c   5.97567849
_cell_angle_alpha   78.59386377
_cell_angle_beta   78.59386377
_cell_angle_gamma   68.71879601
_symmetry_Int_Tables_number   1
_chemical_formula_structural   Li2MnCr2O6
_chemical_formula_sum   'Li6 Mn3 Cr6 O18'
_cell_volume   333.07948106
_cell_formula_units_Z   3
loop_
 _symmetry_equiv_pos_site_id
 _symmetry_equiv_pos_as_xyz
  1  'x, y, z'
loop_
 _atom_site_type_symbol
 _atom_site_label
 _atom_site_symmetry_multiplicity
 _atom_site_fract_x
 _atom_site_fract_y
 _atom_site_fract_z
 _atom_site_occupancy
  Li  Li0  1  0.49832100  0.16552500  0.83141800  1
  Li  Li1  1  0.16552500  0.49832100  0.83141800  1
  Li  Li2  1  0.50167900  0.83447500  0.16858200  1
  Li  Li3  1  0.83447500  0.50167900  0.16858200  1
  Li  Li4  1  0.16824800  0.83175200  0.50000000  1
  Li  Li5  1  0.83175200  0.16824800  0.50000000  1
  Mn  Mn0  1  0.16529700  0.83470300  0.00000000  1
  Mn  Mn1  1  0.50000000  0.50000000  0.00000000  1
  Mn  Mn2  1  0.83470300  0.16529700  0.00000000  1
  Cr  Cr0  1  0.49628600  0.16781100  0.33349700  1
  Cr  Cr1  1  0.83379400  0.83379400  0.33296100  1
  Cr  Cr2  1  0.16781100  0.49628600  0.33349700  1
  Cr  Cr3  1  0.50371400  0.83218900  0.66650300  1
  Cr  Cr4  1  0.83218900  0.50371400  0.66650300  1
  Cr  Cr5  1  0.16620600  0.16620600  0.66703900  1
  O  O0  1  0.99323900  0.99323900  0.22455800  1
  O  O1  1  0.65707700  0.00028900  0.56046200  1
  O  O2  1  0.00028900  0.65707700  0.56046200  1
  O  O3  1  0.00676100  0.00676100  0.77544200  1
  O  O4  1  0.67387700  0.01605300  0.09761300  1
  O  O5  1  0.01605300  0.67387700  0.09761300  1
  O  O6  1  0.34292300  0.99971100  0.43953800  1
  O  O7  1  0.67713500  0.67713500  0.42932800  1
  O  O8  1  0.99971100  0.34292300  0.43953800  1
  O  O9  1  0.32612300  0.98394700  0.90238700  1
  O  O10  1  0.65189400  0.65189400  0.91223400  1
  O  O11  1  0.98394700  0.32612300  0.90238700  1
  O  O12  1  0.32597200  0.66602500  0.21838000  1
  O  O13  1  0.66602500  0.32597200  0.21838000  1
  O  O14  1  0.32286500  0.32286500  0.57067200  1
  O  O15  1  0.33397500  0.67402800  0.78162000  1
  O  O16  1  0.67402800  0.33397500  0.78162000  1
  O  O17  1  0.34810600  0.34810600  0.08776600  1
loop_
_geom_bond_atom_site_label_1
_geom_bond_atom_site_label_2
_geom_bond_distance
_geom_bond_site_symmetry_2
Li0 O14 2.168582 1_555
Li0 O1 2.171645 1_555
Li0 O17 2.172104 1_556
Li0 O16 2.178245 1_555
Li0 O4 2.181963 1_556
Li0 O9 2.229525 1_545
Li1 O14 2.168582 1_555
Li1 O2 2.171645 1_555
Li1 O17 2.172104 1_556
Li1 O15 2.178245 1_555
Li1 O5 2.181963 1_556
Li1 O11 2.229525 1_455
Li2 O7 2.168582 1_555
Li2 O6 2.171645 1_555
Li2 O10 2.172104 1_554
Li2 O12 2.178245 1_555
Li2 O9 2.181963 1_554
Li2 O4 2.229525 1_565
Li3 O7 2.168582 1_555
Li3 O8 2.171645 1_555
Li3 O10 2.172104 1_554
Li3 O13 2.178245 1_555
Li3 O11 2.181963 1_554
Li3 O5 2.229525 1_655
Li4 O2 2.162474 1_555
Li4 O6 2.162474 1_555
Li4 O12 2.220305 1_555
Li4 O15 2.220305 1_555
Li4 O0 2.237875 1_455
Li4 O3 2.237875 1_565
Li5 O1 2.162474 1_555
Li5 O8 2.162474 1_555
Li5 O13 2.220305 1_555
Li5 O16 2.220305 1_555
Li5 O0 2.237875 1_545
Li5 O3 2.237875 1_655
Mn0 O15 1.949877 1_554
Mn0 O12 1.949877 1_555
Mn0 O9 1.954007 1_554
Mn0 O5 1.954007 1_555
Mn0 O0 1.974053 1_455
Mn0 O3 1.974053 1_564
Mn1 O10 1.911880 1_554
Mn1 O17 1.911880 1_555
Mn1 O13 1.985595 1_555
Mn1 O12 1.985595 1_555
Mn1 O16 1.985595 1_554
Mn1 O15 1.985595 1_554
Mn2 O16 1.949877 1_554
Mn2 O13 1.949877 1_555
Mn2 O11 1.954007 1_554
Mn2 O4 1.954007 1_555
Mn2 O0 1.974053 1_545
Mn2 O3 1.974053 1_654
Cr0 O1 1.982023 1_555
Cr0 O4 2.007637 1_555
Cr0 O14 2.014823 1_555
Cr0 O6 2.027872 1_545
Cr0 O17 2.042204 1_555
Cr0 O13 2.071217 1_555
Cr1 O7 1.973133 1_555
Cr1 O0 2.011964 1_555
Cr1 O2 2.030061 1_655
Cr1 O1 2.030061 1_565
Cr1 O4 2.049164 1_565
Cr1 O5 2.049164 1_655
Cr2 O2 1.982023 1_555
Cr2 O5 2.007637 1_555
Cr2 O14 2.014823 1_555
Cr2 O8 2.027872 1_455
Cr2 O17 2.042204 1_555
Cr2 O12 2.071217 1_555
Cr3 O6 1.982023 1_555
Cr3 O9 2.007637 1_555
Cr3 O7 2.014823 1_555
Cr3 O1 2.027872 1_565
Cr3 O10 2.042204 1_555
Cr3 O15 2.071217 1_555
Cr4 O8 1.982023 1_555
Cr4 O11 2.007637 1_555
Cr4 O7 2.014823 1_555
Cr4 O2 2.027872 1_655
Cr4 O10 2.042204 1_555
Cr4 O16 2.071217 1_555
Cr5 O14 1.973133 1_555
Cr5 O3 2.011964 1_555
Cr5 O6 2.030061 1_545
Cr5 O8 2.030061 1_455
Cr5 O9 2.049164 1_545
Cr5 O11 2.049164 1_455
