# generated using pymatgen
data_Cu2PdAu
_symmetry_space_group_name_H-M   'P 1'
_cell_length_a   4.27641992
_cell_length_b   4.27642979
_cell_length_c   4.27642113
_cell_angle_alpha   60.00385718
_cell_angle_beta   60.00402812
_cell_angle_gamma   60.00403932
_symmetry_Int_Tables_number   1
_chemical_formula_structural   Cu2PdAu
_chemical_formula_sum   'Cu2 Pd1 Au1'
_cell_volume   55.30524173
_cell_formula_units_Z   1
loop_
 _symmetry_equiv_pos_site_id
 _symmetry_equiv_pos_as_xyz
  1  'x, y, z'
loop_
 _atom_site_type_symbol
 _atom_site_label
 _atom_site_symmetry_multiplicity
 _atom_site_fract_x
 _atom_site_fract_y
 _atom_site_fract_z
 _atom_site_occupancy
  Cu  Cu0  1  0.50000035  0.50000210  0.49999805  1
  Cu  Cu1  1  0.99999865  0.99999795  -0.00000010  1
  Pd  Pd0  1  0.75000000  0.74999749  0.75000251  1
  Au  Au0  1  0.25000000  0.25000145  0.24999855  1
loop_
_geom_bond_atom_site_label_1
_geom_bond_atom_site_label_2
_geom_bond_distance
_geom_bond_site_symmetry_2
Cu0 Pd0 2.618684 1_555
Cu0 Pd0 2.618876 1_554
Cu0 Pd0 2.618897 1_455
Cu0 Pd0 2.618914 1_545
Cu1 Pd0 2.618673 1_554
Cu1 Pd0 2.618896 1_564
Cu1 Pd0 2.618901 1_654
Cu1 Pd0 2.618901 1_555
Au0 Cu0 2.618687 1_555
Au0 Cu1 2.618697 1_445
Au0 Cu1 2.618885 1_455
Au0 Cu1 2.618891 1_545
Au0 Cu0 2.618894 1_554
Au0 Cu0 2.618895 1_455
Au0 Cu0 2.618895 1_545
Au0 Cu1 2.618897 1_446
