# generated using pymatgen
data_CeB2C
_symmetry_space_group_name_H-M   'P 1'
_cell_length_a   5.35511680
_cell_length_b   5.35511642
_cell_length_c   5.35511562
_cell_angle_alpha   76.25787249
_cell_angle_beta   76.25788283
_cell_angle_gamma   76.25792966
_symmetry_Int_Tables_number   1
_chemical_formula_structural   CeB2C
_chemical_formula_sum   'Ce3 B6 C3'
_cell_volume   142.20938359
_cell_formula_units_Z   3
loop_
 _symmetry_equiv_pos_site_id
 _symmetry_equiv_pos_as_xyz
  1  'x, y, z'
loop_
 _atom_site_type_symbol
 _atom_site_label
 _atom_site_symmetry_multiplicity
 _atom_site_fract_x
 _atom_site_fract_y
 _atom_site_fract_z
 _atom_site_occupancy
  Ce  Ce0  1  0.68681102  0.68681102  0.68681102  1
  Ce  Ce1  1  0.31318898  0.31318898  0.31318898  1
  Ce  Ce2  1  0.00000000  -0.00000000  0.00000000  1
  B  B0  1  0.77538825  0.50000000  0.22461175  1
  B  B1  1  0.50000000  0.22461175  0.77538825  1
  B  B2  1  0.22461075  0.77538925  0.50000000  1
  B  B3  1  0.22461175  0.50000000  0.77538825  1
  B  B4  1  0.77538925  0.22461075  0.50000000  1
  B  B5  1  0.50000000  0.77538825  0.22461175  1
  C  C0  1  0.00000000  -0.00000000  0.50000000  1
  C  C1  1  0.50000000  -0.00000000  0.00000000  1
  C  C2  1  0.00000000  0.50000000  0.00000000  1
loop_
_geom_bond_atom_site_label_1
_geom_bond_atom_site_label_2
_geom_bond_distance
_geom_bond_site_symmetry_2
B0 C2 1.485325 1_655
B1 C1 1.485325 1_556
B2 C0 1.485319 1_565
B3 C2 1.485325 1_556
B4 C0 1.485319 1_655
B5 C1 1.485325 1_565
C0 Ce0 2.523621 1_445
C0 Ce1 2.523621 1_555
C0 Ce2 2.677558 1_556
C0 Ce2 2.677558 1_555
C1 Ce0 2.523623 1_544
C1 Ce1 2.523623 1_555
C1 Ce2 2.677558 1_555
C1 Ce2 2.677558 1_655
C2 Ce0 2.523623 1_454
C2 Ce1 2.523623 1_555
C2 Ce2 2.677558 1_565
C2 Ce2 2.677558 1_555
