# generated using pymatgen
data_Fe6O11F
_symmetry_space_group_name_H-M   'P 1'
_cell_length_a   4.63381800
_cell_length_b   5.50847985
_cell_length_c   7.55472791
_cell_angle_alpha   84.91090459
_cell_angle_beta   89.07644467
_cell_angle_gamma   88.78384201
_symmetry_Int_Tables_number   1
_chemical_formula_structural   Fe6O11F
_chemical_formula_sum   'Fe6 O11 F1'
_cell_volume   192.01358558
_cell_formula_units_Z   1
loop_
 _symmetry_equiv_pos_site_id
 _symmetry_equiv_pos_as_xyz
  1  'x, y, z'
loop_
 _atom_site_type_symbol
 _atom_site_label
 _atom_site_symmetry_multiplicity
 _atom_site_fract_x
 _atom_site_fract_y
 _atom_site_fract_z
 _atom_site_occupancy
  Fe  Fe0  1  0.51756500  0.84290900  0.67275500  1
  Fe  Fe1  1  0.49751400  0.49835800  0.99793000  1
  Fe  Fe2  1  0.49899500  0.16799000  0.33442700  1
  Fe  Fe3  1  0.99378900  0.32387900  0.66851400  1
  Fe  Fe4  1  0.98634200  0.66566200  0.32398700  1
  Fe  Fe5  1  0.00364000  0.00036900  0.00090600  1
  O  O0  1  0.81157600  0.37780000  0.43725600  1
  O  O1  1  0.81494100  0.03043200  0.77941600  1
  O  O2  1  0.80369700  0.71122200  0.09404500  1
  O  O3  1  0.69223800  0.20827700  0.10417900  1
  O  O4  1  0.68892500  0.53404400  0.76721800  1
  O  O5  1  0.69219200  0.87388500  0.43709700  1
  O  O6  1  0.31061400  0.13042800  0.56461500  1
  O  O7  1  0.30593900  0.46303900  0.23105500  1
  O  O8  1  0.30775800  0.78868200  0.89553600  1
  O  O9  1  0.18526700  0.96019700  0.22638500  1
  O  O10  1  0.19194700  0.28684800  0.89996800  1
  F  F0  1  0.19706100  0.63597900  0.56471000  1
loop_
_geom_bond_atom_site_label_1
_geom_bond_atom_site_label_2
_geom_bond_distance
_geom_bond_site_symmetry_2
Fe0 O8 1.933251 1_555
Fe0 O5 1.938817 1_555
Fe0 O4 1.944222 1_555
Fe0 O6 1.956195 1_565
Fe0 O1 1.964448 1_565
Fe1 O8 1.916219 1_555
Fe1 O3 1.935555 1_556
Fe1 O4 1.939087 1_555
Fe1 O7 1.955469 1_556
Fe1 O10 2.041284 1_555
Fe1 O2 2.042059 1_556
Fe2 O6 1.929728 1_555
Fe2 O5 1.940514 1_545
Fe2 O3 1.940760 1_555
Fe2 O7 1.946098 1_555
Fe2 O0 2.074564 1_555
Fe2 O9 2.089124 1_545
Fe3 O1 1.948308 1_555
Fe3 O0 1.948925 1_555
Fe3 O10 1.980602 1_655
Fe3 O4 1.985380 1_555
Fe3 O6 1.987924 1_655
Fe4 O0 1.921956 1_555
Fe4 O2 1.938557 1_555
Fe4 O9 1.963422 1_655
Fe4 O7 1.991796 1_655
Fe4 O5 1.993397 1_555
Fe5 O1 1.893086 1_454
Fe5 O9 1.905367 1_545
Fe5 O10 1.912248 1_554
Fe5 O2 1.932147 1_445
Fe5 O8 2.009501 1_544
Fe5 O3 2.013602 1_455
F0 Fe3 2.064846 1_455
F0 Fe4 2.070064 1_455
F0 Fe0 2.108854 1_555
