# generated using pymatgen
data_V3Co5O16
_symmetry_space_group_name_H-M   'P 1'
_cell_length_a   5.64780923
_cell_length_b   5.64780923
_cell_length_c   8.79226237
_cell_angle_alpha   89.68432474
_cell_angle_beta   89.68432474
_cell_angle_gamma   60.79300966
_symmetry_Int_Tables_number   1
_chemical_formula_structural   V3Co5O16
_chemical_formula_sum   'V3 Co5 O16'
_cell_volume   244.79225788
_cell_formula_units_Z   1
loop_
 _symmetry_equiv_pos_site_id
 _symmetry_equiv_pos_as_xyz
  1  'x, y, z'
loop_
 _atom_site_type_symbol
 _atom_site_label
 _atom_site_symmetry_multiplicity
 _atom_site_fract_x
 _atom_site_fract_y
 _atom_site_fract_z
 _atom_site_occupancy
  V  V0  1  0.15226600  0.15226600  0.21258600  1
  V  V1  1  0.32690500  0.83022100  0.70913100  1
  V  V2  1  0.83022100  0.32690500  0.70913100  1
  Co  Co0  1  0.16708300  0.65942500  0.20700600  1
  Co  Co1  1  0.33597200  0.33597200  0.47711300  1
  Co  Co2  1  0.65942500  0.16708300  0.20700600  1
  Co  Co3  1  0.83085500  0.83085500  0.71160000  1
  Co  Co4  1  0.66948600  0.66948600  0.98361100  1
  O  O0  1  0.18537800  0.66083200  0.60034500  1
  O  O1  1  0.47820900  0.47820900  0.33093200  1
  O  O2  1  0.33216000  0.33216000  0.10004600  1
  O  O3  1  0.99625900  0.99625900  0.32639700  1
  O  O4  1  0.00181900  0.00181900  0.82442400  1
  O  O5  1  0.66083200  0.18537800  0.60034500  1
  O  O6  1  0.04572500  0.47734800  0.33827700  1
  O  O7  1  0.47734800  0.04572500  0.33827700  1
  O  O8  1  0.83648500  0.83648500  0.10429400  1
  O  O9  1  0.17194900  0.17194900  0.60624500  1
  O  O10  1  0.52456900  0.95335400  0.83937800  1
  O  O11  1  0.95335400  0.52456900  0.83937800  1
  O  O12  1  0.66598600  0.66598600  0.59801700  1
  O  O13  1  0.34017700  0.83590100  0.10364200  1
  O  O14  1  0.52146300  0.52146300  0.84472900  1
  O  O15  1  0.83590100  0.34017700  0.10364200  1
loop_
_geom_bond_atom_site_label_1
_geom_bond_atom_site_label_2
_geom_bond_distance
_geom_bond_site_symmetry_2
Co0 O8 1.867677 1_455
Co0 O2 1.870205 1_555
Co0 O6 1.877614 1_555
Co0 O1 1.891045 1_555
Co0 O13 1.925150 1_555
Co0 O3 1.967582 1_455
Co1 O7 1.883801 1_555
Co1 O6 1.883801 1_555
Co1 O1 1.884043 1_555
Co1 O0 1.937123 1_555
Co1 O5 1.937123 1_555
Co1 O9 1.954406 1_555
Co2 O8 1.867677 1_545
Co2 O2 1.870205 1_555
Co2 O7 1.877614 1_555
Co2 O1 1.891045 1_555
Co2 O15 1.925150 1_555
Co2 O3 1.967582 1_545
Co3 O10 1.884765 1_555
Co3 O11 1.884765 1_555
Co3 O12 1.896851 1_555
Co3 O4 1.944140 1_665
Co3 O0 2.000099 1_655
Co3 O5 2.000099 1_565
Co4 O11 1.885956 1_555
Co4 O10 1.885956 1_555
Co4 O14 1.895639 1_555
Co4 O13 1.933797 1_556
Co4 O15 1.933797 1_556
Co4 O8 1.948149 1_556
O0 V1 1.798270 1_555
O2 V0 2.007208 1_555
O3 V0 1.814441 1_665
O4 V1 1.895140 1_545
O4 V2 1.895140 1_455
O5 V2 1.798270 1_555
O6 V0 1.972585 1_555
O7 V0 1.972585 1_555
O9 V1 1.910557 1_545
O9 V2 1.910557 1_455
O10 V1 1.954954 1_555
O11 V2 1.954954 1_555
O12 V1 1.933402 1_555
O12 V2 1.933402 1_555
O13 V0 1.842118 1_565
O14 V1 1.947089 1_555
O14 V2 1.947089 1_555
O15 V0 1.842118 1_655
