# generated using pymatgen
data_Li2Cr(PO3)5
_symmetry_space_group_name_H-M   'P 1'
_cell_length_a   6.71896052
_cell_length_b   6.71896052
_cell_length_c   13.49164224
_cell_angle_alpha   83.10257658
_cell_angle_beta   83.10257658
_cell_angle_gamma   111.22424376
_symmetry_Int_Tables_number   1
_chemical_formula_structural   Li2Cr(PO3)5
_chemical_formula_sum   'Li4 Cr2 P10 O30'
_cell_volume   554.77638274
_cell_formula_units_Z   2
loop_
 _symmetry_equiv_pos_site_id
 _symmetry_equiv_pos_as_xyz
  1  'x, y, z'
loop_
 _atom_site_type_symbol
 _atom_site_label
 _atom_site_symmetry_multiplicity
 _atom_site_fract_x
 _atom_site_fract_y
 _atom_site_fract_z
 _atom_site_occupancy
  Li  Li0  1  0.77037600  0.26770800  0.72338400  1
  Li  Li1  1  0.26770800  0.77037600  0.22338400  1
  Li  Li2  1  0.18882700  0.47283300  0.56468700  1
  Li  Li3  1  0.47283300  0.18882700  0.06468700  1
  Cr  Cr0  1  0.18264200  0.91425300  0.77744800  1
  Cr  Cr1  1  0.91425300  0.18264200  0.27744800  1
  P  P0  1  0.34143000  0.95898400  0.52979800  1
  P  P1  1  0.70746700  0.58465000  0.55719300  1
  P  P2  1  0.62177500  0.81044500  0.83113400  1
  P  P3  1  0.95898400  0.34143000  0.02979800  1
  P  P4  1  0.58465000  0.70746700  0.05719300  1
  P  P5  1  0.81044500  0.62177500  0.33113400  1
  P  P6  1  0.82179500  0.08586700  0.52779500  1
  P  P7  1  0.08586700  0.82179500  0.02779500  1
  P  P8  1  0.23477800  0.42319000  0.82803600  1
  P  P9  1  0.42319000  0.23477800  0.32803600  1
  O  O0  1  0.85699700  0.85329200  0.79827300  1
  O  O1  1  0.85329200  0.85699700  0.29827300  1
  O  O2  1  0.82027100  0.52015500  0.63533600  1
  O  O3  1  0.52015500  0.82027100  0.13533600  1
  O  O4  1  0.79129000  0.84330600  0.54054000  1
  O  O5  1  0.84330600  0.79129000  0.04054000  1
  O  O6  1  0.56558100  0.82709500  0.94656000  1
  O  O7  1  0.82709500  0.56558100  0.44656000  1
  O  O8  1  0.52967700  0.95703500  0.77176000  1
  O  O9  1  0.95703500  0.52967700  0.27176000  1
  O  O10  1  0.76315700  0.30718800  0.98262400  1
  O  O11  1  0.30718800  0.76315700  0.48262400  1
  O  O12  1  0.19305800  0.91837400  0.91865600  1
  O  O13  1  0.46876200  0.47972000  0.56680100  1
  O  O14  1  0.91837400  0.19305800  0.41865600  1
  O  O15  1  0.48962000  0.55970000  0.82457900  1
  O  O16  1  0.47972000  0.46876200  0.06680100  1
  O  O17  1  0.55970000  0.48962000  0.32457900  1
  O  O18  1  0.94258100  0.19657300  0.60397100  1
  O  O19  1  0.19657300  0.94258100  0.10397100  1
  O  O20  1  0.58188400  0.08066800  0.55090200  1
  O  O21  1  0.08066800  0.58188400  0.05090200  1
  O  O22  1  0.13244400  0.57997000  0.79022600  1
  O  O23  1  0.57997000  0.13244400  0.29022600  1
  O  O24  1  0.14484500  0.32183100  0.94627100  1
  O  O25  1  0.32183100  0.14484500  0.44627100  1
  O  O26  1  0.22165000  0.24053900  0.77090600  1
  O  O27  1  0.24053900  0.22165000  0.27090600  1
  O  O28  1  0.20020600  0.94029200  0.62892100  1
  O  O29  1  0.94029200  0.20020600  0.12892100  1
loop_
_geom_bond_atom_site_label_1
_geom_bond_atom_site_label_2
_geom_bond_distance
_geom_bond_site_symmetry_2
Li0 O2 1.846413 1_555
Li0 O18 2.073734 1_555
Li0 O8 2.091345 1_545
Li1 O3 1.846413 1_555
Li1 O19 2.073734 1_555
Li1 O9 2.091345 1_455
Li2 O13 1.868374 1_555
Li2 O18 1.947626 1_455
Li2 O11 1.951917 1_555
Li3 O16 1.868374 1_555
Li3 O19 1.947626 1_545
Li3 O10 1.951917 1_554
Cr0 O12 1.917933 1_555
Cr0 O28 1.975877 1_555
Cr0 O0 2.051795 1_455
Cr0 O26 2.101100 1_565
Cr0 O22 2.129012 1_555
Cr0 O8 2.234244 1_555
Cr1 O14 1.917933 1_555
Cr1 O29 1.975877 1_555
Cr1 O1 2.051795 1_545
Cr1 O27 2.101100 1_655
Cr1 O23 2.129012 1_555
Cr1 O9 2.234244 1_555
O0 P2 1.499623 1_555
O1 P5 1.499623 1_555
O2 P1 1.481124 1_555
O3 P4 1.481124 1_555
O4 P6 1.552436 1_565
O4 P1 1.598472 1_555
O5 P7 1.552436 1_655
O5 P4 1.598472 1_555
O6 P2 1.584744 1_555
O6 P4 1.650069 1_556
O7 P5 1.584744 1_555
O7 P1 1.650069 1_555
O8 P2 1.538030 1_555
O9 P5 1.538030 1_555
O10 P3 1.485376 1_556
O11 P0 1.485376 1_555
O12 P7 1.511738 1_556
O13 P1 1.481756 1_555
O14 P6 1.511738 1_555
O15 P2 1.614357 1_555
O15 P8 1.615165 1_555
O16 P4 1.481756 1_555
O17 P5 1.614357 1_555
O17 P9 1.615165 1_555
O18 P6 1.488296 1_555
O19 P7 1.488296 1_555
O20 P6 1.591451 1_555
O20 P0 1.603031 1_545
O21 P7 1.591451 1_555
O21 P3 1.603031 1_455
O22 P8 1.523886 1_555
O23 P9 1.523886 1_555
O24 P8 1.607216 1_555
O24 P3 1.632013 1_456
O25 P9 1.607216 1_555
O25 P0 1.632013 1_545
O26 P8 1.507683 1_555
O27 P9 1.507683 1_555
O28 P0 1.507710 1_555
O29 P3 1.507710 1_555
