# generated using pymatgen
data_Li3(CoO2)4
_symmetry_space_group_name_H-M   'P 1'
_cell_length_a   5.66820600
_cell_length_b   5.69874606
_cell_length_c   5.74022801
_cell_angle_alpha   118.04383518
_cell_angle_beta   91.59198605
_cell_angle_gamma   118.95784448
_symmetry_Int_Tables_number   1
_chemical_formula_structural   Li3(CoO2)4
_chemical_formula_sum   'Li3 Co4 O8'
_cell_volume   135.13026119
_cell_formula_units_Z   1
loop_
 _symmetry_equiv_pos_site_id
 _symmetry_equiv_pos_as_xyz
  1  'x, y, z'
loop_
 _atom_site_type_symbol
 _atom_site_label
 _atom_site_symmetry_multiplicity
 _atom_site_fract_x
 _atom_site_fract_y
 _atom_site_fract_z
 _atom_site_occupancy
  Li  Li0  1  0.49921100  0.00142200  0.00145000  1
  Li  Li1  1  0.99730700  0.99906900  0.50240700  1
  Li  Li2  1  0.49330600  0.50014200  0.00726300  1
  Co  Co0  1  0.99885600  0.49967100  0.50102100  1
  Co  Co1  1  0.00139100  0.00242000  0.00054100  1
  Co  Co2  1  0.49864100  0.49955000  0.50115900  1
  Co  Co3  1  0.49834200  0.99958700  0.50119600  1
  O  O0  1  0.82481400  0.06678000  0.71578700  1
  O  O1  1  0.71783400  0.48970300  0.28199200  1
  O  O2  1  0.30593100  0.04121500  0.71742100  1
  O  O3  1  0.20358600  0.48371300  0.28032900  1
  O  O4  1  0.79562800  0.51632000  0.72053400  1
  O  O5  1  0.69149800  0.95808800  0.28473200  1
  O  O6  1  0.27996100  0.51024800  0.72006600  1
  O  O7  1  0.17240400  0.93243100  0.28666000  1
loop_
_geom_bond_atom_site_label_1
_geom_bond_atom_site_label_2
_geom_bond_distance
_geom_bond_site_symmetry_2
Li0 O1 2.051436 1_555
Li0 O6 2.063267 1_544
Li0 O2 2.097333 1_554
Li0 O5 2.105438 1_545
Li0 O0 2.512082 1_554
Li0 O7 2.516911 1_545
Li1 O0 1.610141 1_565
Li1 O7 1.629112 1_655
Li1 O5 1.957986 1_555
Li1 O2 1.958484 1_665
Li1 O1 2.125740 1_555
Li1 O6 2.135650 1_665
Li2 O5 1.939772 1_555
Li2 O2 1.963826 1_554
Li2 O1 2.039655 1_555
Li2 O6 2.056558 1_554
Li2 O3 2.301007 1_555
Li2 O4 2.408396 1_554
Co0 O4 1.731407 1_555
Co0 O3 1.742212 1_655
Co0 O6 1.961588 1_655
Co0 O1 1.963471 1_555
Co0 O2 2.273866 1_665
Co0 O5 2.274250 1_545
Co1 O3 2.031623 1_555
Co1 O4 2.048935 1_444
Co1 O0 2.153210 1_454
Co1 O7 2.167488 1_545
Co1 O2 2.407071 1_554
Co1 O5 2.434643 1_445
Co2 O6 1.790755 1_555
Co2 O1 1.793739 1_555
Co2 O3 2.010098 1_555
Co2 O4 2.010455 1_555
Co2 O7 2.392736 1_545
Co2 O0 2.393058 1_565
Co3 O2 1.683792 1_565
Co3 O5 1.687768 1_555
Co3 O7 1.954992 1_555
Co3 O0 1.957557 1_565
Co3 O3 2.159368 1_555
Co3 O4 2.164968 1_565
