# generated using pymatgen
data_Li2Fe3OF6
_symmetry_space_group_name_H-M   'P 1'
_cell_length_a   5.10395100
_cell_length_b   10.66055585
_cell_length_c   11.91451852
_cell_angle_alpha   115.72949825
_cell_angle_beta   100.80904164
_cell_angle_gamma   90.40463774
_symmetry_Int_Tables_number   1
_chemical_formula_structural   Li2Fe3OF6
_chemical_formula_sum   'Li8 Fe12 O4 F24'
_cell_volume   570.76935842
_cell_formula_units_Z   4
loop_
 _symmetry_equiv_pos_site_id
 _symmetry_equiv_pos_as_xyz
  1  'x, y, z'
loop_
 _atom_site_type_symbol
 _atom_site_label
 _atom_site_symmetry_multiplicity
 _atom_site_fract_x
 _atom_site_fract_y
 _atom_site_fract_z
 _atom_site_occupancy
  Li  Li0  1  0.02205800  0.25605500  0.99577300  1
  Li  Li1  1  0.82699900  0.29577200  0.77029800  1
  Li  Li2  1  0.53343600  0.02493700  0.21266100  1
  Li  Li3  1  0.79419700  0.35192500  0.49995000  1
  Li  Li4  1  0.47787500  0.75217600  0.00902200  1
  Li  Li5  1  0.47187100  0.81599800  0.79898800  1
  Li  Li6  1  0.17973300  0.52755600  0.20958300  1
  Li  Li7  1  0.17951600  0.84367500  0.49317100  1
  Fe  Fe0  1  0.40845600  0.11510100  0.77987100  1
  Fe  Fe1  1  0.71941100  0.01881100  0.50145900  1
  Fe  Fe2  1  0.48069700  0.47155300  0.95727700  1
  Fe  Fe3  1  0.17288000  0.18847900  0.35018200  1
  Fe  Fe4  1  0.33776600  0.30156000  0.63100600  1
  Fe  Fe5  1  0.62187000  0.33025000  0.20129300  1
  Fe  Fe6  1  0.88752000  0.62170300  0.78766200  1
  Fe  Fe7  1  0.32588200  0.53320000  0.52332200  1
  Fe  Fe8  1  0.00057300  0.98356800  0.98516400  1
  Fe  Fe9  1  0.68705000  0.68625200  0.33732800  1
  Fe  Fe10  1  0.83191000  0.81019300  0.65194500  1
  Fe  Fe11  1  0.05506600  0.84172300  0.22577900  1
  O  O0  1  0.55530200  0.14818700  0.64777300  1
  O  O1  1  0.42315400  0.33984800  0.48891400  1
  O  O2  1  0.61184200  0.66915700  0.66865600  1
  O  O3  1  0.89302200  0.86036300  0.37117600  1
  F  F0  1  0.21157000  0.10111400  0.91719500  1
  F  F1  1  0.71253600  0.30574000  0.92005800  1
  F  F2  1  0.39822900  0.01242100  0.34567500  1
  F  F3  1  0.19503000  0.30045000  0.79735600  1
  F  F4  1  0.96069100  0.18688800  0.50083200  1
  F  F5  1  0.38110100  0.18025900  0.20041200  1
  F  F6  1  0.65163000  0.46042200  0.79210800  1
  F  F7  1  0.84346100  0.17467100  0.07598900  1
  F  F8  1  0.21479600  0.59713300  0.91300100  1
  F  F9  1  0.07206500  0.47611200  0.64256700  1
  F  F10  1  0.90935200  0.34235000  0.35410200  1
  F  F11  1  0.72155400  0.81694500  0.94016600  1
  F  F12  1  0.31910500  0.39393200  0.07459900  1
  F  F13  1  0.45269600  0.52263000  0.34342900  1
  F  F14  1  0.12290000  0.81177900  0.81785500  1
  F  F15  1  0.82960000  0.49878000  0.21034300  1
  F  F16  1  0.03854500  0.67564400  0.49955700  1
  F  F17  1  0.31412500  0.69273600  0.21928600  1
  F  F18  1  0.66527400  0.97062800  0.80387000  1
  F  F19  1  0.54074200  0.82744100  0.50472800  1
  F  F20  1  0.72579800  0.66258500  0.07766200  1
  F  F21  1  0.07092500  0.96440200  0.64652100  1
  F  F22  1  0.25628000  0.88862900  0.08697500  1
  F  F23  1  0.89390300  0.02246700  0.21746000  1
loop_
_geom_bond_atom_site_label_1
_geom_bond_atom_site_label_2
_geom_bond_distance
_geom_bond_site_symmetry_2
Li1 O0 1.935254 1_555
Li3 O1 1.873165 1_555
Li5 O2 1.921854 1_555
Li7 O3 1.927053 1_455
Fe0 O0 2.020881 1_555
Fe1 O0 2.029584 1_555
Fe1 O3 2.075668 1_545
Fe3 O1 1.957273 1_555
Fe4 O1 2.024065 1_555
Fe4 O0 2.042564 1_555
Fe6 O2 2.032411 1_555
Fe7 O1 2.005086 1_555
Fe7 O2 2.018030 1_555
Fe9 O3 1.968882 1_555
Fe10 O2 1.970223 1_555
Fe11 O3 1.991315 1_455
F0 Li0 1.886785 1_555
F0 Fe0 2.129653 1_555
F0 Fe8 2.138916 1_545
F1 Li0 1.866072 1_655
F1 Li1 1.940006 1_555
F1 Fe2 2.065725 1_555
F1 Fe0 2.316187 1_555
F2 Li2 1.896867 1_555
F2 Fe3 2.194217 1_555
F2 Fe1 2.210074 1_555
F2 Fe11 2.275810 1_545
F3 Li1 1.841857 1_455
F3 Fe0 2.211877 1_555
F3 Fe2 2.233012 1_555
F3 Fe4 2.240744 1_555
F4 Li3 1.962522 1_555
F4 Fe1 2.170492 1_555
F4 Fe4 2.192006 1_655
F4 Fe3 2.269407 1_655
F5 Li2 1.884939 1_555
F5 Fe5 2.004953 1_555
F5 Fe3 2.213182 1_555
F6 Li1 1.913905 1_555
F6 Fe6 2.117135 1_555
F6 Fe2 2.256225 1_555
F6 Fe4 2.259346 1_555
F7 Li0 1.879526 1_654
F7 Fe8 2.097358 1_644
F7 Fe5 2.183743 1_555
F8 Li4 1.895886 1_556
F8 Fe2 2.069469 1_555
F8 Fe6 2.121115 1_455
F9 Li3 1.941085 1_455
F9 Fe6 2.141597 1_455
F9 Fe4 2.281198 1_555
F9 Fe7 2.344584 1_555
F10 Li3 1.898792 1_555
F10 Fe5 2.067797 1_555
F10 Fe3 2.119022 1_655
F11 Li4 1.886540 1_556
F11 Li5 1.906450 1_555
F11 Fe8 2.078885 1_655
F11 Fe6 2.381141 1_555
F12 Li6 1.891040 1_555
F12 Li0 1.891294 1_554
F12 Fe2 2.178521 1_554
F12 Fe5 2.270922 1_555
F13 Li6 1.930614 1_555
F13 Fe9 2.142856 1_555
F13 Fe7 2.310238 1_555
F13 Fe5 2.318938 1_555
F14 Li5 1.839239 1_555
F14 Fe6 2.202107 1_455
F14 Fe10 2.232278 1_455
F14 Fe8 2.242917 1_555
F15 Li6 1.813427 1_655
F15 Fe5 2.031161 1_555
F15 Fe9 2.149582 1_555
F16 Li7 1.962885 1_555
F16 Fe7 2.187674 1_555
F16 Fe10 2.223655 1_455
F16 Fe9 2.420608 1_455
F17 Li6 1.833335 1_555
F17 Fe11 2.058702 1_555
F17 Fe9 2.165153 1_555
F18 Li5 1.888750 1_555
F18 Fe0 2.107682 1_565
F18 Fe10 2.198878 1_555
F18 Fe8 2.442325 1_655
F19 Li7 1.837946 1_555
F19 Fe10 2.150606 1_555
F19 Fe9 2.183833 1_555
F19 Fe1 2.247487 1_565
F20 Li4 1.867972 1_555
F20 Fe2 2.127081 1_554
F20 Fe11 2.345590 1_655
F21 Li7 1.910517 1_555
F21 Fe10 2.070858 1_455
F21 Fe0 2.188885 1_565
F21 Fe1 2.502900 1_465
F22 Li4 1.871374 1_555
F22 Li2 1.908455 1_565
F22 Fe8 2.165626 1_554
F22 Fe11 2.321104 1_555
F23 Li2 1.830678 1_555
F23 Fe3 2.085705 1_655
F23 Fe11 2.134654 1_645
