# generated using pymatgen
data_Mn3As(HO2)4
_symmetry_space_group_name_H-M   'P 1'
_cell_length_a   5.43925900
_cell_length_b   9.62566500
_cell_length_c   13.34383500
_cell_angle_alpha   90.00000000
_cell_angle_beta   90.00000000
_cell_angle_gamma   90.00000000
_symmetry_Int_Tables_number   1
_chemical_formula_structural   Mn3As(HO2)4
_chemical_formula_sum   'Mn12 As4 H16 O32'
_cell_volume   698.63629678
_cell_formula_units_Z   4
loop_
 _symmetry_equiv_pos_site_id
 _symmetry_equiv_pos_as_xyz
  1  'x, y, z'
loop_
 _atom_site_type_symbol
 _atom_site_label
 _atom_site_symmetry_multiplicity
 _atom_site_fract_x
 _atom_site_fract_y
 _atom_site_fract_z
 _atom_site_occupancy
  Mn  Mn0  1  0.48328200  0.02191400  0.12970700  1
  Mn  Mn1  1  0.48328200  0.02191400  0.37029300  1
  Mn  Mn2  1  0.98328200  0.47808600  0.62970700  1
  Mn  Mn3  1  0.98328200  0.47808600  0.87029300  1
  Mn  Mn4  1  0.01671800  0.52191400  0.12970700  1
  Mn  Mn5  1  0.01671800  0.52191400  0.37029300  1
  Mn  Mn6  1  0.51671800  0.97808600  0.87029300  1
  Mn  Mn7  1  0.51671800  0.97808600  0.62970700  1
  Mn  Mn8  1  0.00000000  0.00000000  0.00000000  1
  Mn  Mn9  1  0.00000000  0.00000000  0.50000000  1
  Mn  Mn10  1  0.50000000  0.50000000  0.50000000  1
  Mn  Mn11  1  0.50000000  0.50000000  0.00000000  1
  As  As0  1  0.02544000  0.15191400  0.75000000  1
  As  As1  1  0.52544000  0.34808600  0.25000000  1
  As  As2  1  0.47456000  0.65191400  0.75000000  1
  As  As3  1  0.97456000  0.84808600  0.25000000  1
  H  H0  1  0.04671400  0.17151000  0.13517600  1
  H  H1  1  0.04671400  0.17151000  0.36482400  1
  H  H2  1  0.69341400  0.20064800  0.52253500  1
  H  H3  1  0.69341400  0.20064800  0.97746500  1
  H  H4  1  0.19341400  0.29935200  0.02253500  1
  H  H5  1  0.19341400  0.29935200  0.47746500  1
  H  H6  1  0.54671400  0.32849000  0.63517600  1
  H  H7  1  0.54671400  0.32849000  0.86482400  1
  H  H8  1  0.45328600  0.67151000  0.13517600  1
  H  H9  1  0.45328600  0.67151000  0.36482400  1
  H  H10  1  0.80658600  0.70064800  0.52253500  1
  H  H11  1  0.80658600  0.70064800  0.97746500  1
  H  H12  1  0.30658600  0.79935200  0.02253500  1
  H  H13  1  0.30658600  0.79935200  0.47746500  1
  H  H14  1  0.95328600  0.82849000  0.86482400  1
  H  H15  1  0.95328600  0.82849000  0.63517600  1
  O  O0  1  0.17271100  0.09079000  0.64407200  1
  O  O1  1  0.17271100  0.09079000  0.85592800  1
  O  O2  1  0.68638600  0.09918900  0.50521500  1
  O  O3  1  0.68638600  0.09918900  0.99478500  1
  O  O4  1  0.71970700  0.09983800  0.75000000  1
  O  O5  1  0.15883200  0.14380000  0.08159000  1
  O  O6  1  0.15883200  0.14380000  0.41841000  1
  O  O7  1  0.55462500  0.16831400  0.25000000  1
  O  O8  1  0.05462500  0.33168600  0.75000000  1
  O  O9  1  0.65883200  0.35620000  0.58159000  1
  O  O10  1  0.65883200  0.35620000  0.91841000  1
  O  O11  1  0.21970700  0.40016200  0.25000000  1
  O  O12  1  0.18638600  0.40081100  0.00521500  1
  O  O13  1  0.18638600  0.40081100  0.49478500  1
  O  O14  1  0.67271100  0.40921000  0.14407200  1
  O  O15  1  0.67271100  0.40921000  0.35592800  1
  O  O16  1  0.32728900  0.59079000  0.85592800  1
  O  O17  1  0.32728900  0.59079000  0.64407200  1
  O  O18  1  0.81361400  0.59918900  0.50521500  1
  O  O19  1  0.81361400  0.59918900  0.99478500  1
  O  O20  1  0.78029300  0.59983800  0.75000000  1
  O  O21  1  0.34116800  0.64380000  0.08159000  1
  O  O22  1  0.34116800  0.64380000  0.41841000  1
  O  O23  1  0.94537500  0.66831400  0.25000000  1
  O  O24  1  0.44537500  0.83168600  0.75000000  1
  O  O25  1  0.84116800  0.85620000  0.58159000  1
  O  O26  1  0.84116800  0.85620000  0.91841000  1
  O  O27  1  0.28029300  0.90016200  0.25000000  1
  O  O28  1  0.31361400  0.90081100  0.00521500  1
  O  O29  1  0.31361400  0.90081100  0.49478500  1
  O  O30  1  0.82728900  0.90921000  0.14407200  1
  O  O31  1  0.82728900  0.90921000  0.35592800  1
loop_
_geom_bond_atom_site_label_1
_geom_bond_atom_site_label_2
_geom_bond_distance
_geom_bond_site_symmetry_2
Mn0 O7 2.170943 1_555
Mn0 O30 2.171364 1_545
Mn0 O5 2.214301 1_555
Mn0 O28 2.229377 1_545
Mn0 O3 2.239435 1_554
Mn0 O27 2.273561 1_545
Mn1 O7 2.170943 1_555
Mn1 O31 2.171364 1_545
Mn1 O6 2.214301 1_555
Mn1 O29 2.229377 1_545
Mn1 O2 2.239435 1_555
Mn1 O27 2.273561 1_545
Mn2 O8 2.170943 1_655
Mn2 O17 2.171364 1_655
Mn2 O9 2.214301 1_555
Mn2 O18 2.229377 1_555
Mn2 O13 2.239435 1_655
Mn2 O20 2.273561 1_555
Mn3 O8 2.170943 1_655
Mn3 O16 2.171364 1_655
Mn3 O10 2.214301 1_555
Mn3 O19 2.229377 1_555
Mn3 O12 2.239435 1_656
Mn3 O20 2.273561 1_555
Mn4 O23 2.170943 1_455
Mn4 O14 2.171364 1_455
Mn4 O21 2.214301 1_555
Mn4 O12 2.229377 1_555
Mn4 O19 2.239435 1_454
Mn4 O11 2.273561 1_555
Mn5 O23 2.170943 1_455
Mn5 O15 2.171364 1_455
Mn5 O22 2.214301 1_555
Mn5 O13 2.229377 1_555
Mn5 O18 2.239435 1_455
Mn5 O11 2.273561 1_555
Mn6 O24 2.170943 1_555
Mn6 O1 2.171364 1_565
Mn6 O26 2.214301 1_555
Mn6 O3 2.229377 1_565
Mn6 O28 2.239435 1_556
Mn6 O4 2.273561 1_565
Mn7 O24 2.170943 1_555
Mn7 O0 2.171364 1_565
Mn7 O25 2.214301 1_555
Mn7 O2 2.229377 1_565
Mn7 O29 2.239435 1_555
Mn7 O4 2.273561 1_565
Mn8 O28 1.956082 1_545
Mn8 O3 1.956082 1_454
Mn8 O5 1.961535 1_555
Mn8 O26 1.961535 1_444
Mn8 O30 2.311307 1_445
Mn8 O1 2.311307 1_554
Mn9 O2 1.956082 1_455
Mn9 O29 1.956082 1_545
Mn9 O6 1.961535 1_555
Mn9 O25 1.961535 1_445
Mn9 O0 2.311307 1_555
Mn9 O31 2.311307 1_445
Mn10 O18 1.956082 1_555
Mn10 O13 1.956082 1_555
Mn10 O9 1.961535 1_555
Mn10 O22 1.961535 1_555
Mn10 O17 2.311307 1_555
Mn10 O15 2.311307 1_555
Mn11 O19 1.956082 1_554
Mn11 O12 1.956082 1_555
Mn11 O10 1.961535 1_554
Mn11 O21 1.961535 1_555
Mn11 O14 2.311307 1_555
Mn11 O16 2.311307 1_554
As0 O1 1.727941 1_555
As0 O0 1.727941 1_555
As0 O4 1.736867 1_455
As0 O8 1.737691 1_555
As1 O15 1.727941 1_555
As1 O14 1.727941 1_555
As1 O11 1.736867 1_555
As1 O7 1.737691 1_555
As2 O16 1.727941 1_555
As2 O17 1.727941 1_555
As2 O20 1.736867 1_555
As2 O24 1.737691 1_555
As3 O31 1.727941 1_555
As3 O30 1.727941 1_555
As3 O27 1.736867 1_655
As3 O23 1.737691 1_555
H0 O5 0.976900 1_555
H1 O6 0.976900 1_555
H2 O2 1.004312 1_555
H3 O3 1.004312 1_555
H4 O12 1.004312 1_555
H5 O13 1.004312 1_555
H6 O9 0.976900 1_555
H7 O10 0.976900 1_555
H8 O21 0.976900 1_555
H9 O22 0.976900 1_555
H10 O18 1.004312 1_555
H11 O19 1.004312 1_555
H12 O28 1.004312 1_555
H13 O29 1.004312 1_555
H14 O26 0.976900 1_555
H15 O25 0.976900 1_555
