# generated using pymatgen
data_W
_symmetry_space_group_name_H-M   'P 1'
_cell_length_a   5.64551113
_cell_length_b   5.64551050
_cell_length_c   5.64550972
_cell_angle_alpha   59.99999313
_cell_angle_beta   59.99999699
_cell_angle_gamma   59.99998776
_symmetry_Int_Tables_number   1
_chemical_formula_structural   W
_chemical_formula_sum   W8
_cell_volume   127.23147920
_cell_formula_units_Z   8
loop_
 _symmetry_equiv_pos_site_id
 _symmetry_equiv_pos_as_xyz
  1  'x, y, z'
loop_
 _atom_site_type_symbol
 _atom_site_label
 _atom_site_symmetry_multiplicity
 _atom_site_fract_x
 _atom_site_fract_y
 _atom_site_fract_z
 _atom_site_occupancy
  W  W0_0  1  0.00000000  0.00000000  0.00000000  1
  W  W0_1  1  0.00000000  0.00000000  0.50000000  1
  W  W0_2  1  0.00000000  0.50000000  0.00000000  1
  W  W0_3  1  0.00000000  0.50000000  0.50000000  1
  W  W0_4  1  0.50000000  0.00000000  0.00000000  1
  W  W0_5  1  0.50000000  0.00000000  0.50000000  1
  W  W0_6  1  0.50000000  0.50000000  0.00000000  1
  W  W0_7  1  0.50000000  0.50000000  0.50000000  1
loop_
_geom_bond_atom_site_label_1
_geom_bond_atom_site_label_2
_geom_bond_distance
_geom_bond_site_symmetry_2
W0_0 W0_3 2.822755 1_545
W0_0 W0_3 2.822755 1_554
W0_0 W0_1 2.822755 1_555
W0_0 W0_1 2.822755 1_554
W0_0 W0_6 2.822755 1_545
W0_0 W0_6 2.822755 1_455
W0_0 W0_5 2.822755 1_455
W0_0 W0_5 2.822755 1_554
W0_0 W0_2 2.822755 1_545
W0_0 W0_2 2.822755 1_555
W0_0 W0_4 2.822756 1_455
W0_0 W0_4 2.822756 1_555
W0_1 W0_2 2.822755 1_555
W0_1 W0_2 2.822755 1_546
W0_1 W0_7 2.822755 1_545
W0_1 W0_7 2.822755 1_455
W0_1 W0_4 2.822755 1_555
W0_1 W0_4 2.822755 1_456
W0_1 W0_3 2.822755 1_555
W0_1 W0_3 2.822755 1_545
W0_1 W0_5 2.822756 1_555
W0_1 W0_5 2.822756 1_455
W0_2 W0_3 2.822755 1_555
W0_2 W0_3 2.822755 1_554
W0_2 W0_4 2.822755 1_465
W0_2 W0_4 2.822755 1_555
W0_2 W0_7 2.822755 1_554
W0_2 W0_7 2.822755 1_455
W0_2 W0_6 2.822756 1_555
W0_2 W0_6 2.822756 1_455
W0_3 W0_5 2.822755 1_555
W0_3 W0_5 2.822755 1_465
W0_3 W0_6 2.822755 1_555
W0_3 W0_6 2.822755 1_456
W0_3 W0_7 2.822756 1_555
W0_3 W0_7 2.822756 1_455
W0_4 W0_7 2.822755 1_554
W0_4 W0_7 2.822755 1_545
W0_4 W0_5 2.822755 1_555
W0_4 W0_5 2.822755 1_554
W0_4 W0_6 2.822755 1_555
W0_4 W0_6 2.822755 1_545
W0_5 W0_6 2.822755 1_555
W0_5 W0_6 2.822755 1_546
W0_5 W0_7 2.822755 1_555
W0_5 W0_7 2.822755 1_545
W0_6 W0_7 2.822755 1_555
W0_6 W0_7 2.822755 1_554
