# generated using pymatgen
data_Li7Mn3Fe(PO4)6
_symmetry_space_group_name_H-M   'P 1'
_cell_length_a   8.80718894
_cell_length_b   8.80718894
_cell_length_c   8.80718903
_cell_angle_alpha   60.83288008
_cell_angle_beta   60.83288008
_cell_angle_gamma   60.83287372
_symmetry_Int_Tables_number   1
_chemical_formula_structural   Li7Mn3Fe(PO4)6
_chemical_formula_sum   'Li7 Mn3 Fe1 P6 O24'
_cell_volume   492.12794929
_cell_formula_units_Z   1
loop_
 _symmetry_equiv_pos_site_id
 _symmetry_equiv_pos_as_xyz
  1  'x, y, z'
loop_
 _atom_site_type_symbol
 _atom_site_label
 _atom_site_symmetry_multiplicity
 _atom_site_fract_x
 _atom_site_fract_y
 _atom_site_fract_z
 _atom_site_occupancy
  Li  Li0  1  0.64896300  0.23459200  0.81783800  1
  Li  Li1  1  0.23459200  0.81783800  0.64896300  1
  Li  Li2  1  0.22457600  0.39819600  0.72212100  1
  Li  Li3  1  0.01584800  0.01584800  0.01584800  1
  Li  Li4  1  0.81783800  0.64896300  0.23459200  1
  Li  Li5  1  0.72212100  0.22457600  0.39819600  1
  Li  Li6  1  0.39819600  0.72212100  0.22457600  1
  Mn  Mn0  1  0.85049100  0.85049100  0.85049100  1
  Mn  Mn1  1  0.35253100  0.35253100  0.35253100  1
  Mn  Mn2  1  0.64613900  0.64613900  0.64613900  1
  Fe  Fe0  1  0.14650100  0.14650100  0.14650100  1
  P  P0  1  0.24504100  0.54210000  0.96204000  1
  P  P1  1  0.96204000  0.24504100  0.54210000  1
  P  P2  1  0.54210000  0.96204000  0.24504100  1
  P  P3  1  0.44765800  0.05023400  0.74873200  1
  P  P4  1  0.05023400  0.74873200  0.44765800  1
  P  P5  1  0.74873200  0.44765800  0.05023400  1
  O  O0  1  0.12723500  0.28786400  0.50901300  1
  O  O1  1  0.50901300  0.12723500  0.28786400  1
  O  O2  1  0.28786400  0.50901300  0.12723500  1
  O  O3  1  0.07759800  0.72291700  0.94727000  1
  O  O4  1  0.40147000  0.56697300  0.77550900  1
  O  O5  1  0.20130600  0.37874200  0.98515100  1
  O  O6  1  0.94727000  0.07759800  0.72291700  1
  O  O7  1  0.77550900  0.40147000  0.56697300  1
  O  O8  1  0.56697300  0.77550900  0.40147000  1
  O  O9  1  0.60865700  0.03247200  0.79193300  1
  O  O10  1  0.25644500  0.09737900  0.89990300  1
  O  O11  1  0.03247200  0.79193300  0.60865700  1
  O  O12  1  0.98515100  0.20130600  0.37874200  1
  O  O13  1  0.72291700  0.94727000  0.07759800  1
  O  O14  1  0.37874200  0.98515100  0.20130600  1
  O  O15  1  0.44410700  0.22988600  0.57470600  1
  O  O16  1  0.22988600  0.57470600  0.44410700  1
  O  O17  1  0.09737900  0.89990300  0.25644500  1
  O  O18  1  0.79193300  0.60865700  0.03247200  1
  O  O19  1  0.57470600  0.44410700  0.22988600  1
  O  O20  1  0.89990300  0.25644500  0.09737900  1
  O  O21  1  0.71783900  0.47387700  0.88311800  1
  O  O22  1  0.47387700  0.88311800  0.71783900  1
  O  O23  1  0.88311800  0.71783900  0.47387700  1
loop_
_geom_bond_atom_site_label_1
_geom_bond_atom_site_label_2
_geom_bond_distance
_geom_bond_site_symmetry_2
Li0 O7 2.077274 1_555
Li0 O9 2.106559 1_555
Li0 O6 2.226693 1_555
Li0 O13 2.502913 1_546
Li0 O4 2.639764 1_555
Li1 O4 2.077274 1_555
Li1 O11 2.106559 1_555
Li1 O3 2.226693 1_555
Li1 O6 2.502912 1_465
Li1 O8 2.639765 1_555
Li2 O15 2.063184 1_555
Li2 O5 2.149972 1_555
Li2 O16 2.159447 1_555
Li2 O10 2.282461 1_555
Li3 O20 2.169731 1_455
Li3 O17 2.169731 1_545
Li3 O10 2.169731 1_554
Li3 O3 2.673479 1_544
Li3 O6 2.673479 1_454
Li3 O13 2.673479 1_445
Li4 O8 2.077274 1_555
Li4 O18 2.106559 1_555
Li4 O13 2.226693 1_555
Li4 O3 2.502913 1_654
Li4 O7 2.639765 1_555
Li5 O19 2.063184 1_555
Li5 O12 2.149972 1_555
Li5 O15 2.159447 1_555
Li5 O20 2.282462 1_555
Li6 O16 2.063184 1_555
Li6 O14 2.149972 1_555
Li6 O19 2.159447 1_555
Li6 O17 2.282461 1_555
Mn0 O9 2.075762 1_565
Mn0 O11 2.075762 1_655
Mn0 O18 2.075762 1_556
Mn0 O3 2.127763 1_655
Mn0 O13 2.127763 1_556
Mn0 O6 2.127763 1_565
Mn1 O1 1.957511 1_555
Mn1 O2 1.957511 1_555
Mn1 O0 1.957511 1_555
Mn1 O16 2.067610 1_555
Mn1 O15 2.067610 1_555
Mn1 O19 2.067610 1_555
Mn2 O22 2.078695 1_555
Mn2 O21 2.078695 1_555
Mn2 O23 2.078695 1_555
Mn2 O7 2.173631 1_555
Mn2 O8 2.173631 1_555
Mn2 O4 2.173631 1_555
Fe0 O14 1.973981 1_545
Fe0 O12 1.973981 1_455
Fe0 O5 1.973981 1_554
Fe0 O20 2.073485 1_455
Fe0 O10 2.073485 1_554
Fe0 O17 2.073485 1_545
O0 P1 1.535701 1_455
O1 P2 1.535701 1_545
O2 P0 1.535701 1_554
O3 P0 1.556818 1_555
O4 P0 1.543435 1_555
O5 P0 1.561418 1_555
O6 P1 1.556818 1_555
O7 P1 1.543435 1_555
O8 P2 1.543435 1_555
O9 P3 1.559312 1_555
O10 P3 1.566161 1_555
O11 P4 1.559312 1_555
O12 P1 1.561418 1_555
O13 P2 1.556818 1_555
O14 P2 1.561418 1_555
O15 P3 1.577430 1_555
O16 P4 1.577430 1_555
O17 P4 1.566161 1_555
O18 P5 1.559312 1_555
O19 P5 1.577430 1_555
O20 P5 1.566161 1_555
O21 P5 1.513746 1_556
O22 P3 1.513746 1_565
O23 P4 1.513746 1_655
