# generated using pymatgen
data_LiCrP2O7
_symmetry_space_group_name_H-M   'P 1'
_cell_length_a   8.44954500
_cell_length_b   6.99941500
_cell_length_c   9.18720251
_cell_angle_alpha   67.79545209
_cell_angle_beta   90.00000000
_cell_angle_gamma   90.00000000
_symmetry_Int_Tables_number   1
_chemical_formula_structural   LiCrP2O7
_chemical_formula_sum   'Li4 Cr4 P8 O28'
_cell_volume   503.05396205
_cell_formula_units_Z   4
loop_
 _symmetry_equiv_pos_site_id
 _symmetry_equiv_pos_as_xyz
  1  'x, y, z'
loop_
 _atom_site_type_symbol
 _atom_site_label
 _atom_site_symmetry_multiplicity
 _atom_site_fract_x
 _atom_site_fract_y
 _atom_site_fract_z
 _atom_site_occupancy
  Li  Li0  1  0.57267400  0.20066800  0.90460600  1
  Li  Li1  1  0.07267400  0.79933200  0.59539400  1
  Li  Li2  1  0.92732600  0.20066800  0.40460600  1
  Li  Li3  1  0.42732600  0.79933200  0.09539400  1
  Cr  Cr0  1  0.93369600  0.30345400  0.81635800  1
  Cr  Cr1  1  0.43369600  0.69654600  0.68364200  1
  Cr  Cr2  1  0.56630400  0.30345400  0.31635800  1
  Cr  Cr3  1  0.06630400  0.69654600  0.18364200  1
  P  P0  1  0.71785400  0.52702600  0.53356700  1
  P  P1  1  0.21785400  0.47297400  0.96643300  1
  P  P2  1  0.73436500  0.93609300  0.24186600  1
  P  P3  1  0.23436500  0.06390700  0.25813400  1
  P  P4  1  0.76563500  0.93609300  0.74186600  1
  P  P5  1  0.26563500  0.06390700  0.75813400  1
  P  P6  1  0.78214600  0.52702600  0.03356700  1
  P  P7  1  0.28214600  0.47297400  0.46643300  1
  O  O0  1  0.58057900  0.49429200  0.64964800  1
  O  O1  1  0.88015600  0.52087300  0.61406300  1
  O  O2  1  0.77700800  0.37505800  0.94846200  1
  O  O3  1  0.27700800  0.62494200  0.55153800  1
  O  O4  1  0.38015600  0.47912700  0.88593700  1
  O  O5  1  0.68988600  0.75311200  0.40832900  1
  O  O6  1  0.08057900  0.50570800  0.85035200  1
  O  O7  1  0.24125600  0.87568300  0.20881400  1
  O  O8  1  0.89917900  0.88453200  0.19506500  1
  O  O9  1  0.60768700  0.95521600  0.12299100  1
  O  O10  1  0.81011400  0.75311200  0.90832900  1
  O  O11  1  0.10768700  0.04478400  0.37700900  1
  O  O12  1  0.25874400  0.87568300  0.70881400  1
  O  O13  1  0.60082100  0.88453200  0.69506500  1
  O  O14  1  0.39917900  0.11546800  0.30493500  1
  O  O15  1  0.74125600  0.12431700  0.29118600  1
  O  O16  1  0.89231300  0.95521600  0.62299100  1
  O  O17  1  0.18988600  0.24688800  0.09167100  1
  O  O18  1  0.39231300  0.04478400  0.87700900  1
  O  O19  1  0.10082100  0.11546800  0.80493500  1
  O  O20  1  0.75874400  0.12431700  0.79118600  1
  O  O21  1  0.91942100  0.49429200  0.14964800  1
  O  O22  1  0.31011400  0.24688800  0.59167100  1
  O  O23  1  0.61984400  0.52087300  0.11406300  1
  O  O24  1  0.72299200  0.37505800  0.44846200  1
  O  O25  1  0.22299200  0.62494200  0.05153800  1
  O  O26  1  0.11984400  0.47912700  0.38593700  1
  O  O27  1  0.41942100  0.50570800  0.35035200  1
loop_
_geom_bond_atom_site_label_1
_geom_bond_atom_site_label_2
_geom_bond_distance
_geom_bond_site_symmetry_2
Li0 O18 1.945853 1_555
Li0 O20 2.064973 1_555
Li0 O9 2.111693 1_546
Li0 O2 2.237163 1_555
Li0 O0 2.465025 1_555
Li0 O4 2.494326 1_555
Li1 O16 1.945853 1_455
Li1 O12 2.064973 1_555
Li1 O11 2.111693 1_565
Li1 O3 2.237163 1_555
Li1 O6 2.465025 1_555
Li1 O1 2.494326 1_455
Li2 O11 1.945853 1_655
Li2 O15 2.064973 1_555
Li2 O16 2.111693 1_545
Li2 O24 2.237163 1_555
Li2 O21 2.465025 1_555
Li2 O26 2.494326 1_655
Li3 O9 1.945853 1_555
Li3 O7 2.064973 1_555
Li3 O18 2.111693 1_564
Li3 O25 2.237163 1_555
Li3 O27 2.465025 1_555
Li3 O23 2.494326 1_555
Cr0 O1 1.958812 1_555
Cr0 O19 1.959797 1_655
Cr0 O2 1.984124 1_555
Cr0 O6 1.994020 1_655
Cr0 O20 2.007502 1_555
Cr1 O4 1.958812 1_555
Cr1 O13 1.959797 1_555
Cr1 O3 1.984124 1_555
Cr1 O0 1.994020 1_555
Cr1 O12 2.007502 1_555
Cr2 O23 1.958812 1_555
Cr2 O14 1.959797 1_555
Cr2 O24 1.984124 1_555
Cr2 O27 1.994020 1_555
Cr2 O15 2.007502 1_555
Cr3 O26 1.958812 1_555
Cr3 O8 1.959797 1_455
Cr3 O25 1.984124 1_555
Cr3 O21 1.994020 1_455
Cr3 O7 2.007502 1_555
O0 P0 1.533148 1_555
O1 P0 1.550925 1_555
O2 P6 1.540535 1_556
O3 P7 1.540535 1_555
O4 P1 1.550925 1_555
O5 P0 1.583577 1_555
O5 P2 1.624806 1_555
O6 P1 1.533148 1_555
O7 P3 1.547771 1_565
O8 P2 1.540049 1_555
O9 P2 1.498622 1_555
O10 P6 1.583577 1_556
O10 P4 1.624806 1_555
O11 P3 1.498622 1_555
O12 P5 1.547771 1_565
O13 P4 1.540049 1_555
O14 P3 1.540049 1_555
O15 P2 1.547771 1_545
O16 P4 1.498622 1_555
O17 P1 1.583577 1_554
O17 P3 1.624806 1_555
O18 P5 1.498622 1_555
O19 P5 1.540049 1_555
O20 P4 1.547771 1_545
O21 P6 1.533148 1_555
O22 P7 1.583577 1_555
O22 P5 1.624806 1_555
O23 P6 1.550925 1_555
O24 P0 1.540535 1_555
O25 P1 1.540535 1_554
O26 P7 1.550925 1_555
O27 P7 1.533148 1_555
