# generated using pymatgen
data_K2V3P2O13F2
_symmetry_space_group_name_H-M   'P 1'
_cell_length_a   7.29093400
_cell_length_b   8.88212383
_cell_length_c   10.47060898
_cell_angle_alpha   104.76739965
_cell_angle_beta   99.35960534
_cell_angle_gamma   90.95849388
_symmetry_Int_Tables_number   1
_chemical_formula_structural   K2V3P2O13F2
_chemical_formula_sum   'K4 V6 P4 O26 F4'
_cell_volume   645.73557883
_cell_formula_units_Z   2
loop_
 _symmetry_equiv_pos_site_id
 _symmetry_equiv_pos_as_xyz
  1  'x, y, z'
loop_
 _atom_site_type_symbol
 _atom_site_label
 _atom_site_symmetry_multiplicity
 _atom_site_fract_x
 _atom_site_fract_y
 _atom_site_fract_z
 _atom_site_occupancy
  K  K0  1  0.87130900  0.54588200  0.79290400  1
  K  K1  1  0.12869100  0.45411800  0.20709600  1
  K  K2  1  0.19538600  0.87302400  0.20147000  1
  K  K3  1  0.80461400  0.12697600  0.79853000  1
  V  V0  1  0.96966500  0.77087600  0.54244800  1
  V  V1  1  0.03033500  0.22912400  0.45755200  1
  V  V2  1  0.66782200  0.65042800  0.07063800  1
  V  V3  1  0.33217800  0.34957200  0.92936200  1
  V  V4  1  0.44669600  0.24478100  0.45278300  1
  V  V5  1  0.55330400  0.75521900  0.54721700  1
  P  P0  1  0.70332700  0.95048100  0.35017300  1
  P  P1  1  0.29667300  0.04951900  0.64982700  1
  P  P2  1  0.71459100  0.46019800  0.34552600  1
  P  P3  1  0.28540900  0.53980200  0.65447400  1
  O  O0  1  0.88324900  0.03634500  0.34351900  1
  O  O1  1  0.11675100  0.96365500  0.65648100  1
  O  O2  1  0.53702200  0.06090600  0.36107000  1
  O  O3  1  0.46297800  0.93909400  0.63893000  1
  O  O4  1  0.73512300  0.89517200  0.48422700  1
  O  O5  1  0.26487700  0.10482800  0.51577300  1
  O  O6  1  0.63419400  0.81526300  0.22999100  1
  O  O7  1  0.36580600  0.18473700  0.77000900  1
  O  O8  1  0.52971800  0.36900200  0.35341400  1
  O  O9  1  0.47028200  0.63099800  0.64658600  1
  O  O10  1  0.69519100  0.51298600  0.22004900  1
  O  O11  1  0.30480900  0.48701400  0.77995100  1
  O  O12  1  0.74303300  0.60047400  0.47971300  1
  O  O13  1  0.25696700  0.39952600  0.52028700  1
  O  O14  1  0.88242200  0.36030000  0.35928800  1
  O  O15  1  0.11757800  0.63970000  0.64071200  1
  O  O16  1  0.04094800  0.73723800  0.39791900  1
  O  O17  1  0.95905200  0.26276200  0.60208100  1
  O  O18  1  0.89761500  0.66383600  0.07525600  1
  O  O19  1  0.10238500  0.33616400  0.92474400  1
  O  O20  1  0.59286300  0.29286100  0.59201900  1
  O  O21  1  0.40713700  0.70713900  0.40798100  1
  O  O22  1  0.58717900  0.75580800  0.96625200  1
  O  O23  1  0.41282100  0.24419200  0.03374800  1
  O  O24  1  0.71176100  0.06550700  0.03709300  1
  O  O25  1  0.28823900  0.93449300  0.96290700  1
  F  F0  1  0.62928200  0.44464700  0.94065900  1
  F  F1  1  0.37071800  0.55535300  0.05934100  1
  F  F2  1  0.20021900  0.19271300  0.30829400  1
  F  F3  1  0.79978100  0.80728700  0.69170600  1
loop_
_geom_bond_atom_site_label_1
_geom_bond_atom_site_label_2
_geom_bond_distance
_geom_bond_site_symmetry_2
K0 O15 2.831123 1_655
K0 O18 2.846848 1_556
K0 O17 2.938244 1_555
K0 O19 2.978802 1_655
K0 O20 3.105631 1_555
K0 O11 3.231079 1_655
K0 O9 3.267274 1_555
K0 O22 3.269474 1_555
K1 O14 2.831123 1_455
K1 O19 2.846848 1_554
K1 O16 2.938244 1_555
K1 O18 2.978802 1_455
K1 O21 3.105631 1_555
K1 O10 3.231079 1_455
K1 O8 3.267274 1_555
K1 O23 3.269474 1_555
K2 O18 2.755392 1_455
K2 O25 2.868591 1_554
K2 O2 2.977777 1_565
K2 O16 2.987654 1_555
K2 O0 3.099539 1_465
K2 O21 3.137584 1_555
K2 O6 3.226500 1_555
K3 O19 2.755392 1_655
K3 O24 2.868591 1_556
K3 O3 2.977777 1_545
K3 O17 2.987654 1_555
K3 O1 3.099539 1_645
K3 O20 3.137584 1_555
K3 O7 3.226500 1_555
O0 P0 1.526649 1_545
O0 V1 1.996853 1_655
O1 P1 1.526649 1_565
O1 V0 1.996853 1_455
O2 P0 1.572559 1_545
O2 V4 1.861547 1_555
O3 P1 1.572559 1_565
O3 V5 1.861547 1_555
O4 P0 1.585795 1_555
O4 V5 2.093979 1_555
O4 V0 2.140528 1_555
O5 P1 1.585795 1_555
O5 V4 2.093979 1_555
O5 V1 2.140528 1_555
O6 P0 1.510962 1_555
O6 V2 1.971636 1_555
O7 P1 1.510962 1_555
O7 V3 1.971636 1_555
O8 P2 1.585420 1_555
O8 V4 1.853119 1_555
O9 P3 1.585420 1_555
O9 V5 1.853119 1_555
O10 P2 1.490564 1_555
O10 V2 2.204032 1_555
O11 P3 1.490564 1_555
O11 V3 2.204032 1_555
O12 P2 1.604253 1_555
O12 V5 2.046613 1_555
O12 V0 2.123443 1_555
O13 P3 1.604253 1_555
O13 V4 2.046613 1_555
O13 V1 2.123443 1_555
O14 P2 1.532820 1_555
O14 V1 1.967580 1_655
O15 P3 1.532820 1_555
O15 V0 1.967580 1_455
O16 V0 1.637066 1_455
O17 V1 1.637066 1_655
O18 V2 1.669594 1_555
O19 V3 1.669594 1_555
O20 V4 1.614170 1_555
O21 V5 1.614170 1_555
O22 V2 1.657507 1_556
O23 V3 1.657507 1_554
F0 V2 1.965256 1_556
F0 V3 2.285591 1_555
F0 K0 2.803546 1_555
F0 K3 3.226300 1_555
F1 V3 1.965256 1_554
F1 V2 2.285591 1_555
F1 K1 2.803546 1_555
F1 K2 3.226300 1_555
F2 V4 2.112653 1_555
F2 V1 2.113415 1_555
F2 K2 2.771261 1_545
F2 K1 2.810802 1_555
F3 V5 2.112653 1_555
F3 V0 2.113415 1_555
F3 K3 2.771261 1_565
F3 K0 2.810802 1_555
