# generated using pymatgen
data_HfAlRh2
_symmetry_space_group_name_H-M   'P 1'
_cell_length_a   4.42283428
_cell_length_b   4.42283858
_cell_length_c   4.42282784
_cell_angle_alpha   59.99998387
_cell_angle_beta   60.00004818
_cell_angle_gamma   60.00005363
_symmetry_Int_Tables_number   1
_chemical_formula_structural   HfAlRh2
_chemical_formula_sum   'Hf1 Al1 Rh2'
_cell_volume   61.17684465
_cell_formula_units_Z   1
loop_
 _symmetry_equiv_pos_site_id
 _symmetry_equiv_pos_as_xyz
  1  'x, y, z'
loop_
 _atom_site_type_symbol
 _atom_site_label
 _atom_site_symmetry_multiplicity
 _atom_site_fract_x
 _atom_site_fract_y
 _atom_site_fract_z
 _atom_site_occupancy
  Hf  Hf0  1  0.75000000  0.75000000  0.75000000  1
  Al  Al0  1  0.25000000  0.25000000  0.25000000  1
  Rh  Rh0  1  -0.00000000  0.99999900  0.00000100  1
  Rh  Rh1  1  0.50000000  0.50000100  0.49999900  1
loop_
_geom_bond_atom_site_label_1
_geom_bond_atom_site_label_2
_geom_bond_distance
_geom_bond_site_symmetry_2
Hf0 Rh1 2.708415 1_556
Hf0 Rh0 2.708415 1_655
Hf0 Rh0 2.708421 1_656
Hf0 Rh1 2.708421 1_555
Hf0 Rh1 2.708424 1_655
Hf0 Rh0 2.708424 1_556
Hf0 Rh0 2.708428 1_646
Hf0 Rh1 2.708428 1_565
Al0 Rh1 2.708421 1_555
Al0 Rh0 2.708421 1_545
Al0 Rh1 2.708421 1_545
Al0 Rh0 2.708421 1_555
Al0 Rh0 2.708422 1_546
Al0 Rh1 2.708422 1_554
Al0 Rh1 2.708424 1_455
Al0 Rh0 2.708424 1_645
