# generated using pymatgen
data_AcHg3
_symmetry_space_group_name_H-M   'P 1'
_cell_length_a   7.12952669
_cell_length_b   7.12952595
_cell_length_c   5.08715551
_cell_angle_alpha   90.00000000
_cell_angle_beta   90.00000000
_cell_angle_gamma   120.00283721
_symmetry_Int_Tables_number   1
_chemical_formula_structural   AcHg3
_chemical_formula_sum   'Ac2 Hg6'
_cell_volume   223.93118685
_cell_formula_units_Z   2
loop_
 _symmetry_equiv_pos_site_id
 _symmetry_equiv_pos_as_xyz
  1  'x, y, z'
loop_
 _atom_site_type_symbol
 _atom_site_label
 _atom_site_symmetry_multiplicity
 _atom_site_fract_x
 _atom_site_fract_y
 _atom_site_fract_z
 _atom_site_occupancy
  Ac  Ac0  1  0.33330064  0.66669936  0.75000000  1
  Ac  Ac1  1  0.66670036  0.33329964  0.25000000  1
  Hg  Hg0  1  0.15394504  0.30781007  0.25000000  1
  Hg  Hg1  1  0.69218993  0.84605496  0.25000000  1
  Hg  Hg2  1  0.15381958  0.84617942  0.25000000  1
  Hg  Hg3  1  0.84605496  0.69218993  0.75000000  1
  Hg  Hg4  1  0.30780907  0.15394404  0.75000000  1
  Hg  Hg5  1  0.84618142  0.15381958  0.75000000  1
loop_
_geom_bond_atom_site_label_1
_geom_bond_atom_site_label_2
_geom_bond_distance
_geom_bond_site_symmetry_2
Ac0 Hg0 3.373390 1_556
Ac0 Hg0 3.373390 1_555
Ac0 Hg1 3.373390 1_556
Ac0 Hg1 3.373390 1_555
Ac0 Hg2 3.373743 1_556
Ac0 Hg2 3.373743 1_555
Ac0 Hg5 3.568154 1_455
Ac0 Hg5 3.568161 1_565
Ac0 Hg4 3.568176 1_565
Ac0 Hg3 3.568179 1_455
Ac0 Hg3 3.568292 1_555
Ac0 Hg4 3.568296 1_555
Ac1 Hg3 3.373394 1_555
Ac1 Hg3 3.373394 1_554
Ac1 Hg4 3.373398 1_555
Ac1 Hg4 3.373398 1_554
Ac1 Hg5 3.373743 1_555
Ac1 Hg5 3.373743 1_554
Ac1 Hg2 3.568154 1_655
Ac1 Hg2 3.568161 1_545
Ac1 Hg1 3.568168 1_545
Ac1 Hg0 3.568168 1_655
Ac1 Hg1 3.568302 1_555
Ac1 Hg0 3.568303 1_555
Hg0 Hg4 3.174904 1_555
Hg0 Hg4 3.174904 1_554
Hg0 Hg5 3.174980 1_454
Hg0 Hg5 3.174980 1_455
Hg0 Hg2 3.290761 1_545
Hg0 Hg1 3.291954 1_445
Hg1 Hg3 3.174904 1_555
Hg1 Hg3 3.174904 1_554
Hg1 Hg5 3.174983 1_564
Hg1 Hg5 3.174983 1_565
Hg1 Hg2 3.290757 1_655
Hg2 Hg4 3.174983 1_564
Hg2 Hg4 3.174983 1_565
Hg2 Hg3 3.174983 1_455
Hg2 Hg3 3.174983 1_454
Hg3 Hg5 3.290750 1_565
Hg3 Hg4 3.291947 1_665
Hg4 Hg5 3.290743 1_455
