# generated using pymatgen
data_CrAgO4
_symmetry_space_group_name_H-M   'P 1'
_cell_length_a   8.36936100
_cell_length_b   5.50753100
_cell_length_c   8.83306378
_cell_angle_alpha   55.03039567
_cell_angle_beta   90.00000000
_cell_angle_gamma   90.00000000
_symmetry_Int_Tables_number   1
_chemical_formula_structural   CrAgO4
_chemical_formula_sum   'Cr4 Ag4 O16'
_cell_volume   333.64634392
_cell_formula_units_Z   4
loop_
 _symmetry_equiv_pos_site_id
 _symmetry_equiv_pos_as_xyz
  1  'x, y, z'
loop_
 _atom_site_type_symbol
 _atom_site_label
 _atom_site_symmetry_multiplicity
 _atom_site_fract_x
 _atom_site_fract_y
 _atom_site_fract_z
 _atom_site_occupancy
  Cr  Cr0  1  0.68742400  0.39025400  0.84344000  1
  Cr  Cr1  1  0.18742400  0.60974600  0.65656000  1
  Cr  Cr2  1  0.81257600  0.39025400  0.34344000  1
  Cr  Cr3  1  0.31257600  0.60974600  0.15656000  1
  Ag  Ag0  1  0.52812100  0.91537300  0.33606600  1
  Ag  Ag1  1  0.02812100  0.08462700  0.16393400  1
  Ag  Ag2  1  0.97187900  0.91537300  0.83606600  1
  Ag  Ag3  1  0.47187900  0.08462700  0.66393400  1
  O  O0  1  0.77388100  0.72890100  0.28550200  1
  O  O1  1  0.60632700  0.41707200  0.65836500  1
  O  O2  1  0.86049700  0.18578200  0.90761000  1
  O  O3  1  0.05820000  0.76959600  0.48686100  1
  O  O4  1  0.55820000  0.23040400  0.01313900  1
  O  O5  1  0.36049700  0.81421800  0.59239000  1
  O  O6  1  0.10632700  0.58292800  0.84163500  1
  O  O7  1  0.72611900  0.72890100  0.78550200  1
  O  O8  1  0.27388100  0.27109900  0.21449800  1
  O  O9  1  0.89367300  0.41707200  0.15836500  1
  O  O10  1  0.63950300  0.18578200  0.40761000  1
  O  O11  1  0.44180000  0.76959600  0.98686100  1
  O  O12  1  0.94180000  0.23040400  0.51313900  1
  O  O13  1  0.13950300  0.81421800  0.09239000  1
  O  O14  1  0.39367300  0.58292800  0.34163500  1
  O  O15  1  0.22611900  0.27109900  0.71449800  1
loop_
_geom_bond_atom_site_label_1
_geom_bond_atom_site_label_2
_geom_bond_distance
_geom_bond_site_symmetry_2
Cr0 O4 1.636749 1_556
Cr0 O7 1.658700 1_555
Cr0 O1 1.696530 1_555
Cr0 O2 1.719290 1_555
Cr1 O3 1.636749 1_555
Cr1 O15 1.658700 1_555
Cr1 O6 1.696530 1_555
Cr1 O5 1.719290 1_555
Cr2 O12 1.636749 1_555
Cr2 O0 1.658700 1_555
Cr2 O9 1.696530 1_555
Cr2 O10 1.719290 1_555
Cr3 O11 1.636749 1_554
Cr3 O8 1.658700 1_555
Cr3 O14 1.696530 1_555
Cr3 O13 1.719290 1_555
Ag0 O14 2.125496 1_555
Ag0 O10 2.136624 1_565
Ag0 O4 2.353097 1_565
Ag0 O5 2.441084 1_555
Ag0 O0 2.451664 1_555
Ag0 O8 2.665997 1_565
Ag0 O1 2.666275 1_555
Ag1 O9 2.125496 1_455
Ag1 O13 2.136624 1_545
Ag1 O3 2.353097 1_545
Ag1 O2 2.441084 1_454
Ag1 O8 2.451664 1_555
Ag1 O0 2.665997 1_445
Ag1 O6 2.666275 1_554
Ag2 O6 2.125496 1_655
Ag2 O2 2.136624 1_565
Ag2 O12 2.353097 1_565
Ag2 O13 2.441084 1_656
Ag2 O7 2.451664 1_555
Ag2 O15 2.665997 1_665
Ag2 O9 2.666275 1_556
Ag3 O1 2.125496 1_555
Ag3 O5 2.136624 1_545
Ag3 O11 2.353097 1_545
Ag3 O10 2.441084 1_555
Ag3 O15 2.451664 1_555
Ag3 O7 2.665997 1_545
Ag3 O14 2.666275 1_555
