# generated using pymatgen
data_Pm2CuOs
_symmetry_space_group_name_H-M   'P 1'
_cell_length_a   4.95504055
_cell_length_b   4.95504055
_cell_length_c   4.95504052
_cell_angle_alpha   60.00048778
_cell_angle_beta   60.00048778
_cell_angle_gamma   60.00048745
_symmetry_Int_Tables_number   1
_chemical_formula_structural   Pm2CuOs
_chemical_formula_sum   'Pm2 Cu1 Os1'
_cell_volume   86.02633879
_cell_formula_units_Z   1
loop_
 _symmetry_equiv_pos_site_id
 _symmetry_equiv_pos_as_xyz
  1  'x, y, z'
loop_
 _atom_site_type_symbol
 _atom_site_label
 _atom_site_symmetry_multiplicity
 _atom_site_fract_x
 _atom_site_fract_y
 _atom_site_fract_z
 _atom_site_occupancy
  Pm  Pm0  1  0.00000002  0.00000002  0.00000002  1
  Pm  Pm1  1  0.50000080  0.50000080  0.50000080  1
  Cu  Cu0  1  0.24999910  0.24999910  0.24999909  1
  Os  Os0  1  0.75000009  0.75000008  0.75000008  1
loop_
_geom_bond_atom_site_label_1
_geom_bond_atom_site_label_2
_geom_bond_distance
_geom_bond_site_symmetry_2
Cu0 Pm0 3.034308 1_555
Cu0 Pm1 3.034340 1_555
Cu0 Pm1 3.034342 1_554
Cu0 Pm1 3.034342 1_455
Cu0 Pm1 3.034342 1_545
Cu0 Pm0 3.034353 1_655
Cu0 Pm0 3.034353 1_565
Cu0 Pm0 3.034353 1_556
Os0 Pm1 3.034310 1_555
Os0 Pm0 3.034318 1_666
Os0 Pm0 3.034349 1_665
Os0 Pm0 3.034349 1_656
Os0 Pm0 3.034349 1_566
Os0 Pm1 3.034352 1_655
Os0 Pm1 3.034352 1_556
Os0 Pm1 3.034352 1_565
