# generated using pymatgen
data_HfNbO4
_symmetry_space_group_name_H-M   'P 1'
_cell_length_a   6.30440928
_cell_length_b   6.30440928
_cell_length_c   5.11509584
_cell_angle_alpha   67.93581760
_cell_angle_beta   67.93581760
_cell_angle_gamma   112.88076397
_symmetry_Int_Tables_number   1
_chemical_formula_structural   HfNbO4
_chemical_formula_sum   'Hf2 Nb2 O8'
_cell_volume   137.41714146
_cell_formula_units_Z   2
loop_
 _symmetry_equiv_pos_site_id
 _symmetry_equiv_pos_as_xyz
  1  'x, y, z'
loop_
 _atom_site_type_symbol
 _atom_site_label
 _atom_site_symmetry_multiplicity
 _atom_site_fract_x
 _atom_site_fract_y
 _atom_site_fract_z
 _atom_site_occupancy
  Hf  Hf0  1  0.61833400  0.38166600  0.75000000  1
  Hf  Hf1  1  0.38166600  0.61833400  0.25000000  1
  Nb  Nb0  1  0.14528500  0.85471500  0.75000000  1
  Nb  Nb1  1  0.85471500  0.14528500  0.25000000  1
  O  O0  1  0.98800100  0.54800400  0.24644700  1
  O  O1  1  0.54800400  0.98800100  0.74644700  1
  O  O2  1  0.24245300  0.31378300  0.14548200  1
  O  O3  1  0.31378300  0.24245300  0.64548200  1
  O  O4  1  0.68621700  0.75754700  0.35451800  1
  O  O5  1  0.75754700  0.68621700  0.85451800  1
  O  O6  1  0.45199600  0.01199900  0.25355300  1
  O  O7  1  0.01199900  0.45199600  0.75355300  1
loop_
_geom_bond_atom_site_label_1
_geom_bond_atom_site_label_2
_geom_bond_distance
_geom_bond_site_symmetry_2
Hf0 O5 2.134445 1_555
Hf0 O3 2.134445 1_555
Hf0 O0 2.173892 1_555
Hf0 O6 2.173892 1_556
Hf0 O2 2.202354 1_556
Hf0 O4 2.202354 1_555
Hf0 O1 2.353849 1_545
Hf0 O7 2.353849 1_655
Hf1 O4 2.134445 1_555
Hf1 O2 2.134445 1_555
Hf1 O7 2.173892 1_555
Hf1 O1 2.173892 1_554
Hf1 O5 2.202354 1_554
Hf1 O3 2.202354 1_555
Hf1 O0 2.353849 1_455
Hf1 O6 2.353849 1_565
Nb0 O5 1.990445 1_455
Nb0 O3 1.990445 1_565
Nb0 O6 2.024563 1_565
Nb0 O0 2.024563 1_456
Nb0 O7 2.333948 1_555
Nb0 O1 2.333948 1_555
Nb1 O2 1.990445 1_655
Nb1 O4 1.990445 1_545
Nb1 O7 2.024563 1_654
Nb1 O1 2.024563 1_545
Nb1 O6 2.333948 1_555
Nb1 O0 2.333948 1_555
