# generated using pymatgen
data_Pt3W
_symmetry_space_group_name_H-M   'P 1'
_cell_length_a   4.87193202
_cell_length_b   4.87193202
_cell_length_c   4.87193202
_cell_angle_alpha   132.86594696
_cell_angle_beta   132.86594696
_cell_angle_gamma   68.86474863
_symmetry_Int_Tables_number   1
_chemical_formula_structural   Pt3W
_chemical_formula_sum   'Pt3 W1'
_cell_volume   60.98762600
_cell_formula_units_Z   1
loop_
 _symmetry_equiv_pos_site_id
 _symmetry_equiv_pos_as_xyz
  1  'x, y, z'
loop_
 _atom_site_type_symbol
 _atom_site_label
 _atom_site_symmetry_multiplicity
 _atom_site_fract_x
 _atom_site_fract_y
 _atom_site_fract_z
 _atom_site_occupancy
  Pt  Pt0  1  0.75000000  0.25000000  0.50000000  1
  Pt  Pt1  1  0.25000000  0.75000000  0.50000000  1
  Pt  Pt2  1  0.50000000  0.50000000  0.00000000  1
  W  W0  1  -0.00000000  0.00000000  0.00000000  1
loop_
_geom_bond_atom_site_label_1
_geom_bond_atom_site_label_2
_geom_bond_distance
_geom_bond_site_symmetry_2
Pt0 Pt1 2.754752 1_645
Pt0 Pt1 2.754752 1_656
Pt0 Pt1 2.754752 1_555
Pt0 Pt1 2.754752 1_544
Pt0 Pt2 2.798409 1_556
Pt0 Pt2 2.798409 1_656
Pt0 W0 2.798409 1_666
Pt0 W0 2.798409 1_656
Pt0 W0 2.798409 1_555
Pt0 W0 2.798409 1_655
Pt0 Pt2 2.798409 1_545
Pt0 Pt2 2.798409 1_555
Pt1 Pt2 2.798409 1_556
Pt1 W0 2.798409 1_666
Pt1 Pt2 2.798409 1_566
Pt1 W0 2.798409 1_555
Pt1 W0 2.798409 1_565
Pt1 W0 2.798409 1_566
Pt1 Pt2 2.798409 1_455
Pt1 Pt2 2.798409 1_555
Pt2 W0 2.754752 1_655
Pt2 W0 2.754752 1_565
Pt2 W0 2.754752 1_554
Pt2 W0 2.754752 1_666
