# generated using pymatgen
data_PaB3
_symmetry_space_group_name_H-M   'P 1'
_cell_length_a   5.43435283
_cell_length_b   5.43434631
_cell_length_c   3.45507866
_cell_angle_alpha   89.99991914
_cell_angle_beta   90.00007769
_cell_angle_gamma   120.00097647
_symmetry_Int_Tables_number   1
_chemical_formula_structural   PaB3
_chemical_formula_sum   'Pa2 B6'
_cell_volume   88.36482881
_cell_formula_units_Z   2
loop_
 _symmetry_equiv_pos_site_id
 _symmetry_equiv_pos_as_xyz
  1  'x, y, z'
loop_
 _atom_site_type_symbol
 _atom_site_label
 _atom_site_symmetry_multiplicity
 _atom_site_fract_x
 _atom_site_fract_y
 _atom_site_fract_z
 _atom_site_occupancy
  Pa  Pa0  1  0.66666905  0.33333105  0.24999676  1
  Pa  Pa1  1  0.33333135  0.66667026  0.75000293  1
  B  B0  1  0.88753325  0.11247388  0.75000859  1
  B  B1  1  0.22494233  0.11248073  0.74999151  1
  B  B2  1  0.88751756  0.77505793  0.74997107  1
  B  B3  1  0.11247377  0.88752952  0.25000184  1
  B  B4  1  0.77505340  0.88751434  0.25001927  1
  B  B5  1  0.11248128  0.22494730  0.25000702  1
loop_
_geom_bond_atom_site_label_1
_geom_bond_atom_site_label_2
_geom_bond_distance
_geom_bond_site_symmetry_2
B0 B1 1.833581 1_655
B0 B2 1.833592 1_545
B0 B5 2.026112 1_656
B0 B4 2.026115 1_545
B0 B5 2.026123 1_655
B0 B4 2.026176 1_546
B0 Pa0 2.702960 1_556
B0 Pa0 2.703008 1_555
B0 Pa1 2.764597 1_655
B0 Pa1 2.764627 1_545
B1 B2 1.833652 1_445
B1 B5 2.026028 1_555
B1 B3 2.026095 1_545
B1 B5 2.026122 1_556
B1 B3 2.026154 1_546
B1 Pa0 2.702970 1_555
B1 Pa0 2.702991 1_556
B1 Pa1 2.764605 1_555
B1 Pa1 2.764676 1_545
B2 B4 2.025914 1_555
B2 B3 2.026048 1_655
B2 B4 2.026201 1_556
B2 B3 2.026228 1_656
B2 Pa0 2.702923 1_555
B2 Pa0 2.703035 1_556
B2 Pa1 2.764593 1_555
B2 Pa1 2.764691 1_655
B3 B4 1.833620 1_455
B3 B5 1.833625 1_565
B3 Pa1 2.702967 1_554
B3 Pa1 2.702968 1_555
B3 Pa0 2.764600 1_565
B3 Pa0 2.764616 1_455
B4 B5 1.833688 1_665
B4 Pa1 2.702928 1_555
B4 Pa1 2.702999 1_554
B4 Pa0 2.764580 1_555
B4 Pa0 2.764693 1_565
B5 Pa1 2.702957 1_555
B5 Pa1 2.702973 1_554
B5 Pa0 2.764609 1_555
B5 Pa0 2.764669 1_455
