# generated using pymatgen
data_LiTl2Rh
_symmetry_space_group_name_H-M   'P 1'
_cell_length_a   4.70603247
_cell_length_b   4.70603247
_cell_length_c   4.70603247
_cell_angle_alpha   60.00000000
_cell_angle_beta   60.00000000
_cell_angle_gamma   60.00000000
_symmetry_Int_Tables_number   1
_chemical_formula_structural   LiTl2Rh
_chemical_formula_sum   'Li1 Tl2 Rh1'
_cell_volume   73.69699153
_cell_formula_units_Z   1
loop_
 _symmetry_equiv_pos_site_id
 _symmetry_equiv_pos_as_xyz
  1  'x, y, z'
loop_
 _atom_site_type_symbol
 _atom_site_label
 _atom_site_symmetry_multiplicity
 _atom_site_fract_x
 _atom_site_fract_y
 _atom_site_fract_z
 _atom_site_occupancy
  Li  Li0  1  0.25000000  0.25000000  0.25000000  1
  Tl  Tl0  1  0.00000000  0.00000000  0.00000000  1
  Tl  Tl1  1  0.50000000  0.50000000  0.50000000  1
  Rh  Rh0  1  0.74999900  0.74999900  0.74999900  1
loop_
_geom_bond_atom_site_label_1
_geom_bond_atom_site_label_2
_geom_bond_distance
_geom_bond_site_symmetry_2
Li0 Tl0 2.881845 1_555
Li0 Tl0 2.881845 1_556
Li0 Tl0 2.881845 1_565
Li0 Tl1 2.881845 1_554
Li0 Tl1 2.881845 1_545
Li0 Tl1 2.881845 1_555
Li0 Tl1 2.881845 1_455
Li0 Tl0 2.881845 1_655
Rh0 Tl1 2.881833 1_555
Rh0 Tl0 2.881841 1_566
Rh0 Tl0 2.881841 1_665
Rh0 Tl0 2.881841 1_656
Rh0 Tl1 2.881848 1_556
Rh0 Tl1 2.881848 1_565
Rh0 Tl1 2.881848 1_655
Rh0 Tl0 2.881856 1_666
