# generated using pymatgen
data_NaPO3
_symmetry_space_group_name_H-M   'P 1'
_cell_length_a   6.98733340
_cell_length_b   7.03616237
_cell_length_c   7.79089855
_cell_angle_alpha   93.44658579
_cell_angle_beta   103.12142674
_cell_angle_gamma   90.03707023
_symmetry_Int_Tables_number   1
_chemical_formula_structural   NaPO3
_chemical_formula_sum   'Na6 P6 O18'
_cell_volume   372.31633924
_cell_formula_units_Z   6
loop_
 _symmetry_equiv_pos_site_id
 _symmetry_equiv_pos_as_xyz
  1  'x, y, z'
loop_
 _atom_site_type_symbol
 _atom_site_label
 _atom_site_symmetry_multiplicity
 _atom_site_fract_x
 _atom_site_fract_y
 _atom_site_fract_z
 _atom_site_occupancy
  Na  Na0  1  0.57735891  0.75595393  0.79663827  1
  Na  Na1  1  0.42264109  0.24404607  0.20336173  1
  Na  Na2  1  0.05452722  0.74907509  0.77860356  1
  Na  Na3  1  0.94547278  0.25092491  0.22139644  1
  Na  Na4  1  0.25683796  0.97777755  0.51440303  1
  Na  Na5  1  0.74316204  0.02222245  0.48559697  1
  P  P0  1  0.62120184  0.23629511  0.82192212  1
  P  P1  1  0.37879816  0.76370489  0.17807788  1
  P  P2  1  0.04219494  0.23538189  0.81923918  1
  P  P3  1  0.95780506  0.76461811  0.18076082  1
  P  P4  1  0.28089504  0.44649392  0.61454883  1
  P  P5  1  0.71910496  0.55350608  0.38545117  1
  O  O0  1  0.55793137  0.06188873  0.70434277  1
  O  O1  1  0.44206863  0.93811127  0.29565723  1
  O  O2  1  0.04477704  0.06058819  0.70219188  1
  O  O3  1  0.95522296  0.93941181  0.29780812  1
  O  O4  1  0.36646318  0.76649077  0.98645278  1
  O  O5  1  0.63353682  0.23350923  0.01354722  1
  O  O6  1  0.87103475  0.76753068  0.98899014  1
  O  O7  1  0.12896525  0.23246932  0.01100986  1
  O  O8  1  0.82427350  0.31455582  0.79001657  1
  O  O9  1  0.17572650  0.68544418  0.20998343  1
  O  O10  1  0.49073045  0.41314771  0.74418079  1
  O  O11  1  0.50926955  0.58685229  0.25581921  1
  O  O12  1  0.13376221  0.41180320  0.74198548  1
  O  O13  1  0.86623779  0.58819680  0.25801452  1
  O  O14  1  0.27435595  0.65483429  0.59341450  1
  O  O15  1  0.72564405  0.34516571  0.40658550  1
  O  O16  1  0.75770662  0.69330455  0.54005699  1
  O  O17  1  0.24229338  0.30669545  0.45994301  1
loop_
_geom_bond_atom_site_label_1
_geom_bond_atom_site_label_2
_geom_bond_distance
_geom_bond_site_symmetry_2
Na0 O6 2.247681 1_555
Na0 O0 2.304640 1_565
Na0 O4 2.310908 1_555
Na0 O14 2.415812 1_555
Na0 O10 2.473585 1_555
Na0 O16 2.610896 1_555
Na1 O7 2.247681 1_555
Na1 O1 2.304640 1_545
Na1 O5 2.310908 1_555
Na1 O15 2.415812 1_555
Na1 O11 2.473585 1_555
Na1 O17 2.610896 1_555
Na2 O6 2.296984 1_455
Na2 O2 2.302596 1_565
Na2 O4 2.400251 1_555
Na2 O14 2.402742 1_555
Na2 O12 2.451840 1_555
Na2 O16 2.463858 1_455
Na3 O7 2.296984 1_655
Na3 O3 2.302596 1_545
Na3 O5 2.400251 1_555
Na3 O15 2.402742 1_555
Na3 O13 2.451840 1_555
Na3 O17 2.463858 1_655
Na4 O0 2.333619 1_565
Na4 O2 2.357636 1_565
Na4 O1 2.366888 1_555
Na4 O17 2.375967 1_565
Na4 O14 2.385687 1_555
Na4 O3 2.385735 1_455
Na5 O1 2.333619 1_545
Na5 O3 2.357636 1_545
Na5 O0 2.366888 1_555
Na5 O16 2.375967 1_545
Na5 O15 2.385687 1_555
Na5 O2 2.385735 1_655
O0 P0 1.490220 1_555
O1 P1 1.490220 1_555
O2 P2 1.489007 1_555
O3 P3 1.489007 1_555
O4 P1 1.477077 1_556
O5 P0 1.477077 1_554
O6 P3 1.480764 1_556
O7 P2 1.480764 1_554
O8 P2 1.593645 1_655
O8 P0 1.598110 1_555
O9 P3 1.593645 1_455
O9 P1 1.598110 1_555
O10 P4 1.606667 1_555
O10 P0 1.608655 1_555
O11 P5 1.606667 1_555
O11 P1 1.608655 1_555
O12 P2 1.605041 1_555
O12 P4 1.610742 1_555
O13 P3 1.605041 1_555
O13 P5 1.610742 1_555
O14 P4 1.484521 1_555
O15 P5 1.484521 1_555
O16 P5 1.483530 1_555
O17 P4 1.483530 1_555
