# generated using pymatgen
data_LiGaO2
_symmetry_space_group_name_H-M   'P 1'
_cell_length_a   2.95041614
_cell_length_b   2.95041614
_cell_length_c   5.17319588
_cell_angle_alpha   73.43134931
_cell_angle_beta   73.43134931
_cell_angle_gamma   59.99999696
_symmetry_Int_Tables_number   1
_chemical_formula_structural   LiGaO2
_chemical_formula_sum   'Li1 Ga1 O2'
_cell_volume   36.82435214
_cell_formula_units_Z   1
loop_
 _symmetry_equiv_pos_site_id
 _symmetry_equiv_pos_as_xyz
  1  'x, y, z'
loop_
 _atom_site_type_symbol
 _atom_site_label
 _atom_site_symmetry_multiplicity
 _atom_site_fract_x
 _atom_site_fract_y
 _atom_site_fract_z
 _atom_site_occupancy
  Li  Li0  1  0.00000000  0.00000000  0.00000000  1
  Ga  Ga0  1  0.50000000  0.50000000  0.50000000  1
  O  O0  1  0.24147700  0.24147700  0.27556900  1
  O  O1  1  0.75852300  0.75852300  0.72443100  1
loop_
_geom_bond_atom_site_label_1
_geom_bond_atom_site_label_2
_geom_bond_distance
_geom_bond_site_symmetry_2
Li0 O1 2.171074 1_544
Li0 O1 2.171074 1_454
Li0 O0 2.171074 1_545
Li0 O0 2.171074 1_455
Li0 O1 2.171074 1_444
Li0 O0 2.171074 1_555
Ga0 O0 2.025704 1_655
Ga0 O0 2.025704 1_565
Ga0 O1 2.025704 1_545
Ga0 O1 2.025704 1_455
Ga0 O1 2.025705 1_555
Ga0 O0 2.025705 1_555
