# generated using pymatgen
data_Sr7PrFe4(MoO6)4
_symmetry_space_group_name_H-M   'P 1'
_cell_length_a   5.61864700
_cell_length_b   5.68186256
_cell_length_c   18.79492136
_cell_angle_alpha   97.92251447
_cell_angle_beta   89.96095822
_cell_angle_gamma   119.60197390
_symmetry_Int_Tables_number   1
_chemical_formula_structural   Sr7PrFe4(MoO6)4
_chemical_formula_sum   'Sr7 Pr1 Fe4 Mo4 O24'
_cell_volume   515.13620255
_cell_formula_units_Z   1
loop_
 _symmetry_equiv_pos_site_id
 _symmetry_equiv_pos_as_xyz
  1  'x, y, z'
loop_
 _atom_site_type_symbol
 _atom_site_label
 _atom_site_symmetry_multiplicity
 _atom_site_fract_x
 _atom_site_fract_y
 _atom_site_fract_z
 _atom_site_occupancy
  Sr  Sr0  1  0.06352400  0.74474800  0.19163300  1
  Sr  Sr1  1  0.81380800  0.74912300  0.43679600  1
  Sr  Sr2  1  0.56593300  0.75129900  0.69103500  1
  Sr  Sr3  1  0.30932300  0.75698800  0.92993300  1
  Sr  Sr4  1  0.43234900  0.25027400  0.31185900  1
  Sr  Sr5  1  0.69361800  0.24859300  0.06650100  1
  Sr  Sr6  1  0.18757700  0.25022000  0.56135500  1
  Pr  Pr0  1  0.93985100  0.25471300  0.80969300  1
  Fe  Fe0  1  0.75478900  0.00110500  0.25054300  1
  Fe  Fe1  1  0.49621900  0.99950500  0.50045500  1
  Fe  Fe2  1  0.24979900  0.99568900  0.75215300  1
  Fe  Fe3  1  0.62565500  0.50775700  0.87072900  1
  Mo  Mo0  1  0.00238600  0.00707500  0.99633000  1
  Mo  Mo1  1  0.37646300  0.50113600  0.12555000  1
  Mo  Mo2  1  0.12399000  0.49746100  0.37623100  1
  Mo  Mo3  1  0.87545300  0.49937100  0.62512000  1
  O  O0  1  0.18665200  0.26152300  0.05879200  1
  O  O1  1  0.92763500  0.24609800  0.31390100  1
  O  O2  1  0.69320100  0.24494100  0.56398200  1
  O  O3  1  0.44533100  0.24964100  0.81231900  1
  O  O4  1  0.60740400  0.28518200  0.17721400  1
  O  O5  1  0.36592100  0.28846600  0.42849700  1
  O  O6  1  0.10927600  0.30106000  0.67654200  1
  O  O7  1  0.87207700  0.29614500  0.91934700  1
  O  O8  1  0.67180900  0.80913800  0.04693500  1
  O  O9  1  0.39781800  0.77365100  0.30673000  1
  O  O10  1  0.15761600  0.78874100  0.55246100  1
  O  O11  1  0.90635200  0.82549400  0.80161400  1
  O  O12  1  0.55676400  0.74950500  0.18726400  1
  O  O13  1  0.32071400  0.74646400  0.43958600  1
  O  O14  1  0.05338100  0.74006100  0.69074800  1
  O  O15  1  0.81303000  0.75898700  0.93422000  1
  O  O16  1  0.08835900  0.19796800  0.20019600  1
  O  O17  1  0.85369800  0.21548900  0.44767600  1
  O  O18  1  0.60392600  0.20645100  0.70233600  1
  O  O19  1  0.33980600  0.20281800  0.94963100  1
  O  O20  1  0.13387300  0.71299000  0.07232500  1
  O  O21  1  0.88266000  0.70402200  0.32397000  1
  O  O22  1  0.64779100  0.70192000  0.57533900  1
  O  O23  1  0.35417000  0.67818700  0.82245800  1
loop_
_geom_bond_atom_site_label_1
_geom_bond_atom_site_label_2
_geom_bond_distance
_geom_bond_site_symmetry_2
Fe0 O1 1.583647 1_555
Fe0 O12 1.630273 1_545
Fe0 O16 1.969133 1_655
Fe0 O9 2.149585 1_545
Fe0 O21 2.666774 1_545
Fe0 O4 2.669422 1_555
Fe1 O13 1.579794 1_555
Fe1 O2 1.616554 1_565
Fe1 O10 2.019474 1_555
Fe1 O17 2.102854 1_565
Fe1 O5 2.619478 1_565
Fe1 O22 2.765022 1_555
Fe2 O3 1.597972 1_565
Fe2 O14 1.617260 1_555
Fe2 O11 1.981132 1_455
Fe2 O18 2.054810 1_565
Fe2 O23 2.654749 1_555
Fe3 O3 1.572344 1_555
Fe3 O15 1.617848 1_555
Fe3 O11 2.294513 1_555
Fe3 O19 2.395102 1_555
Fe3 O23 2.406446 1_555
Fe3 O7 2.479289 1_555
Mo0 O15 1.596270 1_445
Mo0 O0 1.610986 1_556
Mo0 O19 1.945576 1_555
Mo0 O8 1.961660 1_446
Mo0 O7 2.678023 1_455
Mo0 O20 2.693865 1_546
Mo1 O12 1.581497 1_555
Mo1 O0 1.631469 1_555
Mo1 O16 2.337566 1_555
Mo1 O8 2.416599 1_555
Mo1 O4 2.456682 1_555
Mo1 O20 2.502450 1_555
Mo2 O1 1.616535 1_455
Mo2 O13 1.622873 1_555
Mo2 O9 2.170974 1_555
Mo2 O17 2.205177 1_455
Mo2 O21 2.464281 1_455
Mo2 O5 2.478095 1_555
Mo3 O2 1.593748 1_555
Mo3 O14 1.605335 1_655
Mo3 O10 2.263275 1_655
Mo3 O18 2.314733 1_555
Mo3 O22 2.364093 1_555
Mo3 O6 2.386229 1_655
O4 Sr5 2.141644 1_555
O4 Sr0 2.579581 1_655
O4 Sr4 2.711669 1_555
O4 Sr0 3.130278 1_545
O5 Sr4 2.222590 1_555
O5 Sr1 2.566830 1_555
O5 Sr6 2.686571 1_555
O5 Sr1 3.126956 1_445
O6 Sr6 2.217156 1_555
O6 Sr2 2.554614 1_555
O6 Pr0 2.677521 1_455
O7 Pr0 2.098009 1_555
O7 Sr3 2.536368 1_655
O7 Sr5 2.943184 1_556
O7 Sr3 3.165359 1_545
O8 Sr5 2.414443 1_565
O8 Sr3 2.881307 1_554
O9 Sr4 2.605715 1_565
O9 Sr0 2.799531 1_555
O9 Sr4 3.088562 1_555
O10 Sr6 2.524800 1_565
O10 Sr1 2.819469 1_455
O10 Sr6 3.173104 1_555
O11 Pr0 2.334634 1_565
O11 Sr2 2.668863 1_555
O12 Sr0 2.759367 1_555
O12 Sr0 2.862094 1_655
O14 Sr2 2.770880 1_455
O14 Sr2 2.848840 1_555
O16 Sr0 2.491479 1_545
O16 Sr4 2.737611 1_555
O17 Sr1 2.525388 1_545
O17 Sr6 2.765255 1_655
O18 Sr2 2.466150 1_545
O18 Pr0 2.655250 1_555
O19 Sr3 2.428199 1_545
O19 Sr5 2.860439 1_556
O20 Sr0 2.274818 1_555
O20 Sr5 2.562360 1_455
O20 Sr3 2.852007 1_554
O20 Sr5 3.130504 1_565
O21 Sr1 2.158496 1_555
O21 Sr4 2.548491 1_555
O21 Sr0 2.682464 1_655
O21 Sr4 3.153935 1_665
O22 Sr2 2.230837 1_555
O22 Sr6 2.569209 1_555
O22 Sr1 2.768465 1_555
O22 Sr6 3.140528 1_665
O23 Sr3 2.050791 1_555
O23 Pr0 2.360947 1_455
O23 Sr2 2.734980 1_555
