# generated using pymatgen
data_SmMgRh2
_symmetry_space_group_name_H-M   'P 1'
_cell_length_a   4.66890906
_cell_length_b   4.66952961
_cell_length_c   4.66873507
_cell_angle_alpha   59.99613012
_cell_angle_beta   60.00800913
_cell_angle_gamma   59.99303427
_symmetry_Int_Tables_number   1
_chemical_formula_structural   SmMgRh2
_chemical_formula_sum   'Sm1 Mg1 Rh2'
_cell_volume   71.97198611
_cell_formula_units_Z   1
loop_
 _symmetry_equiv_pos_site_id
 _symmetry_equiv_pos_as_xyz
  1  'x, y, z'
loop_
 _atom_site_type_symbol
 _atom_site_label
 _atom_site_symmetry_multiplicity
 _atom_site_fract_x
 _atom_site_fract_y
 _atom_site_fract_z
 _atom_site_occupancy
  Sm  Sm0  1  0.75000055  0.75000009  0.75000018  1
  Mg  Mg0  1  0.24999925  0.25000004  0.25000010  1
  Rh  Rh0  1  0.99999488  0.99999862  0.00000412  1
  Rh  Rh1  1  0.50000432  0.50000224  0.49999760  1
loop_
_geom_bond_atom_site_label_1
_geom_bond_atom_site_label_2
_geom_bond_distance
_geom_bond_site_symmetry_2
Mg0 Rh1 2.859142 1_455
Mg0 Rh0 2.859145 1_545
Mg0 Rh1 2.859154 1_554
Mg0 Rh0 2.859160 1_446
Mg0 Rh1 2.859191 1_545
Mg0 Rh0 2.859194 1_455
Mg0 Rh0 2.859229 1_445
Mg0 Rh1 2.859241 1_555
Rh0 Sm0 2.859129 1_555
Rh0 Sm0 2.859183 1_654
Rh0 Sm0 2.859205 1_564
Rh0 Sm0 2.859211 1_554
Rh1 Sm0 2.859134 1_554
Rh1 Sm0 2.859176 1_455
Rh1 Sm0 2.859208 1_545
Rh1 Sm0 2.859210 1_555
