# generated using pymatgen
data_MnVPbO5
_symmetry_space_group_name_H-M   'P 1'
_cell_length_a   6.06748600
_cell_length_b   7.82514800
_cell_length_c   9.39136400
_cell_angle_alpha   90.00000000
_cell_angle_beta   90.00000000
_cell_angle_gamma   90.00000000
_symmetry_Int_Tables_number   1
_chemical_formula_structural   MnVPbO5
_chemical_formula_sum   'Mn4 V4 Pb4 O20'
_cell_volume   445.89234538
_cell_formula_units_Z   4
loop_
 _symmetry_equiv_pos_site_id
 _symmetry_equiv_pos_as_xyz
  1  'x, y, z'
loop_
 _atom_site_type_symbol
 _atom_site_label
 _atom_site_symmetry_multiplicity
 _atom_site_fract_x
 _atom_site_fract_y
 _atom_site_fract_z
 _atom_site_occupancy
  Mn  Mn0  1  0.00000000  0.50000000  0.00000000  1
  Mn  Mn1  1  0.50000000  0.00000000  0.50000000  1
  Mn  Mn2  1  0.50000000  0.50000000  0.00000000  1
  Mn  Mn3  1  0.00000000  0.00000000  0.50000000  1
  V  V0  1  0.75000000  0.14608000  0.20049600  1
  V  V1  1  0.75000000  0.64608000  0.29950400  1
  V  V2  1  0.25000000  0.85392000  0.79950400  1
  V  V3  1  0.25000000  0.35392000  0.70049600  1
  Pb  Pb0  1  0.25000000  0.39311200  0.32674200  1
  Pb  Pb1  1  0.25000000  0.89311200  0.17325800  1
  Pb  Pb2  1  0.75000000  0.60688800  0.67325800  1
  Pb  Pb3  1  0.75000000  0.10688800  0.82674200  1
  O  O0  1  0.75000000  0.32396100  0.08374700  1
  O  O1  1  0.75000000  0.82396100  0.41625300  1
  O  O2  1  0.25000000  0.67603900  0.91625300  1
  O  O3  1  0.25000000  0.17603900  0.58374700  1
  O  O4  1  0.75000000  0.97271100  0.09480900  1
  O  O5  1  0.75000000  0.47271100  0.40519100  1
  O  O6  1  0.25000000  0.02728900  0.90519100  1
  O  O7  1  0.25000000  0.52728900  0.59480900  1
  O  O8  1  0.50566100  0.13355400  0.30474800  1
  O  O9  1  0.99433900  0.63355400  0.19525200  1
  O  O10  1  0.00566100  0.86644600  0.69525200  1
  O  O11  1  0.49433900  0.36644600  0.80474800  1
  O  O12  1  0.49433900  0.86644600  0.69525200  1
  O  O13  1  0.00566100  0.36644600  0.80474800  1
  O  O14  1  0.99433900  0.13355400  0.30474800  1
  O  O15  1  0.50566100  0.63355400  0.19525200  1
  O  O16  1  0.25000000  0.37899600  0.07030300  1
  O  O17  1  0.25000000  0.87899600  0.42969700  1
  O  O18  1  0.75000000  0.62100400  0.92969700  1
  O  O19  1  0.75000000  0.12100400  0.57030300  1
loop_
_geom_bond_atom_site_label_1
_geom_bond_atom_site_label_2
_geom_bond_distance
_geom_bond_site_symmetry_2
Mn0 O18 1.906145 1_454
Mn0 O16 1.906145 1_555
Mn0 O13 2.110868 1_554
Mn0 O9 2.110868 1_455
Mn0 O2 2.194783 1_554
Mn0 O0 2.194783 1_455
Mn1 O19 1.906145 1_555
Mn1 O17 1.906145 1_545
Mn1 O8 2.110868 1_555
Mn1 O12 2.110868 1_545
Mn1 O1 2.194783 1_545
Mn1 O3 2.194783 1_555
Mn2 O18 1.906145 1_554
Mn2 O16 1.906145 1_555
Mn2 O11 2.110868 1_554
Mn2 O15 2.110868 1_555
Mn2 O2 2.194783 1_554
Mn2 O0 2.194783 1_555
Mn3 O19 1.906145 1_455
Mn3 O17 1.906145 1_545
Mn3 O14 2.110868 1_455
Mn3 O10 2.110868 1_545
Mn3 O1 2.194783 1_445
Mn3 O3 2.194783 1_555
O0 V0 1.771913 1_555
O1 V1 1.771913 1_555
O2 V2 1.771913 1_555
O3 V3 1.771913 1_555
O4 V0 1.680956 1_565
O4 Pb3 2.727689 1_564
O5 V1 1.680956 1_555
O5 Pb2 2.727689 1_555
O6 V2 1.680956 1_545
O6 Pb1 2.727689 1_546
O7 V3 1.680956 1_555
O7 Pb0 2.727689 1_555
O8 V0 1.779342 1_555
O8 Pb0 2.564026 1_555
O8 Pb1 2.733351 1_545
O9 V1 1.779342 1_555
O9 Pb1 2.564026 1_655
O9 Pb0 2.733351 1_655
O10 V2 1.779342 1_555
O10 Pb2 2.564026 1_455
O10 Pb3 2.733351 1_465
O11 V3 1.779342 1_555
O11 Pb3 2.564026 1_555
O11 Pb2 2.733351 1_555
O12 V2 1.779342 1_555
O12 Pb2 2.564026 1_555
O12 Pb3 2.733351 1_565
O13 V3 1.779342 1_555
O13 Pb3 2.564026 1_455
O13 Pb2 2.733351 1_455
O14 V0 1.779342 1_555
O14 Pb0 2.564026 1_655
O14 Pb1 2.733351 1_645
O15 V1 1.779342 1_555
O15 Pb1 2.564026 1_555
O15 Pb0 2.733351 1_555
O16 Pb0 2.410844 1_555
O17 Pb1 2.410844 1_555
O18 Pb2 2.410844 1_555
O19 Pb3 2.410844 1_555
