# generated using pymatgen
data_DyAl3
_symmetry_space_group_name_H-M   'P 1'
_cell_length_a   6.24297251
_cell_length_b   6.24311527
_cell_length_c   4.58720785
_cell_angle_alpha   90.00000036
_cell_angle_beta   89.99999886
_cell_angle_gamma   120.00074557
_symmetry_Int_Tables_number   1
_chemical_formula_structural   DyAl3
_chemical_formula_sum   'Dy2 Al6'
_cell_volume   154.83479505
_cell_formula_units_Z   2
loop_
 _symmetry_equiv_pos_site_id
 _symmetry_equiv_pos_as_xyz
  1  'x, y, z'
loop_
 _atom_site_type_symbol
 _atom_site_label
 _atom_site_symmetry_multiplicity
 _atom_site_fract_x
 _atom_site_fract_y
 _atom_site_fract_z
 _atom_site_occupancy
  Dy  Dy0  1  0.66667067  0.33333604  0.25000152  1
  Dy  Dy1  1  0.33332990  0.66666430  0.75000085  1
  Al  Al0  1  0.85394126  0.14603968  0.75000140  1
  Al  Al1  1  0.29210929  0.14605477  0.75000158  1
  Al  Al2  1  0.85394393  0.70790360  0.75000145  1
  Al  Al3  1  0.14605911  0.85396031  0.25000182  1
  Al  Al4  1  0.70789111  0.85394568  0.25000163  1
  Al  Al5  1  0.14605673  0.29209661  0.25000176  1
loop_
_geom_bond_atom_site_label_1
_geom_bond_atom_site_label_2
_geom_bond_distance
_geom_bond_site_symmetry_2
Al0 Al2 2.735342 1_545
Al0 Al1 2.735424 1_655
Al0 Al4 2.784717 1_545
Al0 Al4 2.784719 1_546
Al0 Al5 2.784762 1_655
Al0 Al5 2.784765 1_656
Al0 Dy0 3.059717 1_555
Al0 Dy0 3.059717 1_556
Al0 Dy1 3.129391 1_545
Al0 Dy1 3.129486 1_655
Al1 Al2 2.735410 1_445
Al1 Al5 2.784719 1_555
Al1 Al3 2.784719 1_545
Al1 Al5 2.784720 1_556
Al1 Al3 2.784720 1_546
Al1 Dy0 3.059667 1_556
Al1 Dy0 3.059667 1_555
Al1 Dy1 3.129498 1_555
Al1 Dy1 3.129508 1_545
Al2 Al4 2.784720 1_555
Al2 Al4 2.784721 1_556
Al2 Al3 2.784761 1_655
Al2 Al3 2.784764 1_656
Al2 Dy0 3.059719 1_555
Al2 Dy0 3.059720 1_556
Al2 Dy1 3.129399 1_555
Al2 Dy1 3.129480 1_655
Al3 Al5 2.735343 1_565
Al3 Al4 2.735425 1_455
Al3 Dy1 3.059713 1_555
Al3 Dy1 3.059720 1_554
Al3 Dy0 3.129393 1_565
Al3 Dy0 3.129484 1_455
Al4 Al5 2.735411 1_665
Al4 Dy1 3.059663 1_555
Al4 Dy1 3.059669 1_554
Al4 Dy0 3.129499 1_555
Al4 Dy0 3.129506 1_565
Al5 Dy1 3.059717 1_555
Al5 Dy1 3.059723 1_554
Al5 Dy0 3.129398 1_555
Al5 Dy0 3.129481 1_455
