# generated using pymatgen
data_B84O11
_symmetry_space_group_name_H-M   'P 1'
_cell_length_a   11.80692300
_cell_length_b   7.39569947
_cell_length_c   8.79982250
_cell_angle_alpha   112.22429880
_cell_angle_beta   95.81374708
_cell_angle_gamma   91.22252728
_symmetry_Int_Tables_number   1
_chemical_formula_structural   B84O11
_chemical_formula_sum   'B84 O11'
_cell_volume   706.17533229
_cell_formula_units_Z   1
loop_
 _symmetry_equiv_pos_site_id
 _symmetry_equiv_pos_as_xyz
  1  'x, y, z'
loop_
 _atom_site_type_symbol
 _atom_site_label
 _atom_site_symmetry_multiplicity
 _atom_site_fract_x
 _atom_site_fract_y
 _atom_site_fract_z
 _atom_site_occupancy
  B  B0  1  0.85252800  0.95089400  0.09090400  1
  B  B1  1  0.56767200  0.98980900  0.22550000  1
  B  B2  1  0.72899700  0.94929200  0.43045100  1
  B  B3  1  0.83728800  0.89858600  0.84817500  1
  B  B4  1  0.71663500  0.90454100  0.19415500  1
  B  B5  1  0.52622800  0.95076600  0.43659000  1
  B  B6  1  0.06885900  0.98384700  0.23469800  1
  B  B7  1  0.65367700  0.83717300  0.54377600  1
  B  B8  1  0.38161200  0.90405300  0.19717500  1
  B  B9  1  0.94864500  0.75691100  0.47254800  1
  B  B10  1  0.19457800  0.95485200  0.09862300  1
  B  B11  1  0.76485600  0.80893200  0.38660900  1
  B  B12  1  0.50164000  0.87469300  0.05181700  1
  B  B13  1  0.43145200  0.80843500  0.39041200  1
  B  B14  1  0.99588600  0.66311700  0.66147400  1
  B  B15  1  0.04917700  0.90369400  0.85577800  1
  B  B16  1  0.62162000  0.76242000  0.14798500  1
  B  B17  1  0.13573400  0.84439200  0.50539300  1
  B  B18  1  0.29635300  0.80537800  0.70939600  1
  B  B19  1  0.71551200  0.71471300  0.79137400  1
  B  B20  1  0.87174400  0.66585000  0.99858000  1
  B  B21  1  0.00418400  0.86768400  0.06116600  1
  B  B22  1  0.57908800  0.72413000  0.35625300  1
  B  B23  1  0.41740300  0.76371300  0.15081400  1
  B  B24  1  0.97792400  0.61042400  0.41684100  1
  B  B25  1  0.28544700  0.75895600  0.47556200  1
  B  B26  1  0.85975800  0.62130100  0.76436500  1
  B  B27  1  0.67036600  0.66994900  0.00709200  1
  B  B28  1  0.09221200  0.80714700  0.71205500  1
  B  B29  1  0.21136900  0.69471800  0.80665300  1
  B  B30  1  0.79665500  0.55375200  0.11287700  1
  B  B31  1  0.52616800  0.62384500  0.76770900  1
  B  B32  1  0.33316200  0.66476400  0.66607300  1
  B  B33  1  0.90914400  0.52470600  0.95744400  1
  B  B34  1  0.07118900  0.72822600  0.33305900  1
  B  B35  1  0.64645200  0.59211900  0.62523100  1
  B  B36  1  0.57542700  0.52630600  0.96191600  1
  B  B37  1  0.18957100  0.61513400  0.42572300  1
  B  B38  1  0.76470100  0.47867100  0.71771800  1
  B  B39  1  0.28190000  0.55887800  0.08022500  1
  B  B40  1  0.85682700  0.43067000  0.35726100  1
  B  B41  1  0.44154100  0.51849700  0.28357800  1
  B  B42  1  0.14559800  0.57921000  0.63198400  1
  B  B43  1  0.72218100  0.44139700  0.92566200  1
  B  B44  1  0.56134600  0.48168700  0.72293900  1
  B  B45  1  0.43049700  0.47281200  0.04940200  1
  B  B46  1  0.23820000  0.52116100  0.28650500  1
  B  B47  1  0.80890400  0.38719600  0.56893600  1
  B  B48  1  0.35566600  0.40791700  0.38046500  1
  B  B49  1  0.92590200  0.27074600  0.66317300  1
  B  B50  1  0.09575700  0.47425100  0.04926800  1
  B  B51  1  0.66795200  0.33923200  0.33198100  1
  B  B52  1  0.47520500  0.37585300  0.23874600  1
  B  B53  1  0.78694000  0.30716300  0.19015000  1
  B  B54  1  0.21650500  0.44337600  0.90782100  1
  B  B55  1  0.14275400  0.37798300  0.23946500  1
  B  B56  1  0.71258700  0.24296500  0.52128500  1
  B  B57  1  0.90344200  0.19229200  0.28275700  1
  B  B58  1  0.33399900  0.32807800  0.00226000  1
  B  B59  1  0.42059200  0.27601600  0.64522200  1
  B  B60  1  0.01127600  0.38092300  0.56453700  1
  B  B61  1  0.99505100  0.13244300  0.93711000  1
  B  B62  1  0.58201000  0.23607500  0.84829900  1
  B  B63  1  0.28645900  0.28380900  0.21467600  1
  B  B64  1  0.86087100  0.15540500  0.49109700  1
  B  B65  1  0.70128400  0.19605200  0.28771200  1
  B  B66  1  0.13097900  0.33247500  0.00630600  1
  B  B67  1  0.99948900  0.33603100  0.33076200  1
  B  B68  1  0.56759700  0.19215900  0.60819600  1
  B  B69  1  0.37806300  0.23773500  0.85299600  1
  B  B70  1  0.94916800  0.09616200  0.14172200  1
  B  B71  1  0.49762400  0.12532300  0.94707600  1
  B  B72  1  0.80470900  0.04499500  0.89993100  1
  B  B73  1  0.23349700  0.19176200  0.61248000  1
  B  B74  1  0.04618900  0.24007900  0.52055100  1
  B  B75  1  0.61799200  0.09605400  0.80162600  1
  B  B76  1  0.34559200  0.16373700  0.45551900  1
  B  B77  1  0.93021500  0.01628600  0.76387100  1
  B  B78  1  0.28251300  0.09582300  0.80474700  1
  B  B79  1  0.47315000  0.04963300  0.56232600  1
  B  B80  1  0.16150600  0.10097600  0.15049600  1
  B  B81  1  0.43161400  0.01062700  0.77332400  1
  B  B82  1  0.26991600  0.05104600  0.56827700  1
  B  B83  1  0.14680900  0.04905500  0.90790900  1
  O  O0  1  0.13518800  0.96379500  0.44530400  1
  O  O1  1  0.43256100  0.89135200  0.83696800  1
  O  O2  1  0.28165700  0.67788000  0.02065800  1
  O  O3  1  0.00706100  0.74981800  0.12387100  1
  O  O4  1  0.57801900  0.60432700  0.41167500  1
  O  O5  1  0.71761500  0.32167100  0.97754500  1
  O  O6  1  0.42501900  0.39591800  0.59365600  1
  O  O7  1  0.14892700  0.46177900  0.69575300  1
  O  O8  1  0.99329900  0.25075200  0.87482600  1
  O  O9  1  0.56534400  0.10928500  0.16153800  1
  O  O10  1  0.86294000  0.03671000  0.55314500  1
loop_
_geom_bond_atom_site_label_1
_geom_bond_atom_site_label_2
_geom_bond_distance
_geom_bond_site_symmetry_2
B0 B70 1.461860 1_565
B0 B21 1.916647 1_655
B0 B57 1.966595 1_565
B0 B20 1.979335 1_554
B0 B4 2.006215 1_555
B0 B3 2.009602 1_554
B0 B72 2.082439 1_564
B1 O9 1.213446 1_565
B1 B5 2.087387 1_555
B2 O10 1.779640 1_565
B3 B72 1.099113 1_565
B5 B79 1.303704 1_565
B5 B68 1.865515 1_565
B5 B7 2.055630 1_555
B6 O3 1.733278 1_555
B6 O0 1.997206 1_555
B7 O4 1.823305 1_555
B10 B80 1.099854 1_565
B11 B2 1.074504 1_555
B11 O10 2.007985 1_565
B12 O9 1.743010 1_565
B12 O1 2.030515 1_554
B13 B5 1.435061 1_555
B13 B79 1.866351 1_565
B14 B28 1.453735 1_655
B15 B28 1.352816 1_555
B15 B83 1.470335 1_565
B16 B27 1.362381 1_555
B16 B4 1.436198 1_555
B17 O0 1.188373 1_555
B17 B37 1.734193 1_555
B18 B32 1.081033 1_555
B18 O1 1.817001 1_555
B19 B35 1.532521 1_555
B19 B38 1.751699 1_555
B19 B3 1.850174 1_555
B19 B26 1.855348 1_555
B19 B27 2.161031 1_556
B20 B33 1.087142 1_555
B20 O3 1.799075 1_656
B21 O3 1.194495 1_555
B22 O4 1.162201 1_555
B22 B5 1.713584 1_555
B23 B8 1.074990 1_555
B23 O2 1.821611 1_555
B24 B9 1.087234 1_555
B24 B40 1.823802 1_555
B24 B67 1.911826 1_555
B25 B37 1.449244 1_555
B26 B38 1.438551 1_555
B27 B36 1.443101 1_554
B29 O7 1.729746 1_555
B29 O2 2.028762 1_556
B30 O5 1.842662 1_554
B31 B44 1.082372 1_555
B33 O3 1.995891 1_656
B33 O8 2.176879 1_555
B34 O0 1.752918 1_555
B34 B37 1.911289 1_555
B34 O3 1.983066 1_555
B35 O4 2.004105 1_555
B37 B46 1.352397 1_555
B37 B55 1.915363 1_555
B37 B42 2.045581 1_555
B38 B47 1.388408 1_555
B39 O2 1.182429 1_555
B40 B53 1.543899 1_555
B40 B57 1.755272 1_555
B40 B67 1.840620 1_555
B40 B47 2.133541 1_555
B41 B52 1.077669 1_555
B41 O4 1.821329 1_555
B42 O7 1.198483 1_555
B43 O5 1.141995 1_555
B44 O6 1.824012 1_555
B45 B58 1.460230 1_555
B46 B55 1.444152 1_555
B46 B63 1.755526 1_555
B47 B56 1.456081 1_555
B48 B63 1.533658 1_555
B48 O6 2.003932 1_555
B49 O10 1.737097 1_555
B49 O8 2.009260 1_555
B50 B66 1.079760 1_555
B51 B65 1.079227 1_555
B51 O9 2.055200 1_555
B51 O4 2.159331 1_555
B53 O5 2.006754 1_554
B54 O2 1.752477 1_556
B54 O7 2.008188 1_555
B55 B63 1.849862 1_555
B55 B67 2.011076 1_455
B57 B70 1.349765 1_555
B57 B67 1.451320 1_555
B58 B69 1.389877 1_554
B58 B63 2.141006 1_555
B59 O6 1.141141 1_555
B59 B79 1.712456 1_555
B60 B74 1.072570 1_555
B60 O7 1.840727 1_555
B60 B67 1.945493 1_455
B61 O8 1.194849 1_555
B62 B75 1.074210 1_555
B62 O5 1.816847 1_555
B63 B80 1.868763 1_555
B64 O10 1.195871 1_555
B65 O9 1.810178 1_555
B66 O8 1.842418 1_454
B67 B70 1.946732 1_555
B67 B74 2.079313 1_655
B68 B79 1.433290 1_555
B69 B78 1.438704 1_555
B71 O1 1.745663 1_545
B71 O9 2.020564 1_556
B73 B82 1.079815 1_555
B73 O0 2.012041 1_545
B73 O7 2.155972 1_555
B76 O6 1.851218 1_555
B76 B79 2.056988 1_555
B77 O8 1.741201 1_555
B77 O10 2.002740 1_555
B79 B81 2.086827 1_555
B81 O1 1.210290 1_545
B82 O0 1.788030 1_545
