# generated using pymatgen
data_BaTlHg2
_symmetry_space_group_name_H-M   'P 1'
_cell_length_a   5.57579554
_cell_length_b   5.57579629
_cell_length_c   5.57579777
_cell_angle_alpha   59.99998238
_cell_angle_beta   59.99992512
_cell_angle_gamma   59.99991631
_symmetry_Int_Tables_number   1
_chemical_formula_structural   BaTlHg2
_chemical_formula_sum   'Ba1 Tl1 Hg2'
_cell_volume   122.57592427
_cell_formula_units_Z   1
loop_
 _symmetry_equiv_pos_site_id
 _symmetry_equiv_pos_as_xyz
  1  'x, y, z'
loop_
 _atom_site_type_symbol
 _atom_site_label
 _atom_site_symmetry_multiplicity
 _atom_site_fract_x
 _atom_site_fract_y
 _atom_site_fract_z
 _atom_site_occupancy
  Ba  Ba0  1  0.25000100  0.25000100  0.25000100  1
  Tl  Tl0  1  0.75000000  0.75000000  0.75000000  1
  Hg  Hg0  1  0.00000000  -0.00000000  0.00000000  1
  Hg  Hg1  1  0.50000000  0.50000000  0.50000000  1
loop_
_geom_bond_atom_site_label_1
_geom_bond_atom_site_label_2
_geom_bond_distance
_geom_bond_site_symmetry_2
Ba0 Hg1 3.414452 1_555
Ba0 Hg0 3.414455 1_655
Ba0 Hg0 3.414457 1_565
Ba0 Hg0 3.414459 1_556
Ba0 Hg1 3.414464 1_455
Ba0 Hg1 3.414467 1_545
Ba0 Hg1 3.414468 1_554
Ba0 Hg0 3.414479 1_555
Hg0 Tl0 3.414460 1_544
Hg0 Tl0 3.414462 1_454
Hg0 Tl0 3.414463 1_445
Hg0 Tl0 3.414466 1_444
Hg1 Tl0 3.414460 1_455
Hg1 Tl0 3.414462 1_545
Hg1 Tl0 3.414463 1_554
Hg1 Tl0 3.414466 1_555
