# generated using pymatgen
data_SrLi2Pb
_symmetry_space_group_name_H-M   'P 1'
_cell_length_a   5.11115223
_cell_length_b   5.11115223
_cell_length_c   5.11115223
_cell_angle_alpha   60.00000000
_cell_angle_beta   60.00000000
_cell_angle_gamma   60.00000000
_symmetry_Int_Tables_number   1
_chemical_formula_structural   SrLi2Pb
_chemical_formula_sum   'Sr1 Li2 Pb1'
_cell_volume   94.41509838
_cell_formula_units_Z   1
loop_
 _symmetry_equiv_pos_site_id
 _symmetry_equiv_pos_as_xyz
  1  'x, y, z'
loop_
 _atom_site_type_symbol
 _atom_site_label
 _atom_site_symmetry_multiplicity
 _atom_site_fract_x
 _atom_site_fract_y
 _atom_site_fract_z
 _atom_site_occupancy
  Sr  Sr0  1  -0.00000000  -0.00000000  -0.00000000  1
  Li  Li0  1  0.25000000  0.25000000  0.25000000  1
  Li  Li1  1  0.75000000  0.75000000  0.75000000  1
  Pb  Pb0  1  0.50000000  0.50000000  0.50000000  1
loop_
_geom_bond_atom_site_label_1
_geom_bond_atom_site_label_2
_geom_bond_distance
_geom_bond_site_symmetry_2
Li0 Pb0 3.129929 1_455
Li0 Pb0 3.129929 1_545
Li0 Sr0 3.129929 1_655
Li0 Sr0 3.129929 1_565
Li0 Pb0 3.129929 1_555
Li0 Sr0 3.129929 1_555
Li0 Sr0 3.129929 1_556
Li0 Pb0 3.129929 1_554
Li1 Sr0 3.129929 1_566
Li1 Sr0 3.129929 1_656
Li1 Pb0 3.129929 1_655
Li1 Pb0 3.129929 1_565
Li1 Sr0 3.129929 1_665
Li1 Sr0 3.129929 1_666
Li1 Pb0 3.129929 1_555
Li1 Pb0 3.129929 1_556
