# generated using pymatgen
data_CuBiPtS3
_symmetry_space_group_name_H-M   'P 1'
_cell_length_a   4.94969567
_cell_length_b   7.73935662
_cell_length_c   12.62473278
_cell_angle_alpha   90.00000000
_cell_angle_beta   90.00000000
_cell_angle_gamma   90.00000000
_symmetry_Int_Tables_number   1
_chemical_formula_structural   CuBiPtS3
_chemical_formula_sum   'Cu4 Bi4 Pt4 S12'
_cell_volume   483.62144536
_cell_formula_units_Z   4
loop_
 _symmetry_equiv_pos_site_id
 _symmetry_equiv_pos_as_xyz
  1  'x, y, z'
loop_
 _atom_site_type_symbol
 _atom_site_label
 _atom_site_symmetry_multiplicity
 _atom_site_fract_x
 _atom_site_fract_y
 _atom_site_fract_z
 _atom_site_occupancy
  Cu  Cu0  1  0.47343180  0.88513835  0.44118998  1
  Cu  Cu1  1  0.97343180  0.61486165  0.55881002  1
  Cu  Cu2  1  0.52656820  0.38513835  0.05881002  1
  Cu  Cu3  1  0.02656820  0.11486165  0.94118998  1
  Bi  Bi0  1  0.40644774  0.88382069  0.13161662  1
  Bi  Bi1  1  0.90644774  0.61617931  0.86838338  1
  Bi  Bi2  1  0.59355226  0.38382069  0.36838338  1
  Bi  Bi3  1  0.09355226  0.11617931  0.63161662  1
  Pt  Pt0  1  0.00507113  0.63559857  0.24923462  1
  Pt  Pt1  1  0.50507113  0.86440143  0.75076538  1
  Pt  Pt2  1  0.99492887  0.13559857  0.25076538  1
  Pt  Pt3  1  0.49492887  0.36440143  0.74923462  1
  S  S0  1  0.76066212  0.63068589  0.08865097  1
  S  S1  1  0.26066212  0.86931411  0.91134903  1
  S  S2  1  0.23933788  0.13068589  0.41134903  1
  S  S3  1  0.73933788  0.36931411  0.58865097  1
  S  S4  1  0.76074614  0.88398569  0.29700266  1
  S  S5  1  0.26074614  0.61601431  0.70299734  1
  S  S6  1  0.23925386  0.38398569  0.20299734  1
  S  S7  1  0.73925386  0.11601431  0.79700266  1
  S  S8  1  0.23413866  0.63866397  0.41236922  1
  S  S9  1  0.73413866  0.86133603  0.58763078  1
  S  S10  1  0.76586134  0.13866397  0.08763078  1
  S  S11  1  0.26586134  0.36133603  0.91236922  1
loop_
_geom_bond_atom_site_label_1
_geom_bond_atom_site_label_2
_geom_bond_distance
_geom_bond_site_symmetry_2
Cu0 S2 2.257420 1_565
Cu0 S9 2.262099 1_555
Cu0 S8 2.274647 1_555
Cu0 S4 2.309998 1_555
Cu1 S3 2.257420 1_555
Cu1 S8 2.262099 1_655
Cu1 S9 2.274647 1_555
Cu1 S5 2.309998 1_655
Cu2 S0 2.257420 1_555
Cu2 S11 2.262099 1_554
Cu2 S10 2.274647 1_555
Cu2 S6 2.309998 1_555
Cu3 S1 2.257420 1_545
Cu3 S10 2.262099 1_456
Cu3 S11 2.274647 1_555
Cu3 S7 2.309998 1_455
Bi0 S0 2.684437 1_555
Bi0 S10 2.713526 1_565
Bi0 S4 2.726703 1_555
Bi0 S1 2.875110 1_554
Bi0 Pt0 3.137261 1_555
Bi0 Pt2 3.195098 1_465
Bi1 S1 2.684437 1_655
Bi1 S11 2.713526 1_655
Bi1 S5 2.726703 1_655
Bi1 S0 2.875110 1_556
Bi1 Pt1 3.137261 1_555
Bi1 Pt3 3.195098 1_555
Bi2 S2 2.684437 1_555
Bi2 S8 2.713526 1_555
Bi2 S6 2.726703 1_555
Bi2 S3 2.875110 1_555
Bi2 Pt2 3.137261 1_555
Bi2 Pt0 3.195098 1_655
Bi3 S3 2.684437 1_455
Bi3 S9 2.713526 1_445
Bi3 S7 2.726703 1_455
Bi3 S2 2.875110 1_555
Bi3 Pt3 3.137261 1_555
Bi3 Pt1 3.195098 1_545
Pt0 S6 2.340170 1_555
Pt0 S4 2.349814 1_455
Pt0 S8 2.351120 1_555
Pt0 S0 2.361142 1_455
Pt1 S7 2.340170 1_565
Pt1 S5 2.349814 1_555
Pt1 S9 2.351120 1_555
Pt1 S1 2.361142 1_555
Pt2 S4 2.340170 1_545
Pt2 S6 2.349814 1_655
Pt2 S10 2.351120 1_555
Pt2 S2 2.361142 1_655
Pt3 S5 2.340170 1_555
Pt3 S7 2.349814 1_555
Pt3 S11 2.351120 1_555
Pt3 S3 2.361142 1_555
