# generated using pymatgen
data_PmInCu2
_symmetry_space_group_name_H-M   'P 1'
_cell_length_a   4.73566359
_cell_length_b   4.73855820
_cell_length_c   4.73613879
_cell_angle_alpha   60.04530488
_cell_angle_beta   59.97809667
_cell_angle_gamma   59.95782166
_symmetry_Int_Tables_number   1
_chemical_formula_structural   PmInCu2
_chemical_formula_sum   'Pm1 In1 Cu2'
_cell_volume   75.14053716
_cell_formula_units_Z   1
loop_
 _symmetry_equiv_pos_site_id
 _symmetry_equiv_pos_as_xyz
  1  'x, y, z'
loop_
 _atom_site_type_symbol
 _atom_site_label
 _atom_site_symmetry_multiplicity
 _atom_site_fract_x
 _atom_site_fract_y
 _atom_site_fract_z
 _atom_site_occupancy
  Pm  Pm0  1  0.75004210  0.75000342  0.74997469  1
  In  In0  1  0.24998115  0.24997367  0.25003579  1
  Cu  Cu0  1  0.50132131  0.49988280  0.49965117  1
  Cu  Cu1  1  0.99865444  0.00013910  0.00033735  1
loop_
_geom_bond_atom_site_label_1
_geom_bond_atom_site_label_2
_geom_bond_distance
_geom_bond_site_symmetry_2
In0 Pm0 3.346937 1_455
In0 Pm0 3.347146 1_544
In0 Pm0 3.349421 1_545
In0 Pm0 3.349423 1_454
In0 Pm0 3.351000 1_445
In0 Pm0 3.351607 1_554
Cu0 In0 2.893074 1_655
Cu0 Pm0 2.897587 1_555
Cu0 Pm0 2.899858 1_554
Cu0 Pm0 2.901537 1_545
Cu0 In0 2.902341 1_565
Cu0 In0 2.902594 1_556
Cu0 Pm0 2.903199 1_455
Cu0 In0 2.904163 1_555
Cu1 In0 2.893126 1_555
Cu1 Pm0 2.897378 1_544
Cu1 Pm0 2.899707 1_545
Cu1 Pm0 2.901480 1_554
Cu1 In0 2.902272 1_654
Cu1 In0 2.902630 1_645
Cu1 Pm0 2.903618 1_644
Cu1 In0 2.904144 1_655
