# generated using pymatgen
data_Ca2CdPb
_symmetry_space_group_name_H-M   'P 1'
_cell_length_a   5.47540799
_cell_length_b   5.47540799
_cell_length_c   5.47540799
_cell_angle_alpha   60.00000000
_cell_angle_beta   60.00000000
_cell_angle_gamma   60.00000000
_symmetry_Int_Tables_number   1
_chemical_formula_structural   Ca2CdPb
_chemical_formula_sum   'Ca2 Cd1 Pb1'
_cell_volume   116.07386841
_cell_formula_units_Z   1
loop_
 _symmetry_equiv_pos_site_id
 _symmetry_equiv_pos_as_xyz
  1  'x, y, z'
loop_
 _atom_site_type_symbol
 _atom_site_label
 _atom_site_symmetry_multiplicity
 _atom_site_fract_x
 _atom_site_fract_y
 _atom_site_fract_z
 _atom_site_occupancy
  Ca  Ca0  1  0.25000000  0.25000000  0.25000000  1
  Ca  Ca1  1  0.75000000  0.75000000  0.75000000  1
  Cd  Cd0  1  0.50000000  0.50000000  0.50000000  1
  Pb  Pb0  1  0.00000000  0.00000000  -0.00000000  1
loop_
_geom_bond_atom_site_label_1
_geom_bond_atom_site_label_2
_geom_bond_distance
_geom_bond_site_symmetry_2
Ca0 Cd0 3.352989 1_554
Ca0 Cd0 3.352989 1_455
Ca0 Pb0 3.352989 1_555
Ca0 Pb0 3.352989 1_556
Ca0 Cd0 3.352989 1_545
Ca0 Pb0 3.352989 1_655
Ca0 Pb0 3.352989 1_565
Ca0 Cd0 3.352989 1_555
Ca1 Cd0 3.352989 1_556
Ca1 Cd0 3.352989 1_565
Ca1 Pb0 3.352989 1_566
Ca1 Cd0 3.352989 1_655
Ca1 Pb0 3.352989 1_665
Ca1 Pb0 3.352989 1_656
Ca1 Pb0 3.352989 1_666
Ca1 Cd0 3.352989 1_555
