# generated using pymatgen
data_CdPd3
_symmetry_space_group_name_H-M   'P 1'
_cell_length_a   4.88490389
_cell_length_b   4.88490389
_cell_length_c   4.88490389
_cell_angle_alpha   131.55747773
_cell_angle_beta   131.55747773
_cell_angle_gamma   70.92884710
_symmetry_Int_Tables_number   1
_chemical_formula_structural   CdPd3
_chemical_formula_sum   'Cd1 Pd3'
_cell_volume   63.91867826
_cell_formula_units_Z   1
loop_
 _symmetry_equiv_pos_site_id
 _symmetry_equiv_pos_as_xyz
  1  'x, y, z'
loop_
 _atom_site_type_symbol
 _atom_site_label
 _atom_site_symmetry_multiplicity
 _atom_site_fract_x
 _atom_site_fract_y
 _atom_site_fract_z
 _atom_site_occupancy
  Cd  Cd0  1  -0.00000000  -0.00000000  -0.00000000  1
  Pd  Pd0  1  0.75000200  0.25000000  0.50000200  1
  Pd  Pd1  1  0.25000000  0.75000200  0.50000200  1
  Pd  Pd2  1  0.50000000  0.50000000  -0.00000000  1
loop_
_geom_bond_atom_site_label_1
_geom_bond_atom_site_label_2
_geom_bond_distance
_geom_bond_site_symmetry_2
Cd0 Pd1 2.823778 1_544
Cd0 Pd0 2.823778 1_454
Cd0 Pd1 2.823784 1_444
Cd0 Pd0 2.823784 1_455
Cd0 Pd1 2.823784 1_545
Cd0 Pd0 2.823784 1_444
Cd0 Pd0 2.823790 1_555
Cd0 Pd1 2.823790 1_555
Cd0 Pd2 2.834208 1_545
Cd0 Pd2 2.834208 1_444
Cd0 Pd2 2.834208 1_455
Cd0 Pd2 2.834208 1_556
Pd0 Pd2 2.823778 1_656
Pd0 Pd2 2.823784 1_556
Pd0 Pd2 2.823784 1_545
Pd0 Pd2 2.823790 1_555
Pd0 Pd1 2.834197 1_645
Pd0 Pd1 2.834208 1_656
Pd0 Pd1 2.834208 1_544
Pd0 Pd1 2.834220 1_555
Pd1 Pd2 2.823778 1_566
Pd1 Pd2 2.823784 1_556
Pd1 Pd2 2.823784 1_455
Pd1 Pd2 2.823790 1_555
