# generated using pymatgen
data_Rb2PtF6
_symmetry_space_group_name_H-M   'P 1'
_cell_length_a   5.92502177
_cell_length_b   5.92502195
_cell_length_c   4.76580280
_cell_angle_alpha   90.00000000
_cell_angle_beta   90.00000000
_cell_angle_gamma   119.99999336
_symmetry_Int_Tables_number   1
_chemical_formula_structural   Rb2PtF6
_chemical_formula_sum   'Rb2 Pt1 F6'
_cell_volume   144.89274586
_cell_formula_units_Z   1
loop_
 _symmetry_equiv_pos_site_id
 _symmetry_equiv_pos_as_xyz
  1  'x, y, z'
loop_
 _atom_site_type_symbol
 _atom_site_label
 _atom_site_symmetry_multiplicity
 _atom_site_fract_x
 _atom_site_fract_y
 _atom_site_fract_z
 _atom_site_occupancy
  Rb  Rb0  1  0.33333300  0.66666700  0.71097632  1
  Rb  Rb1  1  0.66666700  0.33333300  0.28902368  1
  Pt  Pt0  1  -0.00000000  0.00000000  0.00000000  1
  F  F0  1  0.83977076  0.16022924  0.77721968  1
  F  F1  1  0.83977076  0.67954152  0.77721968  1
  F  F2  1  0.32045848  0.16022924  0.77721968  1
  F  F3  1  0.16022924  0.83977076  0.22278032  1
  F  F4  1  0.16022924  0.32045848  0.22278032  1
  F  F5  1  0.67954152  0.83977076  0.22278032  1
loop_
_geom_bond_atom_site_label_1
_geom_bond_atom_site_label_2
_geom_bond_distance
_geom_bond_site_symmetry_2
F0 Pt0 1.957327 1_656
F0 Rb1 2.927305 1_555
F0 Rb0 2.980018 1_545
F0 Rb0 2.980018 1_655
F0 Rb1 3.017502 1_556
F1 Pt0 1.957327 1_666
F1 Rb1 2.927308 1_555
F1 Rb0 2.980014 1_655
F1 Rb0 2.980020 1_555
F1 Rb1 3.017506 1_556
F2 Pt0 1.957327 1_556
F2 Rb1 2.927308 1_555
F2 Rb0 2.980014 1_545
F2 Rb0 2.980020 1_555
F2 Rb1 3.017505 1_556
F3 Pt0 1.957327 1_565
F3 Rb0 2.927305 1_555
F3 Rb1 2.980018 1_565
F3 Rb1 2.980018 1_455
F3 Rb0 3.017502 1_554
F4 Pt0 1.957327 1_555
F4 Rb0 2.927308 1_555
F4 Rb1 2.980014 1_455
F4 Rb1 2.980020 1_555
F4 Rb0 3.017506 1_554
F5 Pt0 1.957327 1_665
F5 Rb0 2.927308 1_555
F5 Rb1 2.980014 1_565
F5 Rb1 2.980020 1_555
F5 Rb0 3.017505 1_554
