# generated using pymatgen
data_Lu2NiRu
_symmetry_space_group_name_H-M   'P 1'
_cell_length_a   4.64731426
_cell_length_b   4.64727523
_cell_length_c   4.64722312
_cell_angle_alpha   60.00112956
_cell_angle_beta   60.00240836
_cell_angle_gamma   60.00144599
_symmetry_Int_Tables_number   1
_chemical_formula_structural   Lu2NiRu
_chemical_formula_sum   'Lu2 Ni1 Ru1'
_cell_volume   70.97335228
_cell_formula_units_Z   1
loop_
 _symmetry_equiv_pos_site_id
 _symmetry_equiv_pos_as_xyz
  1  'x, y, z'
loop_
 _atom_site_type_symbol
 _atom_site_label
 _atom_site_symmetry_multiplicity
 _atom_site_fract_x
 _atom_site_fract_y
 _atom_site_fract_z
 _atom_site_occupancy
  Lu  Lu0  1  0.99999722  -0.00000025  0.99999607  1
  Lu  Lu1  1  0.50000077  0.50000063  0.50000176  1
  Ni  Ni0  1  0.25000250  0.24999798  0.24999999  1
  Ru  Ru0  1  0.74999752  0.75000165  0.75000218  1
loop_
_geom_bond_atom_site_label_1
_geom_bond_atom_site_label_2
_geom_bond_distance
_geom_bond_site_symmetry_2
Lu0 Ru0 2.845793 1_545
Lu0 Ni0 2.845853 1_656
Lu0 Ni0 2.845882 1_655
Lu0 Ni0 2.845908 1_646
Lu0 Ru0 2.845909 1_555
Lu0 Ru0 2.845920 1_546
Lu0 Ni0 2.845942 1_556
Lu0 Ru0 2.845963 1_645
Lu1 Ru0 2.845818 1_555
Lu1 Ni0 2.845835 1_555
Lu1 Ni0 2.845890 1_556
Lu1 Ni0 2.845891 1_565
Lu1 Ru0 2.845895 1_554
Lu1 Ru0 2.845898 1_545
Lu1 Ni0 2.845969 1_655
Lu1 Ru0 2.845974 1_455
