# generated using pymatgen
data_Sr3InNiO6
_symmetry_space_group_name_H-M   'P 1'
_cell_length_a   6.77022937
_cell_length_b   6.77169713
_cell_length_c   6.77157285
_cell_angle_alpha   92.13242016
_cell_angle_beta   92.13909652
_cell_angle_gamma   92.13772830
_symmetry_Int_Tables_number   1
_chemical_formula_structural   Sr3InNiO6
_chemical_formula_sum   'Sr6 In2 Ni2 O12'
_cell_volume   309.78519509
_cell_formula_units_Z   2
loop_
 _symmetry_equiv_pos_site_id
 _symmetry_equiv_pos_as_xyz
  1  'x, y, z'
loop_
 _atom_site_type_symbol
 _atom_site_label
 _atom_site_symmetry_multiplicity
 _atom_site_fract_x
 _atom_site_fract_y
 _atom_site_fract_z
 _atom_site_occupancy
  Sr  Sr0  1  0.62126000  0.87876300  0.25002100  1
  Sr  Sr1  1  0.87873600  0.24997400  0.62123700  1
  Sr  Sr2  1  0.24999600  0.62125700  0.87873900  1
  Sr  Sr3  1  0.12126200  0.75002600  0.37876500  1
  Sr  Sr4  1  0.75000400  0.37874200  0.12125900  1
  Sr  Sr5  1  0.37874100  0.12123600  0.74997700  1
  In  In0  1  0.24999500  0.24998700  0.24999800  1
  In  In1  1  0.75000600  0.75001300  0.75000300  1
  Ni  Ni0  1  0.50000000  0.50000000  0.50000000  1
  Ni  Ni1  1  0.99999900  0.00000000  0.99999900  1
  O  O0  1  0.53994800  0.21147500  0.41094500  1
  O  O1  1  0.21156600  0.41100000  0.53995100  1
  O  O2  1  0.41097300  0.53996700  0.21151900  1
  O  O3  1  0.03995300  0.91096100  0.71149900  1
  O  O4  1  0.91097500  0.71152600  0.03996700  1
  O  O5  1  0.71158400  0.03995900  0.91101200  1
  O  O6  1  0.46005300  0.78852400  0.58905600  1
  O  O7  1  0.78843200  0.58900000  0.46004900  1
  O  O8  1  0.58902900  0.46003600  0.78848000  1
  O  O9  1  0.96004800  0.08903900  0.28850300  1
  O  O10  1  0.08902300  0.28847500  0.96003400  1
  O  O11  1  0.28841600  0.96004000  0.08898700  1
loop_
_geom_bond_atom_site_label_1
_geom_bond_atom_site_label_2
_geom_bond_distance
_geom_bond_site_symmetry_2
In0 O9 2.238078 1_455
In0 O0 2.238081 1_555
In0 O10 2.238424 1_554
In0 O2 2.238582 1_555
In0 O11 2.238626 1_545
In0 O1 2.238657 1_555
In1 O3 2.238077 1_655
In1 O6 2.238080 1_555
In1 O4 2.238413 1_556
In1 O8 2.238559 1_555
In1 O5 2.238615 1_565
In1 O7 2.238659 1_555
Ni0 O7 2.052661 1_555
Ni0 O1 2.052674 1_555
Ni0 O8 2.053332 1_555
Ni0 O2 2.053339 1_555
Ni0 O6 2.053789 1_555
Ni0 O0 2.053795 1_555
Ni1 O5 2.052517 1_555
Ni1 O11 2.052533 1_646
Ni1 O4 2.053338 1_546
Ni1 O10 2.053341 1_655
Ni1 O3 2.053587 1_645
Ni1 O9 2.053609 1_556
O0 Sr0 2.553672 1_545
O0 Sr1 2.653419 1_555
O0 Sr5 2.660240 1_555
O0 Sr4 2.721550 1_555
O1 Sr1 2.554107 1_455
O1 Sr2 2.653797 1_555
O1 Sr3 2.660283 1_555
O1 Sr5 2.721593 1_555
O2 Sr2 2.553926 1_554
O2 Sr0 2.653759 1_555
O2 Sr4 2.660081 1_555
O2 Sr3 2.721616 1_555
O3 Sr3 2.553805 1_555
O3 Sr5 2.653392 1_565
O3 Sr1 2.660200 1_465
O3 Sr2 2.721498 1_555
O4 Sr4 2.553999 1_555
O4 Sr3 2.653709 1_655
O4 Sr2 2.660048 1_654
O4 Sr0 2.721592 1_555
O5 Sr5 2.554152 1_555
O5 Sr4 2.653756 1_556
O5 Sr0 2.660234 1_546
O5 Sr1 2.721564 1_555
O6 Sr5 2.553664 1_565
O6 Sr3 2.653433 1_555
O6 Sr0 2.660258 1_555
O6 Sr2 2.721539 1_555
O7 Sr3 2.554103 1_655
O7 Sr4 2.653811 1_555
O7 Sr1 2.660289 1_555
O7 Sr0 2.721587 1_555
O8 Sr4 2.553922 1_556
O8 Sr5 2.653786 1_555
O8 Sr2 2.660079 1_555
O8 Sr1 2.721598 1_555
O9 Sr1 2.553810 1_555
O9 Sr0 2.653396 1_545
O9 Sr3 2.660191 1_645
O9 Sr4 2.721508 1_555
O10 Sr2 2.553998 1_555
O10 Sr1 2.653703 1_455
O10 Sr4 2.660024 1_456
O10 Sr5 2.721624 1_555
O11 Sr0 2.554156 1_555
O11 Sr2 2.653760 1_554
O11 Sr5 2.660241 1_564
O11 Sr3 2.721582 1_555
