# generated using pymatgen
data_LiCu2C2O7
_symmetry_space_group_name_H-M   'P 1'
_cell_length_a   4.81447900
_cell_length_b   4.83438703
_cell_length_c   15.24270471
_cell_angle_alpha   89.65741786
_cell_angle_beta   89.62444952
_cell_angle_gamma   60.27491846
_symmetry_Int_Tables_number   1
_chemical_formula_structural   LiCu2C2O7
_chemical_formula_sum   'Li2 Cu4 C4 O14'
_cell_volume   308.08344536
_cell_formula_units_Z   2
loop_
 _symmetry_equiv_pos_site_id
 _symmetry_equiv_pos_as_xyz
  1  'x, y, z'
loop_
 _atom_site_type_symbol
 _atom_site_label
 _atom_site_symmetry_multiplicity
 _atom_site_fract_x
 _atom_site_fract_y
 _atom_site_fract_z
 _atom_site_occupancy
  Li  Li0  1  0.00000000  0.00000000  0.50000000  1
  Li  Li1  1  0.00000000  0.00000000  0.00000000  1
  Cu  Cu0  1  0.33075500  0.33429100  0.86488200  1
  Cu  Cu1  1  0.33198200  0.33796200  0.63460500  1
  Cu  Cu2  1  0.66801800  0.66203800  0.36539500  1
  Cu  Cu3  1  0.66924500  0.66570900  0.13511800  1
  C  C0  1  0.66412900  0.66965500  0.58869300  1
  C  C1  1  0.66546100  0.66945500  0.91055000  1
  C  C2  1  0.33587100  0.33034500  0.41130700  1
  C  C3  1  0.33453900  0.33054500  0.08945000  1
  O  O0  1  0.38828700  0.92568500  0.91279000  1
  O  O1  1  0.07777800  0.60938600  0.41253800  1
  O  O2  1  0.38608300  0.68864000  0.58581200  1
  O  O3  1  0.31634400  0.60616500  0.09101700  1
  O  O4  1  0.68489700  0.92677200  0.58692600  1
  O  O5  1  0.07390300  0.31294600  0.08554800  1
  O  O6  1  0.67706800  0.67904200  0.25119500  1
  O  O7  1  0.34766400  0.30887700  0.74973000  1
  O  O8  1  0.92609700  0.68705400  0.91445200  1
  O  O9  1  0.31510300  0.07322800  0.41307400  1
  O  O10  1  0.68365600  0.39383500  0.90898300  1
  O  O11  1  0.61391700  0.31136000  0.41418800  1
  O  O12  1  0.92222200  0.39061400  0.58746200  1
  O  O13  1  0.61171300  0.07431500  0.08721000  1
loop_
_geom_bond_atom_site_label_1
_geom_bond_atom_site_label_2
_geom_bond_distance
_geom_bond_site_symmetry_2
Li0 O2 2.159956 1_545
Li0 O11 2.159956 1_455
Li0 O4 2.164025 1_445
Li0 O9 2.164025 1_555
Li0 O1 2.192220 1_545
Li0 O12 2.192220 1_455
Li1 O8 2.163176 1_444
Li1 O5 2.163176 1_555
Li1 O0 2.167468 1_544
Li1 O13 2.167468 1_455
Li1 O3 2.233797 1_545
Li1 O10 2.233797 1_454
Cu0 O7 1.758788 1_555
Cu0 O10 1.980847 1_555
Cu0 O0 1.988677 1_545
Cu0 O8 1.994017 1_455
Cu1 O7 1.758724 1_555
Cu1 O2 1.978726 1_555
Cu1 O12 1.997860 1_455
Cu1 O4 2.004573 1_545
Cu2 O6 1.743444 1_555
Cu2 O11 1.978726 1_555
Cu2 O1 1.997860 1_655
Cu2 O9 2.004573 1_565
Cu3 O6 1.772213 1_555
Cu3 O3 1.980847 1_555
Cu3 O13 1.988677 1_565
Cu3 O5 1.994017 1_655
C0 O4 1.295606 1_555
C0 O2 1.296615 1_555
C0 O12 1.304553 1_555
C1 O10 1.291619 1_555
C1 O0 1.294989 1_555
C1 O8 1.300876 1_555
C2 O9 1.295606 1_555
C2 O11 1.296615 1_555
C2 O1 1.304553 1_555
C3 O3 1.291619 1_555
C3 O13 1.294989 1_555
C3 O5 1.300876 1_555
