# generated using pymatgen
data_TeH14C3S3(N3F2)2
_symmetry_space_group_name_H-M   'P 1'
_cell_length_a   20.94692300
_cell_length_b   6.23826100
_cell_length_c   11.53130583
_cell_angle_alpha   84.21325502
_cell_angle_beta   90.00000000
_cell_angle_gamma   90.00000000
_symmetry_Int_Tables_number   1
_chemical_formula_structural   TeH14C3S3(N3F2)2
_chemical_formula_sum   'Te4 H56 C12 S12 N24 F16'
_cell_volume   1499.14441610
_cell_formula_units_Z   4
loop_
 _symmetry_equiv_pos_site_id
 _symmetry_equiv_pos_as_xyz
  1  'x, y, z'
loop_
 _atom_site_type_symbol
 _atom_site_label
 _atom_site_symmetry_multiplicity
 _atom_site_fract_x
 _atom_site_fract_y
 _atom_site_fract_z
 _atom_site_occupancy
  Te  Te0  1  0.09328600  0.87401100  0.95620200  1
  Te  Te1  1  0.40671400  0.87401100  0.45620200  1
  Te  Te2  1  0.59328600  0.12598900  0.54379800  1
  Te  Te3  1  0.90671400  0.12598900  0.04379800  1
  H  H0  1  0.97644900  0.96593400  0.61304700  1
  H  H1  1  0.85115400  0.97289100  0.50530900  1
  H  H2  1  0.52355100  0.96593400  0.11304700  1
  H  H3  1  0.64884600  0.97289100  0.00530900  1
  H  H4  1  0.49657800  0.76278500  0.93093400  1
  H  H5  1  0.64674500  0.80728700  0.71624500  1
  H  H6  1  0.30126600  0.80512600  0.78833200  1
  H  H7  1  0.13156000  0.75732900  0.54117800  1
  H  H8  1  0.87722900  0.89698300  0.72958800  1
  H  H9  1  0.65039100  0.72131600  0.86622200  1
  H  H10  1  0.00342200  0.76278500  0.43093400  1
  H  H11  1  0.85325500  0.80728700  0.21624500  1
  H  H12  1  0.19873400  0.80512600  0.28833200  1
  H  H13  1  0.81135900  0.69678800  0.82291900  1
  H  H14  1  0.36844000  0.75732900  0.04117800  1
  H  H15  1  0.62277100  0.89698300  0.22958800  1
  H  H16  1  0.84960900  0.72131600  0.36622200  1
  H  H17  1  0.83661700  0.60136900  0.98287400  1
  H  H18  1  0.68864100  0.69678800  0.32291900  1
  H  H19  1  0.47624200  0.62592700  0.63632400  1
  H  H20  1  0.66338300  0.60136900  0.48287400  1
  H  H21  1  0.31177100  0.53243300  0.83196700  1
  H  H22  1  0.91717000  0.59889700  0.54218700  1
  H  H23  1  0.02375800  0.62592700  0.13632400  1
  H  H24  1  0.48945100  0.51549200  0.78147600  1
  H  H25  1  0.18822900  0.53243300  0.33196700  1
  H  H26  1  0.98945100  0.48450800  0.71852400  1
  H  H27  1  0.41717000  0.40110300  0.95781300  1
  H  H28  1  0.58283000  0.59889700  0.04218700  1
  H  H29  1  0.01054900  0.51549200  0.28147600  1
  H  H30  1  0.81177100  0.46756700  0.66803300  1
  H  H31  1  0.51054900  0.48450800  0.21852400  1
  H  H32  1  0.97624200  0.37407300  0.86367600  1
  H  H33  1  0.08283000  0.40110300  0.45781300  1
  H  H34  1  0.68822900  0.46756700  0.16803300  1
  H  H35  1  0.33661700  0.39863100  0.51712600  1
  H  H36  1  0.52375800  0.37407300  0.36367600  1
  H  H37  1  0.31135900  0.30321200  0.67708100  1
  H  H38  1  0.16338300  0.39863100  0.01712600  1
  H  H39  1  0.15039100  0.27868400  0.63377800  1
  H  H40  1  0.37722900  0.10301700  0.77041200  1
  H  H41  1  0.63156000  0.24267100  0.95882200  1
  H  H42  1  0.18864100  0.30321200  0.17708100  1
  H  H43  1  0.80126600  0.19487400  0.71166800  1
  H  H44  1  0.14674500  0.19271300  0.78375500  1
  H  H45  1  0.99657800  0.23721500  0.56906600  1
  H  H46  1  0.34960900  0.27868400  0.13377800  1
  H  H47  1  0.12277100  0.10301700  0.27041200  1
  H  H48  1  0.86844000  0.24267100  0.45882200  1
  H  H49  1  0.69873400  0.19487400  0.21166800  1
  H  H50  1  0.35325500  0.19271300  0.28375500  1
  H  H51  1  0.50342200  0.23721500  0.06906600  1
  H  H52  1  0.35115400  0.02710900  0.99469100  1
  H  H53  1  0.47644900  0.03406600  0.88695300  1
  H  H54  1  0.14884600  0.02710900  0.49469100  1
  H  H55  1  0.02355100  0.03406600  0.38695300  1
  C  C0  1  0.13878700  0.95436600  0.67232100  1
  C  C1  1  0.36121300  0.95436600  0.17232100  1
  C  C2  1  0.47411500  0.84230600  0.75599600  1
  C  C3  1  0.02588500  0.84230600  0.25599600  1
  C  C4  1  0.30824800  0.61845300  0.65304300  1
  C  C5  1  0.19175200  0.61845300  0.15304300  1
  C  C6  1  0.80824800  0.38154700  0.84695700  1
  C  C7  1  0.69175200  0.38154700  0.34695700  1
  C  C8  1  0.97411500  0.15769400  0.74400400  1
  C  C9  1  0.52588500  0.15769400  0.24400400  1
  C  C10  1  0.63878700  0.04563400  0.82767900  1
  C  C11  1  0.86121300  0.04563400  0.32767900  1
  S  S0  1  0.95093800  0.93844600  0.84079200  1
  S  S1  1  0.54906200  0.93844600  0.34079200  1
  S  S2  1  0.30269700  0.85835500  0.55369900  1
  S  S3  1  0.19730300  0.85835500  0.05369900  1
  S  S4  1  0.12991500  0.72665800  0.77271500  1
  S  S5  1  0.37008500  0.72665800  0.27271500  1
  S  S6  1  0.62991500  0.27334200  0.72728500  1
  S  S7  1  0.87008500  0.27334200  0.22728500  1
  S  S8  1  0.80269700  0.14164500  0.94630100  1
  S  S9  1  0.69730300  0.14164500  0.44630100  1
  S  S10  1  0.45093800  0.06155400  0.65920800  1
  S  S11  1  0.04906200  0.06155400  0.15920800  1
  N  N0  1  0.48206700  0.87865400  0.86674900  1
  N  N1  1  0.13758000  0.91250700  0.56121100  1
  N  N2  1  0.64876900  0.84560300  0.80062800  1
  N  N3  1  0.01793300  0.87865400  0.36674900  1
  N  N4  1  0.36242000  0.91250700  0.06121100  1
  N  N5  1  0.85123100  0.84560300  0.30062800  1
  N  N6  1  0.30431000  0.65217500  0.76606100  1
  N  N7  1  0.48268200  0.64726800  0.72204300  1
  N  N8  1  0.81277200  0.56971800  0.88627300  1
  N  N9  1  0.19569000  0.65217500  0.26606100  1
  N  N10  1  0.01731800  0.64726800  0.22204300  1
  N  N11  1  0.68722800  0.56971800  0.38627300  1
  N  N12  1  0.31277200  0.43028200  0.61372700  1
  N  N13  1  0.98268200  0.35273200  0.77795700  1
  N  N14  1  0.80431000  0.34782500  0.73393900  1
  N  N15  1  0.18722800  0.43028200  0.11372700  1
  N  N16  1  0.51731800  0.35273200  0.27795700  1
  N  N17  1  0.69569000  0.34782500  0.23393900  1
  N  N18  1  0.14876900  0.15439700  0.69937200  1
  N  N19  1  0.63758000  0.08749300  0.93878900  1
  N  N20  1  0.98206700  0.12134600  0.63325100  1
  N  N21  1  0.35123100  0.15439700  0.19937200  1
  N  N22  1  0.86242000  0.08749300  0.43878900  1
  N  N23  1  0.51793300  0.12134600  0.13325100  1
  F  F0  1  0.83939600  0.89648500  0.67784600  1
  F  F1  1  0.66060400  0.89648500  0.17784600  1
  F  F2  1  0.63682800  0.63664600  0.56853200  1
  F  F3  1  0.96521100  0.67357500  0.57591700  1
  F  F4  1  0.86317200  0.63664600  0.06853200  1
  F  F5  1  0.53478900  0.67357500  0.07591700  1
  F  F6  1  0.37161400  0.46874300  0.99094400  1
  F  F7  1  0.87161400  0.53125700  0.50905600  1
  F  F8  1  0.12838600  0.46874300  0.49094400  1
  F  F9  1  0.62838600  0.53125700  0.00905600  1
  F  F10  1  0.46521100  0.32642500  0.92408300  1
  F  F11  1  0.13682800  0.36335400  0.93146800  1
  F  F12  1  0.03478900  0.32642500  0.42408300  1
  F  F13  1  0.36317200  0.36335400  0.43146800  1
  F  F14  1  0.33939600  0.10351500  0.82215400  1
  F  F15  1  0.16060400  0.10351500  0.32215400  1
loop_
_geom_bond_atom_site_label_1
_geom_bond_atom_site_label_2
_geom_bond_distance
_geom_bond_site_symmetry_2
H0 N20 1.026453 1_565
H1 N22 1.022056 1_565
H2 N23 1.026453 1_565
H3 N19 1.022056 1_564
H4 N0 1.027027 1_555
H5 N2 1.025987 1_555
H6 N6 1.014806 1_555
H7 N1 1.025409 1_555
H8 S0 2.040102 1_555
H9 N2 1.027695 1_555
H10 N3 1.027027 1_555
H11 N5 1.025987 1_555
H12 N9 1.014806 1_555
H13 N8 1.022827 1_555
H14 N4 1.025409 1_555
H15 S1 2.040102 1_555
H16 N5 1.027695 1_555
H17 N8 1.254460 1_555
H18 N11 1.022827 1_555
H19 N7 1.019556 1_555
H20 N11 1.254460 1_555
H21 N6 1.022499 1_555
H23 N10 1.019556 1_555
H24 N7 1.025650 1_555
H25 N9 1.022499 1_555
H26 N13 1.025650 1_555
H29 N10 1.025650 1_555
H30 N14 1.022499 1_555
H31 N16 1.025650 1_555
H32 N13 1.019556 1_555
H34 N17 1.022499 1_555
H35 N12 1.254460 1_555
H36 N16 1.019556 1_555
H37 N12 1.022827 1_555
H38 N15 1.254460 1_555
H39 N18 1.027695 1_555
H40 S10 2.040102 1_555
H41 N19 1.025409 1_555
H42 N15 1.022827 1_555
H43 N14 1.014806 1_555
H44 N18 1.025987 1_555
H45 N20 1.027027 1_555
H46 N21 1.027695 1_555
H47 S11 2.040102 1_555
H48 N22 1.025409 1_555
H49 N17 1.014806 1_555
H50 N21 1.025987 1_555
H51 N23 1.027027 1_555
H52 N4 1.022056 1_546
H53 N0 1.026453 1_545
H54 N1 1.022056 1_545
H55 N3 1.026453 1_545
C0 N18 1.332904 1_565
C0 N1 1.333371 1_555
C0 S4 1.749560 1_555
C1 N21 1.332904 1_565
C1 N4 1.333371 1_555
C1 S5 1.749560 1_555
C2 N7 1.327368 1_555
C2 N0 1.329890 1_555
C2 S10 1.744766 1_565
C3 N10 1.327368 1_555
C3 N3 1.329890 1_555
C3 S11 1.744766 1_565
C4 N12 1.303757 1_555
C4 N6 1.343425 1_555
C4 S2 1.794394 1_555
C5 N15 1.303757 1_555
C5 N9 1.343425 1_555
C5 S3 1.794394 1_555
C6 N8 1.303757 1_555
C6 N14 1.343425 1_555
C6 S8 1.794394 1_555
C7 N11 1.303757 1_555
C7 N17 1.343425 1_555
C7 S9 1.794394 1_555
C8 N13 1.327368 1_555
C8 N20 1.329890 1_555
C8 S0 1.744766 1_545
C9 N16 1.327368 1_555
C9 N23 1.329890 1_555
C9 S1 1.744766 1_545
C10 N2 1.332904 1_545
C10 N19 1.333371 1_555
C10 S6 1.749560 1_555
C11 N5 1.332904 1_545
C11 N22 1.333371 1_555
C11 S7 1.749560 1_555
S0 Te3 2.873865 1_566
S1 Te2 2.873865 1_565
S2 Te1 2.449225 1_555
S3 Te0 2.449225 1_554
S4 Te0 2.510513 1_555
S5 Te1 2.510513 1_555
S6 Te2 2.510513 1_555
S7 Te3 2.510513 1_555
S8 Te3 2.449225 1_556
S9 Te2 2.449225 1_555
S10 Te1 2.873865 1_545
S11 Te0 2.873865 1_544
F0 H8 0.992175 1_555
F1 H15 0.992175 1_555
F2 H20 1.173592 1_555
F3 H22 1.190592 1_555
F4 H17 1.173592 1_554
F5 H28 1.190592 1_555
F6 H27 1.125664 1_555
F7 H22 1.125664 1_555
F8 H33 1.125664 1_555
F9 H28 1.125664 1_555
F10 H27 1.190592 1_555
F11 H38 1.173592 1_556
F12 H33 1.190592 1_555
F13 H35 1.173592 1_555
F14 H40 0.992175 1_555
F15 H47 0.992175 1_555
