# generated using pymatgen
data_Li2Mn3(BO3)3
_symmetry_space_group_name_H-M   'P 1'
_cell_length_a   12.71407800
_cell_length_b   8.26885100
_cell_length_c   8.28046824
_cell_angle_alpha   60.19065508
_cell_angle_beta   90.00000000
_cell_angle_gamma   90.00000000
_symmetry_Int_Tables_number   1
_chemical_formula_structural   Li2Mn3(BO3)3
_chemical_formula_sum   'Li8 Mn12 B12 O36'
_cell_volume   755.34736031
_cell_formula_units_Z   4
loop_
 _symmetry_equiv_pos_site_id
 _symmetry_equiv_pos_as_xyz
  1  'x, y, z'
loop_
 _atom_site_type_symbol
 _atom_site_label
 _atom_site_symmetry_multiplicity
 _atom_site_fract_x
 _atom_site_fract_y
 _atom_site_fract_z
 _atom_site_occupancy
  Li  Li0  1  0.50000000  0.70301300  0.27798700  1
  Li  Li1  1  0.00000000  0.69994600  0.27720100  1
  Li  Li2  1  0.50000000  0.27928200  0.02186200  1
  Li  Li3  1  0.74844900  0.27978500  0.01821900  1
  Li  Li4  1  0.25155100  0.27978500  0.01821900  1
  Li  Li5  1  0.75121100  0.02161700  0.70026700  1
  Li  Li6  1  0.00000000  0.01705000  0.70101500  1
  Li  Li7  1  0.24878900  0.02161700  0.70026700  1
  Mn  Mn0  1  0.37515300  0.98083800  0.38267800  1
  Mn  Mn1  1  0.62484700  0.98083800  0.38267800  1
  Mn  Mn2  1  0.87446800  0.98873300  0.36022900  1
  Mn  Mn3  1  0.12553200  0.98873300  0.36022900  1
  Mn  Mn4  1  0.37443900  0.37061300  0.63145200  1
  Mn  Mn5  1  0.62556100  0.37061300  0.63145200  1
  Mn  Mn6  1  0.87464000  0.37945700  0.63910300  1
  Mn  Mn7  1  0.12536000  0.37945700  0.63910300  1
  Mn  Mn8  1  0.87517100  0.63046400  0.99673100  1
  Mn  Mn9  1  0.37595600  0.64973200  0.98992200  1
  Mn  Mn10  1  0.62404400  0.64973200  0.98992200  1
  Mn  Mn11  1  0.12482900  0.63046400  0.99673100  1
  B  B0  1  0.87461900  0.00057700  0.99168600  1
  B  B1  1  0.37402500  0.00623800  0.00246400  1
  B  B2  1  0.62597500  0.00623800  0.00246400  1
  B  B3  1  0.12538100  0.00057700  0.99168600  1
  B  B4  1  0.25007900  0.32740900  0.33768800  1
  B  B5  1  0.00000000  0.33481400  0.33672000  1
  B  B6  1  0.74992100  0.32740900  0.33768800  1
  B  B7  1  0.50000000  0.33229100  0.32440000  1
  B  B8  1  0.75026400  0.66939000  0.67355400  1
  B  B9  1  0.50000000  0.65772300  0.66887000  1
  B  B10  1  0.00000000  0.66956300  0.66032500  1
  B  B11  1  0.24973600  0.66939000  0.67355400  1
  O  O0  1  0.61561100  0.81602800  0.10245800  1
  O  O1  1  0.11459700  0.80958400  0.09354600  1
  O  O2  1  0.38438900  0.81602800  0.10245800  1
  O  O3  1  0.88540300  0.80958400  0.09354600  1
  O  O4  1  0.50000000  0.77654000  0.47387400  1
  O  O5  1  0.00000000  0.78471300  0.46687100  1
  O  O6  1  0.74440400  0.78498100  0.48391700  1
  O  O7  1  0.25559600  0.78498100  0.48391700  1
  O  O8  1  0.50000000  0.44953100  0.13375700  1
  O  O9  1  0.25079100  0.44137100  0.14670700  1
  O  O10  1  0.74920900  0.44137100  0.14670700  1
  O  O11  1  0.00000000  0.45902000  0.14703700  1
  O  O12  1  0.86136600  0.10056400  0.08174200  1
  O  O13  1  0.37763000  0.11176000  0.09191800  1
  O  O14  1  0.62237000  0.11176000  0.09191800  1
  O  O15  1  0.13863400  0.10056400  0.08174200  1
  O  O16  1  0.24678400  0.39507800  0.46013700  1
  O  O17  1  0.00000000  0.41178000  0.45300800  1
  O  O18  1  0.75321600  0.39507800  0.46013700  1
  O  O19  1  0.50000000  0.40940500  0.43943400  1
  O  O20  1  0.50000000  0.73148600  0.78318200  1
  O  O21  1  0.75377700  0.74516000  0.79171700  1
  O  O22  1  0.24622300  0.74516000  0.79171700  1
  O  O23  1  0.00000000  0.74407000  0.77735700  1
  O  O24  1  0.50000000  0.46431100  0.74054000  1
  O  O25  1  0.75267800  0.47694700  0.74853700  1
  O  O26  1  0.00000000  0.47788300  0.73369300  1
  O  O27  1  0.24732200  0.47694700  0.74853700  1
  O  O28  1  0.50000000  0.14096300  0.39289900  1
  O  O29  1  0.00000000  0.14454900  0.41023600  1
  O  O30  1  0.25255100  0.13431700  0.41386400  1
  O  O31  1  0.74744900  0.13431700  0.41386400  1
  O  O32  1  0.35990400  0.09543900  0.81208400  1
  O  O33  1  0.64009600  0.09543900  0.81208400  1
  O  O34  1  0.87727300  0.08989200  0.79746800  1
  O  O35  1  0.12272700  0.08989200  0.79746800  1
loop_
_geom_bond_atom_site_label_1
_geom_bond_atom_site_label_2
_geom_bond_distance
_geom_bond_site_symmetry_2
Li0 O0 1.948330 1_555
Li0 O2 1.948330 1_555
Li0 O4 1.995276 1_555
Li0 O19 2.110570 1_555
Li1 O3 1.971465 1_455
Li1 O1 1.971465 1_555
Li1 O5 2.013067 1_555
Li1 O17 2.085236 1_555
Li2 O13 1.969007 1_555
Li2 O14 1.969007 1_555
Li2 O8 2.033988 1_555
Li2 O24 2.055191 1_554
Li3 O12 1.938787 1_555
Li3 O25 2.006955 1_554
Li3 O14 2.007319 1_555
Li3 O10 2.081026 1_555
Li4 O15 1.938787 1_555
Li4 O27 2.006955 1_554
Li4 O13 2.007319 1_555
Li4 O9 2.081026 1_555
Li5 O33 1.946181 1_555
Li5 O34 1.996787 1_555
Li5 O21 2.019686 1_545
Li5 O31 2.073085 1_555
Li6 O35 1.978302 1_555
Li6 O34 1.978302 1_455
Li6 O23 2.018918 1_545
Li6 O29 2.094065 1_555
Li7 O32 1.946181 1_555
Li7 O35 1.996787 1_555
Li7 O22 2.019686 1_545
Li7 O30 2.073085 1_555
Mn0 O7 2.070347 1_555
Mn0 O13 2.092423 1_565
Mn0 O28 2.095531 1_565
Mn0 O30 2.105443 1_565
Mn0 O4 2.162236 1_555
Mn1 O6 2.070347 1_555
Mn1 O14 2.092423 1_565
Mn1 O28 2.095531 1_565
Mn1 O31 2.105443 1_565
Mn1 O4 2.162236 1_555
Mn2 O12 2.020001 1_565
Mn2 O5 2.166092 1_655
Mn2 O31 2.187684 1_565
Mn2 O6 2.215049 1_555
Mn2 O29 2.215674 1_665
Mn3 O15 2.020001 1_565
Mn3 O5 2.166092 1_555
Mn3 O30 2.187684 1_565
Mn3 O7 2.215049 1_555
Mn3 O29 2.215674 1_565
Mn4 O32 2.016175 1_555
Mn4 O16 2.098124 1_555
Mn4 O24 2.158822 1_555
Mn4 O19 2.161569 1_555
Mn4 O27 2.274341 1_555
Mn5 O33 2.016175 1_555
Mn5 O18 2.098124 1_555
Mn5 O24 2.158822 1_555
Mn5 O19 2.161569 1_555
Mn5 O25 2.274341 1_555
Mn6 O34 2.081351 1_555
Mn6 O18 2.098992 1_555
Mn6 O26 2.109494 1_655
Mn6 O17 2.139348 1_655
Mn6 O25 2.145162 1_555
Mn7 O35 2.081351 1_555
Mn7 O16 2.098992 1_555
Mn7 O26 2.109494 1_555
Mn7 O17 2.139348 1_555
Mn7 O27 2.145162 1_555
Mn8 O3 2.008440 1_556
Mn8 O11 2.079271 1_656
Mn8 O21 2.136058 1_555
Mn8 O10 2.149707 1_556
Mn8 O23 2.237065 1_655
Mn9 O2 2.011132 1_556
Mn9 O8 2.164710 1_556
Mn9 O20 2.173540 1_555
Mn9 O22 2.179296 1_555
Mn9 O9 2.227649 1_556
Mn10 O0 2.011132 1_556
Mn10 O8 2.164710 1_556
Mn10 O20 2.173540 1_555
Mn10 O21 2.179296 1_555
Mn10 O10 2.227649 1_556
Mn11 O1 2.008440 1_556
Mn11 O11 2.079271 1_556
Mn11 O22 2.136058 1_555
Mn11 O9 2.149707 1_556
Mn11 O23 2.237065 1_555
B0 O12 1.371498 1_556
B0 O3 1.378406 1_546
B0 O34 1.397161 1_555
B1 O2 1.371832 1_545
B1 O32 1.380350 1_554
B1 O13 1.398102 1_555
B2 O0 1.371832 1_545
B2 O33 1.380350 1_554
B2 O14 1.398102 1_555
B3 O15 1.371498 1_556
B3 O1 1.378406 1_546
B3 O35 1.397161 1_555
B4 O16 1.380934 1_555
B4 O9 1.381057 1_555
B4 O30 1.395291 1_555
B5 O29 1.376067 1_555
B5 O11 1.384907 1_555
B5 O17 1.393388 1_555
B6 O18 1.380934 1_555
B6 O10 1.381057 1_555
B6 O31 1.395291 1_555
B7 O8 1.382133 1_555
B7 O19 1.384842 1_555
B7 O28 1.390132 1_555
B8 O6 1.375746 1_555
B8 O25 1.391515 1_555
B8 O21 1.400493 1_555
B9 O20 1.357203 1_555
B9 O24 1.402247 1_555
B9 O4 1.412505 1_555
B10 O23 1.382849 1_555
B10 O26 1.387037 1_555
B10 O5 1.398643 1_555
B11 O7 1.375746 1_555
B11 O27 1.391515 1_555
B11 O22 1.400493 1_555
