# generated using pymatgen
data_Li3Mn3(PO4)4
_symmetry_space_group_name_H-M   'P 1'
_cell_length_a   4.99588700
_cell_length_b   8.62533000
_cell_length_c   16.02838633
_cell_angle_alpha   63.78955109
_cell_angle_beta   90.00000000
_cell_angle_gamma   90.00000000
_symmetry_Int_Tables_number   1
_chemical_formula_structural   Li3Mn3(PO4)4
_chemical_formula_sum   'Li6 Mn6 P8 O32'
_cell_volume   619.66456991
_cell_formula_units_Z   2
loop_
 _symmetry_equiv_pos_site_id
 _symmetry_equiv_pos_as_xyz
  1  'x, y, z'
loop_
 _atom_site_type_symbol
 _atom_site_label
 _atom_site_symmetry_multiplicity
 _atom_site_fract_x
 _atom_site_fract_y
 _atom_site_fract_z
 _atom_site_occupancy
  Li  Li0  1  0.00000000  0.50000000  0.50000000  1
  Li  Li1  1  0.05927700  0.19337100  0.75564800  1
  Li  Li2  1  0.55927700  0.80662900  0.74435200  1
  Li  Li3  1  0.44072300  0.19337100  0.25564800  1
  Li  Li4  1  0.50000000  0.50000000  0.00000000  1
  Li  Li5  1  0.94072300  0.80662900  0.24435200  1
  Mn  Mn0  1  0.01019900  0.68991000  0.62384700  1
  Mn  Mn1  1  0.50000000  0.00000000  0.50000000  1
  Mn  Mn2  1  0.51019900  0.31009000  0.87615300  1
  Mn  Mn3  1  0.00000000  0.00000000  0.00000000  1
  Mn  Mn4  1  0.48980100  0.68991000  0.12384700  1
  Mn  Mn5  1  0.98980100  0.31009000  0.37615300  1
  P  P0  1  0.49663200  0.46958000  0.65103300  1
  P  P1  1  0.99663200  0.53042000  0.84896700  1
  P  P2  1  0.99723500  0.07596600  0.59640800  1
  P  P3  1  0.49723500  0.92403400  0.90359200  1
  P  P4  1  0.50276500  0.07596600  0.09640800  1
  P  P5  1  0.00276500  0.92403400  0.40359200  1
  P  P6  1  0.00336800  0.46958000  0.15103300  1
  P  P7  1  0.50336800  0.53042000  0.34896700  1
  O  O0  1  0.40867400  0.65431300  0.64060800  1
  O  O1  1  0.93176800  0.66636300  0.74465800  1
  O  O2  1  0.33958200  0.41089600  0.59052600  1
  O  O3  1  0.80604200  0.47905700  0.63774300  1
  O  O4  1  0.94910400  0.24915600  0.50863600  1
  O  O5  1  0.30604200  0.52094300  0.86225700  1
  O  O6  1  0.83958200  0.58910400  0.90947400  1
  O  O7  1  0.43176800  0.33363700  0.75534200  1
  O  O8  1  0.28931700  0.00551400  0.59919800  1
  O  O9  1  0.90867400  0.34568700  0.85939200  1
  O  O10  1  0.81294700  0.93534500  0.58150100  1
  O  O11  1  0.92172600  0.08070200  0.68538800  1
  O  O12  1  0.55089600  0.24915600  0.00863600  1
  O  O13  1  0.42172600  0.91929800  0.81461200  1
  O  O14  1  0.31294700  0.06465500  0.91849900  1
  O  O15  1  0.78931700  0.99448600  0.90080200  1
  O  O16  1  0.21068300  0.00551400  0.09919800  1
  O  O17  1  0.68705300  0.93534500  0.08150100  1
  O  O18  1  0.57827400  0.08070200  0.18538800  1
  O  O19  1  0.44910400  0.75084400  0.99136400  1
  O  O20  1  0.07827400  0.91929800  0.31461200  1
  O  O21  1  0.18705300  0.06465500  0.41849900  1
  O  O22  1  0.09132600  0.65431300  0.14060800  1
  O  O23  1  0.71068300  0.99448600  0.40080200  1
  O  O24  1  0.56823200  0.66636300  0.24465800  1
  O  O25  1  0.16041800  0.41089600  0.09052600  1
  O  O26  1  0.69395800  0.47905700  0.13774300  1
  O  O27  1  0.05089600  0.75084400  0.49136400  1
  O  O28  1  0.19395800  0.52094300  0.36225700  1
  O  O29  1  0.66041800  0.58910400  0.40947400  1
  O  O30  1  0.06823200  0.33363700  0.25534200  1
  O  O31  1  0.59132600  0.34568700  0.35939200  1
loop_
_geom_bond_atom_site_label_1
_geom_bond_atom_site_label_2
_geom_bond_distance
_geom_bond_site_symmetry_2
Li0 O27 2.121434 1_555
Li0 O4 2.121434 1_455
Li0 O29 2.142225 1_455
Li0 O2 2.142225 1_555
Li0 O3 2.343855 1_455
Li0 O28 2.343855 1_555
Li1 O11 1.910914 1_455
Li1 O7 2.218452 1_555
Li2 O13 1.910914 1_555
Li2 O1 2.218452 1_555
Li3 O18 1.910914 1_555
Li3 O30 2.218452 1_555
Li4 O19 2.121434 1_554
Li4 O12 2.121434 1_555
Li4 O6 2.142225 1_554
Li4 O25 2.142225 1_555
Li4 O26 2.343855 1_555
Li4 O5 2.343855 1_554
Li5 O20 1.910914 1_655
Li5 O24 2.218452 1_555
Mn0 O1 1.896588 1_455
Mn0 O27 1.959826 1_555
Mn0 O3 2.009892 1_455
Mn0 O0 2.014103 1_555
Mn0 O10 2.155011 1_455
Mn1 O23 1.924829 1_545
Mn1 O8 1.924829 1_555
Mn1 O10 1.954060 1_545
Mn1 O21 1.954060 1_555
Mn2 O7 1.896588 1_555
Mn2 O12 1.959826 1_556
Mn2 O5 2.009892 1_555
Mn2 O9 2.014103 1_555
Mn2 O14 2.155011 1_555
Mn3 O16 1.924829 1_555
Mn3 O15 1.924829 1_444
Mn3 O17 1.954060 1_445
Mn3 O14 1.954060 1_554
Mn4 O24 1.896588 1_555
Mn4 O19 1.959826 1_554
Mn4 O26 2.009892 1_555
Mn4 O22 2.014103 1_555
Mn4 O17 2.155011 1_555
Mn5 O30 1.896588 1_655
Mn5 O4 1.959826 1_555
Mn5 O28 2.009892 1_655
Mn5 O31 2.014103 1_555
Mn5 O21 2.155011 1_655
O0 P0 1.588931 1_555
O1 P1 1.594824 1_555
O2 P0 1.498669 1_555
O3 P0 1.557596 1_555
O4 P2 1.553103 1_555
O5 P1 1.557596 1_455
O6 P1 1.498669 1_555
O7 P0 1.594824 1_555
O8 P2 1.573706 1_455
O9 P1 1.588931 1_555
O10 P2 1.622305 1_565
O11 P2 1.493151 1_555
O12 P4 1.553103 1_555
O13 P3 1.493151 1_555
O14 P3 1.622305 1_545
O15 P3 1.573706 1_555
O16 P4 1.573706 1_555
O17 P4 1.622305 1_565
O18 P4 1.493151 1_555
O19 P3 1.553103 1_555
O20 P5 1.493151 1_555
O21 P5 1.622305 1_545
O22 P6 1.588931 1_555
O23 P5 1.573706 1_655
O24 P7 1.594824 1_555
O25 P6 1.498669 1_555
O26 P6 1.557596 1_655
O27 P5 1.553103 1_555
O28 P7 1.557596 1_555
O29 P7 1.498669 1_555
O30 P6 1.594824 1_555
O31 P7 1.588931 1_555
