# generated using pymatgen
data_Ni(SO4)2
_symmetry_space_group_name_H-M   'P 1'
_cell_length_a   8.71726400
_cell_length_b   8.86744700
_cell_length_c   13.19809500
_cell_angle_alpha   90.00000000
_cell_angle_beta   90.00000000
_cell_angle_gamma   90.00000000
_symmetry_Int_Tables_number   1
_chemical_formula_structural   Ni(SO4)2
_chemical_formula_sum   'Ni8 S16 O64'
_cell_volume   1020.21111360
_cell_formula_units_Z   8
loop_
 _symmetry_equiv_pos_site_id
 _symmetry_equiv_pos_as_xyz
  1  'x, y, z'
loop_
 _atom_site_type_symbol
 _atom_site_label
 _atom_site_symmetry_multiplicity
 _atom_site_fract_x
 _atom_site_fract_y
 _atom_site_fract_z
 _atom_site_occupancy
  Ni  Ni0  1  0.89631400  0.85948700  0.12372900  1
  Ni  Ni1  1  0.60368600  0.85948700  0.62372900  1
  Ni  Ni2  1  0.39631400  0.64051300  0.12372900  1
  Ni  Ni3  1  0.10368600  0.64051300  0.62372900  1
  Ni  Ni4  1  0.89631400  0.35948700  0.37627100  1
  Ni  Ni5  1  0.60368600  0.35948700  0.87627100  1
  Ni  Ni6  1  0.39631400  0.14051300  0.37627100  1
  Ni  Ni7  1  0.10368600  0.14051300  0.87627100  1
  S  S0  1  0.56569300  0.92632800  0.22158300  1
  S  S1  1  0.93430700  0.92632800  0.72158300  1
  S  S2  1  0.31116400  0.84225600  0.48988300  1
  S  S3  1  0.18883600  0.84225600  0.98988300  1
  S  S4  1  0.81116400  0.65774400  0.48988300  1
  S  S5  1  0.68883600  0.65774400  0.98988300  1
  S  S6  1  0.06569300  0.57367200  0.22158300  1
  S  S7  1  0.43430700  0.57367200  0.72158300  1
  S  S8  1  0.56569300  0.42632800  0.27841700  1
  S  S9  1  0.93430700  0.42632800  0.77841700  1
  S  S10  1  0.31116400  0.34225600  0.01011700  1
  S  S11  1  0.18883600  0.34225600  0.51011700  1
  S  S12  1  0.81116400  0.15774400  0.01011700  1
  S  S13  1  0.68883600  0.15774400  0.51011700  1
  S  S14  1  0.43430700  0.07367200  0.77841700  1
  S  S15  1  0.06569300  0.07367200  0.27841700  1
  O  O0  1  0.29477000  0.00997800  0.47595800  1
  O  O1  1  0.20523000  0.00997800  0.97595800  1
  O  O2  1  0.00470300  0.97934800  0.35592700  1
  O  O3  1  0.49529700  0.97934800  0.85592700  1
  O  O4  1  0.53017800  0.97752600  0.32987900  1
  O  O5  1  0.96982200  0.97752600  0.82987900  1
  O  O6  1  0.73965300  0.91943300  0.22480100  1
  O  O7  1  0.76034700  0.91943300  0.72480100  1
  O  O8  1  0.27825900  0.81466400  0.08604200  1
  O  O9  1  0.22174100  0.81466400  0.58604200  1
  O  O10  1  0.02361900  0.80056500  0.01393300  1
  O  O11  1  0.47638100  0.80056500  0.51393300  1
  O  O12  1  0.99474900  0.76537400  0.72081200  1
  O  O13  1  0.50525100  0.76537400  0.22081200  1
  O  O14  1  0.26750700  0.75556000  0.40354800  1
  O  O15  1  0.23249300  0.75556000  0.90354800  1
  O  O16  1  0.76750700  0.74444000  0.40354800  1
  O  O17  1  0.73249300  0.74444000  0.90354800  1
  O  O18  1  0.00525100  0.73462600  0.22081200  1
  O  O19  1  0.49474900  0.73462600  0.72081200  1
  O  O20  1  0.97638100  0.69943500  0.51393300  1
  O  O21  1  0.52361900  0.69943500  0.01393300  1
  O  O22  1  0.77825900  0.68533600  0.08604200  1
  O  O23  1  0.72174100  0.68533600  0.58604200  1
  O  O24  1  0.23965300  0.58056700  0.22480100  1
  O  O25  1  0.26034700  0.58056700  0.72480100  1
  O  O26  1  0.46982200  0.52247400  0.82987900  1
  O  O27  1  0.03017800  0.52247400  0.32987900  1
  O  O28  1  0.50470300  0.52065200  0.35592700  1
  O  O29  1  0.99529700  0.52065200  0.85592700  1
  O  O30  1  0.79477000  0.49002200  0.47595800  1
  O  O31  1  0.70523000  0.49002200  0.97595800  1
  O  O32  1  0.29477000  0.50997800  0.02404200  1
  O  O33  1  0.20523000  0.50997800  0.52404200  1
  O  O34  1  0.49529700  0.47934800  0.64407300  1
  O  O35  1  0.00470300  0.47934800  0.14407300  1
  O  O36  1  0.53017800  0.47752600  0.17012100  1
  O  O37  1  0.96982200  0.47752600  0.67012100  1
  O  O38  1  0.73965300  0.41943300  0.27519900  1
  O  O39  1  0.76034700  0.41943300  0.77519900  1
  O  O40  1  0.27825900  0.31466400  0.41395800  1
  O  O41  1  0.22174100  0.31466400  0.91395800  1
  O  O42  1  0.47638100  0.30056500  0.98606700  1
  O  O43  1  0.02361900  0.30056500  0.48606700  1
  O  O44  1  0.50525100  0.26537400  0.27918800  1
  O  O45  1  0.99474900  0.26537400  0.77918800  1
  O  O46  1  0.26750700  0.25556000  0.09645200  1
  O  O47  1  0.23249300  0.25556000  0.59645200  1
  O  O48  1  0.76750700  0.24444000  0.09645200  1
  O  O49  1  0.73249300  0.24444000  0.59645200  1
  O  O50  1  0.49474900  0.23462600  0.77918800  1
  O  O51  1  0.00525100  0.23462600  0.27918800  1
  O  O52  1  0.52361900  0.19943500  0.48606700  1
  O  O53  1  0.97638100  0.19943500  0.98606700  1
  O  O54  1  0.77825900  0.18533600  0.41395800  1
  O  O55  1  0.72174100  0.18533600  0.91395800  1
  O  O56  1  0.26034700  0.08056700  0.77519900  1
  O  O57  1  0.23965300  0.08056700  0.27519900  1
  O  O58  1  0.46982200  0.02247400  0.67012100  1
  O  O59  1  0.03017800  0.02247400  0.17012100  1
  O  O60  1  0.99529700  0.02065200  0.64407300  1
  O  O61  1  0.50470300  0.02065200  0.14407300  1
  O  O62  1  0.79477000  0.99002200  0.02404200  1
  O  O63  1  0.70523000  0.99002200  0.52404200  1
loop_
_geom_bond_atom_site_label_1
_geom_bond_atom_site_label_2
_geom_bond_distance
_geom_bond_site_symmetry_2
Ni0 O10 1.898533 1_655
Ni0 O22 1.921268 1_555
Ni0 O18 1.941506 1_655
Ni0 O59 1.955874 1_665
Ni0 O62 1.963262 1_555
Ni0 O6 1.981672 1_555
Ni1 O11 1.898533 1_555
Ni1 O23 1.921268 1_555
Ni1 O19 1.941506 1_555
Ni1 O58 1.955874 1_565
Ni1 O63 1.963262 1_555
Ni1 O7 1.981672 1_555
Ni2 O21 1.898533 1_555
Ni2 O8 1.921268 1_555
Ni2 O13 1.941506 1_555
Ni2 O36 1.955874 1_555
Ni2 O32 1.963262 1_555
Ni2 O24 1.981672 1_555
Ni3 O20 1.898533 1_455
Ni3 O9 1.921268 1_555
Ni3 O12 1.941506 1_455
Ni3 O37 1.955874 1_455
Ni3 O33 1.963262 1_555
Ni3 O25 1.981672 1_555
Ni4 O43 1.898533 1_655
Ni4 O54 1.921268 1_555
Ni4 O51 1.941506 1_655
Ni4 O27 1.955874 1_655
Ni4 O30 1.963262 1_555
Ni4 O38 1.981672 1_555
Ni5 O42 1.898533 1_555
Ni5 O55 1.921268 1_555
Ni5 O50 1.941506 1_555
Ni5 O26 1.955874 1_555
Ni5 O31 1.963262 1_555
Ni5 O39 1.981672 1_555
Ni6 O52 1.898533 1_555
Ni6 O40 1.921268 1_555
Ni6 O44 1.941506 1_555
Ni6 O4 1.955874 1_545
Ni6 O0 1.963262 1_555
Ni6 O57 1.981672 1_555
Ni7 O53 1.898533 1_455
Ni7 O41 1.921268 1_555
Ni7 O45 1.941506 1_455
Ni7 O5 1.955874 1_445
Ni7 O1 1.963262 1_555
Ni7 O56 1.981672 1_555
O0 S2 1.505377 1_545
O1 S3 1.505377 1_545
O2 S15 1.424343 1_565
O3 S14 1.424343 1_565
O4 S0 1.531294 1_555
O5 S1 1.531294 1_555
O6 S0 1.518281 1_555
O7 S1 1.518281 1_555
O8 S3 1.509363 1_554
O9 S2 1.509363 1_555
O10 S3 1.520433 1_554
O11 S2 1.520433 1_555
O12 S1 1.521434 1_555
O13 S0 1.521434 1_555
O14 S2 1.426256 1_555
O15 S3 1.426256 1_555
O16 S4 1.426256 1_555
O17 S5 1.426256 1_555
O18 S6 1.521434 1_555
O19 S7 1.521434 1_555
O20 S4 1.520433 1_555
O21 S5 1.520433 1_554
O22 S5 1.509363 1_554
O23 S4 1.509363 1_555
O24 S6 1.518281 1_555
O25 S7 1.518281 1_555
O26 S7 1.531294 1_555
O27 S6 1.531294 1_555
O28 S8 1.424343 1_555
O29 S9 1.424343 1_555
O30 S4 1.505377 1_555
O31 S5 1.505377 1_555
O32 S10 1.505377 1_555
O33 S11 1.505377 1_555
O34 S7 1.424343 1_555
O35 S6 1.424343 1_555
O36 S8 1.531294 1_555
O37 S9 1.531294 1_555
O38 S8 1.518281 1_555
O39 S9 1.518281 1_555
O40 S11 1.509363 1_555
O41 S10 1.509363 1_556
O42 S10 1.520433 1_556
O43 S11 1.520433 1_555
O44 S8 1.521434 1_555
O45 S9 1.521434 1_555
O46 S10 1.426256 1_555
O47 S11 1.426256 1_555
O48 S12 1.426256 1_555
O49 S13 1.426256 1_555
O50 S14 1.521434 1_555
O51 S15 1.521434 1_555
O52 S13 1.520433 1_555
O53 S12 1.520433 1_556
O54 S13 1.509363 1_555
O55 S12 1.509363 1_556
O56 S14 1.518281 1_555
O57 S15 1.518281 1_555
O58 S14 1.531294 1_555
O59 S15 1.531294 1_555
O60 S1 1.424343 1_545
O61 S0 1.424343 1_545
O62 S12 1.505377 1_565
O63 S13 1.505377 1_565
