# generated using pymatgen
data_V6O5F19
_symmetry_space_group_name_H-M   'P 1'
_cell_length_a   5.28795513
_cell_length_b   5.42812806
_cell_length_c   13.57875742
_cell_angle_alpha   100.59386638
_cell_angle_beta   89.44900639
_cell_angle_gamma   91.99897742
_symmetry_Int_Tables_number   1
_chemical_formula_structural   V6O5F19
_chemical_formula_sum   'V6 O5 F19'
_cell_volume   382.88191031
_cell_formula_units_Z   1
loop_
 _symmetry_equiv_pos_site_id
 _symmetry_equiv_pos_as_xyz
  1  'x, y, z'
loop_
 _atom_site_type_symbol
 _atom_site_label
 _atom_site_symmetry_multiplicity
 _atom_site_fract_x
 _atom_site_fract_y
 _atom_site_fract_z
 _atom_site_occupancy
  V  V0  1  0.92946365  0.98889673  0.00602701  1
  V  V1  1  0.55975561  0.78195404  0.67186068  1
  V  V2  1  0.96073396  0.72495697  0.33483201  1
  V  V3  1  0.42284031  0.52661522  0.99513872  1
  V  V4  1  0.05107909  0.27075329  0.66299769  1
  V  V5  1  0.48242855  0.19216091  0.33125578  1
  O  O0  1  0.77888922  0.96276280  0.35024537  1
  O  O1  1  0.69280358  0.80278461  0.02439643  1
  O  O2  1  0.78834950  0.61512870  0.69240301  1
  O  O3  1  0.19289739  0.70513471  0.97981498  1
  O  O4  1  0.22577200  0.03361006  0.64227342  1
  F  F0  1  0.26689281  0.88930080  0.30511376  1
  F  F1  1  0.93766142  0.94349407  0.87537428  1
  F  F2  1  0.58883309  0.78799778  0.54386052  1
  F  F3  1  0.93458644  0.60053332  0.20735453  1
  F  F4  1  0.42716945  0.88060300  0.79046158  1
  F  F5  1  0.07933537  0.72780379  0.45457798  1
  F  F6  1  0.43371330  0.54623037  0.12468212  1
  F  F7  1  0.70856907  0.48408711  0.35857090  1
  F  F8  1  0.78477007  0.28279172  0.02177678  1
  F  F9  1  0.30434955  0.52463103  0.64154236  1
  F  F10  1  0.21501800  0.37975944  0.31377502  1
  F  F11  1  0.58085761  0.46562222  0.87971750  1
  F  F12  1  0.93334615  0.28500521  0.54409360  1
  F  F13  1  0.58563197  0.13115416  0.20728392  1
  F  F14  1  0.09206793  0.38654210  0.79094401  1
  F  F15  1  0.43895767  0.20641860  0.45942268  1
  F  F16  1  0.08441514  0.04865260  0.12171763  1
  F  F17  1  0.74358481  0.10540660  0.69317991  1
  F  F18  1  0.27522827  0.21920704  0.97530182  1
loop_
_geom_bond_atom_site_label_1
_geom_bond_atom_site_label_2
_geom_bond_distance
_geom_bond_site_symmetry_2
O0 V2 1.618057 1_555
O0 V5 2.082457 1_565
O1 V0 1.627076 1_555
O1 V3 2.021292 1_554
O2 V1 1.592086 1_555
O2 V4 2.340938 1_655
O3 V3 1.619257 1_555
O3 V0 2.092437 1_456
O4 V4 1.591948 1_555
O4 V1 2.351647 1_545
F0 V2 1.897025 1_455
F0 V5 1.946826 1_565
F1 V0 1.746011 1_556
F2 V1 1.749607 1_555
F3 V2 1.743503 1_555
F4 V1 1.749069 1_555
F5 V2 1.745608 1_455
F6 V3 1.743993 1_554
F7 V2 1.901714 1_555
F7 V5 1.933593 1_555
F8 V0 1.769945 1_545
F8 V3 2.431346 1_554
F9 V1 1.900577 1_555
F9 V4 1.946541 1_555
F10 V5 1.813459 1_555
F10 V2 2.317809 1_455
F11 V3 1.751427 1_555
F12 V4 1.751864 1_655
F13 V5 1.741045 1_555
F14 V4 1.748325 1_555
F15 V5 1.741167 1_555
F16 V0 1.750223 1_445
F17 V4 1.907371 1_655
F17 V1 1.952136 1_545
F18 V3 1.792804 1_555
F18 V0 2.257786 1_446
