# generated using pymatgen
data_LiMnF3
_symmetry_space_group_name_H-M   'P 1'
_cell_length_a   5.90720287
_cell_length_b   5.90720287
_cell_length_c   5.89796400
_cell_angle_alpha   90.00000000
_cell_angle_beta   90.00000000
_cell_angle_gamma   120.00000973
_symmetry_Int_Tables_number   1
_chemical_formula_structural   LiMnF3
_chemical_formula_sum   'Li2 Mn2 F6'
_cell_volume   178.23643141
_cell_formula_units_Z   2
loop_
 _symmetry_equiv_pos_site_id
 _symmetry_equiv_pos_as_xyz
  1  'x, y, z'
loop_
 _atom_site_type_symbol
 _atom_site_label
 _atom_site_symmetry_multiplicity
 _atom_site_fract_x
 _atom_site_fract_y
 _atom_site_fract_z
 _atom_site_occupancy
  Li  Li0  1  0.33333300  0.66666700  0.75000000  1
  Li  Li1  1  0.66666700  0.33333300  0.25000000  1
  Mn  Mn0  1  0.00000000  0.00000000  0.00000000  1
  Mn  Mn1  1  0.00000000  0.00000000  0.50000000  1
  F  F0  1  0.15440300  0.84559700  0.75000000  1
  F  F1  1  0.15440300  0.30880600  0.75000000  1
  F  F2  1  0.30880600  0.15440300  0.25000000  1
  F  F3  1  0.69119400  0.84559700  0.75000000  1
  F  F4  1  0.84559700  0.69119400  0.25000000  1
  F  F5  1  0.84559700  0.15440300  0.25000000  1
loop_
_geom_bond_atom_site_label_1
_geom_bond_atom_site_label_2
_geom_bond_distance
_geom_bond_site_symmetry_2
F0 Li0 1.830736 1_555
F0 Mn1 2.160983 1_565
F0 Mn0 2.160983 1_566
F1 Li0 1.830741 1_555
F1 Mn0 2.160983 1_556
F1 Mn1 2.160983 1_555
F2 Li1 1.830741 1_555
F2 Mn1 2.160983 1_555
F2 Mn0 2.160983 1_555
F3 Li0 1.830741 1_555
F3 Mn0 2.160983 1_666
F3 Mn1 2.160983 1_665
F4 Li1 1.830741 1_555
F4 Mn1 2.160983 1_665
F4 Mn0 2.160983 1_665
F5 Li1 1.830736 1_555
F5 Mn1 2.160983 1_655
F5 Mn0 2.160983 1_655
