# generated using pymatgen
data_CaSnS3
_symmetry_space_group_name_H-M   'P 1'
_cell_length_a   3.84345600
_cell_length_b   8.30690800
_cell_length_c   13.79083400
_cell_angle_alpha   90.00000000
_cell_angle_beta   90.00000000
_cell_angle_gamma   90.00000000
_symmetry_Int_Tables_number   1
_chemical_formula_structural   CaSnS3
_chemical_formula_sum   'Ca4 Sn4 S12'
_cell_volume   440.30320340
_cell_formula_units_Z   4
loop_
 _symmetry_equiv_pos_site_id
 _symmetry_equiv_pos_as_xyz
  1  'x, y, z'
loop_
 _atom_site_type_symbol
 _atom_site_label
 _atom_site_symmetry_multiplicity
 _atom_site_fract_x
 _atom_site_fract_y
 _atom_site_fract_z
 _atom_site_occupancy
  Ca  Ca0  1  0.25000000  0.06185700  0.18109300  1
  Ca  Ca1  1  0.25000000  0.56185700  0.31890700  1
  Ca  Ca2  1  0.75000000  0.93814300  0.81890700  1
  Ca  Ca3  1  0.75000000  0.43814300  0.68109300  1
  Sn  Sn0  1  0.25000000  0.32143400  0.94434900  1
  Sn  Sn1  1  0.25000000  0.82143400  0.55565100  1
  Sn  Sn2  1  0.75000000  0.67856600  0.05565100  1
  Sn  Sn3  1  0.75000000  0.17856600  0.44434900  1
  S  S0  1  0.25000000  0.48234200  0.10868000  1
  S  S1  1  0.25000000  0.98234200  0.39132000  1
  S  S2  1  0.75000000  0.51765800  0.89132000  1
  S  S3  1  0.75000000  0.01765800  0.60868000  1
  S  S4  1  0.25000000  0.35731600  0.51020300  1
  S  S5  1  0.25000000  0.85731600  0.98979700  1
  S  S6  1  0.75000000  0.64268400  0.48979700  1
  S  S7  1  0.75000000  0.14268400  0.01020300  1
  S  S8  1  0.25000000  0.19831100  0.78062600  1
  S  S9  1  0.25000000  0.69831100  0.71937400  1
  S  S10  1  0.75000000  0.80168900  0.21937400  1
  S  S11  1  0.75000000  0.30168900  0.28062600  1
loop_
_geom_bond_atom_site_label_1
_geom_bond_atom_site_label_2
_geom_bond_distance
_geom_bond_site_symmetry_2
Ca0 S10 2.939812 1_445
Ca0 S10 2.939812 1_545
Ca0 S1 2.973497 1_545
Ca0 S11 3.089708 1_455
Ca0 S11 3.089708 1_555
Ca0 S7 3.114154 1_455
Ca0 S7 3.114154 1_555
Ca0 S5 3.137943 1_544
Ca1 S11 2.939812 1_455
Ca1 S11 2.939812 1_555
Ca1 S0 2.973497 1_555
Ca1 S10 3.089708 1_555
Ca1 S10 3.089708 1_455
Ca1 S6 3.114154 1_555
Ca1 S6 3.114154 1_455
Ca1 S4 3.137943 1_555
Ca2 S8 2.939812 1_565
Ca2 S8 2.939812 1_665
Ca2 S3 2.973497 1_565
Ca2 S9 3.089708 1_555
Ca2 S9 3.089708 1_655
Ca2 S5 3.114154 1_555
Ca2 S5 3.114154 1_655
Ca2 S7 3.137943 1_566
Ca3 S9 2.939812 1_555
Ca3 S9 2.939812 1_655
Ca3 S2 2.973497 1_555
Ca3 S8 3.089708 1_555
Ca3 S8 3.089708 1_655
Ca3 S4 3.114154 1_655
Ca3 S4 3.114154 1_555
Ca3 S6 3.137943 1_555
S0 Sn2 2.623892 1_555
S0 Sn2 2.623892 1_455
S0 Sn0 2.631078 1_554
S1 Sn3 2.623892 1_465
S1 Sn3 2.623892 1_565
S1 Sn1 2.631078 1_555
S2 Sn0 2.623892 1_555
S2 Sn0 2.623892 1_655
S2 Sn2 2.631078 1_556
S3 Sn1 2.623892 1_645
S3 Sn1 2.623892 1_545
S3 Sn3 2.631078 1_555
S4 Sn3 2.592806 1_555
S4 Sn3 2.592806 1_455
S5 Sn2 2.592806 1_556
S5 Sn2 2.592806 1_456
S6 Sn1 2.592806 1_655
S6 Sn1 2.592806 1_555
S7 Sn0 2.592806 1_654
S7 Sn0 2.592806 1_554
S8 Sn0 2.478723 1_555
S9 Sn1 2.478723 1_555
S10 Sn2 2.478723 1_555
S11 Sn3 2.478723 1_555
