# generated using pymatgen
data_Li6MnV3(PO4)6
_symmetry_space_group_name_H-M   'P 1'
_cell_length_a   8.58230800
_cell_length_b   8.68063071
_cell_length_c   15.18177581
_cell_angle_alpha   89.90964642
_cell_angle_beta   105.62635468
_cell_angle_gamma   118.57652300
_symmetry_Int_Tables_number   1
_chemical_formula_structural   Li6MnV3(PO4)6
_chemical_formula_sum   'Li12 Mn2 V6 P12 O48'
_cell_volume   945.65086665
_cell_formula_units_Z   2
loop_
 _symmetry_equiv_pos_site_id
 _symmetry_equiv_pos_as_xyz
  1  'x, y, z'
loop_
 _atom_site_type_symbol
 _atom_site_label
 _atom_site_symmetry_multiplicity
 _atom_site_fract_x
 _atom_site_fract_y
 _atom_site_fract_z
 _atom_site_occupancy
  Li  Li0  1  0.75339000  0.69475400  0.31870200  1
  Li  Li1  1  0.73970800  0.82149500  0.54715000  1
  Li  Li2  1  0.74049300  0.32387000  0.04531900  1
  Li  Li3  1  0.26197300  0.83747300  0.19192200  1
  Li  Li4  1  0.68727800  0.79268300  0.83338400  1
  Li  Li5  1  0.68312100  0.28252500  0.33679400  1
  Li  Li6  1  0.24831900  0.71464600  0.64634600  1
  Li  Li7  1  0.25087900  0.23139200  0.14155800  1
  Li  Li8  1  0.76193300  0.21110600  0.81812900  1
  Li  Li9  1  0.24902100  0.32700000  0.68666400  1
  Li  Li10  1  0.18072900  0.64234400  0.97587200  1
  Li  Li11  1  0.18218400  0.14738800  0.47235200  1
  Mn  Mn0  1  0.85601400  0.21634000  0.57251600  1
  Mn  Mn1  1  0.13544200  0.27710900  0.92516000  1
  V  V0  1  0.85762300  0.71449800  0.07282100  1
  V  V1  1  0.35732200  0.97010700  0.82029800  1
  V  V2  1  0.63636700  0.52657000  0.68027400  1
  V  V3  1  0.35838800  0.46456900  0.32065300  1
  V  V4  1  0.13745300  0.78438900  0.42447400  1
  V  V5  1  0.63940800  0.03092500  0.18041400  1
  P  P0  1  0.94790200  0.98534500  0.73433000  1
  P  P1  1  0.95227800  0.48385100  0.23669100  1
  P  P2  1  0.25106900  0.97851600  0.02379200  1
  P  P3  1  0.53704200  0.89400600  0.37499200  1
  P  P4  1  0.45377700  0.60043800  0.12428600  1
  P  P5  1  0.74619700  0.51859100  0.47693500  1
  P  P6  1  0.24566500  0.47560400  0.52354800  1
  P  P7  1  0.53583900  0.40126700  0.87649300  1
  P  P8  1  0.45292700  0.09527000  0.62145300  1
  P  P9  1  0.75110500  0.02357800  0.97533700  1
  P  P10  1  0.04376000  0.51587900  0.76590400  1
  P  P11  1  0.04249100  0.01408100  0.26186200  1
  O  O0  1  0.84491900  0.98679800  0.23710200  1
  O  O1  1  0.91448100  0.53678500  0.13802100  1
  O  O2  1  0.94071000  0.60091900  0.30906300  1
  O  O3  1  0.67834700  0.97894100  0.47095500  1
  O  O4  1  0.90266500  0.70000800  0.46531000  1
  O  O5  1  0.64845800  0.65678700  0.11795300  1
  O  O6  1  0.44501800  0.76897200  0.15052300  1
  O  O7  1  0.54600800  0.72630100  0.34725300  1
  O  O8  1  0.78924000  0.79104300  0.72473600  1
  O  O9  1  0.79000000  0.29351500  0.23072000  1
  O  O10  1  0.09252500  0.79259400  0.03207300  1
  O  O11  1  0.33452600  0.83844900  0.36872400  1
  O  O12  1  0.05572400  0.89739800  0.19042000  1
  O  O13  1  0.30034100  0.00052000  0.52742600  1
  O  O14  1  0.80618200  0.87863600  0.98964700  1
  O  O15  1  0.68608100  0.56450800  0.55520100  1
  O  O16  1  0.29367300  0.50028200  0.03447700  1
  O  O17  1  0.40965500  0.96896400  0.69473000  1
  O  O18  1  0.59430900  0.95100000  0.87929700  1
  O  O19  1  0.80336500  0.37419800  0.49179300  1
  O  O20  1  0.69427700  0.07307100  0.05432300  1
  O  O21  1  0.07952600  0.96553800  0.36141900  1
  O  O22  1  0.42736800  0.47705000  0.19993800  1
  O  O23  1  0.58948900  0.43977000  0.38089000  1
  O  O24  1  0.84190400  0.48125200  0.73877100  1
  O  O25  1  0.14271500  0.49725900  0.26097600  1
  O  O26  1  0.40187000  0.54850800  0.61887800  1
  O  O27  1  0.40645900  0.05241900  0.11939700  1
  O  O28  1  0.92147300  0.04213000  0.63579800  1
  O  O29  1  0.57689900  0.52915500  0.80314300  1
  O  O30  1  0.31151800  0.93814700  0.94489800  1
  O  O31  1  0.18787200  0.61894600  0.50904700  1
  O  O32  1  0.58181700  0.02587700  0.30357100  1
  O  O33  1  0.30102800  0.42594300  0.44450200  1
  O  O34  1  0.19129500  0.12156600  0.01037000  1
  O  O35  1  0.92414700  0.09462400  0.80431800  1
  O  O36  1  0.68317700  0.48874900  0.97140600  1
  O  O37  1  0.91225800  0.20743100  0.96553500  1
  O  O38  1  0.65149000  0.14634900  0.62233000  1
  O  O39  1  0.19042200  0.71072000  0.76821300  1
  O  O40  1  0.19485100  0.20567700  0.26267900  1
  O  O41  1  0.44306400  0.26379700  0.64638700  1
  O  O42  1  0.54424800  0.23326400  0.84841100  1
  O  O43  1  0.08579300  0.28985100  0.53385500  1
  O  O44  1  0.33524600  0.34843900  0.87388500  1
  O  O45  1  0.06611700  0.40691300  0.69513900  1
  O  O46  1  0.07547100  0.46360600  0.86481100  1
  O  O47  1  0.14270400  0.00672300  0.76426100  1
loop_
_geom_bond_atom_site_label_1
_geom_bond_atom_site_label_2
_geom_bond_distance
_geom_bond_site_symmetry_2
Li0 O7 2.076748 1_555
Li0 O2 2.156215 1_555
Li0 O4 2.237334 1_555
Li0 O23 2.345112 1_555
Li0 O21 2.552048 1_655
Li0 O22 2.624043 1_555
Li0 O0 2.681019 1_555
Li1 O3 1.959285 1_555
Li1 O28 1.982876 1_565
Li1 O15 2.061674 1_555
Li2 O1 1.965257 1_555
Li2 O36 1.980084 1_554
Li2 O20 2.029265 1_555
Li3 O12 2.064809 1_555
Li3 O6 2.154818 1_555
Li3 O27 2.178774 1_565
Li3 O10 2.390748 1_555
Li3 O32 2.508032 1_565
Li3 O11 2.585957 1_555
Li4 O29 2.009256 1_555
Li4 O8 2.067919 1_555
Li4 O18 2.088737 1_555
Li4 O14 2.280149 1_555
Li4 O35 2.565041 1_565
Li5 O32 1.971794 1_555
Li5 O9 2.038487 1_555
Li5 O23 2.073434 1_555
Li5 O19 2.268838 1_555
Li6 O17 1.965537 1_555
Li6 O39 2.037157 1_555
Li6 O31 2.077202 1_555
Li6 O26 2.471149 1_555
Li6 O45 2.598365 1_555
Li7 O22 1.954462 1_555
Li7 O40 2.008659 1_555
Li7 O34 2.031760 1_555
Li7 O27 2.556932 1_555
Li8 O35 2.123464 1_555
Li8 O42 2.132002 1_555
Li8 O37 2.270980 1_555
Li8 O18 2.373951 1_545
Li8 O46 2.425374 1_655
Li8 O24 2.513685 1_555
Li9 O45 2.027971 1_555
Li9 O26 2.187495 1_555
Li9 O41 2.207258 1_555
Li9 O43 2.295171 1_555
Li10 O46 1.978168 1_555
Li10 O16 1.981774 1_556
Li10 O10 2.073198 1_556
Li10 O30 2.365938 1_555
Li11 O21 1.995750 1_545
Li11 O13 2.032111 1_555
Li11 O43 2.117552 1_555
Li11 O33 2.221634 1_555
Mn0 O38 1.927579 1_555
Mn0 O19 1.967874 1_555
Mn0 O28 2.010703 1_555
Mn0 O43 2.014729 1_655
Mn0 O3 2.164841 1_545
Mn0 O45 2.191206 1_655
Mn1 O44 1.905698 1_555
Mn1 O37 1.983294 1_455
Mn1 O34 2.001486 1_556
Mn1 O46 2.064853 1_555
Mn1 O16 2.151916 1_556
Mn1 O35 2.152277 1_455
O0 P11 1.531424 1_665
O0 V5 1.955962 1_565
O1 P1 1.561721 1_555
O1 V0 2.013169 1_555
O2 P1 1.551964 1_555
O2 V4 2.073618 1_655
O3 P3 1.527417 1_555
O4 P5 1.555039 1_555
O4 V4 2.059311 1_655
O5 P4 1.531229 1_555
O5 V0 1.934971 1_555
O6 P4 1.558142 1_555
O6 V5 2.031279 1_565
O7 P3 1.558569 1_555
O7 V3 2.017565 1_555
O8 P0 1.554667 1_555
O8 V2 2.023335 1_555
O9 P1 1.552046 1_555
O9 V5 2.026059 1_555
O10 P2 1.569280 1_555
O10 V0 2.066307 1_455
O11 P3 1.540010 1_555
O11 V4 1.951373 1_555
O12 P11 1.547609 1_565
O12 V0 2.095271 1_455
O13 P8 1.547693 1_555
O13 V4 2.059174 1_545
O14 P9 1.538324 1_565
O14 V0 2.028616 1_556
O15 P5 1.537988 1_555
O15 V2 2.048441 1_555
O16 P4 1.534451 1_555
O17 P8 1.551398 1_565
O17 V1 2.074021 1_555
O18 P9 1.571150 1_565
O18 V1 2.075416 1_555
O19 P5 1.546117 1_555
O20 P9 1.541932 1_554
O20 V5 2.082953 1_555
O21 P11 1.558971 1_565
O21 V4 2.030521 1_555
O22 P4 1.556225 1_555
O22 V3 2.059949 1_555
O23 P5 1.571445 1_555
O23 V3 2.060862 1_555
O24 P10 1.542399 1_655
O24 V2 1.968221 1_555
O25 P1 1.521260 1_455
O25 V3 1.981339 1_555
O26 P6 1.561516 1_555
O26 V2 2.076257 1_555
O27 P2 1.561555 1_545
O27 V5 2.061186 1_555
O28 P0 1.566513 1_545
O29 P7 1.558823 1_555
O29 V2 2.065081 1_555
O30 P2 1.528579 1_556
O30 V1 2.025945 1_555
O31 P6 1.540615 1_555
O31 V4 2.046392 1_555
O32 P3 1.559965 1_545
O32 V5 2.054029 1_555
O33 P6 1.535091 1_555
O33 V3 2.056417 1_555
O34 P2 1.548862 1_545
O35 P0 1.541206 1_545
O36 P7 1.534660 1_555
O36 V0 2.100756 1_556
O37 P9 1.574983 1_555
O38 P8 1.538105 1_555
O39 P10 1.544660 1_555
O39 V1 2.014168 1_555
O40 P11 1.544968 1_555
O40 V3 2.029368 1_555
O41 P8 1.558227 1_555
O41 V2 2.035613 1_555
O42 P7 1.559821 1_555
O42 V1 2.025450 1_545
O43 P6 1.582850 1_555
O44 P7 1.543917 1_555
O45 P10 1.540655 1_555
O46 P10 1.559025 1_555
O47 P0 1.526498 1_445
O47 V1 1.983053 1_545
