# generated using pymatgen
data_Ru
_symmetry_space_group_name_H-M   'P 1'
_cell_length_a   5.36181790
_cell_length_b   5.36181793
_cell_length_c   5.36181794
_cell_angle_alpha   60.00001241
_cell_angle_beta   60.00001220
_cell_angle_gamma   60.00002301
_symmetry_Int_Tables_number   1
_chemical_formula_structural   Ru
_chemical_formula_sum   Ru8
_cell_volume   108.99870665
_cell_formula_units_Z   8
loop_
 _symmetry_equiv_pos_site_id
 _symmetry_equiv_pos_as_xyz
  1  'x, y, z'
loop_
 _atom_site_type_symbol
 _atom_site_label
 _atom_site_symmetry_multiplicity
 _atom_site_fract_x
 _atom_site_fract_y
 _atom_site_fract_z
 _atom_site_occupancy
  Ru  Ru0_0  1  0.00000000  0.00000000  0.00000000  1
  Ru  Ru0_1  1  0.00000000  0.00000000  0.50000000  1
  Ru  Ru0_2  1  0.00000000  0.50000000  0.00000000  1
  Ru  Ru0_3  1  0.00000000  0.50000000  0.50000000  1
  Ru  Ru0_4  1  0.50000000  0.00000000  0.00000000  1
  Ru  Ru0_5  1  0.50000000  0.00000000  0.50000000  1
  Ru  Ru0_6  1  0.50000000  0.50000000  0.00000000  1
  Ru  Ru0_7  1  0.50000000  0.50000000  0.50000000  1
loop_
_geom_bond_atom_site_label_1
_geom_bond_atom_site_label_2
_geom_bond_distance
_geom_bond_site_symmetry_2
Ru0_0 Ru0_4 2.680909 1_555
Ru0_0 Ru0_4 2.680909 1_455
Ru0_0 Ru0_2 2.680909 1_545
Ru0_0 Ru0_2 2.680909 1_555
Ru0_0 Ru0_1 2.680909 1_555
Ru0_0 Ru0_1 2.680909 1_554
Ru0_0 Ru0_5 2.680909 1_554
Ru0_0 Ru0_5 2.680909 1_455
Ru0_0 Ru0_3 2.680909 1_554
Ru0_0 Ru0_3 2.680909 1_545
Ru0_0 Ru0_6 2.680910 1_545
Ru0_0 Ru0_6 2.680910 1_455
Ru0_1 Ru0_5 2.680909 1_455
Ru0_1 Ru0_5 2.680909 1_555
Ru0_1 Ru0_3 2.680909 1_545
Ru0_1 Ru0_3 2.680909 1_555
Ru0_1 Ru0_4 2.680909 1_456
Ru0_1 Ru0_4 2.680909 1_555
Ru0_1 Ru0_2 2.680909 1_546
Ru0_1 Ru0_2 2.680909 1_555
Ru0_1 Ru0_7 2.680910 1_455
Ru0_1 Ru0_7 2.680910 1_545
Ru0_2 Ru0_6 2.680909 1_455
Ru0_2 Ru0_6 2.680909 1_555
Ru0_2 Ru0_3 2.680909 1_554
Ru0_2 Ru0_3 2.680909 1_555
Ru0_2 Ru0_7 2.680909 1_455
Ru0_2 Ru0_7 2.680909 1_554
Ru0_2 Ru0_4 2.680910 1_555
Ru0_2 Ru0_4 2.680910 1_465
Ru0_3 Ru0_7 2.680909 1_555
Ru0_3 Ru0_7 2.680909 1_455
Ru0_3 Ru0_6 2.680909 1_456
Ru0_3 Ru0_6 2.680909 1_555
Ru0_3 Ru0_5 2.680910 1_465
Ru0_3 Ru0_5 2.680910 1_555
Ru0_4 Ru0_6 2.680909 1_545
Ru0_4 Ru0_6 2.680909 1_555
Ru0_4 Ru0_5 2.680909 1_554
Ru0_4 Ru0_5 2.680909 1_555
Ru0_4 Ru0_7 2.680909 1_545
Ru0_4 Ru0_7 2.680909 1_554
Ru0_5 Ru0_7 2.680909 1_555
Ru0_5 Ru0_7 2.680909 1_545
Ru0_5 Ru0_6 2.680909 1_546
Ru0_5 Ru0_6 2.680909 1_555
Ru0_6 Ru0_7 2.680909 1_555
Ru0_6 Ru0_7 2.680909 1_554
