# generated using pymatgen
data_Yb2MgS4
_symmetry_space_group_name_H-M   'P 1'
_cell_length_a   7.93750272
_cell_length_b   7.93750272
_cell_length_c   7.93750272
_cell_angle_alpha   60.00000000
_cell_angle_beta   60.00000000
_cell_angle_gamma   60.00000000
_symmetry_Int_Tables_number   1
_chemical_formula_structural   Yb2MgS4
_chemical_formula_sum   'Yb4 Mg2 S8'
_cell_volume   353.61987294
_cell_formula_units_Z   2
loop_
 _symmetry_equiv_pos_site_id
 _symmetry_equiv_pos_as_xyz
  1  'x, y, z'
loop_
 _atom_site_type_symbol
 _atom_site_label
 _atom_site_symmetry_multiplicity
 _atom_site_fract_x
 _atom_site_fract_y
 _atom_site_fract_z
 _atom_site_occupancy
  Yb  Yb0  1  0.12500000  0.62500000  0.62500000  1
  Yb  Yb1  1  0.62500000  0.12500000  0.62500000  1
  Yb  Yb2  1  0.62500000  0.62500000  0.12500000  1
  Yb  Yb3  1  0.62500000  0.62500000  0.62500000  1
  Mg  Mg0  1  0.25000000  0.25000000  0.25000000  1
  Mg  Mg1  1  0.00000000  0.00000000  0.00000000  1
  S  S0  1  0.86818600  0.37727100  0.37727100  1
  S  S1  1  0.37727100  0.86818600  0.37727100  1
  S  S2  1  0.37727100  0.37727100  0.86818600  1
  S  S3  1  0.37727100  0.37727100  0.37727100  1
  S  S4  1  0.38181400  0.87272900  0.87272900  1
  S  S5  1  0.87272900  0.38181400  0.87272900  1
  S  S6  1  0.87272900  0.87272900  0.38181400  1
  S  S7  1  0.87272900  0.87272900  0.87272900  1
loop_
_geom_bond_atom_site_label_1
_geom_bond_atom_site_label_2
_geom_bond_distance
_geom_bond_site_symmetry_2
Mg0 S3 2.474509 1_555
Mg0 S1 2.474515 1_545
Mg0 S0 2.474515 1_455
Mg0 S2 2.474515 1_554
Mg1 S7 2.474509 1_444
Mg1 S6 2.474515 1_445
Mg1 S4 2.474515 1_544
Mg1 S5 2.474515 1_454
S0 Yb1 2.781066 1_555
S0 Yb2 2.781066 1_555
S0 Yb3 2.781072 1_555
S1 Yb2 2.781066 1_555
S1 Yb0 2.781066 1_555
S1 Yb3 2.781072 1_555
S2 Yb0 2.781066 1_555
S2 Yb1 2.781066 1_555
S2 Yb3 2.781072 1_555
S3 Yb1 2.781072 1_555
S3 Yb2 2.781072 1_555
S3 Yb0 2.781072 1_555
S4 Yb1 2.781066 1_565
S4 Yb2 2.781066 1_556
S4 Yb3 2.781072 1_555
S5 Yb2 2.781066 1_556
S5 Yb0 2.781066 1_655
S5 Yb3 2.781072 1_555
S6 Yb1 2.781066 1_565
S6 Yb0 2.781066 1_655
S6 Yb3 2.781072 1_555
S7 Yb0 2.781072 1_655
S7 Yb1 2.781072 1_565
S7 Yb2 2.781072 1_556
