# generated using pymatgen
data_Sr9La5Br33
_symmetry_space_group_name_H-M   'P 1'
_cell_length_a   11.97637300
_cell_length_b   12.01773413
_cell_length_c   22.84693383
_cell_angle_alpha   99.57029086
_cell_angle_beta   100.04143053
_cell_angle_gamma   109.10260487
_symmetry_Int_Tables_number   1
_chemical_formula_structural   Sr9La5Br33
_chemical_formula_sum   'Sr18 La10 Br66'
_cell_volume   2970.22890947
_cell_formula_units_Z   2
loop_
 _symmetry_equiv_pos_site_id
 _symmetry_equiv_pos_as_xyz
  1  'x, y, z'
loop_
 _atom_site_type_symbol
 _atom_site_label
 _atom_site_symmetry_multiplicity
 _atom_site_fract_x
 _atom_site_fract_y
 _atom_site_fract_z
 _atom_site_occupancy
  Sr  Sr0  1  0.92236400  0.24817400  0.92971800  1
  Sr  Sr1  1  0.31929000  0.08915200  0.96885800  1
  Sr  Sr2  1  0.47384300  0.02063700  0.19368800  1
  Sr  Sr3  1  0.86745500  0.26579300  0.33808600  1
  Sr  Sr4  1  0.24489600  0.13297500  0.37830900  1
  Sr  Sr5  1  0.68149800  0.40211200  0.54005300  1
  Sr  Sr6  1  0.07167300  0.24596500  0.56323400  1
  Sr  Sr7  1  0.76128700  0.35469200  0.12075000  1
  Sr  Sr8  1  0.13382500  0.22128100  0.15769700  1
  Sr  Sr9  1  0.86617500  0.77871900  0.84230300  1
  Sr  Sr10  1  0.23871300  0.64530800  0.87925000  1
  Sr  Sr11  1  0.92832700  0.75403500  0.43676600  1
  Sr  Sr12  1  0.31850200  0.59788800  0.45994700  1
  Sr  Sr13  1  0.75510400  0.86702500  0.62169100  1
  Sr  Sr14  1  0.13254500  0.73420700  0.66191400  1
  Sr  Sr15  1  0.52615700  0.97936300  0.80631200  1
  Sr  Sr16  1  0.68071000  0.91084800  0.03114200  1
  Sr  Sr17  1  0.07763600  0.75182600  0.07028200  1
  La  La0  1  0.38049000  0.04435800  0.58600000  1
  La  La1  1  0.17806500  0.14012400  0.76546700  1
  La  La2  1  0.85706400  0.35273900  0.73380700  1
  La  La3  1  0.62717100  0.45609600  0.92696300  1
  La  La4  1  0.46346400  0.53999700  0.68636200  1
  La  La5  1  0.53653600  0.46000300  0.31363800  1
  La  La6  1  0.37282900  0.54390400  0.07303700  1
  La  La7  1  0.14293600  0.64726100  0.26619300  1
  La  La8  1  0.82193500  0.85987600  0.23453300  1
  La  La9  1  0.61951000  0.95564200  0.41400000  1
  Br  Br0  1  0.77143500  0.13846400  0.78712000  1
  Br  Br1  1  0.94463300  0.14898300  0.67222700  1
  Br  Br2  1  0.62438500  0.20467800  0.91830400  1
  Br  Br3  1  0.73789600  0.04666400  0.19354100  1
  Br  Br4  1  0.15645200  0.00880200  0.63579500  1
  Br  Br5  1  0.05882200  0.07243000  0.87613100  1
  Br  Br6  1  0.65542300  0.18658200  0.62465100  1
  Br  Br7  1  0.44694400  0.18579200  0.73969600  1
  Br  Br8  1  0.81320600  0.22658600  0.47646200  1
  Br  Br9  1  0.58724700  0.11892800  0.33520800  1
  Br  Br10  1  0.47727900  0.12160800  0.47131400  1
  Br  Br11  1  0.15408200  0.04075600  0.48581100  1
  Br  Br12  1  0.35531700  0.29377800  0.88378200  1
  Br  Br13  1  0.88662500  0.18385400  0.06030500  1
  Br  Br14  1  0.82390500  0.45860600  0.85748800  1
  Br  Br15  1  0.55505900  0.10603100  0.07225500  1
  Br  Br16  1  0.94857700  0.43362300  0.62519000  1
  Br  Br17  1  0.24452400  0.03923900  0.09344200  1
  Br  Br18  1  0.39448400  0.30389600  0.58788800  1
  Br  Br19  1  0.97658700  0.37307200  0.22382600  1
  Br  Br20  1  0.34529500  0.20221000  0.26297700  1
  Br  Br21  1  0.65945800  0.31483200  0.23777700  1
  Br  Br22  1  0.03673000  0.12429900  0.27578100  1
  Br  Br23  1  0.24545100  0.35755500  0.70830900  1
  Br  Br24  1  0.70694700  0.50304100  0.69029800  1
  Br  Br25  1  0.07999900  0.35755700  0.82520700  1
  Br  Br26  1  0.75603700  0.46524400  0.40853200  1
  Br  Br27  1  0.57396900  0.56649600  0.82126900  1
  Br  Br28  1  0.44716700  0.39109000  0.42662100  1
  Br  Br29  1  0.80369500  0.71962000  0.97085300  1
  Br  Br30  1  0.46895600  0.61409800  0.96172800  1
  Br  Br31  1  0.12276000  0.31876900  0.43686400  1
  Br  Br32  1  0.14368000  0.53080700  0.98088700  1
  Br  Br33  1  0.85632000  0.46919300  0.01911300  1
  Br  Br34  1  0.87724000  0.68123100  0.56313600  1
  Br  Br35  1  0.53104400  0.38590200  0.03827200  1
  Br  Br36  1  0.19630500  0.28038000  0.02914700  1
  Br  Br37  1  0.55283300  0.60891000  0.57337900  1
  Br  Br38  1  0.42603100  0.43350400  0.17873100  1
  Br  Br39  1  0.24396300  0.53475600  0.59146800  1
  Br  Br40  1  0.92000100  0.64244300  0.17479300  1
  Br  Br41  1  0.29305300  0.49695900  0.30970200  1
  Br  Br42  1  0.75454900  0.64244500  0.29169100  1
  Br  Br43  1  0.96327000  0.87570100  0.72421900  1
  Br  Br44  1  0.34054200  0.68516800  0.76222300  1
  Br  Br45  1  0.65470500  0.79779000  0.73702300  1
  Br  Br46  1  0.02341300  0.62692800  0.77617400  1
  Br  Br47  1  0.60551600  0.69610400  0.41211200  1
  Br  Br48  1  0.75547600  0.96076100  0.90655800  1
  Br  Br49  1  0.05142300  0.56637700  0.37481000  1
  Br  Br50  1  0.44494100  0.89396900  0.92774500  1
  Br  Br51  1  0.17609500  0.54139400  0.14251200  1
  Br  Br52  1  0.11337500  0.81614600  0.93969500  1
  Br  Br53  1  0.64468300  0.70622200  0.11621800  1
  Br  Br54  1  0.84591800  0.95924400  0.51418900  1
  Br  Br55  1  0.52272100  0.87839200  0.52868600  1
  Br  Br56  1  0.41275300  0.88107200  0.66479200  1
  Br  Br57  1  0.18679400  0.77341400  0.52353800  1
  Br  Br58  1  0.55305600  0.81420800  0.26030400  1
  Br  Br59  1  0.34457700  0.81341800  0.37534900  1
  Br  Br60  1  0.94117800  0.92757000  0.12386900  1
  Br  Br61  1  0.84354800  0.99119800  0.36420500  1
  Br  Br62  1  0.26210400  0.95333600  0.80645900  1
  Br  Br63  1  0.37561500  0.79532200  0.08169600  1
  Br  Br64  1  0.05536700  0.85101700  0.32777300  1
  Br  Br65  1  0.22856500  0.86153600  0.21288000  1
loop_
_geom_bond_atom_site_label_1
_geom_bond_atom_site_label_2
_geom_bond_distance
_geom_bond_site_symmetry_2
Br0 La2 2.986056 1_555
Br0 Sr15 3.086906 1_545
Br0 Sr0 3.252384 1_555
Br1 La2 3.182016 1_555
Br1 La1 3.249383 1_655
Br1 Sr13 3.273875 1_545
Br1 Sr6 3.316591 1_655
Br2 La3 2.983708 1_555
Br2 Sr15 3.134393 1_545
Br2 Sr0 3.389113 1_555
Br3 La8 2.962806 1_545
Br3 Sr2 3.074936 1_555
Br3 Sr3 3.591007 1_555
Br3 Sr16 3.642540 1_545
Br4 La0 3.025215 1_555
Br4 La1 3.040600 1_555
Br4 Sr14 3.379955 1_545
Br5 La1 3.205684 1_555
Br5 Sr0 3.275300 1_455
Br5 Sr1 3.376852 1_555
Br5 Sr9 3.394165 1_445
Br6 La2 3.020985 1_555
Br6 La0 3.056737 1_555
Br6 Sr5 3.447903 1_555
Br7 La1 3.260278 1_555
Br7 Sr15 3.415144 1_545
Br7 La0 3.465307 1_555
Br8 La9 3.221307 1_545
Br8 Sr6 3.286512 1_655
Br8 Sr5 3.317614 1_555
Br8 Sr3 3.413244 1_555
Br9 La9 2.944303 1_545
Br9 Sr2 3.137318 1_555
Br9 Sr3 3.223209 1_555
Br10 La0 3.199189 1_555
Br10 Sr4 3.250009 1_555
Br10 La9 3.275298 1_545
Br10 Sr5 3.363907 1_555
Br11 Sr4 3.080788 1_555
Br11 La0 3.212434 1_555
Br11 Sr6 3.307003 1_555
Br11 Sr11 3.464209 1_445
Br12 La1 2.999445 1_555
Br12 La3 3.076025 1_555
Br12 Sr1 3.346487 1_555
Br13 Sr7 3.189488 1_555
Br13 Sr8 3.227498 1_655
Br13 Sr0 3.267670 1_554
Br13 Sr16 3.270224 1_545
Br14 La2 3.047582 1_555
Br14 La3 3.057037 1_555
Br14 Sr0 3.629060 1_555
Br14 Sr9 3.795608 1_555
Br15 Sr7 3.061352 1_555
Br15 Sr16 3.274082 1_545
Br15 Sr1 3.276333 1_554
Br15 Sr2 3.306181 1_555
Br16 La2 3.058998 1_555
Br16 Sr5 3.309197 1_555
Br16 Sr6 3.332481 1_655
Br16 Sr14 3.427185 1_655
Br17 Sr8 3.195017 1_555
Br17 Sr1 3.219990 1_554
Br17 Sr17 3.272644 1_545
Br17 Sr2 3.349162 1_555
Br18 La0 3.060894 1_555
Br18 La4 3.080585 1_555
Br18 Sr6 3.619012 1_555
Br18 Sr5 3.672411 1_555
Br19 Sr7 3.095175 1_555
Br19 La7 3.119951 1_655
Br19 Sr3 3.375070 1_555
Br19 Sr8 3.388311 1_655
Br20 La5 3.069608 1_555
Br20 Sr4 3.203170 1_555
Br20 Sr8 3.269753 1_555
Br20 Sr2 3.396737 1_555
Br21 La5 3.127348 1_555
Br21 Sr7 3.169550 1_555
Br21 Sr3 3.350218 1_555
Br21 Sr2 3.368564 1_555
Br22 Sr4 3.070101 1_555
Br22 La8 3.226792 1_445
Br22 Sr8 3.352838 1_555
Br22 Sr3 3.389032 1_455
Br23 La4 2.991847 1_555
Br23 La1 3.050649 1_555
Br23 Sr6 3.377218 1_555
Br24 La4 3.078660 1_555
Br24 La2 3.095554 1_555
Br24 Sr5 3.369845 1_555
Br25 La2 3.067078 1_455
Br25 Sr10 3.248947 1_555
Br25 La1 3.384097 1_555
Br25 Sr0 3.461917 1_455
Br26 La5 3.077954 1_555
Br26 Sr11 3.289851 1_555
Br26 Sr5 3.413484 1_555
Br26 Sr3 3.417010 1_555
Br27 La3 3.013226 1_555
Br27 La4 3.054216 1_555
Br27 Sr9 3.485220 1_555
Br28 La5 3.096574 1_555
Br28 Sr4 3.117623 1_555
Br28 Sr12 3.378929 1_555
Br28 Sr5 3.422886 1_555
Br29 La3 3.054044 1_555
Br29 Sr9 3.286687 1_555
Br29 Sr16 3.349416 1_556
Br29 Sr17 3.514472 1_656
Br30 La6 3.098845 1_556
Br30 La3 3.194546 1_555
Br30 Sr10 3.224154 1_555
Br30 Sr16 3.530164 1_556
Br31 Sr6 3.252874 1_555
Br31 Sr3 3.269445 1_455
Br31 Sr4 3.277452 1_555
Br31 Sr12 3.295356 1_555
Br32 Sr10 3.088696 1_555
Br32 La6 3.095331 1_556
Br32 Sr0 3.411098 1_455
Br32 Sr17 3.462187 1_556
Br33 Sr7 3.088696 1_555
Br33 La3 3.095331 1_554
Br33 Sr17 3.411098 1_655
Br33 Sr0 3.462187 1_554
Br34 Sr11 3.252874 1_555
Br34 Sr14 3.269445 1_655
Br34 Sr13 3.277452 1_555
Br34 Sr5 3.295356 1_555
Br35 La3 3.098845 1_554
Br35 La6 3.194546 1_555
Br35 Sr7 3.224154 1_555
Br35 Sr1 3.530164 1_554
Br36 La6 3.054044 1_555
Br36 Sr8 3.286687 1_555
Br36 Sr1 3.349416 1_554
Br36 Sr0 3.514472 1_454
Br37 La4 3.096574 1_555
Br37 Sr13 3.117623 1_555
Br37 Sr5 3.378929 1_555
Br37 Sr12 3.422886 1_555
Br38 La6 3.013226 1_555
Br38 La5 3.054216 1_555
Br38 Sr8 3.485220 1_555
Br39 La4 3.077954 1_555
Br39 Sr6 3.289851 1_555
Br39 Sr12 3.413484 1_555
Br39 Sr14 3.417010 1_555
Br40 La7 3.067078 1_655
Br40 Sr7 3.248947 1_555
Br40 La8 3.384097 1_555
Br40 Sr17 3.461917 1_655
Br41 La5 3.078660 1_555
Br41 La7 3.095554 1_555
Br41 Sr12 3.369845 1_555
Br42 La5 2.991847 1_555
Br42 La8 3.050649 1_555
Br42 Sr11 3.377218 1_555
Br43 Sr13 3.070101 1_555
Br43 La1 3.226792 1_665
Br43 Sr9 3.352838 1_555
Br43 Sr14 3.389032 1_655
Br44 La4 3.127348 1_555
Br44 Sr10 3.169550 1_555
Br44 Sr14 3.350218 1_555
Br44 Sr15 3.368564 1_555
Br45 La4 3.069608 1_555
Br45 Sr13 3.203170 1_555
Br45 Sr9 3.269753 1_555
Br45 Sr15 3.396737 1_555
Br46 Sr10 3.095175 1_555
Br46 La2 3.119951 1_455
Br46 Sr14 3.375070 1_555
Br46 Sr9 3.388311 1_455
Br47 La9 3.060894 1_555
Br47 La5 3.080585 1_555
Br47 Sr11 3.619012 1_555
Br47 Sr12 3.672411 1_555
Br48 Sr9 3.195017 1_555
Br48 Sr16 3.219990 1_556
Br48 Sr0 3.272644 1_565
Br48 Sr15 3.349162 1_555
Br49 La7 3.058998 1_555
Br49 Sr12 3.309197 1_555
Br49 Sr11 3.332481 1_455
Br49 Sr3 3.427185 1_455
Br50 Sr10 3.061352 1_555
Br50 Sr1 3.274082 1_565
Br50 Sr16 3.276333 1_556
Br50 Sr15 3.306181 1_555
Br51 La7 3.047582 1_555
Br51 La6 3.057037 1_555
Br51 Sr17 3.629060 1_555
Br51 Sr8 3.795608 1_555
Br52 Sr10 3.189488 1_555
Br52 Sr9 3.227498 1_455
Br52 Sr17 3.267670 1_556
Br52 Sr1 3.270224 1_565
Br53 La8 2.999445 1_555
Br53 La6 3.076025 1_555
Br53 Sr16 3.346487 1_555
Br54 Sr13 3.080788 1_555
Br54 La9 3.212434 1_555
Br54 Sr11 3.307003 1_555
Br54 Sr6 3.464209 1_665
Br55 La9 3.199189 1_555
Br55 Sr13 3.250009 1_555
Br55 La0 3.275298 1_565
Br55 Sr12 3.363907 1_555
Br56 La0 2.944303 1_565
Br56 Sr15 3.137318 1_555
Br56 Sr14 3.223209 1_555
Br57 La0 3.221307 1_565
Br57 Sr11 3.286512 1_455
Br57 Sr12 3.317614 1_555
Br57 Sr14 3.413244 1_555
Br58 La8 3.260278 1_555
Br58 Sr2 3.415144 1_565
Br58 La9 3.465307 1_555
Br59 La7 3.020985 1_555
Br59 La9 3.056737 1_555
Br59 Sr12 3.447903 1_555
Br60 La8 3.205684 1_555
Br60 Sr17 3.275300 1_655
Br60 Sr16 3.376852 1_555
Br60 Sr8 3.394165 1_665
Br61 La9 3.025215 1_555
Br61 La8 3.040600 1_555
Br61 Sr3 3.379955 1_565
Br62 La1 2.962806 1_565
Br62 Sr15 3.074936 1_555
Br62 Sr14 3.591007 1_555
Br62 Sr1 3.642540 1_565
Br63 La6 2.983708 1_555
Br63 Sr2 3.134393 1_565
Br63 Sr17 3.389113 1_555
Br64 La7 3.182016 1_555
Br64 La8 3.249383 1_455
Br64 Sr4 3.273875 1_565
Br64 Sr11 3.316591 1_455
Br65 La7 2.986056 1_555
Br65 Sr2 3.086906 1_565
Br65 Sr17 3.252384 1_555
