# generated using pymatgen
data_Fe5(OF4)2
_symmetry_space_group_name_H-M   'P 1'
_cell_length_a   4.81529553
_cell_length_b   4.81529553
_cell_length_c   16.02752787
_cell_angle_alpha   89.76954938
_cell_angle_beta   89.76954938
_cell_angle_gamma   89.46130536
_symmetry_Int_Tables_number   1
_chemical_formula_structural   Fe5(OF4)2
_chemical_formula_sum   'Fe10 O4 F16'
_cell_volume   371.60904615
_cell_formula_units_Z   2
loop_
 _symmetry_equiv_pos_site_id
 _symmetry_equiv_pos_as_xyz
  1  'x, y, z'
loop_
 _atom_site_type_symbol
 _atom_site_label
 _atom_site_symmetry_multiplicity
 _atom_site_fract_x
 _atom_site_fract_y
 _atom_site_fract_z
 _atom_site_occupancy
  Fe  Fe0  1  0.97083000  0.97210100  0.39909200  1
  Fe  Fe1  1  0.02789900  0.02917000  0.60090800  1
  Fe  Fe2  1  0.98400000  0.99660700  0.80760000  1
  Fe  Fe3  1  0.96363500  0.03636500  0.00000000  1
  Fe  Fe4  1  0.00339300  0.01600000  0.19240000  1
  Fe  Fe5  1  0.49933800  0.50066200  0.50000000  1
  Fe  Fe6  1  0.51529500  0.48491600  0.90050100  1
  Fe  Fe7  1  0.48535700  0.48898100  0.69279300  1
  Fe  Fe8  1  0.51508400  0.48470500  0.09949900  1
  Fe  Fe9  1  0.51101900  0.51464300  0.30720700  1
  O  O0  1  0.81066600  0.19631700  0.90221600  1
  O  O1  1  0.80368300  0.18933300  0.09778400  1
  O  O2  1  0.32336500  0.32751700  0.59603800  1
  O  O3  1  0.67248300  0.67663500  0.40396200  1
  F  F0  1  0.79573100  0.20426900  0.50000000  1
  F  F1  1  0.79338800  0.21021200  0.69803500  1
  F  F2  1  0.78978800  0.20661200  0.30196500  1
  F  F3  1  0.29337200  0.29664300  0.40189400  1
  F  F4  1  0.30336600  0.30309500  0.78710200  1
  F  F5  1  0.29618600  0.28746000  0.00035300  1
  F  F6  1  0.31078500  0.31020000  0.21710900  1
  F  F7  1  0.70335700  0.70662800  0.59810600  1
  F  F8  1  0.68980000  0.68921500  0.78289100  1
  F  F9  1  0.71254000  0.70381400  0.99964700  1
  F  F10  1  0.69690500  0.69663400  0.21289800  1
  F  F11  1  0.20260500  0.79739500  0.50000000  1
  F  F12  1  0.20835700  0.78844100  0.90369100  1
  F  F13  1  0.20369300  0.79748100  0.70071200  1
  F  F14  1  0.20251900  0.79630700  0.29928800  1
  F  F15  1  0.21155900  0.79164300  0.09630900  1
loop_
_geom_bond_atom_site_label_1
_geom_bond_atom_site_label_2
_geom_bond_distance
_geom_bond_site_symmetry_2
Fe0 O3 2.032454 1_555
Fe1 O2 2.032454 1_555
Fe2 O0 1.976753 1_565
Fe3 O1 1.892334 1_555
Fe3 O0 1.892336 1_554
Fe4 O1 1.976751 1_455
Fe5 O2 1.942915 1_555
Fe5 O3 1.942915 1_555
Fe6 O0 1.979335 1_555
Fe7 O2 1.910131 1_555
Fe8 O1 1.979338 1_555
Fe9 O3 1.910131 1_555
F0 Fe5 2.008883 1_555
F0 Fe1 2.135946 1_655
F0 Fe0 2.135946 1_545
F1 Fe7 1.992911 1_555
F1 Fe1 2.106363 1_655
F1 Fe2 2.228190 1_545
F2 Fe9 1.992911 1_555
F2 Fe0 2.106363 1_545
F2 Fe4 2.228190 1_655
F3 Fe5 2.112936 1_555
F3 Fe9 2.120967 1_555
F3 Fe0 2.214328 1_445
F4 Fe7 1.961411 1_555
F4 Fe2 2.164643 1_445
F4 Fe6 2.270640 1_555
F5 Fe3 2.015625 1_455
F5 Fe6 2.138102 1_554
F5 Fe8 2.140728 1_555
F6 Fe9 2.006131 1_555
F6 Fe4 2.098419 1_555
F6 Fe8 2.283633 1_555
F7 Fe5 2.112936 1_555
F7 Fe7 2.120967 1_555
F7 Fe1 2.214328 1_665
F8 Fe7 2.006131 1_555
F8 Fe2 2.098419 1_555
F8 Fe6 2.283633 1_555
F9 Fe3 2.015625 1_566
F9 Fe8 2.138102 1_556
F9 Fe6 2.140728 1_555
F10 Fe9 1.961411 1_555
F10 Fe4 2.164643 1_665
F10 Fe8 2.270640 1_555
F11 Fe5 2.011187 1_555
F11 Fe1 2.134226 1_565
F11 Fe0 2.134226 1_455
F12 Fe6 2.069451 1_555
F12 Fe2 2.127070 1_455
F12 Fe3 2.273828 1_466
F13 Fe7 2.006155 1_555
F13 Fe1 2.121031 1_565
F13 Fe2 2.225526 1_455
F14 Fe9 2.006155 1_555
F14 Fe0 2.121031 1_455
F14 Fe4 2.225526 1_565
F15 Fe8 2.069451 1_555
F15 Fe4 2.127070 1_565
F15 Fe3 2.273828 1_465
