# generated using pymatgen
data_Sb
_symmetry_space_group_name_H-M   'P 1'
_cell_length_a   6.70906448
_cell_length_b   6.70906519
_cell_length_c   10.94032130
_cell_angle_alpha   90.00000000
_cell_angle_beta   90.00000000
_cell_angle_gamma   119.99999648
_symmetry_Int_Tables_number   1
_chemical_formula_structural   Sb
_chemical_formula_sum   Sb16
_cell_volume   426.46628380
_cell_formula_units_Z   16
loop_
 _symmetry_equiv_pos_site_id
 _symmetry_equiv_pos_as_xyz
  1  'x, y, z'
loop_
 _atom_site_type_symbol
 _atom_site_label
 _atom_site_symmetry_multiplicity
 _atom_site_fract_x
 _atom_site_fract_y
 _atom_site_fract_z
 _atom_site_occupancy
  Sb  Sb0_0  1  0.16666650  0.33333350  0.12500000  1
  Sb  Sb0_1  1  0.16666650  0.33333350  0.62500000  1
  Sb  Sb0_2  1  0.16666650  0.83333350  0.12500000  1
  Sb  Sb0_3  1  0.16666650  0.83333350  0.62500000  1
  Sb  Sb0_4  1  0.66666650  0.33333350  0.12500000  1
  Sb  Sb0_5  1  0.66666650  0.33333350  0.62500000  1
  Sb  Sb0_6  1  0.66666650  0.83333350  0.12500000  1
  Sb  Sb0_7  1  0.66666650  0.83333350  0.62500000  1
  Sb  Sb1_0  1  0.33333350  0.16666650  0.37500000  1
  Sb  Sb1_1  1  0.33333350  0.16666650  0.87500000  1
  Sb  Sb1_2  1  0.33333350  0.66666650  0.37500000  1
  Sb  Sb1_3  1  0.33333350  0.66666650  0.87500000  1
  Sb  Sb1_4  1  0.83333350  0.16666650  0.37500000  1
  Sb  Sb1_5  1  0.83333350  0.16666650  0.87500000  1
  Sb  Sb1_6  1  0.83333350  0.66666650  0.37500000  1
  Sb  Sb1_7  1  0.83333350  0.66666650  0.87500000  1
loop_
_geom_bond_atom_site_label_1
_geom_bond_atom_site_label_2
_geom_bond_distance
_geom_bond_site_symmetry_2
Sb0_0 Sb1_5 3.351361 1_454
Sb0_0 Sb1_4 3.351361 1_455
Sb0_0 Sb1_2 3.351361 1_555
Sb0_0 Sb1_3 3.351361 1_554
Sb0_0 Sb1_0 3.351364 1_555
Sb0_0 Sb1_1 3.351364 1_554
Sb0_0 Sb0_4 3.354532 1_555
Sb0_0 Sb0_4 3.354532 1_455
Sb0_0 Sb0_2 3.354533 1_555
Sb0_0 Sb0_6 3.354533 1_555
Sb0_0 Sb0_6 3.354533 1_445
Sb0_0 Sb0_2 3.354533 1_545
Sb0_1 Sb1_5 3.351361 1_455
Sb0_1 Sb1_4 3.351361 1_455
Sb0_1 Sb1_2 3.351361 1_555
Sb0_1 Sb1_3 3.351361 1_555
Sb0_1 Sb1_0 3.351364 1_555
Sb0_1 Sb1_1 3.351364 1_555
Sb0_1 Sb0_5 3.354532 1_555
Sb0_1 Sb0_5 3.354532 1_455
Sb0_1 Sb0_3 3.354533 1_555
Sb0_1 Sb0_7 3.354533 1_555
Sb0_1 Sb0_3 3.354533 1_545
Sb0_1 Sb0_7 3.354533 1_445
Sb0_2 Sb1_6 3.351361 1_455
Sb0_2 Sb1_7 3.351361 1_454
Sb0_2 Sb1_0 3.351361 1_565
Sb0_2 Sb1_1 3.351361 1_564
Sb0_2 Sb1_3 3.351364 1_554
Sb0_2 Sb1_2 3.351364 1_555
Sb0_2 Sb0_6 3.354532 1_455
Sb0_2 Sb0_6 3.354532 1_555
Sb0_2 Sb0_4 3.354533 1_455
Sb0_2 Sb0_4 3.354533 1_565
Sb0_3 Sb1_7 3.351361 1_455
Sb0_3 Sb1_6 3.351361 1_455
Sb0_3 Sb1_0 3.351361 1_565
Sb0_3 Sb1_1 3.351361 1_565
Sb0_3 Sb1_3 3.351364 1_555
Sb0_3 Sb1_2 3.351364 1_555
Sb0_3 Sb0_7 3.354532 1_555
Sb0_3 Sb0_7 3.354532 1_455
Sb0_3 Sb0_5 3.354533 1_455
Sb0_3 Sb0_5 3.354533 1_565
Sb0_4 Sb1_1 3.351361 1_554
Sb0_4 Sb1_0 3.351361 1_555
Sb0_4 Sb1_7 3.351361 1_554
Sb0_4 Sb1_6 3.351361 1_555
Sb0_4 Sb1_5 3.351364 1_554
Sb0_4 Sb1_4 3.351364 1_555
Sb0_4 Sb0_6 3.354533 1_555
Sb0_4 Sb0_6 3.354533 1_545
Sb0_5 Sb1_1 3.351361 1_555
Sb0_5 Sb1_0 3.351361 1_555
Sb0_5 Sb1_6 3.351361 1_555
Sb0_5 Sb1_7 3.351361 1_555
Sb0_5 Sb1_5 3.351364 1_555
Sb0_5 Sb1_4 3.351364 1_555
Sb0_5 Sb0_7 3.354533 1_555
Sb0_5 Sb0_7 3.354533 1_545
Sb0_6 Sb1_2 3.351361 1_555
Sb0_6 Sb1_3 3.351361 1_554
Sb0_6 Sb1_5 3.351361 1_564
Sb0_6 Sb1_4 3.351361 1_565
Sb0_6 Sb1_6 3.351364 1_555
Sb0_6 Sb1_7 3.351364 1_554
Sb0_7 Sb1_3 3.351361 1_555
Sb0_7 Sb1_2 3.351361 1_555
Sb0_7 Sb1_5 3.351361 1_565
Sb0_7 Sb1_4 3.351361 1_565
Sb0_7 Sb1_6 3.351364 1_555
Sb0_7 Sb1_7 3.351364 1_555
Sb1_0 Sb1_4 3.354532 1_455
Sb1_0 Sb1_4 3.354532 1_555
Sb1_0 Sb1_2 3.354533 1_545
Sb1_0 Sb1_2 3.354533 1_555
Sb1_0 Sb1_6 3.354533 1_555
Sb1_0 Sb1_6 3.354533 1_445
Sb1_1 Sb1_5 3.354532 1_555
Sb1_1 Sb1_5 3.354532 1_455
Sb1_1 Sb1_3 3.354533 1_545
Sb1_1 Sb1_7 3.354533 1_445
Sb1_1 Sb1_3 3.354533 1_555
Sb1_1 Sb1_7 3.354533 1_555
Sb1_2 Sb1_6 3.354532 1_455
Sb1_2 Sb1_6 3.354532 1_555
Sb1_2 Sb1_4 3.354533 1_565
Sb1_2 Sb1_4 3.354533 1_455
Sb1_3 Sb1_7 3.354532 1_455
Sb1_3 Sb1_7 3.354532 1_555
Sb1_3 Sb1_5 3.354533 1_565
Sb1_3 Sb1_5 3.354533 1_455
Sb1_4 Sb1_6 3.354533 1_545
Sb1_4 Sb1_6 3.354533 1_555
Sb1_5 Sb1_7 3.354533 1_545
Sb1_5 Sb1_7 3.354533 1_555
