# generated using pymatgen
data_LiMnBO3
_symmetry_space_group_name_H-M   'P 1'
_cell_length_a   9.11028800
_cell_length_b   10.53791300
_cell_length_c   10.55146971
_cell_angle_alpha   87.78837529
_cell_angle_beta   90.00000000
_cell_angle_gamma   90.00000000
_symmetry_Int_Tables_number   1
_chemical_formula_structural   LiMnBO3
_chemical_formula_sum   'Li16 Mn16 B16 O48'
_cell_volume   1012.22264391
_cell_formula_units_Z   16
loop_
 _symmetry_equiv_pos_site_id
 _symmetry_equiv_pos_as_xyz
  1  'x, y, z'
loop_
 _atom_site_type_symbol
 _atom_site_label
 _atom_site_symmetry_multiplicity
 _atom_site_fract_x
 _atom_site_fract_y
 _atom_site_fract_z
 _atom_site_occupancy
  Li  Li0  1  0.73735300  0.16168700  0.54238700  1
  Li  Li1  1  0.76264700  0.66168700  0.54238700  1
  Li  Li2  1  0.23735300  0.33831300  0.45761300  1
  Li  Li3  1  0.26264700  0.83831300  0.45761300  1
  Li  Li4  1  0.25539800  0.09021100  0.29548400  1
  Li  Li5  1  0.24460200  0.59021100  0.29548400  1
  Li  Li6  1  0.73939800  0.33902000  0.20729700  1
  Li  Li7  1  0.76060200  0.83902000  0.20729700  1
  Li  Li8  1  0.75605000  0.08998900  0.04611800  1
  Li  Li9  1  0.74395000  0.58998900  0.04611800  1
  Li  Li10  1  0.25605000  0.41001100  0.95388200  1
  Li  Li11  1  0.24395000  0.91001100  0.95388200  1
  Li  Li12  1  0.23939800  0.16098000  0.79270300  1
  Li  Li13  1  0.26060200  0.66098000  0.79270300  1
  Li  Li14  1  0.75539800  0.40978900  0.70451600  1
  Li  Li15  1  0.74460200  0.90978900  0.70451600  1
  Mn  Mn0  1  0.41317500  0.11941500  0.54700400  1
  Mn  Mn1  1  0.08682500  0.61941500  0.54700400  1
  Mn  Mn2  1  0.91317500  0.38058500  0.45299600  1
  Mn  Mn3  1  0.58682500  0.88058500  0.45299600  1
  Mn  Mn4  1  0.91699600  0.12235600  0.29609300  1
  Mn  Mn5  1  0.58300400  0.62235600  0.29609300  1
  Mn  Mn6  1  0.41261600  0.37271700  0.20892800  1
  Mn  Mn7  1  0.08738400  0.87271700  0.20892800  1
  Mn  Mn8  1  0.41596200  0.13019200  0.03992000  1
  Mn  Mn9  1  0.08403800  0.63019200  0.03992000  1
  Mn  Mn10  1  0.91596200  0.36980800  0.96008000  1
  Mn  Mn11  1  0.58403800  0.86980800  0.96008000  1
  Mn  Mn12  1  0.91261600  0.12728300  0.79107200  1
  Mn  Mn13  1  0.58738400  0.62728300  0.79107200  1
  Mn  Mn14  1  0.41699600  0.37764400  0.70390700  1
  Mn  Mn15  1  0.08300400  0.87764400  0.70390700  1
  B  B0  1  0.08016600  0.13014500  0.54189300  1
  B  B1  1  0.41983400  0.63014500  0.54189300  1
  B  B2  1  0.58016600  0.36985500  0.45810700  1
  B  B3  1  0.91983400  0.86985500  0.45810700  1
  B  B4  1  0.58074200  0.13113600  0.29153400  1
  B  B5  1  0.91925800  0.63113600  0.29153400  1
  B  B6  1  0.08096700  0.38079800  0.20876200  1
  B  B7  1  0.41903300  0.88079800  0.20876200  1
  B  B8  1  0.08156000  0.11980900  0.04111600  1
  B  B9  1  0.41844000  0.61980900  0.04111600  1
  B  B10  1  0.58156000  0.38019100  0.95888400  1
  B  B11  1  0.91844000  0.88019100  0.95888400  1
  B  B12  1  0.58096700  0.11920200  0.79123800  1
  B  B13  1  0.91903300  0.61920200  0.79123800  1
  B  B14  1  0.08074200  0.36886400  0.70846600  1
  B  B15  1  0.41925800  0.86886400  0.70846600  1
  O  O0  1  0.08983300  0.40958100  0.58077800  1
  O  O1  1  0.41016700  0.90958100  0.58077800  1
  O  O2  1  0.70501800  0.35576300  0.53232100  1
  O  O3  1  0.79498200  0.85576300  0.53232100  1
  O  O4  1  0.44276100  0.33995100  0.50965800  1
  O  O5  1  0.05723900  0.83995100  0.50965800  1
  O  O6  1  0.94276100  0.16004900  0.49034200  1
  O  O7  1  0.55723900  0.66004900  0.49034200  1
  O  O8  1  0.20501800  0.14423700  0.46767900  1
  O  O9  1  0.29498200  0.64423700  0.46767900  1
  O  O10  1  0.58983300  0.09041900  0.41922200  1
  O  O11  1  0.91016700  0.59041900  0.41922200  1
  O  O12  1  0.59222700  0.40991300  0.33014400  1
  O  O13  1  0.90777300  0.90991300  0.33014400  1
  O  O14  1  0.20270200  0.39457900  0.28584800  1
  O  O15  1  0.29729800  0.89457900  0.28584800  1
  O  O16  1  0.94660000  0.34032500  0.26027500  1
  O  O17  1  0.55340000  0.84032500  0.26027500  1
  O  O18  1  0.44360200  0.16127200  0.23789600  1
  O  O19  1  0.70660700  0.14538400  0.21876100  1
  O  O20  1  0.05639800  0.66127200  0.23789600  1
  O  O21  1  0.79339300  0.64538400  0.21876100  1
  O  O22  1  0.08999100  0.08793100  0.17057500  1
  O  O23  1  0.41000900  0.58793100  0.17057500  1
  O  O24  1  0.09206400  0.41151100  0.07891900  1
  O  O25  1  0.40793600  0.91151100  0.07891900  1
  O  O26  1  0.70446300  0.39264300  0.03478100  1
  O  O27  1  0.79553700  0.89264300  0.03478100  1
  O  O28  1  0.44706600  0.34026800  0.01217600  1
  O  O29  1  0.05293400  0.84026800  0.01217600  1
  O  O30  1  0.94706600  0.15973200  0.98782400  1
  O  O31  1  0.55293400  0.65973200  0.98782400  1
  O  O32  1  0.20446300  0.10735700  0.96521900  1
  O  O33  1  0.29553700  0.60735700  0.96521900  1
  O  O34  1  0.59206400  0.08848900  0.92108100  1
  O  O35  1  0.90793600  0.58848900  0.92108100  1
  O  O36  1  0.58999100  0.41206900  0.82942500  1
  O  O37  1  0.91000900  0.91206900  0.82942500  1
  O  O38  1  0.20660700  0.35461600  0.78123900  1
  O  O39  1  0.94360200  0.33872800  0.76210400  1
  O  O40  1  0.29339300  0.85461600  0.78123900  1
  O  O41  1  0.55639800  0.83872800  0.76210400  1
  O  O42  1  0.44660000  0.15967500  0.73972500  1
  O  O43  1  0.05340000  0.65967500  0.73972500  1
  O  O44  1  0.70270200  0.10542100  0.71415200  1
  O  O45  1  0.79729800  0.60542100  0.71415200  1
  O  O46  1  0.09222700  0.09008700  0.66985600  1
  O  O47  1  0.40777300  0.59008700  0.66985600  1
loop_
_geom_bond_atom_site_label_1
_geom_bond_atom_site_label_2
_geom_bond_distance
_geom_bond_site_symmetry_2
Li0 O44 1.911275 1_555
Li0 O6 1.950502 1_555
Li0 O10 2.033333 1_555
Li0 O2 2.064935 1_555
Li1 O45 1.911275 1_555
Li1 O7 1.950502 1_555
Li1 O11 2.033333 1_555
Li1 O3 2.064935 1_555
Li2 O14 1.911275 1_555
Li2 O4 1.950502 1_555
Li2 O0 2.033333 1_555
Li2 O8 2.064935 1_555
Li3 O15 1.911275 1_555
Li3 O5 1.950502 1_555
Li3 O1 2.033333 1_555
Li3 O9 2.064935 1_555
Li4 O18 1.958235 1_555
Li4 O8 1.978834 1_555
Li4 O22 2.002708 1_555
Li4 O15 2.102909 1_545
Li5 O20 1.958235 1_555
Li5 O9 1.978834 1_555
Li5 O23 2.002708 1_555
Li5 O14 2.102909 1_555
Li6 O26 1.911726 1_555
Li6 O16 1.968897 1_555
Li6 O12 2.027483 1_555
Li6 O19 2.061200 1_555
Li7 O27 1.911726 1_555
Li7 O17 1.968897 1_555
Li7 O13 2.027483 1_555
Li7 O21 2.061200 1_555
Li8 O30 1.977858 1_554
Li8 O19 1.985974 1_555
Li8 O34 1.993587 1_554
Li8 O27 2.118424 1_545
Li9 O31 1.977858 1_554
Li9 O21 1.985974 1_555
Li9 O35 1.993587 1_554
Li9 O26 2.118424 1_555
Li10 O28 1.977858 1_556
Li10 O38 1.985974 1_555
Li10 O24 1.993587 1_556
Li10 O33 2.118424 1_555
Li11 O29 1.977858 1_556
Li11 O40 1.985974 1_555
Li11 O25 1.993587 1_556
Li11 O32 2.118424 1_565
Li12 O32 1.911726 1_555
Li12 O42 1.968897 1_555
Li12 O46 2.027483 1_555
Li12 O38 2.061200 1_555
Li13 O33 1.911726 1_555
Li13 O43 1.968897 1_555
Li13 O47 2.027483 1_555
Li13 O40 2.061200 1_555
Li14 O39 1.958235 1_555
Li14 O2 1.978834 1_555
Li14 O36 2.002708 1_555
Li14 O45 2.102909 1_555
Li15 O41 1.958235 1_555
Li15 O3 1.978834 1_555
Li15 O37 2.002708 1_555
Li15 O44 2.102909 1_565
Mn0 O8 2.085259 1_555
Mn0 O42 2.115275 1_555
Mn0 O10 2.129138 1_555
Mn0 O1 2.226295 1_545
Mn0 O4 2.357578 1_555
Mn1 O9 2.085259 1_555
Mn1 O43 2.115275 1_555
Mn1 O11 2.129138 1_455
Mn1 O0 2.226295 1_555
Mn1 O5 2.357578 1_555
Mn2 O2 2.085259 1_555
Mn2 O16 2.115275 1_555
Mn2 O0 2.129138 1_655
Mn2 O11 2.226295 1_555
Mn2 O6 2.357578 1_555
Mn3 O3 2.085259 1_555
Mn3 O17 2.115275 1_555
Mn3 O1 2.129138 1_555
Mn3 O10 2.226295 1_565
Mn3 O7 2.357578 1_555
Mn4 O19 2.093600 1_555
Mn4 O22 2.099190 1_655
Mn4 O6 2.115801 1_555
Mn4 O13 2.255188 1_545
Mn4 O16 2.329055 1_555
Mn5 O21 2.093600 1_555
Mn5 O23 2.099190 1_555
Mn5 O7 2.115801 1_555
Mn5 O12 2.255188 1_555
Mn5 O17 2.329055 1_555
Mn6 O14 2.093661 1_555
Mn6 O12 2.122662 1_555
Mn6 O28 2.140114 1_555
Mn6 O18 2.255078 1_555
Mn6 O23 2.288426 1_555
Mn7 O15 2.093661 1_555
Mn7 O13 2.122662 1_455
Mn7 O29 2.140114 1_555
Mn7 O20 2.255078 1_555
Mn7 O22 2.288426 1_565
Mn8 O34 2.093298 1_554
Mn8 O32 2.099151 1_554
Mn8 O18 2.141761 1_555
Mn8 O28 2.239804 1_555
Mn8 O25 2.326357 1_545
Mn9 O35 2.093298 1_454
Mn9 O33 2.099151 1_554
Mn9 O20 2.141761 1_555
Mn9 O29 2.239804 1_555
Mn9 O24 2.326357 1_555
Mn10 O24 2.093298 1_656
Mn10 O26 2.099151 1_556
Mn10 O39 2.141761 1_555
Mn10 O30 2.239804 1_555
Mn10 O35 2.326357 1_555
Mn11 O25 2.093298 1_556
Mn11 O27 2.099151 1_556
Mn11 O41 2.141761 1_555
Mn11 O31 2.239804 1_555
Mn11 O34 2.326357 1_565
Mn12 O44 2.093661 1_555
Mn12 O46 2.122662 1_655
Mn12 O30 2.140114 1_555
Mn12 O39 2.255078 1_555
Mn12 O37 2.288426 1_545
Mn13 O45 2.093661 1_555
Mn13 O47 2.122662 1_555
Mn13 O31 2.140114 1_555
Mn13 O41 2.255078 1_555
Mn13 O36 2.288426 1_555
Mn14 O38 2.093600 1_555
Mn14 O36 2.099190 1_555
Mn14 O4 2.115801 1_555
Mn14 O47 2.255188 1_555
Mn14 O42 2.329055 1_555
Mn15 O40 2.093600 1_555
Mn15 O37 2.099190 1_455
Mn15 O5 2.115801 1_555
Mn15 O46 2.255188 1_565
Mn15 O43 2.329055 1_555
B0 O8 1.385653 1_555
B0 O6 1.396046 1_455
B0 O46 1.403321 1_555
B1 O9 1.385653 1_555
B1 O7 1.396046 1_555
B1 O47 1.403321 1_555
B2 O2 1.385653 1_555
B2 O4 1.396046 1_555
B2 O12 1.403321 1_555
B3 O3 1.385653 1_555
B3 O5 1.396046 1_655
B3 O13 1.403321 1_555
B4 O19 1.384955 1_555
B4 O10 1.400554 1_555
B4 O18 1.402944 1_555
B5 O21 1.384955 1_555
B5 O11 1.400554 1_555
B5 O20 1.402944 1_655
B6 O14 1.386272 1_555
B6 O24 1.399193 1_555
B6 O16 1.399257 1_455
B7 O15 1.386272 1_555
B7 O25 1.399193 1_555
B7 O17 1.399257 1_555
B8 O32 1.385762 1_554
B8 O22 1.396152 1_555
B8 O30 1.405786 1_454
B9 O33 1.385762 1_554
B9 O23 1.396152 1_555
B9 O31 1.405786 1_554
B10 O26 1.385762 1_556
B10 O36 1.396152 1_555
B10 O28 1.405786 1_556
B11 O27 1.385762 1_556
B11 O37 1.396152 1_555
B11 O29 1.405786 1_656
B12 O44 1.386272 1_555
B12 O34 1.399193 1_555
B12 O42 1.399257 1_555
B13 O45 1.386272 1_555
B13 O35 1.399193 1_555
B13 O43 1.399257 1_655
B14 O38 1.384955 1_555
B14 O0 1.400554 1_555
B14 O39 1.402944 1_455
B15 O40 1.384955 1_555
B15 O1 1.400554 1_555
B15 O41 1.402944 1_555
