# generated using pymatgen
data_Li3Mn2(P2O7)2
_symmetry_space_group_name_H-M   'P 1'
_cell_length_a   9.84453300
_cell_length_b   9.83156200
_cell_length_c   11.37968344
_cell_angle_alpha   76.78841345
_cell_angle_beta   90.00000000
_cell_angle_gamma   90.00000000
_symmetry_Int_Tables_number   1
_chemical_formula_structural   Li3Mn2(P2O7)2
_chemical_formula_sum   'Li12 Mn8 P16 O56'
_cell_volume   1072.25571155
_cell_formula_units_Z   4
loop_
 _symmetry_equiv_pos_site_id
 _symmetry_equiv_pos_as_xyz
  1  'x, y, z'
loop_
 _atom_site_type_symbol
 _atom_site_label
 _atom_site_symmetry_multiplicity
 _atom_site_fract_x
 _atom_site_fract_y
 _atom_site_fract_z
 _atom_site_occupancy
  Li  Li0  1  0.68857400  0.15772400  0.46655400  1
  Li  Li1  1  0.35597400  0.08763700  0.97359800  1
  Li  Li2  1  0.65786000  0.14996900  0.95876100  1
  Li  Li3  1  0.85948800  0.41155900  0.02989100  1
  Li  Li4  1  0.16133900  0.32817100  0.54751300  1
  Li  Li5  1  0.47196000  0.38643000  0.44826300  1
  Li  Li6  1  0.31142600  0.65772400  0.46655400  1
  Li  Li7  1  0.64402600  0.58763700  0.97359800  1
  Li  Li8  1  0.34214000  0.64996900  0.95876100  1
  Li  Li9  1  0.14051200  0.91155900  0.02989100  1
  Li  Li10  1  0.83866100  0.82817100  0.54751300  1
  Li  Li11  1  0.52804000  0.88643000  0.44826300  1
  Mn  Mn0  1  0.16852300  0.20527900  0.32281600  1
  Mn  Mn1  1  0.46264800  0.25401700  0.17701100  1
  Mn  Mn2  1  0.96688000  0.23899800  0.82668400  1
  Mn  Mn3  1  0.67737500  0.29803900  0.67307300  1
  Mn  Mn4  1  0.83147700  0.70527900  0.32281600  1
  Mn  Mn5  1  0.53735200  0.75401700  0.17701100  1
  Mn  Mn6  1  0.03312000  0.73899800  0.82668400  1
  Mn  Mn7  1  0.32262500  0.79803900  0.67307300  1
  P  P0  1  0.70331300  0.02216000  0.24309100  1
  P  P1  1  0.96043800  0.11818000  0.11148800  1
  P  P2  1  0.18126700  0.06074400  0.75907600  1
  P  P3  1  0.39929700  0.12371400  0.57324900  1
  P  P4  1  0.89875600  0.38146500  0.41978400  1
  P  P5  1  0.68096000  0.43725300  0.24269900  1
  P  P6  1  0.29668700  0.52216000  0.24309100  1
  P  P7  1  0.45801200  0.38113600  0.89143700  1
  P  P8  1  0.03956200  0.61818000  0.11148800  1
  P  P9  1  0.19888400  0.47365300  0.75410300  1
  P  P10  1  0.81873300  0.56074400  0.75907600  1
  P  P11  1  0.60070300  0.62371400  0.57324900  1
  P  P12  1  0.10124400  0.88146500  0.41978400  1
  P  P13  1  0.31904000  0.93725300  0.24269900  1
  P  P14  1  0.54198800  0.88113600  0.89143700  1
  P  P15  1  0.80111600  0.97365300  0.75410300  1
  O  O0  1  0.66315700  0.02534500  0.37064300  1
  O  O1  1  0.09747100  0.03728100  0.42758000  1
  O  O2  1  0.33346800  0.08377600  0.27079300  1
  O  O3  1  0.60792300  0.10258100  0.14487400  1
  O  O4  1  0.84739400  0.09707600  0.21986600  1
  O  O5  1  0.07704300  0.18520900  0.16595000  1
  O  O6  1  0.89274200  0.22453000  0.00028700  1
  O  O7  1  0.52307500  0.02225900  0.92019800  1
  O  O8  1  0.32749600  0.11661800  0.70294400  1
  O  O9  1  0.18845100  0.05945200  0.89157300  1
  O  O10  1  0.79681800  0.12171100  0.78890000  1
  O  O11  1  0.53944800  0.18868100  0.58127500  1
  O  O12  1  0.07544800  0.17337100  0.69819800  1
  O  O13  1  0.31159200  0.22434600  0.48011100  1
  O  O14  1  0.81217700  0.29044700  0.51753800  1
  O  O15  1  0.57317100  0.33496300  0.31089000  1
  O  O16  1  0.04293000  0.32652000  0.41036900  1
  O  O17  1  0.28266100  0.36714800  0.22786700  1
  O  O18  1  0.82769500  0.37691500  0.29256200  1
  O  O19  1  0.68295300  0.43486300  0.11031600  1
  O  O20  1  0.01725500  0.48163000  0.07928600  1
  O  O21  1  0.40069700  0.27178700  0.99912500  1
  O  O22  1  0.58217600  0.32054100  0.83939800  1
  O  O23  1  0.34582100  0.40267100  0.78377000  1
  O  O24  1  0.84262800  0.41692800  0.72924500  1
  O  O25  1  0.09714700  0.38502400  0.84358100  1
  O  O26  1  0.33684300  0.52534500  0.37064300  1
  O  O27  1  0.59005900  0.47487700  0.55584900  1
  O  O28  1  0.90252900  0.53728100  0.42758000  1
  O  O29  1  0.17885800  0.48252600  0.62225400  1
  O  O30  1  0.39207700  0.60258100  0.14487400  1
  O  O31  1  0.66653200  0.58377600  0.27079300  1
  O  O32  1  0.15260600  0.59707600  0.21986600  1
  O  O33  1  0.92295700  0.68520900  0.16595000  1
  O  O34  1  0.10725800  0.72453000  0.00028700  1
  O  O35  1  0.47692500  0.52225900  0.92019800  1
  O  O36  1  0.81154900  0.55945200  0.89157300  1
  O  O37  1  0.67250400  0.61661800  0.70294400  1
  O  O38  1  0.20318200  0.62171100  0.78890000  1
  O  O39  1  0.46055200  0.68868100  0.58127500  1
  O  O40  1  0.92455200  0.67337100  0.69819800  1
  O  O41  1  0.68840800  0.72434600  0.48011100  1
  O  O42  1  0.18782300  0.79044700  0.51753800  1
  O  O43  1  0.42682900  0.83496300  0.31089000  1
  O  O44  1  0.95707000  0.82652000  0.41036900  1
  O  O45  1  0.71733900  0.86714800  0.22786700  1
  O  O46  1  0.31704700  0.93486300  0.11031600  1
  O  O47  1  0.17230500  0.87691500  0.29256200  1
  O  O48  1  0.98274500  0.98163000  0.07928600  1
  O  O49  1  0.59930300  0.77178700  0.99912500  1
  O  O50  1  0.41782400  0.82054100  0.83939800  1
  O  O51  1  0.65417900  0.90267100  0.78377000  1
  O  O52  1  0.90285300  0.88502400  0.84358100  1
  O  O53  1  0.15737200  0.91692800  0.72924500  1
  O  O54  1  0.40994100  0.97487700  0.55584900  1
  O  O55  1  0.82114200  0.98252600  0.62225400  1
loop_
_geom_bond_atom_site_label_1
_geom_bond_atom_site_label_2
_geom_bond_distance
_geom_bond_site_symmetry_2
Li0 O0 1.896583 1_555
Li0 O14 1.966213 1_555
Li0 O11 2.033175 1_555
Li0 O15 2.460503 1_555
Li0 O55 2.532673 1_545
Li1 O7 1.914964 1_555
Li1 O46 1.937850 1_546
Li1 O9 1.945790 1_555
Li1 O21 1.948454 1_555
Li2 O7 1.944631 1_555
Li2 O22 2.042360 1_555
Li2 O3 2.119726 1_556
Li2 O10 2.435234 1_555
Li2 O6 2.503150 1_556
Li3 O20 1.838424 1_655
Li3 O36 1.941208 1_554
Li3 O6 1.971028 1_555
Li3 O19 2.001566 1_555
Li4 O29 1.909473 1_555
Li4 O16 1.950974 1_555
Li4 O13 2.043548 1_555
Li4 O12 2.186022 1_555
Li5 O26 1.965552 1_555
Li5 O15 2.013493 1_555
Li5 O27 2.023213 1_555
Li5 O13 2.213408 1_555
Li5 O11 2.273150 1_555
Li6 O26 1.896583 1_555
Li6 O42 1.966213 1_555
Li6 O39 2.033175 1_555
Li6 O43 2.460503 1_555
Li6 O29 2.532673 1_555
Li7 O35 1.914964 1_555
Li7 O19 1.937850 1_556
Li7 O36 1.945790 1_555
Li7 O49 1.948454 1_555
Li8 O35 1.944631 1_555
Li8 O50 2.042360 1_555
Li8 O30 2.119726 1_556
Li8 O38 2.435234 1_555
Li8 O34 2.503150 1_556
Li9 O48 1.838424 1_455
Li9 O9 1.941208 1_564
Li9 O34 1.971028 1_555
Li9 O46 2.001566 1_555
Li10 O55 1.909473 1_555
Li10 O44 1.950974 1_555
Li10 O41 2.043548 1_555
Li10 O40 2.186022 1_555
Li11 O0 1.965552 1_565
Li11 O43 2.013493 1_555
Li11 O54 2.023213 1_555
Li11 O41 2.213408 1_555
Li11 O39 2.273150 1_555
Mn0 O1 1.933532 1_555
Mn0 O17 2.043689 1_555
Mn0 O5 2.048782 1_555
Mn0 O16 2.117793 1_555
Mn0 O2 2.176569 1_555
Mn0 O13 2.318669 1_555
Mn1 O21 2.082920 1_554
Mn1 O3 2.155151 1_555
Mn1 O15 2.166204 1_555
Mn1 O2 2.177410 1_555
Mn1 O17 2.237375 1_555
Mn2 O25 1.966947 1_655
Mn2 O12 2.031670 1_655
Mn2 O6 2.080207 1_556
Mn2 O10 2.131680 1_555
Mn2 O24 2.213424 1_555
Mn3 O27 2.116829 1_555
Mn3 O11 2.145764 1_555
Mn3 O22 2.168197 1_555
Mn3 O24 2.182424 1_555
Mn3 O14 2.227047 1_555
Mn3 O10 2.254065 1_555
Mn4 O28 1.933532 1_555
Mn4 O45 2.043689 1_555
Mn4 O33 2.048782 1_555
Mn4 O44 2.117793 1_555
Mn4 O31 2.176569 1_555
Mn4 O41 2.318669 1_555
Mn5 O49 2.082920 1_554
Mn5 O30 2.155151 1_555
Mn5 O43 2.166204 1_555
Mn5 O31 2.177410 1_555
Mn5 O45 2.237375 1_555
Mn6 O52 1.966947 1_455
Mn6 O40 2.031670 1_455
Mn6 O34 2.080207 1_556
Mn6 O38 2.131680 1_555
Mn6 O53 2.213424 1_555
Mn7 O54 2.116829 1_555
Mn7 O39 2.145764 1_555
Mn7 O50 2.168197 1_555
Mn7 O53 2.182424 1_555
Mn7 O42 2.227047 1_555
Mn7 O38 2.254065 1_555
O0 P0 1.511585 1_555
O1 P12 1.555035 1_545
O2 P13 1.551799 1_545
O3 P0 1.533711 1_555
O4 P0 1.592247 1_555
O4 P1 1.638780 1_555
O5 P1 1.524072 1_455
O6 P1 1.591827 1_555
O7 P14 1.508111 1_545
O8 P2 1.619170 1_555
O8 P3 1.623478 1_555
O9 P2 1.506583 1_555
O10 P15 1.594037 1_545
O11 P3 1.531865 1_555
O12 P2 1.562250 1_555
O13 P3 1.538950 1_555
O14 P4 1.519758 1_555
O15 P5 1.543640 1_555
O16 P4 1.531088 1_455
O17 P6 1.578725 1_555
O18 P5 1.614529 1_555
O18 P4 1.617702 1_555
O19 P5 1.512147 1_555
O20 P8 1.486501 1_555
O21 P7 1.540677 1_555
O22 P7 1.536542 1_555
O23 P9 1.608022 1_555
O23 P7 1.627040 1_555
O24 P10 1.545700 1_555
O25 P9 1.547132 1_555
O26 P6 1.511585 1_555
O27 P11 1.524426 1_555
O28 P4 1.555035 1_555
O29 P9 1.495944 1_555
O30 P6 1.533711 1_555
O31 P5 1.551799 1_555
O32 P6 1.592247 1_555
O32 P8 1.638780 1_555
O33 P8 1.524072 1_655
O34 P8 1.591827 1_555
O35 P7 1.508111 1_555
O36 P10 1.506583 1_555
O37 P10 1.619170 1_555
O37 P11 1.623478 1_555
O38 P9 1.594037 1_555
O39 P11 1.531865 1_555
O40 P10 1.562250 1_555
O41 P11 1.538950 1_555
O42 P12 1.519758 1_555
O43 P13 1.543640 1_555
O44 P12 1.531088 1_655
O45 P0 1.578725 1_565
O46 P13 1.512147 1_555
O47 P13 1.614529 1_555
O47 P12 1.617702 1_555
O48 P1 1.486501 1_565
O49 P14 1.540677 1_555
O50 P14 1.536542 1_555
O51 P15 1.608022 1_555
O51 P14 1.627040 1_555
O52 P15 1.547132 1_555
O53 P2 1.545700 1_565
O54 P3 1.524426 1_565
O55 P15 1.495944 1_555
