# generated using pymatgen
data_Hf2CoIr
_symmetry_space_group_name_H-M   'P 1'
_cell_length_a   4.55865154
_cell_length_b   4.55865227
_cell_length_c   4.55865227
_cell_angle_alpha   60.00003171
_cell_angle_beta   60.00000529
_cell_angle_gamma   60.00000529
_symmetry_Int_Tables_number   1
_chemical_formula_structural   Hf2CoIr
_chemical_formula_sum   'Hf2 Co1 Ir1'
_cell_volume   66.98760794
_cell_formula_units_Z   1
loop_
 _symmetry_equiv_pos_site_id
 _symmetry_equiv_pos_as_xyz
  1  'x, y, z'
loop_
 _atom_site_type_symbol
 _atom_site_label
 _atom_site_symmetry_multiplicity
 _atom_site_fract_x
 _atom_site_fract_y
 _atom_site_fract_z
 _atom_site_occupancy
  Hf  Hf0  1  -0.00000000  0.00000000  0.00000000  1
  Hf  Hf1  1  0.50000100  0.50000100  0.50000100  1
  Co  Co0  1  0.25000000  0.25000000  0.25000000  1
  Ir  Ir0  1  0.74999900  0.74999900  0.74999900  1
loop_
_geom_bond_atom_site_label_1
_geom_bond_atom_site_label_2
_geom_bond_distance
_geom_bond_site_symmetry_2
Hf0 Ir0 2.791589 1_544
Hf0 Ir0 2.791590 1_454
Hf0 Ir0 2.791590 1_445
Hf0 Ir0 2.791604 1_444
Hf1 Ir0 2.791570 1_555
Hf1 Ir0 2.791600 1_455
Hf1 Ir0 2.791601 1_554
Hf1 Ir0 2.791601 1_545
Co0 Hf1 2.791589 1_455
Co0 Hf1 2.791590 1_545
Co0 Hf1 2.791590 1_554
Co0 Hf0 2.791593 1_655
Co0 Hf0 2.791593 1_555
Co0 Hf0 2.791594 1_556
Co0 Hf0 2.791594 1_565
Co0 Hf1 2.791604 1_555
