# generated using pymatgen
data_CaBiO3
_symmetry_space_group_name_H-M   'P 1'
_cell_length_a   6.16658015
_cell_length_b   6.16658015
_cell_length_c   6.16658002
_cell_angle_alpha   57.57400680
_cell_angle_beta   57.57400680
_cell_angle_gamma   57.57401102
_symmetry_Int_Tables_number   1
_chemical_formula_structural   CaBiO3
_chemical_formula_sum   'Ca2 Bi2 O6'
_cell_volume   156.56459992
_cell_formula_units_Z   2
loop_
 _symmetry_equiv_pos_site_id
 _symmetry_equiv_pos_as_xyz
  1  'x, y, z'
loop_
 _atom_site_type_symbol
 _atom_site_label
 _atom_site_symmetry_multiplicity
 _atom_site_fract_x
 _atom_site_fract_y
 _atom_site_fract_z
 _atom_site_occupancy
  Ca  Ca0  1  0.86238600  0.86238600  0.86238600  1
  Ca  Ca1  1  0.13761400  0.13761400  0.13761400  1
  Bi  Bi0  1  0.64673600  0.64673600  0.64673600  1
  Bi  Bi1  1  0.35326400  0.35326400  0.35326400  1
  O  O0  1  0.95964000  0.26704500  0.53667000  1
  O  O1  1  0.53667000  0.95964000  0.26704500  1
  O  O2  1  0.26704500  0.53667000  0.95964000  1
  O  O3  1  0.73295500  0.46333000  0.04036000  1
  O  O4  1  0.46333000  0.04036000  0.73295500  1
  O  O5  1  0.04036000  0.73295500  0.46333000  1
loop_
_geom_bond_atom_site_label_1
_geom_bond_atom_site_label_2
_geom_bond_distance
_geom_bond_site_symmetry_2
Ca0 O0 2.357720 1_565
Ca0 O1 2.357720 1_556
Ca0 O2 2.357720 1_655
Ca0 O3 2.483494 1_556
Ca0 O5 2.483494 1_655
Ca0 O4 2.483494 1_565
Ca1 O5 2.357720 1_545
Ca1 O4 2.357720 1_554
Ca1 O3 2.357720 1_455
Ca1 O2 2.483494 1_554
Ca1 O0 2.483494 1_455
Ca1 O1 2.483494 1_545
Bi0 O2 2.262902 1_555
Bi0 O1 2.262902 1_555
Bi0 O0 2.262902 1_555
Bi0 O3 2.291011 1_556
Bi0 O5 2.291011 1_655
Bi0 O4 2.291011 1_565
Bi1 O3 2.262902 1_555
Bi1 O4 2.262902 1_555
Bi1 O5 2.262902 1_555
Bi1 O2 2.291011 1_554
Bi1 O0 2.291011 1_455
Bi1 O1 2.291011 1_545
