# generated using pymatgen
data_Pr3AgGeS7
_symmetry_space_group_name_H-M   'P 1'
_cell_length_a   10.37396592
_cell_length_b   10.37396592
_cell_length_c   5.88615500
_cell_angle_alpha   90.00000000
_cell_angle_beta   90.00000000
_cell_angle_gamma   119.99999948
_symmetry_Int_Tables_number   1
_chemical_formula_structural   Pr3AgGeS7
_chemical_formula_sum   'Pr6 Ag2 Ge2 S14'
_cell_volume   548.59514762
_cell_formula_units_Z   2
loop_
 _symmetry_equiv_pos_site_id
 _symmetry_equiv_pos_as_xyz
  1  'x, y, z'
loop_
 _atom_site_type_symbol
 _atom_site_label
 _atom_site_symmetry_multiplicity
 _atom_site_fract_x
 _atom_site_fract_y
 _atom_site_fract_z
 _atom_site_occupancy
  Pr  Pr0  1  0.12994300  0.35978900  0.25408700  1
  Pr  Pr1  1  0.87005700  0.64021100  0.75408700  1
  Pr  Pr2  1  0.64021100  0.77015400  0.25408700  1
  Pr  Pr3  1  0.22984600  0.87005700  0.25408700  1
  Pr  Pr4  1  0.77015400  0.12994300  0.75408700  1
  Pr  Pr5  1  0.35978900  0.22984600  0.75408700  1
  Ag  Ag0  1  0.00000000  0.00000000  0.31431900  1
  Ag  Ag1  1  0.00000000  0.00000000  0.81431900  1
  Ge  Ge0  1  0.33333300  0.66666700  0.67158900  1
  Ge  Ge1  1  0.66666700  0.33333300  0.17158900  1
  S  S0  1  0.33333300  0.66666700  0.04699000  1
  S  S1  1  0.66666700  0.33333300  0.54699000  1
  S  S2  1  0.41595900  0.52266300  0.51748700  1
  S  S3  1  0.58404100  0.47733700  0.01748700  1
  S  S4  1  0.47733700  0.89329600  0.51748700  1
  S  S5  1  0.10670400  0.58404100  0.51748700  1
  S  S6  1  0.89329600  0.41595900  0.01748700  1
  S  S7  1  0.52266300  0.10670400  0.01748700  1
  S  S8  1  0.09818300  0.26964200  0.77443500  1
  S  S9  1  0.90181700  0.73035800  0.27443500  1
  S  S10  1  0.73035800  0.82854100  0.77443500  1
  S  S11  1  0.17145900  0.90181700  0.77443500  1
  S  S12  1  0.82854100  0.09818300  0.27443500  1
  S  S13  1  0.26964200  0.17145900  0.27443500  1
loop_
_geom_bond_atom_site_label_1
_geom_bond_atom_site_label_2
_geom_bond_distance
_geom_bond_site_symmetry_2
Pr0 S5 2.904273 1_555
Pr0 S8 2.940418 1_554
Pr0 S12 2.944555 1_455
Pr0 S13 2.960251 1_555
Pr0 S2 3.008173 1_555
Pr0 S0 3.058709 1_555
Pr0 S6 3.120329 1_455
Pr0 S8 3.171126 1_555
Pr1 S6 2.904273 1_556
Pr1 S9 2.940418 1_555
Pr1 S11 2.944555 1_655
Pr1 S10 2.960251 1_555
Pr1 S3 3.008173 1_556
Pr1 S1 3.058709 1_555
Pr1 S5 3.120329 1_655
Pr1 S9 3.171126 1_556
Pr2 S2 2.904273 1_555
Pr2 S10 2.940418 1_554
Pr2 S9 2.944555 1_555
Pr2 S12 2.960251 1_565
Pr2 S4 3.008173 1_555
Pr2 S0 3.058710 1_555
Pr2 S3 3.120329 1_555
Pr2 S10 3.171126 1_555
Pr3 S4 2.904273 1_555
Pr3 S11 2.940418 1_554
Pr3 S13 2.944555 1_565
Pr3 S9 2.960251 1_455
Pr3 S5 3.008173 1_555
Pr3 S0 3.058701 1_555
Pr3 S7 3.120329 1_565
Pr3 S11 3.171126 1_555
Pr4 S7 2.904273 1_556
Pr4 S12 2.940418 1_555
Pr4 S10 2.944555 1_545
Pr4 S8 2.960251 1_655
Pr4 S6 3.008173 1_556
Pr4 S1 3.058701 1_555
Pr4 S4 3.120329 1_545
Pr4 S12 3.171126 1_556
Pr5 S3 2.904273 1_556
Pr5 S13 2.940418 1_555
Pr5 S8 2.944555 1_555
Pr5 S11 2.960251 1_545
Pr5 S7 3.008173 1_556
Pr5 S1 3.058710 1_555
Pr5 S2 3.120329 1_555
Pr5 S13 3.171126 1_556
Ag0 S12 2.463343 1_455
Ag0 S9 2.463343 1_445
Ag0 S13 2.463343 1_555
Ag1 S11 2.463343 1_545
Ag1 S8 2.463343 1_555
Ag1 S10 2.463343 1_445
Ge0 S0 2.209668 1_556
Ge0 S5 2.251594 1_555
Ge0 S4 2.251595 1_555
Ge0 S2 2.251603 1_555
Ge1 S1 2.209668 1_555
Ge1 S6 2.251594 1_555
Ge1 S7 2.251595 1_555
Ge1 S3 2.251603 1_555
