# generated using pymatgen
data_PmHgRh2
_symmetry_space_group_name_H-M   'P 1'
_cell_length_a   4.73684758
_cell_length_b   4.73581451
_cell_length_c   4.73568554
_cell_angle_alpha   59.99853952
_cell_angle_beta   60.01227372
_cell_angle_gamma   60.01020411
_symmetry_Int_Tables_number   1
_chemical_formula_structural   PmHgRh2
_chemical_formula_sum   'Pm1 Hg1 Rh2'
_cell_volume   75.13130160
_cell_formula_units_Z   1
loop_
 _symmetry_equiv_pos_site_id
 _symmetry_equiv_pos_as_xyz
  1  'x, y, z'
loop_
 _atom_site_type_symbol
 _atom_site_label
 _atom_site_symmetry_multiplicity
 _atom_site_fract_x
 _atom_site_fract_y
 _atom_site_fract_z
 _atom_site_occupancy
  Pm  Pm0  1  0.75000100  0.75000000  0.75000000  1
  Hg  Hg0  1  0.24999900  0.25000000  0.25000000  1
  Rh  Rh0  1  0.00010636  0.00015192  0.99981006  1
  Rh  Rh1  1  0.49989364  0.49984908  0.50018994  1
loop_
_geom_bond_atom_site_label_1
_geom_bond_atom_site_label_2
_geom_bond_distance
_geom_bond_site_symmetry_2
Pm0 Rh0 2.899597 1_655
Pm0 Rh1 2.899601 1_565
Pm0 Rh0 2.900374 1_665
Pm0 Rh1 2.900378 1_555
Pm0 Rh1 2.900803 1_655
Pm0 Rh0 2.900811 1_565
Pm0 Rh0 2.900900 1_664
Pm0 Rh1 2.900900 1_556
Hg0 Rh0 2.899431 1_555
Hg0 Rh1 2.899431 1_554
Hg0 Rh0 2.899845 1_554
Hg0 Rh1 2.899857 1_555
Hg0 Rh1 2.900768 1_545
Hg0 Rh0 2.900772 1_564
Hg0 Rh1 2.901626 1_455
Hg0 Rh0 2.901634 1_654
Hg0 Pm0 3.348950 1_454
Hg0 Pm0 3.348964 1_545
Hg0 Pm0 3.349101 1_445
Hg0 Pm0 3.349114 1_554
Hg0 Pm0 3.349287 1_455
Hg0 Pm0 3.349287 1_544
