# generated using pymatgen
data_TeMo3(NO6)2
_symmetry_space_group_name_H-M   'P 1'
_cell_length_a   7.48145827
_cell_length_b   7.48145827
_cell_length_c   11.74284300
_cell_angle_alpha   90.00000000
_cell_angle_beta   90.00000000
_cell_angle_gamma   120.00000241
_symmetry_Int_Tables_number   1
_chemical_formula_structural   TeMo3(NO6)2
_chemical_formula_sum   'Te2 Mo6 N4 O24'
_cell_volume   569.21507279
_cell_formula_units_Z   2
loop_
 _symmetry_equiv_pos_site_id
 _symmetry_equiv_pos_as_xyz
  1  'x, y, z'
loop_
 _atom_site_type_symbol
 _atom_site_label
 _atom_site_symmetry_multiplicity
 _atom_site_fract_x
 _atom_site_fract_y
 _atom_site_fract_z
 _atom_site_occupancy
  Te  Te0  1  0.00000000  0.00000000  0.63278600  1
  Te  Te1  1  0.00000000  0.00000000  0.13278600  1
  Mo  Mo0  1  0.79734700  0.11500800  0.88301000  1
  Mo  Mo1  1  0.31766100  0.20265300  0.88301000  1
  Mo  Mo2  1  0.88499200  0.68233900  0.88301000  1
  Mo  Mo3  1  0.20265300  0.88499200  0.38301000  1
  Mo  Mo4  1  0.68233900  0.79734700  0.38301000  1
  Mo  Mo5  1  0.11500800  0.31766100  0.38301000  1
  N  N0  1  0.66666700  0.33333300  0.59816700  1
  N  N1  1  0.33333300  0.66666700  0.09816700  1
  N  N2  1  0.33333300  0.66666700  0.71289000  1
  N  N3  1  0.66666700  0.33333300  0.21289000  1
  O  O0  1  0.12856700  0.27982800  0.88331100  1
  O  O1  1  0.15126100  0.87143300  0.88331100  1
  O  O2  1  0.72017200  0.84873900  0.88331100  1
  O  O3  1  0.87143300  0.72017200  0.38331100  1
  O  O4  1  0.84873900  0.12856700  0.38331100  1
  O  O5  1  0.27982800  0.15126100  0.38331100  1
  O  O6  1  0.13177900  0.25661600  0.54336000  1
  O  O7  1  0.12483800  0.86822100  0.54336000  1
  O  O8  1  0.74338400  0.87516200  0.54336000  1
  O  O9  1  0.86822100  0.74338400  0.04336000  1
  O  O10  1  0.87516200  0.13177900  0.04336000  1
  O  O11  1  0.25661600  0.12483800  0.04336000  1
  O  O12  1  0.55399200  0.09943300  0.88262300  1
  O  O13  1  0.54544100  0.44600800  0.88262300  1
  O  O14  1  0.90056700  0.45455900  0.88262300  1
  O  O15  1  0.44600800  0.90056700  0.38262300  1
  O  O16  1  0.45455900  0.55399200  0.38262300  1
  O  O17  1  0.09943300  0.54544100  0.38262300  1
  O  O18  1  0.87567300  0.13137800  0.72299800  1
  O  O19  1  0.25570600  0.12432700  0.72299800  1
  O  O20  1  0.86862200  0.74429400  0.72299800  1
  O  O21  1  0.12432700  0.86862200  0.22299800  1
  O  O22  1  0.74429400  0.87567300  0.22299800  1
  O  O23  1  0.13137800  0.25570600  0.22299800  1
loop_
_geom_bond_atom_site_label_1
_geom_bond_atom_site_label_2
_geom_bond_distance
_geom_bond_site_symmetry_2
Mo0 O12 1.765281 1_555
Mo0 O2 1.775268 1_545
Mo0 O18 1.953777 1_555
Mo0 O10 1.956317 1_556
Mo0 O0 2.146029 1_655
Mo0 O14 2.255646 1_555
Mo1 O13 1.765281 1_555
Mo1 O0 1.775268 1_555
Mo1 O19 1.953776 1_555
Mo1 O11 1.956317 1_556
Mo1 O1 2.146029 1_545
Mo1 O12 2.255646 1_555
Mo2 O14 1.765281 1_555
Mo2 O1 1.775268 1_655
Mo2 O20 1.953775 1_555
Mo2 O9 1.956319 1_556
Mo2 O2 2.146029 1_555
Mo2 O13 2.255646 1_555
Mo3 O15 1.765281 1_555
Mo3 O5 1.775268 1_565
Mo3 O21 1.953777 1_555
Mo3 O7 1.956317 1_555
Mo3 O3 2.146029 1_455
Mo3 O17 2.255646 1_555
Mo4 O16 1.765281 1_555
Mo4 O3 1.775268 1_555
Mo4 O22 1.953776 1_555
Mo4 O8 1.956317 1_555
Mo4 O4 2.146029 1_565
Mo4 O15 2.255646 1_555
Mo5 O17 1.765281 1_555
Mo5 O4 1.775268 1_455
Mo5 O23 1.953775 1_555
Mo5 O6 1.956319 1_555
Mo5 O5 2.146029 1_555
Mo5 O16 2.255646 1_555
O6 Te0 1.966677 1_555
O7 Te0 1.966683 1_565
O8 Te0 1.966677 1_665
O9 Te1 1.966677 1_665
O10 Te1 1.966683 1_655
O11 Te1 1.966677 1_555
O18 Te0 1.966651 1_655
O19 Te0 1.966657 1_555
O20 Te0 1.966657 1_665
O21 Te1 1.966651 1_565
O22 Te1 1.966657 1_665
O23 Te1 1.966657 1_555
