# generated using pymatgen
data_Ta2NbRu
_symmetry_space_group_name_H-M   'P 1'
_cell_length_a   4.55296998
_cell_length_b   4.55296998
_cell_length_c   4.55296998
_cell_angle_alpha   60.00000000
_cell_angle_beta   60.00000000
_cell_angle_gamma   60.00000000
_symmetry_Int_Tables_number   1
_chemical_formula_structural   Ta2NbRu
_chemical_formula_sum   'Ta2 Nb1 Ru1'
_cell_volume   66.73741237
_cell_formula_units_Z   1
loop_
 _symmetry_equiv_pos_site_id
 _symmetry_equiv_pos_as_xyz
  1  'x, y, z'
loop_
 _atom_site_type_symbol
 _atom_site_label
 _atom_site_symmetry_multiplicity
 _atom_site_fract_x
 _atom_site_fract_y
 _atom_site_fract_z
 _atom_site_occupancy
  Ta  Ta0  1  -0.00000000  -0.00000000  0.00000000  1
  Ta  Ta1  1  0.50000100  0.50000100  0.50000100  1
  Nb  Nb0  1  0.25000000  0.25000000  0.25000000  1
  Ru  Ru0  1  0.75000000  0.75000000  0.75000000  1
loop_
_geom_bond_atom_site_label_1
_geom_bond_atom_site_label_2
_geom_bond_distance
_geom_bond_site_symmetry_2
Nb0 Ta1 2.788110 1_554
Nb0 Ta1 2.788110 1_455
Nb0 Ta1 2.788110 1_545
Nb0 Ta0 2.788113 1_556
Nb0 Ta0 2.788113 1_555
Nb0 Ta0 2.788113 1_655
Nb0 Ta0 2.788113 1_565
Nb0 Ta1 2.788124 1_555
Nb0 Ru0 3.219436 1_544
Nb0 Ru0 3.219436 1_545
Nb0 Ru0 3.219436 1_554
Nb0 Ru0 3.219436 1_454
Nb0 Ru0 3.219436 1_455
Nb0 Ru0 3.219436 1_445
Ru0 Ta1 2.788102 1_555
Ru0 Ta0 2.788113 1_666
Ru0 Ta0 2.788113 1_665
Ru0 Ta0 2.788113 1_656
Ru0 Ta0 2.788113 1_566
Ru0 Ta1 2.788117 1_556
Ru0 Ta1 2.788117 1_565
Ru0 Ta1 2.788117 1_655
