# generated using pymatgen
data_Li2Ni3(P2O7)2
_symmetry_space_group_name_H-M   'P 1'
_cell_length_a   7.26579100
_cell_length_b   6.38359600
_cell_length_c   13.10421823
_cell_angle_alpha   85.31540326
_cell_angle_beta   90.00000000
_cell_angle_gamma   90.00000000
_symmetry_Int_Tables_number   1
_chemical_formula_structural   Li2Ni3(P2O7)2
_chemical_formula_sum   'Li4 Ni6 P8 O28'
_cell_volume   605.76777999
_cell_formula_units_Z   2
loop_
 _symmetry_equiv_pos_site_id
 _symmetry_equiv_pos_as_xyz
  1  'x, y, z'
loop_
 _atom_site_type_symbol
 _atom_site_label
 _atom_site_symmetry_multiplicity
 _atom_site_fract_x
 _atom_site_fract_y
 _atom_site_fract_z
 _atom_site_occupancy
  Li  Li0  1  0.69094300  0.53784400  0.97104700  1
  Li  Li1  1  0.75496100  0.06849100  0.60033400  1
  Li  Li2  1  0.25496100  0.93150900  0.39966600  1
  Li  Li3  1  0.19094300  0.46215600  0.02895300  1
  Ni  Ni0  1  0.98856600  0.81468900  0.90233500  1
  Ni  Ni1  1  0.38809000  0.27696800  0.72488800  1
  Ni  Ni2  1  0.89203600  0.57841500  0.60145000  1
  Ni  Ni3  1  0.39203600  0.42158500  0.39855000  1
  Ni  Ni4  1  0.88809000  0.72303200  0.27511200  1
  Ni  Ni5  1  0.48856600  0.18531100  0.09766500  1
  P  P0  1  0.68951400  0.08196300  0.88583000  1
  P  P1  1  0.01488000  0.35439100  0.83192400  1
  P  P2  1  0.20488400  0.85919100  0.69349200  1
  P  P3  1  0.48650500  0.62899200  0.57904000  1
  P  P4  1  0.98650500  0.37100800  0.42096000  1
  P  P5  1  0.70488400  0.14080900  0.30650800  1
  P  P6  1  0.51488000  0.64560900  0.16807600  1
  P  P7  1  0.18951400  0.91803700  0.11417000  1
  O  O0  1  0.61616600  0.22737700  0.96336800  1
  O  O1  1  0.70594500  0.84779600  0.92132100  1
  O  O2  1  0.91628400  0.13165300  0.87583700  1
  O  O3  1  0.94604800  0.50470900  0.91036200  1
  O  O4  1  0.22152200  0.31948300  0.84159600  1
  O  O5  1  0.61156900  0.13181900  0.77912100  1
  O  O6  1  0.19544700  0.83915800  0.80921400  1
  O  O7  1  0.94330700  0.39548900  0.72385400  1
  O  O8  1  0.34273800  0.66095400  0.67135500  1
  O  O9  1  0.52014200  0.39081400  0.59515500  1
  O  O10  1  0.30049100  0.05505900  0.64557300  1
  O  O11  1  0.66256300  0.75697900  0.59406900  1
  O  O12  1  0.02185800  0.82795900  0.63797900  1
  O  O13  1  0.38910300  0.68668100  0.47650700  1
  O  O14  1  0.88910300  0.31331900  0.52349300  1
  O  O15  1  0.52185800  0.17204100  0.36202100  1
  O  O16  1  0.16256300  0.24302100  0.40593100  1
  O  O17  1  0.80049100  0.94494100  0.35442700  1
  O  O18  1  0.02014200  0.60918600  0.40484500  1
  O  O19  1  0.84273800  0.33904600  0.32864500  1
  O  O20  1  0.44330700  0.60451100  0.27614600  1
  O  O21  1  0.69544700  0.16084200  0.19078600  1
  O  O22  1  0.11156900  0.86818100  0.22087900  1
  O  O23  1  0.72152200  0.68051700  0.15840400  1
  O  O24  1  0.44604800  0.49529100  0.08963800  1
  O  O25  1  0.41628400  0.86834700  0.12416300  1
  O  O26  1  0.20594500  0.15220400  0.07867900  1
  O  O27  1  0.11616600  0.77262300  0.03663200  1
loop_
_geom_bond_atom_site_label_1
_geom_bond_atom_site_label_2
_geom_bond_distance
_geom_bond_site_symmetry_2
Li0 O3 2.034752 1_555
Li0 O1 2.034892 1_555
Li0 O0 2.065382 1_555
Li0 O24 2.363470 1_556
Li1 O14 2.037012 1_555
Li1 O11 2.106777 1_545
Li1 O12 2.497565 1_645
Li1 O5 2.625377 1_555
Li1 O9 2.669525 1_555
Li2 O13 2.037012 1_555
Li2 O16 2.106777 1_565
Li2 O15 2.497565 1_565
Li2 O22 2.625377 1_555
Li2 O18 2.669525 1_555
Li3 O24 2.034752 1_555
Li3 O26 2.034892 1_555
Li3 O27 2.065382 1_555
Li3 O3 2.363470 1_454
Ni0 O6 1.934377 1_655
Ni0 O27 1.987852 1_656
Ni0 O3 1.997023 1_555
Ni0 O1 2.081315 1_555
Ni0 O2 2.091807 1_565
Ni1 O10 1.931983 1_555
Ni1 O5 1.972971 1_555
Ni1 O4 1.986232 1_555
Ni1 O9 2.033983 1_555
Ni1 O8 2.515604 1_555
Ni2 O7 1.941457 1_555
Ni2 O12 1.944490 1_655
Ni2 O11 2.017566 1_555
Ni2 O14 2.046996 1_555
Ni3 O20 1.941457 1_555
Ni3 O15 1.944490 1_555
Ni3 O16 2.017566 1_555
Ni3 O13 2.046996 1_555
Ni4 O17 1.931983 1_555
Ni4 O22 1.972971 1_655
Ni4 O23 1.986232 1_555
Ni4 O18 2.033983 1_655
Ni4 O19 2.515604 1_555
Ni5 O21 1.934377 1_555
Ni5 O0 1.987852 1_554
Ni5 O24 1.997023 1_555
Ni5 O26 2.081315 1_555
Ni5 O25 2.091807 1_545
O0 P0 1.527141 1_555
O1 P0 1.533462 1_565
O2 P1 1.652997 1_655
O2 P0 1.681004 1_555
O3 P1 1.545481 1_655
O4 P1 1.521632 1_555
O5 P0 1.518117 1_555
O6 P2 1.512940 1_555
O7 P1 1.511332 1_655
O8 P3 1.623733 1_555
O8 P2 1.657937 1_555
O9 P3 1.537399 1_555
O10 P2 1.520517 1_545
O11 P3 1.539136 1_555
O12 P2 1.536579 1_555
O13 P3 1.536535 1_555
O14 P4 1.536535 1_555
O15 P5 1.536579 1_555
O16 P4 1.539136 1_455
O17 P5 1.520517 1_565
O18 P4 1.537399 1_455
O19 P4 1.623733 1_555
O19 P5 1.657937 1_555
O20 P6 1.511332 1_555
O21 P5 1.512940 1_555
O22 P7 1.518117 1_555
O23 P6 1.521632 1_555
O24 P6 1.545481 1_555
O25 P6 1.652997 1_555
O25 P7 1.681004 1_555
O26 P7 1.533462 1_545
O27 P7 1.527141 1_555
