# generated using pymatgen
data_Li3Mn(PO4)2
_symmetry_space_group_name_H-M   'P 1'
_cell_length_a   10.49217500
_cell_length_b   8.01466700
_cell_length_c   8.47442091
_cell_angle_alpha   72.31961591
_cell_angle_beta   90.00000000
_cell_angle_gamma   90.00000000
_symmetry_Int_Tables_number   1
_chemical_formula_structural   Li3Mn(PO4)2
_chemical_formula_sum   'Li12 Mn4 P8 O32'
_cell_volume   678.96450163
_cell_formula_units_Z   4
loop_
 _symmetry_equiv_pos_site_id
 _symmetry_equiv_pos_as_xyz
  1  'x, y, z'
loop_
 _atom_site_type_symbol
 _atom_site_label
 _atom_site_symmetry_multiplicity
 _atom_site_fract_x
 _atom_site_fract_y
 _atom_site_fract_z
 _atom_site_occupancy
  Li  Li0  1  0.33146500  0.62302800  0.63988100  1
  Li  Li1  1  0.64409400  0.64863700  0.08047600  1
  Li  Li2  1  0.85009600  0.65040500  0.59423200  1
  Li  Li3  1  0.83146500  0.37697200  0.36011900  1
  Li  Li4  1  0.35009600  0.34959500  0.40576800  1
  Li  Li5  1  0.66391500  0.38525100  0.85309400  1
  Li  Li6  1  0.84667300  0.19029100  0.09384700  1
  Li  Li7  1  0.34667300  0.80970900  0.90615300  1
  Li  Li8  1  0.16391500  0.61474900  0.14690600  1
  Li  Li9  1  0.07378100  0.53296300  0.48405200  1
  Li  Li10  1  0.57378100  0.46703700  0.51594800  1
  Li  Li11  1  0.14409400  0.35136300  0.91952400  1
  Mn  Mn0  1  0.34776200  0.11956500  0.11780700  1
  Mn  Mn1  1  0.84776200  0.88043500  0.88219300  1
  Mn  Mn2  1  0.65441500  0.88701900  0.38168500  1
  Mn  Mn3  1  0.15441500  0.11298100  0.61831500  1
  P  P0  1  0.41184600  0.72553200  0.27482800  1
  P  P1  1  0.59295800  0.28996100  0.22454500  1
  P  P2  1  0.91184600  0.27446800  0.72517200  1
  P  P3  1  0.91080800  0.78579800  0.20213100  1
  P  P4  1  0.08364500  0.20547600  0.30421400  1
  P  P5  1  0.41080800  0.21420200  0.79786900  1
  P  P6  1  0.58364500  0.79452400  0.69578600  1
  P  P7  1  0.09295800  0.71003900  0.77545500  1
  O  O0  1  0.03761500  0.70051700  0.26376100  1
  O  O1  1  0.66904800  0.80068100  0.84193400  1
  O  O2  1  0.45145500  0.72768000  0.75505900  1
  O  O3  1  0.83488600  0.68526600  0.09679900  1
  O  O4  1  0.39610800  0.57821100  0.44286500  1
  O  O5  1  0.83015500  0.79937900  0.35033700  1
  O  O6  1  0.33015500  0.20062100  0.64966300  1
  O  O7  1  0.66649300  0.11515300  0.22120800  1
  O  O8  1  0.16904800  0.19931900  0.15806600  1
  O  O9  1  0.91967800  0.96900600  0.06294500  1
  O  O10  1  0.61769200  0.41915000  0.05282400  1
  O  O11  1  0.64773200  0.36110100  0.35901300  1
  O  O12  1  0.34154100  0.67394900  0.13848200  1
  O  O13  1  0.11769200  0.58085000  0.94717600  1
  O  O14  1  0.35782700  0.90227100  0.29361600  1
  O  O15  1  0.08298300  0.02725200  0.44698000  1
  O  O16  1  0.16649300  0.88484700  0.77879200  1
  O  O17  1  0.89610800  0.42178900  0.55713500  1
  O  O18  1  0.85782700  0.09772900  0.70638400  1
  O  O19  1  0.05843100  0.24762200  0.76044700  1
  O  O20  1  0.15174600  0.32359200  0.40363200  1
  O  O21  1  0.53761500  0.29948300  0.73623900  1
  O  O22  1  0.44795800  0.24845800  0.25507100  1
  O  O23  1  0.84154100  0.32605100  0.86151800  1
  O  O24  1  0.58298300  0.97274800  0.55302000  1
  O  O25  1  0.55843100  0.75237800  0.23955300  1
  O  O26  1  0.33488600  0.31473400  0.90320100  1
  O  O27  1  0.94795800  0.75154200  0.74492900  1
  O  O28  1  0.14773200  0.63889900  0.64098700  1
  O  O29  1  0.65174600  0.67640800  0.59636800  1
  O  O30  1  0.95145500  0.27232000  0.24494100  1
  O  O31  1  0.41967800  0.03099400  0.93705500  1
loop_
_geom_bond_atom_site_label_1
_geom_bond_atom_site_label_2
_geom_bond_distance
_geom_bond_site_symmetry_2
Li0 O28 1.932161 1_555
Li0 O2 1.933509 1_555
Li0 O4 1.934130 1_555
Li1 O10 1.943278 1_555
Li1 O25 1.999324 1_555
Li1 O3 2.034030 1_555
Li1 O1 2.035606 1_554
Li2 O27 1.992739 1_555
Li2 O17 2.009735 1_555
Li2 O5 2.059692 1_555
Li2 O29 2.092158 1_555
Li3 O11 1.932161 1_555
Li3 O30 1.933509 1_555
Li3 O17 1.934130 1_555
Li4 O22 1.992739 1_555
Li4 O4 2.009735 1_555
Li4 O6 2.059692 1_555
Li4 O20 2.092158 1_555
Li5 O10 1.858286 1_556
Li5 O21 1.903340 1_555
Li5 O23 1.919103 1_555
Li6 O23 1.939575 1_554
Li6 O30 1.947233 1_555
Li6 O9 2.020596 1_545
Li6 O7 2.169488 1_555
Li7 O12 1.939575 1_556
Li7 O2 1.947233 1_555
Li7 O31 2.020596 1_565
Li7 O16 2.169488 1_555
Li8 O13 1.858286 1_554
Li8 O0 1.903340 1_555
Li8 O12 1.919103 1_555
Li9 O28 1.943579 1_555
Li9 O0 1.977288 1_555
Li9 O17 2.077849 1_455
Li9 O20 2.155012 1_555
Li10 O11 1.943579 1_555
Li10 O21 1.977288 1_555
Li10 O4 2.077849 1_555
Li10 O29 2.155012 1_555
Li11 O13 1.943278 1_555
Li11 O19 1.999324 1_555
Li11 O26 2.034030 1_555
Li11 O8 2.035606 1_556
Mn0 O14 1.920366 1_545
Mn0 O26 2.011117 1_554
Mn0 O31 2.019914 1_554
Mn0 O8 2.042899 1_555
Mn0 O22 2.062851 1_555
Mn1 O18 1.920366 1_565
Mn1 O3 2.011117 1_556
Mn1 O9 2.019914 1_556
Mn1 O1 2.042899 1_555
Mn1 O27 2.062851 1_555
Mn2 O7 1.923088 1_565
Mn2 O24 1.935971 1_555
Mn2 O5 2.019217 1_555
Mn2 O29 2.072344 1_555
Mn2 O25 2.102132 1_555
Mn3 O16 1.923088 1_545
Mn3 O15 1.935971 1_555
Mn3 O6 2.019217 1_555
Mn3 O20 2.072344 1_555
Mn3 O19 2.102132 1_555
O0 P3 1.514362 1_455
O1 P6 1.541564 1_555
O2 P6 1.516418 1_555
O3 P3 1.586631 1_555
O4 P0 1.558178 1_555
O5 P3 1.545451 1_555
O6 P5 1.545451 1_555
O7 P1 1.607178 1_555
O8 P4 1.541564 1_555
O9 P3 1.582395 1_555
O10 P1 1.530326 1_555
O11 P1 1.532502 1_555
O12 P0 1.529796 1_555
O13 P7 1.530326 1_555
O14 P0 1.577993 1_555
O15 P4 1.566664 1_555
O16 P7 1.607178 1_555
O17 P2 1.558178 1_555
O18 P2 1.577993 1_555
O19 P2 1.569082 1_455
O20 P4 1.612760 1_555
O21 P5 1.514362 1_555
O22 P1 1.562002 1_555
O23 P2 1.529796 1_555
O24 P6 1.566664 1_555
O25 P0 1.569082 1_555
O26 P5 1.586631 1_555
O27 P7 1.562002 1_655
O28 P7 1.532502 1_555
O29 P6 1.612760 1_555
O30 P4 1.516418 1_655
O31 P5 1.582395 1_555
