# generated using pymatgen
data_LiNi(PO3)3
_symmetry_space_group_name_H-M   'P 1'
_cell_length_a   6.41977543
_cell_length_b   9.65954200
_cell_length_c   6.41991608
_cell_angle_alpha   89.99923069
_cell_angle_beta   59.99978614
_cell_angle_gamma   90.00041886
_symmetry_Int_Tables_number   1
_chemical_formula_structural   LiNi(PO3)3
_chemical_formula_sum   'Li2 Ni2 P6 O18'
_cell_volume   344.77472270
_cell_formula_units_Z   2
loop_
 _symmetry_equiv_pos_site_id
 _symmetry_equiv_pos_as_xyz
  1  'x, y, z'
loop_
 _atom_site_type_symbol
 _atom_site_label
 _atom_site_symmetry_multiplicity
 _atom_site_fract_x
 _atom_site_fract_y
 _atom_site_fract_z
 _atom_site_occupancy
  Li  Li0  1  0.66682200  0.49998400  0.66675500  1
  Li  Li1  1  0.66642500  0.00002000  0.66675400  1
  Ni  Ni0  1  0.33331300  0.50000800  0.33335900  1
  Ni  Ni1  1  0.33329600  0.00002300  0.33342700  1
  P  P0  1  0.71810000  0.75004300  0.03262000  1
  P  P1  1  0.71804900  0.24994700  0.24928800  1
  P  P2  1  0.24930000  0.24995300  0.03263500  1
  P  P3  1  0.03263700  0.75003300  0.24927500  1
  P  P4  1  0.24929900  0.75003800  0.71807000  1
  P  P5  1  0.03265100  0.24996300  0.71803200  1
  O  O0  1  0.97209700  0.24994900  0.23863800  1
  O  O1  1  0.78926300  0.75006400  0.23863700  1
  O  O2  1  0.97208700  0.75008100  0.78925300  1
  O  O3  1  0.78926200  0.24992000  0.97208800  1
  O  O4  1  0.23866400  0.24996400  0.78925600  1
  O  O5  1  0.23866300  0.75004000  0.97207300  1
  O  O6  1  0.59613400  0.88454700  0.04062300  1
  O  O7  1  0.59618300  0.61555800  0.04059200  1
  O  O8  1  0.59612600  0.38444500  0.36319000  1
  O  O9  1  0.59614100  0.11541400  0.36324100  1
  O  O10  1  0.36323500  0.11541900  0.04060200  1
  O  O11  1  0.36323800  0.38444800  0.04063000  1
  O  O12  1  0.04064600  0.88454400  0.36319500  1
  O  O13  1  0.04062600  0.61555000  0.36322100  1
  O  O14  1  0.36322300  0.61556800  0.59609500  1
  O  O15  1  0.36324300  0.88456600  0.59619200  1
  O  O16  1  0.04060300  0.38447500  0.59615600  1
  O  O17  1  0.04067500  0.11543600  0.59610500  1
loop_
_geom_bond_atom_site_label_1
_geom_bond_atom_site_label_2
_geom_bond_distance
_geom_bond_site_symmetry_2
Li0 O16 2.474034 1_655
Li0 O7 2.474610 1_556
Li0 O13 2.475031 1_655
Li0 O11 2.475276 1_556
Li0 O8 2.476726 1_555
Li0 O14 2.476942 1_555
Li1 O15 2.473654 1_545
Li1 O10 2.473857 1_556
Li1 O9 2.474257 1_555
Li1 O6 2.474994 1_546
Li1 O17 2.476156 1_655
Li1 O12 2.476270 1_645
Ni0 O14 2.109960 1_555
Ni0 O16 2.110108 1_555
Ni0 O8 2.110109 1_555
Ni0 O13 2.110163 1_555
Ni0 O11 2.110382 1_555
Ni0 O7 2.110547 1_555
Ni1 O17 2.108983 1_555
Ni1 O9 2.109340 1_555
Ni1 O15 2.109685 1_545
Ni1 O12 2.109837 1_545
Ni1 O10 2.110005 1_555
Ni1 O6 2.110253 1_545
O0 P1 1.597842 1_555
O0 P2 1.600757 1_655
O1 P3 1.597649 1_655
O1 P0 1.600704 1_555
O2 P0 1.597553 1_556
O2 P4 1.600835 1_655
O3 P5 1.597857 1_655
O3 P1 1.600749 1_556
O4 P2 1.597708 1_556
O4 P5 1.600932 1_555
O5 P4 1.597632 1_555
O5 P3 1.600812 1_556
O6 P0 1.504510 1_555
O7 P0 1.504227 1_555
O8 P1 1.504305 1_555
O9 P1 1.504618 1_555
O10 P2 1.504605 1_555
O11 P2 1.504331 1_555
O12 P3 1.504451 1_555
O13 P3 1.504250 1_555
O14 P4 1.504198 1_555
O15 P4 1.504511 1_555
O16 P5 1.504354 1_555
O17 P5 1.504558 1_555
