# generated using pymatgen
data_Ho2Mg
_symmetry_space_group_name_H-M   'P 1'
_cell_length_a   7.33704552
_cell_length_b   17.46249901
_cell_length_c   10.81707604
_cell_angle_alpha   90.00000000
_cell_angle_beta   90.00000000
_cell_angle_gamma   77.87295284
_symmetry_Int_Tables_number   1
_chemical_formula_structural   Ho2Mg
_chemical_formula_sum   'Ho32 Mg16'
_cell_volume   1354.98995722
_cell_formula_units_Z   16
loop_
 _symmetry_equiv_pos_site_id
 _symmetry_equiv_pos_as_xyz
  1  'x, y, z'
loop_
 _atom_site_type_symbol
 _atom_site_label
 _atom_site_symmetry_multiplicity
 _atom_site_fract_x
 _atom_site_fract_y
 _atom_site_fract_z
 _atom_site_occupancy
  Ho  Ho0_0  1  0.49028447  0.01943106  0.00000000  1
  Ho  Ho0_1  1  0.49028447  0.01943106  0.50000000  1
  Ho  Ho0_2  1  0.49028447  0.51943106  0.00000000  1
  Ho  Ho0_3  1  0.49028447  0.51943106  0.50000000  1
  Ho  Ho0_4  1  0.99028447  0.01943106  0.00000000  1
  Ho  Ho0_5  1  0.99028447  0.01943106  0.50000000  1
  Ho  Ho0_6  1  0.99028447  0.51943106  0.00000000  1
  Ho  Ho0_7  1  0.99028447  0.51943106  0.50000000  1
  Ho  Ho1_0  1  0.33087614  0.33824873  0.00000000  1
  Ho  Ho1_1  1  0.33087614  0.33824873  0.50000000  1
  Ho  Ho1_2  1  0.33087614  0.83824873  0.00000000  1
  Ho  Ho1_3  1  0.33087614  0.83824873  0.50000000  1
  Ho  Ho1_4  1  0.83087614  0.33824873  0.00000000  1
  Ho  Ho1_5  1  0.83087614  0.33824873  0.50000000  1
  Ho  Ho1_6  1  0.83087614  0.83824873  0.00000000  1
  Ho  Ho1_7  1  0.83087614  0.83824873  0.50000000  1
  Ho  Ho2_0  1  0.39860503  0.20279094  0.25000000  1
  Ho  Ho2_1  1  0.39860503  0.20279094  0.75000000  1
  Ho  Ho2_2  1  0.39860503  0.70279094  0.25000000  1
  Ho  Ho2_3  1  0.39860503  0.70279094  0.75000000  1
  Ho  Ho2_4  1  0.89860503  0.20279094  0.25000000  1
  Ho  Ho2_5  1  0.89860503  0.20279094  0.75000000  1
  Ho  Ho2_6  1  0.89860503  0.70279094  0.25000000  1
  Ho  Ho2_7  1  0.89860503  0.70279094  0.75000000  1
  Ho  Ho3_0  1  0.05801287  0.38397377  0.25000000  1
  Ho  Ho3_1  1  0.05801287  0.38397377  0.75000000  1
  Ho  Ho3_2  1  0.05801287  0.88397377  0.25000000  1
  Ho  Ho3_3  1  0.05801287  0.88397377  0.75000000  1
  Ho  Ho3_4  1  0.55801287  0.38397377  0.25000000  1
  Ho  Ho3_5  1  0.55801287  0.38397377  0.75000000  1
  Ho  Ho3_6  1  0.55801287  0.88397377  0.25000000  1
  Ho  Ho3_7  1  0.55801287  0.88397377  0.75000000  1
  Mg  Mg0_0  1  0.16121415  0.17757221  0.00000000  1
  Mg  Mg0_1  1  0.16121415  0.17757221  0.50000000  1
  Mg  Mg0_2  1  0.16121415  0.67757221  0.00000000  1
  Mg  Mg0_3  1  0.16121415  0.67757221  0.50000000  1
  Mg  Mg0_4  1  0.66121414  0.17757221  0.00000000  1
  Mg  Mg0_5  1  0.66121414  0.17757221  0.50000000  1
  Mg  Mg0_6  1  0.66121414  0.67757221  0.00000000  1
  Mg  Mg0_7  1  0.66121414  0.67757221  0.50000000  1
  Mg  Mg1_0  1  0.22767486  0.04464979  0.25000000  1
  Mg  Mg1_1  1  0.22767486  0.04464979  0.75000000  1
  Mg  Mg1_2  1  0.22767486  0.54464979  0.25000000  1
  Mg  Mg1_3  1  0.22767486  0.54464979  0.75000000  1
  Mg  Mg1_4  1  0.72767485  0.04464979  0.25000000  1
  Mg  Mg1_5  1  0.72767485  0.04464979  0.75000000  1
  Mg  Mg1_6  1  0.72767486  0.54464979  0.25000000  1
  Mg  Mg1_7  1  0.72767486  0.54464979  0.75000000  1
loop_
_geom_bond_atom_site_label_1
_geom_bond_atom_site_label_2
_geom_bond_distance
_geom_bond_site_symmetry_2
Ho0_0 Mg0_0 3.264053 1_555
Ho0_0 Mg0_4 3.264055 1_555
Ho0_0 Mg1_4 3.295900 1_555
Ho0_0 Mg1_5 3.295900 1_554
Ho0_0 Mg1_0 3.295902 1_555
Ho0_0 Mg1_1 3.295902 1_554
Ho0_0 Ho3_7 3.558280 1_544
Ho0_0 Ho3_6 3.558280 1_545
Ho0_0 Ho1_2 3.596242 1_545
Ho0_0 Ho1_6 3.596245 1_545
Ho0_1 Mg0_1 3.264053 1_555
Ho0_1 Mg0_5 3.264055 1_555
Ho0_1 Mg1_4 3.295900 1_555
Ho0_1 Mg1_5 3.295900 1_555
Ho0_1 Mg1_1 3.295902 1_555
Ho0_1 Mg1_0 3.295902 1_555
Ho0_1 Ho3_6 3.558280 1_545
Ho0_1 Ho3_7 3.558280 1_545
Ho0_1 Ho1_3 3.596242 1_545
Ho0_1 Ho1_7 3.596245 1_545
Ho0_2 Mg0_2 3.264053 1_555
Ho0_2 Mg0_6 3.264055 1_555
Ho0_2 Mg1_7 3.295900 1_554
Ho0_2 Mg1_6 3.295900 1_555
Ho0_2 Mg1_2 3.295902 1_555
Ho0_2 Mg1_3 3.295902 1_554
Ho0_2 Ho3_5 3.558280 1_554
Ho0_2 Ho3_4 3.558280 1_555
Ho0_2 Ho1_0 3.596242 1_555
Ho0_2 Ho1_4 3.596245 1_555
Ho0_3 Mg0_3 3.264053 1_555
Ho0_3 Mg0_7 3.264055 1_555
Ho0_3 Mg1_6 3.295900 1_555
Ho0_3 Mg1_7 3.295900 1_555
Ho0_3 Mg1_3 3.295902 1_555
Ho0_3 Mg1_2 3.295902 1_555
Ho0_3 Ho3_4 3.558280 1_555
Ho0_3 Ho3_5 3.558280 1_555
Ho0_3 Ho1_1 3.596242 1_555
Ho0_3 Ho1_5 3.596245 1_555
Ho0_4 Mg0_4 3.264053 1_555
Ho0_4 Mg0_0 3.264055 1_655
Ho0_4 Mg1_0 3.295900 1_655
Ho0_4 Mg1_1 3.295900 1_654
Ho0_4 Mg1_5 3.295902 1_554
Ho0_4 Mg1_4 3.295902 1_555
Ho0_4 Ho3_2 3.558280 1_645
Ho0_4 Ho3_3 3.558280 1_644
Ho0_4 Ho1_6 3.596242 1_545
Ho0_4 Ho1_2 3.596245 1_645
Ho0_5 Mg0_5 3.264053 1_555
Ho0_5 Mg0_1 3.264055 1_655
Ho0_5 Mg1_1 3.295900 1_655
Ho0_5 Mg1_0 3.295900 1_655
Ho0_5 Mg1_5 3.295902 1_555
Ho0_5 Mg1_4 3.295902 1_555
Ho0_5 Ho3_2 3.558280 1_645
Ho0_5 Ho3_3 3.558280 1_645
Ho0_5 Ho1_7 3.596242 1_545
Ho0_5 Ho1_3 3.596245 1_645
Ho0_6 Mg0_6 3.264053 1_555
Ho0_6 Mg0_2 3.264055 1_655
Ho0_6 Mg1_3 3.295900 1_654
Ho0_6 Mg1_2 3.295900 1_655
Ho0_6 Mg1_6 3.295902 1_555
Ho0_6 Mg1_7 3.295902 1_554
Ho0_6 Ho3_0 3.558280 1_655
Ho0_6 Ho3_1 3.558280 1_654
Ho0_6 Ho1_4 3.596242 1_555
Ho0_6 Ho1_0 3.596245 1_655
Ho0_7 Mg0_7 3.264053 1_555
Ho0_7 Mg0_3 3.264055 1_655
Ho0_7 Mg1_3 3.295900 1_655
Ho0_7 Mg1_2 3.295900 1_655
Ho0_7 Mg1_6 3.295902 1_555
Ho0_7 Mg1_7 3.295902 1_555
Ho0_7 Ho3_0 3.558280 1_655
Ho0_7 Ho3_1 3.558280 1_655
Ho0_7 Ho1_5 3.596242 1_555
Ho0_7 Ho1_1 3.596245 1_655
Ho1_0 Mg0_4 3.299947 1_555
Ho1_0 Mg0_0 3.299949 1_555
Ho1_0 Ho3_4 3.359611 1_555
Ho1_0 Ho3_5 3.359611 1_554
Ho1_0 Ho3_0 3.359617 1_555
Ho1_0 Ho3_1 3.359617 1_554
Ho1_0 Ho2_1 3.558286 1_554
Ho1_0 Ho2_0 3.558286 1_555
Ho1_0 Ho1_4 3.668523 1_455
Ho1_0 Ho1_4 3.668523 1_555
Ho1_1 Mg0_5 3.299947 1_555
Ho1_1 Mg0_1 3.299949 1_555
Ho1_1 Ho3_4 3.359611 1_555
Ho1_1 Ho3_5 3.359611 1_555
Ho1_1 Ho3_1 3.359617 1_555
Ho1_1 Ho3_0 3.359617 1_555
Ho1_1 Ho2_1 3.558286 1_555
Ho1_1 Ho2_0 3.558286 1_555
Ho1_1 Ho1_5 3.668523 1_455
Ho1_1 Ho1_5 3.668523 1_555
Ho1_2 Mg0_6 3.299947 1_555
Ho1_2 Mg0_2 3.299949 1_555
Ho1_2 Ho3_6 3.359611 1_555
Ho1_2 Ho3_7 3.359611 1_554
Ho1_2 Ho3_2 3.359617 1_555
Ho1_2 Ho3_3 3.359617 1_554
Ho1_2 Ho2_2 3.558286 1_555
Ho1_2 Ho2_3 3.558286 1_554
Ho1_2 Ho1_6 3.668523 1_455
Ho1_2 Ho1_6 3.668523 1_555
Ho1_3 Mg0_7 3.299947 1_555
Ho1_3 Mg0_3 3.299949 1_555
Ho1_3 Ho3_7 3.359611 1_555
Ho1_3 Ho3_6 3.359611 1_555
Ho1_3 Ho3_2 3.359617 1_555
Ho1_3 Ho3_3 3.359617 1_555
Ho1_3 Ho2_2 3.558286 1_555
Ho1_3 Ho2_3 3.558286 1_555
Ho1_3 Ho1_7 3.668523 1_455
Ho1_3 Ho1_7 3.668523 1_555
Ho1_4 Mg0_0 3.299947 1_655
Ho1_4 Mg0_4 3.299949 1_555
Ho1_4 Ho3_1 3.359611 1_654
Ho1_4 Ho3_0 3.359611 1_655
Ho1_4 Ho3_4 3.359617 1_555
Ho1_4 Ho3_5 3.359617 1_554
Ho1_4 Ho2_5 3.558286 1_554
Ho1_4 Ho2_4 3.558286 1_555
Ho1_5 Mg0_1 3.299947 1_655
Ho1_5 Mg0_5 3.299949 1_555
Ho1_5 Ho3_0 3.359611 1_655
Ho1_5 Ho3_1 3.359611 1_655
Ho1_5 Ho3_4 3.359617 1_555
Ho1_5 Ho3_5 3.359617 1_555
Ho1_5 Ho2_4 3.558286 1_555
Ho1_5 Ho2_5 3.558286 1_555
Ho1_6 Mg0_2 3.299947 1_655
Ho1_6 Mg0_6 3.299949 1_555
Ho1_6 Ho3_3 3.359611 1_654
Ho1_6 Ho3_2 3.359611 1_655
Ho1_6 Ho3_7 3.359617 1_554
Ho1_6 Ho3_6 3.359617 1_555
Ho1_6 Ho2_7 3.558286 1_554
Ho1_6 Ho2_6 3.558286 1_555
Ho1_7 Mg0_3 3.299947 1_655
Ho1_7 Mg0_7 3.299949 1_555
Ho1_7 Ho3_2 3.359611 1_655
Ho1_7 Ho3_3 3.359611 1_655
Ho1_7 Ho3_7 3.359617 1_555
Ho1_7 Ho3_6 3.359617 1_555
Ho1_7 Ho2_7 3.558286 1_555
Ho1_7 Ho2_6 3.558286 1_555
Ho2_0 Mg1_4 3.264051 1_555
Ho2_0 Mg1_0 3.264057 1_555
Ho2_0 Mg0_4 3.295900 1_555
Ho2_0 Mg0_5 3.295900 1_555
Ho2_0 Mg0_0 3.295902 1_555
Ho2_0 Mg0_1 3.295902 1_555
Ho2_0 Ho3_4 3.596248 1_555
Ho2_0 Ho3_0 3.596253 1_555
Ho2_1 Mg1_5 3.264051 1_555
Ho2_1 Mg1_1 3.264057 1_555
Ho2_1 Mg0_4 3.295900 1_556
Ho2_1 Mg0_5 3.295900 1_555
Ho2_1 Mg0_1 3.295902 1_555
Ho2_1 Mg0_0 3.295902 1_556
Ho2_1 Ho3_5 3.596248 1_555
Ho2_1 Ho3_1 3.596253 1_555
Ho2_2 Mg1_6 3.264051 1_555
Ho2_2 Mg1_2 3.264057 1_555
Ho2_2 Mg0_7 3.295900 1_555
Ho2_2 Mg0_6 3.295900 1_555
Ho2_2 Mg0_2 3.295902 1_555
Ho2_2 Mg0_3 3.295902 1_555
Ho2_2 Ho3_6 3.596248 1_555
Ho2_2 Ho3_2 3.596253 1_555
Ho2_3 Mg1_7 3.264051 1_555
Ho2_3 Mg1_3 3.264057 1_555
Ho2_3 Mg0_7 3.295900 1_555
Ho2_3 Mg0_6 3.295900 1_556
Ho2_3 Mg0_2 3.295902 1_556
Ho2_3 Mg0_3 3.295902 1_555
Ho2_3 Ho3_7 3.596248 1_555
Ho2_3 Ho3_3 3.596253 1_555
Ho2_4 Mg1_0 3.264051 1_655
Ho2_4 Mg1_4 3.264057 1_555
Ho2_4 Mg0_1 3.295900 1_655
Ho2_4 Mg0_0 3.295900 1_655
Ho2_4 Mg0_4 3.295902 1_555
Ho2_4 Mg0_5 3.295902 1_555
Ho2_4 Ho3_0 3.596248 1_655
Ho2_4 Ho3_4 3.596253 1_555
Ho2_5 Mg1_1 3.264051 1_655
Ho2_5 Mg1_5 3.264057 1_555
Ho2_5 Mg0_1 3.295900 1_655
Ho2_5 Mg0_0 3.295900 1_656
Ho2_5 Mg0_4 3.295902 1_556
Ho2_5 Mg0_5 3.295902 1_555
Ho2_5 Ho3_1 3.596248 1_655
Ho2_5 Ho3_5 3.596253 1_555
Ho2_6 Mg1_2 3.264051 1_655
Ho2_6 Mg1_6 3.264057 1_555
Ho2_6 Mg0_3 3.295900 1_655
Ho2_6 Mg0_2 3.295900 1_655
Ho2_6 Mg0_6 3.295902 1_555
Ho2_6 Mg0_7 3.295902 1_555
Ho2_6 Ho3_2 3.596248 1_655
Ho2_6 Ho3_6 3.596253 1_555
Ho2_7 Mg1_3 3.264051 1_655
Ho2_7 Mg1_7 3.264057 1_555
Ho2_7 Mg0_3 3.295900 1_655
Ho2_7 Mg0_2 3.295900 1_656
Ho2_7 Mg0_6 3.295902 1_556
Ho2_7 Mg0_7 3.295902 1_555
Ho2_7 Ho3_3 3.596248 1_655
Ho2_7 Ho3_7 3.596253 1_555
Ho3_0 Mg1_6 3.299941 1_455
Ho3_0 Mg1_2 3.299941 1_555
Ho3_0 Ho3_4 3.668523 1_455
Ho3_0 Ho3_4 3.668523 1_555
Ho3_1 Mg1_7 3.299941 1_455
Ho3_1 Mg1_3 3.299941 1_555
Ho3_1 Ho3_5 3.668523 1_455
Ho3_1 Ho3_5 3.668523 1_555
Ho3_2 Mg1_4 3.299941 1_465
Ho3_2 Mg1_0 3.299941 1_565
Ho3_2 Ho3_6 3.668523 1_455
Ho3_2 Ho3_6 3.668523 1_555
Ho3_3 Mg1_5 3.299941 1_465
Ho3_3 Mg1_1 3.299941 1_565
Ho3_3 Ho3_7 3.668523 1_455
Ho3_3 Ho3_7 3.668523 1_555
Ho3_4 Mg1_2 3.299941 1_555
Ho3_4 Mg1_6 3.299941 1_555
Ho3_5 Mg1_3 3.299941 1_555
Ho3_5 Mg1_7 3.299941 1_555
Ho3_6 Mg1_0 3.299941 1_565
Ho3_6 Mg1_4 3.299941 1_565
Ho3_7 Mg1_1 3.299941 1_565
Ho3_7 Mg1_5 3.299941 1_565
