# generated using pymatgen
data_CaAcHg2
_symmetry_space_group_name_H-M   'P 1'
_cell_length_a   5.54416049
_cell_length_b   5.54416048
_cell_length_c   5.54416048
_cell_angle_alpha   60.00006396
_cell_angle_beta   60.00006442
_cell_angle_gamma   60.00006434
_symmetry_Int_Tables_number   1
_chemical_formula_structural   CaAcHg2
_chemical_formula_sum   'Ca1 Ac1 Hg2'
_cell_volume   120.50165541
_cell_formula_units_Z   1
loop_
 _symmetry_equiv_pos_site_id
 _symmetry_equiv_pos_as_xyz
  1  'x, y, z'
loop_
 _atom_site_type_symbol
 _atom_site_label
 _atom_site_symmetry_multiplicity
 _atom_site_fract_x
 _atom_site_fract_y
 _atom_site_fract_z
 _atom_site_occupancy
  Ca  Ca0  1  0.74999920  0.74999920  0.74999920  1
  Ac  Ac0  1  0.25000079  0.25000079  0.25000079  1
  Hg  Hg0  1  -0.00000005  -0.00000005  -0.00000005  1
  Hg  Hg1  1  0.50000106  0.50000106  0.50000106  1
loop_
_geom_bond_atom_site_label_1
_geom_bond_atom_site_label_2
_geom_bond_distance
_geom_bond_site_symmetry_2
Ca0 Hg1 3.395064 1_555
Ca0 Hg0 3.395090 1_656
Ca0 Hg0 3.395090 1_665
Ca0 Hg0 3.395090 1_566
Ca0 Hg0 3.395100 1_666
Ca0 Hg1 3.395102 1_565
Ca0 Hg1 3.395102 1_556
Ca0 Hg1 3.395102 1_655
Ac0 Hg0 3.395090 1_565
Ac0 Hg0 3.395090 1_556
Ac0 Hg0 3.395090 1_655
Ac0 Hg1 3.395093 1_545
Ac0 Hg1 3.395093 1_554
Ac0 Hg1 3.395093 1_455
Ac0 Hg1 3.395093 1_555
Ac0 Hg0 3.395101 1_555
