# generated using pymatgen
data_NbP6(WO8)3
_symmetry_space_group_name_H-M   'P 1'
_cell_length_a   9.01588774
_cell_length_b   9.01588774
_cell_length_c   9.01588796
_cell_angle_alpha   58.86660560
_cell_angle_beta   58.86660560
_cell_angle_gamma   58.86660681
_symmetry_Int_Tables_number   1
_chemical_formula_structural   NbP6(WO8)3
_chemical_formula_sum   'Nb1 P6 W3 O24'
_cell_volume   504.80767872
_cell_formula_units_Z   1
loop_
 _symmetry_equiv_pos_site_id
 _symmetry_equiv_pos_as_xyz
  1  'x, y, z'
loop_
 _atom_site_type_symbol
 _atom_site_label
 _atom_site_symmetry_multiplicity
 _atom_site_fract_x
 _atom_site_fract_y
 _atom_site_fract_z
 _atom_site_occupancy
  Nb  Nb0  1  0.14075800  0.14075800  0.14075800  1
  P  P0  1  0.53502300  0.96481100  0.25253800  1
  P  P1  1  0.25253800  0.53502300  0.96481100  1
  P  P2  1  0.96481100  0.25253800  0.53502300  1
  P  P3  1  0.03666200  0.74768600  0.46330800  1
  P  P4  1  0.74768600  0.46330800  0.03666200  1
  P  P5  1  0.46330800  0.03666200  0.74768600  1
  W  W0  1  0.85810000  0.85810000  0.85810000  1
  W  W1  1  0.64240800  0.64240800  0.64240800  1
  W  W2  1  0.35625300  0.35625300  0.35625300  1
  O  O0  1  0.48972300  0.86710800  0.71886900  1
  O  O1  1  0.86710800  0.71886900  0.48972300  1
  O  O2  1  0.70823800  0.94413300  0.08962500  1
  O  O3  1  0.71886900  0.48972300  0.86710800  1
  O  O4  1  0.55471900  0.79092700  0.42796500  1
  O  O5  1  0.36207600  0.99948400  0.22386200  1
  O  O6  1  0.08962500  0.70823800  0.94413300  1
  O  O7  1  0.42796500  0.55471900  0.79092700  1
  O  O8  1  0.79092700  0.42796500  0.55471900  1
  O  O9  1  0.01759500  0.77011000  0.62668200  1
  O  O10  1  0.06481700  0.91879400  0.28560900  1
  O  O11  1  0.77011000  0.62668200  0.01759500  1
  O  O12  1  0.22386200  0.36207600  0.99948400  1
  O  O13  1  0.94413300  0.08962500  0.70823800  1
  O  O14  1  0.99948400  0.22386200  0.36207600  1
  O  O15  1  0.21205000  0.58023100  0.42626900  1
  O  O16  1  0.58023100  0.42626900  0.21205000  1
  O  O17  1  0.91879400  0.28560900  0.06481700  1
  O  O18  1  0.62668200  0.01759500  0.77011000  1
  O  O19  1  0.42626900  0.21205000  0.58023100  1
  O  O20  1  0.29335700  0.50053100  0.12967900  1
  O  O21  1  0.28560900  0.06481700  0.91879400  1
  O  O22  1  0.12967900  0.29335700  0.50053100  1
  O  O23  1  0.50053100  0.12967900  0.29335700  1
loop_
_geom_bond_atom_site_label_1
_geom_bond_atom_site_label_2
_geom_bond_distance
_geom_bond_site_symmetry_2
Nb0 O10 1.992194 1_545
Nb0 O17 1.992194 1_455
Nb0 O21 1.992194 1_554
Nb0 O12 2.023927 1_554
Nb0 O5 2.023927 1_545
Nb0 O14 2.023927 1_455
O0 P5 1.559273 1_565
O0 W1 2.013310 1_555
O1 P3 1.559273 1_655
O1 W1 2.013310 1_555
O2 P0 1.497048 1_555
O2 W0 2.111536 1_554
O3 P4 1.559273 1_556
O3 W1 2.013310 1_555
O4 P0 1.558643 1_555
O4 W1 1.991205 1_555
O5 P0 1.557285 1_555
O6 P1 1.497048 1_555
O6 W0 2.111536 1_455
O7 P1 1.558643 1_555
O7 W1 1.991205 1_555
O8 P2 1.558643 1_555
O8 W1 1.991205 1_555
O9 P3 1.500068 1_555
O9 W0 2.116564 1_455
O10 P3 1.561968 1_555
O11 P4 1.500068 1_555
O11 W0 2.116563 1_554
O12 P1 1.557285 1_555
O13 P2 1.497048 1_555
O13 W0 2.111536 1_545
O14 P2 1.557285 1_555
O15 P3 1.548533 1_555
O15 W2 1.980217 1_555
O16 P4 1.548533 1_555
O16 W2 1.980217 1_555
O17 P4 1.561968 1_555
O18 P5 1.500068 1_555
O18 W0 2.116564 1_545
O19 P5 1.548533 1_555
O19 W2 1.980217 1_555
O20 P1 1.552726 1_554
O20 W2 1.968213 1_555
O21 P5 1.561968 1_555
O22 P2 1.552726 1_455
O22 W2 1.968213 1_555
O23 P0 1.552726 1_545
O23 W2 1.968213 1_555
