# generated using pymatgen
data_Hf2Al3
_symmetry_space_group_name_H-M   'P 1'
_cell_length_a   5.47594775
_cell_length_b   5.47594809
_cell_length_c   7.39722934
_cell_angle_alpha   100.74251260
_cell_angle_beta   100.74251633
_cell_angle_gamma   119.76289432
_symmetry_Int_Tables_number   1
_chemical_formula_structural   Hf2Al3
_chemical_formula_sum   'Hf4 Al6'
_cell_volume   178.77586182
_cell_formula_units_Z   2
loop_
 _symmetry_equiv_pos_site_id
 _symmetry_equiv_pos_as_xyz
  1  'x, y, z'
loop_
 _atom_site_type_symbol
 _atom_site_label
 _atom_site_symmetry_multiplicity
 _atom_site_fract_x
 _atom_site_fract_y
 _atom_site_fract_z
 _atom_site_occupancy
  Hf  Hf0  1  0.13673743  0.76933328  0.89399943  1
  Hf  Hf1  1  0.87533385  0.24273800  0.10600057  1
  Hf  Hf2  1  0.01933328  0.88673743  0.39399943  1
  Hf  Hf3  1  0.49273800  0.62533385  0.60600057  1
  Al  Al0  1  0.62206504  0.62206504  -0.00000000  1
  Al  Al1  1  0.87206504  0.37206504  0.50000000  1
  Al  Al2  1  0.54455493  0.18056516  0.72925641  1
  Al  Al3  1  0.45130874  0.81529852  0.27074359  1
  Al  Al4  1  0.43056516  0.29455493  0.22925641  1
  Al  Al5  1  0.06529852  0.20130874  0.77074359  1
loop_
_geom_bond_atom_site_label_1
_geom_bond_atom_site_label_2
_geom_bond_distance
_geom_bond_site_symmetry_2
Al0 Al2 2.625911 1_554
Al0 Al3 2.625911 1_555
Al0 Al5 2.668629 1_554
Al0 Al4 2.668629 1_555
Al0 Hf0 2.830399 1_654
Al0 Hf1 2.830399 1_565
Al0 Hf2 2.873808 1_655
Al0 Hf3 2.873808 1_554
Al0 Hf0 3.148786 1_554
Al0 Hf1 3.148786 1_555
Al1 Al4 2.625911 1_555
Al1 Al5 2.625911 1_655
Al1 Al3 2.668629 1_545
Al1 Al2 2.668629 1_555
Al1 Hf3 2.830399 1_655
Al1 Hf2 2.830399 1_655
Al1 Hf0 2.873808 1_655
Al1 Hf1 2.873808 1_555
Al1 Hf3 3.148786 1_555
Al1 Hf2 3.148786 1_645
Al2 Al5 2.752760 1_655
Al2 Al5 2.752760 1_555
Al2 Hf3 2.858245 1_545
Al2 Hf3 2.874213 1_555
Al2 Hf2 2.875777 1_545
Al2 Hf1 2.883686 1_556
Al2 Hf0 2.930524 1_545
Al2 Hf0 3.012882 1_655
Al3 Al4 2.752760 1_565
Al3 Al4 2.752760 1_555
Al3 Hf2 2.858245 1_555
Al3 Hf2 2.874213 1_655
Al3 Hf3 2.875778 1_555
Al3 Hf0 2.883686 1_554
Al3 Hf1 2.930524 1_455
Al3 Hf1 3.012882 1_565
Al4 Hf1 2.858245 1_455
Al4 Hf1 2.874213 1_555
Al4 Hf0 2.875777 1_544
Al4 Hf3 2.883686 1_555
Al4 Hf2 2.930524 1_545
Al4 Hf2 3.012882 1_655
Al5 Hf0 2.858245 1_545
Al5 Hf0 2.874213 1_555
Al5 Hf1 2.875778 1_456
Al5 Hf2 2.883686 1_545
Al5 Hf3 2.930524 1_445
Al5 Hf3 3.012882 1_555
