# generated using pymatgen
data_Ca2SnS4
_symmetry_space_group_name_H-M   'P 1'
_cell_length_a   7.23671565
_cell_length_b   7.23671565
_cell_length_c   7.14332306
_cell_angle_alpha   61.56809636
_cell_angle_beta   61.56809636
_cell_angle_gamma   31.75467591
_symmetry_Int_Tables_number   1
_chemical_formula_structural   Ca2SnS4
_chemical_formula_sum   'Ca2 Sn1 S4'
_cell_volume   171.06835273
_cell_formula_units_Z   1
loop_
 _symmetry_equiv_pos_site_id
 _symmetry_equiv_pos_as_xyz
  1  'x, y, z'
loop_
 _atom_site_type_symbol
 _atom_site_label
 _atom_site_symmetry_multiplicity
 _atom_site_fract_x
 _atom_site_fract_y
 _atom_site_fract_z
 _atom_site_occupancy
  Ca  Ca0  1  0.71057000  0.71057000  0.30759600  1
  Ca  Ca1  1  0.28943000  0.28943000  0.69240400  1
  Sn  Sn0  1  0.00000000  0.00000000  0.00000000  1
  S  S0  1  0.63264400  0.63264400  0.00536700  1
  S  S1  1  0.36735600  0.36735600  0.99463300  1
  S  S2  1  0.88946300  0.88946300  0.39615800  1
  S  S3  1  0.11053700  0.11053700  0.60384200  1
loop_
_geom_bond_atom_site_label_1
_geom_bond_atom_site_label_2
_geom_bond_distance
_geom_bond_site_symmetry_2
Ca0 S3 2.723910 1_565
Ca0 S3 2.723910 1_655
Ca0 S0 2.855944 1_555
Ca0 S2 2.856945 1_555
Ca0 S1 2.975032 1_564
Ca0 S1 2.975032 1_654
Ca1 S2 2.723910 1_545
Ca1 S2 2.723910 1_455
Ca1 S1 2.855944 1_555
Ca1 S3 2.856945 1_555
Ca1 S0 2.975032 1_456
Ca1 S0 2.975032 1_546
S0 Sn0 2.720485 1_565
S0 Sn0 2.720485 1_655
S1 Sn0 2.720485 1_656
S1 Sn0 2.720485 1_566
S2 Sn0 2.462740 1_665
S3 Sn0 2.462740 1_556
