# generated using pymatgen
data_LiGaNi2
_symmetry_space_group_name_H-M   'P 1'
_cell_length_a   3.97790773
_cell_length_b   3.97791128
_cell_length_c   3.97791128
_cell_angle_alpha   59.99989369
_cell_angle_beta   59.99998224
_cell_angle_gamma   59.99995872
_symmetry_Int_Tables_number   1
_chemical_formula_structural   LiGaNi2
_chemical_formula_sum   'Li1 Ga1 Ni2'
_cell_volume   44.50915504
_cell_formula_units_Z   1
loop_
 _symmetry_equiv_pos_site_id
 _symmetry_equiv_pos_as_xyz
  1  'x, y, z'
loop_
 _atom_site_type_symbol
 _atom_site_label
 _atom_site_symmetry_multiplicity
 _atom_site_fract_x
 _atom_site_fract_y
 _atom_site_fract_z
 _atom_site_occupancy
  Li  Li0  1  0.75000000  0.74999900  0.74999900  1
  Ga  Ga0  1  0.25000000  0.25000000  0.25000000  1
  Ni  Ni0  1  -0.00000000  0.99999900  -0.00000000  1
  Ni  Ni1  1  0.50000000  0.50000100  0.50000100  1
loop_
_geom_bond_atom_site_label_1
_geom_bond_atom_site_label_2
_geom_bond_distance
_geom_bond_site_symmetry_2
Li0 Ni1 2.435951 1_555
Li0 Ni0 2.435958 1_655
Li0 Ni0 2.435961 1_646
Li0 Ni0 2.435961 1_556
Li0 Ni1 2.435961 1_655
Li0 Ni0 2.435967 1_656
Li0 Ni1 2.435967 1_565
Li0 Ni1 2.435968 1_556
Ga0 Ni1 2.435957 1_545
Ga0 Ni0 2.435957 1_555
Ga0 Ni1 2.435958 1_554
Ga0 Ni0 2.435961 1_645
Ga0 Ni1 2.435961 1_455
Ga0 Ni0 2.435961 1_546
Ga0 Ni0 2.435967 1_545
Ga0 Ni1 2.435970 1_555
