# generated using pymatgen
data_Tc3Pt
_symmetry_space_group_name_H-M   'P 1'
_cell_length_a   5.51387585
_cell_length_b   5.51388023
_cell_length_c   4.37227574
_cell_angle_alpha   90.00000000
_cell_angle_beta   90.00000000
_cell_angle_gamma   120.00002693
_symmetry_Int_Tables_number   1
_chemical_formula_structural   Tc3Pt
_chemical_formula_sum   'Tc6 Pt2'
_cell_volume   115.12042095
_cell_formula_units_Z   2
loop_
 _symmetry_equiv_pos_site_id
 _symmetry_equiv_pos_as_xyz
  1  'x, y, z'
loop_
 _atom_site_type_symbol
 _atom_site_label
 _atom_site_symmetry_multiplicity
 _atom_site_fract_x
 _atom_site_fract_y
 _atom_site_fract_z
 _atom_site_occupancy
  Tc  Tc0  1  0.15749767  0.31500551  0.25000100  1
  Tc  Tc1  1  0.68499416  0.84249892  0.25000100  1
  Tc  Tc2  1  0.15750012  0.84249338  0.25000100  1
  Tc  Tc3  1  0.84248859  0.68499440  0.75000100  1
  Tc  Tc4  1  0.31500889  0.15750582  0.75000100  1
  Tc  Tc5  1  0.84249059  0.15749493  0.75000100  1
  Pt  Pt0  1  0.33334422  0.66667037  0.75000100  1
  Pt  Pt1  1  0.66667376  0.33333367  0.25000100  1
loop_
_geom_bond_atom_site_label_1
_geom_bond_atom_site_label_2
_geom_bond_distance
_geom_bond_site_symmetry_2
Tc0 Tc1 2.605334 1_445
Tc0 Tc2 2.605382 1_545
Tc0 Tc5 2.653646 1_454
Tc0 Tc5 2.653646 1_455
Tc0 Tc4 2.653658 1_554
Tc0 Tc4 2.653658 1_555
Tc0 Tc2 2.908498 1_555
Tc0 Tc1 2.908542 1_555
Tc1 Tc2 2.605354 1_655
Tc1 Tc5 2.653617 1_564
Tc1 Tc5 2.653617 1_565
Tc1 Tc3 2.653625 1_554
Tc1 Tc3 2.653625 1_555
Tc1 Tc2 2.908521 1_555
Tc2 Tc3 2.653659 1_454
Tc2 Tc3 2.653659 1_455
Tc2 Tc4 2.653662 1_564
Tc2 Tc4 2.653662 1_565
Tc3 Tc5 2.605306 1_565
Tc3 Tc4 2.605394 1_665
Tc3 Tc4 2.908482 1_555
Tc3 Tc5 2.908574 1_555
Tc4 Tc5 2.605377 1_455
Tc4 Tc5 2.908499 1_555
Pt0 Tc1 2.756602 1_556
Pt0 Tc1 2.756602 1_555
Pt0 Tc0 2.756646 1_556
Pt0 Tc0 2.756646 1_555
Pt0 Tc2 2.756653 1_556
Pt0 Tc2 2.756653 1_555
Pt0 Tc3 2.758229 1_555
Pt0 Tc5 2.758246 1_565
Pt0 Tc4 2.758313 1_555
Pt0 Tc4 2.758347 1_565
Pt0 Tc5 2.758406 1_455
Pt0 Tc3 2.758423 1_455
Pt1 Tc5 2.756619 1_554
Pt1 Tc5 2.756619 1_555
Pt1 Tc3 2.756634 1_554
Pt1 Tc3 2.756634 1_555
Pt1 Tc4 2.756645 1_554
Pt1 Tc4 2.756645 1_555
Pt1 Tc0 2.758261 1_655
Pt1 Tc2 2.758289 1_655
Pt1 Tc1 2.758300 1_545
Pt1 Tc1 2.758356 1_555
Pt1 Tc2 2.758366 1_545
Pt1 Tc0 2.758393 1_555
