# generated using pymatgen
data_LiInAu2
_symmetry_space_group_name_H-M   'P 1'
_cell_length_a   4.62753580
_cell_length_b   4.62753569
_cell_length_c   4.62753606
_cell_angle_alpha   59.99974105
_cell_angle_beta   59.99973822
_cell_angle_gamma   59.99974534
_symmetry_Int_Tables_number   1
_chemical_formula_structural   LiInAu2
_chemical_formula_sum   'Li1 In1 Au2'
_cell_volume   70.06995413
_cell_formula_units_Z   1
loop_
 _symmetry_equiv_pos_site_id
 _symmetry_equiv_pos_as_xyz
  1  'x, y, z'
loop_
 _atom_site_type_symbol
 _atom_site_label
 _atom_site_symmetry_multiplicity
 _atom_site_fract_x
 _atom_site_fract_y
 _atom_site_fract_z
 _atom_site_occupancy
  Li  Li0  1  0.74999888  0.74999889  0.74999889  1
  In  In0  1  0.24999940  0.24999943  0.24999942  1
  Au  Au0  1  0.50000050  0.50000043  0.50000040  1
  Au  Au1  1  0.00000021  0.00000026  0.00000029  1
loop_
_geom_bond_atom_site_label_1
_geom_bond_atom_site_label_2
_geom_bond_distance
_geom_bond_site_symmetry_2
Au0 In0 2.833762 1_655
Au0 In0 2.833762 1_565
Au0 In0 2.833762 1_556
Au0 Li0 2.833763 1_555
Au0 Li0 2.833772 1_554
Au0 Li0 2.833772 1_545
Au0 Li0 2.833772 1_455
Au0 In0 2.833793 1_555
Au1 Li0 2.833761 1_445
Au1 Li0 2.833761 1_454
Au1 Li0 2.833761 1_544
Au1 In0 2.833769 1_455
Au1 In0 2.833769 1_545
Au1 In0 2.833769 1_554
Au1 In0 2.833771 1_555
Au1 Li0 2.833796 1_444
