# generated using pymatgen
data_TmZrRu2
_symmetry_space_group_name_H-M   'P 1'
_cell_length_a   4.65584787
_cell_length_b   4.65584787
_cell_length_c   4.65584787
_cell_angle_alpha   60.00000000
_cell_angle_beta   60.00000000
_cell_angle_gamma   60.00000000
_symmetry_Int_Tables_number   1
_chemical_formula_structural   TmZrRu2
_chemical_formula_sum   'Tm1 Zr1 Ru2'
_cell_volume   71.36435511
_cell_formula_units_Z   1
loop_
 _symmetry_equiv_pos_site_id
 _symmetry_equiv_pos_as_xyz
  1  'x, y, z'
loop_
 _atom_site_type_symbol
 _atom_site_label
 _atom_site_symmetry_multiplicity
 _atom_site_fract_x
 _atom_site_fract_y
 _atom_site_fract_z
 _atom_site_occupancy
  Tm  Tm0  1  0.24999900  0.24999900  0.24999900  1
  Zr  Zr0  1  0.75000000  0.75000000  0.75000000  1
  Ru  Ru0  1  0.00000000  0.00000000  -0.00000000  1
  Ru  Ru1  1  0.50000000  0.50000000  0.50000000  1
loop_
_geom_bond_atom_site_label_1
_geom_bond_atom_site_label_2
_geom_bond_distance
_geom_bond_site_symmetry_2
Ru0 Tm0 2.851101 1_555
Ru0 Zr0 2.851113 1_444
Ru0 Zr0 2.851113 1_445
Ru0 Zr0 2.851113 1_454
Ru0 Zr0 2.851113 1_544
Ru0 Tm0 2.851117 1_554
Ru0 Tm0 2.851117 1_545
Ru0 Tm0 2.851117 1_455
Ru1 Tm0 2.851109 1_556
Ru1 Tm0 2.851109 1_565
Ru1 Tm0 2.851109 1_655
Ru1 Zr0 2.851113 1_545
Ru1 Zr0 2.851113 1_554
Ru1 Zr0 2.851113 1_555
Ru1 Zr0 2.851113 1_455
Ru1 Tm0 2.851124 1_555
