# generated using pymatgen
data_Ac
_symmetry_space_group_name_H-M   'P 1'
_cell_length_a   8.09208146
_cell_length_b   8.09208161
_cell_length_c   26.03407296
_cell_angle_alpha   90.00000000
_cell_angle_beta   90.00000000
_cell_angle_gamma   120.00000826
_symmetry_Int_Tables_number   1
_chemical_formula_structural   Ac
_chemical_formula_sum   Ac32
_cell_volume   1476.36320615
_cell_formula_units_Z   32
loop_
 _symmetry_equiv_pos_site_id
 _symmetry_equiv_pos_as_xyz
  1  'x, y, z'
loop_
 _atom_site_type_symbol
 _atom_site_label
 _atom_site_symmetry_multiplicity
 _atom_site_fract_x
 _atom_site_fract_y
 _atom_site_fract_z
 _atom_site_occupancy
  Ac  Ac0_0  1  0.00000000  0.00000000  0.00000000  1
  Ac  Ac0_1  1  0.00000000  0.00000000  0.50000000  1
  Ac  Ac0_2  1  0.00000000  0.50000000  0.00000000  1
  Ac  Ac0_3  1  0.00000000  0.50000000  0.50000000  1
  Ac  Ac0_4  1  0.50000000  0.00000000  0.00000000  1
  Ac  Ac0_5  1  0.50000000  0.00000000  0.50000000  1
  Ac  Ac0_6  1  0.50000000  0.50000000  0.00000000  1
  Ac  Ac0_7  1  0.50000000  0.50000000  0.50000000  1
  Ac  Ac1_0  1  0.16666700  0.33333400  0.12500000  1
  Ac  Ac1_1  1  0.16666700  0.33333400  0.62500000  1
  Ac  Ac1_2  1  0.16666700  0.83333400  0.12500000  1
  Ac  Ac1_3  1  0.16666700  0.83333400  0.62500000  1
  Ac  Ac1_4  1  0.66666700  0.33333400  0.12500000  1
  Ac  Ac1_5  1  0.66666700  0.33333400  0.62500000  1
  Ac  Ac1_6  1  0.66666700  0.83333400  0.12500000  1
  Ac  Ac1_7  1  0.66666700  0.83333400  0.62500000  1
  Ac  Ac2_0  1  0.00000000  0.00000000  0.25000000  1
  Ac  Ac2_1  1  0.00000000  0.00000000  0.75000000  1
  Ac  Ac2_2  1  0.00000000  0.50000000  0.25000000  1
  Ac  Ac2_3  1  0.00000000  0.50000000  0.75000000  1
  Ac  Ac2_4  1  0.50000000  0.00000000  0.25000000  1
  Ac  Ac2_5  1  0.50000000  0.00000000  0.75000000  1
  Ac  Ac2_6  1  0.50000000  0.50000000  0.25000000  1
  Ac  Ac2_7  1  0.50000000  0.50000000  0.75000000  1
  Ac  Ac3_0  1  0.33333350  0.16666650  0.37500000  1
  Ac  Ac3_1  1  0.33333350  0.16666650  0.87500000  1
  Ac  Ac3_2  1  0.33333350  0.66666650  0.37500000  1
  Ac  Ac3_3  1  0.33333350  0.66666650  0.87500000  1
  Ac  Ac3_4  1  0.83333350  0.16666650  0.37500000  1
  Ac  Ac3_5  1  0.83333350  0.16666650  0.87500000  1
  Ac  Ac3_6  1  0.83333350  0.66666650  0.37500000  1
  Ac  Ac3_7  1  0.83333350  0.66666650  0.87500000  1
loop_
_geom_bond_atom_site_label_1
_geom_bond_atom_site_label_2
_geom_bond_distance
_geom_bond_site_symmetry_2
Ac0_0 Ac1_6 4.005871 1_445
Ac0_0 Ac3_5 4.005872 1_454
Ac0_0 Ac1_2 4.005872 1_545
Ac0_0 Ac3_1 4.005873 1_554
Ac0_0 Ac3_7 4.005873 1_444
Ac0_0 Ac1_0 4.005876 1_555
Ac0_0 Ac0_6 4.046040 1_445
Ac0_0 Ac0_6 4.046040 1_555
Ac0_0 Ac0_4 4.046041 1_555
Ac0_0 Ac0_4 4.046041 1_455
Ac0_0 Ac0_2 4.046041 1_555
Ac0_0 Ac0_2 4.046041 1_545
Ac0_1 Ac1_7 4.005871 1_445
Ac0_1 Ac3_4 4.005872 1_455
Ac0_1 Ac1_3 4.005872 1_545
Ac0_1 Ac3_0 4.005873 1_555
Ac0_1 Ac3_6 4.005873 1_445
Ac0_1 Ac1_1 4.005876 1_555
Ac0_1 Ac0_7 4.046040 1_445
Ac0_1 Ac0_7 4.046040 1_555
Ac0_1 Ac0_5 4.046041 1_555
Ac0_1 Ac0_5 4.046041 1_455
Ac0_1 Ac0_3 4.046041 1_555
Ac0_1 Ac0_3 4.046041 1_545
Ac0_2 Ac1_4 4.005871 1_455
Ac0_2 Ac3_7 4.005872 1_454
Ac0_2 Ac1_0 4.005872 1_555
Ac0_2 Ac3_3 4.005873 1_554
Ac0_2 Ac3_5 4.005873 1_454
Ac0_2 Ac1_2 4.005876 1_555
Ac0_2 Ac0_4 4.046040 1_565
Ac0_2 Ac0_4 4.046040 1_455
Ac0_2 Ac0_6 4.046041 1_555
Ac0_2 Ac0_6 4.046041 1_455
Ac0_3 Ac1_5 4.005871 1_455
Ac0_3 Ac3_6 4.005872 1_455
Ac0_3 Ac1_1 4.005872 1_555
Ac0_3 Ac3_2 4.005873 1_555
Ac0_3 Ac3_4 4.005873 1_455
Ac0_3 Ac1_3 4.005876 1_555
Ac0_3 Ac0_5 4.046040 1_565
Ac0_3 Ac0_5 4.046040 1_455
Ac0_3 Ac0_7 4.046041 1_555
Ac0_3 Ac0_7 4.046041 1_455
Ac0_4 Ac1_2 4.005871 1_545
Ac0_4 Ac3_1 4.005872 1_554
Ac0_4 Ac1_6 4.005872 1_545
Ac0_4 Ac3_5 4.005873 1_554
Ac0_4 Ac3_3 4.005873 1_544
Ac0_4 Ac1_4 4.005876 1_555
Ac0_4 Ac0_6 4.046041 1_555
Ac0_4 Ac0_6 4.046041 1_545
Ac0_5 Ac1_3 4.005871 1_545
Ac0_5 Ac3_0 4.005872 1_555
Ac0_5 Ac1_7 4.005872 1_545
Ac0_5 Ac3_4 4.005873 1_555
Ac0_5 Ac3_2 4.005873 1_545
Ac0_5 Ac1_5 4.005876 1_555
Ac0_5 Ac0_7 4.046041 1_545
Ac0_5 Ac0_7 4.046041 1_555
Ac0_6 Ac1_0 4.005871 1_555
Ac0_6 Ac3_3 4.005872 1_554
Ac0_6 Ac1_4 4.005872 1_555
Ac0_6 Ac3_7 4.005873 1_554
Ac0_6 Ac3_1 4.005873 1_554
Ac0_6 Ac1_6 4.005876 1_555
Ac0_7 Ac1_1 4.005871 1_555
Ac0_7 Ac3_2 4.005872 1_555
Ac0_7 Ac1_5 4.005872 1_555
Ac0_7 Ac3_6 4.005873 1_555
Ac0_7 Ac3_0 4.005873 1_555
Ac0_7 Ac1_7 4.005876 1_555
Ac1_0 Ac2_6 4.005871 1_555
Ac1_0 Ac2_2 4.005872 1_555
Ac1_0 Ac2_0 4.005876 1_555
Ac1_0 Ac1_6 4.046040 1_555
Ac1_0 Ac1_6 4.046040 1_445
Ac1_0 Ac1_4 4.046041 1_455
Ac1_0 Ac1_4 4.046041 1_555
Ac1_0 Ac1_2 4.046041 1_555
Ac1_0 Ac1_2 4.046041 1_545
Ac1_1 Ac2_7 4.005871 1_555
Ac1_1 Ac2_3 4.005872 1_555
Ac1_1 Ac2_1 4.005876 1_555
Ac1_1 Ac1_7 4.046040 1_445
Ac1_1 Ac1_7 4.046040 1_555
Ac1_1 Ac1_5 4.046041 1_455
Ac1_1 Ac1_5 4.046041 1_555
Ac1_1 Ac1_3 4.046041 1_555
Ac1_1 Ac1_3 4.046041 1_545
Ac1_2 Ac2_4 4.005871 1_565
Ac1_2 Ac2_0 4.005872 1_565
Ac1_2 Ac2_2 4.005876 1_555
Ac1_2 Ac1_4 4.046040 1_565
Ac1_2 Ac1_4 4.046040 1_455
Ac1_2 Ac1_6 4.046041 1_555
Ac1_2 Ac1_6 4.046041 1_455
Ac1_3 Ac2_5 4.005871 1_565
Ac1_3 Ac2_1 4.005872 1_565
Ac1_3 Ac2_3 4.005876 1_555
Ac1_3 Ac1_5 4.046040 1_455
Ac1_3 Ac1_5 4.046040 1_565
Ac1_3 Ac1_7 4.046041 1_455
Ac1_3 Ac1_7 4.046041 1_555
Ac1_4 Ac2_2 4.005871 1_655
Ac1_4 Ac2_6 4.005872 1_555
Ac1_4 Ac2_4 4.005876 1_555
Ac1_4 Ac1_6 4.046041 1_545
Ac1_4 Ac1_6 4.046041 1_555
Ac1_5 Ac2_3 4.005871 1_655
Ac1_5 Ac2_7 4.005872 1_555
Ac1_5 Ac2_5 4.005876 1_555
Ac1_5 Ac1_7 4.046041 1_545
Ac1_5 Ac1_7 4.046041 1_555
Ac1_6 Ac2_0 4.005871 1_665
Ac1_6 Ac2_4 4.005872 1_565
Ac1_6 Ac2_6 4.005876 1_555
Ac1_7 Ac2_1 4.005871 1_665
Ac1_7 Ac2_5 4.005872 1_565
Ac1_7 Ac2_7 4.005876 1_555
Ac2_0 Ac3_4 4.005872 1_455
Ac2_0 Ac3_0 4.005873 1_555
Ac2_0 Ac3_6 4.005873 1_445
Ac2_0 Ac2_6 4.046040 1_445
Ac2_0 Ac2_6 4.046040 1_555
Ac2_0 Ac2_4 4.046041 1_455
Ac2_0 Ac2_4 4.046041 1_555
Ac2_0 Ac2_2 4.046041 1_555
Ac2_0 Ac2_2 4.046041 1_545
Ac2_1 Ac3_5 4.005872 1_455
Ac2_1 Ac3_1 4.005873 1_555
Ac2_1 Ac3_7 4.005873 1_445
Ac2_1 Ac2_7 4.046040 1_445
Ac2_1 Ac2_7 4.046040 1_555
Ac2_1 Ac2_5 4.046041 1_455
Ac2_1 Ac2_5 4.046041 1_555
Ac2_1 Ac2_3 4.046041 1_545
Ac2_1 Ac2_3 4.046041 1_555
Ac2_2 Ac3_6 4.005872 1_455
Ac2_2 Ac3_2 4.005873 1_555
Ac2_2 Ac3_4 4.005873 1_455
Ac2_2 Ac2_4 4.046040 1_565
Ac2_2 Ac2_4 4.046040 1_455
Ac2_2 Ac2_6 4.046041 1_555
Ac2_2 Ac2_6 4.046041 1_455
Ac2_3 Ac3_7 4.005872 1_455
Ac2_3 Ac3_3 4.005873 1_555
Ac2_3 Ac3_5 4.005873 1_455
Ac2_3 Ac2_5 4.046040 1_565
Ac2_3 Ac2_5 4.046040 1_455
Ac2_3 Ac2_7 4.046041 1_555
Ac2_3 Ac2_7 4.046041 1_455
Ac2_4 Ac3_0 4.005872 1_555
Ac2_4 Ac3_4 4.005873 1_555
Ac2_4 Ac3_2 4.005873 1_545
Ac2_4 Ac2_6 4.046041 1_555
Ac2_4 Ac2_6 4.046041 1_545
Ac2_5 Ac3_1 4.005872 1_555
Ac2_5 Ac3_5 4.005873 1_555
Ac2_5 Ac3_3 4.005873 1_545
Ac2_5 Ac2_7 4.046041 1_545
Ac2_5 Ac2_7 4.046041 1_555
Ac2_6 Ac3_2 4.005872 1_555
Ac2_6 Ac3_6 4.005873 1_555
Ac2_6 Ac3_0 4.005873 1_555
Ac2_7 Ac3_3 4.005872 1_555
Ac2_7 Ac3_7 4.005873 1_555
Ac2_7 Ac3_1 4.005873 1_555
Ac3_0 Ac3_6 4.046040 1_555
Ac3_0 Ac3_6 4.046040 1_445
Ac3_0 Ac3_4 4.046041 1_555
Ac3_0 Ac3_4 4.046041 1_455
Ac3_0 Ac3_2 4.046041 1_555
Ac3_0 Ac3_2 4.046041 1_545
Ac3_1 Ac3_7 4.046040 1_445
Ac3_1 Ac3_7 4.046040 1_555
Ac3_1 Ac3_5 4.046041 1_555
Ac3_1 Ac3_5 4.046041 1_455
Ac3_1 Ac3_3 4.046041 1_555
Ac3_1 Ac3_3 4.046041 1_545
Ac3_2 Ac3_4 4.046040 1_565
Ac3_2 Ac3_4 4.046040 1_455
Ac3_2 Ac3_6 4.046041 1_455
Ac3_2 Ac3_6 4.046041 1_555
Ac3_3 Ac3_5 4.046040 1_565
Ac3_3 Ac3_5 4.046040 1_455
Ac3_3 Ac3_7 4.046041 1_455
Ac3_3 Ac3_7 4.046041 1_555
Ac3_4 Ac3_6 4.046041 1_555
Ac3_4 Ac3_6 4.046041 1_545
Ac3_5 Ac3_7 4.046041 1_555
Ac3_5 Ac3_7 4.046041 1_545
