# generated using pymatgen
data_Au
_symmetry_space_group_name_H-M   'P 1'
_cell_length_a   5.89909241
_cell_length_b   5.89909350
_cell_length_c   5.89909200
_cell_angle_alpha   60.00000844
_cell_angle_beta   60.00000228
_cell_angle_gamma   60.00000120
_symmetry_Int_Tables_number   1
_chemical_formula_structural   Au
_chemical_formula_sum   Au8
_cell_volume   145.15790442
_cell_formula_units_Z   8
loop_
 _symmetry_equiv_pos_site_id
 _symmetry_equiv_pos_as_xyz
  1  'x, y, z'
loop_
 _atom_site_type_symbol
 _atom_site_label
 _atom_site_symmetry_multiplicity
 _atom_site_fract_x
 _atom_site_fract_y
 _atom_site_fract_z
 _atom_site_occupancy
  Au  Au0_0  1  0.00000000  0.00000000  0.00000000  1
  Au  Au0_1  1  0.00000000  0.00000000  0.50000000  1
  Au  Au0_2  1  0.00000000  0.50000000  0.00000000  1
  Au  Au0_3  1  0.00000000  0.50000000  0.50000000  1
  Au  Au0_4  1  0.50000000  0.00000000  0.00000000  1
  Au  Au0_5  1  0.50000000  0.00000000  0.50000000  1
  Au  Au0_6  1  0.50000000  0.50000000  0.00000000  1
  Au  Au0_7  1  0.50000000  0.50000000  0.50000000  1
loop_
_geom_bond_atom_site_label_1
_geom_bond_atom_site_label_2
_geom_bond_distance
_geom_bond_site_symmetry_2
Au0_0 Au0_1 2.949546 1_555
Au0_0 Au0_1 2.949546 1_554
Au0_0 Au0_4 2.949546 1_555
Au0_0 Au0_5 2.949546 1_554
Au0_0 Au0_5 2.949546 1_455
Au0_0 Au0_4 2.949546 1_455
Au0_0 Au0_6 2.949547 1_455
Au0_0 Au0_6 2.949547 1_545
Au0_0 Au0_3 2.949547 1_545
Au0_0 Au0_2 2.949547 1_555
Au0_0 Au0_2 2.949547 1_545
Au0_0 Au0_3 2.949547 1_554
Au0_1 Au0_4 2.949546 1_555
Au0_1 Au0_5 2.949546 1_555
Au0_1 Au0_4 2.949546 1_456
Au0_1 Au0_5 2.949546 1_455
Au0_1 Au0_7 2.949547 1_455
Au0_1 Au0_7 2.949547 1_545
Au0_1 Au0_3 2.949547 1_545
Au0_1 Au0_2 2.949547 1_546
Au0_1 Au0_2 2.949547 1_555
Au0_1 Au0_3 2.949547 1_555
Au0_2 Au0_3 2.949546 1_555
Au0_2 Au0_3 2.949546 1_554
Au0_2 Au0_6 2.949546 1_455
Au0_2 Au0_7 2.949546 1_554
Au0_2 Au0_7 2.949546 1_455
Au0_2 Au0_6 2.949546 1_555
Au0_2 Au0_4 2.949547 1_555
Au0_2 Au0_4 2.949547 1_465
Au0_3 Au0_6 2.949546 1_456
Au0_3 Au0_7 2.949546 1_455
Au0_3 Au0_6 2.949546 1_555
Au0_3 Au0_7 2.949546 1_555
Au0_3 Au0_5 2.949547 1_555
Au0_3 Au0_5 2.949547 1_465
Au0_4 Au0_5 2.949546 1_554
Au0_4 Au0_5 2.949546 1_555
Au0_4 Au0_7 2.949547 1_554
Au0_4 Au0_6 2.949547 1_555
Au0_4 Au0_7 2.949547 1_545
Au0_4 Au0_6 2.949547 1_545
Au0_5 Au0_7 2.949547 1_555
Au0_5 Au0_6 2.949547 1_555
Au0_5 Au0_6 2.949547 1_546
Au0_5 Au0_7 2.949547 1_545
Au0_6 Au0_7 2.949546 1_554
Au0_6 Au0_7 2.949546 1_555
