# generated using pymatgen
data_Sr4As2O
_symmetry_space_group_name_H-M   'P 1'
_cell_length_a   4.85774818
_cell_length_b   4.85774943
_cell_length_c   8.86680865
_cell_angle_alpha   105.89819418
_cell_angle_beta   105.89820208
_cell_angle_gamma   89.99999469
_symmetry_Int_Tables_number   1
_chemical_formula_structural   Sr4As2O
_chemical_formula_sum   'Sr4 As2 O1'
_cell_volume   192.89810552
_cell_formula_units_Z   1
loop_
 _symmetry_equiv_pos_site_id
 _symmetry_equiv_pos_as_xyz
  1  'x, y, z'
loop_
 _atom_site_type_symbol
 _atom_site_label
 _atom_site_symmetry_multiplicity
 _atom_site_fract_x
 _atom_site_fract_y
 _atom_site_fract_z
 _atom_site_occupancy
  Sr  Sr0  1  0.67330947  0.67330947  0.34661894  1
  Sr  Sr1  1  0.32669053  0.32669053  0.65338106  1
  Sr  Sr2  1  -0.00000000  0.50000000  -0.00000000  1
  Sr  Sr3  1  0.50000000  -0.00000000  -0.00000000  1
  As  As0  1  0.86417342  0.86417342  0.72834784  1
  As  As1  1  0.13582658  0.13582658  0.27165216  1
  O  O0  1  0.50000000  0.50000000  -0.00000000  1
loop_
_geom_bond_atom_site_label_1
_geom_bond_atom_site_label_2
_geom_bond_distance
_geom_bond_site_symmetry_2
As0 Sr0 3.120419 1_555
As0 Sr3 3.290973 1_566
As0 Sr2 3.290973 1_656
As0 Sr3 3.290975 1_666
As0 Sr2 3.290976 1_666
As0 Sr1 3.489180 1_555
As0 Sr1 3.489183 1_565
As0 Sr1 3.489183 1_655
As0 Sr1 3.489187 1_665
As1 Sr1 3.120419 1_555
As1 Sr3 3.290973 1_555
As1 Sr2 3.290973 1_555
As1 Sr3 3.290975 1_455
As1 Sr2 3.290976 1_545
As1 Sr0 3.489180 1_555
As1 Sr0 3.489183 1_545
As1 Sr0 3.489183 1_455
As1 Sr0 3.489187 1_445
O0 Sr2 2.428874 1_555
O0 Sr2 2.428874 1_655
O0 Sr3 2.428875 1_565
O0 Sr3 2.428875 1_555
O0 Sr0 2.833415 1_555
O0 Sr1 2.833415 1_554
