# generated using pymatgen
data_Li2Fe(SiO3)2
_symmetry_space_group_name_H-M   'P 1'
_cell_length_a   16.07016580
_cell_length_b   12.40130200
_cell_length_c   11.15692593
_cell_angle_alpha   85.85137670
_cell_angle_beta   50.32472763
_cell_angle_gamma   43.82389567
_symmetry_Int_Tables_number   1
_chemical_formula_structural   Li2Fe(SiO3)2
_chemical_formula_sum   'Li12 Fe6 Si12 O36'
_cell_volume   811.76676781
_cell_formula_units_Z   6
loop_
 _symmetry_equiv_pos_site_id
 _symmetry_equiv_pos_as_xyz
  1  'x, y, z'
loop_
 _atom_site_type_symbol
 _atom_site_label
 _atom_site_symmetry_multiplicity
 _atom_site_fract_x
 _atom_site_fract_y
 _atom_site_fract_z
 _atom_site_occupancy
  Li  Li0  1  0.98849200  0.98849200  0.51150800  1
  Li  Li1  1  0.65052900  0.65052900  0.84947100  1
  Li  Li2  1  0.08730800  0.45434800  0.54339300  1
  Li  Li3  1  0.79508000  0.07049200  0.92446400  1
  Li  Li4  1  0.32553600  0.04003600  0.45492000  1
  Li  Li5  1  0.70660700  0.33505000  0.16269200  1
  Li  Li6  1  0.73849200  0.73849200  0.26150800  1
  Li  Li7  1  0.40052900  0.40052900  0.59947100  1
  Li  Li8  1  0.33505000  0.70660700  0.79565200  1
  Li  Li9  1  0.04003600  0.32553600  0.17950800  1
  Li  Li10  1  0.07049200  0.79508000  0.20996400  1
  Li  Li11  1  0.45434800  0.08730800  0.91495000  1
  Fe  Fe0  1  0.86872000  0.86872000  0.63128000  1
  Fe  Fe1  1  0.92173000  0.22541800  0.74491000  1
  Fe  Fe2  1  0.50509000  0.14205800  0.32827000  1
  Fe  Fe3  1  0.61872000  0.61872000  0.38128000  1
  Fe  Fe4  1  0.14205800  0.50509000  0.02458200  1
  Fe  Fe5  1  0.22541800  0.92173000  0.10794200  1
  Si  Si0  1  0.16375000  0.16375000  0.33625000  1
  Si  Si1  1  0.48604600  0.48604600  0.01395400  1
  Si  Si2  1  0.56219800  0.95500000  0.05359800  1
  Si  Si3  1  0.28579500  0.57971800  0.43096800  1
  Si  Si4  1  0.81903200  0.54648100  0.96420500  1
  Si  Si5  1  0.19640200  0.82079700  0.68780200  1
  Si  Si6  1  0.91375000  0.91375000  0.08625000  1
  Si  Si7  1  0.23604600  0.23604600  0.76395400  1
  Si  Si8  1  0.82079700  0.19640200  0.29500000  1
  Si  Si9  1  0.54648100  0.81903200  0.67028200  1
  Si  Si10  1  0.57971800  0.28579500  0.70351900  1
  Si  Si11  1  0.95500000  0.56219800  0.42920300  1
  O  O0  1  0.42735700  0.98341700  0.08616200  1
  O  O1  1  0.74804700  0.29187700  0.77650300  1
  O  O2  1  0.60494700  0.01935100  0.92380600  1
  O  O3  1  0.02618700  0.82978100  0.60698500  1
  O  O4  1  0.46710900  0.42210500  0.15992700  1
  O  O5  1  0.17920200  0.08304800  0.45161600  1
  O  O6  1  0.80544800  0.67851100  0.89088300  1
  O  O7  1  0.76281900  0.50053200  0.92593700  1
  O  O8  1  0.39849900  0.12356700  0.30454300  1
  O  O9  1  0.94545700  0.07660900  0.85150100  1
  O  O10  1  0.32406300  0.43928700  0.48718100  1
  O  O11  1  0.35911700  0.62484200  0.44455200  1
  O  O12  1  0.79838400  0.96386600  0.07079800  1
  O  O13  1  0.09007300  0.29914000  0.78289100  1
  O  O14  1  0.64301500  0.71295300  0.22381300  1
  O  O15  1  0.32619400  0.79810400  0.64505300  1
  O  O16  1  0.47349700  0.06642600  0.50195300  1
  O  O17  1  0.16383800  0.74693700  0.82264300  1
  O  O18  1  0.74693700  0.16383800  0.26658300  1
  O  O19  1  0.06642600  0.47349700  0.95812300  1
  O  O20  1  0.79810400  0.32619400  0.23064900  1
  O  O21  1  0.71295300  0.64301500  0.42021900  1
  O  O22  1  0.29914000  0.09007300  0.82789500  1
  O  O23  1  0.96386600  0.79838400  0.16695200  1
  O  O24  1  0.62484200  0.35911700  0.57148900  1
  O  O25  1  0.43928700  0.32406300  0.74946800  1
  O  O26  1  0.07660900  0.94545700  0.12643300  1
  O  O27  1  0.12356700  0.39849900  0.17339100  1
  O  O28  1  0.50053200  0.76281900  0.81071300  1
  O  O29  1  0.67851100  0.80544800  0.62515800  1
  O  O30  1  0.08304800  0.17920200  0.28613400  1
  O  O31  1  0.42210500  0.46710900  0.95086000  1
  O  O32  1  0.82978100  0.02618700  0.53704700  1
  O  O33  1  0.01935100  0.60494700  0.45189600  1
  O  O34  1  0.29187700  0.74804700  0.18357400  1
  O  O35  1  0.98341700  0.42735700  0.50306300  1
loop_
_geom_bond_atom_site_label_1
_geom_bond_atom_site_label_2
_geom_bond_distance
_geom_bond_site_symmetry_2
Li0 O34 1.967790 1_655
Li0 O1 1.967794 1_565
Li0 O32 2.043467 1_565
Li0 O3 2.043467 1_655
Li1 O28 2.082511 1_555
Li1 O7 2.082521 1_555
Li1 O0 2.235847 1_556
Li1 O35 2.235851 1_555
Li2 O8 1.975373 1_555
Li2 O33 1.981756 1_555
Li2 O6 2.059776 1_455
Li2 O35 2.211168 1_455
Li3 O3 1.996480 1_645
Li3 O12 2.028257 1_546
Li3 O9 2.062041 1_555
Li3 O4 2.123632 1_556
Li4 O14 1.996480 1_545
Li4 O5 2.028257 1_555
Li4 O8 2.062041 1_555
Li4 O13 2.123628 1_555
Li5 O9 1.975378 1_554
Li5 O20 1.981750 1_555
Li5 O11 2.059777 1_555
Li5 O18 2.211168 1_555
Li6 O16 1.967787 1_565
Li6 O19 1.967788 1_654
Li6 O14 2.043467 1_555
Li6 O21 2.043467 1_555
Li7 O25 2.082513 1_555
Li7 O10 2.082524 1_555
Li7 O18 2.235855 1_555
Li7 O17 2.235857 1_555
Li8 O26 1.975370 1_556
Li8 O15 1.981760 1_555
Li8 O24 2.059776 1_555
Li8 O17 2.211168 1_555
Li9 O21 1.996480 1_455
Li9 O30 2.028257 1_555
Li9 O27 2.062041 1_555
Li9 O22 2.123636 1_554
Li10 O32 1.996480 1_465
Li10 O23 2.028257 1_455
Li10 O26 2.062041 1_555
Li10 O31 2.123635 1_554
Li11 O27 1.975372 1_556
Li11 O2 1.981765 1_555
Li11 O29 2.059769 1_545
Li11 O0 2.211168 1_546
Fe0 O2 1.975086 1_565
Fe0 O33 1.975086 1_655
Fe0 O3 2.022391 1_655
Fe0 O32 2.022391 1_565
Fe1 O5 1.987870 1_655
Fe1 O1 2.015031 1_555
Fe1 O7 2.019934 1_555
Fe1 O9 2.052162 1_555
Fe2 O12 1.987870 1_545
Fe2 O16 2.015038 1_555
Fe2 O10 2.019924 1_555
Fe2 O8 2.052162 1_555
Fe3 O15 1.975086 1_555
Fe3 O20 1.975086 1_555
Fe3 O21 2.022391 1_555
Fe3 O14 2.022391 1_555
Fe4 O23 1.987870 1_455
Fe4 O19 2.015047 1_554
Fe4 O25 2.019925 1_554
Fe4 O27 2.052162 1_555
Fe5 O30 1.987870 1_565
Fe5 O34 2.015039 1_555
Fe5 O28 2.019931 1_554
Fe5 O26 2.052162 1_555
O0 Si2 1.692073 1_555
O0 Si0 1.694809 1_565
O1 Si1 1.610992 1_556
O2 Si2 1.599804 1_546
O3 Si3 1.621761 1_555
O4 Si3 1.685684 1_555
O4 Si1 1.703602 1_555
O5 Si0 1.607207 1_555
O6 Si2 1.682890 1_556
O6 Si4 1.707696 1_555
O7 Si4 1.610427 1_555
O8 Si2 1.623668 1_545
O9 Si5 1.623665 1_645
O10 Si3 1.610437 1_555
O11 Si5 1.682895 1_555
O11 Si3 1.707696 1_555
O12 Si6 1.607207 1_555
O13 Si4 1.685685 1_455
O13 Si7 1.703608 1_555
O14 Si4 1.621761 1_554
O15 Si5 1.599795 1_555
O16 Si7 1.610988 1_555
O17 Si5 1.692073 1_555
O17 Si6 1.694814 1_456
O18 Si8 1.692073 1_555
O18 Si6 1.694817 1_545
O19 Si7 1.610984 1_555
O20 Si8 1.599801 1_555
O21 Si9 1.621761 1_555
O22 Si9 1.685688 1_545
O22 Si7 1.703600 1_555
O23 Si6 1.607207 1_555
O24 Si8 1.682887 1_555
O24 Si10 1.707696 1_555
O25 Si10 1.610443 1_555
O26 Si8 1.623662 1_465
O27 Si11 1.623659 1_455
O28 Si9 1.610435 1_555
O29 Si11 1.682887 1_555
O29 Si9 1.707696 1_555
O30 Si0 1.607207 1_555
O31 Si10 1.685693 1_555
O31 Si1 1.703593 1_556
O32 Si10 1.621761 1_555
O33 Si11 1.599811 1_455
O34 Si1 1.610992 1_555
O35 Si11 1.692073 1_555
O35 Si0 1.694808 1_655
