# generated using pymatgen
data_Sn
_symmetry_space_group_name_H-M   'P 1'
_cell_length_a   6.39720796
_cell_length_b   8.90990938
_cell_length_c   8.90990872
_cell_angle_alpha   82.59530718
_cell_angle_beta   68.96157064
_cell_angle_gamma   68.96156414
_symmetry_Int_Tables_number   1
_chemical_formula_structural   Sn
_chemical_formula_sum   Sn16
_cell_volume   442.40152094
_cell_formula_units_Z   16
loop_
 _symmetry_equiv_pos_site_id
 _symmetry_equiv_pos_as_xyz
  1  'x, y, z'
loop_
 _atom_site_type_symbol
 _atom_site_label
 _atom_site_symmetry_multiplicity
 _atom_site_fract_x
 _atom_site_fract_y
 _atom_site_fract_z
 _atom_site_occupancy
  Sn  Sn0_0  1  0.18750000  0.12500000  0.37500000  1
  Sn  Sn0_1  1  0.18750000  0.12500000  0.87500000  1
  Sn  Sn0_2  1  0.18750000  0.62500000  0.37500000  1
  Sn  Sn0_3  1  0.18750000  0.62500000  0.87500000  1
  Sn  Sn0_4  1  0.68750000  0.12500000  0.37500000  1
  Sn  Sn0_5  1  0.68750000  0.12500000  0.87500000  1
  Sn  Sn0_6  1  0.68750000  0.62500000  0.37500000  1
  Sn  Sn0_7  1  0.68750000  0.62500000  0.87500000  1
  Sn  Sn1_0  1  0.31250000  0.37500000  0.12500000  1
  Sn  Sn1_1  1  0.31250000  0.37500000  0.62500000  1
  Sn  Sn1_2  1  0.31250000  0.87500000  0.12500000  1
  Sn  Sn1_3  1  0.31250000  0.87500000  0.62500000  1
  Sn  Sn1_4  1  0.81250000  0.37500000  0.12500000  1
  Sn  Sn1_5  1  0.81250000  0.37500000  0.62500000  1
  Sn  Sn1_6  1  0.81250000  0.87500000  0.12500000  1
  Sn  Sn1_7  1  0.81250000  0.87500000  0.62500000  1
loop_
_geom_bond_atom_site_label_1
_geom_bond_atom_site_label_2
_geom_bond_distance
_geom_bond_site_symmetry_2
Sn0_0 Sn1_3 3.046944 1_545
Sn0_0 Sn1_0 3.046944 1_555
Sn0_0 Sn1_5 3.046944 1_455
Sn0_0 Sn1_2 3.046944 1_545
Sn0_0 Sn0_4 3.198604 1_455
Sn0_0 Sn0_4 3.198604 1_555
Sn0_1 Sn1_2 3.046944 1_546
Sn0_1 Sn1_1 3.046944 1_555
Sn0_1 Sn1_4 3.046944 1_456
Sn0_1 Sn1_3 3.046944 1_545
Sn0_1 Sn0_5 3.198604 1_455
Sn0_1 Sn0_5 3.198604 1_555
Sn0_2 Sn1_1 3.046944 1_555
Sn0_2 Sn1_2 3.046944 1_555
Sn0_2 Sn1_7 3.046944 1_455
Sn0_2 Sn1_0 3.046944 1_555
Sn0_2 Sn0_6 3.198604 1_455
Sn0_2 Sn0_6 3.198604 1_555
Sn0_3 Sn1_0 3.046944 1_556
Sn0_3 Sn1_3 3.046944 1_555
Sn0_3 Sn1_6 3.046944 1_456
Sn0_3 Sn1_1 3.046944 1_555
Sn0_3 Sn0_7 3.198604 1_455
Sn0_3 Sn0_7 3.198604 1_555
Sn0_4 Sn1_7 3.046944 1_545
Sn0_4 Sn1_4 3.046944 1_555
Sn0_4 Sn1_1 3.046944 1_555
Sn0_4 Sn1_6 3.046944 1_545
Sn0_5 Sn1_6 3.046944 1_546
Sn0_5 Sn1_5 3.046944 1_555
Sn0_5 Sn1_0 3.046944 1_556
Sn0_5 Sn1_7 3.046944 1_545
Sn0_6 Sn1_5 3.046944 1_555
Sn0_6 Sn1_6 3.046944 1_555
Sn0_6 Sn1_3 3.046944 1_555
Sn0_6 Sn1_4 3.046944 1_555
Sn0_7 Sn1_4 3.046944 1_556
Sn0_7 Sn1_7 3.046944 1_555
Sn0_7 Sn1_2 3.046944 1_556
Sn0_7 Sn1_5 3.046944 1_555
Sn1_0 Sn1_4 3.198604 1_455
Sn1_0 Sn1_4 3.198604 1_555
Sn1_1 Sn1_5 3.198604 1_455
Sn1_1 Sn1_5 3.198604 1_555
Sn1_2 Sn1_6 3.198604 1_555
Sn1_2 Sn1_6 3.198604 1_455
Sn1_3 Sn1_7 3.198604 1_455
Sn1_3 Sn1_7 3.198604 1_555
