# generated using pymatgen
data_U2Fe12P7
_symmetry_space_group_name_H-M   'P 1'
_cell_length_a   8.97908774
_cell_length_b   8.97923596
_cell_length_c   3.63505065
_cell_angle_alpha   90.00000618
_cell_angle_beta   89.99999270
_cell_angle_gamma   120.00015155
_symmetry_Int_Tables_number   1
_chemical_formula_structural   U2Fe12P7
_chemical_formula_sum   'U2 Fe12 P7'
_cell_volume   253.81193173
_cell_formula_units_Z   1
loop_
 _symmetry_equiv_pos_site_id
 _symmetry_equiv_pos_as_xyz
  1  'x, y, z'
loop_
 _atom_site_type_symbol
 _atom_site_label
 _atom_site_symmetry_multiplicity
 _atom_site_fract_x
 _atom_site_fract_y
 _atom_site_fract_z
 _atom_site_occupancy
  U  U0  1  0.00000750  0.00000197  0.00000089  1
  U  U1  1  0.33334960  0.66668493  0.50000002  1
  Fe  Fe0  1  0.81729109  0.60967729  -0.00000005  1
  Fe  Fe1  1  0.39031914  0.20761990  -0.00000072  1
  Fe  Fe2  1  0.79239089  0.18269592  0.00000056  1
  Fe  Fe3  1  0.04962456  0.77354836  0.49999905  1
  Fe  Fe4  1  0.22644060  0.27607552  0.49999988  1
  Fe  Fe5  1  0.72391888  0.95036276  0.50000019  1
  Fe  Fe6  1  0.09925757  0.40005918  0.00000036  1
  Fe  Fe7  1  0.59994944  0.69920578  0.00000033  1
  Fe  Fe8  1  0.30079362  0.90074372  -0.00000148  1
  Fe  Fe9  1  0.88698291  0.43432048  0.50000046  1
  Fe  Fe10  1  0.56563819  0.45266615  0.50000002  1
  Fe  Fe11  1  0.54735681  0.11298360  0.49999934  1
  P  P0  1  0.77737982  0.73344684  0.50000038  1
  P  P1  1  0.26657019  0.04396061  0.49999968  1
  P  P2  1  0.95605136  0.22260864  0.50000045  1
  P  P3  1  0.66667590  0.33332349  0.00000016  1
  P  P4  1  0.07336392  0.63764647  -0.00000033  1
  P  P5  1  0.36234792  0.43571072  -0.00000001  1
  P  P6  1  0.56429210  0.92665767  -0.00000019  1
loop_
_geom_bond_atom_site_label_1
_geom_bond_atom_site_label_2
_geom_bond_distance
_geom_bond_site_symmetry_2
Fe0 P3 2.151891 1_555
Fe0 P4 2.184583 1_655
Fe0 P0 2.250601 1_554
Fe0 P0 2.250604 1_555
Fe0 U0 3.037314 1_665
Fe1 P3 2.151896 1_555
Fe1 P5 2.184515 1_555
Fe1 P1 2.250489 1_554
Fe1 P1 2.250492 1_555
Fe1 U0 3.037168 1_555
Fe2 P3 2.151803 1_555
Fe2 P6 2.184403 1_545
Fe2 P2 2.250483 1_555
Fe2 P2 2.250483 1_554
Fe2 U0 3.037188 1_655
Fe3 P1 2.227187 1_565
Fe3 P4 2.257889 1_555
Fe3 P4 2.257893 1_556
Fe3 P0 2.285839 1_455
Fe3 U0 2.922739 1_565
Fe3 U0 2.922747 1_566
Fe4 P2 2.226958 1_455
Fe4 P5 2.257876 1_555
Fe4 P5 2.257877 1_556
Fe4 P1 2.285780 1_555
Fe4 U0 2.922693 1_555
Fe4 U0 2.922698 1_556
Fe5 P0 2.226903 1_555
Fe5 P6 2.257869 1_556
Fe5 P6 2.257871 1_555
Fe5 P2 2.285832 1_565
Fe5 U0 2.922782 1_665
Fe5 U0 2.922786 1_666
Fe6 P5 2.219630 1_555
Fe6 P4 2.258597 1_555
Fe6 P2 2.333839 1_454
Fe6 P2 2.333839 1_455
Fe6 U1 2.901889 1_555
Fe6 U1 2.901890 1_554
Fe6 U0 3.239884 1_555
Fe7 P6 2.219815 1_555
Fe7 P5 2.258705 1_555
Fe7 P0 2.333723 1_554
Fe7 P0 2.333723 1_555
Fe7 U1 2.901728 1_555
Fe7 U1 2.901730 1_554
Fe7 U0 3.239812 1_665
Fe8 P4 2.219657 1_555
Fe8 P6 2.258639 1_555
Fe8 P1 2.333823 1_564
Fe8 P1 2.333829 1_565
Fe8 U1 2.901760 1_554
Fe8 U1 2.901767 1_555
Fe8 U0 3.239708 1_565
Fe9 P2 2.275393 1_555
Fe9 P3 2.498994 1_556
Fe9 P3 2.498995 1_555
Fe9 P4 2.526246 1_656
Fe9 P4 2.526250 1_655
Fe10 P0 2.275463 1_555
Fe10 P3 2.499398 1_555
Fe10 P3 2.499399 1_556
Fe10 P5 2.525988 1_556
Fe10 P5 2.525988 1_555
Fe11 P1 2.275527 1_555
Fe11 P3 2.499184 1_555
Fe11 P3 2.499189 1_556
Fe11 P6 2.525881 1_545
Fe11 P6 2.525883 1_546
P0 U0 2.871148 1_665
P0 U0 2.871150 1_666
P1 U0 2.871102 1_555
P1 U0 2.871107 1_556
P2 U0 2.871139 1_655
P2 U0 2.871141 1_656
P4 U1 2.865706 1_554
P4 U1 2.865708 1_555
P5 U1 2.865759 1_555
P5 U1 2.865759 1_554
P6 U1 2.865656 1_554
P6 U1 2.865657 1_555
