# generated using pymatgen
data_RbScO2
_symmetry_space_group_name_H-M   'P 1'
_cell_length_a   6.68182261
_cell_length_b   6.68182233
_cell_length_c   6.68182198
_cell_angle_alpha   28.22571345
_cell_angle_beta   28.22572052
_cell_angle_gamma   28.22571242
_symmetry_Int_Tables_number   1
_chemical_formula_structural   RbScO2
_chemical_formula_sum   'Rb1 Sc1 O2'
_cell_volume   58.95554834
_cell_formula_units_Z   1
loop_
 _symmetry_equiv_pos_site_id
 _symmetry_equiv_pos_as_xyz
  1  'x, y, z'
loop_
 _atom_site_type_symbol
 _atom_site_label
 _atom_site_symmetry_multiplicity
 _atom_site_fract_x
 _atom_site_fract_y
 _atom_site_fract_z
 _atom_site_occupancy
  Rb  Rb0  1  -0.00000000  -0.00000000  0.00000000  1
  Sc  Sc0  1  0.50000000  0.50000000  0.50000000  1
  O  O0  1  0.77730392  0.77730392  0.77730392  1
  O  O1  1  0.22269608  0.22269608  0.22269608  1
loop_
_geom_bond_atom_site_label_1
_geom_bond_atom_site_label_2
_geom_bond_distance
_geom_bond_site_symmetry_2
O0 Sc0 2.168109 1_565
O0 Sc0 2.168109 1_556
O0 Sc0 2.168109 1_655
O0 Rb0 2.840402 1_665
O0 Rb0 2.840402 1_656
O0 Rb0 2.840402 1_566
O1 Sc0 2.168109 1_545
O1 Sc0 2.168109 1_554
O1 Sc0 2.168109 1_455
O1 Rb0 2.840402 1_556
O1 Rb0 2.840402 1_565
O1 Rb0 2.840402 1_655
