# generated using pymatgen
data_Na2VO3
_symmetry_space_group_name_H-M   'P 1'
_cell_length_a   4.98515400
_cell_length_b   11.05658553
_cell_length_c   6.39737247
_cell_angle_alpha   89.78785621
_cell_angle_beta   89.99994449
_cell_angle_gamma   90.00010153
_symmetry_Int_Tables_number   1
_chemical_formula_structural   Na2VO3
_chemical_formula_sum   'Na8 V4 O12'
_cell_volume   352.61295884
_cell_formula_units_Z   4
loop_
 _symmetry_equiv_pos_site_id
 _symmetry_equiv_pos_as_xyz
  1  'x, y, z'
loop_
 _atom_site_type_symbol
 _atom_site_label
 _atom_site_symmetry_multiplicity
 _atom_site_fract_x
 _atom_site_fract_y
 _atom_site_fract_z
 _atom_site_occupancy
  Na  Na0  1  0.00963200  0.58433500  0.08417800  1
  Na  Na1  1  0.00963000  0.08434900  0.58421500  1
  Na  Na2  1  0.50962200  0.74991500  0.91864100  1
  Na  Na3  1  0.50962300  0.24993000  0.41862300  1
  Na  Na4  1  0.50963200  0.41566500  0.91582200  1
  Na  Na5  1  0.50963000  0.91565000  0.41578500  1
  Na  Na6  1  0.00962200  0.25008400  0.08135900  1
  Na  Na7  1  0.00962300  0.75007000  0.58137800  1
  V  V0  1  0.04283400  0.91470000  0.08526800  1
  V  V1  1  0.54283500  0.08530100  0.91473100  1
  V  V2  1  0.04281900  0.41474100  0.58532200  1
  V  V3  1  0.54281900  0.58525900  0.41467800  1
  O  O0  1  0.41904300  0.44346900  0.55656100  1
  O  O1  1  0.41904300  0.94345300  0.05654400  1
  O  O2  1  0.91904000  0.05654900  0.94345500  1
  O  O3  1  0.91904400  0.55653000  0.44343900  1
  O  O4  1  0.98845300  0.78044300  0.94181000  1
  O  O5  1  0.98843300  0.28049800  0.44177300  1
  O  O6  1  0.48843300  0.58061700  0.14157700  1
  O  O7  1  0.48843800  0.08066500  0.64159900  1
  O  O8  1  0.98843300  0.41938200  0.85842300  1
  O  O9  1  0.98843700  0.91933500  0.35840300  1
  O  O10  1  0.48845200  0.21955600  0.05819000  1
  O  O11  1  0.48843400  0.71950200  0.55822700  1
loop_
_geom_bond_atom_site_label_1
_geom_bond_atom_site_label_2
_geom_bond_distance
_geom_bond_site_symmetry_2
Na0 O8 2.332983 1_454
Na0 O4 2.351065 1_454
Na0 O3 2.361254 1_455
Na0 O6 2.415304 1_555
Na0 O6 2.624377 1_455
Na1 O9 2.333737 1_445
Na1 O5 2.351668 1_455
Na1 O2 2.361118 1_455
Na1 O7 2.415318 1_555
Na1 O7 2.624323 1_455
Na2 O11 2.333717 1_555
Na2 O6 2.351446 1_556
Na2 O1 2.361192 1_556
Na2 O4 2.415421 1_555
Na2 O4 2.624202 1_455
Na3 O10 2.333770 1_555
Na3 O7 2.351310 1_555
Na3 O0 2.361287 1_555
Na3 O5 2.415372 1_555
Na3 O5 2.624356 1_455
Na4 O6 2.332974 1_556
Na4 O10 2.351075 1_556
Na4 O0 2.361255 1_555
Na4 O8 2.415303 1_555
Na4 O8 2.624378 1_455
Na5 O7 2.333753 1_565
Na5 O11 2.351657 1_555
Na5 O1 2.361127 1_555
Na5 O9 2.415310 1_555
Na5 O9 2.624328 1_455
Na6 O5 2.333719 1_455
Na6 O8 2.351447 1_454
Na6 O2 2.361166 1_454
Na6 O10 2.415417 1_555
Na6 O10 2.624206 1_455
Na7 O4 2.333762 1_455
Na7 O9 2.351307 1_455
Na7 O3 2.361298 1_455
Na7 O11 2.415378 1_555
Na7 O11 2.624350 1_455
O0 V3 1.910969 1_555
O0 V2 1.911005 1_555
O1 V0 1.910955 1_555
O1 V1 1.911309 1_564
O2 V1 1.910935 1_555
O2 V0 1.911324 1_646
O3 V2 1.910961 1_655
O3 V3 1.911013 1_555
O4 V0 1.769002 1_656
O5 V2 1.769180 1_655
O6 V3 1.768973 1_555
O7 V1 1.769175 1_555
O8 V2 1.768972 1_655
O9 V0 1.769193 1_655
O10 V1 1.768989 1_554
O11 V3 1.769180 1_555
