# generated using pymatgen
data_PaZn3
_symmetry_space_group_name_H-M   'P 1'
_cell_length_a   6.31967734
_cell_length_b   6.31967950
_cell_length_c   4.25362942
_cell_angle_alpha   90.00000000
_cell_angle_beta   90.00000000
_cell_angle_gamma   119.99983062
_symmetry_Int_Tables_number   1
_chemical_formula_structural   PaZn3
_chemical_formula_sum   'Pa2 Zn6'
_cell_volume   147.12313920
_cell_formula_units_Z   2
loop_
 _symmetry_equiv_pos_site_id
 _symmetry_equiv_pos_as_xyz
  1  'x, y, z'
loop_
 _atom_site_type_symbol
 _atom_site_label
 _atom_site_symmetry_multiplicity
 _atom_site_fract_x
 _atom_site_fract_y
 _atom_site_fract_z
 _atom_site_occupancy
  Pa  Pa0  1  0.33333300  0.66666700  0.74999800  1
  Pa  Pa1  1  0.66666600  0.33333200  0.24999900  1
  Zn  Zn0  1  0.14499902  0.85500098  0.24999900  1
  Zn  Zn1  1  0.85500198  0.71000197  0.74999800  1
  Zn  Zn2  1  0.28999903  0.14500002  0.74999800  1
  Zn  Zn3  1  0.85500198  0.14500002  0.74999800  1
  Zn  Zn4  1  0.14499902  0.28999903  0.24999900  1
  Zn  Zn5  1  0.71000097  0.85500098  0.24999900  1
loop_
_geom_bond_atom_site_label_1
_geom_bond_atom_site_label_2
_geom_bond_distance
_geom_bond_site_symmetry_2
Pa0 Zn0 2.961945 1_555
Pa0 Zn5 2.961948 1_555
Pa0 Zn4 2.961949 1_555
Pa0 Zn0 2.961951 1_556
Pa0 Zn5 2.961954 1_556
Pa0 Zn4 2.961955 1_556
Pa0 Zn1 3.168717 1_455
Pa0 Zn2 3.168727 1_565
Pa0 Zn2 3.168728 1_555
Pa0 Zn3 3.168730 1_455
Pa0 Zn1 3.168737 1_555
Pa0 Zn3 3.168742 1_565
Pa1 Zn2 2.961944 1_555
Pa1 Zn3 2.961945 1_555
Pa1 Zn2 2.961950 1_554
Pa1 Zn3 2.961951 1_554
Pa1 Zn1 2.961956 1_555
Pa1 Zn1 2.961962 1_554
Pa1 Zn5 3.168718 1_545
Pa1 Zn4 3.168722 1_655
Pa1 Zn0 3.168730 1_545
Pa1 Zn4 3.168730 1_555
Pa1 Zn5 3.168738 1_555
Pa1 Zn0 3.168742 1_655
Zn0 Zn1 2.653750 1_455
Zn0 Zn1 2.653757 1_454
Zn0 Zn2 2.653757 1_565
Zn0 Zn2 2.653764 1_564
Zn0 Zn5 2.749047 1_455
Zn0 Zn4 2.749048 1_565
Zn1 Zn5 2.653758 1_555
Zn1 Zn5 2.653764 1_556
Zn1 Zn3 2.749048 1_565
Zn1 Zn2 2.749052 1_665
Zn2 Zn4 2.653754 1_555
Zn2 Zn4 2.653761 1_556
Zn2 Zn3 2.749041 1_455
Zn3 Zn4 2.653750 1_655
Zn3 Zn4 2.653757 1_656
Zn3 Zn5 2.653757 1_545
Zn3 Zn5 2.653764 1_546
Zn4 Zn5 2.749055 1_445
