# generated using pymatgen
data_CeFeO3
_symmetry_space_group_name_H-M   'P 1'
_cell_length_a   3.93357900
_cell_length_b   3.93357900
_cell_length_c   3.93357900
_cell_angle_alpha   90.00000000
_cell_angle_beta   90.00000000
_cell_angle_gamma   90.00000000
_symmetry_Int_Tables_number   1
_chemical_formula_structural   CeFeO3
_chemical_formula_sum   'Ce1 Fe1 O3'
_cell_volume   60.86443996
_cell_formula_units_Z   1
loop_
 _symmetry_equiv_pos_site_id
 _symmetry_equiv_pos_as_xyz
  1  'x, y, z'
loop_
 _atom_site_type_symbol
 _atom_site_label
 _atom_site_symmetry_multiplicity
 _atom_site_fract_x
 _atom_site_fract_y
 _atom_site_fract_z
 _atom_site_occupancy
  Ce  Ce0  1  0.00000000  0.00000000  0.00000000  1
  Fe  Fe0  1  0.50000000  0.50000000  0.50000000  1
  O  O0  1  0.50000000  0.50000000  0.00000000  1
  O  O1  1  0.50000000  0.00000000  0.50000000  1
  O  O2  1  0.00000000  0.50000000  0.50000000  1
loop_
_geom_bond_atom_site_label_1
_geom_bond_atom_site_label_2
_geom_bond_distance
_geom_bond_site_symmetry_2
Ce0 O0 2.781460 1_545
Ce0 O0 2.781460 1_555
Ce0 O0 2.781460 1_445
Ce0 O1 2.781460 1_455
Ce0 O2 2.781460 1_555
Ce0 O0 2.781460 1_455
Ce0 O2 2.781460 1_554
Ce0 O2 2.781460 1_544
Ce0 O2 2.781460 1_545
Ce0 O1 2.781460 1_555
Ce0 O1 2.781460 1_454
Ce0 O1 2.781460 1_554
Fe0 O1 1.966789 1_555
Fe0 O0 1.966789 1_555
Fe0 O2 1.966789 1_555
Fe0 O1 1.966789 1_565
Fe0 O0 1.966789 1_556
Fe0 O2 1.966789 1_655
