# generated using pymatgen
data_RbSrCO3F
_symmetry_space_group_name_H-M   'P 1'
_cell_length_a   5.37484448
_cell_length_b   5.37484448
_cell_length_c   4.86527200
_cell_angle_alpha   90.00000000
_cell_angle_beta   90.00000000
_cell_angle_gamma   120.00000591
_symmetry_Int_Tables_number   1
_chemical_formula_structural   RbSrCO3F
_chemical_formula_sum   'Rb1 Sr1 C1 O3 F1'
_cell_volume   121.72212795
_cell_formula_units_Z   1
loop_
 _symmetry_equiv_pos_site_id
 _symmetry_equiv_pos_as_xyz
  1  'x, y, z'
loop_
 _atom_site_type_symbol
 _atom_site_label
 _atom_site_symmetry_multiplicity
 _atom_site_fract_x
 _atom_site_fract_y
 _atom_site_fract_z
 _atom_site_occupancy
  Rb  Rb0  1  0.66666700  0.33333300  0.00000000  1
  Sr  Sr0  1  0.00000000  0.00000000  0.50000000  1
  C  C0  1  0.33333300  0.66666700  0.50000000  1
  O  O0  1  0.47335200  0.94670300  0.50000000  1
  O  O1  1  0.47335200  0.52664800  0.50000000  1
  O  O2  1  0.05329700  0.52664800  0.50000000  1
  F  F0  1  0.00000000  0.00000000  0.00000000  1
loop_
_geom_bond_atom_site_label_1
_geom_bond_atom_site_label_2
_geom_bond_distance
_geom_bond_site_symmetry_2
C0 O2 1.303498 1_555
C0 O0 1.303498 1_555
C0 O1 1.303507 1_555
O0 Sr0 2.698846 1_665
O0 Sr0 2.698851 1_565
O0 Rb0 3.025974 1_565
O0 Rb0 3.025974 1_566
O1 Sr0 2.698848 1_555
O1 Sr0 2.698848 1_665
O1 Rb0 3.025974 1_555
O1 Rb0 3.025974 1_556
O2 Sr0 2.698846 1_555
O2 Sr0 2.698851 1_565
O2 Rb0 3.025974 1_456
O2 Rb0 3.025974 1_455
F0 Sr0 2.432636 1_554
F0 Sr0 2.432636 1_555
F0 Rb0 3.103165 1_455
F0 Rb0 3.103169 1_555
F0 Rb0 3.103169 1_445
