# generated using pymatgen
data_K2CuF4
_symmetry_space_group_name_H-M   'P 1'
_cell_length_a   5.81125330
_cell_length_b   5.80740724
_cell_length_c   6.97972571
_cell_angle_alpha   90.00191476
_cell_angle_beta   114.56734077
_cell_angle_gamma   89.99555182
_symmetry_Int_Tables_number   1
_chemical_formula_structural   K2CuF4
_chemical_formula_sum   'K4 Cu2 F8'
_cell_volume   214.23004061
_cell_formula_units_Z   2
loop_
 _symmetry_equiv_pos_site_id
 _symmetry_equiv_pos_as_xyz
  1  'x, y, z'
loop_
 _atom_site_type_symbol
 _atom_site_label
 _atom_site_symmetry_multiplicity
 _atom_site_fract_x
 _atom_site_fract_y
 _atom_site_fract_z
 _atom_site_occupancy
  K  K0  1  0.64168113  0.00002846  0.28387798  1
  K  K1  1  0.85831416  0.50002728  0.71611340  1
  K  K2  1  0.14168584  0.49997272  0.28388660  1
  K  K3  1  0.35831887  0.99997154  0.71612202  1
  Cu  Cu0  1  0.00000000  -0.00000000  0.00000000  1
  Cu  Cu1  1  0.50000000  0.50000000  0.00000000  1
  F  F0  1  0.76811397  0.23183717  0.99997411  1
  F  F1  1  0.26800241  0.26805113  0.99996495  1
  F  F2  1  0.73199759  0.73194887  0.00003505  1
  F  F3  1  0.23188603  0.76816283  0.00002589  1
  F  F4  1  0.34664175  0.50010796  0.69323399  1
  F  F5  1  0.15330684  0.00011145  0.30667887  1
  F  F6  1  0.84669316  0.99988855  0.69332113  1
  F  F7  1  0.65335825  0.49989204  0.30676601  1
loop_
_geom_bond_atom_site_label_1
_geom_bond_atom_site_label_2
_geom_bond_distance
_geom_bond_site_symmetry_2
Cu0 F0 1.904763 1_454
Cu0 F3 1.904763 1_545
Cu0 F6 1.946759 1_444
Cu0 F5 1.946759 1_555
Cu0 F1 2.202167 1_554
Cu0 F2 2.202167 1_445
Cu1 F2 1.905809 1_555
Cu1 F1 1.905809 1_554
Cu1 F4 1.947312 1_554
Cu1 F7 1.947312 1_555
Cu1 F3 2.202894 1_555
Cu1 F0 2.202894 1_554
F0 K3 2.736172 1_545
F0 K2 2.736361 1_656
F0 K0 2.736732 1_556
F0 K1 2.736762 1_555
F1 K1 2.736016 1_455
F1 K0 2.736179 1_556
F1 K3 2.736508 1_545
F1 K2 2.736652 1_556
F2 K2 2.736016 1_655
F2 K3 2.736179 1_554
F2 K0 2.736508 1_565
F2 K1 2.736652 1_554
F3 K0 2.736172 1_565
F3 K1 2.736361 1_454
F3 K3 2.736732 1_554
F3 K2 2.736762 1_555
F4 K2 2.598488 1_555
F4 K3 2.906545 1_555
F4 K1 2.907819 1_455
F4 K3 2.908128 1_545
F4 K1 2.910690 1_555
F5 K3 2.599096 1_545
F5 K2 2.906502 1_555
F5 K0 2.907837 1_555
F5 K2 2.908111 1_545
F5 K0 2.910622 1_455
F6 K0 2.599096 1_565
F6 K1 2.906502 1_555
F6 K3 2.907837 1_555
F6 K1 2.908111 1_565
F6 K3 2.910622 1_655
F7 K1 2.598488 1_555
F7 K0 2.906545 1_555
F7 K2 2.907819 1_655
F7 K0 2.908128 1_565
F7 K2 2.910690 1_555
