# generated using pymatgen
data_Mn6O5F7
_symmetry_space_group_name_H-M   'P 1'
_cell_length_a   5.24929300
_cell_length_b   5.50112058
_cell_length_c   14.82292416
_cell_angle_alpha   88.52337831
_cell_angle_beta   83.44387322
_cell_angle_gamma   89.69571580
_symmetry_Int_Tables_number   1
_chemical_formula_structural   Mn6O5F7
_chemical_formula_sum   'Mn12 O10 F14'
_cell_volume   425.09988235
_cell_formula_units_Z   2
loop_
 _symmetry_equiv_pos_site_id
 _symmetry_equiv_pos_as_xyz
  1  'x, y, z'
loop_
 _atom_site_type_symbol
 _atom_site_label
 _atom_site_symmetry_multiplicity
 _atom_site_fract_x
 _atom_site_fract_y
 _atom_site_fract_z
 _atom_site_occupancy
  Mn  Mn0  1  0.95932700  0.09359700  0.99919500  1
  Mn  Mn1  1  0.49546900  0.84752500  0.83393600  1
  Mn  Mn2  1  0.04042200  0.11909000  0.67253500  1
  Mn  Mn3  1  0.48505400  0.92786600  0.49282000  1
  Mn  Mn4  1  0.94194200  0.02914400  0.32737100  1
  Mn  Mn5  1  0.50485600  0.10847600  0.15798500  1
  Mn  Mn6  1  0.99181800  0.54556200  0.83358600  1
  Mn  Mn7  1  0.44163700  0.39936700  0.98932900  1
  Mn  Mn8  1  0.54036200  0.42670500  0.33602600  1
  Mn  Mn9  1  0.08410600  0.49209100  0.50296400  1
  Mn  Mn10  1  0.54247900  0.44368300  0.67147900  1
  Mn  Mn11  1  0.97527700  0.51663700  0.15653800  1
  O  O0  1  0.25606300  0.17957600  0.07658900  1
  O  O1  1  0.74833700  0.23204600  0.24155200  1
  O  O2  1  0.13126400  0.34830300  0.92721100  1
  O  O3  1  0.84287600  0.36873900  0.73612900  1
  O  O4  1  0.67980300  0.16569600  0.40620300  1
  O  O5  1  0.72665700  0.31558900  0.06770300  1
  O  O6  1  0.26402800  0.34007600  0.59989100  1
  O  O7  1  0.38271800  0.60911800  0.43595200  1
  O  O8  1  0.33083600  0.60850800  0.76790700  1
  O  O9  1  0.65750700  0.60194200  0.90121100  1
  F  F0  1  0.37025800  0.09687000  0.74964300  1
  F  F1  1  0.63390400  0.08550700  0.91327900  1
  F  F2  1  0.17202900  0.15201400  0.42195000  1
  F  F3  1  0.78452900  0.30128100  0.57006200  1
  F  F4  1  0.24866300  0.41978600  0.25587800  1
  F  F5  1  0.28956000  0.65894900  0.07956800  1
  F  F6  1  0.64712800  0.76255200  0.59994100  1
  F  F7  1  0.73782700  0.71562900  0.26302600  1
  F  F8  1  0.15128300  0.86713900  0.58627200  1
  F  F9  1  0.13401600  0.85746100  0.91559000  1
  F  F10  1  0.24475700  0.93680900  0.24465200  1
  F  F11  1  0.89651100  0.70142300  0.42406200  1
  F  F12  1  0.79723700  0.85382200  0.08548600  1
  F  F13  1  0.86946100  0.87142200  0.75647600  1
loop_
_geom_bond_atom_site_label_1
_geom_bond_atom_site_label_2
_geom_bond_distance
_geom_bond_site_symmetry_2
Mn0 O2 1.906004 1_655
Mn0 O5 1.943994 1_556
Mn0 O0 2.099982 1_656
Mn1 O9 1.911840 1_555
Mn1 O8 1.924888 1_555
Mn2 O6 1.916810 1_555
Mn2 O3 1.917909 1_455
Mn3 O4 2.008276 1_565
Mn3 O7 2.064797 1_555
Mn4 O4 1.868236 1_555
Mn4 O1 2.026554 1_555
Mn5 O0 1.909021 1_555
Mn5 O5 2.006071 1_555
Mn5 O1 2.011017 1_555
Mn6 O2 1.945573 1_655
Mn6 O9 1.946589 1_555
Mn6 O8 1.956591 1_655
Mn6 O3 1.995681 1_555
Mn7 O0 1.930814 1_556
Mn7 O9 1.957653 1_555
Mn7 O2 1.985423 1_555
Mn7 O5 2.040218 1_556
Mn8 O7 1.916658 1_555
Mn8 O4 1.940418 1_555
Mn8 O1 2.003842 1_555
Mn9 O7 1.865582 1_555
Mn9 O6 1.973603 1_555
Mn10 O8 1.947541 1_555
Mn10 O3 1.972978 1_555
Mn10 O6 1.995385 1_555
Mn11 O1 2.243539 1_555
Mn11 O5 2.267865 1_555
Mn11 O0 2.588500 1_655
F0 Mn1 1.991055 1_545
F0 Mn2 2.182092 1_555
F0 Mn10 2.337696 1_555
F1 Mn1 1.977325 1_545
F1 Mn0 2.245539 1_555
F1 Mn7 2.256650 1_555
F2 Mn4 2.079720 1_455
F2 Mn9 2.266065 1_555
F2 Mn3 2.372734 1_545
F2 Mn8 2.648301 1_555
F3 Mn10 2.025320 1_555
F3 Mn9 2.042192 1_655
F3 Mn2 2.342908 1_655
F4 Mn8 2.043484 1_555
F4 Mn11 2.223872 1_455
F4 Mn5 2.550487 1_555
F5 Mn11 2.043081 1_455
F5 Mn7 2.075602 1_554
F6 Mn10 2.069919 1_555
F6 Mn3 2.073149 1_555
F7 Mn8 2.108143 1_555
F7 Mn11 2.206531 1_555
F7 Mn4 2.317332 1_565
F8 Mn2 1.951291 1_565
F8 Mn3 2.127990 1_555
F8 Mn9 2.478800 1_555
F9 Mn0 1.968481 1_465
F9 Mn1 2.132102 1_555
F9 Mn6 2.303679 1_455
F10 Mn4 1.966366 1_465
F10 Mn5 1.989208 1_565
F11 Mn9 1.960922 1_655
F11 Mn4 2.270377 1_565
F11 Mn3 2.605699 1_555
F12 Mn0 1.943272 1_564
F12 Mn5 2.269591 1_565
F12 Mn11 2.351379 1_555
F13 Mn2 1.969883 1_665
F13 Mn1 2.161011 1_555
F13 Mn6 2.232081 1_555
