# generated using pymatgen
data_AcCdRh2
_symmetry_space_group_name_H-M   'P 1'
_cell_length_a   4.88094290
_cell_length_b   4.88094290
_cell_length_c   4.88094290
_cell_angle_alpha   60.00000000
_cell_angle_beta   60.00000000
_cell_angle_gamma   60.00000000
_symmetry_Int_Tables_number   1
_chemical_formula_structural   AcCdRh2
_chemical_formula_sum   'Ac1 Cd1 Rh2'
_cell_volume   82.22354217
_cell_formula_units_Z   1
loop_
 _symmetry_equiv_pos_site_id
 _symmetry_equiv_pos_as_xyz
  1  'x, y, z'
loop_
 _atom_site_type_symbol
 _atom_site_label
 _atom_site_symmetry_multiplicity
 _atom_site_fract_x
 _atom_site_fract_y
 _atom_site_fract_z
 _atom_site_occupancy
  Ac  Ac0  1  0.25000000  0.25000000  0.25000000  1
  Cd  Cd0  1  0.74999900  0.74999900  0.74999900  1
  Rh  Rh0  1  -0.00000000  0.00000000  -0.00000000  1
  Rh  Rh1  1  0.49999900  0.49999900  0.49999900  1
loop_
_geom_bond_atom_site_label_1
_geom_bond_atom_site_label_2
_geom_bond_distance
_geom_bond_site_symmetry_2
Ac0 Rh1 2.988943 1_555
Ac0 Rh0 2.988955 1_655
Ac0 Rh0 2.988955 1_565
Ac0 Rh0 2.988955 1_555
Ac0 Rh0 2.988955 1_556
Ac0 Rh1 2.988959 1_554
Ac0 Rh1 2.988959 1_545
Ac0 Rh1 2.988959 1_455
Cd0 Rh0 2.988951 1_566
Cd0 Rh0 2.988951 1_665
Cd0 Rh0 2.988951 1_656
Cd0 Rh1 2.988955 1_555
Cd0 Rh1 2.988955 1_655
Cd0 Rh1 2.988955 1_565
Cd0 Rh1 2.988955 1_556
Cd0 Rh0 2.988967 1_666
