# generated using pymatgen
data_Lu2CuPt
_symmetry_space_group_name_H-M   'P 1'
_cell_length_a   4.77120053
_cell_length_b   4.77119948
_cell_length_c   4.77121293
_cell_angle_alpha   60.00060350
_cell_angle_beta   60.00066855
_cell_angle_gamma   60.00096408
_symmetry_Int_Tables_number   1
_chemical_formula_structural   Lu2CuPt
_chemical_formula_sum   'Lu2 Cu1 Pt1'
_cell_volume   76.80268167
_cell_formula_units_Z   1
loop_
 _symmetry_equiv_pos_site_id
 _symmetry_equiv_pos_as_xyz
  1  'x, y, z'
loop_
 _atom_site_type_symbol
 _atom_site_label
 _atom_site_symmetry_multiplicity
 _atom_site_fract_x
 _atom_site_fract_y
 _atom_site_fract_z
 _atom_site_occupancy
  Lu  Lu0  1  0.00000748  0.00000109  0.00000456  1
  Lu  Lu1  1  0.49998831  0.50000672  0.49999788  1
  Cu  Cu0  1  0.25000066  0.24999569  0.24999728  1
  Pt  Pt0  1  0.75000356  0.74999650  0.74999928  1
loop_
_geom_bond_atom_site_label_1
_geom_bond_atom_site_label_2
_geom_bond_distance
_geom_bond_site_symmetry_2
Lu0 Pt0 2.921760 1_445
Lu0 Pt0 2.921763 1_454
Lu0 Pt0 2.921768 1_544
Lu0 Pt0 2.921791 1_444
Lu1 Pt0 2.921724 1_455
Lu1 Pt0 2.921763 1_555
Lu1 Pt0 2.921775 1_554
Lu1 Pt0 2.921821 1_545
Cu0 Lu0 2.921662 1_555
Cu0 Lu1 2.921735 1_555
Cu0 Lu1 2.921738 1_545
Cu0 Lu1 2.921778 1_554
Cu0 Lu0 2.921802 1_565
Cu0 Lu0 2.921809 1_556
Cu0 Lu0 2.921810 1_655
Cu0 Lu1 2.921831 1_455
