# generated using pymatgen
data_LaBi3
_symmetry_space_group_name_H-M   'P 1'
_cell_length_a   5.01175659
_cell_length_b   5.01175659
_cell_length_c   5.01175659
_cell_angle_alpha   90.04702661
_cell_angle_beta   90.04702661
_cell_angle_gamma   90.04702661
_symmetry_Int_Tables_number   1
_chemical_formula_structural   LaBi3
_chemical_formula_sum   'La1 Bi3'
_cell_volume   125.88369219
_cell_formula_units_Z   1
loop_
 _symmetry_equiv_pos_site_id
 _symmetry_equiv_pos_as_xyz
  1  'x, y, z'
loop_
 _atom_site_type_symbol
 _atom_site_label
 _atom_site_symmetry_multiplicity
 _atom_site_fract_x
 _atom_site_fract_y
 _atom_site_fract_z
 _atom_site_occupancy
  La  La0  1  0.00000630  0.00000630  0.00000630  1
  Bi  Bi0  1  0.50000497  0.99998275  0.50000497  1
  Bi  Bi1  1  0.99998275  0.50000497  0.50000497  1
  Bi  Bi2  1  0.50000497  0.50000497  0.99998275  1
loop_
_geom_bond_atom_site_label_1
_geom_bond_atom_site_label_2
_geom_bond_distance
_geom_bond_site_symmetry_2
Bi0 La0 3.542383 1_565
Bi0 Bi2 3.542392 1_554
Bi0 Bi1 3.542392 1_565
Bi0 Bi2 3.542392 1_565
Bi0 Bi1 3.542392 1_455
Bi0 La0 3.542402 1_666
Bi0 Bi2 3.545144 1_555
Bi0 Bi1 3.545144 1_555
Bi0 La0 3.545301 1_665
Bi0 La0 3.545301 1_566
Bi0 Bi2 3.545459 1_564
Bi0 Bi1 3.545459 1_465
Bi1 La0 3.542383 1_655
Bi1 Bi2 3.542392 1_554
Bi1 Bi2 3.542392 1_655
Bi1 La0 3.542402 1_666
Bi1 Bi2 3.545144 1_555
Bi1 La0 3.545301 1_656
Bi1 La0 3.545301 1_665
Bi1 Bi2 3.545459 1_654
Bi2 La0 3.542383 1_556
Bi2 La0 3.542402 1_666
Bi2 La0 3.545301 1_656
Bi2 La0 3.545301 1_566
