# generated using pymatgen
data_Li11(FeO3)4
_symmetry_space_group_name_H-M   'P 1'
_cell_length_a   3.49637900
_cell_length_b   8.99739600
_cell_length_c   9.06567497
_cell_angle_alpha   89.27041568
_cell_angle_beta   90.00000000
_cell_angle_gamma   90.00000000
_symmetry_Int_Tables_number   1
_chemical_formula_structural   Li11(FeO3)4
_chemical_formula_sum   'Li11 Fe4 O12'
_cell_volume   285.16766028
_cell_formula_units_Z   1
loop_
 _symmetry_equiv_pos_site_id
 _symmetry_equiv_pos_as_xyz
  1  'x, y, z'
loop_
 _atom_site_type_symbol
 _atom_site_label
 _atom_site_symmetry_multiplicity
 _atom_site_fract_x
 _atom_site_fract_y
 _atom_site_fract_z
 _atom_site_occupancy
  Li  Li0  1  0.50000000  0.88781600  0.68618700  1
  Li  Li1  1  0.00000000  0.85629900  0.39912500  1
  Li  Li2  1  0.50000000  0.68157900  0.89113100  1
  Li  Li3  1  0.50000000  0.66899300  0.32948200  1
  Li  Li4  1  0.00000000  0.59920600  0.14092700  1
  Li  Li5  1  0.00000000  0.39963300  0.85218900  1
  Li  Li6  1  0.50000000  0.35757900  0.09815300  1
  Li  Li7  1  0.50000000  0.32670800  0.66961100  1
  Li  Li8  1  0.00000000  0.17008500  0.17466400  1
  Li  Li9  1  0.00000000  0.12870900  0.60265100  1
  Li  Li10  1  0.50000000  0.09643100  0.35966800  1
  Fe  Fe0  1  0.50000000  0.88673200  0.11344400  1
  Fe  Fe1  1  0.00000000  0.38379500  0.38770500  1
  Fe  Fe2  1  0.00000000  0.61594600  0.61445700  1
  Fe  Fe3  1  0.50000000  0.11258000  0.88981600  1
  O  O0  1  0.50000000  0.88798500  0.31496000  1
  O  O1  1  0.50000000  0.90497200  0.90761400  1
  O  O2  1  0.00000000  0.81413900  0.60370400  1
  O  O3  1  0.50000000  0.68352000  0.10954500  1
  O  O4  1  0.00000000  0.59853500  0.39904500  1
  O  O5  1  0.00000000  0.60615400  0.81068500  1
  O  O6  1  0.00000000  0.39877300  0.60020100  1
  O  O7  1  0.00000000  0.38848700  0.18425200  1
  O  O8  1  0.50000000  0.31584000  0.88956700  1
  O  O9  1  0.00000000  0.17851700  0.39371500  1
  O  O10  1  0.50000000  0.10731100  0.68849700  1
  O  O11  1  0.50000000  0.10229100  0.10356300  1
loop_
_geom_bond_atom_site_label_1
_geom_bond_atom_site_label_2
_geom_bond_distance
_geom_bond_site_symmetry_2
Li0 O10 1.975261 1_565
Li0 O1 2.015270 1_555
Li0 O2 2.016774 1_555
Li0 O2 2.016774 1_655
Li1 O2 1.888303 1_555
Li1 O0 1.927198 1_555
Li1 O0 1.927198 1_455
Li1 O4 2.319214 1_555
Li2 O3 1.980370 1_556
Li2 O5 2.015237 1_555
Li2 O5 2.015237 1_655
Li2 O1 2.017399 1_555
Li3 O4 1.961011 1_655
Li3 O4 1.961011 1_555
Li3 O0 1.973078 1_555
Li3 O3 1.996495 1_555
Li4 O3 1.925381 1_555
Li4 O3 1.925381 1_455
Li4 O7 1.931276 1_555
Li4 O4 2.339945 1_555
Li5 O5 1.891162 1_555
Li5 O8 1.932066 1_455
Li5 O8 1.932066 1_555
Li5 O6 2.284553 1_555
Li6 O8 1.932588 1_554
Li6 O7 1.936048 1_555
Li6 O7 1.936048 1_655
Li6 O11 2.296826 1_555
Li7 O6 1.965235 1_555
Li7 O6 1.965235 1_655
Li7 O10 1.979240 1_555
Li7 O8 1.995202 1_555
Li8 O11 1.963090 1_555
Li8 O11 1.963090 1_455
Li8 O7 1.968076 1_555
Li8 O9 1.988259 1_555
Li9 O10 1.922263 1_455
Li9 O10 1.922263 1_555
Li9 O9 1.940877 1_555
Li9 O6 2.429691 1_555
Li10 O0 1.923805 1_545
Li10 O9 1.924244 1_555
Li10 O9 1.924244 1_655
Li10 O11 2.321692 1_555
Fe0 O0 1.827057 1_555
Fe0 O3 1.829170 1_555
Fe0 O1 1.871108 1_554
Fe0 O11 1.940397 1_565
Fe1 O7 1.844384 1_555
Fe1 O9 1.847077 1_555
Fe1 O6 1.932839 1_555
Fe1 O4 1.936141 1_555
Fe2 O5 1.779999 1_555
Fe2 O2 1.784644 1_555
Fe2 O6 1.959902 1_555
Fe2 O4 1.961116 1_555
Fe3 O10 1.826312 1_555
Fe3 O8 1.828783 1_555
Fe3 O1 1.872839 1_545
Fe3 O11 1.938793 1_556
