# generated using pymatgen
data_Li2SnTeO6
_symmetry_space_group_name_H-M   'P 1'
_cell_length_a   5.01320700
_cell_length_b   5.28490000
_cell_length_c   8.63693900
_cell_angle_alpha   90.00000000
_cell_angle_beta   90.00000000
_cell_angle_gamma   90.00000000
_symmetry_Int_Tables_number   1
_chemical_formula_structural   Li2SnTeO6
_chemical_formula_sum   'Li4 Sn2 Te2 O12'
_cell_volume   228.82963286
_cell_formula_units_Z   2
loop_
 _symmetry_equiv_pos_site_id
 _symmetry_equiv_pos_as_xyz
  1  'x, y, z'
loop_
 _atom_site_type_symbol
 _atom_site_label
 _atom_site_symmetry_multiplicity
 _atom_site_fract_x
 _atom_site_fract_y
 _atom_site_fract_z
 _atom_site_occupancy
  Li  Li0  1  0.00000000  0.00000000  0.30350500  1
  Li  Li1  1  0.50000000  0.50000000  0.80350500  1
  Li  Li2  1  0.50000000  0.00000000  0.19049000  1
  Li  Li3  1  0.00000000  0.50000000  0.69049000  1
  Sn  Sn0  1  0.50000000  0.00000000  0.59563200  1
  Sn  Sn1  1  0.00000000  0.50000000  0.09563200  1
  Te  Te0  1  0.00000000  0.00000000  0.90474900  1
  Te  Te1  1  0.50000000  0.50000000  0.40474900  1
  O  O0  1  0.79527400  0.83877600  0.07438000  1
  O  O1  1  0.70472600  0.33877600  0.57438000  1
  O  O2  1  0.29527400  0.66122400  0.57438000  1
  O  O3  1  0.73377900  0.33894800  0.25219100  1
  O  O4  1  0.76622100  0.83894800  0.75219100  1
  O  O5  1  0.23377900  0.16105200  0.75219100  1
  O  O6  1  0.79371200  0.31141100  0.91119100  1
  O  O7  1  0.26622100  0.66105200  0.25219100  1
  O  O8  1  0.29371200  0.18858900  0.41119100  1
  O  O9  1  0.20628800  0.68858900  0.91119100  1
  O  O10  1  0.70628800  0.81141100  0.41119100  1
  O  O11  1  0.20472600  0.16122400  0.07438000  1
loop_
_geom_bond_atom_site_label_1
_geom_bond_atom_site_label_2
_geom_bond_distance
_geom_bond_site_symmetry_2
Li0 O10 2.006609 1_445
Li0 O8 2.006609 1_555
Li0 O7 2.277370 1_545
Li0 O3 2.277370 1_455
Li0 O0 2.386536 1_445
Li0 O11 2.386536 1_555
Li1 O9 2.006609 1_555
Li1 O6 2.006609 1_555
Li1 O4 2.277370 1_555
Li1 O5 2.277370 1_555
Li1 O1 2.386536 1_555
Li1 O2 2.386536 1_555
Li2 O0 1.980624 1_545
Li2 O11 1.980624 1_555
Li2 O3 2.205972 1_555
Li2 O7 2.205972 1_545
Li2 O8 2.386709 1_555
Li2 O10 2.386709 1_545
Li3 O1 1.980624 1_455
Li3 O2 1.980624 1_555
Li3 O4 2.205972 1_455
Li3 O5 2.205972 1_555
Li3 O6 2.386709 1_455
Li3 O9 2.386709 1_555
O0 Te0 1.981376 1_664
O0 Sn1 2.071853 1_655
O1 Te1 1.981376 1_555
O1 Sn0 2.071853 1_555
O2 Te1 1.981376 1_555
O2 Sn0 2.071853 1_565
O3 Te1 1.958098 1_555
O3 Sn1 2.081845 1_655
O4 Te0 1.958098 1_665
O4 Sn0 2.081845 1_565
O5 Te0 1.958098 1_555
O5 Sn0 2.081845 1_555
O6 Te0 1.944523 1_655
O6 Sn1 2.144883 1_656
O7 Te1 1.958098 1_555
O7 Sn1 2.081845 1_555
O8 Te1 1.944523 1_555
O8 Sn0 2.144883 1_555
O9 Te0 1.944523 1_565
O9 Sn1 2.144883 1_556
O10 Te1 1.944523 1_555
O10 Sn0 2.144883 1_565
O11 Te0 1.981376 1_554
O11 Sn1 2.071853 1_555
