# generated using pymatgen
data_V3Cr2Sn(PO4)6
_symmetry_space_group_name_H-M   'P 1'
_cell_length_a   8.66337438
_cell_length_b   8.66337438
_cell_length_c   8.66337475
_cell_angle_alpha   60.08749244
_cell_angle_beta   60.08749244
_cell_angle_gamma   60.08748702
_symmetry_Int_Tables_number   1
_chemical_formula_structural   V3Cr2Sn(PO4)6
_chemical_formula_sum   'V3 Cr2 Sn1 P6 O24'
_cell_volume   460.68748981
_cell_formula_units_Z   1
loop_
 _symmetry_equiv_pos_site_id
 _symmetry_equiv_pos_as_xyz
  1  'x, y, z'
loop_
 _atom_site_type_symbol
 _atom_site_label
 _atom_site_symmetry_multiplicity
 _atom_site_fract_x
 _atom_site_fract_y
 _atom_site_fract_z
 _atom_site_occupancy
  V  V0  1  0.35623500  0.35623500  0.35623500  1
  V  V1  1  0.14355300  0.14355300  0.14355300  1
  V  V2  1  0.64248200  0.64248200  0.64248200  1
  Cr  Cr0  1  0.00253200  0.00253200  0.00253200  1
  Cr  Cr1  1  0.49930900  0.49930900  0.49930900  1
  Sn  Sn0  1  0.85539400  0.85539400  0.85539400  1
  P  P0  1  0.45156100  0.74807100  0.04567100  1
  P  P1  1  0.74807100  0.04567100  0.45156100  1
  P  P2  1  0.04567100  0.45156100  0.74807100  1
  P  P3  1  0.95743100  0.53906400  0.25387500  1
  P  P4  1  0.25387500  0.95743100  0.53906400  1
  P  P5  1  0.53906400  0.25387500  0.95743100  1
  O  O0  1  0.69159500  0.88528300  0.49464900  1
  O  O1  1  0.88528300  0.49464900  0.69159500  1
  O  O2  1  0.49464900  0.69159500  0.88528300  1
  O  O3  1  0.25719400  0.91123700  0.06242900  1
  O  O4  1  0.60660700  0.80964600  0.01776100  1
  O  O5  1  0.43592800  0.58663000  0.24143700  1
  O  O6  1  0.91123700  0.06242900  0.25719400  1
  O  O7  1  0.58663000  0.24143700  0.43592800  1
  O  O8  1  0.99394600  0.38665100  0.18886100  1
  O  O9  1  0.24143700  0.43592800  0.58663000  1
  O  O10  1  0.94377100  0.73963400  0.09007300  1
  O  O11  1  0.18886100  0.99394600  0.38665100  1
  O  O12  1  0.80964600  0.01776100  0.60660700  1
  O  O13  1  0.06242900  0.25719400  0.91123700  1
  O  O14  1  0.75957000  0.55893900  0.41260700  1
  O  O15  1  0.01776100  0.60660700  0.80964600  1
  O  O16  1  0.41260700  0.75957000  0.55893900  1
  O  O17  1  0.09007300  0.94377100  0.73963400  1
  O  O18  1  0.55893900  0.41260700  0.75957000  1
  O  O19  1  0.38665100  0.18886100  0.99394600  1
  O  O20  1  0.73963400  0.09007300  0.94377100  1
  O  O21  1  0.50277400  0.31456500  0.11303600  1
  O  O22  1  0.11303600  0.50277400  0.31456500  1
  O  O23  1  0.31456500  0.11303600  0.50277400  1
loop_
_geom_bond_atom_site_label_1
_geom_bond_atom_site_label_2
_geom_bond_distance
_geom_bond_site_symmetry_2
Cr0 O3 2.180463 1_545
Cr0 O13 2.180463 1_554
Cr0 O6 2.180463 1_455
Cr0 O20 2.251729 1_454
Cr0 O10 2.251729 1_445
Cr0 O17 2.251729 1_544
Cr1 O7 2.233456 1_555
Cr1 O9 2.233456 1_555
Cr1 O5 2.233456 1_555
Cr1 O16 2.236179 1_555
Cr1 O14 2.236179 1_555
Cr1 O18 2.236179 1_555
O0 P1 1.512622 1_565
O0 V2 1.976917 1_555
O1 P2 1.512622 1_655
O1 V2 1.976917 1_555
O2 P0 1.512622 1_556
O2 V2 1.976917 1_555
O3 P0 1.562553 1_555
O3 V1 2.063580 1_565
O4 P0 1.552208 1_555
O4 Sn0 2.013299 1_554
O5 P0 1.563630 1_555
O5 V0 2.039492 1_555
O6 P1 1.562553 1_555
O6 V1 2.063580 1_655
O7 P1 1.563630 1_555
O7 V0 2.039492 1_555
O8 P3 1.519288 1_555
O8 V1 1.965717 1_655
O9 P2 1.563630 1_555
O9 V0 2.039492 1_555
O10 P3 1.596937 1_555
O10 Sn0 2.116284 1_554
O11 P4 1.519288 1_555
O11 V1 1.965717 1_565
O12 P1 1.552208 1_555
O12 Sn0 2.013299 1_545
O13 P2 1.562553 1_555
O13 V1 2.063580 1_556
O14 P3 1.565183 1_555
O14 V2 2.051680 1_555
O15 P2 1.552208 1_555
O15 Sn0 2.013299 1_455
O16 P4 1.565183 1_555
O16 V2 2.051680 1_555
O17 P4 1.596937 1_555
O17 Sn0 2.116284 1_455
O18 P5 1.565183 1_555
O18 V2 2.051680 1_555
O19 P5 1.519288 1_555
O19 V1 1.965717 1_556
O20 P5 1.596936 1_555
O20 Sn0 2.116284 1_545
O21 P5 1.520497 1_554
O21 V0 1.953186 1_555
O22 P3 1.520496 1_455
O22 V0 1.953185 1_555
O23 P4 1.520497 1_545
O23 V0 1.953186 1_555
