# generated using pymatgen
data_Li7Fe(O2F)2
_symmetry_space_group_name_H-M   'P 1'
_cell_length_a   5.52704723
_cell_length_b   5.93716834
_cell_length_c   10.12060979
_cell_angle_alpha   84.50641325
_cell_angle_beta   76.15218122
_cell_angle_gamma   118.23214873
_symmetry_Int_Tables_number   1
_chemical_formula_structural   Li7Fe(O2F)2
_chemical_formula_sum   'Li14 Fe2 O8 F4'
_cell_volume   275.48937028
_cell_formula_units_Z   2
loop_
 _symmetry_equiv_pos_site_id
 _symmetry_equiv_pos_as_xyz
  1  'x, y, z'
loop_
 _atom_site_type_symbol
 _atom_site_label
 _atom_site_symmetry_multiplicity
 _atom_site_fract_x
 _atom_site_fract_y
 _atom_site_fract_z
 _atom_site_occupancy
  Li  Li0  1  0.09608400  0.07183600  0.22672900  1
  Li  Li1  1  0.10150400  0.60474100  0.75144500  1
  Li  Li2  1  0.47809700  0.94310200  0.38202800  1
  Li  Li3  1  0.52584400  0.55782500  0.11906000  1
  Li  Li4  1  0.28517300  0.26160200  0.44219100  1
  Li  Li5  1  0.20543800  0.66901500  0.95631900  1
  Li  Li6  1  0.32931200  0.34359500  0.67642600  1
  Li  Li7  1  0.74607500  0.27834100  0.05755200  1
  Li  Li8  1  0.75567200  0.78781100  0.54055800  1
  Li  Li9  1  0.48406500  0.47527800  0.87842600  1
  Li  Li10  1  0.50024900  0.00478400  0.61486600  1
  Li  Li11  1  0.90618900  0.46850600  0.26843500  1
  Li  Li12  1  0.90730600  0.87988400  0.75011500  1
  Li  Li13  1  0.66990400  0.14887000  0.82425800  1
  Fe  Fe0  1  0.07839600  0.01757800  0.97663100  1
  Fe  Fe1  1  0.95057900  0.45462800  0.54392300  1
  O  O0  1  0.24835900  0.94716600  0.80331100  1
  O  O1  1  0.39461900  0.22621200  0.03879700  1
  O  O2  1  0.34736300  0.67163600  0.55358400  1
  O  O3  1  0.06471900  0.32943800  0.88833800  1
  O  O4  1  0.91771200  0.67486200  0.09976500  1
  O  O5  1  0.64087600  0.30993500  0.46365700  1
  O  O6  1  0.75146700  0.53700300  0.70190000  1
  O  O7  1  0.90977900  0.12324700  0.61969700  1
  F  F0  1  0.10837800  0.90116600  0.38890600  1
  F  F1  1  0.22935200  0.43062500  0.29166200  1
  F  F2  1  0.60067800  0.79514600  0.93397400  1
  F  F3  1  0.76681400  0.08616700  0.20744800  1
loop_
_geom_bond_atom_site_label_1
_geom_bond_atom_site_label_2
_geom_bond_distance
_geom_bond_site_symmetry_2
Li0 O1 1.978213 1_555
Li1 O3 1.936392 1_555
Li1 O0 1.978550 1_555
Li1 O6 1.980652 1_455
Li1 O2 2.012148 1_555
Li2 O2 1.973884 1_555
Li2 O5 2.254298 1_565
Li3 O4 1.886711 1_555
Li3 O1 2.073518 1_555
Li4 O5 1.917626 1_555
Li4 O7 2.127839 1_455
Li5 O4 1.895923 1_456
Li5 O0 2.036006 1_555
Li5 O3 2.044808 1_555
Li6 O6 2.153832 1_555
Li6 O2 2.154540 1_555
Li6 O3 2.256813 1_555
Li6 O7 2.308453 1_455
Li6 O0 2.353489 1_545
Li6 O5 2.505033 1_555
Li7 O1 1.877267 1_555
Li7 O3 2.019363 1_654
Li7 O4 2.213238 1_555
Li8 O2 1.988348 1_555
Li8 O7 2.088140 1_565
Li8 O6 2.089918 1_555
Li9 O1 1.878861 1_556
Li9 O6 1.899648 1_555
Li9 O3 2.026112 1_555
Li10 O5 1.948309 1_555
Li10 O0 1.961145 1_545
Li10 O2 1.978758 1_545
Li10 O7 2.043002 1_555
Li11 O5 1.972601 1_555
Li11 O4 1.973015 1_555
Li12 O7 1.854069 1_565
Li12 O0 1.953785 1_655
Li12 O6 1.963853 1_555
Li13 O0 2.133727 1_545
Li13 O3 2.220134 1_655
Li13 O7 2.237004 1_555
Li13 O6 2.291413 1_555
Li13 O1 2.551619 1_556
Fe0 O1 1.900600 1_556
Fe0 O4 1.938304 1_446
Fe0 O0 1.963994 1_545
Fe0 O3 2.020014 1_555
Fe1 O7 1.928328 1_555
Fe1 O5 1.932866 1_555
Fe1 O6 1.955303 1_555
Fe1 O2 1.983066 1_655
F0 Li0 1.877615 1_565
F0 Li2 1.920880 1_555
F0 Li8 1.933281 1_455
F0 Li4 2.078455 1_565
F1 Li3 1.874424 1_555
F1 Li4 1.910057 1_555
F1 Li11 1.966481 1_455
F1 Li0 2.127768 1_555
F2 Li9 1.886242 1_555
F2 Li5 1.888759 1_555
F2 Li12 2.022934 1_555
F2 Li3 2.058548 1_556
F2 Li13 2.092792 1_565
F2 Fe0 2.501566 1_665
F3 Li2 1.862883 1_545
F3 Li7 1.868668 1_555
F3 Li0 1.915890 1_655
F3 Li11 2.229082 1_555
