# generated using pymatgen
data_Li2CrFeO4
_symmetry_space_group_name_H-M   'P 1'
_cell_length_a   6.64665438
_cell_length_b   6.64665438
_cell_length_c   5.13403848
_cell_angle_alpha   82.72843745
_cell_angle_beta   82.72843745
_cell_angle_gamma   83.95551426
_symmetry_Int_Tables_number   1
_chemical_formula_structural   Li2CrFeO4
_chemical_formula_sum   'Li6 Cr3 Fe3 O12'
_cell_volume   222.25741476
_cell_formula_units_Z   3
loop_
 _symmetry_equiv_pos_site_id
 _symmetry_equiv_pos_as_xyz
  1  'x, y, z'
loop_
 _atom_site_type_symbol
 _atom_site_label
 _atom_site_symmetry_multiplicity
 _atom_site_fract_x
 _atom_site_fract_y
 _atom_site_fract_z
 _atom_site_occupancy
  Li  Li0  1  0.83517300  0.66569700  0.25033900  1
  Li  Li1  1  0.50022800  0.00047300  0.24481600  1
  Li  Li2  1  0.99952700  0.49977200  0.75518400  1
  Li  Li3  1  0.66435700  0.83220000  0.75035800  1
  Li  Li4  1  0.16780000  0.33564300  0.24964200  1
  Li  Li5  1  0.33430300  0.16482700  0.74966100  1
  Cr  Cr0  1  0.58051600  0.41948400  0.00000000  1
  Cr  Cr1  1  0.41488100  0.58511900  0.50000000  1
  Cr  Cr2  1  0.08578400  0.91421600  0.50000000  1
  Fe  Fe0  1  0.25005900  0.74994100  0.00000000  1
  Fe  Fe1  1  0.91942800  0.08057200  0.00000000  1
  Fe  Fe2  1  0.75034400  0.24965600  0.50000000  1
  O  O0  1  0.97433300  0.80058300  0.87072000  1
  O  O1  1  0.52490900  0.69711300  0.12825900  1
  O  O2  1  0.63422200  0.13774300  0.87221200  1
  O  O3  1  0.30288700  0.47509100  0.87174100  1
  O  O4  1  0.86225700  0.36577800  0.12778800  1
  O  O5  1  0.80326500  0.96661900  0.37236500  1
  O  O6  1  0.13881600  0.63954300  0.36398900  1
  O  O7  1  0.19941700  0.02566700  0.12928000  1
  O  O8  1  0.69516800  0.53130800  0.63044400  1
  O  O9  1  0.46869200  0.30483200  0.36955600  1
  O  O10  1  0.36045700  0.86118400  0.63601100  1
  O  O11  1  0.03338100  0.19673500  0.62763500  1
loop_
_geom_bond_atom_site_label_1
_geom_bond_atom_site_label_2
_geom_bond_distance
_geom_bond_site_symmetry_2
Li0 O4 2.148350 1_555
Li0 O5 2.152254 1_555
Li0 O6 2.154619 1_655
Li0 O0 2.175730 1_554
Li0 O8 2.178569 1_555
Li0 O1 2.211912 1_555
Li1 O7 2.140561 1_555
Li1 O2 2.140814 1_554
Li1 O1 2.159055 1_545
Li1 O5 2.176584 1_545
Li1 O9 2.179715 1_555
Li1 O10 2.234278 1_545
Li2 O0 2.140561 1_555
Li2 O4 2.140814 1_556
Li2 O3 2.159055 1_655
Li2 O11 2.176584 1_655
Li2 O8 2.179715 1_555
Li2 O6 2.234278 1_655
Li3 O8 2.148061 1_555
Li3 O10 2.156717 1_555
Li3 O5 2.167477 1_555
Li3 O1 2.169915 1_556
Li3 O2 2.181751 1_565
Li3 O0 2.206604 1_555
Li4 O9 2.148061 1_555
Li4 O6 2.156717 1_555
Li4 O11 2.167477 1_555
Li4 O3 2.169915 1_554
Li4 O4 2.181751 1_455
Li4 O7 2.206604 1_555
Li5 O2 2.148350 1_555
Li5 O11 2.152254 1_555
Li5 O10 2.154619 1_545
Li5 O7 2.175730 1_556
Li5 O9 2.178569 1_555
Li5 O3 2.211912 1_555
Cr0 O3 2.019334 1_554
Cr0 O1 2.019334 1_555
Cr0 O8 2.032055 1_554
Cr0 O9 2.032055 1_555
Cr0 O2 2.043418 1_554
Cr0 O4 2.043418 1_555
Cr1 O10 2.026319 1_555
Cr1 O6 2.026319 1_555
Cr1 O3 2.033007 1_555
Cr1 O1 2.033007 1_555
Cr1 O9 2.040088 1_555
Cr1 O8 2.040088 1_555
Cr2 O10 2.017363 1_555
Cr2 O6 2.017363 1_555
Cr2 O7 2.034387 1_565
Cr2 O0 2.034387 1_455
Cr2 O11 2.047643 1_565
Cr2 O5 2.047643 1_455
Fe0 O6 1.998665 1_555
Fe0 O10 1.998665 1_554
Fe0 O3 2.001278 1_554
Fe0 O1 2.001278 1_555
Fe0 O0 2.008460 1_454
Fe0 O7 2.008460 1_565
Fe1 O7 2.036010 1_655
Fe1 O0 2.036010 1_544
Fe1 O11 2.051217 1_654
Fe1 O5 2.051217 1_545
Fe1 O4 2.066008 1_555
Fe1 O2 2.066008 1_554
Fe2 O4 2.046573 1_555
Fe2 O2 2.046573 1_555
Fe2 O9 2.048940 1_555
Fe2 O8 2.048940 1_555
Fe2 O5 2.050994 1_545
Fe2 O11 2.050994 1_655
