# generated using pymatgen
data_VH8C2NO3
_symmetry_space_group_name_H-M   'P 1'
_cell_length_a   11.01602800
_cell_length_b   14.51481012
_cell_length_c   7.55348917
_cell_angle_alpha   100.30127254
_cell_angle_beta   91.59881019
_cell_angle_gamma   90.12053399
_symmetry_Int_Tables_number   1
_chemical_formula_structural   VH8C2NO3
_chemical_formula_sum   'V8 H64 C16 N8 O24'
_cell_volume   1187.80788231
_cell_formula_units_Z   8
loop_
 _symmetry_equiv_pos_site_id
 _symmetry_equiv_pos_as_xyz
  1  'x, y, z'
loop_
 _atom_site_type_symbol
 _atom_site_label
 _atom_site_symmetry_multiplicity
 _atom_site_fract_x
 _atom_site_fract_y
 _atom_site_fract_z
 _atom_site_occupancy
  V  V0  1  0.82596000  0.66266000  0.08806200  1
  V  V1  1  0.17404000  0.33734000  0.91193800  1
  V  V2  1  0.83246800  0.69047900  0.40216400  1
  V  V3  1  0.16753200  0.30952100  0.59783600  1
  V  V4  1  0.67506100  0.81733000  0.58719900  1
  V  V5  1  0.32493900  0.18267000  0.41280100  1
  V  V6  1  0.69362000  0.85818200  0.90292100  1
  V  V7  1  0.30638000  0.14181800  0.09707900  1
  H  H0  1  0.84682100  0.13485700  0.54648300  1
  H  H1  1  0.15317900  0.86514300  0.45351700  1
  H  H2  1  0.90632200  0.34056900  0.51642000  1
  H  H3  1  0.09367800  0.65943100  0.48358000  1
  H  H4  1  0.96654700  0.17237600  0.54728200  1
  H  H5  1  0.03345300  0.82762400  0.45271800  1
  H  H6  1  0.62303100  0.25580600  0.93899000  1
  H  H7  1  0.37696900  0.74419400  0.06101000  1
  H  H8  1  0.51039400  0.29462000  0.96097300  1
  H  H9  1  0.48960600  0.70538000  0.03902700  1
  H  H10  1  0.59823800  0.47011700  0.94516200  1
  H  H11  1  0.40176200  0.52988300  0.05483800  1
  H  H12  1  0.86703100  0.08864300  0.01524200  1
  H  H13  1  0.13296900  0.91135700  0.98475800  1
  H  H14  1  0.95291700  0.27438500  0.00744500  1
  H  H15  1  0.04708300  0.72561500  0.99255500  1
  H  H16  1  0.84018500  0.29684700  0.03988200  1
  H  H17  1  0.15981500  0.70315300  0.96011800  1
  H  H18  1  0.66131800  0.40843600  0.46719000  1
  H  H19  1  0.33868200  0.59156400  0.53281000  1
  H  H20  1  0.56120700  0.25637000  0.43605700  1
  H  H21  1  0.43879300  0.74363000  0.56394300  1
  H  H22  1  0.66142000  0.18337000  0.48363100  1
  H  H23  1  0.33858000  0.81663000  0.51636900  1
  H  H24  1  0.89178900  0.15353100  0.75197900  1
  H  H25  1  0.10821100  0.84646900  0.24802100  1
  H  H26  1  0.97584500  0.35008400  0.72737200  1
  H  H27  1  0.02415500  0.64991600  0.27262800  1
  H  H28  1  0.82854800  0.44731600  0.81369700  1
  H  H29  1  0.17145200  0.55268400  0.18630300  1
  H  H30  1  0.84629000  0.50975800  0.65970500  1
  H  H31  1  0.15371000  0.49024200  0.34029500  1
  H  H32  1  0.76230200  0.31680600  0.69654600  1
  H  H33  1  0.23769800  0.68319400  0.30345400  1
  H  H34  1  0.62605800  0.39598500  0.74161000  1
  H  H35  1  0.37394200  0.60401500  0.25839000  1
  H  H36  1  0.55034000  0.18543500  0.75299400  1
  H  H37  1  0.44966000  0.81456500  0.24700600  1
  H  H38  1  0.46673500  0.40750900  0.64840400  1
  H  H39  1  0.53326500  0.59249100  0.35159600  1
  H  H40  1  0.49778600  0.56338300  0.77226800  1
  H  H41  1  0.50221400  0.43661700  0.22773200  1
  H  H42  1  0.41482900  0.36055200  0.79255800  1
  H  H43  1  0.58517100  0.63944800  0.20744200  1
  H  H44  1  0.92066600  0.33483900  0.22772800  1
  H  H45  1  0.07933400  0.66516100  0.77227200  1
  H  H46  1  0.85119600  0.11617300  0.22514200  1
  H  H47  1  0.14880400  0.88382700  0.77485800  1
  H  H48  1  0.05853800  0.20369300  0.15078700  1
  H  H49  1  0.94146200  0.79630700  0.84921300  1
  H  H50  1  0.01964200  0.11142700  0.29319100  1
  H  H51  1  0.98035800  0.88857300  0.70680900  1
  H  H52  1  0.99030100  0.98343100  0.15532200  1
  H  H53  1  0.00969900  0.01656900  0.84467800  1
  H  H54  1  0.65305900  0.37834400  0.25371300  1
  H  H55  1  0.34694100  0.62165600  0.74628700  1
  H  H56  1  0.74414000  0.27700500  0.30880100  1
  H  H57  1  0.25586000  0.72299500  0.69119900  1
  H  H58  1  0.65069400  0.05464000  0.16058600  1
  H  H59  1  0.34930600  0.94536000  0.83941400  1
  H  H60  1  0.54504500  0.08546000  0.23213900  1
  H  H61  1  0.45495500  0.91454000  0.76786100  1
  H  H62  1  0.62627900  0.97470100  0.30947800  1
  H  H63  1  0.37372100  0.02529900  0.69052200  1
  C  C0  1  0.90573900  0.27874700  0.70146300  1
  C  C1  1  0.09426100  0.72125300  0.29853700  1
  C  C2  1  0.83144500  0.39508400  0.72005400  1
  C  C3  1  0.16855500  0.60491600  0.27994600  1
  C  C4  1  0.56045100  0.32796800  0.78149000  1
  C  C5  1  0.43954900  0.67203200  0.21851000  1
  C  C6  1  0.47974900  0.41980000  0.74681100  1
  C  C7  1  0.52025100  0.58020000  0.25318900  1
  C  C8  1  0.91249400  0.20014100  0.18483600  1
  C  C9  1  0.08750600  0.79985900  0.81516400  1
  C  C10  1  0.00050900  0.11951200  0.19723600  1
  C  C11  1  0.99949100  0.88048800  0.80276400  1
  C  C12  1  0.66766300  0.26310900  0.30388500  1
  C  C13  1  0.33233700  0.73689100  0.69611500  1
  C  C14  1  0.61975200  0.08407300  0.24799700  1
  C  C15  1  0.38024800  0.91592700  0.75200300  1
  N  N0  1  0.90717900  0.22733800  0.56909300  1
  N  N1  1  0.09282100  0.77266200  0.43090700  1
  N  N2  1  0.57435400  0.33736300  0.91654700  1
  N  N3  1  0.42564600  0.66263700  0.08345300  1
  N  N4  1  0.89143100  0.21629500  0.05237500  1
  N  N5  1  0.10856900  0.78370500  0.94762500  1
  N  N6  1  0.63506800  0.28020200  0.43215300  1
  N  N7  1  0.36493200  0.71979800  0.56784700  1
  O  O0  1  0.76235800  0.46149000  0.04978700  1
  O  O1  1  0.23764200  0.53851000  0.95021300  1
  O  O2  1  0.93898400  0.65064100  0.07055300  1
  O  O3  1  0.06101600  0.34935900  0.92944700  1
  O  O4  1  0.80280600  0.72454000  0.24457600  1
  O  O5  1  0.19719400  0.27546000  0.75542400  1
  O  O6  1  0.80004600  0.83992100  0.98809600  1
  O  O7  1  0.19995400  0.16007900  0.01190400  1
  O  O8  1  0.88029600  0.50541300  0.41272000  1
  O  O9  1  0.11970400  0.49458700  0.58728000  1
  O  O10  1  0.90878400  0.86633600  0.45558100  1
  O  O11  1  0.09121600  0.13366400  0.54441900  1
  O  O12  1  0.72358100  0.65318500  0.49286000  1
  O  O13  1  0.27641900  0.34681500  0.50714000  1
  O  O14  1  0.55937300  0.77794700  0.56789900  1
  O  O15  1  0.44062700  0.22205300  0.43210100  1
  O  O16  1  0.71925700  0.02860500  0.54411700  1
  O  O17  1  0.28074300  0.97139500  0.45588300  1
  O  O18  1  0.70437400  0.78778400  0.74489800  1
  O  O19  1  0.29562600  0.21221600  0.25510200  1
  O  O20  1  0.59923000  0.72849700  0.96470600  1
  O  O21  1  0.40077000  0.27150300  0.03529400  1
  O  O22  1  0.68420600  0.07355000  0.91279800  1
  O  O23  1  0.31579400  0.92645000  0.08720200  1
loop_
_geom_bond_atom_site_label_1
_geom_bond_atom_site_label_2
_geom_bond_distance
_geom_bond_site_symmetry_2
H0 N0 1.476845 1_555
H1 N1 1.476845 1_555
H4 N0 1.025907 1_555
H4 O11 1.484205 1_655
H5 N1 1.025907 1_555
H5 O10 1.484205 1_455
H6 N2 1.336785 1_555
H7 N3 1.336785 1_555
H8 N2 1.039118 1_555
H8 O21 1.410525 1_556
H9 N3 1.039118 1_555
H9 O20 1.410525 1_554
H14 N4 1.182222 1_555
H15 N5 1.182222 1_555
H16 N4 1.316770 1_555
H17 N5 1.316770 1_555
H20 N6 0.886772 1_555
H20 O15 1.415307 1_555
H21 N7 0.886772 1_555
H21 O14 1.415307 1_555
H22 N6 1.549764 1_555
H23 N7 1.549764 1_555
C0 N0 1.136162 1_555
C0 H26 1.273814 1_555
C0 H32 1.676609 1_555
C1 N1 1.136162 1_555
C1 H27 1.273814 1_555
C1 H33 1.676609 1_555
C2 H28 0.941106 1_555
C2 H32 1.348804 1_555
C3 H29 0.941106 1_555
C3 H33 1.348804 1_555
C4 N2 1.012028 1_555
C4 H34 1.305089 1_555
C4 H42 1.673495 1_555
C5 N3 1.012028 1_555
C5 H35 1.305089 1_555
C5 H43 1.673495 1_555
C6 H38 0.742575 1_555
C6 H42 1.219793 1_555
C7 H39 0.742575 1_555
C7 H43 1.219793 1_555
C8 N4 1.086775 1_555
C8 H46 1.474723 1_555
C8 H48 1.638476 1_655
C9 N5 1.086775 1_555
C9 H47 1.474723 1_555
C9 H49 1.638476 1_455
C10 H50 0.778154 1_555
C10 H48 1.478938 1_555
C10 H46 1.665813 1_455
C11 H51 0.778154 1_555
C11 H49 1.478938 1_555
C11 H47 1.665813 1_655
C12 H56 0.864108 1_555
C12 N6 1.031025 1_555
C12 H54 1.786498 1_555
C13 H57 0.864108 1_555
C13 N7 1.031025 1_555
C13 H55 1.786498 1_555
C14 H58 0.804317 1_555
C14 H60 0.829139 1_555
C14 H62 1.733009 1_545
C15 H59 0.804317 1_555
C15 H61 0.829139 1_555
C15 H63 1.733009 1_565
O2 V0 1.264907 1_555
O3 V1 1.264907 1_555
O4 V0 1.381109 1_555
O4 V2 1.399123 1_555
O5 V1 1.381109 1_555
O5 V3 1.399123 1_555
O6 V6 1.370725 1_555
O7 V7 1.370725 1_555
O12 V2 1.541721 1_555
O13 V3 1.541721 1_555
O14 V4 1.388861 1_555
O15 V5 1.388861 1_555
O18 V4 1.367082 1_555
O18 V6 1.433551 1_555
O19 V5 1.367082 1_555
O19 V7 1.433551 1_555
