# generated using pymatgen
data_LiDy2Al
_symmetry_space_group_name_H-M   'P 1'
_cell_length_a   5.14475203
_cell_length_b   5.14475203
_cell_length_c   5.14475203
_cell_angle_alpha   60.00000000
_cell_angle_beta   60.00000000
_cell_angle_gamma   60.00000000
_symmetry_Int_Tables_number   1
_chemical_formula_structural   LiDy2Al
_chemical_formula_sum   'Li1 Dy2 Al1'
_cell_volume   96.28936984
_cell_formula_units_Z   1
loop_
 _symmetry_equiv_pos_site_id
 _symmetry_equiv_pos_as_xyz
  1  'x, y, z'
loop_
 _atom_site_type_symbol
 _atom_site_label
 _atom_site_symmetry_multiplicity
 _atom_site_fract_x
 _atom_site_fract_y
 _atom_site_fract_z
 _atom_site_occupancy
  Li  Li0  1  0.75000000  0.75000000  0.75000000  1
  Dy  Dy0  1  0.50000100  0.50000100  0.50000100  1
  Dy  Dy1  1  0.00000000  0.00000000  -0.00000000  1
  Al  Al0  1  0.24999900  0.24999900  0.24999900  1
loop_
_geom_bond_atom_site_label_1
_geom_bond_atom_site_label_2
_geom_bond_distance
_geom_bond_site_symmetry_2
Dy0 Li0 3.150492 1_555
Dy0 Li0 3.150509 1_455
Dy0 Li0 3.150509 1_554
Dy0 Li0 3.150509 1_545
Dy1 Li0 3.150504 1_454
Dy1 Li0 3.150504 1_444
Dy1 Li0 3.150504 1_445
Dy1 Li0 3.150504 1_544
Al0 Dy1 3.150492 1_555
Al0 Dy0 3.150496 1_455
Al0 Dy0 3.150496 1_545
Al0 Dy0 3.150496 1_554
Al0 Dy1 3.150509 1_556
Al0 Dy1 3.150509 1_655
Al0 Dy1 3.150509 1_565
Al0 Dy0 3.150530 1_555
