# generated using pymatgen
data_Li3V3P8O29
_symmetry_space_group_name_H-M   'P 1'
_cell_length_a   9.74132200
_cell_length_b   9.76620191
_cell_length_c   14.13952164
_cell_angle_alpha   90.33137636
_cell_angle_beta   89.97293959
_cell_angle_gamma   119.79736302
_symmetry_Int_Tables_number   1
_chemical_formula_structural   Li3V3P8O29
_chemical_formula_sum   'Li6 V6 P16 O58'
_cell_volume   1167.30189604
_cell_formula_units_Z   2
loop_
 _symmetry_equiv_pos_site_id
 _symmetry_equiv_pos_as_xyz
  1  'x, y, z'
loop_
 _atom_site_type_symbol
 _atom_site_label
 _atom_site_symmetry_multiplicity
 _atom_site_fract_x
 _atom_site_fract_y
 _atom_site_fract_z
 _atom_site_occupancy
  Li  Li0  1  0.65986600  0.32238400  0.61084500  1
  Li  Li1  1  0.91496300  0.68274600  0.44202500  1
  Li  Li2  1  0.23438300  0.32706300  0.05618900  1
  Li  Li3  1  0.67399300  0.90693200  0.05541400  1
  Li  Li4  1  0.01683400  0.96853400  0.99164200  1
  Li  Li5  1  0.01079700  0.05065300  0.51370400  1
  V  V0  1  0.00015800  0.43119200  0.75243100  1
  V  V1  1  0.00543400  0.56541200  0.24372000  1
  V  V2  1  0.43655600  0.43464500  0.25596800  1
  V  V3  1  0.56740500  0.56954700  0.75068700  1
  V  V4  1  0.42859700  0.99738200  0.75095900  1
  V  V5  1  0.56122600  0.00221200  0.25515200  1
  P  P0  1  0.30594600  0.08452600  0.15739200  1
  P  P1  1  0.30821400  0.21950500  0.65783800  1
  P  P2  1  0.78096500  0.08820100  0.65779200  1
  P  P3  1  0.66578400  0.33308800  0.86901200  1
  P  P4  1  0.67228600  0.33904200  0.37058600  1
  P  P5  1  0.91367500  0.22040600  0.15941200  1
  P  P6  1  0.08264600  0.30946400  0.34453900  1
  P  P7  1  0.77277700  0.68902500  0.15833700  1
  P  P8  1  0.22737300  0.31071200  0.84218200  1
  P  P9  1  0.90854100  0.68318500  0.65602100  1
  P  P10  1  0.08119000  0.77694300  0.83949500  1
  P  P11  1  0.33133600  0.66539700  0.63063100  1
  P  P12  1  0.33926200  0.66551000  0.13094000  1
  P  P13  1  0.21940300  0.91545600  0.34303400  1
  P  P14  1  0.69144000  0.77735300  0.34259800  1
  P  P15  1  0.69046000  0.91728400  0.84176100  1
  O  O0  1  0.21119700  0.99324900  0.43036100  1
  O  O1  1  0.34689100  0.08181600  0.66537200  1
  O  O2  1  0.21705300  0.23132800  0.93340900  1
  O  O3  1  0.34582000  0.26025300  0.16609600  1
  O  O4  1  0.46305000  0.08004600  0.17432700  1
  O  O5  1  0.52247100  0.18402600  0.82115100  1
  O  O6  1  0.62577700  0.09599600  0.66615200  1
  O  O7  1  0.77007600  0.98451300  0.93373600  1
  O  O8  1  0.73974100  0.08357600  0.16147900  1
  O  O9  1  0.52216700  0.33664900  0.32580600  1
  O  O10  1  0.47112600  0.37357000  0.66688400  1
  O  O11  1  0.66783900  0.18831200  0.32522200  1
  O  O12  1  0.66445800  0.33318400  0.97321600  1
  O  O13  1  0.66782600  0.33831400  0.47583600  1
  O  O14  1  0.81526100  0.33645300  0.82336200  1
  O  O15  1  0.61469000  0.53363000  0.17309000  1
  O  O16  1  0.66048600  0.47658300  0.82163500  1
  O  O17  1  0.91812600  0.26428200  0.66725600  1
  O  O18  1  0.99162400  0.19894500  0.25436000  1
  O  O19  1  0.01150000  0.22323500  0.43211400  1
  O  O20  1  0.00556000  0.21807600  0.07625300  1
  O  O21  1  0.91435300  0.38078700  0.17267100  1
  O  O22  1  0.81908000  0.48842700  0.33151800  1
  O  O23  1  0.08761700  0.34488500  0.83149800  1
  O  O24  1  0.89544400  0.51945200  0.67006600  1
  O  O25  1  0.73588700  0.65328800  0.66684900  1
  O  O26  1  0.20975300  0.19903900  0.75484500  1
  O  O27  1  0.20750200  0.20175900  0.57610600  1
  O  O28  1  0.78272300  0.78108900  0.42711100  1
  O  O29  1  0.25851600  0.34956000  0.33003000  1
  O  O30  1  0.08050900  0.46582900  0.32645200  1
  O  O31  1  0.90911800  0.64971900  0.16741300  1
  O  O32  1  0.18009000  0.52796400  0.67883300  1
  O  O33  1  0.07563300  0.61681000  0.82910900  1
  O  O34  1  0.00245400  0.79756600  0.92264900  1
  O  O35  1  0.98163000  0.76335000  0.56609100  1
  O  O36  1  0.00254800  0.79632500  0.74333600  1
  O  O37  1  0.08377700  0.74019700  0.33404800  1
  O  O38  1  0.33154700  0.51358200  0.17301100  1
  O  O39  1  0.38325900  0.46696500  0.82618000  1
  O  O40  1  0.18892800  0.66611800  0.17698500  1
  O  O41  1  0.33575500  0.66120700  0.02607400  1
  O  O42  1  0.32941600  0.66357400  0.52658700  1
  O  O43  1  0.34389000  0.81836200  0.67694000  1
  O  O44  1  0.53238100  0.61853800  0.32820200  1
  O  O45  1  0.47278900  0.65424600  0.67662800  1
  O  O46  1  0.25762700  0.91302300  0.83143800  1
  O  O47  1  0.20134400  0.99950700  0.24996200  1
  O  O48  1  0.21510100  0.00864000  0.07068900  1
  O  O49  1  0.38095300  0.91590900  0.32661000  1
  O  O50  1  0.48784500  0.81528100  0.17260400  1
  O  O51  1  0.53398300  0.91786900  0.82610500  1
  O  O52  1  0.65578500  0.74339700  0.82999900  1
  O  O53  1  0.78369500  0.78373000  0.07386300  1
  O  O54  1  0.79617200  0.79724800  0.25027900  1
  O  O55  1  0.65222500  0.91279600  0.33363200  1
  O  O56  1  0.80362600  0.00833200  0.57547000  1
  O  O57  1  0.80141200  0.01026200  0.75474800  1
loop_
_geom_bond_atom_site_label_1
_geom_bond_atom_site_label_2
_geom_bond_distance
_geom_bond_site_symmetry_2
Li0 O13 1.914592 1_555
Li0 O6 2.213636 1_555
Li0 O10 2.272795 1_555
Li0 O24 2.294594 1_555
Li1 O35 1.896254 1_555
Li1 O28 1.964329 1_555
Li1 O37 2.107263 1_655
Li1 O22 2.262905 1_555
Li2 O2 1.934209 1_554
Li2 O20 1.956246 1_555
Li2 O3 2.176333 1_555
Li2 O38 2.279388 1_555
Li3 O7 1.928438 1_554
Li3 O53 1.984840 1_555
Li3 O8 2.123274 1_565
Li3 O50 2.288276 1_555
Li4 O34 1.872974 1_555
Li4 O48 2.092368 1_566
Li4 O53 2.390561 1_456
Li4 O2 2.473229 1_565
Li4 O7 2.617038 1_455
Li5 O27 1.950415 1_555
Li5 O56 2.044472 1_455
Li5 O19 2.045181 1_555
O0 P13 1.468894 1_555
O1 P1 1.570585 1_555
O1 V4 1.855449 1_545
O2 P8 1.486273 1_555
O3 P0 1.564095 1_555
O3 V2 1.943356 1_555
O4 P0 1.571112 1_555
O4 V5 1.879388 1_555
O5 P3 1.579819 1_555
O5 V4 1.862025 1_545
O6 P2 1.555384 1_555
O6 V4 2.056097 1_545
O7 P15 1.486212 1_555
O8 P5 1.551614 1_555
O8 V5 2.011560 1_555
O9 P4 1.583248 1_555
O9 V2 1.841605 1_555
O10 P1 1.556780 1_555
O10 V3 2.034125 1_555
O11 P4 1.583031 1_555
O11 V5 1.862154 1_555
O12 P3 1.473444 1_555
O13 P4 1.488753 1_555
O14 P3 1.577893 1_555
O14 V0 1.859787 1_655
O15 P7 1.548806 1_555
O15 V2 1.913865 1_555
O16 P3 1.580542 1_555
O16 V3 1.866113 1_555
O17 P2 1.572975 1_555
O17 V0 1.851952 1_655
O18 P5 1.607873 1_555
O18 P6 1.615866 1_655
O19 P6 1.467653 1_555
O20 P5 1.484318 1_455
O21 P5 1.573166 1_555
O21 V1 1.854039 1_655
O22 P4 1.553567 1_555
O22 V1 2.013460 1_655
O23 P8 1.562045 1_555
O23 V0 1.847073 1_555
O24 P9 1.553565 1_555
O24 V0 2.006584 1_655
O25 P9 1.565125 1_555
O25 V3 1.855560 1_555
O26 P8 1.594514 1_555
O26 P1 1.628703 1_555
O27 P1 1.468955 1_555
O28 P14 1.479275 1_555
O29 P6 1.569823 1_555
O29 V2 1.836054 1_555
O30 P6 1.560117 1_555
O30 V1 1.889434 1_555
O31 P7 1.560520 1_555
O31 V1 1.871190 1_655
O32 P11 1.575113 1_555
O32 V0 1.847060 1_555
O33 P10 1.543847 1_555
O33 V0 1.911961 1_555
O34 P10 1.470099 1_555
O35 P9 1.481016 1_555
O36 P9 1.601051 1_455
O36 P10 1.618460 1_555
O37 P13 1.562511 1_555
O37 V1 1.951519 1_555
O38 P12 1.568564 1_555
O38 V2 1.952408 1_555
O39 P8 1.544801 1_555
O39 V3 1.893506 1_555
O40 P12 1.605062 1_555
O40 V1 1.820621 1_555
O41 P12 1.483036 1_555
O42 P11 1.471152 1_555
O43 P11 1.575624 1_555
O43 V4 1.838149 1_555
O44 P14 1.567175 1_555
O44 V2 1.858340 1_555
O45 P11 1.576189 1_555
O45 V3 1.843623 1_555
O46 P10 1.569910 1_555
O46 V4 1.841954 1_555
O47 P13 1.610226 1_555
O47 P0 1.615968 1_565
O48 P0 1.474450 1_555
O49 P13 1.588478 1_555
O49 V5 1.830920 1_565
O50 P12 1.571050 1_555
O50 V5 1.971115 1_565
O51 P15 1.543209 1_555
O51 V4 1.894404 1_555
O52 P15 1.566005 1_555
O52 V3 1.845980 1_555
O53 P7 1.486036 1_555
O54 P14 1.608480 1_555
O54 P7 1.613712 1_555
O55 P14 1.554315 1_555
O55 V5 1.887120 1_565
O56 P2 1.473914 1_555
O57 P15 1.594572 1_545
O57 P2 1.631397 1_555
