# generated using pymatgen
data_Li3MnF5
_symmetry_space_group_name_H-M   'P 1'
_cell_length_a   9.22704300
_cell_length_b   9.26984330
_cell_length_c   10.34103323
_cell_angle_alpha   72.93574547
_cell_angle_beta   72.76617572
_cell_angle_gamma   68.27798916
_symmetry_Int_Tables_number   1
_chemical_formula_structural   Li3MnF5
_chemical_formula_sum   'Li24 Mn8 F40'
_cell_volume   767.78139948
_cell_formula_units_Z   8
loop_
 _symmetry_equiv_pos_site_id
 _symmetry_equiv_pos_as_xyz
  1  'x, y, z'
loop_
 _atom_site_type_symbol
 _atom_site_label
 _atom_site_symmetry_multiplicity
 _atom_site_fract_x
 _atom_site_fract_y
 _atom_site_fract_z
 _atom_site_occupancy
  Li  Li0  1  0.39854500  0.90028600  0.28546600  1
  Li  Li1  1  0.05651600  0.56407500  0.09327300  1
  Li  Li2  1  0.18875500  0.72290800  0.85263700  1
  Li  Li3  1  0.31182800  0.79405500  0.11130100  1
  Li  Li4  1  0.43129400  0.92497700  0.88081000  1
  Li  Li5  1  0.14482200  0.64254200  0.28758600  1
  Li  Li6  1  0.39292800  0.40650800  0.79141300  1
  Li  Li7  1  0.20000900  0.20789700  0.36930400  1
  Li  Li8  1  0.71220600  0.71622000  0.35668700  1
  Li  Li9  1  0.02832100  0.04357400  0.63380600  1
  Li  Li10  1  0.55252700  0.56719100  0.59808100  1
  Li  Li11  1  0.97279800  0.95111700  0.36730200  1
  Li  Li12  1  0.46246700  0.45538600  0.36021800  1
  Li  Li13  1  0.31512900  0.30279000  0.59725900  1
  Li  Li14  1  0.82143300  0.80767700  0.61518700  1
  Li  Li15  1  0.14700600  0.15066700  0.78809500  1
  Li  Li16  1  0.64967700  0.64261800  0.78746900  1
  Li  Li17  1  0.90221800  0.40890900  0.27797100  1
  Li  Li18  1  0.55449700  0.06430700  0.09845900  1
  Li  Li19  1  0.72975000  0.22627500  0.86616200  1
  Li  Li20  1  0.81577200  0.30322500  0.09809700  1
  Li  Li21  1  0.97143400  0.46952400  0.86532900  1
  Li  Li22  1  0.60242800  0.08515600  0.74464000  1
  Li  Li23  1  0.65001900  0.14399500  0.28573100  1
  Mn  Mn0  1  0.23792200  0.73566300  0.51626800  1
  Mn  Mn1  1  0.98610000  0.48645200  0.52260000  1
  Mn  Mn2  1  0.74533800  0.74860900  0.00362000  1
  Mn  Mn3  1  0.98412700  0.98106800  0.02160900  1
  Mn  Mn4  1  0.23736600  0.23073100  0.02117600  1
  Mn  Mn5  1  0.48566800  0.48391600  0.02152500  1
  Mn  Mn6  1  0.48543800  0.98217600  0.52099000  1
  Mn  Mn7  1  0.74394200  0.24928800  0.50154800  1
  F  F0  1  0.10207300  0.95171300  0.80794400  1
  F  F1  1  0.00562500  0.87208100  0.57742800  1
  F  F2  1  0.27926300  0.96742600  0.48492600  1
  F  F3  1  0.11065900  0.74730800  0.09927700  1
  F  F4  1  0.20149600  0.83830400  0.30209800  1
  F  F5  1  0.09096200  0.44548700  0.30750300  1
  F  F6  1  0.59358700  0.94483300  0.30779000  1
  F  F7  1  0.32013500  0.63046100  0.69923300  1
  F  F8  1  0.50062900  0.86009200  0.09394200  1
  F  F9  1  0.00158000  0.35913900  0.09572000  1
  F  F10  1  0.41315600  0.72368700  0.91614400  1
  F  F11  1  0.22327400  0.52138500  0.48869200  1
  F  F12  1  0.28012400  0.45826100  0.98838200  1
  F  F13  1  0.76979500  0.97373000  0.99663100  1
  F  F14  1  0.10985800  0.24872600  0.60045000  1
  F  F15  1  0.60878100  0.74895100  0.60123800  1
  F  F16  1  0.48432900  0.66979700  0.41306300  1
  F  F17  1  0.37915000  0.56769200  0.20277900  1
  F  F18  1  0.66723800  0.85522600  0.80559100  1
  F  F19  1  0.19559500  0.33707500  0.80801900  1
  F  F20  1  0.82272700  0.63647200  0.19250100  1
  F  F21  1  0.32478900  0.13188700  0.20077100  1
  F  F22  1  0.59342400  0.44642100  0.80703300  1
  F  F23  1  0.50622800  0.34812600  0.60697500  1
  F  F24  1  0.42651000  0.22917800  0.41600300  1
  F  F25  1  0.92696600  0.72986500  0.41301800  1
  F  F26  1  0.21918700  0.02108300  0.99138900  1
  F  F27  1  0.71827800  0.53262100  0.98306000  1
  F  F28  1  0.77562700  0.47691200  0.48262700  1
  F  F29  1  0.61449900  0.25042900  0.09658200  1
  F  F30  1  0.99199300  0.65554500  0.91378300  1
  F  F31  1  0.48588000  0.17216400  0.90604200  1
  F  F32  1  0.69306700  0.34564400  0.29936900  1
  F  F33  1  0.39810200  0.07055200  0.70683200  1
  F  F34  1  0.88431300  0.57666800  0.70279500  1
  F  F35  1  0.79426700  0.14633300  0.69938000  1
  F  F36  1  0.92060000  0.22953600  0.91385900  1
  F  F37  1  0.70958900  0.03008100  0.50561100  1
  F  F38  1  0.98337400  0.18171700  0.40280500  1
  F  F39  1  0.88320200  0.06737400  0.20546300  1
loop_
_geom_bond_atom_site_label_1
_geom_bond_atom_site_label_2
_geom_bond_distance
_geom_bond_site_symmetry_2
F0 Li2 1.933892 1_555
F0 Li9 1.956584 1_565
F0 Li15 1.977058 1_565
F0 Mn3 2.202094 1_456
F1 Li14 1.902202 1_455
F1 Li9 1.942587 1_565
F1 Mn0 2.062319 1_555
F1 Li11 2.154417 1_455
F2 Mn6 2.102310 1_555
F2 Li7 2.163475 1_565
F2 Li0 2.180440 1_555
F2 Mn0 2.234033 1_555
F2 Li9 2.354899 1_565
F3 Li1 1.961341 1_555
F3 Li5 1.965138 1_555
F3 Mn3 2.089321 1_455
F3 Li3 2.100589 1_555
F3 Li2 2.490868 1_554
F4 Li11 1.984563 1_455
F4 Li3 2.018218 1_555
F4 Li0 2.048281 1_555
F4 Li5 2.120803 1_555
F4 Mn0 2.211554 1_555
F5 Li5 2.004151 1_555
F5 Li17 2.013516 1_455
F5 Li7 2.046003 1_555
F5 Li1 2.224098 1_555
F5 Mn1 2.230807 1_455
F6 Li8 1.981615 1_555
F6 Li23 2.031170 1_565
F6 Li0 2.077212 1_555
F6 Li18 2.191467 1_565
F6 Mn6 2.205661 1_555
F7 Li2 1.899961 1_555
F7 Li6 1.963529 1_555
F7 Li10 2.033767 1_555
F7 Mn0 2.079977 1_555
F8 Li3 1.995334 1_555
F8 Li0 2.004134 1_555
F8 Li18 2.143587 1_565
F8 Mn2 2.151346 1_555
F8 Li4 2.324083 1_554
F9 Li17 1.943893 1_455
F9 Li20 1.958045 1_455
F9 Mn4 2.090988 1_555
F9 Li1 2.131553 1_555
F9 Li21 2.356241 1_454
F10 Li4 1.854180 1_555
F10 Mn5 2.117804 1_556
F10 Li3 2.139061 1_556
F10 Li16 2.179522 1_555
F10 Li2 2.353325 1_555
F11 Li13 2.010541 1_555
F11 Mn0 2.144541 1_555
F11 Li12 2.179565 1_555
F11 Mn1 2.240580 1_455
F11 Li5 2.242712 1_555
F12 Li1 2.048395 1_556
F12 Li6 2.099993 1_555
F12 Mn5 2.130219 1_556
F12 Mn4 2.199121 1_556
F12 Li2 2.418443 1_555
F13 Li18 1.950630 1_566
F13 Mn3 2.096430 1_556
F13 Mn2 2.159036 1_556
F13 Li19 2.288835 1_565
F14 Li15 1.958923 1_555
F14 Mn1 2.109305 1_455
F14 Li13 2.120270 1_555
F14 Li9 2.195876 1_555
F14 Li7 2.380841 1_555
F15 Li10 1.949104 1_555
F15 Li16 1.965702 1_555
F15 Mn6 2.084075 1_555
F15 Li14 2.274124 1_555
F15 Li8 2.490807 1_555
F16 Li10 2.040497 1_555
F16 Mn0 2.144336 1_555
F16 Li0 2.155246 1_555
F16 Li8 2.177682 1_555
F16 Li12 2.299835 1_555
F17 Li12 1.865463 1_555
F17 Li3 1.975401 1_555
F17 Li5 2.012096 1_555
F17 Mn5 2.068815 1_555
F18 Li22 1.946600 1_565
F18 Li4 2.003126 1_555
F18 Li16 2.101602 1_555
F18 Li14 2.116743 1_555
F18 Mn2 2.202070 1_556
F19 Li21 1.989394 1_455
F19 Li15 2.016548 1_555
F19 Li6 2.091983 1_555
F19 Li13 2.188672 1_555
F19 Mn4 2.219462 1_556
F20 Li8 1.903103 1_555
F20 Li17 1.978301 1_555
F20 Li1 2.043938 1_655
F20 Mn2 2.119185 1_555
F21 Li7 1.946960 1_555
F21 Li0 2.001893 1_545
F21 Li18 2.020298 1_555
F21 Mn4 2.069137 1_555
F22 Li19 1.985953 1_555
F22 Li16 2.009641 1_555
F22 Li6 2.074661 1_555
F22 Li10 2.194410 1_555
F22 Mn5 2.217902 1_556
F23 Li13 1.993524 1_555
F23 Li6 2.007244 1_555
F23 Mn7 2.126211 1_555
F23 Li10 2.196348 1_555
F23 Li22 2.422253 1_555
F23 Li12 2.547011 1_555
F24 Li13 2.031065 1_555
F24 Li23 2.112858 1_555
F24 Li12 2.128739 1_555
F24 Mn6 2.164779 1_545
F24 Li7 2.366235 1_555
F25 Li5 2.060401 1_655
F25 Li11 2.136193 1_555
F25 Mn1 2.151186 1_555
F25 Li14 2.235638 1_555
F25 Li8 2.279216 1_555
F26 Li4 1.978074 1_545
F26 Li3 2.112399 1_546
F26 Mn4 2.126752 1_556
F26 Li15 2.249766 1_555
F26 Mn3 2.250616 1_446
F27 Li20 2.116548 1_556
F27 Li16 2.145186 1_555
F27 Mn2 2.183477 1_556
F27 Li21 2.236551 1_555
F27 Mn5 2.252707 1_556
F28 Li10 2.053853 1_555
F28 Mn1 2.138802 1_555
F28 Li8 2.180541 1_555
F28 Mn7 2.180929 1_555
F28 Li17 2.239163 1_555
F29 Li23 1.978554 1_555
F29 Li18 1.991146 1_555
F29 Mn5 2.087202 1_555
F29 Li20 2.093637 1_555
F29 Li19 2.343942 1_554
F30 Li1 1.968763 1_656
F30 Li2 2.003276 1_655
F30 Li21 2.016457 1_555
F30 Mn2 2.133355 1_556
F31 Li22 1.917614 1_555
F31 Li18 2.114264 1_556
F31 Li6 2.138177 1_555
F31 Mn4 2.193288 1_556
F31 Li19 2.376819 1_555
F32 Li12 1.984514 1_555
F32 Li23 2.099827 1_555
F32 Li20 2.126736 1_555
F32 Mn7 2.136484 1_555
F32 Li17 2.150755 1_555
F33 Li4 1.935807 1_545
F33 Li13 2.089748 1_555
F33 Li22 2.093417 1_555
F33 Mn6 2.128734 1_545
F33 Li15 2.136490 1_555
F34 Li21 1.920297 1_555
F34 Li14 1.999067 1_555
F34 Li16 2.009682 1_555
F34 Mn1 2.085643 1_555
F35 Li19 1.921796 1_555
F35 Li22 1.941726 1_555
F35 Li9 2.004940 1_655
F35 Mn7 2.097783 1_555
F36 Li19 1.976885 1_555
F36 Li20 2.052994 1_556
F36 Li15 2.099446 1_655
F36 Mn3 2.184402 1_546
F36 Li21 2.323490 1_555
F37 Li14 2.084799 1_545
F37 Mn7 2.156407 1_555
F37 Mn6 2.223432 1_545
F37 Li23 2.342878 1_555
F37 Li11 2.391658 1_545
F37 Li22 2.503378 1_555
F38 Li7 2.018395 1_655
F38 Mn7 2.080898 1_555
F38 Li17 2.114817 1_555
F38 Li11 2.313004 1_545
F38 Li9 2.432444 1_655
F39 Li11 1.935863 1_545
F39 Li23 1.994838 1_555
F39 Li20 2.092263 1_555
F39 Mn3 2.100978 1_545
