# generated using pymatgen
data_Li3Fe4(P2O7)4
_symmetry_space_group_name_H-M   'P 1'
_cell_length_a   9.71930100
_cell_length_b   9.84816177
_cell_length_c   11.14300451
_cell_angle_alpha   90.18305428
_cell_angle_beta   101.84705173
_cell_angle_gamma   90.09923625
_symmetry_Int_Tables_number   1
_chemical_formula_structural   Li3Fe4(P2O7)4
_chemical_formula_sum   'Li6 Fe8 P16 O56'
_cell_volume   1043.85025863
_cell_formula_units_Z   2
loop_
 _symmetry_equiv_pos_site_id
 _symmetry_equiv_pos_as_xyz
  1  'x, y, z'
loop_
 _atom_site_type_symbol
 _atom_site_label
 _atom_site_symmetry_multiplicity
 _atom_site_fract_x
 _atom_site_fract_y
 _atom_site_fract_z
 _atom_site_occupancy
  Li  Li0  1  0.90827300  0.10646000  0.97375900  1
  Li  Li1  1  0.59445600  0.60691800  0.02933100  1
  Li  Li2  1  0.40630200  0.39571400  0.97129800  1
  Li  Li3  1  0.09366300  0.89416000  0.02687600  1
  Li  Li4  1  0.15299000  0.57649400  0.52645200  1
  Li  Li5  1  0.11310400  0.28316600  0.45280700  1
  Fe  Fe0  1  0.79393700  0.91500000  0.34016900  1
  Fe  Fe1  1  0.75356500  0.20500900  0.17959700  1
  Fe  Fe2  1  0.75078400  0.70105100  0.82102900  1
  Fe  Fe3  1  0.70648100  0.41817300  0.65977800  1
  Fe  Fe4  1  0.29904000  0.58644000  0.32496100  1
  Fe  Fe5  1  0.24845300  0.29706300  0.17669000  1
  Fe  Fe6  1  0.24549700  0.78973800  0.82120100  1
  Fe  Fe7  1  0.20478600  0.07731600  0.66679900  1
  P  P0  1  0.97844300  0.44754500  0.24798200  1
  P  P1  1  0.88446800  0.71313100  0.11821300  1
  P  P2  1  0.93718700  0.92398700  0.76131800  1
  P  P3  1  0.87313200  0.14348200  0.57055800  1
  P  P4  1  0.62510200  0.64293100  0.42859500  1
  P  P5  1  0.56310900  0.42449500  0.23847900  1
  P  P6  1  0.47828800  0.05394700  0.24743100  1
  P  P7  1  0.61660400  0.21309100  0.88328800  1
  P  P8  1  0.38673900  0.79103900  0.11329100  1
  P  P9  1  0.52262300  0.94640600  0.75265100  1
  P  P10  1  0.43670700  0.57486500  0.76291700  1
  P  P11  1  0.37623400  0.35490900  0.57650000  1
  P  P12  1  0.12684700  0.85755500  0.42791700  1
  P  P13  1  0.06451300  0.07398800  0.23945200  1
  P  P14  1  0.11459300  0.28624800  0.88265000  1
  P  P15  1  0.02232000  0.55329200  0.75464100  1
  O  O0  1  0.98546100  0.42373300  0.38163100  1
  O  O1  1  0.97190700  0.84841000  0.43493900  1
  O  O2  1  0.91256400  0.08310400  0.26537800  1
  O  O3  1  0.89697800  0.58698200  0.21211800  1
  O  O4  1  0.89501400  0.34037000  0.16058100  1
  O  O5  1  0.81866400  0.82450500  0.18407600  1
  O  O6  1  0.78019500  0.66521400  0.99827700  1
  O  O7  1  0.97335000  0.25832300  0.90882300  1
  O  O8  1  0.87314000  0.05839300  0.69457800  1
  O  O9  1  0.93966600  0.94048500  0.89591600  1
  O  O10  1  0.86851200  0.53645200  0.77839300  1
  O  O11  1  0.81679800  0.28178700  0.59720600  1
  O  O12  1  0.84141900  0.80409400  0.70999300  1
  O  O13  1  0.78660700  0.06505300  0.46400400  1
  O  O14  1  0.71077100  0.56575800  0.53578600  1
  O  O15  1  0.65666200  0.30363200  0.28928100  1
  O  O16  1  0.68135500  0.78215200  0.40362800  1
  O  O17  1  0.63033600  0.03757600  0.22278100  1
  O  O18  1  0.63192300  0.55800300  0.30429300  1
  O  O19  1  0.55923900  0.43981500  0.10367200  1
  O  O20  1  0.52902500  0.76351600  0.08903000  1
  O  O21  1  0.72070200  0.16362600  0.00212200  1
  O  O22  1  0.67996900  0.32541700  0.81725900  1
  O  O23  1  0.60281200  0.08697100  0.78736500  1
  O  O24  1  0.58779200  0.58514100  0.73534500  1
  O  O25  1  0.60632100  0.83926700  0.83817000  1
  O  O26  1  0.52813500  0.34743600  0.56397300  1
  O  O27  1  0.47276100  0.08564700  0.37936700  1
  O  O28  1  0.52648700  0.91342600  0.62040900  1
  O  O29  1  0.46791500  0.64888700  0.43199400  1
  O  O30  1  0.39271600  0.16060000  0.16181400  1
  O  O31  1  0.40968400  0.41577900  0.26614100  1
  O  O32  1  0.39686900  0.91374500  0.21123100  1
  O  O33  1  0.31960400  0.67714900  0.17594300  1
  O  O34  1  0.28081900  0.84002200  0.99559600  1
  O  O35  1  0.47438100  0.24086600  0.90929900  1
  O  O36  1  0.43632200  0.56782100  0.89763500  1
  O  O37  1  0.37342900  0.43461600  0.70360600  1
  O  O38  1  0.36964700  0.96054700  0.77642900  1
  O  O39  1  0.30787000  0.21783700  0.59214100  1
  O  O40  1  0.33392200  0.68707100  0.70385100  1
  O  O41  1  0.27912000  0.43694600  0.47535900  1
  O  O42  1  0.21467900  0.93598100  0.53418000  1
  O  O43  1  0.15661800  0.19606100  0.29687400  1
  O  O44  1  0.18362300  0.71491400  0.40647400  1
  O  O45  1  0.13202200  0.46262000  0.21933600  1
  O  O46  1  0.06846900  0.06492200  0.10559400  1
  O  O47  1  0.13352700  0.93908300  0.30290400  1
  O  O48  1  0.02697700  0.74311600  0.09405900  1
  O  O49  1  0.22169400  0.33388300  0.00175100  1
  O  O50  1  0.18022400  0.17474400  0.81593500  1
  O  O51  1  0.10350000  0.65889600  0.84627700  1
  O  O52  1  0.10392900  0.41270300  0.78980200  1
  O  O53  1  0.08980700  0.91250500  0.73398200  1
  O  O54  1  0.02990600  0.15541700  0.56135400  1
  O  O55  1  0.02691100  0.58013200  0.62441200  1
loop_
_geom_bond_atom_site_label_1
_geom_bond_atom_site_label_2
_geom_bond_distance
_geom_bond_site_symmetry_2
Li0 O7 1.830825 1_555
Li0 O9 1.902255 1_545
Li0 O46 1.953594 1_656
Li0 O21 1.994837 1_556
Li1 O20 1.842792 1_555
Li1 O19 1.906501 1_555
Li1 O36 1.931902 1_554
Li1 O6 1.990591 1_554
Li2 O35 1.850699 1_555
Li2 O19 1.915018 1_556
Li2 O36 1.933188 1_555
Li2 O49 1.988175 1_556
Li3 O48 1.842877 1_555
Li3 O9 1.920336 1_454
Li3 O46 1.933298 1_565
Li3 O34 1.994268 1_554
Li4 O55 1.800981 1_555
Li4 O44 1.976848 1_555
Li4 O41 2.000760 1_555
Li4 O0 2.532939 1_455
Li4 O40 2.595799 1_555
Li5 O0 1.921833 1_455
Li5 O54 2.026685 1_555
Li5 O43 2.056044 1_555
Li5 O41 2.186983 1_555
Li5 O39 2.282921 1_555
Fe0 O16 1.930716 1_555
Fe0 O1 1.948227 1_555
Fe0 O5 2.009927 1_555
Fe0 O13 2.029930 1_565
Fe0 O17 2.204386 1_565
Fe0 O2 2.271864 1_565
Fe1 O15 1.947410 1_555
Fe1 O4 1.956283 1_555
Fe1 O21 1.978402 1_555
Fe1 O2 2.037238 1_555
Fe1 O17 2.149373 1_555
Fe2 O12 1.946557 1_555
Fe2 O6 1.969817 1_555
Fe2 O25 1.993938 1_555
Fe2 O24 2.022360 1_555
Fe2 O10 2.094596 1_555
Fe3 O11 1.935403 1_555
Fe3 O26 1.964914 1_555
Fe3 O14 2.014806 1_555
Fe3 O22 2.043353 1_555
Fe3 O10 2.170950 1_555
Fe3 O24 2.267189 1_555
Fe4 O29 1.919042 1_555
Fe4 O33 1.934006 1_555
Fe4 O44 2.024878 1_555
Fe4 O31 2.167812 1_555
Fe4 O45 2.169516 1_555
Fe4 O41 2.271910 1_555
Fe5 O49 1.948269 1_555
Fe5 O30 1.974865 1_555
Fe5 O43 2.018864 1_555
Fe5 O31 2.039831 1_555
Fe5 O45 2.094505 1_555
Fe6 O51 1.948752 1_555
Fe6 O34 1.964376 1_555
Fe6 O40 1.981617 1_555
Fe6 O53 2.026344 1_555
Fe6 O38 2.186334 1_555
Fe7 O50 1.973007 1_555
Fe7 O39 1.988916 1_555
Fe7 O54 2.012825 1_555
Fe7 O42 2.043547 1_545
Fe7 O38 2.143326 1_545
Fe7 O53 2.188302 1_545
O0 P0 1.496025 1_555
O1 P12 1.526418 1_655
O2 P13 1.564623 1_655
O3 P0 1.596762 1_555
O3 P1 1.615454 1_555
O4 P0 1.544750 1_555
O5 P1 1.529943 1_555
O6 P1 1.572915 1_556
O7 P14 1.486209 1_655
O8 P2 1.584828 1_545
O8 P3 1.618441 1_555
O9 P2 1.503346 1_555
O10 P15 1.579296 1_655
O11 P3 1.519834 1_555
O12 P2 1.536517 1_555
O13 P3 1.515075 1_555
O14 P4 1.515656 1_555
O15 P5 1.536456 1_555
O16 P4 1.522647 1_555
O17 P6 1.566060 1_555
O18 P5 1.582172 1_555
O18 P4 1.628780 1_555
O19 P5 1.502969 1_555
O20 P8 1.487736 1_555
O21 P7 1.571660 1_554
O22 P7 1.527487 1_555
O23 P9 1.594498 1_545
O23 P7 1.623346 1_555
O24 P10 1.563931 1_555
O25 P9 1.540855 1_555
O26 P11 1.513110 1_555
O27 P6 1.513697 1_555
O28 P9 1.515924 1_555
O29 P4 1.537187 1_555
O30 P6 1.545554 1_555
O31 P5 1.585705 1_555
O32 P6 1.599042 1_565
O32 P8 1.614952 1_555
O33 P8 1.536445 1_555
O34 P8 1.569675 1_556
O35 P7 1.494963 1_555
O36 P10 1.503758 1_555
O37 P10 1.595954 1_555
O37 P11 1.622273 1_555
O38 P9 1.569224 1_555
O39 P11 1.529727 1_555
O40 P10 1.546209 1_555
O41 P11 1.544498 1_555
O42 P12 1.517950 1_555
O43 P13 1.553135 1_555
O44 P12 1.545835 1_555
O45 P0 1.595995 1_455
O46 P13 1.502322 1_555
O47 P13 1.590374 1_565
O47 P12 1.622798 1_555
O48 P1 1.493409 1_455
O49 P14 1.578620 1_554
O50 P14 1.535356 1_555
O51 P15 1.551247 1_555
O52 P15 1.606012 1_555
O52 P14 1.611427 1_555
O53 P2 1.578548 1_455
O54 P3 1.552328 1_455
O55 P15 1.485486 1_555
