# generated using pymatgen
data_Li6MnV3(PO4)6
_symmetry_space_group_name_H-M   'P 1'
_cell_length_a   8.79298210
_cell_length_b   8.79298210
_cell_length_c   14.49430022
_cell_angle_alpha   73.87592186
_cell_angle_beta   73.87592186
_cell_angle_gamma   60.64011866
_symmetry_Int_Tables_number   1
_chemical_formula_structural   Li6MnV3(PO4)6
_chemical_formula_sum   'Li12 Mn2 V6 P12 O48'
_cell_volume   924.78158617
_cell_formula_units_Z   2
loop_
 _symmetry_equiv_pos_site_id
 _symmetry_equiv_pos_as_xyz
  1  'x, y, z'
loop_
 _atom_site_type_symbol
 _atom_site_label
 _atom_site_symmetry_multiplicity
 _atom_site_fract_x
 _atom_site_fract_y
 _atom_site_fract_z
 _atom_site_occupancy
  Li  Li0  1  0.85784200  0.23418500  0.76151100  1
  Li  Li1  1  0.50301500  0.24579700  0.87328500  1
  Li  Li2  1  0.76581500  0.14215800  0.23848900  1
  Li  Li3  1  0.24896600  0.99859600  0.62481100  1
  Li  Li4  1  0.64186900  0.76464200  0.48849400  1
  Li  Li5  1  0.73665300  0.85785700  0.01068600  1
  Li  Li6  1  0.26338500  0.64070300  0.73640300  1
  Li  Li7  1  0.35929700  0.73661500  0.26359700  1
  Li  Li8  1  0.75420300  0.49698500  0.12671500  1
  Li  Li9  1  0.00140400  0.75103400  0.37518900  1
  Li  Li10  1  0.23535800  0.35813100  0.51150600  1
  Li  Li11  1  0.14214300  0.26334700  0.98931400  1
  Mn  Mn0  1  0.67757300  0.42271300  0.34046300  1
  Mn  Mn1  1  0.57728700  0.32242700  0.65953700  1
  V  V0  1  0.42483800  0.18088200  0.08792400  1
  V  V1  1  0.31673300  0.07815200  0.41171300  1
  V  V2  1  0.92184800  0.68326700  0.58828700  1
  V  V3  1  0.18245600  0.92187900  0.83785500  1
  V  V4  1  0.81911800  0.57516200  0.91207600  1
  V  V5  1  0.07812100  0.81754400  0.16214500  1
  P  P0  1  0.86783800  0.91758300  0.75850200  1
  P  P1  1  0.63153200  0.08455800  0.49437800  1
  P  P2  1  0.82718600  0.17281400  0.00000000  1
  P  P3  1  0.08241700  0.13216200  0.24149800  1
  P  P4  1  0.67406500  0.82439400  0.25080200  1
  P  P5  1  0.58147000  0.63120600  0.74185000  1
  P  P6  1  0.41977200  0.86688700  0.00640900  1
  P  P7  1  0.31818500  0.68181500  0.50000000  1
  P  P8  1  0.91544200  0.36846800  0.50562200  1
  P  P9  1  0.17560600  0.32593500  0.74919800  1
  P  P10  1  0.36879400  0.41853000  0.25815000  1
  P  P11  1  0.13311300  0.58022800  0.99359100  1
  O  O0  1  0.71839700  0.10577500  0.76721700  1
  O  O1  1  0.61538700  0.16522200  0.57903300  1
  O  O2  1  0.66967800  0.19332600  0.39474500  1
  O  O3  1  0.83881700  0.79957300  0.85623600  1
  O  O4  1  0.88024600  0.84124300  0.67273600  1
  O  O5  1  0.19202000  0.14191400  0.74665000  1
  O  O6  1  0.89859800  0.05252600  0.09380400  1
  O  O7  1  0.45235600  0.07425000  0.50984500  1
  O  O8  1  0.94747400  0.10140200  0.90619600  1
  O  O9  1  0.10683900  0.21912700  0.50996200  1
  O  O10  1  0.78087300  0.89316100  0.49003700  1
  O  O11  1  0.64391000  0.18862900  0.99683500  1
  O  O12  1  0.85808600  0.80798000  0.25335000  1
  O  O13  1  0.15875700  0.11975400  0.32726400  1
  O  O14  1  0.65967700  0.61045600  0.82802200  1
  O  O15  1  0.55401300  0.89788200  0.34431000  1
  O  O16  1  0.20042700  0.16118300  0.14376400  1
  O  O17  1  0.39055600  0.78135200  0.73777700  1
  O  O18  1  0.60325400  0.94499100  0.15658200  1
  O  O19  1  0.69321200  0.66629800  0.64354400  1
  O  O20  1  0.04839100  0.92719300  0.74043500  1
  O  O21  1  0.43299300  0.04474800  0.98960300  1
  O  O22  1  0.30294400  0.86521500  0.50354700  1
  O  O23  1  0.92575000  0.54764400  0.49015500  1
  O  O24  1  0.07280700  0.95160900  0.25956500  1
  O  O25  1  0.68540600  0.64276800  0.24770500  1
  O  O26  1  0.57066900  0.45095100  0.75592000  1
  O  O27  1  0.95525200  0.56700700  0.01039700  1
  O  O28  1  0.30777600  0.83226600  0.10514100  1
  O  O29  1  0.38725200  0.56301300  0.59407300  1
  O  O30  1  0.61066400  0.71508900  0.01114900  1
  O  O31  1  0.80667400  0.33032200  0.60525500  1
  O  O32  1  0.43698700  0.61274800  0.40592700  1
  O  O33  1  0.34031400  0.88290600  0.92144000  1
  O  O34  1  0.83477800  0.38461300  0.42096700  1
  O  O35  1  0.13478500  0.69705600  0.49645300  1
  O  O36  1  0.35723200  0.31459400  0.75229500  1
  O  O37  1  0.21864800  0.60944400  0.26222300  1
  O  O38  1  0.89422500  0.28160300  0.23278300  1
  O  O39  1  0.05500900  0.39674600  0.84341800  1
  O  O40  1  0.54904900  0.42933100  0.24408000  1
  O  O41  1  0.10211800  0.44598700  0.65569000  1
  O  O42  1  0.81137100  0.35609000  0.00316500  1
  O  O43  1  0.11709400  0.65968600  0.07856000  1
  O  O44  1  0.16773400  0.69222400  0.89485900  1
  O  O45  1  0.33370200  0.30678800  0.35645600  1
  O  O46  1  0.38954400  0.34032300  0.17197800  1
  O  O47  1  0.28491100  0.38933600  0.98885100  1
loop_
_geom_bond_atom_site_label_1
_geom_bond_atom_site_label_2
_geom_bond_distance
_geom_bond_site_symmetry_2
Li0 O0 2.008608 1_555
Li0 O8 2.244531 1_555
Li0 O31 2.275097 1_555
Li0 O26 2.307388 1_555
Li0 O20 2.434331 1_645
Li0 O5 2.597446 1_655
Li1 O0 2.147973 1_555
Li1 O36 2.232364 1_555
Li1 O47 2.256801 1_555
Li1 O11 2.261856 1_555
Li1 O21 2.276401 1_555
Li1 O26 2.299468 1_555
Li2 O38 2.008608 1_555
Li2 O6 2.244531 1_555
Li2 O2 2.275097 1_555
Li2 O40 2.307388 1_555
Li2 O24 2.434331 1_645
Li2 O12 2.597446 1_545
Li3 O22 2.196776 1_555
Li3 O17 2.223260 1_555
Li3 O9 2.253738 1_565
Li3 O5 2.254696 1_565
Li3 O20 2.274410 1_555
Li3 O7 2.305054 1_565
Li4 O10 2.038408 1_555
Li4 O15 2.232962 1_555
Li4 O19 2.259078 1_555
Li4 O23 2.282452 1_555
Li4 O7 2.452958 1_565
Li4 O22 2.621589 1_555
Li5 O30 2.039149 1_555
Li5 O18 2.252910 1_555
Li5 O3 2.269353 1_554
Li5 O27 2.327290 1_555
Li5 O21 2.407251 1_564
Li5 O11 2.570091 1_564
Li6 O17 2.040197 1_555
Li6 O29 2.171163 1_555
Li6 O20 2.296452 1_555
Li6 O44 2.306263 1_555
Li6 O26 2.430249 1_555
Li6 O36 2.524839 1_555
Li7 O37 2.040197 1_555
Li7 O32 2.171163 1_555
Li7 O24 2.296452 1_555
Li7 O28 2.306263 1_555
Li7 O40 2.430249 1_555
Li7 O25 2.524839 1_555
Li8 O38 2.147973 1_555
Li8 O25 2.232364 1_555
Li8 O30 2.256801 1_555
Li8 O42 2.261856 1_555
Li8 O27 2.276401 1_555
Li8 O40 2.299468 1_555
Li9 O35 2.196776 1_555
Li9 O37 2.223260 1_555
Li9 O10 2.253729 1_455
Li9 O12 2.254696 1_455
Li9 O24 2.274410 1_555
Li9 O23 2.305054 1_455
Li10 O9 2.038413 1_555
Li10 O41 2.232962 1_555
Li10 O45 2.259078 1_555
Li10 O7 2.282452 1_555
Li10 O23 2.452958 1_455
Li10 O35 2.621589 1_555
Li11 O47 2.039149 1_555
Li11 O39 2.252910 1_555
Li11 O16 2.269353 1_556
Li11 O21 2.327290 1_555
Li11 O27 2.407251 1_456
Li11 O42 2.570091 1_456
Mn0 O34 1.899786 1_555
Mn0 O2 1.979303 1_555
Mn0 O40 1.999855 1_555
Mn0 O25 2.047100 1_555
Mn0 O32 2.113564 1_555
Mn0 O38 2.170462 1_555
Mn1 O1 1.899786 1_555
Mn1 O31 1.979303 1_555
Mn1 O26 1.999855 1_555
Mn1 O36 2.047100 1_555
Mn1 O29 2.113564 1_555
Mn1 O0 2.170462 1_555
O0 P0 1.540323 1_545
O1 P1 1.522070 1_555
O2 P1 1.546298 1_555
O3 P0 1.546281 1_555
O3 V4 1.987202 1_555
O4 P0 1.524522 1_555
O4 V2 1.938822 1_555
O5 P9 1.562578 1_555
O5 V3 2.043311 1_545
O6 P2 1.544592 1_555
O6 V5 2.067750 1_645
O7 P1 1.572644 1_555
O7 V1 2.078775 1_555
O8 P2 1.544592 1_556
O8 V3 2.067750 1_645
O9 P8 1.551290 1_455
O9 V1 2.061073 1_555
O10 P1 1.551292 1_565
O10 V2 2.061082 1_555
O11 P2 1.560858 1_556
O11 V0 2.030883 1_556
O12 P4 1.562578 1_555
O12 V5 2.043311 1_655
O13 P3 1.524522 1_555
O13 V1 1.938822 1_555
O14 P5 1.514480 1_555
O14 V4 1.964211 1_555
O15 P4 1.546512 1_555
O15 V1 2.074872 1_565
O16 P3 1.546281 1_555
O16 V0 1.987202 1_555
O17 P5 1.550175 1_555
O17 V3 2.069627 1_555
O18 P4 1.548437 1_555
O18 V0 2.069675 1_565
O19 P5 1.538295 1_555
O19 V2 2.009685 1_555
O20 P0 1.576238 1_455
O20 V3 2.054157 1_555
O21 P6 1.571520 1_546
O21 V0 2.067723 1_556
O22 P7 1.565724 1_555
O22 V1 2.010184 1_565
O23 P8 1.572644 1_555
O23 V2 2.078775 1_555
O24 P3 1.576238 1_565
O24 V5 2.054157 1_555
O25 P4 1.563216 1_555
O26 P5 1.587477 1_555
O27 P11 1.571520 1_654
O27 V4 2.067723 1_554
O28 P6 1.542597 1_555
O28 V5 2.011816 1_555
O29 P7 1.538167 1_555
O30 P6 1.555603 1_555
O30 V4 2.059982 1_554
O31 P8 1.546298 1_555
O32 P7 1.538167 1_555
O33 P6 1.519808 1_556
O33 V3 1.936194 1_555
O34 P8 1.522070 1_555
O35 P7 1.565724 1_555
O35 V2 2.010184 1_455
O36 P9 1.563216 1_555
O37 P10 1.550175 1_555
O37 V5 2.069627 1_555
O38 P3 1.540323 1_655
O39 P9 1.548437 1_555
O39 V4 2.069675 1_455
O40 P10 1.587477 1_555
O41 P9 1.546512 1_555
O41 V2 2.074872 1_455
O42 P2 1.560858 1_555
O42 V4 2.030883 1_554
O43 P11 1.519808 1_554
O43 V5 1.936194 1_555
O44 P11 1.542597 1_555
O44 V3 2.011816 1_555
O45 P10 1.538295 1_555
O45 V1 2.009685 1_555
O46 P10 1.514480 1_555
O46 V0 1.964211 1_555
O47 P11 1.555603 1_555
O47 V0 2.059982 1_556
