# generated using pymatgen
data_LiFeP2O7
_symmetry_space_group_name_H-M   'P 1'
_cell_length_a   9.67242300
_cell_length_b   9.75606309
_cell_length_c   11.11461813
_cell_angle_alpha   89.92339325
_cell_angle_beta   78.68457357
_cell_angle_gamma   89.87534304
_symmetry_Int_Tables_number   1
_chemical_formula_structural   LiFeP2O7
_chemical_formula_sum   'Li8 Fe8 P16 O56'
_cell_volume   1028.43822921
_cell_formula_units_Z   8
loop_
 _symmetry_equiv_pos_site_id
 _symmetry_equiv_pos_as_xyz
  1  'x, y, z'
loop_
 _atom_site_type_symbol
 _atom_site_label
 _atom_site_symmetry_multiplicity
 _atom_site_fract_x
 _atom_site_fract_y
 _atom_site_fract_z
 _atom_site_occupancy
  Li  Li0  1  0.41476200  0.40114400  0.02228300  1
  Li  Li1  1  0.33473000  0.08571300  0.53728200  1
  Li  Li2  1  0.38541800  0.78290800  0.45143100  1
  Li  Li3  1  0.84983600  0.41216200  0.04627400  1
  Li  Li4  1  0.64911700  0.88963800  0.95502700  1
  Li  Li5  1  0.91956800  0.09978000  0.02613500  1
  Li  Li6  1  0.84126500  0.41963500  0.53070900  1
  Li  Li7  1  0.88407600  0.71742500  0.45362500  1
  Fe  Fe0  1  0.20451800  0.08401800  0.32259000  1
  Fe  Fe1  1  0.24654500  0.79181100  0.16796600  1
  Fe  Fe2  1  0.24509500  0.27988100  0.82681200  1
  Fe  Fe3  1  0.29237300  0.57252600  0.67292100  1
  Fe  Fe4  1  0.70209100  0.41687700  0.32655300  1
  Fe  Fe5  1  0.74871100  0.71138800  0.17078000  1
  Fe  Fe6  1  0.74399400  0.22100500  0.82574400  1
  Fe  Fe7  1  0.79345700  0.92788300  0.66945500  1
  P  P0  1  0.02054400  0.55064100  0.25095000  1
  P  P1  1  0.11538600  0.29199300  0.11516400  1
  P  P2  1  0.06563000  0.08286800  0.76029300  1
  P  P3  1  0.12254100  0.85366500  0.58246700  1
  P  P4  1  0.37526500  0.35923500  0.42512500  1
  P  P5  1  0.43374500  0.57880200  0.23474000  1
  P  P6  1  0.52154600  0.94923400  0.24875100  1
  P  P7  1  0.38566400  0.78635200  0.88232900  1
  P  P8  1  0.61100500  0.20981200  0.11635100  1
  P  P9  1  0.47546800  0.05194900  0.75220000  1
  P  P10  1  0.56582200  0.41745400  0.75983000  1
  P  P11  1  0.62198200  0.64593700  0.58068100  1
  P  P12  1  0.87666100  0.14096400  0.42545200  1
  P  P13  1  0.93202500  0.92124200  0.23678200  1
  P  P14  1  0.89590000  0.71580900  0.88321700  1
  P  P15  1  0.97460000  0.44827400  0.75647900  1
  O  O0  1  0.00907900  0.57387900  0.38533100  1
  O  O1  1  0.03387700  0.14845800  0.42828800  1
  O  O2  1  0.08661400  0.91517400  0.26158500  1
  O  O3  1  0.10609500  0.41053800  0.21699300  1
  O  O4  1  0.10123200  0.65706000  0.16305400  1
  O  O5  1  0.17573400  0.17087700  0.17503600  1
  O  O6  1  0.22050400  0.34140600  0.99872100  1
  O  O7  1  0.03855500  0.74290400  0.90322800  1
  O  O8  1  0.11610400  0.93378200  0.71010000  1
  O  O9  1  0.07779200  0.09959800  0.89283200  1
  O  O10  1  0.12957900  0.45678400  0.78023800  1
  O  O11  1  0.18865000  0.71454000  0.59782800  1
  O  O12  1  0.17312300  0.18480600  0.68750300  1
  O  O13  1  0.21927000  0.93665000  0.48164700  1
  O  O14  1  0.29229700  0.43560700  0.53410600  1
  O  O15  1  0.34447400  0.70126800  0.29608800  1
  O  O16  1  0.31895700  0.21494300  0.40438700  1
  O  O17  1  0.36764200  0.96680100  0.22284300  1
  O  O18  1  0.36611600  0.44264100  0.30186700  1
  O  O19  1  0.42320500  0.57033500  0.10305000  1
  O  O20  1  0.46862700  0.24218200  0.09570000  1
  O  O21  1  0.28182000  0.83266100  0.00053300  1
  O  O22  1  0.32606000  0.66898700  0.81635600  1
  O  O23  1  0.39088100  0.91200700  0.78471000  1
  O  O24  1  0.41081200  0.40960600  0.73941500  1
  O  O25  1  0.39777500  0.15830900  0.84402200  1
  O  O26  1  0.46959400  0.65849600  0.56330400  1
  O  O27  1  0.52458400  0.91237100  0.37864300  1
  O  O28  1  0.47829500  0.07993800  0.62033300  1
  O  O29  1  0.53352600  0.34922000  0.42692300  1
  O  O30  1  0.60585600  0.85180200  0.14920500  1
  O  O31  1  0.58934100  0.58628200  0.26068200  1
  O  O32  1  0.60168800  0.09367000  0.22085300  1
  O  O33  1  0.68902800  0.32843300  0.16859500  1
  O  O34  1  0.71561500  0.15168500  0.99947000  1
  O  O35  1  0.53051400  0.76607000  0.90525800  1
  O  O36  1  0.58163000  0.40260400  0.89208400  1
  O  O37  1  0.62050000  0.56486100  0.70751100  1
  O  O38  1  0.62941100  0.03596600  0.78329100  1
  O  O39  1  0.69149200  0.78317400  0.59676600  1
  O  O40  1  0.67070700  0.31123100  0.68852700  1
  O  O41  1  0.71726900  0.56252400  0.47857500  1
  O  O42  1  0.79223800  0.06498900  0.53451900  1
  O  O43  1  0.84293100  0.79847200  0.29904400  1
  O  O44  1  0.81978000  0.28540800  0.40385300  1
  O  O45  1  0.86892000  0.53005400  0.21509600  1
  O  O46  1  0.91506500  0.92782600  0.10590900  1
  O  O47  1  0.86394400  0.05810200  0.30248300  1
  O  O48  1  0.97003900  0.27020800  0.09014800  1
  O  O49  1  0.79240600  0.65943500  0.00227100  1
  O  O50  1  0.81635500  0.83260200  0.82773200  1
  O  O51  1  0.88904600  0.35315900  0.85835000  1
  O  O52  1  0.89869000  0.59449400  0.78137100  1
  O  O53  1  0.90934700  0.09393800  0.74035400  1
  O  O54  1  0.96935000  0.84215800  0.56507300  1
  O  O55  1  0.96694600  0.40814300  0.62925200  1
loop_
_geom_bond_atom_site_label_1
_geom_bond_atom_site_label_2
_geom_bond_distance
_geom_bond_site_symmetry_2
Li0 O20 1.871458 1_555
Li0 O19 1.889563 1_555
Li0 O36 1.944961 1_554
Li0 O6 2.033950 1_554
Li1 O28 1.812746 1_555
Li1 O16 1.969061 1_555
Li1 O13 2.006222 1_545
Li1 O12 2.267002 1_555
Li2 O27 1.907624 1_555
Li2 O15 2.011386 1_555
Li2 O26 2.017719 1_555
Li2 O13 2.173528 1_555
Li2 O11 2.345660 1_555
Li3 O48 1.929045 1_555
Li3 O33 2.026735 1_555
Li3 O51 2.128211 1_554
Li3 O45 2.240626 1_555
Li3 O49 2.542659 1_555
Li4 O35 1.825418 1_555
Li4 O50 2.007011 1_555
Li4 O30 2.147881 1_556
Li4 O38 2.419106 1_565
Li5 O46 1.893031 1_545
Li5 O9 1.909849 1_654
Li5 O48 1.911049 1_555
Li5 O34 2.112007 1_554
Li6 O55 1.792074 1_555
Li6 O44 1.966501 1_555
Li6 O41 1.995193 1_555
Li6 O40 2.404983 1_555
Li6 O0 2.546551 1_655
Li7 O0 1.906468 1_655
Li7 O43 1.999701 1_555
Li7 O54 2.026048 1_555
Li7 O41 2.190379 1_555
Li7 O39 2.290639 1_555
Fe0 O5 1.913023 1_555
Fe0 O1 1.932905 1_555
Fe0 O16 2.021747 1_555
Fe0 O17 2.082173 1_545
Fe0 O2 2.188229 1_545
Fe0 O13 2.303053 1_545
Fe1 O21 1.867575 1_555
Fe1 O4 1.935229 1_555
Fe1 O15 2.056130 1_555
Fe1 O2 2.070696 1_555
Fe1 O17 2.224946 1_555
Fe2 O25 1.930507 1_555
Fe2 O6 1.972753 1_555
Fe2 O12 2.042560 1_555
Fe2 O24 2.123469 1_555
Fe2 O10 2.170532 1_555
Fe2 O9 2.406994 1_555
Fe3 O22 1.934566 1_555
Fe3 O11 1.985492 1_555
Fe3 O14 2.042244 1_555
Fe3 O26 2.076091 1_555
Fe3 O10 2.108153 1_555
Fe3 O24 2.169364 1_555
Fe4 O29 1.904588 1_555
Fe4 O33 1.983521 1_555
Fe4 O44 2.013349 1_555
Fe4 O45 2.139461 1_555
Fe4 O31 2.181535 1_555
Fe4 O41 2.236128 1_555
Fe5 O49 1.906387 1_555
Fe5 O30 1.991042 1_555
Fe5 O43 2.025127 1_555
Fe5 O31 2.065154 1_555
Fe5 O45 2.222095 1_555
Fe6 O51 1.992663 1_555
Fe6 O40 2.005303 1_555
Fe6 O34 2.012563 1_555
Fe6 O53 2.096273 1_555
Fe6 O38 2.219481 1_555
Fe6 O36 2.384506 1_555
Fe7 O39 1.985031 1_555
Fe7 O42 2.010011 1_565
Fe7 O50 2.038509 1_555
Fe7 O54 2.040037 1_555
Fe7 O38 2.106868 1_565
Fe7 O53 2.204530 1_565
O0 P0 1.493424 1_555
O1 P12 1.529067 1_455
O2 P13 1.573723 1_455
O3 P0 1.602925 1_555
O3 P1 1.609263 1_555
O4 P0 1.530696 1_555
O5 P1 1.525480 1_555
O6 P1 1.557323 1_556
O7 P14 1.464726 1_455
O8 P2 1.599162 1_565
O8 P3 1.610998 1_555
O9 P2 1.509732 1_555
O10 P15 1.574686 1_455
O11 P3 1.522750 1_555
O12 P2 1.548180 1_555
O13 P3 1.541414 1_555
O14 P4 1.511532 1_555
O15 P5 1.550699 1_555
O16 P4 1.544313 1_555
O17 P6 1.579642 1_555
O18 P5 1.599622 1_555
O18 P4 1.609673 1_555
O19 P5 1.489464 1_555
O20 P8 1.473392 1_555
O21 P7 1.555894 1_554
O22 P7 1.533665 1_555
O23 P9 1.597335 1_565
O23 P7 1.630282 1_555
O24 P10 1.561846 1_555
O25 P9 1.543205 1_555
O26 P11 1.528313 1_555
O27 P6 1.493213 1_555
O28 P9 1.485490 1_555
O29 P4 1.537707 1_555
O30 P6 1.561439 1_555
O31 P5 1.588798 1_555
O32 P6 1.609948 1_545
O32 P8 1.611503 1_555
O33 P8 1.556777 1_555
O34 P8 1.586404 1_556
O35 P7 1.485199 1_555
O36 P10 1.514154 1_555
O37 P10 1.602000 1_555
O37 P11 1.613121 1_555
O38 P9 1.600506 1_555
O39 P11 1.525893 1_555
O40 P10 1.553491 1_555
O41 P11 1.545435 1_555
O42 P12 1.515750 1_555
O43 P13 1.557041 1_555
O44 P12 1.547170 1_555
O45 P0 1.606492 1_655
O46 P13 1.496747 1_555
O47 P13 1.599926 1_545
O47 P12 1.614319 1_555
O48 P1 1.501255 1_655
O49 P14 1.592536 1_554
O50 P14 1.565600 1_555
O51 P15 1.568670 1_555
O52 P15 1.602316 1_555
O52 P14 1.635350 1_555
O53 P2 1.573691 1_655
O54 P3 1.535803 1_655
O55 P15 1.483603 1_555
