# generated using pymatgen
data_V4(OF3)3
_symmetry_space_group_name_H-M   'P 1'
_cell_length_a   5.20746600
_cell_length_b   5.40855692
_cell_length_c   9.18582643
_cell_angle_alpha   106.97245529
_cell_angle_beta   89.66658976
_cell_angle_gamma   118.54672912
_symmetry_Int_Tables_number   1
_chemical_formula_structural   V4(OF3)3
_chemical_formula_sum   'V4 O3 F9'
_cell_volume   214.59725154
_cell_formula_units_Z   1
loop_
 _symmetry_equiv_pos_site_id
 _symmetry_equiv_pos_as_xyz
  1  'x, y, z'
loop_
 _atom_site_type_symbol
 _atom_site_label
 _atom_site_symmetry_multiplicity
 _atom_site_fract_x
 _atom_site_fract_y
 _atom_site_fract_z
 _atom_site_occupancy
  V  V0  1  0.74919400  0.99989700  0.25024800  1
  V  V1  1  0.52195300  0.98888300  0.49901400  1
  V  V2  1  0.21733500  0.99112200  0.74493900  1
  V  V3  1  0.97837800  0.00975600  0.00288200  1
  O  O0  1  0.84163800  0.07635800  0.08072800  1
  O  O1  1  0.85512300  0.92079300  0.66880000  1
  O  O2  1  0.65594800  0.92296100  0.41857000  1
  F  F0  1  0.32692100  0.90046800  0.16958100  1
  F  F1  1  0.34788100  0.09059600  0.58256400  1
  F  F2  1  0.77739600  0.49964600  0.11956600  1
  F  F3  1  0.72000200  0.50205000  0.37786200  1
  F  F4  1  0.16992000  0.09778200  0.33169400  1
  F  F5  1  0.16937100  0.91148800  0.92164300  1
  F  F6  1  0.28612600  0.49892400  0.63096100  1
  F  F7  1  0.22255400  0.49996000  0.87496300  1
  F  F8  1  0.66026100  0.08931400  0.82598400  1
loop_
_geom_bond_atom_site_label_1
_geom_bond_atom_site_label_2
_geom_bond_distance
_geom_bond_site_symmetry_2
O0 V3 1.112196 1_555
O0 V0 1.733362 1_545
O1 V2 1.834648 1_655
O2 V1 1.112659 1_555
O2 V0 1.724345 1_555
F0 V0 2.080830 1_555
F1 V1 1.391173 1_545
F1 V2 1.755977 1_545
F2 V0 2.695285 1_555
F3 V0 2.703200 1_545
F4 V0 2.078311 1_445
F5 V3 1.446928 1_466
F5 V2 1.784153 1_555
F6 V2 2.755183 1_555
F7 V2 2.647842 1_545
F8 V2 2.185117 1_545
