# generated using pymatgen
data_Ag2GePbS4
_symmetry_space_group_name_H-M   'P 1'
_cell_length_a   6.23396020
_cell_length_b   6.23396020
_cell_length_c   10.17967010
_cell_angle_alpha   90.00000000
_cell_angle_beta   90.00000000
_cell_angle_gamma   112.78809798
_symmetry_Int_Tables_number   1
_chemical_formula_structural   Ag2GePbS4
_chemical_formula_sum   'Ag4 Ge2 Pb2 S8'
_cell_volume   364.72549464
_cell_formula_units_Z   2
loop_
 _symmetry_equiv_pos_site_id
 _symmetry_equiv_pos_as_xyz
  1  'x, y, z'
loop_
 _atom_site_type_symbol
 _atom_site_label
 _atom_site_symmetry_multiplicity
 _atom_site_fract_x
 _atom_site_fract_y
 _atom_site_fract_z
 _atom_site_occupancy
  Ag  Ag0  1  0.58912833  0.35576076  0.90087941  1
  Ag  Ag1  1  0.58912833  0.35576076  0.59912059  1
  Ag  Ag2  1  0.35576076  0.58912833  0.40087941  1
  Ag  Ag3  1  0.35576076  0.58912833  0.09912159  1
  Ge  Ge0  1  0.32368129  0.72719112  0.75000000  1
  Ge  Ge1  1  0.72719112  0.32368129  0.25000000  1
  Pb  Pb0  1  0.98706991  0.98706991  -0.00000000  1
  Pb  Pb1  1  0.98706991  0.98706991  0.50000000  1
  S  S0  1  0.50999952  0.90632152  0.93090669  1
  S  S1  1  0.97330214  0.73910811  0.75000000  1
  S  S2  1  0.27544727  0.35489896  0.75000000  1
  S  S3  1  0.50999952  0.90632152  0.56909331  1
  S  S4  1  0.90632152  0.50999952  0.43090669  1
  S  S5  1  0.73910811  0.97330214  0.25000000  1
  S  S6  1  0.35489896  0.27544727  0.25000000  1
  S  S7  1  0.90632152  0.50999952  0.06909331  1
loop_
_geom_bond_atom_site_label_1
_geom_bond_atom_site_label_2
_geom_bond_distance
_geom_bond_site_symmetry_2
Ag0 S2 2.484909 1_555
Ag0 S7 2.508759 1_556
Ag0 S0 2.667610 1_545
Ag0 S1 3.061390 1_555
Ag1 S2 2.484909 1_555
Ag1 S4 2.508759 1_555
Ag1 S3 2.667610 1_545
Ag1 S1 3.061390 1_555
Ag2 S6 2.484909 1_555
Ag2 S3 2.508759 1_555
Ag2 S4 2.667610 1_455
Ag2 S5 3.061390 1_555
Ag3 S6 2.484902 1_555
Ag3 S0 2.508766 1_554
Ag3 S7 2.667611 1_455
Ag3 S5 3.061385 1_555
Ge0 S1 2.214084 1_455
Ge0 S2 2.221753 1_555
Ge0 S3 2.232200 1_555
Ge0 S0 2.232200 1_555
Ge1 S5 2.214084 1_545
Ge1 S6 2.221753 1_555
Ge1 S7 2.232200 1_555
Ge1 S4 2.232200 1_555
Pb0 S0 2.904012 1_554
Pb0 S7 2.904012 1_555
Pb0 S1 2.961528 1_554
Pb0 S5 2.961528 1_555
Pb1 S4 2.904012 1_555
Pb1 S3 2.904012 1_555
Pb1 S1 2.961528 1_555
Pb1 S5 2.961528 1_555
