# generated using pymatgen
data_Li2Mn2Si4O11
_symmetry_space_group_name_H-M   'P 1'
_cell_length_a   8.91924100
_cell_length_b   7.58928726
_cell_length_c   7.04708849
_cell_angle_alpha   104.56049889
_cell_angle_beta   100.97545245
_cell_angle_gamma   99.49426915
_symmetry_Int_Tables_number   1
_chemical_formula_structural   Li2Mn2Si4O11
_chemical_formula_sum   'Li4 Mn4 Si8 O22'
_cell_volume   441.74184991
_cell_formula_units_Z   2
loop_
 _symmetry_equiv_pos_site_id
 _symmetry_equiv_pos_as_xyz
  1  'x, y, z'
loop_
 _atom_site_type_symbol
 _atom_site_label
 _atom_site_symmetry_multiplicity
 _atom_site_fract_x
 _atom_site_fract_y
 _atom_site_fract_z
 _atom_site_occupancy
  Li  Li0  1  0.60965800  0.19679100  0.79364800  1
  Li  Li1  1  0.14214800  0.14846200  0.75226100  1
  Li  Li2  1  0.85785200  0.85153800  0.24773900  1
  Li  Li3  1  0.39034200  0.80320900  0.20635200  1
  Mn  Mn0  1  0.88182900  0.38842400  0.62432700  1
  Mn  Mn1  1  0.37048200  0.39749400  0.61817800  1
  Mn  Mn2  1  0.62951800  0.60250600  0.38182200  1
  Mn  Mn3  1  0.11817100  0.61157600  0.37567300  1
  Si  Si0  1  0.24003300  0.03326300  0.38861700  1
  Si  Si1  1  0.95793500  0.23119700  0.22380100  1
  Si  Si2  1  0.52032300  0.22368800  0.22192500  1
  Si  Si3  1  0.76772400  0.59848600  0.97326100  1
  Si  Si4  1  0.23227600  0.40151400  0.02673900  1
  Si  Si5  1  0.47967700  0.77631200  0.77807500  1
  Si  Si6  1  0.04206500  0.76880300  0.77619900  1
  Si  Si7  1  0.75996700  0.96673700  0.61138300  1
  O  O0  1  0.81620400  0.15091400  0.62158800  1
  O  O1  1  0.39829400  0.06042800  0.25869300  1
  O  O2  1  0.32270800  0.15157500  0.59371500  1
  O  O3  1  0.02550800  0.06850400  0.26040200  1
  O  O4  1  0.70985700  0.18201700  0.15158600  1
  O  O5  1  0.38154400  0.27392800  0.04044800  1
  O  O6  1  0.67819800  0.43767500  0.81203600  1
  O  O7  1  0.58091200  0.36454600  0.40702300  1
  O  O8  1  0.18465100  0.41456500  0.81065000  1
  O  O9  1  0.02272800  0.29270000  0.04963400  1
  O  O10  1  0.05972200  0.36888300  0.41239600  1
  O  O11  1  0.94027800  0.63111700  0.58760400  1
  O  O12  1  0.97727200  0.70730000  0.95036600  1
  O  O13  1  0.81534900  0.58543500  0.18935000  1
  O  O14  1  0.41908800  0.63545400  0.59297700  1
  O  O15  1  0.32180200  0.56232500  0.18796400  1
  O  O16  1  0.61845600  0.72607200  0.95955200  1
  O  O17  1  0.29014300  0.81798300  0.84841400  1
  O  O18  1  0.97449200  0.93149600  0.73959800  1
  O  O19  1  0.67729200  0.84842500  0.40628500  1
  O  O20  1  0.60170600  0.93957200  0.74130700  1
  O  O21  1  0.18379600  0.84908600  0.37841200  1
loop_
_geom_bond_atom_site_label_1
_geom_bond_atom_site_label_2
_geom_bond_distance
_geom_bond_site_symmetry_2
Li0 O6 1.792940 1_555
Li0 O20 1.879930 1_545
Li0 O0 2.415606 1_555
Li0 O4 2.547697 1_556
Li1 O8 1.913569 1_555
Li1 O18 2.004602 1_445
Li1 O2 2.127988 1_555
Li2 O13 1.913569 1_555
Li2 O3 2.004602 1_665
Li2 O19 2.127988 1_555
Li3 O15 1.792940 1_555
Li3 O1 1.879930 1_565
Li3 O21 2.415606 1_555
Li3 O17 2.547697 1_554
Mn0 O0 1.795059 1_555
Mn0 O11 1.924965 1_555
Mn0 O8 2.720360 1_655
Mn1 O2 1.800679 1_555
Mn1 O14 1.847491 1_555
Mn1 O8 2.332864 1_555
Mn2 O19 1.800679 1_555
Mn2 O7 1.847491 1_555
Mn2 O13 2.332864 1_555
Mn3 O21 1.795059 1_555
Mn3 O10 1.924965 1_555
Mn3 O13 2.720360 1_455
O0 Si7 1.383821 1_545
O1 Si2 1.615818 1_555
O1 Si0 1.834216 1_555
O2 Si0 1.470448 1_555
O3 Si1 1.516824 1_455
O3 Si0 2.044761 1_555
O4 Si2 1.902665 1_555
O4 Si1 2.120723 1_555
O5 Si2 1.763855 1_555
O5 Si4 1.772785 1_555
O6 Si3 1.433112 1_555
O7 Si2 1.405765 1_555
O8 Si4 1.533810 1_556
O9 Si1 1.589789 1_455
O9 Si4 1.968207 1_555
O10 Si1 1.487209 1_455
O11 Si6 1.487209 1_655
O12 Si6 1.589789 1_655
O12 Si3 1.968207 1_555
O13 Si3 1.533810 1_554
O14 Si5 1.405765 1_555
O15 Si4 1.433112 1_555
O16 Si5 1.763855 1_555
O16 Si3 1.772785 1_555
O17 Si5 1.902665 1_555
O17 Si6 2.120723 1_555
O18 Si6 1.516824 1_655
O18 Si7 2.044761 1_555
O19 Si7 1.470448 1_555
O20 Si5 1.615818 1_555
O20 Si7 1.834216 1_555
O21 Si0 1.383821 1_565
