# generated using pymatgen
data_Sr(AlSe2)2
_symmetry_space_group_name_H-M   'P 1'
_cell_length_a   6.33143725
_cell_length_b   6.33143617
_cell_length_c   11.06141225
_cell_angle_alpha   90.00000000
_cell_angle_beta   90.00000000
_cell_angle_gamma   121.19478948
_symmetry_Int_Tables_number   1
_chemical_formula_structural   Sr(AlSe2)2
_chemical_formula_sum   'Sr2 Al4 Se8'
_cell_volume   379.30636880
_cell_formula_units_Z   2
loop_
 _symmetry_equiv_pos_site_id
 _symmetry_equiv_pos_as_xyz
  1  'x, y, z'
loop_
 _atom_site_type_symbol
 _atom_site_label
 _atom_site_symmetry_multiplicity
 _atom_site_fract_x
 _atom_site_fract_y
 _atom_site_fract_z
 _atom_site_occupancy
  Sr  Sr0  1  0.50000000  0.50000000  0.75000000  1
  Sr  Sr1  1  0.50000000  0.50000000  0.25000000  1
  Al  Al0  1  0.24178783  0.76017517  0.50000000  1
  Al  Al1  1  0.75821217  0.23982483  0.50000000  1
  Al  Al2  1  0.76017517  0.24178783  0.00000000  1
  Al  Al3  1  0.23982483  0.75821217  0.00000000  1
  Se  Se0  1  0.00000000  0.50000000  0.83461201  1
  Se  Se1  1  0.00000000  0.50000000  0.16538799  1
  Se  Se2  1  0.50000000  0.00000000  0.33461201  1
  Se  Se3  1  0.65031526  0.82060965  0.00000000  1
  Se  Se4  1  0.34968474  0.17939035  0.00000000  1
  Se  Se5  1  0.82060965  0.65031526  0.50000000  1
  Se  Se6  1  0.17939035  0.34968474  0.50000000  1
  Se  Se7  1  0.50000000  0.00000000  0.66538799  1
loop_
_geom_bond_atom_site_label_1
_geom_bond_atom_site_label_2
_geom_bond_distance
_geom_bond_site_symmetry_2
Al0 Se5 2.381905 1_455
Al0 Se2 2.398678 1_565
Al0 Se7 2.398678 1_565
Al0 Se6 2.418101 1_555
Al1 Se6 2.381905 1_655
Al1 Se2 2.398678 1_555
Al1 Se7 2.398678 1_555
Al1 Se5 2.418101 1_555
Al2 Se3 2.381905 1_545
Al2 Se0 2.398677 1_654
Al2 Se1 2.398677 1_655
Al2 Se4 2.418102 1_555
Al3 Se4 2.381905 1_565
Al3 Se0 2.398677 1_554
Al3 Se1 2.398677 1_555
Al3 Se3 2.418102 1_555
Se0 Sr0 3.301172 1_555
Se0 Sr0 3.301172 1_455
Se1 Sr1 3.301172 1_555
Se1 Sr1 3.301172 1_455
Se2 Sr1 3.301171 1_545
Se2 Sr1 3.301171 1_555
Se3 Sr0 3.266842 1_554
Se3 Sr1 3.266842 1_555
Se4 Sr0 3.266842 1_554
Se4 Sr1 3.266842 1_555
Se5 Sr1 3.266842 1_555
Se5 Sr0 3.266842 1_555
Se6 Sr1 3.266842 1_555
Se6 Sr0 3.266842 1_555
Se7 Sr0 3.301171 1_555
Se7 Sr0 3.301171 1_545
