# generated using pymatgen
data_PrAlO3
_symmetry_space_group_name_H-M   'P 1'
_cell_length_a   5.31593595
_cell_length_b   5.31593982
_cell_length_c   5.31595188
_cell_angle_alpha   59.99999238
_cell_angle_beta   59.99991844
_cell_angle_gamma   60.00005234
_symmetry_Int_Tables_number   1
_chemical_formula_structural   PrAlO3
_chemical_formula_sum   'Pr2 Al2 O6'
_cell_volume   106.22475006
_cell_formula_units_Z   2
loop_
 _symmetry_equiv_pos_site_id
 _symmetry_equiv_pos_as_xyz
  1  'x, y, z'
loop_
 _atom_site_type_symbol
 _atom_site_label
 _atom_site_symmetry_multiplicity
 _atom_site_fract_x
 _atom_site_fract_y
 _atom_site_fract_z
 _atom_site_occupancy
  Pr  Pr0  1  0.25000000  0.25000000  0.25000000  1
  Pr  Pr1  1  0.75000000  0.75000000  0.75000000  1
  Al  Al0  1  0.00000000  -0.00000000  0.00000000  1
  Al  Al1  1  0.50000000  0.50000000  0.50000000  1
  O  O0  1  0.75000000  0.75000000  0.25000000  1
  O  O1  1  0.75000000  0.25000000  0.75000000  1
  O  O2  1  0.25000000  0.75000000  0.75000000  1
  O  O3  1  0.75000000  0.25000000  0.25000000  1
  O  O4  1  0.25000000  0.75000000  0.25000000  1
  O  O5  1  0.25000000  0.25000000  0.75000000  1
loop_
_geom_bond_atom_site_label_1
_geom_bond_atom_site_label_2
_geom_bond_distance
_geom_bond_site_symmetry_2
Al0 O0 1.879466 1_445
Al0 O5 1.879466 1_554
Al0 O3 1.879470 1_455
Al0 O2 1.879470 1_544
Al0 O1 1.879472 1_454
Al0 O4 1.879472 1_545
Al1 O5 1.879466 1_555
Al1 O0 1.879466 1_555
Al1 O3 1.879470 1_555
Al1 O2 1.879470 1_555
Al1 O4 1.879472 1_555
Al1 O1 1.879472 1_555
O0 Pr0 2.657971 1_565
O0 Pr0 2.657971 1_655
O0 Pr1 2.657976 1_555
O0 Pr1 2.657976 1_554
O1 Pr0 2.657969 1_655
O1 Pr0 2.657969 1_556
O1 Pr1 2.657970 1_545
O1 Pr1 2.657970 1_555
O2 Pr1 2.657968 1_555
O2 Pr1 2.657968 1_455
O2 Pr0 2.657973 1_556
O2 Pr0 2.657973 1_565
O3 Pr0 2.657968 1_555
O3 Pr0 2.657968 1_655
O3 Pr1 2.657973 1_545
O3 Pr1 2.657973 1_554
O4 Pr1 2.657969 1_554
O4 Pr1 2.657969 1_455
O4 Pr0 2.657970 1_555
O4 Pr0 2.657970 1_565
O5 Pr1 2.657971 1_455
O5 Pr1 2.657971 1_545
O5 Pr0 2.657976 1_555
O5 Pr0 2.657976 1_556
