# generated using pymatgen
data_Li4V2F9
_symmetry_space_group_name_H-M   'P 1'
_cell_length_a   5.17177875
_cell_length_b   5.17177875
_cell_length_c   13.93739100
_cell_angle_alpha   90.00000000
_cell_angle_beta   90.00000000
_cell_angle_gamma   120.00000963
_symmetry_Int_Tables_number   1
_chemical_formula_structural   Li4V2F9
_chemical_formula_sum   'Li8 V4 F18'
_cell_volume   322.84342699
_cell_formula_units_Z   2
loop_
 _symmetry_equiv_pos_site_id
 _symmetry_equiv_pos_as_xyz
  1  'x, y, z'
loop_
 _atom_site_type_symbol
 _atom_site_label
 _atom_site_symmetry_multiplicity
 _atom_site_fract_x
 _atom_site_fract_y
 _atom_site_fract_z
 _atom_site_occupancy
  Li  Li0  1  0.33333300  0.66666700  0.17835700  1
  Li  Li1  1  0.66666700  0.33333300  0.01893000  1
  Li  Li2  1  0.33333300  0.66666700  0.48107000  1
  Li  Li3  1  0.66666700  0.33333300  0.32164300  1
  Li  Li4  1  0.33333300  0.66666700  0.98107000  1
  Li  Li5  1  0.33333300  0.66666700  0.67835700  1
  Li  Li6  1  0.66666700  0.33333300  0.51893000  1
  Li  Li7  1  0.66666700  0.33333300  0.82164300  1
  V  V0  1  0.00000000  0.00000000  0.15174000  1
  V  V1  1  0.00000000  0.00000000  0.34826000  1
  V  V2  1  0.00000000  0.00000000  0.65174000  1
  V  V3  1  0.00000000  0.00000000  0.84826000  1
  F  F0  1  0.68898900  0.68898900  0.75000000  1
  F  F1  1  0.32803000  0.97650900  0.08463200  1
  F  F2  1  0.67197000  0.64847900  0.41536800  1
  F  F3  1  0.00000000  0.68898900  0.25000000  1
  F  F4  1  0.02349100  0.67197000  0.58463200  1
  F  F5  1  0.97650900  0.64847900  0.91536800  1
  F  F6  1  0.31101100  0.31101100  0.25000000  1
  F  F7  1  0.64847900  0.97650900  0.58463200  1
  F  F8  1  0.35152100  0.32803000  0.91536800  1
  F  F9  1  0.64847900  0.67197000  0.08463200  1
  F  F10  1  0.35152100  0.02349100  0.41536800  1
  F  F11  1  0.31101100  0.00000000  0.75000000  1
  F  F12  1  0.02349100  0.35152100  0.08463200  1
  F  F13  1  0.97650900  0.32803000  0.41536800  1
  F  F14  1  0.00000000  0.31101100  0.75000000  1
  F  F15  1  0.32803000  0.35152100  0.58463200  1
  F  F16  1  0.67197000  0.02349100  0.91536800  1
  F  F17  1  0.68898900  0.00000000  0.25000000  1
loop_
_geom_bond_atom_site_label_1
_geom_bond_atom_site_label_2
_geom_bond_distance
_geom_bond_site_symmetry_2
F0 Li5 2.044826 1_555
F0 Li7 2.044826 1_555
F0 V2 2.112512 1_665
F0 V3 2.112512 1_665
F1 V0 1.993434 1_565
F1 Li1 2.019742 1_565
F1 Li0 2.078189 1_555
F1 Li4 2.166992 1_554
F2 V1 1.993434 1_665
F2 Li2 2.019744 1_555
F2 Li3 2.078193 1_555
F2 Li6 2.166996 1_555
F3 Li0 2.044822 1_555
F3 Li3 2.044824 1_455
F3 V0 2.112512 1_565
F3 V1 2.112512 1_565
F4 V2 1.993434 1_565
F4 Li6 2.019742 1_455
F4 Li5 2.078189 1_555
F4 Li2 2.166992 1_555
F5 V3 1.993434 1_665
F5 Li4 2.019740 1_655
F5 Li7 2.078191 1_555
F5 Li1 2.166994 1_556
F6 Li0 2.044826 1_555
F6 Li3 2.044826 1_555
F6 V0 2.112512 1_555
F6 V1 2.112512 1_555
F7 V2 1.993434 1_665
F7 Li6 2.019740 1_565
F7 Li5 2.078191 1_555
F7 Li2 2.166994 1_555
F8 V3 1.993434 1_555
F8 Li4 2.019744 1_555
F8 Li7 2.078193 1_555
F8 Li1 2.166996 1_556
F9 V0 1.993434 1_665
F9 Li1 2.019744 1_555
F9 Li0 2.078193 1_555
F9 Li4 2.166996 1_554
F10 V1 1.993434 1_555
F10 Li2 2.019740 1_545
F10 Li3 2.078191 1_555
F10 Li6 2.166994 1_555
F11 Li5 2.044822 1_545
F11 Li7 2.044824 1_555
F11 V2 2.112512 1_555
F11 V3 2.112512 1_555
F12 V0 1.993434 1_555
F12 Li1 2.019740 1_455
F12 Li0 2.078191 1_555
F12 Li4 2.166994 1_554
F13 V1 1.993434 1_655
F13 Li2 2.019742 1_655
F13 Li3 2.078189 1_555
F13 Li6 2.166992 1_555
F14 Li7 2.044822 1_455
F14 Li5 2.044824 1_555
F14 V2 2.112512 1_555
F14 V3 2.112512 1_555
F15 V2 1.993434 1_555
F15 Li6 2.019744 1_555
F15 Li5 2.078193 1_555
F15 Li2 2.166996 1_555
F16 V3 1.993434 1_655
F16 Li4 2.019742 1_545
F16 Li7 2.078189 1_555
F16 Li1 2.166992 1_556
F17 Li3 2.044822 1_555
F17 Li0 2.044824 1_545
F17 V0 2.112512 1_655
F17 V1 2.112512 1_655
