# generated using pymatgen
data_SrSiPd
_symmetry_space_group_name_H-M   'P 1'
_cell_length_a   6.53117499
_cell_length_b   6.53117499
_cell_length_c   6.53117499
_cell_angle_alpha   90.00000000
_cell_angle_beta   90.00000000
_cell_angle_gamma   90.00000000
_symmetry_Int_Tables_number   1
_chemical_formula_structural   SrSiPd
_chemical_formula_sum   'Sr4 Si4 Pd4'
_cell_volume   278.59541194
_cell_formula_units_Z   4
loop_
 _symmetry_equiv_pos_site_id
 _symmetry_equiv_pos_as_xyz
  1  'x, y, z'
loop_
 _atom_site_type_symbol
 _atom_site_label
 _atom_site_symmetry_multiplicity
 _atom_site_fract_x
 _atom_site_fract_y
 _atom_site_fract_z
 _atom_site_occupancy
  Sr  Sr0  1  0.62940082  0.37059918  0.87059918  1
  Sr  Sr1  1  0.37059918  0.87059918  0.62940082  1
  Sr  Sr2  1  0.12940082  0.12940082  0.12940082  1
  Sr  Sr3  1  0.87059918  0.62940082  0.37059918  1
  Si  Si0  1  0.16139437  0.33860563  0.66139437  1
  Si  Si1  1  0.66139437  0.16139437  0.33860563  1
  Si  Si2  1  0.33860563  0.66139437  0.16139437  1
  Si  Si3  1  0.83860563  0.83860563  0.83860563  1
  Pd  Pd0  1  0.58951051  0.91048949  0.08951051  1
  Pd  Pd1  1  0.08951051  0.58951051  0.91048949  1
  Pd  Pd2  1  0.41048949  0.41048949  0.41048949  1
  Pd  Pd3  1  0.91048949  0.08951051  0.58951051  1
loop_
_geom_bond_atom_site_label_1
_geom_bond_atom_site_label_2
_geom_bond_distance
_geom_bond_site_symmetry_2
Si0 Sr3 3.289570 1_455
Si0 Sr1 3.354636 1_545
Si0 Sr0 3.354636 1_555
Si0 Sr2 3.354636 1_556
Si1 Sr1 3.289570 1_545
Si1 Sr2 3.354636 1_655
Si1 Sr3 3.354636 1_555
Si1 Sr0 3.354636 1_554
Si2 Sr0 3.289570 1_554
Si2 Sr3 3.354636 1_455
Si2 Sr2 3.354636 1_565
Si2 Sr1 3.354636 1_555
Si3 Sr2 3.289570 1_666
Si3 Sr1 3.354636 1_555
Si3 Sr0 3.354636 1_555
Si3 Sr3 3.354636 1_555
Pd0 Si2 2.356378 1_555
Pd0 Si1 2.356378 1_565
Pd0 Si3 2.356378 1_554
Pd0 Sr3 3.179767 1_555
Pd0 Sr0 3.338027 1_564
Pd0 Sr2 3.338027 1_565
Pd0 Sr1 3.338027 1_554
Pd1 Si3 2.356378 1_455
Pd1 Si0 2.356378 1_555
Pd1 Si2 2.356378 1_556
Pd1 Sr1 3.179767 1_555
Pd1 Sr3 3.338027 1_456
Pd1 Sr2 3.338027 1_556
Pd1 Sr0 3.338027 1_455
Pd2 Si1 2.356378 1_555
Pd2 Si0 2.356378 1_555
Pd2 Si2 2.356378 1_555
Pd2 Sr2 3.179767 1_555
Pd2 Sr0 3.338027 1_555
Pd2 Sr1 3.338027 1_555
Pd2 Sr3 3.338027 1_555
Pd3 Si0 2.356378 1_655
Pd3 Si3 2.356378 1_545
Pd3 Si1 2.356378 1_555
Pd3 Sr0 3.179767 1_555
Pd3 Sr1 3.338027 1_645
Pd3 Sr3 3.338027 1_545
Pd3 Sr2 3.338027 1_655
