# generated using pymatgen
data_Mg2PtRh
_symmetry_space_group_name_H-M   'P 1'
_cell_length_a   4.38620953
_cell_length_b   4.38620953
_cell_length_c   4.38620953
_cell_angle_alpha   60.00000000
_cell_angle_beta   60.00000000
_cell_angle_gamma   60.00000000
_symmetry_Int_Tables_number   1
_chemical_formula_structural   Mg2PtRh
_chemical_formula_sum   'Mg2 Pt1 Rh1'
_cell_volume   59.66959961
_cell_formula_units_Z   1
loop_
 _symmetry_equiv_pos_site_id
 _symmetry_equiv_pos_as_xyz
  1  'x, y, z'
loop_
 _atom_site_type_symbol
 _atom_site_label
 _atom_site_symmetry_multiplicity
 _atom_site_fract_x
 _atom_site_fract_y
 _atom_site_fract_z
 _atom_site_occupancy
  Mg  Mg0  1  0.50000000  0.50000000  0.50000000  1
  Mg  Mg1  1  0.00000000  0.00000000  0.00000000  1
  Pt  Pt0  1  0.25000100  0.25000100  0.25000100  1
  Rh  Rh0  1  0.75000100  0.75000100  0.75000100  1
loop_
_geom_bond_atom_site_label_1
_geom_bond_atom_site_label_2
_geom_bond_distance
_geom_bond_site_symmetry_2
Mg0 Pt0 2.685983 1_555
Mg0 Rh0 2.685990 1_554
Mg0 Rh0 2.685990 1_545
Mg0 Rh0 2.685990 1_455
Mg0 Pt0 2.685997 1_556
Mg0 Pt0 2.685997 1_655
Mg0 Pt0 2.685997 1_565
Mg0 Rh0 2.686005 1_555
Mg1 Rh0 2.685983 1_444
Mg1 Pt0 2.685990 1_554
Mg1 Pt0 2.685990 1_545
Mg1 Pt0 2.685990 1_455
Mg1 Rh0 2.685997 1_454
Mg1 Rh0 2.685997 1_544
Mg1 Rh0 2.685997 1_445
Mg1 Pt0 2.686005 1_555
