# generated using pymatgen
data_CaP3H16(NO4)3
_symmetry_space_group_name_H-M   'P 1'
_cell_length_a   18.87068700
_cell_length_b   7.00428700
_cell_length_c   11.70302229
_cell_angle_alpha   65.87054926
_cell_angle_beta   90.00000000
_cell_angle_gamma   90.00000000
_symmetry_Int_Tables_number   1
_chemical_formula_structural   CaP3H16(NO4)3
_chemical_formula_sum   'Ca4 P12 H64 N12 O48'
_cell_volume   1411.69749054
_cell_formula_units_Z   4
loop_
 _symmetry_equiv_pos_site_id
 _symmetry_equiv_pos_as_xyz
  1  'x, y, z'
loop_
 _atom_site_type_symbol
 _atom_site_label
 _atom_site_symmetry_multiplicity
 _atom_site_fract_x
 _atom_site_fract_y
 _atom_site_fract_z
 _atom_site_occupancy
  Ca  Ca0  1  0.31781700  0.59135700  0.50850500  1
  Ca  Ca1  1  0.81781700  0.40864300  0.99149500  1
  Ca  Ca2  1  0.18218300  0.59135700  0.00850500  1
  Ca  Ca3  1  0.68218300  0.40864300  0.49149500  1
  P  P0  1  0.82277500  0.37952100  0.70349900  1
  P  P1  1  0.96595000  0.44385200  0.78384100  1
  P  P2  1  0.46595000  0.55614800  0.71615900  1
  P  P3  1  0.20936000  0.02922800  0.08434900  1
  P  P4  1  0.32277500  0.62047900  0.79650100  1
  P  P5  1  0.70936000  0.97077200  0.41565100  1
  P  P6  1  0.29064000  0.02922800  0.58434900  1
  P  P7  1  0.67722500  0.37952100  0.20349900  1
  P  P8  1  0.79064000  0.97077200  0.91565100  1
  P  P9  1  0.53405000  0.44385200  0.28384100  1
  P  P10  1  0.03405000  0.55614800  0.21615900  1
  P  P11  1  0.17722500  0.62047900  0.29650100  1
  H  H0  1  0.36675100  0.15216600  0.85044300  1
  H  H1  1  0.58898200  0.30330400  0.73548500  1
  H  H2  1  0.10299300  0.29329600  0.74702800  1
  H  H3  1  0.18682400  0.40126500  0.73630100  1
  H  H4  1  0.82906900  0.84619200  0.16283300  1
  H  H5  1  0.33667400  0.82109300  0.22984700  1
  H  H6  1  0.82489300  0.78879000  0.31629000  1
  H  H7  1  0.51443200  0.79445900  0.32378900  1
  H  H8  1  0.34040100  0.03369500  0.00277700  1
  H  H9  1  0.97597400  0.76562000  0.43155700  1
  H  H10  1  0.58619400  0.05906300  0.05480500  1
  H  H11  1  0.48804300  0.76818100  0.46724700  1
  H  H12  1  0.00992200  0.98728400  0.14382700  1
  H  H13  1  0.57448600  0.82542900  0.42124600  1
  H  H14  1  0.68682400  0.59873500  0.76369900  1
  H  H15  1  0.67046000  0.08638100  0.09378200  1
  H  H16  1  0.50363100  0.25610600  0.93464500  1
  H  H17  1  0.00363100  0.74389400  0.56535500  1
  H  H18  1  0.17046000  0.91361900  0.40621800  1
  H  H19  1  0.60299300  0.70670400  0.75297200  1
  H  H20  1  0.08898200  0.69669600  0.76451500  1
  H  H21  1  0.07448600  0.17457100  0.07875400  1
  H  H22  1  0.50992200  0.01271600  0.35617300  1
  H  H23  1  0.98804300  0.23181900  0.03275300  1
  H  H24  1  0.08619400  0.94093700  0.44519500  1
  H  H25  1  0.86675100  0.84783400  0.64955700  1
  H  H26  1  0.47597400  0.23438000  0.06844300  1
  H  H27  1  0.67093100  0.84619200  0.66283300  1
  H  H28  1  0.84040100  0.96630500  0.49722300  1
  H  H29  1  0.16332600  0.82109300  0.72984700  1
  H  H30  1  0.67510700  0.78879000  0.81629000  1
  H  H31  1  0.01443200  0.20554100  0.17621100  1
  H  H32  1  0.98556800  0.79445900  0.82378900  1
  H  H33  1  0.32489300  0.21121000  0.18371000  1
  H  H34  1  0.83667400  0.17890700  0.27015300  1
  H  H35  1  0.15959900  0.03369500  0.50277700  1
  H  H36  1  0.32906900  0.15380800  0.33716700  1
  H  H37  1  0.52402600  0.76562000  0.93155700  1
  H  H38  1  0.13324900  0.15216600  0.35044300  1
  H  H39  1  0.91380600  0.05906300  0.55480500  1
  H  H40  1  0.01195700  0.76818100  0.96724700  1
  H  H41  1  0.49007800  0.98728400  0.64382700  1
  H  H42  1  0.92551400  0.82542900  0.92124600  1
  H  H43  1  0.91101800  0.30330400  0.23548500  1
  H  H44  1  0.39700700  0.29329600  0.24702800  1
  H  H45  1  0.82954000  0.08638100  0.59378200  1
  H  H46  1  0.99636900  0.25610600  0.43464500  1
  H  H47  1  0.49636900  0.74389400  0.06535500  1
  H  H48  1  0.32954000  0.91361900  0.90621800  1
  H  H49  1  0.31317600  0.40126500  0.23630100  1
  H  H50  1  0.42551400  0.17457100  0.57875400  1
  H  H51  1  0.99007800  0.01271600  0.85617300  1
  H  H52  1  0.51195700  0.23181900  0.53275300  1
  H  H53  1  0.41380600  0.94093700  0.94519500  1
  H  H54  1  0.02402600  0.23438000  0.56844300  1
  H  H55  1  0.65959900  0.96630500  0.99722300  1
  H  H56  1  0.48556800  0.20554100  0.67621100  1
  H  H57  1  0.17510700  0.21121000  0.68371000  1
  H  H58  1  0.66332600  0.17890700  0.77015300  1
  H  H59  1  0.17093100  0.15380800  0.83716700  1
  H  H60  1  0.81317600  0.59873500  0.26369900  1
  H  H61  1  0.89700700  0.70670400  0.25297200  1
  H  H62  1  0.41101800  0.69669600  0.26451500  1
  H  H63  1  0.63324900  0.84783400  0.14955700  1
  N  N0  1  0.15823800  0.26865600  0.74858900  1
  N  N1  1  0.63686100  0.98760800  0.07377900  1
  N  N2  1  0.52174800  0.85185700  0.39269300  1
  N  N3  1  0.02174800  0.14814300  0.10730700  1
  N  N4  1  0.65823800  0.73134400  0.75141100  1
  N  N5  1  0.13686100  0.01239200  0.42622100  1
  N  N6  1  0.86313900  0.98760800  0.57377900  1
  N  N7  1  0.34176200  0.26865600  0.24858900  1
  N  N8  1  0.97825200  0.85185700  0.89269300  1
  N  N9  1  0.47825200  0.14814300  0.60730700  1
  N  N10  1  0.36313900  0.01239200  0.92622100  1
  N  N11  1  0.84176200  0.73134400  0.25141100  1
  O  O0  1  0.01525800  0.27200700  0.78387600  1
  O  O1  1  0.50010300  0.33691900  0.77244400  1
  O  O2  1  0.20502700  0.59818000  0.42222600  1
  O  O3  1  0.36419000  0.71247500  0.29834500  1
  O  O4  1  0.90260600  0.46703500  0.67999800  1
  O  O5  1  0.42938200  0.60692600  0.59056100  1
  O  O6  1  0.78332900  0.47946300  0.77739200  1
  O  O7  1  0.28332900  0.52053700  0.72260800  1
  O  O8  1  0.16720700  0.86835200  0.21251200  1
  O  O9  1  0.92938200  0.39307400  0.90943900  1
  O  O10  1  0.67004500  0.76589000  0.44398500  1
  O  O11  1  0.80031200  0.05646500  0.01547300  1
  O  O12  1  0.40260600  0.53296500  0.82000200  1
  O  O13  1  0.28782600  0.03290100  0.12082100  1
  O  O14  1  0.00010300  0.66308100  0.72755600  1
  O  O15  1  0.51474600  0.20098800  0.02536100  1
  O  O16  1  0.01474600  0.79901200  0.47463900  1
  O  O17  1  0.51525800  0.72799300  0.71612400  1
  O  O18  1  0.29497300  0.59818000  0.92222600  1
  O  O19  1  0.78782600  0.96709900  0.37917900  1
  O  O20  1  0.13581000  0.71247500  0.79834500  1
  O  O21  1  0.30031200  0.94353500  0.48452700  1
  O  O22  1  0.17004500  0.23411000  0.05601500  1
  O  O23  1  0.66720700  0.13164800  0.28748800  1
  O  O24  1  0.33279300  0.86835200  0.71251200  1
  O  O25  1  0.82995500  0.76589000  0.94398500  1
  O  O26  1  0.69968800  0.05646500  0.51547300  1
  O  O27  1  0.86419000  0.28752500  0.20165500  1
  O  O28  1  0.21217400  0.03290100  0.62082100  1
  O  O29  1  0.70502700  0.40182000  0.07777400  1
  O  O30  1  0.48474200  0.27200700  0.28387600  1
  O  O31  1  0.98525400  0.20098800  0.52536100  1
  O  O32  1  0.48525400  0.79901200  0.97463900  1
  O  O33  1  0.99989700  0.33691900  0.27244400  1
  O  O34  1  0.71217400  0.96709900  0.87917900  1
  O  O35  1  0.59739400  0.46703500  0.17999800  1
  O  O36  1  0.19968800  0.94353500  0.98452700  1
  O  O37  1  0.32995500  0.23411000  0.55601500  1
  O  O38  1  0.07061800  0.60692600  0.09056100  1
  O  O39  1  0.83279300  0.13164800  0.78748800  1
  O  O40  1  0.71667100  0.47946300  0.27739200  1
  O  O41  1  0.21667100  0.52053700  0.22260800  1
  O  O42  1  0.57061800  0.39307400  0.40943900  1
  O  O43  1  0.09739400  0.53296500  0.32000200  1
  O  O44  1  0.63581000  0.28752500  0.70165500  1
  O  O45  1  0.79497300  0.40182000  0.57777400  1
  O  O46  1  0.49989700  0.66308100  0.22755600  1
  O  O47  1  0.98474200  0.72799300  0.21612400  1
loop_
_geom_bond_atom_site_label_1
_geom_bond_atom_site_label_2
_geom_bond_distance
_geom_bond_site_symmetry_2
Ca0 O5 2.334955 1_555
Ca0 O37 2.342095 1_555
Ca0 O2 2.347886 1_555
Ca0 O21 2.388891 1_555
Ca0 O3 2.414274 1_555
Ca0 O7 2.435509 1_555
Ca1 O9 2.334955 1_555
Ca1 O25 2.342095 1_555
Ca1 O29 2.347886 1_556
Ca1 O11 2.388891 1_556
Ca1 O27 2.414274 1_556
Ca1 O6 2.435509 1_555
Ca2 O38 2.334955 1_555
Ca2 O22 2.342095 1_555
Ca2 O18 2.347886 1_554
Ca2 O36 2.388891 1_554
Ca2 O20 2.414274 1_554
Ca2 O41 2.435509 1_555
Ca3 O42 2.334955 1_555
Ca3 O10 2.342095 1_555
Ca3 O45 2.347886 1_555
Ca3 O26 2.388891 1_555
Ca3 O44 2.414274 1_555
Ca3 O40 2.435509 1_555
H0 N10 1.019673 1_555
H1 O44 0.992785 1_555
H2 N0 1.055638 1_555
H2 O0 1.701969 1_555
H3 N0 1.032082 1_555
H4 N11 1.047515 1_555
H5 O3 0.996194 1_555
H6 N11 1.043803 1_555
H7 N2 1.046903 1_555
H8 N10 1.057534 1_554
H9 O16 0.969867 1_655
H10 N1 1.059765 1_545
H10 O15 1.626258 1_555
H11 N2 1.044614 1_555
H12 N3 1.052718 1_565
H12 O47 1.727340 1_455
H13 N2 1.042008 1_555
H14 N4 1.032082 1_555
H15 N1 1.033369 1_545
H16 O15 0.992491 1_556
H17 O16 0.992491 1_555
H18 N5 1.033369 1_565
H19 N4 1.055638 1_555
H19 O17 1.701969 1_555
H20 O20 0.992785 1_555
H21 N3 1.042008 1_555
H22 N2 1.052718 1_545
H22 O30 1.727340 1_555
H23 N3 1.044614 1_655
H24 N5 1.059765 1_565
H24 O16 1.626258 1_555
H25 N6 1.019673 1_555
H26 O15 0.969867 1_555
H27 N4 1.047515 1_555
H28 N6 1.057534 1_555
H29 O20 0.996194 1_555
H30 N4 1.043803 1_555
H31 N3 1.046903 1_555
H32 N8 1.046903 1_555
H33 N7 1.043803 1_555
H34 O27 0.996194 1_555
H35 N5 1.057534 1_555
H36 N7 1.047515 1_555
H37 O32 0.969867 1_555
H38 N5 1.019673 1_555
H39 N6 1.059765 1_545
H39 O31 1.626258 1_555
H40 N8 1.044614 1_455
H41 N9 1.052718 1_565
H41 O17 1.727340 1_555
H42 N8 1.042008 1_555
H43 O27 0.992785 1_555
H44 N7 1.055638 1_555
H44 O30 1.701969 1_555
H45 N6 1.033369 1_545
H46 O31 0.992491 1_555
H47 O32 0.992491 1_554
H48 N10 1.033369 1_565
H49 N7 1.032082 1_555
H50 N9 1.042008 1_555
H51 N8 1.052718 1_545
H51 O0 1.727340 1_655
H52 N9 1.044614 1_555
H53 N10 1.059765 1_565
H53 O32 1.626258 1_555
H54 O31 0.969867 1_455
H55 N1 1.057534 1_556
H56 N9 1.046903 1_555
H57 N0 1.043803 1_555
H58 O44 0.996194 1_555
H59 N0 1.047515 1_555
H60 N11 1.032082 1_555
H61 N11 1.055638 1_555
H61 O47 1.701969 1_555
H62 O3 0.992785 1_555
H63 N1 1.019673 1_555
O0 P1 1.521236 1_455
O1 P2 1.542782 1_555
O2 P11 1.508861 1_555
O4 P0 1.607166 1_555
O4 P1 1.664564 1_555
O5 P2 1.528331 1_555
O6 P0 1.512248 1_555
O7 P4 1.512248 1_555
O8 P11 1.618926 1_555
O8 P3 1.664429 1_565
O9 P1 1.528331 1_555
O10 P5 1.526659 1_555
O11 P8 1.526958 1_544
O12 P4 1.607166 1_555
O12 P2 1.664564 1_555
O13 P3 1.544124 1_555
O14 P1 1.542782 1_455
O17 P2 1.521236 1_555
O18 P4 1.508861 1_555
O19 P5 1.544124 1_555
O21 P6 1.526958 1_565
O22 P3 1.526659 1_555
O23 P7 1.618926 1_555
O23 P5 1.664429 1_545
O24 P4 1.618926 1_555
O24 P6 1.664429 1_565
O25 P8 1.526659 1_555
O26 P5 1.526958 1_545
O28 P6 1.544124 1_555
O29 P7 1.508861 1_555
O30 P9 1.521236 1_555
O33 P10 1.542782 1_655
O34 P8 1.544124 1_555
O35 P7 1.607166 1_555
O35 P9 1.664564 1_555
O36 P3 1.526958 1_566
O37 P6 1.526659 1_555
O38 P10 1.528331 1_555
O39 P0 1.618926 1_555
O39 P8 1.664429 1_545
O40 P7 1.512248 1_555
O41 P11 1.512248 1_555
O42 P9 1.528331 1_555
O43 P11 1.607166 1_555
O43 P10 1.664564 1_555
O45 P0 1.508861 1_555
O46 P9 1.542782 1_555
O47 P10 1.521236 1_655
