# generated using pymatgen
data_Ho2RuRh
_symmetry_space_group_name_H-M   'P 1'
_cell_length_a   4.76736602
_cell_length_b   4.76736603
_cell_length_c   4.76736598
_cell_angle_alpha   59.99997763
_cell_angle_beta   59.99997777
_cell_angle_gamma   59.99997728
_symmetry_Int_Tables_number   1
_chemical_formula_structural   Ho2RuRh
_chemical_formula_sum   'Ho2 Ru1 Rh1'
_cell_volume   76.61614004
_cell_formula_units_Z   1
loop_
 _symmetry_equiv_pos_site_id
 _symmetry_equiv_pos_as_xyz
  1  'x, y, z'
loop_
 _atom_site_type_symbol
 _atom_site_label
 _atom_site_symmetry_multiplicity
 _atom_site_fract_x
 _atom_site_fract_y
 _atom_site_fract_z
 _atom_site_occupancy
  Ho  Ho0  1  0.50000076  0.50000076  0.50000076  1
  Ho  Ho1  1  0.00000002  0.00000001  0.00000001  1
  Ru  Ru0  1  0.74999921  0.74999922  0.74999922  1
  Rh  Rh0  1  0.25000001  0.25000001  0.25000001  1
loop_
_geom_bond_atom_site_label_1
_geom_bond_atom_site_label_2
_geom_bond_distance
_geom_bond_site_symmetry_2
Ho0 Ru0 2.919386 1_555
Ho0 Rh0 2.919400 1_556
Ho0 Rh0 2.919400 1_565
Ho0 Rh0 2.919400 1_655
Ho0 Ru0 2.919409 1_554
Ho0 Ru0 2.919409 1_545
Ho0 Ru0 2.919409 1_455
Ho0 Rh0 2.919413 1_555
Ho1 Ru0 2.919400 1_544
Ho1 Ru0 2.919400 1_445
Ho1 Ru0 2.919400 1_454
Ho1 Rh0 2.919403 1_554
Ho1 Rh0 2.919403 1_545
Ho1 Rh0 2.919403 1_455
Ho1 Rh0 2.919404 1_555
Ho1 Ru0 2.919413 1_444
