# generated using pymatgen
data_Lu2MgRu
_symmetry_space_group_name_H-M   'P 1'
_cell_length_a   4.88968868
_cell_length_b   4.88968868
_cell_length_c   4.88968868
_cell_angle_alpha   60.00000000
_cell_angle_beta   60.00000000
_cell_angle_gamma   60.00000000
_symmetry_Int_Tables_number   1
_chemical_formula_structural   Lu2MgRu
_chemical_formula_sum   'Lu2 Mg1 Ru1'
_cell_volume   82.66632440
_cell_formula_units_Z   1
loop_
 _symmetry_equiv_pos_site_id
 _symmetry_equiv_pos_as_xyz
  1  'x, y, z'
loop_
 _atom_site_type_symbol
 _atom_site_label
 _atom_site_symmetry_multiplicity
 _atom_site_fract_x
 _atom_site_fract_y
 _atom_site_fract_z
 _atom_site_occupancy
  Lu  Lu0  1  -0.00000000  -0.00000000  0.00000000  1
  Lu  Lu1  1  0.49999900  0.49999900  0.49999900  1
  Mg  Mg0  1  0.25000000  0.25000000  0.25000000  1
  Ru  Ru0  1  0.75000000  0.75000000  0.75000000  1
loop_
_geom_bond_atom_site_label_1
_geom_bond_atom_site_label_2
_geom_bond_distance
_geom_bond_site_symmetry_2
Lu0 Mg0 2.994311 1_455
Lu0 Ru0 2.994311 1_454
Lu0 Ru0 2.994311 1_544
Lu0 Mg0 2.994311 1_545
Lu0 Ru0 2.994311 1_445
Lu0 Mg0 2.994311 1_554
Lu0 Ru0 2.994311 1_444
Lu0 Mg0 2.994311 1_555
Lu1 Mg0 2.994299 1_555
Lu1 Ru0 2.994307 1_554
Lu1 Ru0 2.994307 1_455
Lu1 Ru0 2.994307 1_545
Lu1 Mg0 2.994315 1_565
Lu1 Mg0 2.994315 1_655
Lu1 Mg0 2.994315 1_556
Lu1 Ru0 2.994323 1_555
Mg0 Ru0 3.457532 1_445
Mg0 Ru0 3.457532 1_544
Mg0 Ru0 3.457532 1_554
Mg0 Ru0 3.457532 1_545
Mg0 Ru0 3.457532 1_455
Mg0 Ru0 3.457532 1_454
