# generated using pymatgen
data_Na(FeO2)2
_symmetry_space_group_name_H-M   'P 1'
_cell_length_a   5.11409900
_cell_length_b   5.89984421
_cell_length_c   11.50133011
_cell_angle_alpha   90.13426322
_cell_angle_beta   90.05069343
_cell_angle_gamma   90.07617629
_symmetry_Int_Tables_number   1
_chemical_formula_structural   Na(FeO2)2
_chemical_formula_sum   'Na4 Fe8 O16'
_cell_volume   347.02119143
_cell_formula_units_Z   4
loop_
 _symmetry_equiv_pos_site_id
 _symmetry_equiv_pos_as_xyz
  1  'x, y, z'
loop_
 _atom_site_type_symbol
 _atom_site_label
 _atom_site_symmetry_multiplicity
 _atom_site_fract_x
 _atom_site_fract_y
 _atom_site_fract_z
 _atom_site_occupancy
  Na  Na0  1  0.96740200  0.75055600  0.74951600  1
  Na  Na1  1  0.64293300  0.75129000  0.25067600  1
  Na  Na2  1  0.35670100  0.24836400  0.75004600  1
  Na  Na3  1  0.02841300  0.24987100  0.25031000  1
  Fe  Fe0  1  0.99807100  0.25269800  0.99570100  1
  Fe  Fe1  1  0.00265500  0.75147100  0.00657400  1
  Fe  Fe2  1  0.99790900  0.24958300  0.50709300  1
  Fe  Fe3  1  0.00216100  0.75034300  0.49329400  1
  Fe  Fe4  1  0.49994800  0.49757800  0.99972200  1
  Fe  Fe5  1  0.50078500  0.99905200  0.99890400  1
  Fe  Fe6  1  0.50000100  0.99972600  0.50004300  1
  Fe  Fe7  1  0.49993000  0.50039700  0.49997900  1
  O  O0  1  0.82088200  0.00328500  0.40821800  1
  O  O1  1  0.84427400  0.01586000  0.09211100  1
  O  O2  1  0.83704300  0.49874800  0.40488800  1
  O  O3  1  0.82693300  0.48914000  0.08968500  1
  O  O4  1  0.66487200  0.26146200  0.91141700  1
  O  O5  1  0.65567600  0.23477900  0.59061500  1
  O  O6  1  0.66783400  0.73983800  0.91247200  1
  O  O7  1  0.66839000  0.76161200  0.58752600  1
  O  O8  1  0.33072800  0.23868100  0.41280100  1
  O  O9  1  0.31957400  0.25771500  0.08488300  1
  O  O10  1  0.34445800  0.76563000  0.40911800  1
  O  O11  1  0.34976000  0.73641400  0.09027000  1
  O  O12  1  0.17922400  0.99602000  0.59191700  1
  O  O13  1  0.16280600  0.50210300  0.59519400  1
  O  O14  1  0.15744000  0.00919000  0.90721600  1
  O  O15  1  0.17319800  0.48859300  0.90981200  1
loop_
_geom_bond_atom_site_label_1
_geom_bond_atom_site_label_2
_geom_bond_distance
_geom_bond_site_symmetry_2
Na0 O7 2.410306 1_555
Na0 O6 2.422629 1_555
Na0 O13 2.508474 1_655
Na0 O14 2.557851 1_665
Na0 O12 2.562790 1_655
Na0 O15 2.628601 1_655
Na1 O11 2.377654 1_555
Na1 O10 2.379589 1_555
Na1 O0 2.510489 1_565
Na1 O2 2.522784 1_555
Na1 O3 2.588353 1_555
Na1 O1 2.614386 1_565
Na2 O5 2.389805 1_555
Na2 O4 2.434809 1_555
Na2 O15 2.502067 1_555
Na2 O14 2.511704 1_555
Na2 O12 2.515699 1_545
Na2 O13 2.531725 1_555
Na3 O9 2.417558 1_555
Na3 O8 2.425504 1_555
Na3 O1 2.466831 1_455
Na3 O2 2.503849 1_455
Na3 O3 2.545598 1_455
Na3 O0 2.559888 1_455
Fe0 O15 1.928626 1_655
Fe0 O9 1.937290 1_656
Fe0 O14 1.939509 1_655
Fe0 O1 1.951030 1_556
Fe0 O4 1.960503 1_555
Fe0 O3 1.969324 1_556
Fe1 O1 2.013610 1_465
Fe1 O11 2.020742 1_555
Fe1 O6 2.025867 1_454
Fe1 O3 2.030142 1_455
Fe1 O14 2.061784 1_564
Fe1 O15 2.098059 1_554
Fe2 O13 1.986341 1_655
Fe2 O5 1.999154 1_555
Fe2 O12 2.014567 1_645
Fe2 O8 2.020028 1_655
Fe2 O0 2.052153 1_555
Fe2 O2 2.056502 1_555
Fe3 O2 1.984527 1_455
Fe3 O10 2.003198 1_555
Fe3 O0 2.013168 1_465
Fe3 O7 2.023834 1_455
Fe3 O12 2.048048 1_555
Fe3 O13 2.050129 1_555
Fe4 O11 1.912451 1_556
Fe4 O4 1.918716 1_555
Fe4 O6 1.947315 1_555
Fe4 O9 1.953856 1_556
Fe4 O15 1.964927 1_555
Fe4 O3 1.966427 1_556
Fe5 O6 2.013633 1_555
Fe5 O11 2.026743 1_556
Fe5 O4 2.029496 1_565
Fe5 O9 2.040564 1_566
Fe5 O14 2.048439 1_565
Fe5 O1 2.059249 1_566
Fe6 O10 1.903347 1_555
Fe6 O5 1.905504 1_565
Fe6 O7 1.932833 1_555
Fe6 O8 1.937028 1_565
Fe6 O12 1.952257 1_555
Fe6 O0 1.952390 1_565
Fe7 O7 2.029487 1_555
Fe7 O8 2.031245 1_555
Fe7 O2 2.042504 1_555
Fe7 O13 2.043318 1_555
Fe7 O10 2.045106 1_555
Fe7 O5 2.046071 1_555
