# generated using pymatgen
data_CaSnS3
_symmetry_space_group_name_H-M   'P 1'
_cell_length_a   8.11191200
_cell_length_b   7.87428100
_cell_length_c   8.69437271
_cell_angle_alpha   64.97509843
_cell_angle_beta   90.00000000
_cell_angle_gamma   90.00000000
_symmetry_Int_Tables_number   1
_chemical_formula_structural   CaSnS3
_chemical_formula_sum   'Ca4 Sn4 S12'
_cell_volume   503.22248597
_cell_formula_units_Z   4
loop_
 _symmetry_equiv_pos_site_id
 _symmetry_equiv_pos_as_xyz
  1  'x, y, z'
loop_
 _atom_site_type_symbol
 _atom_site_label
 _atom_site_symmetry_multiplicity
 _atom_site_fract_x
 _atom_site_fract_y
 _atom_site_fract_z
 _atom_site_occupancy
  Ca  Ca0  1  0.09736400  0.88060200  0.35676000  1
  Ca  Ca1  1  0.59736400  0.11939800  0.14324000  1
  Ca  Ca2  1  0.90263600  0.11939800  0.64324000  1
  Ca  Ca3  1  0.40263600  0.88060200  0.85676000  1
  Sn  Sn0  1  0.32436300  0.38867600  0.45034800  1
  Sn  Sn1  1  0.82436300  0.61132400  0.04965200  1
  Sn  Sn2  1  0.67563700  0.61132400  0.54965200  1
  Sn  Sn3  1  0.17563700  0.38867600  0.95034800  1
  S  S0  1  0.56824400  0.26970900  0.63087700  1
  S  S1  1  0.06824400  0.73029100  0.86912300  1
  S  S2  1  0.43175600  0.73029100  0.36912300  1
  S  S3  1  0.93175600  0.26970900  0.13087700  1
  S  S4  1  0.38720600  0.46260000  0.14192100  1
  S  S5  1  0.88720600  0.53740000  0.35807900  1
  S  S6  1  0.61279400  0.53740000  0.85807900  1
  S  S7  1  0.11279400  0.46260000  0.64192100  1
  S  S8  1  0.27937900  0.06442600  0.04611000  1
  S  S9  1  0.77937900  0.93557400  0.45389000  1
  S  S10  1  0.72062100  0.93557400  0.95389000  1
  S  S11  1  0.22062100  0.06442600  0.54611000  1
loop_
_geom_bond_atom_site_label_1
_geom_bond_atom_site_label_2
_geom_bond_distance
_geom_bond_site_symmetry_2
Ca0 S11 2.796637 1_565
Ca0 S9 2.804182 1_455
Ca0 S8 2.874470 1_565
Ca0 S2 2.943260 1_555
Ca0 S3 3.155724 1_465
Ca0 S7 3.176842 1_555
Ca0 S5 3.191165 1_455
Ca1 S10 2.796637 1_544
Ca1 S8 2.804182 1_555
Ca1 S9 2.874470 1_545
Ca1 S3 2.943260 1_555
Ca1 S2 3.155724 1_545
Ca1 S6 3.176842 1_554
Ca1 S4 3.191165 1_555
Ca2 S9 2.796637 1_545
Ca2 S11 2.804182 1_655
Ca2 S10 2.874470 1_545
Ca2 S0 2.943260 1_555
Ca2 S1 3.155724 1_645
Ca2 S5 3.176842 1_555
Ca2 S7 3.191165 1_655
Ca3 S8 2.796637 1_566
Ca3 S10 2.804182 1_555
Ca3 S11 2.874470 1_565
Ca3 S1 2.943260 1_555
Ca3 S0 3.155724 1_565
Ca3 S4 3.176842 1_556
Ca3 S6 3.191165 1_555
S0 Sn0 2.451741 1_555
S0 Sn2 2.624202 1_555
S1 Sn1 2.451741 1_456
S1 Sn3 2.624202 1_555
S2 Sn2 2.451741 1_555
S2 Sn0 2.624202 1_555
S3 Sn3 2.451741 1_654
S3 Sn1 2.624202 1_555
S4 Sn0 2.543420 1_555
S4 Sn3 2.622744 1_554
S5 Sn1 2.543420 1_555
S5 Sn2 2.622744 1_555
S6 Sn2 2.543420 1_555
S6 Sn1 2.622744 1_556
S7 Sn3 2.543420 1_555
S7 Sn0 2.622744 1_555
S8 Sn3 2.474256 1_554
S9 Sn2 2.474256 1_555
S10 Sn1 2.474256 1_556
S11 Sn0 2.474256 1_555
