# generated using pymatgen
data_V2(OF)3
_symmetry_space_group_name_H-M   'P 1'
_cell_length_a   5.13900261
_cell_length_b   5.15464938
_cell_length_c   13.02251782
_cell_angle_alpha   89.82348698
_cell_angle_beta   91.11234859
_cell_angle_gamma   120.09788508
_symmetry_Int_Tables_number   1
_chemical_formula_structural   V2(OF)3
_chemical_formula_sum   'V6 O9 F9'
_cell_volume   298.38682607
_cell_formula_units_Z   3
loop_
 _symmetry_equiv_pos_site_id
 _symmetry_equiv_pos_as_xyz
  1  'x, y, z'
loop_
 _atom_site_type_symbol
 _atom_site_label
 _atom_site_symmetry_multiplicity
 _atom_site_fract_x
 _atom_site_fract_y
 _atom_site_fract_z
 _atom_site_occupancy
  V  V0  1  0.01614290  0.98008262  0.48808107  1
  V  V1  1  0.98385230  0.95309653  0.99380598  1
  V  V2  1  0.32279620  0.62517934  0.82021143  1
  V  V3  1  0.68068856  0.30298590  0.66131087  1
  V  V4  1  0.37413748  0.65405452  0.32990797  1
  V  V5  1  0.70260527  0.35307039  0.15253619  1
  O  O0  1  0.99267337  0.41578967  0.75305796  1
  O  O1  1  0.09031760  0.77592009  0.91743721  1
  O  O2  1  0.75262813  0.10602834  0.58161296  1
  O  O3  1  0.42372902  0.44315560  0.24873533  1
  O  O4  1  0.55846527  0.56351737  0.75743821  1
  O  O5  1  0.24107158  0.90864390  0.42367667  1
  O  O6  1  0.89743729  0.24109104  0.08793492  1
  O  O7  1  0.67462060  0.76308810  0.41451043  1
  O  O8  1  0.75671385  0.66170235  0.08213813  1
  F  F0  1  0.39962777  0.98607403  0.74804980  1
  F  F1  1  0.08571491  0.33947821  0.41547635  1
  F  F2  1  0.32200654  0.07980313  0.09067898  1
  F  F3  1  0.24772161  0.35392655  0.92849602  1
  F  F4  1  0.32992853  0.26584601  0.58499847  1
  F  F5  1  -0.00162828  0.59119431  0.25418265  1
  F  F6  1  0.57405690  0.02009566  0.25691637  1
  F  F7  1  0.65782087  0.92847100  0.91486562  1
  F  F8  1  0.91687273  0.68770836  0.59394141  1
loop_
_geom_bond_atom_site_label_1
_geom_bond_atom_site_label_2
_geom_bond_distance
_geom_bond_site_symmetry_2
O0 V2 1.708668 1_655
O0 V3 1.825111 1_555
O1 V1 1.627995 1_455
O1 V2 2.151743 1_555
O2 V3 1.625548 1_555
O2 V0 2.165544 1_645
O3 V4 1.630819 1_555
O3 V5 2.140019 1_555
O4 V2 1.631616 1_555
O4 V3 2.156844 1_555
O5 V0 1.625304 1_555
O5 V4 2.150172 1_555
O6 V5 1.630563 1_555
O6 V1 2.144087 1_544
O7 V4 1.726708 1_555
O7 V0 1.794919 1_655
O8 V5 1.733762 1_555
O8 V1 1.795787 1_554
F0 V3 1.927739 1_565
F0 V2 1.940772 1_555
F1 V4 1.926249 1_555
F1 V0 1.947252 1_545
F2 V5 1.908185 1_555
F2 V1 1.954357 1_444
F3 V2 1.886869 1_555
F3 V1 2.013706 1_445
F4 V3 1.964427 1_555
F4 V0 1.978154 1_545
F5 V5 1.905189 1_455
F5 V4 2.026555 1_555
F6 V4 1.897828 1_545
F6 V5 2.028124 1_555
F7 V1 1.897563 1_555
F7 V2 2.039021 1_555
F8 V0 1.917134 1_655
F8 V3 1.947334 1_555
