# generated using pymatgen
data_MnBe2Rh
_symmetry_space_group_name_H-M   'P 1'
_cell_length_a   3.91071571
_cell_length_b   3.91071571
_cell_length_c   3.91071571
_cell_angle_alpha   60.00000000
_cell_angle_beta   60.00000000
_cell_angle_gamma   60.00000000
_symmetry_Int_Tables_number   1
_chemical_formula_structural   MnBe2Rh
_chemical_formula_sum   'Mn1 Be2 Rh1'
_cell_volume   42.29156351
_cell_formula_units_Z   1
loop_
 _symmetry_equiv_pos_site_id
 _symmetry_equiv_pos_as_xyz
  1  'x, y, z'
loop_
 _atom_site_type_symbol
 _atom_site_label
 _atom_site_symmetry_multiplicity
 _atom_site_fract_x
 _atom_site_fract_y
 _atom_site_fract_z
 _atom_site_occupancy
  Mn  Mn0  1  0.25000100  0.25000100  0.25000100  1
  Be  Be0  1  0.50000000  0.50000000  0.50000000  1
  Be  Be1  1  0.00000000  0.00000000  0.00000000  1
  Rh  Rh0  1  0.75000100  0.75000100  0.75000100  1
loop_
_geom_bond_atom_site_label_1
_geom_bond_atom_site_label_2
_geom_bond_distance
_geom_bond_site_symmetry_2
Mn0 Rh0 2.765294 1_445
Mn0 Rh0 2.765294 1_544
Mn0 Rh0 2.765294 1_454
Mn0 Rh0 2.765294 1_455
Mn0 Rh0 2.765294 1_554
Mn0 Rh0 2.765294 1_545
Be0 Mn0 2.394805 1_555
Be0 Rh0 2.394811 1_545
Be0 Rh0 2.394811 1_455
Be0 Rh0 2.394811 1_554
Be0 Mn0 2.394818 1_556
Be0 Mn0 2.394818 1_565
Be0 Mn0 2.394818 1_655
Be0 Rh0 2.394824 1_555
Be1 Rh0 2.394805 1_444
Be1 Mn0 2.394811 1_455
Be1 Mn0 2.394811 1_554
Be1 Mn0 2.394811 1_545
Be1 Rh0 2.394818 1_445
Be1 Rh0 2.394818 1_454
Be1 Rh0 2.394818 1_544
Be1 Mn0 2.394824 1_555
