# generated using pymatgen
data_Li2V2P2(H4O5)3
_symmetry_space_group_name_H-M   'P 1'
_cell_length_a   11.48018866
_cell_length_b   11.48018866
_cell_length_c   10.51878867
_cell_angle_alpha   78.89141229
_cell_angle_beta   78.89141229
_cell_angle_gamma   25.47130265
_symmetry_Int_Tables_number   1
_chemical_formula_structural   Li2V2P2(H4O5)3
_chemical_formula_sum   'Li4 V4 P4 H24 O30'
_cell_volume   584.45288694
_cell_formula_units_Z   2
loop_
 _symmetry_equiv_pos_site_id
 _symmetry_equiv_pos_as_xyz
  1  'x, y, z'
loop_
 _atom_site_type_symbol
 _atom_site_label
 _atom_site_symmetry_multiplicity
 _atom_site_fract_x
 _atom_site_fract_y
 _atom_site_fract_z
 _atom_site_occupancy
  Li  Li0  1  0.92202200  0.60041000  0.36427600  1
  Li  Li1  1  0.39959000  0.07797800  0.13572400  1
  Li  Li2  1  0.60041000  0.92202200  0.86427600  1
  Li  Li3  1  0.07797800  0.39959000  0.63572400  1
  V  V0  1  0.01815000  0.73204900  0.47146000  1
  V  V1  1  0.73204900  0.01815000  0.97146000  1
  V  V2  1  0.26795100  0.98185000  0.02854000  1
  V  V3  1  0.98185000  0.26795100  0.52854000  1
  P  P0  1  0.50813000  0.17631600  0.27407900  1
  P  P1  1  0.17631600  0.50813000  0.77407900  1
  P  P2  1  0.82368400  0.49187000  0.22592100  1
  P  P3  1  0.49187000  0.82368400  0.72592100  1
  H  H0  1  0.41429400  0.54109400  0.35280000  1
  H  H1  1  0.74409800  0.17917100  0.26788600  1
  H  H2  1  0.54109400  0.41429400  0.85280000  1
  H  H3  1  0.96234800  0.85193600  0.17505100  1
  H  H4  1  0.17917100  0.74409800  0.76788600  1
  H  H5  1  0.85193600  0.96234800  0.67505100  1
  H  H6  1  0.21250500  0.58168400  0.09481500  1
  H  H7  1  0.58168400  0.21250500  0.59481500  1
  H  H8  1  0.32181600  0.12141000  0.41606100  1
  H  H9  1  0.87859000  0.67818400  0.08393900  1
  H  H10  1  0.12141000  0.32181600  0.91606100  1
  H  H11  1  0.67818400  0.87859000  0.58393900  1
  H  H12  1  0.41831600  0.78749500  0.40518500  1
  H  H13  1  0.78749500  0.41831600  0.90518500  1
  H  H14  1  0.14806400  0.03765200  0.32494900  1
  H  H15  1  0.82082900  0.25590200  0.23211400  1
  H  H16  1  0.03765200  0.14806400  0.82494900  1
  H  H17  1  0.45890600  0.58570600  0.14720000  1
  H  H18  1  0.20903500  0.79341800  0.43423200  1
  H  H19  1  0.25590200  0.82082900  0.73211400  1
  H  H20  1  0.20658200  0.79096500  0.06576800  1
  H  H21  1  0.58570600  0.45890600  0.64720000  1
  H  H22  1  0.79341800  0.20903500  0.93423200  1
  H  H23  1  0.79096500  0.20658200  0.56576800  1
  O  O0  1  0.24017900  0.68828700  0.40779200  1
  O  O1  1  0.68828700  0.24017900  0.90779200  1
  O  O2  1  0.04630200  0.78526000  0.08455300  1
  O  O3  1  0.76463200  0.01196400  0.31398800  1
  O  O4  1  0.78526000  0.04630200  0.58455300  1
  O  O5  1  0.47047600  0.26677400  0.12633300  1
  O  O6  1  0.01196400  0.76463200  0.81398800  1
  O  O7  1  0.25022700  0.43619700  0.34947100  1
  O  O8  1  0.26677400  0.47047600  0.62633300  1
  O  O9  1  0.43619700  0.25022700  0.84947100  1
  O  O10  1  0.56111700  0.99545200  0.28934500  1
  O  O11  1  0.75039600  0.83528700  0.02448700  1
  O  O12  1  0.99545200  0.56111700  0.78934500  1
  O  O13  1  0.16471300  0.24960400  0.47551300  1
  O  O14  1  0.83528700  0.75039600  0.52448700  1
  O  O15  1  0.00454800  0.43888300  0.21065500  1
  O  O16  1  0.24960400  0.16471300  0.97551300  1
  O  O17  1  0.43888300  0.00454800  0.71065500  1
  O  O18  1  0.56380300  0.74977300  0.15052900  1
  O  O19  1  0.73322600  0.52952400  0.37366700  1
  O  O20  1  0.74977300  0.56380300  0.65052900  1
  O  O21  1  0.98803600  0.23536800  0.18601200  1
  O  O22  1  0.52952400  0.73322600  0.87366700  1
  O  O23  1  0.21474000  0.95369800  0.41544700  1
  O  O24  1  0.23536800  0.98803600  0.68601200  1
  O  O25  1  0.95369800  0.21474000  0.91544700  1
  O  O26  1  0.31171300  0.75982100  0.09220800  1
  O  O27  1  0.67099200  0.32900800  0.25000000  1
  O  O28  1  0.75982100  0.31171300  0.59220800  1
  O  O29  1  0.32900800  0.67099200  0.75000000  1
loop_
_geom_bond_atom_site_label_1
_geom_bond_atom_site_label_2
_geom_bond_distance
_geom_bond_site_symmetry_2
Li0 O14 2.042570 1_555
Li0 O10 2.075717 1_555
Li0 O15 2.083258 1_655
Li0 O13 2.128679 1_655
Li0 O7 2.199209 1_655
Li1 O16 2.042570 1_554
Li1 O15 2.075717 1_555
Li1 O10 2.083258 1_545
Li1 O11 2.128679 1_545
Li1 O18 2.199209 1_545
Li2 O11 2.042570 1_556
Li2 O12 2.075717 1_555
Li2 O17 2.083258 1_565
Li2 O16 2.128679 1_565
Li2 O9 2.199209 1_565
Li3 O13 2.042570 1_555
Li3 O17 2.075717 1_555
Li3 O12 2.083258 1_455
Li3 O14 2.128679 1_455
Li3 O20 2.199209 1_455
H0 O0 1.008889 1_555
H0 O27 1.616483 1_555
H1 O27 1.013974 1_555
H1 O3 1.686350 1_555
H2 O1 1.008889 1_555
H2 O29 1.616483 1_555
H3 O2 1.008054 1_655
H3 O3 1.700005 1_565
H4 O29 1.013974 1_555
H4 O6 1.686350 1_555
H5 O4 1.008054 1_565
H5 O6 1.700005 1_655
H6 O2 1.022137 1_555
H6 O5 1.592186 1_555
H7 O4 1.022137 1_555
H7 O8 1.592186 1_555
H8 O13 0.968112 1_555
H9 O11 0.968112 1_555
H10 O16 0.968112 1_555
H11 O14 0.968112 1_555
H12 O23 1.022137 1_555
H12 O19 1.592186 1_555
H13 O25 1.022137 1_555
H13 O22 1.592186 1_555
H14 O23 1.008054 1_545
H14 O21 1.700005 1_455
H15 O27 1.013974 1_555
H15 O21 1.686350 1_555
H16 O25 1.008054 1_455
H16 O24 1.700005 1_545
H17 O26 1.008889 1_555
H17 O27 1.616483 1_555
H18 O0 0.986772 1_555
H19 O29 1.013974 1_555
H19 O24 1.686350 1_555
H20 O26 0.986772 1_555
H21 O28 1.008889 1_555
H21 O29 1.616483 1_555
H22 O1 0.986772 1_555
H23 O28 0.986772 1_555
O0 V0 2.087495 1_555
O1 V1 2.087495 1_555
O2 V1 2.142635 1_464
O3 P0 1.595803 1_555
O3 V0 2.111931 1_645
O4 V0 2.142635 1_645
O5 P0 1.583342 1_555
O5 V1 2.061278 1_554
O6 P1 1.595803 1_555
O6 V1 2.111931 1_465
O7 P0 1.534131 1_555
O7 V0 2.074543 1_555
O8 P1 1.583342 1_555
O8 V0 2.061278 1_555
O9 P1 1.534131 1_555
O9 V1 2.074543 1_555
O10 P0 1.528286 1_565
O11 V1 1.886326 1_564
O12 P1 1.528286 1_655
O13 V3 1.886326 1_455
O14 V0 1.886326 1_655
O15 P2 1.528286 1_455
O16 V2 1.886326 1_546
O17 P3 1.528286 1_545
O18 P2 1.534131 1_555
O18 V2 2.074543 1_555
O19 P2 1.583342 1_555
O19 V3 2.061278 1_555
O20 P3 1.534131 1_555
O20 V3 2.074543 1_555
O21 P2 1.595803 1_555
O21 V2 2.111931 1_645
O22 P3 1.583342 1_555
O22 V2 2.061278 1_556
O23 V3 2.142635 1_465
O24 P3 1.595803 1_555
O24 V3 2.111931 1_465
O25 V2 2.142635 1_646
O26 V2 2.087495 1_555
O28 V3 2.087495 1_555
