# generated using pymatgen
data_Ca5(AlSb3)2
_symmetry_space_group_name_H-M   'P 1'
_cell_length_a   4.48337877
_cell_length_b   12.11608404
_cell_length_c   14.10923850
_cell_angle_alpha   90.00000000
_cell_angle_beta   90.00000000
_cell_angle_gamma   90.00000000
_symmetry_Int_Tables_number   1
_chemical_formula_structural   Ca5(AlSb3)2
_chemical_formula_sum   'Ca10 Al4 Sb12'
_cell_volume   766.42785935
_cell_formula_units_Z   2
loop_
 _symmetry_equiv_pos_site_id
 _symmetry_equiv_pos_as_xyz
  1  'x, y, z'
loop_
 _atom_site_type_symbol
 _atom_site_label
 _atom_site_symmetry_multiplicity
 _atom_site_fract_x
 _atom_site_fract_y
 _atom_site_fract_z
 _atom_site_occupancy
  Ca  Ca0  1  0.50000000  0.09268821  0.74776437  1
  Ca  Ca1  1  0.50000000  0.40731179  0.24776437  1
  Ca  Ca2  1  0.50000000  0.32576426  0.51285640  1
  Ca  Ca3  1  0.50000000  0.90731179  0.25223563  1
  Ca  Ca4  1  0.50000000  0.50000000  -0.00000000  1
  Ca  Ca5  1  0.50000000  0.00000000  0.50000000  1
  Ca  Ca6  1  0.50000000  0.17423574  0.01285640  1
  Ca  Ca7  1  0.50000000  0.82576426  0.98714360  1
  Ca  Ca8  1  0.50000000  0.67423574  0.48714360  1
  Ca  Ca9  1  0.50000000  0.59268821  0.75223563  1
  Al  Al0  1  0.00000000  0.16842621  0.21116050  1
  Al  Al1  1  -0.00000000  0.83157379  0.78883950  1
  Al  Al2  1  0.00000000  0.66842621  0.28883950  1
  Al  Al3  1  0.00000000  0.33157379  0.71116050  1
  Sb  Sb0  1  -0.00000000  0.84283830  0.40585726  1
  Sb  Sb1  1  0.00000000  0.15716170  0.59414274  1
  Sb  Sb2  1  0.00000000  0.65716170  0.90585726  1
  Sb  Sb3  1  -0.00000000  0.34283830  0.09414274  1
  Sb  Sb4  1  0.50000000  0.33948192  0.82046005  1
  Sb  Sb5  1  0.50000000  0.66051808  0.17953995  1
  Sb  Sb6  1  0.50000000  0.83948192  0.67953995  1
  Sb  Sb7  1  0.50000000  0.16051808  0.32046005  1
  Sb  Sb8  1  0.00000000  0.52380125  0.59948857  1
  Sb  Sb9  1  0.00000000  0.47619875  0.40051143  1
  Sb  Sb10  1  0.00000000  0.02380125  0.90051143  1
  Sb  Sb11  1  0.00000000  0.97619875  0.09948857  1
loop_
_geom_bond_atom_site_label_1
_geom_bond_atom_site_label_2
_geom_bond_distance
_geom_bond_site_symmetry_2
Ca0 Sb4 3.161196 1_555
Ca0 Sb1 3.214557 1_555
Ca0 Sb1 3.214557 1_655
Ca0 Sb6 3.215339 1_545
Ca0 Sb10 3.219696 1_555
Ca0 Sb10 3.219696 1_655
Ca1 Sb7 3.161196 1_555
Ca1 Sb3 3.214557 1_555
Ca1 Sb3 3.214557 1_655
Ca1 Sb5 3.215339 1_555
Ca1 Sb9 3.219696 1_655
Ca1 Sb9 3.219696 1_555
Ca2 Sb1 3.242463 1_555
Ca2 Sb1 3.242463 1_655
Ca2 Sb9 3.295432 1_655
Ca2 Sb9 3.295432 1_555
Ca2 Sb7 3.373043 1_555
Ca2 Sb8 3.503784 1_655
Ca2 Sb8 3.503784 1_555
Ca3 Sb5 3.161196 1_555
Ca3 Sb0 3.214557 1_655
Ca3 Sb0 3.214557 1_555
Ca3 Sb7 3.215339 1_565
Ca3 Sb11 3.219696 1_555
Ca3 Sb11 3.219696 1_655
Ca4 Sb4 3.193651 1_554
Ca4 Sb5 3.193651 1_555
Ca4 Sb2 3.227294 1_654
Ca4 Sb3 3.227294 1_555
Ca4 Sb3 3.227294 1_655
Ca4 Sb2 3.227294 1_554
Ca5 Sb7 3.193651 1_555
Ca5 Sb6 3.193651 1_545
Ca5 Sb1 3.227294 1_655
Ca5 Sb1 3.227294 1_555
Ca5 Sb0 3.227294 1_545
Ca5 Sb0 3.227294 1_645
Ca6 Sb3 3.242463 1_655
Ca6 Sb3 3.242463 1_555
Ca6 Sb10 3.295432 1_654
Ca6 Sb10 3.295432 1_554
Ca6 Sb4 3.373043 1_554
Ca6 Sb11 3.503784 1_545
Ca6 Sb11 3.503784 1_645
Ca7 Sb2 3.242463 1_555
Ca7 Sb2 3.242463 1_655
Ca7 Sb11 3.295432 1_656
Ca7 Sb11 3.295432 1_556
Ca7 Sb5 3.373043 1_556
Ca7 Sb10 3.503784 1_565
Ca7 Sb10 3.503784 1_665
Ca8 Sb0 3.242463 1_655
Ca8 Sb0 3.242463 1_555
Ca8 Sb8 3.295432 1_555
Ca8 Sb8 3.295432 1_655
Ca8 Sb6 3.373043 1_555
Ca8 Sb9 3.503784 1_555
Ca8 Sb9 3.503784 1_655
Ca9 Sb6 3.161196 1_555
Ca9 Sb2 3.214557 1_555
Ca9 Sb2 3.214557 1_655
Ca9 Sb4 3.215339 1_555
Ca9 Sb8 3.219696 1_655
Ca9 Sb8 3.219696 1_555
Al0 Sb3 2.681694 1_555
Al0 Sb7 2.722596 1_455
Al0 Sb7 2.722596 1_555
Al0 Sb11 2.811935 1_545
Al0 Ca6 3.585872 1_455
Al0 Ca6 3.585872 1_555
Al1 Sb2 2.681694 1_555
Al1 Sb6 2.722596 1_455
Al1 Sb6 2.722596 1_555
Al1 Sb10 2.811935 1_565
Al1 Ca7 3.585872 1_455
Al1 Ca7 3.585872 1_555
Al2 Sb0 2.681694 1_555
Al2 Sb5 2.722596 1_455
Al2 Sb5 2.722596 1_555
Al2 Sb9 2.811935 1_555
Al2 Ca8 3.585872 1_555
Al2 Ca8 3.585872 1_455
Al3 Sb1 2.681694 1_555
Al3 Sb4 2.722596 1_455
Al3 Sb4 2.722596 1_555
Al3 Sb8 2.811935 1_555
Al3 Ca2 3.585872 1_455
Al3 Ca2 3.585872 1_555
Sb8 Sb9 2.866048 1_555
Sb10 Sb11 2.866048 1_546
