# generated using pymatgen
data_HoAsPd
_symmetry_space_group_name_H-M   'P 1'
_cell_length_a   4.09497529
_cell_length_b   7.02838192
_cell_length_c   7.89367879
_cell_angle_alpha   90.00000000
_cell_angle_beta   90.00000000
_cell_angle_gamma   90.00000000
_symmetry_Int_Tables_number   1
_chemical_formula_structural   HoAsPd
_chemical_formula_sum   'Ho4 As4 Pd4'
_cell_volume   227.18836624
_cell_formula_units_Z   4
loop_
 _symmetry_equiv_pos_site_id
 _symmetry_equiv_pos_as_xyz
  1  'x, y, z'
loop_
 _atom_site_type_symbol
 _atom_site_label
 _atom_site_symmetry_multiplicity
 _atom_site_fract_x
 _atom_site_fract_y
 _atom_site_fract_z
 _atom_site_occupancy
  Ho  Ho0  1  0.25000000  0.03197311  0.80748542  1
  Ho  Ho1  1  0.75000000  0.96802689  0.19251458  1
  Ho  Ho2  1  0.25000000  0.53197311  0.69251458  1
  Ho  Ho3  1  0.75000000  0.46802689  0.30748542  1
  As  As0  1  0.25000000  0.74607857  0.37984343  1
  As  As1  1  0.75000000  0.25392143  0.62015657  1
  As  As2  1  0.25000000  0.24607857  0.12015657  1
  As  As3  1  0.75000000  0.75392143  0.87984343  1
  Pd  Pd0  1  0.75000000  0.35731773  0.93677791  1
  Pd  Pd1  1  0.25000000  0.64268227  0.06322209  1
  Pd  Pd2  1  0.75000000  0.85731773  0.56322209  1
  Pd  Pd3  1  0.25000000  0.14268227  0.43677791  1
loop_
_geom_bond_atom_site_label_1
_geom_bond_atom_site_label_2
_geom_bond_distance
_geom_bond_site_symmetry_2
Ho0 Pd3 3.027931 1_555
Ho0 Pd2 3.068677 1_545
Ho0 Pd2 3.068677 1_445
Ho0 Pd0 3.234589 1_455
Ho0 Pd0 3.234589 1_555
Ho0 Pd1 3.400194 1_546
Ho1 Pd2 3.027931 1_555
Ho1 Pd3 3.068677 1_665
Ho1 Pd3 3.068677 1_565
Ho1 Pd1 3.234589 1_555
Ho1 Pd1 3.234589 1_655
Ho1 Pd0 3.400194 1_564
Ho2 Pd1 3.027931 1_556
Ho2 Pd0 3.068677 1_555
Ho2 Pd0 3.068677 1_455
Ho2 Pd2 3.234589 1_455
Ho2 Pd2 3.234589 1_555
Ho2 Pd3 3.400194 1_555
Ho3 Pd0 3.027931 1_554
Ho3 Pd1 3.068677 1_555
Ho3 Pd1 3.068677 1_655
Ho3 Pd3 3.234589 1_555
Ho3 Pd3 3.234589 1_655
Ho3 Pd2 3.400194 1_555
As0 Pd1 2.602814 1_555
As0 Pd2 2.626560 1_455
As0 Pd2 2.626560 1_555
As0 Pd3 2.823480 1_565
As0 Ho3 2.887481 1_455
As0 Ho3 2.887481 1_555
As0 Ho2 2.890694 1_555
As0 Ho1 2.968536 1_455
As0 Ho1 2.968536 1_555
As1 Pd0 2.602814 1_555
As1 Pd3 2.626560 1_655
As1 Pd3 2.626560 1_555
As1 Pd2 2.823480 1_545
As1 Ho2 2.887481 1_555
As1 Ho2 2.887481 1_655
As1 Ho3 2.890694 1_555
As1 Ho0 2.968536 1_655
As1 Ho0 2.968536 1_555
As2 Pd3 2.602814 1_555
As2 Pd0 2.626560 1_554
As2 Pd0 2.626560 1_454
As2 Pd1 2.823480 1_555
As2 Ho1 2.887481 1_445
As2 Ho1 2.887481 1_545
As2 Ho0 2.890694 1_554
As2 Ho3 2.968536 1_455
As2 Ho3 2.968536 1_555
As3 Pd2 2.602814 1_555
As3 Pd1 2.626560 1_656
As3 Pd1 2.626560 1_556
As3 Pd0 2.823480 1_555
As3 Ho0 2.887481 1_665
As3 Ho0 2.887481 1_565
As3 Ho1 2.890694 1_556
As3 Ho2 2.968536 1_655
As3 Ho2 2.968536 1_555
Pd0 Pd1 3.034974 1_656
Pd0 Pd1 3.034974 1_556
Pd2 Pd3 3.034974 1_665
Pd2 Pd3 3.034974 1_565
