# generated using pymatgen
data_LiFe2P2HO8
_symmetry_space_group_name_H-M   'P 1'
_cell_length_a   5.01307700
_cell_length_b   8.48918600
_cell_length_c   15.09170569
_cell_angle_alpha   85.75347014
_cell_angle_beta   90.00000000
_cell_angle_gamma   90.00000000
_symmetry_Int_Tables_number   1
_chemical_formula_structural   LiFe2P2HO8
_chemical_formula_sum   'Li4 Fe8 P8 H4 O32'
_cell_volume   640.49365404
_cell_formula_units_Z   4
loop_
 _symmetry_equiv_pos_site_id
 _symmetry_equiv_pos_as_xyz
  1  'x, y, z'
loop_
 _atom_site_type_symbol
 _atom_site_label
 _atom_site_symmetry_multiplicity
 _atom_site_fract_x
 _atom_site_fract_y
 _atom_site_fract_z
 _atom_site_occupancy
  Li  Li0  1  0.01674800  0.00000000  0.75000000  1
  Li  Li1  1  0.98325200  0.00000000  0.25000000  1
  Li  Li2  1  0.84998800  0.50000000  0.75000000  1
  Li  Li3  1  0.15001200  0.50000000  0.25000000  1
  Fe  Fe0  1  0.23762200  0.91594600  0.50000000  1
  Fe  Fe1  1  0.76237800  0.91594600  0.00000000  1
  Fe  Fe2  1  0.75628800  0.57855100  0.00184600  1
  Fe  Fe3  1  0.24371200  0.57855100  0.50184600  1
  Fe  Fe4  1  0.75628800  0.42144900  0.49815400  1
  Fe  Fe5  1  0.24371200  0.42144900  0.99815400  1
  Fe  Fe6  1  0.23762200  0.08405400  0.00000000  1
  Fe  Fe7  1  0.76237800  0.08405400  0.50000000  1
  P  P0  1  0.26186500  0.76858700  0.88922800  1
  P  P1  1  0.73813500  0.76858700  0.38922800  1
  P  P2  1  0.73200900  0.73602100  0.61984000  1
  P  P3  1  0.26799100  0.73602100  0.11984000  1
  P  P4  1  0.73200900  0.26397900  0.88016000  1
  P  P5  1  0.26799100  0.26397900  0.38016000  1
  P  P6  1  0.26186500  0.23141300  0.61077200  1
  P  P7  1  0.73813500  0.23141300  0.11077200  1
  H  H0  1  0.44105600  0.76244700  0.75443900  1
  H  H1  1  0.55894400  0.76244700  0.25443900  1
  H  H2  1  0.44105600  0.23755300  0.74556100  1
  H  H3  1  0.55894400  0.23755300  0.24556100  1
  O  O0  1  0.40734400  0.91319700  0.92169000  1
  O  O1  1  0.59265600  0.91319700  0.42169000  1
  O  O2  1  0.89125300  0.89051900  0.59272000  1
  O  O3  1  0.96656200  0.76226800  0.92027700  1
  O  O4  1  0.25585500  0.79321800  0.78405100  1
  O  O5  1  0.10874700  0.89051900  0.09272000  1
  O  O6  1  0.03343800  0.76226800  0.42027700  1
  O  O7  1  0.69825300  0.71478000  0.72200300  1
  O  O8  1  0.74414500  0.79321800  0.28405100  1
  O  O9  1  0.44903200  0.74107800  0.57776700  1
  O  O10  1  0.41120400  0.61262900  0.91655400  1
  O  O11  1  0.30174700  0.71478000  0.22200300  1
  O  O12  1  0.55096800  0.74107800  0.07776700  1
  O  O13  1  0.89358400  0.58777200  0.59055300  1
  O  O14  1  0.58879600  0.61262900  0.41655400  1
  O  O15  1  0.89358400  0.41222800  0.90944700  1
  O  O16  1  0.10641600  0.58777200  0.09055300  1
  O  O17  1  0.41120400  0.38737100  0.58344600  1
  O  O18  1  0.10641600  0.41222800  0.40944700  1
  O  O19  1  0.44903200  0.25892200  0.92223300  1
  O  O20  1  0.69825300  0.28522000  0.77799700  1
  O  O21  1  0.58879600  0.38737100  0.08344600  1
  O  O22  1  0.55096800  0.25892200  0.42223300  1
  O  O23  1  0.25585500  0.20678200  0.71594900  1
  O  O24  1  0.30174700  0.28522000  0.27799700  1
  O  O25  1  0.96656200  0.23773200  0.57972300  1
  O  O26  1  0.89125300  0.10948100  0.90728000  1
  O  O27  1  0.74414500  0.20678200  0.21594900  1
  O  O28  1  0.03343800  0.23773200  0.07972300  1
  O  O29  1  0.10874700  0.10948100  0.40728000  1
  O  O30  1  0.40734400  0.08680300  0.57831000  1
  O  O31  1  0.59265600  0.08680300  0.07831000  1
loop_
_geom_bond_atom_site_label_1
_geom_bond_atom_site_label_2
_geom_bond_distance
_geom_bond_site_symmetry_2
Li0 O23 2.156094 1_555
Li0 O4 2.156094 1_545
Li1 O27 2.156094 1_555
Li1 O8 2.156094 1_545
Li2 O7 1.991855 1_555
Li2 O20 1.991855 1_555
Li2 O13 2.475446 1_555
Li2 O15 2.475446 1_555
Li3 O11 1.991855 1_555
Li3 O24 1.991855 1_555
Li3 O16 2.475446 1_555
Li3 O18 2.475446 1_555
Fe0 O6 2.104700 1_555
Fe0 O9 2.108628 1_555
Fe0 O30 2.116191 1_565
Fe0 O1 2.137543 1_555
Fe0 O29 2.175838 1_565
Fe0 O2 2.230450 1_455
Fe1 O3 2.104700 1_554
Fe1 O12 2.108628 1_555
Fe1 O31 2.116191 1_565
Fe1 O0 2.137543 1_554
Fe1 O26 2.175838 1_564
Fe1 O5 2.230450 1_655
Fe2 O12 2.123672 1_555
Fe2 O21 2.135317 1_555
Fe2 O10 2.162891 1_554
Fe2 O15 2.168737 1_554
Fe2 O3 2.185089 1_554
Fe2 O16 2.212389 1_655
Fe3 O9 2.123672 1_555
Fe3 O17 2.135317 1_555
Fe3 O14 2.162891 1_555
Fe3 O18 2.168737 1_555
Fe3 O6 2.185089 1_555
Fe3 O13 2.212389 1_455
Fe4 O22 2.123672 1_555
Fe4 O14 2.135317 1_555
Fe4 O17 2.162891 1_555
Fe4 O13 2.168737 1_555
Fe4 O25 2.185089 1_555
Fe4 O18 2.212389 1_655
Fe5 O19 2.123672 1_555
Fe5 O10 2.135317 1_555
Fe5 O21 2.162891 1_556
Fe5 O16 2.168737 1_556
Fe5 O28 2.185089 1_556
Fe5 O15 2.212389 1_455
Fe6 O28 2.104700 1_555
Fe6 O19 2.108628 1_554
Fe6 O0 2.116191 1_544
Fe6 O31 2.137543 1_555
Fe6 O5 2.175838 1_545
Fe6 O26 2.230450 1_454
Fe7 O25 2.104700 1_555
Fe7 O22 2.108628 1_555
Fe7 O1 2.116191 1_545
Fe7 O30 2.137543 1_555
Fe7 O2 2.175838 1_545
Fe7 O29 2.230450 1_655
H0 O4 1.071082 1_555
H0 O7 1.447454 1_555
H1 O8 1.071082 1_555
H1 O11 1.447454 1_555
H2 O23 1.071082 1_555
H2 O20 1.447454 1_555
H3 O27 1.071082 1_555
H3 O24 1.447454 1_555
O0 P0 1.538832 1_555
O1 P1 1.538832 1_555
O2 P2 1.563809 1_555
O3 P0 1.552495 1_655
O4 P0 1.585875 1_555
O5 P3 1.563809 1_555
O6 P1 1.552495 1_455
O7 P2 1.548279 1_555
O8 P1 1.585875 1_555
O9 P2 1.553498 1_555
O10 P0 1.550015 1_555
O11 P3 1.548279 1_555
O12 P3 1.553498 1_555
O13 P2 1.586717 1_555
O14 P1 1.550015 1_555
O15 P4 1.586717 1_555
O16 P3 1.586717 1_555
O17 P6 1.550015 1_555
O18 P5 1.586717 1_555
O19 P4 1.553498 1_555
O20 P4 1.548279 1_555
O21 P7 1.550015 1_555
O22 P5 1.553498 1_555
O23 P6 1.585875 1_555
O24 P5 1.548279 1_555
O25 P6 1.552495 1_655
O26 P4 1.563809 1_555
O27 P7 1.585875 1_555
O28 P7 1.552495 1_455
O29 P5 1.563809 1_555
O30 P6 1.538832 1_555
O31 P7 1.538832 1_555
