# generated using pymatgen
data_MnIr3
_symmetry_space_group_name_H-M   'P 1'
_cell_length_a   5.47063973
_cell_length_b   5.47093133
_cell_length_c   4.32908318
_cell_angle_alpha   90.00000000
_cell_angle_beta   90.00000000
_cell_angle_gamma   120.00336358
_symmetry_Int_Tables_number   1
_chemical_formula_structural   MnIr3
_chemical_formula_sum   'Mn2 Ir6'
_cell_volume   112.20474409
_cell_formula_units_Z   2
loop_
 _symmetry_equiv_pos_site_id
 _symmetry_equiv_pos_as_xyz
  1  'x, y, z'
loop_
 _atom_site_type_symbol
 _atom_site_label
 _atom_site_symmetry_multiplicity
 _atom_site_fract_x
 _atom_site_fract_y
 _atom_site_fract_z
 _atom_site_occupancy
  Mn  Mn0  1  0.33286442  0.66652122  0.75000000  1
  Mn  Mn1  1  0.66713630  0.33346562  0.25000000  1
  Ir  Ir0  1  0.16865978  0.33713954  0.25000000  1
  Ir  Ir1  1  0.66265848  0.83128760  0.25000000  1
  Ir  Ir2  1  0.16863509  0.83156337  0.25000000  1
  Ir  Ir3  1  0.83134063  0.66286329  0.75000000  1
  Ir  Ir4  1  0.33733761  0.16871795  0.75000000  1
  Ir  Ir5  1  0.83136369  0.16843741  0.75000000  1
loop_
_geom_bond_atom_site_label_1
_geom_bond_atom_site_label_2
_geom_bond_distance
_geom_bond_site_symmetry_2
Ir0 Mn0 2.668436 1_555
Ir0 Mn0 2.668436 1_554
Ir0 Ir4 2.690005 1_554
Ir0 Ir4 2.690005 1_555
Ir0 Ir5 2.690485 1_455
Ir0 Ir5 2.690485 1_454
Ir0 Ir1 2.702832 1_555
Ir0 Ir2 2.705026 1_555
Ir0 Mn1 2.733659 1_455
Ir0 Mn1 2.737092 1_555
Ir0 Ir2 2.765905 1_545
Ir0 Ir1 2.767675 1_445
Ir1 Mn0 2.669529 1_555
Ir1 Mn0 2.669529 1_554
Ir1 Ir3 2.690025 1_554
Ir1 Ir3 2.690025 1_555
Ir1 Ir5 2.690124 1_564
Ir1 Ir5 2.690124 1_565
Ir1 Ir2 2.703379 1_555
Ir1 Mn1 2.735214 1_565
Ir1 Mn1 2.735882 1_555
Ir1 Ir2 2.767262 1_655
Ir2 Mn0 2.668153 1_555
Ir2 Mn0 2.668153 1_554
Ir2 Ir4 2.690138 1_565
Ir2 Ir4 2.690138 1_564
Ir2 Ir3 2.690480 1_455
Ir2 Ir3 2.690480 1_454
Ir2 Mn1 2.734197 1_455
Ir2 Mn1 2.736406 1_565
Ir3 Mn1 2.668481 1_556
Ir3 Mn1 2.668481 1_555
Ir3 Ir4 2.702837 1_555
Ir3 Ir5 2.705033 1_555
Ir3 Mn0 2.733704 1_655
Ir3 Mn0 2.737046 1_555
Ir3 Ir5 2.765898 1_565
Ir3 Ir4 2.767671 1_665
Ir4 Mn1 2.669542 1_556
Ir4 Mn1 2.669542 1_555
Ir4 Ir5 2.703407 1_555
Ir4 Mn0 2.735329 1_545
Ir4 Mn0 2.735766 1_555
Ir4 Ir5 2.767234 1_455
Ir5 Mn1 2.668109 1_556
Ir5 Mn1 2.668109 1_555
Ir5 Mn0 2.734164 1_655
Ir5 Mn0 2.736439 1_545
