# generated using pymatgen
data_Fe2OF3
_symmetry_space_group_name_H-M   'P 1'
_cell_length_a   5.77472838
_cell_length_b   5.77472838
_cell_length_c   10.72591667
_cell_angle_alpha   68.88025779
_cell_angle_beta   68.88025779
_cell_angle_gamma   65.19590293
_symmetry_Int_Tables_number   1
_chemical_formula_structural   Fe2OF3
_chemical_formula_sum   'Fe8 O4 F12'
_cell_volume   293.49101021
_cell_formula_units_Z   4
loop_
 _symmetry_equiv_pos_site_id
 _symmetry_equiv_pos_as_xyz
  1  'x, y, z'
loop_
 _atom_site_type_symbol
 _atom_site_label
 _atom_site_symmetry_multiplicity
 _atom_site_fract_x
 _atom_site_fract_y
 _atom_site_fract_z
 _atom_site_occupancy
  Fe  Fe0  1  0.62116500  0.13229600  0.24992700  1
  Fe  Fe1  1  0.37883500  0.86770400  0.75007300  1
  Fe  Fe2  1  0.00000000  0.00000000  0.50000000  1
  Fe  Fe3  1  0.50000000  0.50000000  0.50000000  1
  Fe  Fe4  1  0.76207700  0.76207700  0.01991100  1
  Fe  Fe5  1  0.86770400  0.37883500  0.75007300  1
  Fe  Fe6  1  0.13229600  0.62116500  0.24992700  1
  Fe  Fe7  1  0.23792300  0.23792300  0.98008900  1
  O  O0  1  0.42073700  0.42073700  0.34019700  1
  O  O1  1  0.57926300  0.57926300  0.65980300  1
  O  O2  1  0.83610100  0.83610100  0.16586500  1
  O  O3  1  0.16389900  0.16389900  0.83413500  1
  F  F0  1  0.40203900  0.91098200  0.39563600  1
  F  F1  1  0.32268200  0.32268200  0.14533500  1
  F  F2  1  0.67731800  0.67731800  0.85466500  1
  F  F3  1  0.92669500  0.92669500  0.35154800  1
  F  F4  1  0.34867600  0.84375800  0.10350500  1
  F  F5  1  0.59796100  0.08901800  0.60436400  1
  F  F6  1  0.84375800  0.34867600  0.10350500  1
  F  F7  1  0.15624200  0.65132400  0.89649500  1
  F  F8  1  0.91098200  0.40203900  0.39563600  1
  F  F9  1  0.65132400  0.15624200  0.89649500  1
  F  F10  1  0.07330500  0.07330500  0.64845200  1
  F  F11  1  0.08901800  0.59796100  0.60436400  1
loop_
_geom_bond_atom_site_label_1
_geom_bond_atom_site_label_2
_geom_bond_distance
_geom_bond_site_symmetry_2
Fe0 O0 1.946435 1_555
Fe0 O2 1.950072 1_545
Fe1 O1 1.946435 1_555
Fe1 O3 1.950072 1_565
Fe3 O1 2.159507 1_555
Fe3 O0 2.159507 1_555
Fe4 O2 1.983439 1_555
Fe5 O1 1.946435 1_555
Fe5 O3 1.950072 1_655
Fe6 O0 1.946435 1_555
Fe6 O2 1.950072 1_455
Fe7 O3 1.983439 1_555
F0 Fe0 2.041927 1_565
F0 Fe2 2.109009 1_565
F0 Fe3 2.149659 1_555
F1 Fe6 2.086367 1_555
F1 Fe0 2.086367 1_555
F1 Fe7 2.252099 1_554
F2 Fe5 2.086367 1_555
F2 Fe1 2.086367 1_555
F2 Fe4 2.252099 1_556
F3 Fe2 2.003893 1_665
F3 Fe6 2.099122 1_655
F3 Fe0 2.099122 1_565
F4 Fe6 2.039311 1_555
F4 Fe4 2.131429 1_555
F4 Fe7 2.135352 1_564
F5 Fe1 2.041927 1_545
F5 Fe2 2.109009 1_655
F5 Fe3 2.149659 1_555
F6 Fe0 2.039311 1_555
F6 Fe4 2.131429 1_555
F6 Fe7 2.135352 1_654
F7 Fe1 2.039311 1_555
F7 Fe7 2.131429 1_555
F7 Fe4 2.135352 1_456
F8 Fe6 2.041927 1_655
F8 Fe2 2.109009 1_655
F8 Fe3 2.149659 1_555
F9 Fe5 2.039311 1_555
F9 Fe7 2.131429 1_555
F9 Fe4 2.135352 1_546
F10 Fe2 2.003893 1_555
F10 Fe1 2.099122 1_545
F10 Fe5 2.099122 1_455
F11 Fe5 2.041927 1_455
F11 Fe2 2.109009 1_565
F11 Fe3 2.149659 1_555
