# generated using pymatgen
data_LiSiRu2
_symmetry_space_group_name_H-M   'P 1'
_cell_length_a   4.07889155
_cell_length_b   4.07889226
_cell_length_c   4.07889226
_cell_angle_alpha   60.00001158
_cell_angle_beta   60.00001738
_cell_angle_gamma   59.99999421
_symmetry_Int_Tables_number   1
_chemical_formula_structural   LiSiRu2
_chemical_formula_sum   'Li1 Si1 Ru2'
_cell_volume   47.98568576
_cell_formula_units_Z   1
loop_
 _symmetry_equiv_pos_site_id
 _symmetry_equiv_pos_as_xyz
  1  'x, y, z'
loop_
 _atom_site_type_symbol
 _atom_site_label
 _atom_site_symmetry_multiplicity
 _atom_site_fract_x
 _atom_site_fract_y
 _atom_site_fract_z
 _atom_site_occupancy
  Li  Li0  1  0.25000000  0.25000000  0.25000000  1
  Si  Si0  1  0.75000100  0.75000100  0.75000100  1
  Ru  Ru0  1  -0.00000000  0.00000000  -0.00000000  1
  Ru  Ru1  1  0.50000100  0.50000100  0.50000100  1
loop_
_geom_bond_atom_site_label_1
_geom_bond_atom_site_label_2
_geom_bond_distance
_geom_bond_site_symmetry_2
Li0 Ru1 2.497798 1_455
Li0 Ru1 2.497798 1_545
Li0 Ru1 2.497798 1_554
Li0 Ru0 2.497801 1_555
Li0 Ru0 2.497801 1_655
Li0 Ru0 2.497801 1_565
Li0 Ru0 2.497802 1_556
Li0 Ru1 2.497811 1_555
Li0 Si0 2.884206 1_454
Li0 Si0 2.884207 1_544
Li0 Si0 2.884207 1_445
Li0 Si0 2.884218 1_545
Li0 Si0 2.884218 1_455
Li0 Si0 2.884219 1_554
Ru0 Si0 2.497791 1_444
Ru0 Si0 2.497804 1_544
Ru0 Si0 2.497805 1_454
Ru0 Si0 2.497805 1_445
Ru1 Si0 2.497801 1_555
Ru1 Si0 2.497801 1_455
Ru1 Si0 2.497801 1_545
Ru1 Si0 2.497802 1_554
