# generated using pymatgen
data_LiScAu2
_symmetry_space_group_name_H-M   'P 1'
_cell_length_a   4.62170387
_cell_length_b   4.62170387
_cell_length_c   4.62169953
_cell_angle_alpha   59.99998957
_cell_angle_beta   59.99988613
_cell_angle_gamma   59.99983420
_symmetry_Int_Tables_number   1
_chemical_formula_structural   LiScAu2
_chemical_formula_sum   'Li1 Sc1 Au2'
_cell_volume   69.80555536
_cell_formula_units_Z   1
loop_
 _symmetry_equiv_pos_site_id
 _symmetry_equiv_pos_as_xyz
  1  'x, y, z'
loop_
 _atom_site_type_symbol
 _atom_site_label
 _atom_site_symmetry_multiplicity
 _atom_site_fract_x
 _atom_site_fract_y
 _atom_site_fract_z
 _atom_site_occupancy
  Li  Li0  1  0.25000000  0.25000000  0.25000000  1
  Sc  Sc0  1  0.74999900  0.74999900  0.75000000  1
  Au  Au0  1  0.49999900  0.49999900  0.49999900  1
  Au  Au1  1  0.00000000  0.00000000  0.99999900  1
loop_
_geom_bond_atom_site_label_1
_geom_bond_atom_site_label_2
_geom_bond_distance
_geom_bond_site_symmetry_2
Au0 Li0 2.830194 1_555
Au0 Sc0 2.830196 1_554
Au0 Sc0 2.830198 1_455
Au0 Sc0 2.830201 1_545
Au0 Li0 2.830202 1_655
Au0 Li0 2.830204 1_556
Au0 Li0 2.830205 1_565
Au0 Sc0 2.830209 1_555
Au1 Sc0 2.830194 1_545
Au1 Li0 2.830196 1_555
Au1 Sc0 2.830197 1_455
Au1 Li0 2.830198 1_456
Au1 Li0 2.830201 1_546
Au1 Sc0 2.830204 1_446
Au1 Li0 2.830209 1_556
Au1 Sc0 2.830209 1_445
