# generated using pymatgen
data_YbB2C
_symmetry_space_group_name_H-M   'P 1'
_cell_length_a   6.72895096
_cell_length_b   6.72895096
_cell_length_c   7.21902612
_cell_angle_alpha   90.00000000
_cell_angle_beta   90.00000000
_cell_angle_gamma   90.00000000
_symmetry_Int_Tables_number   1
_chemical_formula_structural   YbB2C
_chemical_formula_sum   'Yb8 B16 C8'
_cell_volume   326.86870291
_cell_formula_units_Z   8
loop_
 _symmetry_equiv_pos_site_id
 _symmetry_equiv_pos_as_xyz
  1  'x, y, z'
loop_
 _atom_site_type_symbol
 _atom_site_label
 _atom_site_symmetry_multiplicity
 _atom_site_fract_x
 _atom_site_fract_y
 _atom_site_fract_z
 _atom_site_occupancy
  Yb  Yb0  1  0.80857146  0.30857146  0.25000000  1
  Yb  Yb1  1  0.19142854  0.69142854  0.25000000  1
  Yb  Yb2  1  0.30857146  0.19142854  0.75000000  1
  Yb  Yb3  1  0.69142854  0.80857146  0.75000000  1
  Yb  Yb4  1  0.19142854  0.69142854  0.75000000  1
  Yb  Yb5  1  0.80857146  0.30857146  0.75000000  1
  Yb  Yb6  1  0.69142854  0.80857146  0.25000000  1
  Yb  Yb7  1  0.30857146  0.19142854  0.25000000  1
  B  B0  1  0.90278012  0.59318177  0.00000000  1
  B  B1  1  0.09721988  0.40681823  0.00000000  1
  B  B2  1  0.40278012  0.90681823  0.00000000  1
  B  B3  1  0.59721988  0.09318177  0.00000000  1
  B  B4  1  0.40681823  0.90278012  0.50000000  1
  B  B5  1  0.59318177  0.09721988  0.50000000  1
  B  B6  1  0.09318177  0.40278012  0.50000000  1
  B  B7  1  0.90681823  0.59721988  0.50000000  1
  B  B8  1  0.65256951  0.53405339  0.00000000  1
  B  B9  1  0.34743049  0.46594661  0.00000000  1
  B  B10  1  0.15256951  0.96594661  0.00000000  1
  B  B11  1  0.84743049  0.03405339  0.00000000  1
  B  B12  1  0.96594661  0.84743049  0.50000000  1
  B  B13  1  0.03405339  0.15256951  0.50000000  1
  B  B14  1  0.53405339  0.34743049  0.50000000  1
  B  B15  1  0.46594661  0.65256951  0.50000000  1
  C  C0  1  0.95968110  0.82211611  0.00000000  1
  C  C1  1  0.04031890  0.17788389  0.00000000  1
  C  C2  1  0.45968110  0.67788389  0.00000000  1
  C  C3  1  0.54031890  0.32211611  0.00000000  1
  C  C4  1  0.67788389  0.54031890  0.50000000  1
  C  C5  1  0.32211611  0.45968110  0.50000000  1
  C  C6  1  0.82211611  0.04031890  0.50000000  1
  C  C7  1  0.17788389  0.95968110  0.50000000  1
loop_
_geom_bond_atom_site_label_1
_geom_bond_atom_site_label_2
_geom_bond_distance
_geom_bond_site_symmetry_2
B0 C0 1.587357 1_555
B0 Yb0 2.706793 1_555
B0 Yb5 2.706793 1_554
B0 Yb3 2.716677 1_554
B0 Yb6 2.716677 1_555
B0 Yb1 2.732532 1_655
B0 Yb4 2.732532 1_654
B1 C1 1.587357 1_555
B1 Yb4 2.706793 1_554
B1 Yb1 2.706793 1_555
B1 Yb2 2.716677 1_554
B1 Yb7 2.716677 1_555
B1 Yb5 2.732532 1_454
B1 Yb0 2.732532 1_455
B2 C2 1.587357 1_555
B2 Yb2 2.706793 1_564
B2 Yb7 2.706793 1_565
B2 Yb1 2.716677 1_555
B2 Yb4 2.716677 1_554
B2 Yb6 2.732532 1_555
B2 Yb3 2.732532 1_554
B3 C3 1.587357 1_555
B3 Yb3 2.706793 1_544
B3 Yb6 2.706793 1_545
B3 Yb5 2.716677 1_554
B3 Yb0 2.716677 1_555
B3 Yb2 2.732532 1_554
B3 Yb7 2.732532 1_555
B4 C7 1.587357 1_555
B4 Yb3 2.706793 1_555
B4 Yb6 2.706793 1_555
B4 Yb4 2.716677 1_555
B4 Yb1 2.716677 1_555
B4 Yb2 2.732532 1_565
B4 Yb7 2.732532 1_565
B5 C6 1.587357 1_555
B5 Yb7 2.706793 1_555
B5 Yb2 2.706793 1_555
B5 Yb5 2.716677 1_555
B5 Yb0 2.716677 1_555
B5 Yb6 2.732532 1_545
B5 Yb3 2.732532 1_545
B6 C5 1.587357 1_555
B6 Yb5 2.706793 1_455
B6 Yb0 2.706793 1_455
B6 Yb2 2.716677 1_555
B6 Yb7 2.716677 1_555
B6 Yb4 2.732532 1_555
B6 Yb1 2.732532 1_555
B7 C4 1.587357 1_555
B7 Yb1 2.706793 1_655
B7 Yb4 2.706793 1_655
B7 Yb3 2.716677 1_555
B7 Yb6 2.716677 1_555
B7 Yb5 2.732532 1_555
B7 Yb0 2.732532 1_555
B8 C3 1.613793 1_555
B8 C2 1.619053 1_555
B8 Yb0 2.580920 1_555
B8 Yb5 2.580920 1_554
B8 Yb6 2.595715 1_555
B8 Yb3 2.595715 1_554
B9 C2 1.613793 1_555
B9 C3 1.619053 1_555
B9 Yb4 2.580920 1_554
B9 Yb1 2.580920 1_555
B9 Yb2 2.595715 1_554
B9 Yb7 2.595715 1_555
B10 C1 1.613793 1_565
B10 C0 1.619053 1_455
B10 Yb2 2.580920 1_564
B10 Yb7 2.580920 1_565
B10 Yb1 2.595715 1_555
B10 Yb4 2.595715 1_554
B11 C0 1.613793 1_545
B11 C1 1.619053 1_655
B11 Yb6 2.580920 1_545
B11 Yb3 2.580920 1_544
B11 Yb0 2.595715 1_555
B11 Yb5 2.595715 1_554
B12 C7 1.613793 1_655
B12 C6 1.619053 1_565
B12 Yb1 2.580920 1_655
B12 Yb4 2.580920 1_655
B12 Yb6 2.595715 1_555
B12 Yb3 2.595715 1_555
B13 C6 1.613793 1_455
B13 C7 1.619053 1_545
B13 Yb5 2.580920 1_455
B13 Yb0 2.580920 1_455
B13 Yb7 2.595715 1_555
B13 Yb2 2.595715 1_555
B14 C5 1.613793 1_555
B14 C4 1.619053 1_555
B14 Yb2 2.580920 1_555
B14 Yb7 2.580920 1_555
B14 Yb5 2.595715 1_555
B14 Yb0 2.595715 1_555
B15 C4 1.613793 1_555
B15 C5 1.619053 1_555
B15 Yb6 2.580920 1_555
B15 Yb3 2.580920 1_555
B15 Yb4 2.595715 1_555
B15 Yb1 2.595715 1_555
C0 Yb4 2.542097 1_654
C0 Yb1 2.542097 1_655
C0 Yb3 2.554151 1_554
C0 Yb6 2.554151 1_555
C1 Yb5 2.542097 1_454
C1 Yb0 2.542097 1_455
C1 Yb2 2.554151 1_554
C1 Yb7 2.554151 1_555
C2 Yb3 2.542097 1_554
C2 Yb6 2.542097 1_555
C2 Yb4 2.554151 1_554
C2 Yb1 2.554151 1_555
C3 Yb2 2.542097 1_554
C3 Yb7 2.542097 1_555
C3 Yb0 2.554151 1_555
C3 Yb5 2.554151 1_554
C4 Yb0 2.542097 1_555
C4 Yb5 2.542097 1_555
C4 Yb6 2.554151 1_555
C4 Yb3 2.554151 1_555
C5 Yb4 2.542097 1_555
C5 Yb1 2.542097 1_555
C5 Yb7 2.554151 1_555
C5 Yb2 2.554151 1_555
C6 Yb6 2.542097 1_545
C6 Yb3 2.542097 1_545
C6 Yb0 2.554151 1_555
C6 Yb5 2.554151 1_555
C7 Yb2 2.542097 1_565
C7 Yb7 2.542097 1_565
C7 Yb1 2.554151 1_555
C7 Yb4 2.554151 1_555
