# generated using pymatgen
data_Tl3SbS4
_symmetry_space_group_name_H-M   'P 1'
_cell_length_a   6.35238727
_cell_length_b   6.48003588
_cell_length_c   11.87059908
_cell_angle_alpha   94.71659830
_cell_angle_beta   98.77974232
_cell_angle_gamma   104.26779366
_symmetry_Int_Tables_number   1
_chemical_formula_structural   Tl3SbS4
_chemical_formula_sum   'Tl6 Sb2 S8'
_cell_volume   464.33820129
_cell_formula_units_Z   2
loop_
 _symmetry_equiv_pos_site_id
 _symmetry_equiv_pos_as_xyz
  1  'x, y, z'
loop_
 _atom_site_type_symbol
 _atom_site_label
 _atom_site_symmetry_multiplicity
 _atom_site_fract_x
 _atom_site_fract_y
 _atom_site_fract_z
 _atom_site_occupancy
  Tl  Tl0  1  0.51268980  0.51382080  0.50025333  1
  Tl  Tl1  1  0.22910866  0.68939310  0.20261168  1
  Tl  Tl2  1  0.02536253  0.98056454  0.47880174  1
  Tl  Tl3  1  0.97454344  0.99305946  0.00683820  1
  Tl  Tl4  1  0.30816164  0.80411542  0.77630543  1
  Tl  Tl5  1  0.56178974  0.49903127  0.97172287  1
  Sb  Sb0  1  0.83518185  0.26466939  0.73489551  1
  Sb  Sb1  1  0.70206519  0.22806424  0.24380656  1
  S  S0  1  0.07004445  0.20941906  0.26028508  1
  S  S1  1  0.54541452  0.04990852  0.38797570  1
  S  S2  1  0.83761272  0.90281511  0.71867983  1
  S  S3  1  0.46698956  0.28321605  0.71820582  1
  S  S4  1  0.99224576  0.44332414  0.59098787  1
  S  S5  1  0.50892262  0.05961348  0.05904497  1
  S  S6  1  0.69939941  0.58982725  0.26007471  1
  S  S7  1  0.02816812  0.43225717  0.91971072  1
loop_
_geom_bond_atom_site_label_1
_geom_bond_atom_site_label_2
_geom_bond_distance
_geom_bond_site_symmetry_2
S0 Sb1 2.349574 1_455
S0 Tl2 3.107755 1_545
S0 Tl3 3.116900 1_445
S0 Tl1 3.189925 1_555
S1 Sb1 2.351668 1_555
S1 Tl1 3.134932 1_545
S1 Tl2 3.226625 1_645
S1 Tl0 3.254278 1_555
S2 Sb0 2.340949 1_565
S2 Tl4 3.194032 1_655
S2 Tl2 3.280395 1_655
S3 Sb0 2.350566 1_555
S3 Tl0 3.108424 1_555
S3 Tl5 3.116798 1_555
S3 Tl4 3.186326 1_545
S4 Sb0 2.351615 1_555
S4 Tl4 3.134713 1_655
S4 Tl0 3.227088 1_555
S4 Tl2 3.248023 1_645
S5 Sb1 2.373140 1_555
S5 Tl5 3.068469 1_554
S6 Sb1 2.340757 1_555
S6 Tl1 3.194823 1_555
S6 Tl0 3.279198 1_555
S7 Sb0 2.371965 1_455
S7 Tl3 3.065827 1_446
