# generated using pymatgen
data_Na2CoO3
_symmetry_space_group_name_H-M   'P 1'
_cell_length_a   5.40455000
_cell_length_b   5.40707526
_cell_length_c   9.46968845
_cell_angle_alpha   101.26713978
_cell_angle_beta   101.16453799
_cell_angle_gamma   108.49146160
_symmetry_Int_Tables_number   1
_chemical_formula_structural   Na2CoO3
_chemical_formula_sum   'Na8 Co4 O12'
_cell_volume   247.47596100
_cell_formula_units_Z   4
loop_
 _symmetry_equiv_pos_site_id
 _symmetry_equiv_pos_as_xyz
  1  'x, y, z'
loop_
 _atom_site_type_symbol
 _atom_site_label
 _atom_site_symmetry_multiplicity
 _atom_site_fract_x
 _atom_site_fract_y
 _atom_site_fract_z
 _atom_site_occupancy
  Na  Na0  1  0.01582400  0.51806300  0.98851200  1
  Na  Na1  1  0.72915900  0.73346200  0.84503400  1
  Na  Na2  1  0.51759300  0.01420700  0.65547500  1
  Na  Na3  1  0.23152900  0.22986600  0.51227000  1
  Na  Na4  1  0.76520800  0.76287000  0.48851200  1
  Na  Na5  1  0.98206800  0.47866100  0.34504000  1
  Na  Na6  1  0.26736800  0.26442600  0.15571200  1
  Na  Na7  1  0.47985900  0.98230200  0.01194000  1
  Co  Co0  1  0.25518700  0.25753400  0.82797800  1
  Co  Co1  1  0.98888800  0.49045200  0.67254100  1
  Co  Co2  1  0.50791100  0.00814800  0.32764300  1
  Co  Co3  1  0.73938900  0.74067700  0.17281700  1
  O  O0  1  0.53507200  0.08370600  0.81032800  1
  O  O1  1  0.03164200  0.48498200  0.80984800  1
  O  O2  1  0.71133800  0.66374200  0.69033900  1
  O  O3  1  0.21522500  0.26275300  0.69057700  1
  O  O4  1  0.05753100  0.55576300  0.50057000  1
  O  O5  1  0.44346500  0.94228700  0.49973200  1
  O  O6  1  0.73497200  0.78202300  0.30941400  1
  O  O7  1  0.33310500  0.28703100  0.31037700  1
  O  O8  1  0.51143800  0.96624400  0.19102300  1
  O  O9  1  0.91354600  0.46112300  0.19029000  1
  O  O10  1  0.19041000  0.19327400  0.00027400  1
  O  O11  1  0.80570200  0.80749200  0.00041500  1
loop_
_geom_bond_atom_site_label_1
_geom_bond_atom_site_label_2
_geom_bond_distance
_geom_bond_site_symmetry_2
Na0 O1 1.687974 1_555
Na0 O9 2.140643 1_456
Na0 O11 2.204405 1_456
Na0 O10 2.252475 1_556
Na1 O11 1.387621 1_556
Na1 O2 1.415589 1_555
Na2 O5 1.391085 1_545
Na2 O0 1.417392 1_555
Na3 O3 1.685433 1_555
Na3 O7 2.140530 1_555
Na3 O5 2.203246 1_545
Na3 O4 2.255847 1_555
Na4 O6 1.698792 1_555
Na4 O2 2.131124 1_555
Na4 O4 2.205778 1_655
Na4 O5 2.253318 1_555
Na5 O4 1.388860 1_655
Na5 O9 1.416649 1_555
Na6 O10 1.388439 1_555
Na6 O7 1.409714 1_555
Na7 O8 1.693359 1_555
Na7 O0 2.135563 1_564
Na7 O10 2.207927 1_565
Na7 O11 2.257557 1_555
Co0 O3 1.284449 1_555
Co0 O10 1.808576 1_556
Co0 O1 1.986527 1_555
Co0 O0 2.034167 1_555
Co1 O1 1.283722 1_655
Co1 O4 1.813829 1_655
Co1 O3 1.999480 1_655
Co1 O2 2.020943 1_555
Co2 O8 1.274060 1_545
Co2 O5 1.808792 1_545
Co2 O6 1.995489 1_545
Co2 O7 2.033070 1_555
Co3 O6 1.275191 1_555
Co3 O11 1.816386 1_555
Co3 O8 1.997062 1_555
Co3 O9 2.034224 1_555
