# generated using pymatgen
data_Si6BiO14
_symmetry_space_group_name_H-M   'P 1'
_cell_length_a   13.16482906
_cell_length_b   13.16482906
_cell_length_c   13.16482906
_cell_angle_alpha   146.48886096
_cell_angle_beta   107.76062378
_cell_angle_gamma   82.02046483
_symmetry_Int_Tables_number   1
_chemical_formula_structural   Si6BiO14
_chemical_formula_sum   'Si24 Bi4 O56'
_cell_volume   1170.33803661
_cell_formula_units_Z   4
loop_
 _symmetry_equiv_pos_site_id
 _symmetry_equiv_pos_as_xyz
  1  'x, y, z'
loop_
 _atom_site_type_symbol
 _atom_site_label
 _atom_site_symmetry_multiplicity
 _atom_site_fract_x
 _atom_site_fract_y
 _atom_site_fract_z
 _atom_site_occupancy
  Si  Si0  1  0.52838500  0.79189500  0.02326500  1
  Si  Si1  1  0.57214100  0.40040000  0.67962800  1
  Si  Si2  1  0.62933200  0.82575600  0.45508700  1
  Si  Si3  1  0.72077200  0.89251300  0.32037200  1
  Si  Si4  1  0.76863000  0.50512000  0.97673500  1
  Si  Si5  1  0.67066200  0.23869400  0.90935600  1
  Si  Si6  1  0.77922800  0.09960000  0.17174100  1
  Si  Si7  1  0.73137000  0.70810500  0.73649000  1
  Si  Si8  1  0.87066800  0.32575600  0.19642400  1
  Si  Si9  1  0.97161500  0.99488000  0.26351000  1
  Si  Si10  1  0.92785900  0.60748700  0.82825900  1
  Si  Si11  1  0.82933800  0.73869400  0.56803200  1
  Si  Si12  1  0.17066200  0.26130600  0.43196800  1
  Si  Si13  1  0.07214100  0.39251300  0.17174100  1
  Si  Si14  1  0.02838500  0.00512000  0.73649000  1
  Si  Si15  1  0.12933200  0.67424400  0.80357600  1
  Si  Si16  1  0.26863000  0.29189500  0.26351000  1
  Si  Si17  1  0.22077200  0.90040000  0.82825900  1
  Si  Si18  1  0.32933800  0.76130600  0.09064400  1
  Si  Si19  1  0.23137000  0.49488000  0.02326500  1
  Si  Si20  1  0.27922800  0.10748700  0.67962800  1
  Si  Si21  1  0.37066800  0.17424400  0.54491300  1
  Si  Si22  1  0.42785900  0.59960000  0.32037200  1
  Si  Si23  1  0.47161500  0.20810500  0.97673500  1
  Bi  Bi0  1  0.53854800  0.25000000  0.28854800  1
  Bi  Bi1  1  0.96145200  0.25000000  0.71145200  1
  Bi  Bi2  1  0.03854800  0.75000000  0.28854800  1
  Bi  Bi3  1  0.46145200  0.75000000  0.71145200  1
  O  O0  1  0.56213800  0.25702800  0.46185300  1
  O  O1  1  0.51015500  0.69558200  0.33516700  1
  O  O2  1  0.50134200  0.07568800  0.96915800  1
  O  O3  1  0.53955200  0.60050000  0.80465400  1
  O  O4  1  0.64346300  0.88687200  0.19175900  1
  O  O5  1  0.56864400  0.26871700  0.97294200  1
  O  O6  1  0.70482500  0.24297200  0.30511000  1
  O  O7  1  0.63958500  0.82501200  0.33516700  1
  O  O8  1  0.69511200  0.45170400  0.80824100  1
  O  O9  1  0.72481700  0.73762000  0.46243700  1
  O  O10  1  0.60653000  0.57568800  0.57434600  1
  O  O11  1  0.79584600  0.73489800  0.19534600  1
  O  O12  1  0.70415400  0.89950000  0.93905100  1
  O  O13  1  0.63617800  0.03841300  0.67459100  1
  O  O14  1  0.70422400  0.40429800  0.97294200  1
  O  O15  1  0.85653700  0.04829600  0.24340800  1
  O  O16  1  0.77518300  0.23762000  0.01280300  1
  O  O17  1  0.86382200  0.53841300  0.40223500  1
  O  O18  1  0.79517500  0.10028500  0.53814700  1
  O  O19  1  0.80488800  0.61312800  0.75659200  1
  O  O20  1  0.86041500  0.19558200  0.18542700  1
  O  O21  1  0.79577600  0.76871700  0.70007300  1
  O  O22  1  0.00134200  0.03218400  0.42565400  1
  O  O23  1  0.96044800  0.76510200  0.06094900  1
  O  O24  1  0.93786200  0.39971500  0.69489000  1
  O  O25  1  0.89347000  0.46781600  0.96915800  1
  O  O26  1  0.98984500  0.32501200  0.18542700  1
  O  O27  1  0.06864400  0.09570200  0.29992700  1
  O  O28  1  0.93135600  0.90429800  0.70007300  1
  O  O29  1  0.01015500  0.67498800  0.81457300  1
  O  O30  1  0.10653000  0.53218400  0.03084200  1
  O  O31  1  0.06213800  0.60028500  0.30511000  1
  O  O32  1  0.03955200  0.23489800  0.93905100  1
  O  O33  1  0.99865800  0.96781600  0.57434600  1
  O  O34  1  0.20422400  0.23128300  0.29992700  1
  O  O35  1  0.13958500  0.80441800  0.81457300  1
  O  O36  1  0.19511200  0.38687200  0.24340800  1
  O  O37  1  0.20482500  0.89971500  0.46185300  1
  O  O38  1  0.13617800  0.46158700  0.59776500  1
  O  O39  1  0.22481700  0.76238000  0.98719700  1
  O  O40  1  0.14346300  0.95170400  0.75659200  1
  O  O41  1  0.29577600  0.59570200  0.02705800  1
  O  O42  1  0.36382200  0.96158700  0.32540900  1
  O  O43  1  0.29584600  0.10050000  0.06094900  1
  O  O44  1  0.20415400  0.26510200  0.80465400  1
  O  O45  1  0.39347000  0.42431200  0.42565400  1
  O  O46  1  0.27518300  0.26238000  0.53756300  1
  O  O47  1  0.30488800  0.54829600  0.19175900  1
  O  O48  1  0.36041500  0.17498800  0.66483300  1
  O  O49  1  0.29517500  0.75702800  0.69489000  1
  O  O50  1  0.43135600  0.73128300  0.02705800  1
  O  O51  1  0.35653700  0.11312800  0.80824100  1
  O  O52  1  0.46044800  0.39950000  0.19534600  1
  O  O53  1  0.49865800  0.92431200  0.03084200  1
  O  O54  1  0.48984500  0.30441800  0.66483300  1
  O  O55  1  0.43786200  0.74297200  0.53814700  1
loop_
_geom_bond_atom_site_label_1
_geom_bond_atom_site_label_2
_geom_bond_distance
_geom_bond_site_symmetry_2
Bi0 O6 2.129339 1_555
Bi0 O0 2.129339 1_555
Bi0 O53 2.334697 1_545
Bi0 O10 2.334697 1_555
Bi0 O45 2.480131 1_555
Bi0 O2 2.480131 1_554
Bi1 O24 2.129339 1_555
Bi1 O18 2.129339 1_555
Bi1 O22 2.334697 1_655
Bi1 O25 2.334697 1_555
Bi1 O30 2.480131 1_656
Bi1 O33 2.480131 1_545
Bi2 O31 2.129339 1_555
Bi2 O37 2.129339 1_555
Bi2 O33 2.334697 1_455
Bi2 O30 2.334697 1_555
Bi2 O25 2.480131 1_454
Bi2 O22 2.480131 1_565
Bi3 O55 2.129339 1_555
Bi3 O49 2.129339 1_555
Bi3 O2 2.334697 1_565
Bi3 O45 2.334697 1_555
Bi3 O10 2.480131 1_555
Bi3 O53 2.480131 1_556
O0 Si1 1.616910 1_555
O1 Si2 1.616971 1_555
O1 Si22 1.627669 1_555
O2 Si23 1.657242 1_555
O3 Si0 1.648031 1_556
O3 Si1 1.649042 1_555
O4 Si0 1.621620 1_555
O4 Si3 1.633450 1_555
O5 Si5 1.627120 1_555
O5 Si23 1.630716 1_555
O6 Si6 1.616910 1_555
O7 Si2 1.616955 1_555
O7 Si3 1.627669 1_555
O8 Si4 1.621623 1_555
O8 Si1 1.633440 1_555
O9 Si11 1.622254 1_555
O9 Si2 1.625999 1_555
O10 Si7 1.657242 1_555
O11 Si4 1.648031 1_554
O11 Si3 1.649042 1_555
O12 Si7 1.648025 1_555
O12 Si6 1.649047 1_566
O13 Si5 1.611707 1_555
O13 Si2 1.617683 1_545
O14 Si5 1.627116 1_555
O14 Si4 1.630724 1_555
O15 Si9 1.621623 1_545
O15 Si6 1.633440 1_555
O16 Si5 1.622254 1_554
O16 Si8 1.625993 1_555
O17 Si11 1.611707 1_555
O17 Si8 1.617679 1_555
O18 Si3 1.616910 1_545
O19 Si7 1.621634 1_555
O19 Si10 1.633435 1_555
O20 Si8 1.616969 1_555
O20 Si6 1.627669 1_555
O21 Si11 1.627113 1_555
O21 Si7 1.630725 1_555
O22 Si9 1.657242 1_445
O23 Si9 1.648030 1_555
O23 Si10 1.649052 1_554
O24 Si10 1.616910 1_555
O25 Si4 1.657242 1_555
O26 Si8 1.616969 1_555
O26 Si13 1.627669 1_655
O27 Si12 1.627120 1_555
O27 Si9 1.630716 1_445
O28 Si11 1.627120 1_555
O28 Si14 1.630716 1_665
O29 Si15 1.616969 1_555
O29 Si10 1.627669 1_455
O30 Si19 1.657242 1_555
O31 Si13 1.616910 1_555
O32 Si14 1.648030 1_555
O32 Si13 1.649052 1_556
O33 Si14 1.657242 1_665
O34 Si12 1.627113 1_555
O34 Si16 1.630725 1_555
O35 Si15 1.616969 1_555
O35 Si17 1.627669 1_555
O36 Si16 1.621634 1_555
O36 Si13 1.633435 1_555
O37 Si20 1.616910 1_565
O38 Si12 1.611707 1_555
O38 Si15 1.617679 1_555
O39 Si18 1.622254 1_556
O39 Si15 1.625993 1_555
O40 Si14 1.621623 1_565
O40 Si17 1.633440 1_555
O41 Si18 1.627116 1_555
O41 Si19 1.630724 1_555
O42 Si18 1.611707 1_555
O42 Si21 1.617683 1_565
O43 Si16 1.648025 1_555
O43 Si17 1.649047 1_544
O44 Si19 1.648031 1_556
O44 Si20 1.649042 1_555
O45 Si16 1.657242 1_555
O46 Si12 1.622254 1_555
O46 Si21 1.625999 1_555
O47 Si19 1.621623 1_555
O47 Si22 1.633440 1_555
O48 Si21 1.616955 1_555
O48 Si20 1.627669 1_555
O49 Si17 1.616910 1_555
O50 Si18 1.627120 1_555
O50 Si0 1.630716 1_555
O51 Si23 1.621620 1_555
O51 Si20 1.633450 1_555
O52 Si23 1.648031 1_554
O52 Si22 1.649042 1_555
O53 Si0 1.657242 1_555
O54 Si21 1.616971 1_555
O54 Si1 1.627669 1_555
O55 Si22 1.616910 1_555
