# generated using pymatgen
data_KTl3
_symmetry_space_group_name_H-M   'P 1'
_cell_length_a   7.74774359
_cell_length_b   7.74774215
_cell_length_c   5.24842899
_cell_angle_alpha   90.00000000
_cell_angle_beta   90.00000000
_cell_angle_gamma   120.00000166
_symmetry_Int_Tables_number   1
_chemical_formula_structural   KTl3
_chemical_formula_sum   'K2 Tl6'
_cell_volume   272.84144969
_cell_formula_units_Z   2
loop_
 _symmetry_equiv_pos_site_id
 _symmetry_equiv_pos_as_xyz
  1  'x, y, z'
loop_
 _atom_site_type_symbol
 _atom_site_label
 _atom_site_symmetry_multiplicity
 _atom_site_fract_x
 _atom_site_fract_y
 _atom_site_fract_z
 _atom_site_occupancy
  K  K0  1  0.66666700  0.33333300  0.25000000  1
  K  K1  1  0.33333300  0.66666700  0.75000000  1
  Tl  Tl0  1  0.85339480  0.14660320  0.75000000  1
  Tl  Tl1  1  0.29320841  0.14660320  0.75000000  1
  Tl  Tl2  1  0.85339480  0.70679059  0.75000000  1
  Tl  Tl3  1  0.14660420  0.85339680  0.25000000  1
  Tl  Tl4  1  0.70679059  0.85339580  0.25000000  1
  Tl  Tl5  1  0.14660420  0.29320941  0.25000000  1
loop_
_geom_bond_atom_site_label_1
_geom_bond_atom_site_label_2
_geom_bond_distance
_geom_bond_site_symmetry_2
K0 Tl2 3.628437 1_554
K0 Tl2 3.628437 1_555
K0 Tl0 3.628437 1_554
K0 Tl0 3.628437 1_555
K0 Tl1 3.628442 1_555
K0 Tl1 3.628442 1_554
K0 Tl4 3.883207 1_545
K0 Tl5 3.883208 1_655
K0 Tl3 3.883212 1_545
K0 Tl3 3.883220 1_655
K0 Tl4 3.883222 1_555
K0 Tl5 3.883223 1_555
K1 Tl5 3.628437 1_556
K1 Tl5 3.628437 1_555
K1 Tl4 3.628437 1_556
K1 Tl4 3.628437 1_555
K1 Tl3 3.628442 1_555
K1 Tl3 3.628442 1_556
K1 Tl1 3.883204 1_565
K1 Tl0 3.883208 1_565
K1 Tl2 3.883215 1_455
K1 Tl2 3.883215 1_555
K1 Tl0 3.883224 1_455
K1 Tl1 3.883227 1_555
Tl0 Tl4 3.279779 1_545
Tl0 Tl4 3.279779 1_546
Tl0 Tl5 3.279787 1_655
Tl0 Tl5 3.279787 1_656
Tl0 Tl2 3.407555 1_545
Tl0 Tl1 3.407563 1_655
Tl1 Tl3 3.279775 1_545
Tl1 Tl3 3.279775 1_546
Tl1 Tl5 3.279791 1_555
Tl1 Tl5 3.279791 1_556
Tl1 Tl2 3.407559 1_445
Tl2 Tl3 3.279787 1_655
Tl2 Tl3 3.279787 1_656
Tl2 Tl4 3.279787 1_556
Tl2 Tl4 3.279787 1_555
Tl3 Tl5 3.407555 1_565
Tl3 Tl4 3.407559 1_455
Tl4 Tl5 3.407563 1_665
