# generated using pymatgen
data_Pu2S3
_symmetry_space_group_name_H-M   'P 1'
_cell_length_a   7.07398171
_cell_length_b   7.07398109
_cell_length_c   7.40461513
_cell_angle_alpha   118.53358140
_cell_angle_beta   61.46642367
_cell_angle_gamma   119.99999260
_symmetry_Int_Tables_number   1
_chemical_formula_structural   Pu2S3
_chemical_formula_sum   'Pu4 S6'
_cell_volume   267.66646056
_cell_formula_units_Z   2
loop_
 _symmetry_equiv_pos_site_id
 _symmetry_equiv_pos_as_xyz
  1  'x, y, z'
loop_
 _atom_site_type_symbol
 _atom_site_label
 _atom_site_symmetry_multiplicity
 _atom_site_fract_x
 _atom_site_fract_y
 _atom_site_fract_z
 _atom_site_occupancy
  Pu  Pu0  1  0.64766306  0.35233794  0.05701281  1
  Pu  Pu1  1  0.85233694  0.14766206  0.44298619  1
  Pu  Pu2  1  0.14766206  0.85233694  0.55701281  1
  Pu  Pu3  1  0.35233894  0.64766306  0.94298619  1
  S  S0  1  0.95525658  0.45525658  0.25000000  1
  S  S1  1  0.54474242  0.74999900  0.25000000  1
  S  S2  1  0.24999900  0.04474242  0.25000000  1
  S  S3  1  0.74999900  0.95525758  0.75000100  1
  S  S4  1  0.45525658  0.25000000  0.75000100  1
  S  S5  1  0.04474342  0.54474342  0.75000100  1
loop_
_geom_bond_atom_site_label_1
_geom_bond_atom_site_label_2
_geom_bond_distance
_geom_bond_site_symmetry_2
Pu0 S0 2.774728 1_555
Pu0 S1 2.774729 1_555
Pu0 S2 2.774741 1_555
Pu0 S3 2.818318 1_544
Pu0 S5 2.818321 1_654
Pu0 S4 2.818323 1_554
Pu1 S0 2.774726 1_555
Pu1 S1 2.774731 1_545
Pu1 S2 2.774733 1_655
Pu1 S4 2.818328 1_555
Pu1 S3 2.818333 1_545
Pu1 S5 2.818338 1_655
Pu2 S5 2.774734 1_555
Pu2 S4 2.774738 1_565
Pu2 S3 2.774741 1_455
Pu2 S0 2.818325 1_455
Pu2 S1 2.818325 1_555
Pu2 S2 2.818327 1_565
Pu3 S3 2.774721 1_555
Pu3 S5 2.774727 1_555
Pu3 S4 2.774732 1_555
Pu3 S1 2.818326 1_556
Pu3 S2 2.818326 1_566
Pu3 S0 2.818337 1_456
