# generated using pymatgen
data_Li3Fe9O5F11
_symmetry_space_group_name_H-M   'P 1'
_cell_length_a   6.27003600
_cell_length_b   6.28720319
_cell_length_c   10.70296139
_cell_angle_alpha   73.05042305
_cell_angle_beta   72.98149852
_cell_angle_gamma   60.40975596
_symmetry_Int_Tables_number   1
_chemical_formula_structural   Li3Fe9O5F11
_chemical_formula_sum   'Li3 Fe9 O5 F11'
_cell_volume   345.30134029
_cell_formula_units_Z   1
loop_
 _symmetry_equiv_pos_site_id
 _symmetry_equiv_pos_as_xyz
  1  'x, y, z'
loop_
 _atom_site_type_symbol
 _atom_site_label
 _atom_site_symmetry_multiplicity
 _atom_site_fract_x
 _atom_site_fract_y
 _atom_site_fract_z
 _atom_site_occupancy
  Li  Li0  1  0.92730900  0.94524000  0.68774000  1
  Li  Li1  1  0.94280900  0.44509500  0.19446400  1
  Li  Li2  1  0.44401600  0.93763700  0.19779600  1
  Fe  Fe0  1  0.68743900  0.70245900  0.92661800  1
  Fe  Fe1  1  0.98355400  0.99090700  0.02713900  1
  Fe  Fe2  1  0.43964200  0.94316400  0.69222500  1
  Fe  Fe3  1  0.93235500  0.44621700  0.68839400  1
  Fe  Fe4  1  0.86380600  0.86645200  0.35431500  1
  Fe  Fe5  1  0.43272700  0.35115400  0.85933100  1
  Fe  Fe6  1  0.47753900  0.47400400  0.50930300  1
  Fe  Fe7  1  0.42346700  0.42902800  0.19907100  1
  Fe  Fe8  1  0.20018000  0.20458700  0.42530500  1
  O  O0  1  0.59224700  0.57301200  0.79950600  1
  O  O1  1  0.58375600  0.03025600  0.80551100  1
  O  O2  1  0.26961200  0.29935800  0.57405400  1
  O  O3  1  0.07191600  0.55209600  0.29794900  1
  O  O4  1  0.54968500  0.08000500  0.29633400  1
  F  F0  1  0.82755700  0.82350700  0.56545100  1
  F  F1  1  0.82156700  0.30032700  0.56219300  1
  F  F2  1  0.30164400  0.82893300  0.57036800  1
  F  F3  1  0.06395600  0.57469500  0.81127100  1
  F  F4  1  0.79404000  0.78901300  0.07081000  1
  F  F5  1  0.56382700  0.56966600  0.30737700  1
  F  F6  1  0.05067900  0.06239200  0.82243300  1
  F  F7  1  0.79778200  0.34480800  0.06093700  1
  F  F8  1  0.33192100  0.79600300  0.07091200  1
  F  F9  1  0.07699400  0.07823600  0.30827700  1
  F  F10  1  0.29797700  0.31174700  0.06491600  1
loop_
_geom_bond_atom_site_label_1
_geom_bond_atom_site_label_2
_geom_bond_distance
_geom_bond_site_symmetry_2
Li0 O1 2.044753 1_565
Li1 O3 1.957487 1_655
Li2 O4 1.974228 1_565
Fe0 O1 1.990653 1_565
Fe0 O0 2.114268 1_555
Fe2 O1 2.025719 1_565
Fe2 O2 2.128706 1_565
Fe2 O0 2.129756 1_555
Fe3 O0 1.996664 1_555
Fe3 O2 2.009361 1_655
Fe4 O3 1.913195 1_655
Fe4 O4 1.919633 1_565
Fe5 O1 1.941791 1_555
Fe5 O0 1.959138 1_555
Fe6 O2 1.956223 1_555
Fe7 O4 1.990114 1_555
Fe7 O3 2.001230 1_555
Fe8 O2 2.072239 1_555
Fe8 O3 2.109107 1_555
Fe8 O4 2.117963 1_555
F0 Li0 2.055743 1_555
F0 Fe4 2.152991 1_555
F0 Fe3 2.221926 1_555
F0 Fe2 2.275765 1_555
F1 Fe6 2.047909 1_555
F1 Li0 2.130692 1_545
F1 Fe3 2.247036 1_555
F1 Fe8 2.282855 1_655
F2 Fe6 2.149661 1_555
F2 Li0 2.176317 1_455
F2 Fe2 2.187672 1_555
F2 Fe8 2.312942 1_565
F3 Fe5 2.156738 1_555
F3 Fe0 2.177613 1_455
F3 Li0 2.192146 1_455
F3 Fe3 2.230660 1_455
F4 Fe1 2.015001 1_555
F4 Li1 2.087891 1_555
F4 Li2 2.122755 1_555
F4 Fe0 2.139461 1_554
F5 Fe6 2.050435 1_555
F5 Li2 2.123559 1_555
F5 Li1 2.180203 1_555
F5 Fe7 2.205309 1_555
F6 Fe1 2.062119 1_446
F6 Li0 2.248038 1_445
F6 Fe2 2.294779 1_545
F6 Fe3 2.295290 1_455
F7 Fe1 2.025225 1_545
F7 Fe0 2.182355 1_554
F7 Li1 2.262564 1_555
F7 Fe7 2.274301 1_555
F8 Fe1 2.028065 1_455
F8 Fe7 2.200468 1_555
F8 Fe0 2.218022 1_554
F8 Li2 2.238997 1_555
F9 Li2 2.117304 1_545
F9 Fe8 2.132820 1_555
F9 Li1 2.134707 1_455
F9 Fe4 2.189106 1_445
F10 Fe5 2.101781 1_554
F10 Li1 2.147340 1_455
F10 Fe7 2.253023 1_555
F10 Li2 2.253524 1_545
