# generated using pymatgen
data_Yb2TiO5
_symmetry_space_group_name_H-M   'P 1'
_cell_length_a   5.18879019
_cell_length_b   6.27757244
_cell_length_c   7.37676721
_cell_angle_alpha   68.23209924
_cell_angle_beta   90.00000019
_cell_angle_gamma   65.58894944
_symmetry_Int_Tables_number   1
_chemical_formula_structural   Yb2TiO5
_chemical_formula_sum   'Yb4 Ti2 O10'
_cell_volume   199.83608228
_cell_formula_units_Z   2
loop_
 _symmetry_equiv_pos_site_id
 _symmetry_equiv_pos_as_xyz
  1  'x, y, z'
loop_
 _atom_site_type_symbol
 _atom_site_label
 _atom_site_symmetry_multiplicity
 _atom_site_fract_x
 _atom_site_fract_y
 _atom_site_fract_z
 _atom_site_occupancy
  Yb  Yb0  1  0.62877000  0.72113906  0.75598884  1
  Yb  Yb1  1  0.65008994  0.72113906  0.25598884  1
  Yb  Yb2  1  0.34991006  0.27886094  0.74401116  1
  Yb  Yb3  1  0.37123000  0.27886094  0.24401116  1
  Ti  Ti0  1  0.00000000  0.00000000  0.50000000  1
  Ti  Ti1  1  0.00000000  0.00000000  0.00000000  1
  O  O0  1  0.75405747  0.85193016  0.95877841  1
  O  O1  1  0.39401337  0.85193016  0.45877841  1
  O  O2  1  0.01977196  0.65834817  0.64172294  1
  O  O3  1  0.67812013  0.34165183  0.85827706  1
  O  O4  1  0.32187987  0.65834817  0.14172294  1
  O  O5  1  0.98022804  0.34165183  0.35827706  1
  O  O6  1  0.60598663  0.14806984  0.54122159  1
  O  O7  1  0.17000893  1.00000000  0.75000000  1
  O  O8  1  0.24594253  0.14806984  0.04122159  1
  O  O9  1  0.82999107  0.00000000  0.25000000  1
loop_
_geom_bond_atom_site_label_1
_geom_bond_atom_site_label_2
_geom_bond_distance
_geom_bond_site_symmetry_2
O0 Ti1 1.942967 1_666
O0 Yb0 2.164881 1_555
O0 Yb1 2.191567 1_556
O0 Yb2 2.509118 1_565
O1 Ti0 1.942972 1_565
O1 Yb1 2.164877 1_555
O1 Yb0 2.191563 1_555
O1 Yb3 2.509118 1_565
O2 Ti0 1.964308 1_565
O2 Yb2 2.114861 1_555
O2 Yb0 2.137156 1_455
O3 Ti1 1.964307 1_656
O3 Yb0 2.114860 1_555
O3 Yb2 2.137152 1_555
O4 Ti1 1.964307 1_565
O4 Yb3 2.114860 1_555
O4 Yb1 2.137152 1_555
O5 Ti0 1.964308 1_655
O5 Yb1 2.114861 1_555
O5 Yb3 2.137156 1_655
O6 Ti0 1.942972 1_655
O6 Yb2 2.164877 1_555
O6 Yb3 2.191563 1_555
O6 Yb0 2.509118 1_545
O7 Ti0 2.044313 1_565
O7 Ti1 2.044313 1_566
O7 Yb0 2.287163 1_555
O7 Yb2 2.287167 1_565
O8 Ti1 1.942967 1_555
O8 Yb3 2.164881 1_555
O8 Yb2 2.191567 1_554
O8 Yb1 2.509118 1_545
O9 Ti0 2.044313 1_655
O9 Ti1 2.044313 1_655
O9 Yb3 2.287163 1_555
O9 Yb1 2.287167 1_545
