# generated using pymatgen
data_Mn8O13F3
_symmetry_space_group_name_H-M   'P 1'
_cell_length_a   4.51698600
_cell_length_b   5.54137032
_cell_length_c   9.99298018
_cell_angle_alpha   89.62126158
_cell_angle_beta   89.88212851
_cell_angle_gamma   89.00395290
_symmetry_Int_Tables_number   1
_chemical_formula_structural   Mn8O13F3
_chemical_formula_sum   'Mn8 O13 F3'
_cell_volume   250.08348255
_cell_formula_units_Z   1
loop_
 _symmetry_equiv_pos_site_id
 _symmetry_equiv_pos_as_xyz
  1  'x, y, z'
loop_
 _atom_site_type_symbol
 _atom_site_label
 _atom_site_symmetry_multiplicity
 _atom_site_fract_x
 _atom_site_fract_y
 _atom_site_fract_z
 _atom_site_occupancy
  Mn  Mn0  1  0.02354200  0.16318300  0.61942400  1
  Mn  Mn1  1  0.01309700  0.85062000  0.36798900  1
  Mn  Mn2  1  0.98618400  0.14061700  0.11932200  1
  Mn  Mn3  1  0.00922700  0.84081700  0.87338600  1
  Mn  Mn4  1  0.48762300  0.36366800  0.88301200  1
  Mn  Mn5  1  0.51529800  0.35266900  0.38003300  1
  Mn  Mn6  1  0.51710700  0.66181700  0.12556900  1
  Mn  Mn7  1  0.48549600  0.64041000  0.63007500  1
  O  O0  1  0.23727700  0.10910800  0.45585900  1
  O  O1  1  0.22427800  0.11654300  0.95849700  1
  O  O2  1  0.23295800  0.88938700  0.20655800  1
  O  O3  1  0.22752200  0.88566000  0.70761700  1
  O  O4  1  0.26750000  0.60615700  0.46137500  1
  O  O5  1  0.27144800  0.39671300  0.71794800  1
  O  O6  1  0.27220300  0.61417100  0.96779600  1
  O  O7  1  0.72837900  0.38552300  0.04185400  1
  O  O8  1  0.73466400  0.61221100  0.29025100  1
  O  O9  1  0.72951200  0.38585900  0.54201500  1
  O  O10  1  0.72448300  0.61058200  0.79124200  1
  O  O11  1  0.76736400  0.10824100  0.28800100  1
  O  O12  1  0.77357400  0.89000000  0.03360900  1
  F  F0  1  0.26012400  0.37909400  0.21225800  1
  F  F1  1  0.75437800  0.12074700  0.78702900  1
  F  F2  1  0.75676200  0.87620100  0.53928300  1
loop_
_geom_bond_atom_site_label_1
_geom_bond_atom_site_label_2
_geom_bond_distance
_geom_bond_site_symmetry_2
Mn0 O0 1.919214 1_555
Mn0 O9 1.954359 1_455
Mn0 O3 1.981617 1_545
Mn0 O5 1.992399 1_555
Mn1 O2 1.905518 1_555
Mn1 O11 1.960201 1_465
Mn1 O0 1.979607 1_565
Mn1 O4 1.989991 1_555
Mn1 O8 2.001479 1_455
Mn2 O12 1.910514 1_545
Mn2 O7 1.931835 1_555
Mn2 O1 1.935975 1_654
Mn2 O11 1.961049 1_555
Mn2 O2 1.968388 1_645
Mn3 O12 1.938949 1_456
Mn3 O3 1.942794 1_555
Mn3 O6 1.953336 1_555
Mn3 O10 2.007744 1_455
Mn3 O1 2.018319 1_565
Mn4 O6 1.885935 1_555
Mn4 O5 1.924632 1_555
Mn4 O7 1.931596 1_556
Mn4 O10 1.971806 1_555
Mn4 O1 1.974473 1_555
Mn5 O9 1.899153 1_555
Mn5 O4 1.960445 1_555
Mn5 O8 1.970807 1_555
Mn5 O11 1.983755 1_555
Mn5 O0 2.003573 1_555
Mn6 O8 1.934104 1_555
Mn6 O6 1.949877 1_554
Mn6 O12 1.953589 1_555
Mn6 O2 1.961010 1_555
Mn6 O7 1.979269 1_555
Mn7 O5 1.885664 1_555
Mn7 O3 1.939165 1_555
Mn7 O10 1.945227 1_555
Mn7 O4 1.966002 1_555
Mn7 O9 1.984263 1_555
F0 Mn5 2.039534 1_555
F0 Mn2 2.053717 1_455
F0 Mn6 2.143241 1_555
F1 Mn4 2.034646 1_555
F1 Mn0 2.082078 1_655
F1 Mn3 2.097705 1_645
F2 Mn7 2.016722 1_555
F2 Mn1 2.068847 1_655
F2 Mn0 2.170227 1_665
