# generated using pymatgen
data_Re3Os
_symmetry_space_group_name_H-M   'P 1'
_cell_length_a   5.53102431
_cell_length_b   5.53101105
_cell_length_c   4.41333776
_cell_angle_alpha   90.00010183
_cell_angle_beta   89.99989939
_cell_angle_gamma   120.01222464
_symmetry_Int_Tables_number   1
_chemical_formula_structural   Re3Os
_chemical_formula_sum   'Re6 Os2'
_cell_volume   116.91073220
_cell_formula_units_Z   2
loop_
 _symmetry_equiv_pos_site_id
 _symmetry_equiv_pos_as_xyz
  1  'x, y, z'
loop_
 _atom_site_type_symbol
 _atom_site_label
 _atom_site_symmetry_multiplicity
 _atom_site_fract_x
 _atom_site_fract_y
 _atom_site_fract_z
 _atom_site_occupancy
  Re  Re0  1  0.83453813  0.16546307  0.74987891  1
  Re  Re1  1  0.33073192  0.16544533  0.74986259  1
  Re  Re2  1  0.83456080  0.66927275  0.74986293  1
  Re  Re3  1  0.16546087  0.83453993  0.25012309  1
  Re  Re4  1  0.66927008  0.83455667  0.25013841  1
  Re  Re5  1  0.16544120  0.33072925  0.25013707  1
  Os  Os0  1  0.66673190  0.33326800  0.25007658  1
  Os  Os1  1  0.33327110  0.66673300  0.74992442  1
loop_
_geom_bond_atom_site_label_1
_geom_bond_atom_site_label_2
_geom_bond_distance
_geom_bond_site_symmetry_2
Re0 Re5 2.715889 1_655
Re0 Re4 2.715891 1_545
Re0 Re5 2.717742 1_656
Re0 Re4 2.717754 1_546
Re0 Re2 2.744497 1_545
Re0 Re1 2.744509 1_655
Re0 Re2 2.786514 1_555
Re0 Re1 2.786515 1_555
Re1 Re5 2.715086 1_555
Re1 Re3 2.715884 1_545
Re1 Re5 2.717049 1_556
Re1 Re3 2.717755 1_546
Re1 Re2 2.743828 1_445
Re1 Re2 2.786167 1_555
Re2 Re4 2.715082 1_555
Re2 Re3 2.715873 1_655
Re2 Re4 2.717052 1_556
Re2 Re3 2.717741 1_656
Re3 Re5 2.744483 1_565
Re3 Re4 2.744490 1_455
Re3 Re5 2.786528 1_555
Re3 Re4 2.786535 1_555
Re4 Re5 2.743828 1_665
Re4 Re5 2.786167 1_555
Os0 Re0 2.729501 1_555
Os0 Re1 2.730363 1_555
Os0 Re2 2.730375 1_555
Os0 Re0 2.730906 1_554
Os0 Re1 2.731892 1_554
Os0 Re2 2.731902 1_554
Os0 Re3 2.765022 1_545
Os0 Re3 2.765027 1_655
Os0 Re5 2.765424 1_655
Os0 Re4 2.765427 1_545
Os0 Re4 2.765638 1_555
Os0 Re5 2.765654 1_555
Os1 Re3 2.729515 1_555
Os1 Re4 2.730360 1_555
Os1 Re5 2.730376 1_555
Os1 Re3 2.730927 1_556
Os1 Re4 2.731889 1_556
Os1 Re5 2.731895 1_556
Os1 Re0 2.765017 1_565
Os1 Re0 2.765033 1_455
Os1 Re2 2.765432 1_455
Os1 Re1 2.765435 1_565
Os1 Re1 2.765630 1_555
Os1 Re2 2.765646 1_555
