# generated using pymatgen
data_ZrAlAu2
_symmetry_space_group_name_H-M   'P 1'
_cell_length_a   4.67101806
_cell_length_b   4.67101806
_cell_length_c   4.67101806
_cell_angle_alpha   60.03321086
_cell_angle_beta   60.03321086
_cell_angle_gamma   60.03321086
_symmetry_Int_Tables_number   1
_chemical_formula_structural   ZrAlAu2
_chemical_formula_sum   'Zr1 Al1 Au2'
_cell_volume   72.11846313
_cell_formula_units_Z   1
loop_
 _symmetry_equiv_pos_site_id
 _symmetry_equiv_pos_as_xyz
  1  'x, y, z'
loop_
 _atom_site_type_symbol
 _atom_site_label
 _atom_site_symmetry_multiplicity
 _atom_site_fract_x
 _atom_site_fract_y
 _atom_site_fract_z
 _atom_site_occupancy
  Zr  Zr0  1  0.75000000  0.75000000  0.75000000  1
  Al  Al0  1  0.24999900  0.24999900  0.24999900  1
  Au  Au0  1  0.00010682  0.00010682  0.00010682  1
  Au  Au1  1  0.49989518  0.49989518  0.49989518  1
loop_
_geom_bond_atom_site_label_1
_geom_bond_atom_site_label_2
_geom_bond_distance
_geom_bond_site_symmetry_2
Al0 Au0 2.858451 1_555
Al0 Au1 2.858497 1_555
Al0 Au1 2.861995 1_545
Al0 Au1 2.861995 1_455
Al0 Au1 2.861995 1_554
Al0 Au0 2.862010 1_556
Al0 Au0 2.862010 1_565
Al0 Au0 2.862010 1_655
Au0 Zr0 2.860906 1_444
Au0 Zr0 2.861192 1_454
Au0 Zr0 2.861192 1_544
Au0 Zr0 2.861192 1_445
Au1 Zr0 2.860884 1_555
Au1 Zr0 2.861200 1_545
Au1 Zr0 2.861200 1_455
Au1 Zr0 2.861200 1_554
