# generated using pymatgen
data_Sr5Cd2Sb5F
_symmetry_space_group_name_H-M   'P 1'
_cell_length_a   11.47350994
_cell_length_b   11.47350994
_cell_length_c   14.90723400
_cell_angle_alpha   90.00000000
_cell_angle_beta   90.00000000
_cell_angle_gamma   155.84699107
_symmetry_Int_Tables_number   1
_chemical_formula_structural   Sr5Cd2Sb5F
_chemical_formula_sum   'Sr10 Cd4 Sb10 F2'
_cell_volume   802.96860125
_cell_formula_units_Z   2
loop_
 _symmetry_equiv_pos_site_id
 _symmetry_equiv_pos_as_xyz
  1  'x, y, z'
loop_
 _atom_site_type_symbol
 _atom_site_label
 _atom_site_symmetry_multiplicity
 _atom_site_fract_x
 _atom_site_fract_y
 _atom_site_fract_z
 _atom_site_occupancy
  Sr  Sr0  1  0.90007100  0.09992900  0.25000000  1
  Sr  Sr1  1  0.09992900  0.90007100  0.75000000  1
  Sr  Sr2  1  0.09776900  0.90223100  0.25000000  1
  Sr  Sr3  1  0.90223100  0.09776900  0.75000000  1
  Sr  Sr4  1  0.72875300  0.27124700  0.61981400  1
  Sr  Sr5  1  0.27124700  0.72875300  0.11981400  1
  Sr  Sr6  1  0.27124700  0.72875300  0.38018600  1
  Sr  Sr7  1  0.72875300  0.27124700  0.88018600  1
  Sr  Sr8  1  0.00000000  0.00000000  0.00000000  1
  Sr  Sr9  1  0.00000000  0.00000000  0.50000000  1
  Cd  Cd0  1  0.63155900  0.36844100  0.08626400  1
  Cd  Cd1  1  0.36844100  0.63155900  0.58626400  1
  Cd  Cd2  1  0.36844100  0.63155900  0.91373600  1
  Cd  Cd3  1  0.63155900  0.36844100  0.41373600  1
  Sb  Sb0  1  0.50503500  0.49496500  0.15421300  1
  Sb  Sb1  1  0.49496500  0.50503500  0.65421300  1
  Sb  Sb2  1  0.49496500  0.50503500  0.84578700  1
  Sb  Sb3  1  0.50503500  0.49496500  0.34578700  1
  Sb  Sb4  1  0.70671600  0.29328400  0.25000000  1
  Sb  Sb5  1  0.29328400  0.70671600  0.75000000  1
  Sb  Sb6  1  0.85093400  0.14906600  0.02019700  1
  Sb  Sb7  1  0.14906600  0.85093400  0.52019700  1
  Sb  Sb8  1  0.14906600  0.85093400  0.97980300  1
  Sb  Sb9  1  0.85093400  0.14906600  0.47980300  1
  F  F0  1  0.34423700  0.65576300  0.25000000  1
  F  F1  1  0.65576300  0.34423700  0.75000000  1
loop_
_geom_bond_atom_site_label_1
_geom_bond_atom_site_label_2
_geom_bond_distance
_geom_bond_site_symmetry_2
Cd0 Sb8 2.904346 1_654
Cd0 Sb8 2.904346 1_544
Cd0 Sb4 2.966801 1_555
Cd0 Sb0 3.014381 1_555
Cd0 Sr2 3.506403 1_545
Cd0 Sr2 3.506403 1_655
Cd1 Sb9 2.904346 1_565
Cd1 Sb9 2.904346 1_455
Cd1 Sb5 2.966801 1_555
Cd1 Sb1 3.014381 1_555
Cd1 Sr3 3.506403 1_565
Cd1 Sr3 3.506403 1_455
Cd2 Sb6 2.904346 1_566
Cd2 Sb6 2.904346 1_456
Cd2 Sb5 2.966801 1_555
Cd2 Sb2 3.014381 1_555
Cd2 Sr3 3.506403 1_565
Cd2 Sr3 3.506403 1_455
Cd3 Sb7 2.904346 1_655
Cd3 Sb7 2.904346 1_545
Cd3 Sb4 2.966801 1_555
Cd3 Sb3 3.014381 1_555
Cd3 Sr2 3.506403 1_545
Cd3 Sr2 3.506403 1_655
Sb0 Sb3 2.855838 1_555
Sb0 Sr8 3.325638 1_555
Sb0 Sr8 3.325638 1_665
Sb0 Sr2 3.482988 1_545
Sb0 Sr2 3.482988 1_655
Sb0 Sr0 3.653578 1_565
Sb0 Sr0 3.653578 1_455
Sb1 Sb2 2.855838 1_555
Sb1 Sr9 3.325638 1_555
Sb1 Sr9 3.325638 1_665
Sb1 Sr3 3.482988 1_565
Sb1 Sr3 3.482988 1_455
Sb1 Sr1 3.653578 1_545
Sb1 Sr1 3.653578 1_655
Sb2 Sr8 3.325638 1_666
Sb2 Sr8 3.325638 1_556
Sb2 Sr3 3.482988 1_565
Sb2 Sr3 3.482988 1_455
Sb2 Sr1 3.653578 1_545
Sb2 Sr1 3.653578 1_655
Sb3 Sr9 3.325638 1_665
Sb3 Sr9 3.325638 1_555
Sb3 Sr2 3.482988 1_545
Sb3 Sr2 3.482988 1_655
Sb3 Sr0 3.653578 1_565
Sb3 Sr0 3.653578 1_455
Sb4 Sr6 3.409596 1_545
Sb4 Sr6 3.409596 1_655
Sb4 Sr5 3.409596 1_655
Sb4 Sr5 3.409596 1_545
Sb4 Sr2 3.426175 1_545
Sb4 Sr2 3.426175 1_655
Sb5 Sr7 3.409596 1_565
Sb5 Sr4 3.409596 1_565
Sb5 Sr4 3.409596 1_455
Sb5 Sr7 3.409596 1_455
Sb5 Sr3 3.426175 1_565
Sb5 Sr3 3.426175 1_455
Sb6 Sr5 3.341379 1_655
Sb6 Sr5 3.341379 1_545
Sb6 Sr8 3.358442 1_655
Sb6 Sr7 3.445708 1_554
Sb6 Sr0 3.598794 1_555
Sb7 Sr4 3.341379 1_565
Sb7 Sr4 3.341379 1_455
Sb7 Sr9 3.358442 1_565
Sb7 Sr6 3.445708 1_555
Sb7 Sr1 3.598794 1_555
Sb8 Sr7 3.341379 1_565
Sb8 Sr7 3.341379 1_455
Sb8 Sr8 3.358442 1_566
Sb8 Sr5 3.445708 1_556
Sb8 Sr1 3.598794 1_555
Sb9 Sr6 3.341379 1_545
Sb9 Sr6 3.341379 1_655
Sb9 Sr9 3.358442 1_655
Sb9 Sr4 3.445708 1_555
Sb9 Sr0 3.598794 1_555
F0 Sr5 2.539463 1_555
F0 Sr6 2.539463 1_555
F0 Sr0 2.707746 1_455
F0 Sr0 2.707746 1_565
F1 Sr7 2.539463 1_555
F1 Sr4 2.539463 1_555
F1 Sr1 2.707746 1_545
F1 Sr1 2.707746 1_655
