# generated using pymatgen
data_Ba3Yb4O9
_symmetry_space_group_name_H-M   'P 1'
_cell_length_a   8.99476008
_cell_length_b   8.99476008
_cell_length_c   8.99476035
_cell_angle_alpha   38.98317928
_cell_angle_beta   38.98317928
_cell_angle_gamma   38.98317879
_symmetry_Int_Tables_number   1
_chemical_formula_structural   Ba3Yb4O9
_chemical_formula_sum   'Ba3 Yb4 O9'
_cell_volume   258.99764206
_cell_formula_units_Z   1
loop_
 _symmetry_equiv_pos_site_id
 _symmetry_equiv_pos_as_xyz
  1  'x, y, z'
loop_
 _atom_site_type_symbol
 _atom_site_label
 _atom_site_symmetry_multiplicity
 _atom_site_fract_x
 _atom_site_fract_y
 _atom_site_fract_z
 _atom_site_occupancy
  Ba  Ba0  1  0.01162409  0.01162409  0.01162409  1
  Ba  Ba1  1  0.17429318  0.17429318  0.17429318  1
  Ba  Ba2  1  0.59089706  0.59089706  0.59089706  1
  Yb  Yb0  1  0.43575765  0.43575765  0.43575765  1
  Yb  Yb1  1  0.87510332  0.87510332  0.87510332  1
  Yb  Yb2  1  0.75037711  0.75037711  0.75037711  1
  Yb  Yb3  1  0.31131790  0.31131790  0.31131790  1
  O  O0  1  0.57279086  0.48868618  0.05028038  1
  O  O1  1  0.05028038  0.57279086  0.48868618  1
  O  O2  1  0.48868618  0.05028038  0.57279086  1
  O  O3  1  0.68367581  0.62756753  0.13806856  1
  O  O4  1  0.13806856  0.68367581  0.62756753  1
  O  O5  1  0.62756753  0.13806856  0.68367581  1
  O  O6  1  0.59208132  0.05301071  0.13396634  1
  O  O7  1  0.05301071  0.13396634  0.59208132  1
  O  O8  1  0.13396634  0.59208132  0.05301071  1
loop_
_geom_bond_atom_site_label_1
_geom_bond_atom_site_label_2
_geom_bond_distance
_geom_bond_site_symmetry_2
Ba0 O6 2.754464 1_455
Ba0 O8 2.754464 1_545
Ba0 O7 2.754464 1_554
Ba0 O0 2.822767 1_455
Ba0 O2 2.822767 1_554
Ba0 O1 2.822767 1_545
Ba1 O8 2.750662 1_555
Ba1 O6 2.750662 1_555
Ba1 O7 2.750663 1_555
Ba1 O3 2.898576 1_455
Ba1 O4 2.898576 1_545
Ba1 O5 2.898576 1_554
Ba1 O3 3.228521 1_545
Ba1 O5 3.228521 1_455
Ba1 O4 3.228521 1_554
Ba2 O7 2.758809 1_655
Ba2 O6 2.758809 1_565
Ba2 O8 2.758809 1_556
Ba2 O5 3.232662 1_555
Ba2 O4 3.232662 1_555
Ba2 O3 3.232662 1_555
Ba2 O7 3.244672 1_565
Ba2 O8 3.244672 1_655
Ba2 O6 3.244672 1_556
Ba2 O1 3.350550 1_655
Ba2 O2 3.350550 1_565
Ba2 O0 3.350550 1_556
O0 Yb2 2.154958 1_554
O0 Yb3 2.239244 1_555
O0 Yb0 2.338752 1_555
O1 Yb2 2.154958 1_455
O1 Yb3 2.239244 1_555
O1 Yb0 2.338752 1_555
O2 Yb2 2.154958 1_545
O2 Yb3 2.239244 1_555
O2 Yb0 2.338752 1_555
O3 Yb0 2.152994 1_555
O3 Yb1 2.226621 1_554
O3 Yb2 2.351529 1_554
O4 Yb0 2.152994 1_555
O4 Yb1 2.226621 1_455
O4 Yb2 2.351529 1_455
O5 Yb0 2.152994 1_555
O5 Yb1 2.226621 1_545
O5 Yb2 2.351529 1_545
O6 Yb3 2.167412 1_555
O6 Yb1 2.169582 1_544
O7 Yb3 2.167412 1_555
O7 Yb1 2.169582 1_445
O8 Yb3 2.167412 1_555
O8 Yb1 2.169582 1_454
