# generated using pymatgen
data_La3H15I10O37
_symmetry_space_group_name_H-M   'P 1'
_cell_length_a   12.54921934
_cell_length_b   12.54921934
_cell_length_c   13.29989100
_cell_angle_alpha   90.00000000
_cell_angle_beta   90.00000000
_cell_angle_gamma   120.66550768
_symmetry_Int_Tables_number   1
_chemical_formula_structural   La3H15I10O37
_chemical_formula_sum   'La6 H30 I20 O74'
_cell_volume   1801.60871775
_cell_formula_units_Z   2
loop_
 _symmetry_equiv_pos_site_id
 _symmetry_equiv_pos_as_xyz
  1  'x, y, z'
loop_
 _atom_site_type_symbol
 _atom_site_label
 _atom_site_symmetry_multiplicity
 _atom_site_fract_x
 _atom_site_fract_y
 _atom_site_fract_z
 _atom_site_occupancy
  La  La0  1  0.99060600  0.99060600  0.00000000  1
  La  La1  1  0.03832800  0.51432900  0.16296300  1
  La  La2  1  0.53832800  0.01432900  0.33703700  1
  La  La3  1  0.49060600  0.49060600  0.50000000  1
  La  La4  1  0.01432900  0.53832800  0.66296300  1
  La  La5  1  0.51432900  0.03832800  0.83703700  1
  H  H0  1  0.71213400  0.71213400  0.00000000  1
  H  H1  1  0.57107400  0.63440500  0.06874100  1
  H  H2  1  0.26534100  0.02836000  0.04728900  1
  H  H3  1  0.36451300  0.33764000  0.10787600  1
  H  H4  1  0.26707000  0.45202800  0.12025400  1
  H  H5  1  0.24120800  0.50536700  0.02360800  1
  H  H6  1  0.22650700  0.07691700  0.14336000  1
  H  H7  1  0.42519200  0.45094800  0.17832500  1
  H  H8  1  0.92519200  0.95094800  0.32167500  1
  H  H9  1  0.72650700  0.57691700  0.35664000  1
  H  H10  1  0.74120800  0.00536700  0.47639200  1
  H  H11  1  0.76707000  0.95202800  0.37974600  1
  H  H12  1  0.86451300  0.83764000  0.39212400  1
  H  H13  1  0.76534100  0.52836000  0.45271100  1
  H  H14  1  0.07107400  0.13440500  0.43125900  1
  H  H15  1  0.21213400  0.21213400  0.50000000  1
  H  H16  1  0.13440500  0.07107400  0.56874100  1
  H  H17  1  0.52836000  0.76534100  0.54728900  1
  H  H18  1  0.83764000  0.86451300  0.60787600  1
  H  H19  1  0.95202800  0.76707000  0.62025400  1
  H  H20  1  0.00536700  0.74120800  0.52360800  1
  H  H21  1  0.57691700  0.72650700  0.64336000  1
  H  H22  1  0.95094800  0.92519200  0.67832500  1
  H  H23  1  0.45094800  0.42519200  0.82167500  1
  H  H24  1  0.07691700  0.22650700  0.85664000  1
  H  H25  1  0.50536700  0.24120800  0.97639200  1
  H  H26  1  0.45202800  0.26707000  0.87974600  1
  H  H27  1  0.33764000  0.36451300  0.89212400  1
  H  H28  1  0.02836000  0.26534100  0.95271100  1
  H  H29  1  0.63440500  0.57107400  0.93125900  1
  I  I0  1  0.36962200  0.84580900  0.07949800  1
  I  I1  1  0.72890100  0.08291100  0.08702600  1
  I  I2  1  0.83845400  0.65987200  0.12092700  1
  I  I3  1  0.65178500  0.34009700  0.19263200  1
  I  I4  1  0.08264400  0.23359000  0.24797700  1
  I  I5  1  0.58264400  0.73359000  0.25202300  1
  I  I6  1  0.15178500  0.84009700  0.30736800  1
  I  I7  1  0.33845400  0.15987200  0.37907300  1
  I  I8  1  0.22890100  0.58291100  0.41297400  1
  I  I9  1  0.86962200  0.34580900  0.42050200  1
  I  I10  1  0.34580900  0.86962200  0.57949800  1
  I  I11  1  0.58291100  0.22890100  0.58702600  1
  I  I12  1  0.15987200  0.33845400  0.62092700  1
  I  I13  1  0.84009700  0.15178500  0.69263200  1
  I  I14  1  0.73359000  0.58264400  0.74797700  1
  I  I15  1  0.23359000  0.08264400  0.75202300  1
  I  I16  1  0.34009700  0.65178500  0.80736800  1
  I  I17  1  0.65987200  0.83845400  0.87907300  1
  I  I18  1  0.08291100  0.72890100  0.91297400  1
  I  I19  1  0.84580900  0.36962200  0.92050200  1
  O  O0  1  0.63334300  0.63334300  0.00000000  1
  O  O1  1  0.94117700  0.34569700  0.01233600  1
  O  O2  1  0.58181800  0.99397300  0.01645200  1
  O  O3  1  0.80208000  0.00269600  0.02919100  1
  O  O4  1  0.20847100  0.47686900  0.09164400  1
  O  O5  1  0.20872800  0.05600400  0.07117900  1
  O  O6  1  0.20436100  0.72438300  0.09041300  1
  O  O7  1  0.79306600  0.42846700  0.11212100  1
  O  O8  1  0.85624600  0.81540800  0.11899500  1
  O  O9  1  0.53841700  0.32775600  0.10236000  1
  O  O10  1  0.50910900  0.64377300  0.13514400  1
  O  O11  1  0.03092500  0.10761100  0.15855200  1
  O  O12  1  0.34450200  0.38458100  0.15526200  1
  O  O13  1  0.97671900  0.68358000  0.18800400  1
  O  O14  1  0.63973700  0.18683200  0.18324000  1
  O  O15  1  0.67378200  0.99066500  0.20273300  1
  O  O16  1  0.96632500  0.27590400  0.22146600  1
  O  O17  1  0.72207800  0.59478500  0.22156400  1
  O  O18  1  0.38370500  0.93491400  0.19332200  1
  O  O19  1  0.88370500  0.43491400  0.30667800  1
  O  O20  1  0.22207800  0.09478500  0.27843600  1
  O  O21  1  0.46632500  0.77590400  0.27853400  1
  O  O22  1  0.17378200  0.49066500  0.29726700  1
  O  O23  1  0.13973700  0.68683200  0.31676000  1
  O  O24  1  0.47671900  0.18358000  0.31199600  1
  O  O25  1  0.84450200  0.88458100  0.34473800  1
  O  O26  1  0.53092500  0.60761100  0.34144800  1
  O  O27  1  0.00910900  0.14377300  0.36485600  1
  O  O28  1  0.03841700  0.82775600  0.39764000  1
  O  O29  1  0.35624600  0.31540800  0.38100500  1
  O  O30  1  0.29306600  0.92846700  0.38787900  1
  O  O31  1  0.70436100  0.22438300  0.40958700  1
  O  O32  1  0.70872800  0.55600400  0.42882100  1
  O  O33  1  0.70847100  0.97686900  0.40835600  1
  O  O34  1  0.30208000  0.50269600  0.47080900  1
  O  O35  1  0.08181800  0.49397300  0.48354800  1
  O  O36  1  0.44117700  0.84569700  0.48766400  1
  O  O37  1  0.13334300  0.13334300  0.50000000  1
  O  O38  1  0.84569700  0.44117700  0.51233600  1
  O  O39  1  0.49397300  0.08181800  0.51645200  1
  O  O40  1  0.50269600  0.30208000  0.52919100  1
  O  O41  1  0.97686900  0.70847100  0.59164400  1
  O  O42  1  0.55600400  0.70872800  0.57117900  1
  O  O43  1  0.22438300  0.70436100  0.59041300  1
  O  O44  1  0.92846700  0.29306600  0.61212100  1
  O  O45  1  0.31540800  0.35624600  0.61899500  1
  O  O46  1  0.82775600  0.03841700  0.60236000  1
  O  O47  1  0.14377300  0.00910900  0.63514400  1
  O  O48  1  0.60761100  0.53092500  0.65855200  1
  O  O49  1  0.88458100  0.84450200  0.65526200  1
  O  O50  1  0.18358000  0.47671900  0.68800400  1
  O  O51  1  0.68683200  0.13973700  0.68324000  1
  O  O52  1  0.49066500  0.17378200  0.70273300  1
  O  O53  1  0.77590400  0.46632500  0.72146600  1
  O  O54  1  0.09478500  0.22207800  0.72156400  1
  O  O55  1  0.43491400  0.88370500  0.69332200  1
  O  O56  1  0.93491400  0.38370500  0.80667800  1
  O  O57  1  0.59478500  0.72207800  0.77843600  1
  O  O58  1  0.27590400  0.96632500  0.77853400  1
  O  O59  1  0.99066500  0.67378200  0.79726700  1
  O  O60  1  0.18683200  0.63973700  0.81676000  1
  O  O61  1  0.68358000  0.97671900  0.81199600  1
  O  O62  1  0.38458100  0.34450200  0.84473800  1
  O  O63  1  0.10761100  0.03092500  0.84144800  1
  O  O64  1  0.64377300  0.50910900  0.86485600  1
  O  O65  1  0.32775600  0.53841700  0.89764000  1
  O  O66  1  0.81540800  0.85624600  0.88100500  1
  O  O67  1  0.42846700  0.79306600  0.88787900  1
  O  O68  1  0.72438300  0.20436100  0.90958700  1
  O  O69  1  0.05600400  0.20872800  0.92882100  1
  O  O70  1  0.47686900  0.20847100  0.90835600  1
  O  O71  1  0.00269600  0.80208000  0.97080900  1
  O  O72  1  0.99397300  0.58181800  0.98354800  1
  O  O73  1  0.34569700  0.94117700  0.98766400  1
loop_
_geom_bond_atom_site_label_1
_geom_bond_atom_site_label_2
_geom_bond_distance
_geom_bond_site_symmetry_2
La0 O11 2.469994 1_665
La0 O63 2.469994 1_664
La0 O3 2.477329 1_565
La0 O71 2.477329 1_654
La0 O8 2.529839 1_555
La0 O66 2.529839 1_554
La0 O5 2.602082 1_665
La0 O69 2.602082 1_664
La1 O19 2.537559 1_455
La1 O6 2.572636 1_555
La1 O22 2.585184 1_555
La1 O4 2.589107 1_555
La1 O13 2.625828 1_455
La1 O72 2.683644 1_454
La1 O1 2.710395 1_455
La1 O16 2.759793 1_455
La1 O23 2.771217 1_555
La1 O7 2.776420 1_455
La2 O18 2.537559 1_545
La2 O31 2.572636 1_555
La2 O15 2.585184 1_545
La2 O33 2.589107 1_545
La2 O24 2.625828 1_555
La2 O39 2.683644 1_555
La2 O36 2.710395 1_545
La2 O21 2.759793 1_545
La2 O14 2.771217 1_555
La2 O30 2.776420 1_545
La3 O48 2.469994 1_555
La3 O26 2.469994 1_555
La3 O40 2.477329 1_555
La3 O34 2.477329 1_555
La3 O45 2.529839 1_555
La3 O29 2.529839 1_555
La3 O42 2.602082 1_555
La3 O32 2.602082 1_555
La4 O56 2.537559 1_455
La4 O43 2.572636 1_555
La4 O59 2.585184 1_455
La4 O41 2.589107 1_455
La4 O50 2.625828 1_555
La4 O35 2.683644 1_555
La4 O38 2.710395 1_455
La4 O53 2.759793 1_455
La4 O60 2.771217 1_555
La4 O44 2.776420 1_455
La5 O55 2.537559 1_545
La5 O68 2.572636 1_555
La5 O52 2.585184 1_555
La5 O70 2.589107 1_555
La5 O61 2.625828 1_545
La5 O2 2.683644 1_546
La5 O73 2.710395 1_545
La5 O58 2.759793 1_545
La5 O51 2.771217 1_555
La5 O67 2.776420 1_545
H0 O0 0.978803 1_555
H1 O0 1.207178 1_555
H1 O10 1.221356 1_555
H2 O5 0.988658 1_555
H3 O12 0.978853 1_555
H4 O4 1.008254 1_555
H4 O12 1.648141 1_555
H5 O4 0.982649 1_555
H6 O5 0.990215 1_555
H7 O12 0.976130 1_555
H8 O25 0.976130 1_555
H9 O32 0.990215 1_555
H10 O33 0.982649 1_545
H11 O33 1.008254 1_555
H11 O25 1.648141 1_555
H12 O25 0.978853 1_555
H13 O32 0.988658 1_555
H14 O37 1.207178 1_555
H14 O27 1.221356 1_555
H15 O37 0.978803 1_555
H16 O37 1.207178 1_555
H16 O47 1.221356 1_555
H17 O42 0.988658 1_555
H18 O49 0.978853 1_555
H19 O41 1.008254 1_555
H19 O49 1.648141 1_555
H20 O41 0.982649 1_455
H21 O42 0.990215 1_555
H22 O49 0.976130 1_555
H23 O62 0.976130 1_555
H24 O69 0.990215 1_555
H25 O70 0.982649 1_555
H26 O70 1.008254 1_555
H26 O62 1.648141 1_555
H27 O62 0.978853 1_555
H28 O69 0.988658 1_555
H29 O0 1.207178 1_556
H29 O64 1.221356 1_555
I0 O18 1.836233 1_555
I0 O73 1.838686 1_554
I0 O6 1.849465 1_555
I0 O2 2.490129 1_555
I1 O15 1.835737 1_545
I1 O3 1.841548 1_555
I1 O2 1.852624 1_545
I1 O14 2.465509 1_555
I2 O13 1.835332 1_555
I2 O17 1.837034 1_555
I2 O8 1.848164 1_555
I3 O9 1.806852 1_555
I3 O14 1.855029 1_555
I3 O7 1.874626 1_555
I3 O24 2.608269 1_555
I4 O11 1.813420 1_555
I4 O16 1.824202 1_455
I4 O27 1.864785 1_555
I5 O26 1.813420 1_555
I5 O21 1.824202 1_555
I5 O10 1.864785 1_555
I6 O28 1.806852 1_555
I6 O23 1.855029 1_555
I6 O30 1.874626 1_555
I6 O13 2.608269 1_455
I7 O24 1.835332 1_555
I7 O20 1.837034 1_555
I7 O29 1.848164 1_555
I8 O22 1.835737 1_555
I8 O34 1.841548 1_555
I8 O35 1.852624 1_555
I8 O23 2.465509 1_555
I9 O19 1.836233 1_555
I9 O38 1.838686 1_555
I9 O31 1.849465 1_555
I9 O35 2.490129 1_655
I10 O55 1.836233 1_555
I10 O36 1.838686 1_555
I10 O43 1.849465 1_555
I10 O39 2.490129 1_565
I11 O52 1.835737 1_555
I11 O40 1.841548 1_555
I11 O39 1.852624 1_555
I11 O51 2.465509 1_555
I12 O50 1.835332 1_555
I12 O54 1.837034 1_555
I12 O45 1.848164 1_555
I13 O46 1.806852 1_555
I13 O51 1.855029 1_555
I13 O44 1.874626 1_555
I13 O61 2.608269 1_545
I14 O48 1.813420 1_555
I14 O53 1.824202 1_555
I14 O64 1.864785 1_555
I15 O63 1.813420 1_555
I15 O58 1.824202 1_545
I15 O47 1.864785 1_555
I16 O65 1.806852 1_555
I16 O60 1.855029 1_555
I16 O67 1.874626 1_555
I16 O50 2.608269 1_555
I17 O61 1.835332 1_555
I17 O57 1.837034 1_555
I17 O66 1.848164 1_555
I18 O59 1.835737 1_455
I18 O71 1.841548 1_555
I18 O72 1.852624 1_455
I18 O60 2.465509 1_555
I19 O56 1.836233 1_555
I19 O1 1.838686 1_556
I19 O68 1.849465 1_555
I19 O72 2.490129 1_555
