# generated using pymatgen
data_ScGaRh2
_symmetry_space_group_name_H-M   'P 1'
_cell_length_a   4.37763383
_cell_length_b   4.37766496
_cell_length_c   4.38080188
_cell_angle_alpha   60.01632672
_cell_angle_beta   60.01611652
_cell_angle_gamma   60.00400283
_symmetry_Int_Tables_number   1
_chemical_formula_structural   ScGaRh2
_chemical_formula_sum   'Sc1 Ga1 Rh2'
_cell_volume   59.37999425
_cell_formula_units_Z   1
loop_
 _symmetry_equiv_pos_site_id
 _symmetry_equiv_pos_as_xyz
  1  'x, y, z'
loop_
 _atom_site_type_symbol
 _atom_site_label
 _atom_site_symmetry_multiplicity
 _atom_site_fract_x
 _atom_site_fract_y
 _atom_site_fract_z
 _atom_site_occupancy
  Sc  Sc0  1  0.74999897  0.75000016  0.75000266  1
  Ga  Ga0  1  0.25002345  0.24997485  0.25000069  1
  Rh  Rh0  1  0.99996424  -0.00001003  0.00006063  1
  Rh  Rh1  1  0.50001234  0.50003303  0.49993502  1
loop_
_geom_bond_atom_site_label_1
_geom_bond_atom_site_label_2
_geom_bond_distance
_geom_bond_site_symmetry_2
Ga0 Rh0 2.680828 1_555
Ga0 Rh1 2.680857 1_545
Ga0 Rh1 2.681080 1_455
Ga0 Rh1 2.681082 1_555
Ga0 Rh0 2.681092 1_455
Ga0 Rh0 2.681119 1_465
Ga0 Rh0 2.683527 1_456
Ga0 Rh1 2.683548 1_554
Rh0 Sc0 2.681101 1_554
Rh0 Sc0 2.681164 1_644
Rh0 Sc0 2.681196 1_544
Rh0 Sc0 2.683106 1_545
Rh1 Sc0 2.681088 1_455
Rh1 Sc0 2.681182 1_545
Rh1 Sc0 2.681226 1_555
Rh1 Sc0 2.683071 1_554
