# generated using pymatgen
data_Li2Mn5(Si2O5)6
_symmetry_space_group_name_H-M   'P 1'
_cell_length_a   10.40591907
_cell_length_b   10.40591907
_cell_length_c   14.67722100
_cell_angle_alpha   90.00000000
_cell_angle_beta   90.00000000
_cell_angle_gamma   119.99999411
_symmetry_Int_Tables_number   1
_chemical_formula_structural   Li2Mn5(Si2O5)6
_chemical_formula_sum   'Li4 Mn10 Si24 O60'
_cell_volume   1376.37057449
_cell_formula_units_Z   2
loop_
 _symmetry_equiv_pos_site_id
 _symmetry_equiv_pos_as_xyz
  1  'x, y, z'
loop_
 _atom_site_type_symbol
 _atom_site_label
 _atom_site_symmetry_multiplicity
 _atom_site_fract_x
 _atom_site_fract_y
 _atom_site_fract_z
 _atom_site_occupancy
  Li  Li0  1  0.33333300  0.66666700  0.75000000  1
  Li  Li1  1  0.00000000  0.00000000  0.50000000  1
  Li  Li2  1  0.00000000  0.00000000  0.00000000  1
  Li  Li3  1  0.66666700  0.33333300  0.25000000  1
  Mn  Mn0  1  0.00000000  0.49880700  0.50000000  1
  Mn  Mn1  1  0.00000000  0.49880700  0.00000000  1
  Mn  Mn2  1  0.33333300  0.66666700  0.00385300  1
  Mn  Mn3  1  0.33333300  0.66666700  0.49614700  1
  Mn  Mn4  1  0.50119300  0.50119300  0.00000000  1
  Mn  Mn5  1  0.50119300  0.50119300  0.50000000  1
  Mn  Mn6  1  0.66666700  0.33333300  0.99614700  1
  Mn  Mn7  1  0.66666700  0.33333300  0.50385300  1
  Mn  Mn8  1  0.49880700  0.00000000  0.00000000  1
  Mn  Mn9  1  0.49880700  0.00000000  0.50000000  1
  Si  Si0  1  0.11325900  0.76539800  0.35866700  1
  Si  Si1  1  0.11325900  0.76539800  0.14133300  1
  Si  Si2  1  0.23365200  0.88604200  0.85915600  1
  Si  Si3  1  0.23365200  0.88604200  0.64084400  1
  Si  Si4  1  0.11395800  0.34761000  0.85915600  1
  Si  Si5  1  0.11395800  0.34761000  0.64084400  1
  Si  Si6  1  0.23460200  0.34786200  0.14133300  1
  Si  Si7  1  0.23460200  0.34786200  0.35866700  1
  Si  Si8  1  0.65213800  0.88674100  0.14133300  1
  Si  Si9  1  0.65213800  0.88674100  0.35866700  1
  Si  Si10  1  0.34786200  0.23460200  0.64133300  1
  Si  Si11  1  0.34786200  0.23460200  0.85866700  1
  Si  Si12  1  0.65239000  0.76634800  0.64084400  1
  Si  Si13  1  0.65239000  0.76634800  0.85915600  1
  Si  Si14  1  0.34761000  0.11395800  0.35915600  1
  Si  Si15  1  0.34761000  0.11395800  0.14084400  1
  Si  Si16  1  0.76634800  0.65239000  0.14084400  1
  Si  Si17  1  0.76634800  0.65239000  0.35915600  1
  Si  Si18  1  0.88674100  0.65213800  0.85866700  1
  Si  Si19  1  0.88674100  0.65213800  0.64133300  1
  Si  Si20  1  0.76539800  0.11325900  0.85866700  1
  Si  Si21  1  0.76539800  0.11325900  0.64133300  1
  Si  Si22  1  0.88604200  0.23365200  0.14084400  1
  Si  Si23  1  0.88604200  0.23365200  0.35915600  1
  O  O0  1  0.05695500  0.78516700  0.61475100  1
  O  O1  1  0.05695500  0.78516700  0.88524900  1
  O  O2  1  0.21777200  0.94333100  0.38371400  1
  O  O3  1  0.21777200  0.94333100  0.11628600  1
  O  O4  1  0.12381400  0.74194400  0.25000000  1
  O  O5  1  0.15498300  0.66172300  0.41800300  1
  O  O6  1  0.15498300  0.66172300  0.08199700  1
  O  O7  1  0.25679200  0.86317700  0.75000000  1
  O  O8  1  0.15832000  0.49781800  0.91460400  1
  O  O9  1  0.15832000  0.49781800  0.58539600  1
  O  O10  1  0.05666900  0.27444100  0.11628600  1
  O  O11  1  0.05666900  0.27444100  0.38371400  1
  O  O12  1  0.33949900  0.84168000  0.91460400  1
  O  O13  1  0.33949900  0.84168000  0.58539600  1
  O  O14  1  0.13682300  0.39361600  0.75000000  1
  O  O15  1  0.25805600  0.38186900  0.25000000  1
  O  O16  1  0.50674000  0.84501700  0.41800300  1
  O  O17  1  0.50674000  0.84501700  0.08199700  1
  O  O18  1  0.21483300  0.27178700  0.88524900  1
  O  O19  1  0.21483300  0.27178700  0.61475100  1
  O  O20  1  0.33827700  0.49326000  0.41800300  1
  O  O21  1  0.33827700  0.49326000  0.08199700  1
  O  O22  1  0.27178700  0.21483300  0.11475100  1
  O  O23  1  0.27178700  0.21483300  0.38524900  1
  O  O24  1  0.61813100  0.87618600  0.25000000  1
  O  O25  1  0.50218200  0.66050100  0.58539600  1
  O  O26  1  0.50218200  0.66050100  0.91460400  1
  O  O27  1  0.27444100  0.05666900  0.88371400  1
  O  O28  1  0.27444100  0.05666900  0.61628600  1
  O  O29  1  0.60638400  0.74320800  0.75000000  1
  O  O30  1  0.38186900  0.25805600  0.75000000  1
  O  O31  1  0.72821300  0.94304500  0.88524900  1
  O  O32  1  0.72821300  0.94304500  0.61475100  1
  O  O33  1  0.49326000  0.33827700  0.91800300  1
  O  O34  1  0.49326000  0.33827700  0.58199700  1
  O  O35  1  0.39361600  0.13682300  0.25000000  1
  O  O36  1  0.72555900  0.78222800  0.11628600  1
  O  O37  1  0.72555900  0.78222800  0.38371400  1
  O  O38  1  0.66050100  0.50218200  0.08539600  1
  O  O39  1  0.66050100  0.50218200  0.41460400  1
  O  O40  1  0.78222800  0.72555900  0.88371400  1
  O  O41  1  0.78222800  0.72555900  0.61628600  1
  O  O42  1  0.49781800  0.15832000  0.08539600  1
  O  O43  1  0.49781800  0.15832000  0.41460400  1
  O  O44  1  0.74320800  0.60638400  0.25000000  1
  O  O45  1  0.87618600  0.61813100  0.75000000  1
  O  O46  1  0.66172300  0.15498300  0.91800300  1
  O  O47  1  0.66172300  0.15498300  0.58199700  1
  O  O48  1  0.94304500  0.72821300  0.11475100  1
  O  O49  1  0.94304500  0.72821300  0.38524900  1
  O  O50  1  0.84501700  0.50674000  0.91800300  1
  O  O51  1  0.84501700  0.50674000  0.58199700  1
  O  O52  1  0.74194400  0.12381400  0.75000000  1
  O  O53  1  0.84168000  0.33949900  0.08539600  1
  O  O54  1  0.84168000  0.33949900  0.41460400  1
  O  O55  1  0.86317700  0.25679200  0.25000000  1
  O  O56  1  0.78516700  0.05695500  0.11475100  1
  O  O57  1  0.78516700  0.05695500  0.38524900  1
  O  O58  1  0.94333100  0.21777200  0.88371400  1
  O  O59  1  0.94333100  0.21777200  0.61628600  1
loop_
_geom_bond_atom_site_label_1
_geom_bond_atom_site_label_2
_geom_bond_distance
_geom_bond_site_symmetry_2
Li0 O7 2.538613 1_555
Li0 O29 2.538613 1_555
Li0 O14 2.538613 1_555
Li3 O55 2.538613 1_555
Li3 O44 2.538613 1_555
Li3 O35 2.538613 1_555
Mn0 O51 2.046769 1_455
Mn0 O5 2.046769 1_555
Mn0 O54 2.074159 1_455
Mn0 O9 2.074163 1_555
Mn1 O50 2.046769 1_454
Mn1 O6 2.046769 1_555
Mn1 O53 2.074159 1_455
Mn1 O8 2.074163 1_554
Mn2 O6 2.160319 1_555
Mn2 O17 2.160324 1_555
Mn2 O21 2.160328 1_555
Mn2 O12 2.218071 1_554
Mn2 O8 2.218079 1_554
Mn2 O26 2.218088 1_554
Mn3 O5 2.160319 1_555
Mn3 O16 2.160324 1_555
Mn3 O20 2.160328 1_555
Mn3 O13 2.218071 1_555
Mn3 O9 2.218079 1_555
Mn3 O25 2.218088 1_555
Mn4 O21 2.046769 1_555
Mn4 O33 2.046769 1_554
Mn4 O26 2.074155 1_554
Mn4 O38 2.074155 1_555
Mn5 O34 2.046769 1_555
Mn5 O20 2.046769 1_555
Mn5 O25 2.074155 1_555
Mn5 O39 2.074155 1_555
Mn6 O46 2.160319 1_555
Mn6 O50 2.160324 1_555
Mn6 O33 2.160328 1_555
Mn6 O53 2.218071 1_556
Mn6 O42 2.218079 1_556
Mn6 O38 2.218088 1_556
Mn7 O47 2.160319 1_555
Mn7 O51 2.160324 1_555
Mn7 O34 2.160328 1_555
Mn7 O54 2.218071 1_555
Mn7 O43 2.218079 1_555
Mn7 O39 2.218088 1_555
Mn8 O17 2.046769 1_545
Mn8 O46 2.046769 1_554
Mn8 O12 2.074159 1_544
Mn8 O42 2.074163 1_555
Mn9 O16 2.046769 1_545
Mn9 O47 2.046769 1_555
Mn9 O13 2.074159 1_545
Mn9 O43 2.074163 1_555
O0 Si3 1.642942 1_555
O0 Si19 1.659470 1_455
O1 Si2 1.642942 1_555
O1 Si18 1.659470 1_455
O2 Si14 1.645894 1_565
O2 Si0 1.653031 1_555
O3 Si15 1.645894 1_565
O3 Si1 1.653031 1_555
O4 Si0 1.625496 1_555
O4 Si1 1.625496 1_555
O5 Si0 1.606001 1_555
O6 Si1 1.606001 1_555
O7 Si2 1.654881 1_555
O7 Si3 1.654881 1_555
O8 Si4 1.611518 1_555
O9 Si5 1.611518 1_555
O10 Si22 1.645893 1_455
O10 Si6 1.653030 1_555
O11 Si23 1.645893 1_455
O11 Si7 1.653030 1_555
O12 Si2 1.611527 1_555
O13 Si3 1.611527 1_555
O14 Si4 1.654883 1_555
O14 Si5 1.654883 1_555
O15 Si7 1.625493 1_555
O15 Si6 1.625493 1_555
O16 Si9 1.605993 1_555
O17 Si8 1.605993 1_555
O18 Si4 1.642950 1_555
O18 Si11 1.659470 1_555
O19 Si5 1.642950 1_555
O19 Si10 1.659470 1_555
O20 Si7 1.605995 1_555
O21 Si6 1.605995 1_555
O22 Si15 1.642950 1_555
O22 Si6 1.659470 1_555
O23 Si14 1.642950 1_555
O23 Si7 1.659470 1_555
O24 Si9 1.625492 1_555
O24 Si8 1.625492 1_555
O25 Si12 1.611521 1_555
O26 Si13 1.611521 1_555
O27 Si2 1.645893 1_545
O27 Si11 1.653030 1_555
O28 Si3 1.645893 1_545
O28 Si10 1.653030 1_555
O29 Si13 1.654883 1_555
O29 Si12 1.654883 1_555
O30 Si11 1.625493 1_555
O30 Si10 1.625493 1_555
O31 Si13 1.642941 1_555
O31 Si20 1.659470 1_565
O32 Si12 1.642941 1_555
O32 Si21 1.659470 1_565
O33 Si11 1.605995 1_555
O34 Si10 1.605995 1_555
O35 Si14 1.654883 1_555
O35 Si15 1.654883 1_555
O36 Si16 1.645893 1_555
O36 Si8 1.653039 1_555
O37 Si17 1.645893 1_555
O37 Si9 1.653039 1_555
O38 Si16 1.611521 1_555
O39 Si17 1.611521 1_555
O40 Si13 1.645893 1_555
O40 Si18 1.653039 1_555
O41 Si12 1.645893 1_555
O41 Si19 1.653039 1_555
O42 Si15 1.611518 1_555
O43 Si14 1.611518 1_555
O44 Si17 1.654883 1_555
O44 Si16 1.654883 1_555
O45 Si18 1.625492 1_555
O45 Si19 1.625492 1_555
O46 Si20 1.606001 1_555
O47 Si21 1.606001 1_555
O48 Si16 1.642941 1_555
O48 Si1 1.659470 1_655
O49 Si17 1.642941 1_555
O49 Si0 1.659470 1_655
O50 Si18 1.605993 1_555
O51 Si19 1.605993 1_555
O52 Si20 1.625496 1_555
O52 Si21 1.625496 1_555
O53 Si22 1.611527 1_555
O54 Si23 1.611527 1_555
O55 Si23 1.654881 1_555
O55 Si22 1.654881 1_555
O56 Si22 1.642942 1_555
O56 Si8 1.659470 1_545
O57 Si23 1.642942 1_555
O57 Si9 1.659470 1_545
O58 Si4 1.645894 1_655
O58 Si20 1.653031 1_555
O59 Si5 1.645894 1_655
O59 Si21 1.653031 1_555
