# generated using pymatgen
data_Tc3Pd
_symmetry_space_group_name_H-M   'P 1'
_cell_length_a   5.49954363
_cell_length_b   5.49954359
_cell_length_c   4.37056571
_cell_angle_alpha   90.00000000
_cell_angle_beta   90.00000000
_cell_angle_gamma   120.00000629
_symmetry_Int_Tables_number   1
_chemical_formula_structural   Tc3Pd
_chemical_formula_sum   'Tc6 Pd2'
_cell_volume   114.47787497
_cell_formula_units_Z   2
loop_
 _symmetry_equiv_pos_site_id
 _symmetry_equiv_pos_as_xyz
  1  'x, y, z'
loop_
 _atom_site_type_symbol
 _atom_site_label
 _atom_site_symmetry_multiplicity
 _atom_site_fract_x
 _atom_site_fract_y
 _atom_site_fract_z
 _atom_site_occupancy
  Tc  Tc0  1  0.84245283  0.15754917  0.75000100  1
  Tc  Tc1  1  0.31509534  0.15754917  0.75000100  1
  Tc  Tc2  1  0.84245083  0.68490466  0.75000100  1
  Tc  Tc3  1  0.15754817  0.84245083  0.24999900  1
  Tc  Tc4  1  0.68490366  0.84245083  0.24999900  1
  Tc  Tc5  1  0.15754817  0.31509534  0.24999900  1
  Pd  Pd0  1  0.66666700  0.33333300  0.24999900  1
  Pd  Pd1  1  0.33333300  0.66666700  0.75000100  1
loop_
_geom_bond_atom_site_label_1
_geom_bond_atom_site_label_2
_geom_bond_distance
_geom_bond_site_symmetry_2
Tc0 Tc1 2.599318 1_655
Tc0 Tc2 2.599324 1_545
Tc0 Tc5 2.650958 1_656
Tc0 Tc4 2.650966 1_546
Tc0 Tc5 2.650973 1_655
Tc0 Tc4 2.650981 1_545
Tc0 Tc2 2.900220 1_555
Tc0 Tc1 2.900226 1_555
Tc1 Tc2 2.599329 1_445
Tc1 Tc5 2.650953 1_556
Tc1 Tc3 2.650966 1_546
Tc1 Tc5 2.650967 1_555
Tc1 Tc3 2.650981 1_545
Tc1 Tc2 2.900214 1_555
Tc2 Tc4 2.650953 1_556
Tc2 Tc3 2.650964 1_656
Tc2 Tc4 2.650967 1_555
Tc2 Tc3 2.650978 1_655
Tc3 Tc5 2.599329 1_565
Tc3 Tc4 2.599329 1_455
Tc3 Tc5 2.900215 1_555
Tc3 Tc4 2.900215 1_555
Tc4 Tc5 2.599329 1_665
Tc4 Tc5 2.900214 1_555
Pd0 Tc3 2.751140 1_655
Pd0 Tc4 2.751140 1_555
Pd0 Tc5 2.751143 1_555
Pd0 Tc5 2.751143 1_655
Pd0 Tc3 2.751146 1_545
Pd0 Tc4 2.751146 1_545
Pd0 Tc0 2.753028 1_554
Pd0 Tc2 2.753033 1_554
Pd0 Tc1 2.753033 1_554
Pd0 Tc0 2.753041 1_555
Pd0 Tc2 2.753047 1_555
Pd0 Tc1 2.753047 1_555
Pd1 Tc0 2.751138 1_455
Pd1 Tc1 2.751138 1_555
Pd1 Tc2 2.751138 1_555
Pd1 Tc0 2.751149 1_565
Pd1 Tc1 2.751149 1_565
Pd1 Tc2 2.751149 1_455
Pd1 Tc3 2.753025 1_556
Pd1 Tc4 2.753030 1_556
Pd1 Tc5 2.753033 1_556
Pd1 Tc3 2.753039 1_555
Pd1 Tc4 2.753044 1_555
Pd1 Tc5 2.753047 1_555
