# generated using pymatgen
data_NdAu3
_symmetry_space_group_name_H-M   'P 1'
_cell_length_a   6.45841224
_cell_length_b   6.45841256
_cell_length_c   4.76668784
_cell_angle_alpha   90.00000000
_cell_angle_beta   90.00000000
_cell_angle_gamma   120.00000918
_symmetry_Int_Tables_number   1
_chemical_formula_structural   NdAu3
_chemical_formula_sum   'Nd2 Au6'
_cell_volume   172.18640163
_cell_formula_units_Z   2
loop_
 _symmetry_equiv_pos_site_id
 _symmetry_equiv_pos_as_xyz
  1  'x, y, z'
loop_
 _atom_site_type_symbol
 _atom_site_label
 _atom_site_symmetry_multiplicity
 _atom_site_fract_x
 _atom_site_fract_y
 _atom_site_fract_z
 _atom_site_occupancy
  Nd  Nd0  1  0.66666700  0.33333200  0.25000200  1
  Nd  Nd1  1  0.33333400  0.66666700  0.75000000  1
  Au  Au0  1  0.84558625  0.15441375  0.75000000  1
  Au  Au1  1  0.30882849  0.15441375  0.75000000  1
  Au  Au2  1  0.84558725  0.69117151  0.75000000  1
  Au  Au3  1  0.15441475  0.84558625  0.25000200  1
  Au  Au4  1  0.69117251  0.84558625  0.25000200  1
  Au  Au5  1  0.15441375  0.30882949  0.25000200  1
loop_
_geom_bond_atom_site_label_1
_geom_bond_atom_site_label_2
_geom_bond_distance
_geom_bond_site_symmetry_2
Au0 Nd0 3.112240 1_555
Au0 Nd0 3.112255 1_556
Au0 Nd1 3.232110 1_545
Au0 Nd1 3.232116 1_655
Au1 Nd0 3.112244 1_555
Au1 Nd0 3.112258 1_556
Au1 Nd1 3.232111 1_545
Au1 Nd1 3.232117 1_555
Au2 Nd0 3.112247 1_555
Au2 Nd0 3.112262 1_556
Au2 Nd1 3.232107 1_655
Au2 Nd1 3.232120 1_555
Au3 Nd1 3.112244 1_555
Au3 Nd1 3.112258 1_554
Au3 Nd0 3.232107 1_565
Au3 Nd0 3.232120 1_455
Au4 Nd1 3.112244 1_555
Au4 Nd1 3.112258 1_554
Au4 Nd0 3.232104 1_565
Au4 Nd0 3.232123 1_555
Au5 Nd1 3.112240 1_555
Au5 Nd1 3.112255 1_554
Au5 Nd0 3.232100 1_455
Au5 Nd0 3.232126 1_555
