# generated using pymatgen
data_LiFe8(BO3)8
_symmetry_space_group_name_H-M   'P 1'
_cell_length_a   5.22315800
_cell_length_b   5.25035310
_cell_length_c   20.19616663
_cell_angle_alpha   89.43293091
_cell_angle_beta   89.48373665
_cell_angle_gamma   61.10228308
_symmetry_Int_Tables_number   1
_chemical_formula_structural   LiFe8(BO3)8
_chemical_formula_sum   'Li1 Fe8 B8 O24'
_cell_volume   484.85557304
_cell_formula_units_Z   1
loop_
 _symmetry_equiv_pos_site_id
 _symmetry_equiv_pos_as_xyz
  1  'x, y, z'
loop_
 _atom_site_type_symbol
 _atom_site_label
 _atom_site_symmetry_multiplicity
 _atom_site_fract_x
 _atom_site_fract_y
 _atom_site_fract_z
 _atom_site_occupancy
  Li  Li0  1  0.66918900  0.35615100  0.07869700  1
  Fe  Fe0  1  0.67862300  0.98073700  0.18834500  1
  Fe  Fe1  1  0.67656200  0.99335000  0.68845300  1
  Fe  Fe2  1  0.00788400  0.68505100  0.06120900  1
  Fe  Fe3  1  0.99693700  0.67253400  0.56379700  1
  Fe  Fe4  1  0.00336900  0.32633000  0.43935600  1
  Fe  Fe5  1  0.00217700  0.32663700  0.93902300  1
  Fe  Fe6  1  0.32695600  0.00431600  0.31509900  1
  Fe  Fe7  1  0.32555400  0.00197900  0.81401400  1
  B  B0  1  0.33924300  0.00417400  0.06383600  1
  B  B1  1  0.33949100  0.00279000  0.56357200  1
  B  B2  1  0.01039600  0.33152700  0.18778700  1
  B  B3  1  0.00522400  0.33612500  0.68829400  1
  B  B4  1  0.99925200  0.66145800  0.31431100  1
  B  B5  1  0.99803400  0.65696700  0.81331800  1
  B  B6  1  0.66176500  0.99551800  0.43889800  1
  B  B7  1  0.66269000  0.99533900  0.93781600  1
  O  O0  1  0.27111100  0.12226500  0.21677500  1
  O  O1  1  0.27038000  0.12559500  0.71549700  1
  O  O2  1  0.09111400  0.25512900  0.04031600  1
  O  O3  1  0.57687800  0.03362900  0.08792600  1
  O  O4  1  0.12868200  0.26885200  0.53661800  1
  O  O5  1  0.59635900  0.98901100  0.58817500  1
  O  O6  1  0.98669900  0.59436300  0.16722400  1
  O  O7  1  0.70550700  0.22860000  0.43697700  1
  O  O8  1  0.99251800  0.59321200  0.66359300  1
  O  O9  1  0.69643500  0.23622700  0.94103900  1
  O  O10  1  0.78486100  0.27565900  0.17698200  1
  O  O11  1  0.77179300  0.29207400  0.68568300  1
  O  O12  1  0.23503600  0.70226300  0.31644500  1
  O  O13  1  0.23112200  0.70230700  0.81571300  1
  O  O14  1  0.35375600  0.74022200  0.06466300  1
  O  O15  1  0.00882600  0.40512900  0.33848200  1
  O  O16  1  0.29510600  0.77009500  0.56501500  1
  O  O17  1  0.00855400  0.40002600  0.83706000  1
  O  O18  1  0.40410100  0.00961600  0.41439300  1
  O  O19  1  0.40113700  0.01516900  0.91417000  1
  O  O20  1  0.87241500  0.72993700  0.46571200  1
  O  O21  1  0.87995400  0.72770800  0.96006600  1
  O  O22  1  0.73347700  0.87680900  0.28781000  1
  O  O23  1  0.73236200  0.86989400  0.78626200  1
loop_
_geom_bond_atom_site_label_1
_geom_bond_atom_site_label_2
_geom_bond_distance
_geom_bond_site_symmetry_2
Li0 O14 1.909761 1_555
Li0 O3 1.978863 1_555
Li0 O10 2.059612 1_555
Li0 O2 2.141603 1_655
Fe0 O10 1.891922 1_565
Fe0 O6 1.932956 1_555
Fe0 O0 1.967265 1_565
Fe0 O22 2.062215 1_555
Fe0 O3 2.082854 1_565
Fe1 O11 1.860699 1_565
Fe1 O1 1.960693 1_565
Fe1 O8 2.011031 1_555
Fe1 O23 2.051733 1_555
Fe1 O5 2.074366 1_555
Fe2 O14 1.964894 1_555
Fe2 O2 2.128221 1_555
Fe2 O21 2.130770 1_454
Fe2 O3 2.173524 1_465
Fe2 O6 2.202209 1_455
Fe3 O16 1.860209 1_655
Fe3 O4 1.968149 1_655
Fe3 O5 2.004634 1_555
Fe3 O8 2.056220 1_555
Fe3 O20 2.063959 1_555
Fe4 O7 1.859956 1_455
Fe4 O20 1.963815 1_455
Fe4 O18 2.008475 1_555
Fe4 O4 2.049039 1_555
Fe4 O15 2.077524 1_555
Fe5 O9 1.873042 1_455
Fe5 O21 1.932865 1_455
Fe5 O19 1.993089 1_555
Fe5 O2 2.091679 1_556
Fe5 O17 2.094183 1_555
Fe6 O12 1.865766 1_545
Fe6 O22 1.967941 1_545
Fe6 O15 2.009609 1_555
Fe6 O18 2.052096 1_555
Fe6 O0 2.055084 1_555
Fe7 O13 1.862435 1_545
Fe7 O23 1.967740 1_545
Fe7 O17 1.996681 1_555
Fe7 O1 2.065685 1_555
Fe7 O19 2.072637 1_555
B0 O14 1.350783 1_545
B0 O2 1.410553 1_555
B0 O3 1.413897 1_555
B1 O16 1.349125 1_545
B1 O4 1.403306 1_555
B1 O5 1.403453 1_545
B2 O10 1.364265 1_455
B2 O6 1.384427 1_455
B2 O0 1.399953 1_555
B3 O11 1.347880 1_455
B3 O1 1.401377 1_555
B3 O8 1.405672 1_455
B4 O12 1.349290 1_655
B4 O15 1.405140 1_655
B4 O22 1.405827 1_555
B5 O13 1.350037 1_655
B5 O17 1.403157 1_655
B5 O23 1.405767 1_555
B6 O7 1.349232 1_565
B6 O20 1.400417 1_555
B6 O18 1.405931 1_565
B7 O9 1.360946 1_565
B7 O21 1.385538 1_555
B7 O19 1.406600 1_565
