# generated using pymatgen
data_LiVCrO4
_symmetry_space_group_name_H-M   'P 1'
_cell_length_a   5.88477076
_cell_length_b   5.90439440
_cell_length_c   5.88480672
_cell_angle_alpha   60.64451093
_cell_angle_beta   88.04408860
_cell_angle_gamma   118.19615658
_symmetry_Int_Tables_number   1
_chemical_formula_structural   LiVCrO4
_chemical_formula_sum   'Li2 V2 Cr2 O8'
_cell_volume   147.37043599
_cell_formula_units_Z   2
loop_
 _symmetry_equiv_pos_site_id
 _symmetry_equiv_pos_as_xyz
  1  'x, y, z'
loop_
 _atom_site_type_symbol
 _atom_site_label
 _atom_site_symmetry_multiplicity
 _atom_site_fract_x
 _atom_site_fract_y
 _atom_site_fract_z
 _atom_site_occupancy
  Li  Li0  1  0.49999900  0.00000000  0.00000000  1
  Li  Li1  1  0.49999900  0.50000000  0.50000000  1
  V  V0  1  0.00000000  0.99999900  0.50000100  1
  V  V1  1  0.00000000  0.50000300  0.99999800  1
  Cr  Cr0  1  0.99998800  0.99998900  0.00001000  1
  Cr  Cr1  1  0.50002000  0.50000700  0.99999700  1
  O  O0  1  0.76627600  0.97243100  0.75918100  1
  O  O1  1  0.76836700  0.52751800  0.20615700  1
  O  O2  1  0.23163300  0.47248300  0.79384200  1
  O  O3  1  0.23372200  0.02756900  0.24081800  1
  O  O4  1  0.23461700  0.47691000  0.24541700  1
  O  O5  1  0.22235100  0.97691900  0.75768100  1
  O  O6  1  0.77764500  0.02308000  0.24231700  1
  O  O7  1  0.76538300  0.52309200  0.75458200  1
loop_
_geom_bond_atom_site_label_1
_geom_bond_atom_site_label_2
_geom_bond_distance
_geom_bond_site_symmetry_2
Li0 O3 2.192239 1_555
Li0 O0 2.192243 1_544
Li0 O6 2.204711 1_555
Li0 O5 2.204728 1_544
Li0 O4 2.231236 1_545
Li0 O7 2.231244 1_554
Li1 O2 2.192329 1_555
Li1 O1 2.192337 1_555
Li1 O4 2.204727 1_555
Li1 O7 2.204731 1_555
Li1 O6 2.231183 1_565
Li1 O5 2.231188 1_545
Cr0 O6 1.998925 1_565
Cr0 O5 1.999006 1_654
Cr0 O0 2.018480 1_554
Cr0 O3 2.018485 1_665
Cr0 O1 2.021777 1_555
Cr0 O2 2.021869 1_664
Cr1 O7 1.998713 1_555
Cr1 O4 1.998856 1_556
Cr1 O1 2.018319 1_556
Cr1 O2 2.018480 1_555
Cr1 O0 2.021536 1_555
Cr1 O3 2.021616 1_556
O0 V0 1.909552 1_655
O1 V1 1.909436 1_654
O2 V1 1.909447 1_555
O3 V0 1.909550 1_545
O4 V0 2.031897 1_545
O4 V1 2.032636 1_554
O5 V1 2.031920 1_555
O5 V0 2.032609 1_555
O6 V1 2.031950 1_654
O6 V0 2.032643 1_645
O7 V0 2.031880 1_655
O7 V1 2.032623 1_655
