# generated using pymatgen
data_Li4V3P8O29
_symmetry_space_group_name_H-M   'P 1'
_cell_length_a   9.78373175
_cell_length_b   9.78373175
_cell_length_c   14.37083649
_cell_angle_alpha   88.74073191
_cell_angle_beta   88.74073191
_cell_angle_gamma   59.51645691
_symmetry_Int_Tables_number   1
_chemical_formula_structural   Li4V3P8O29
_chemical_formula_sum   'Li8 V6 P16 O58'
_cell_volume   1185.07479601
_cell_formula_units_Z   2
loop_
 _symmetry_equiv_pos_site_id
 _symmetry_equiv_pos_as_xyz
  1  'x, y, z'
loop_
 _atom_site_type_symbol
 _atom_site_label
 _atom_site_symmetry_multiplicity
 _atom_site_fract_x
 _atom_site_fract_y
 _atom_site_fract_z
 _atom_site_occupancy
  Li  Li0  1  0.22484300  0.68390500  0.94016500  1
  Li  Li1  1  0.68390500  0.22484300  0.44016500  1
  Li  Li2  1  0.09946500  0.24080600  0.93869200  1
  Li  Li3  1  0.77256600  0.89577600  0.56054200  1
  Li  Li4  1  0.24080600  0.09946500  0.43869200  1
  Li  Li5  1  0.89577600  0.77256600  0.06054200  1
  Li  Li6  1  0.95055000  0.06469800  0.01290800  1
  Li  Li7  1  0.06469800  0.95055000  0.51290800  1
  V  V0  1  0.56370400  0.00336300  0.75627200  1
  V  V1  1  0.43637400  0.99627700  0.24286700  1
  V  V2  1  0.00336300  0.56370400  0.25627200  1
  V  V3  1  0.99627700  0.43637400  0.74286700  1
  V  V4  1  0.43916500  0.56156500  0.75199700  1
  V  V5  1  0.56156500  0.43916500  0.25199700  1
  P  P0  1  0.22311300  0.69143000  0.15529400  1
  P  P1  1  0.08689500  0.69963200  0.66618900  1
  P  P2  1  0.69143000  0.22311300  0.65529400  1
  P  P3  1  0.32307600  0.33568800  0.86724400  1
  P  P4  1  0.33568800  0.32307600  0.36724400  1
  P  P5  1  0.69963200  0.08689500  0.16618900  1
  P  P6  1  0.76884600  0.90814600  0.34491200  1
  P  P7  1  0.08592200  0.23154300  0.15376700  1
  P  P8  1  0.90814600  0.76884600  0.84491200  1
  P  P9  1  0.23154300  0.08592200  0.65376700  1
  P  P10  1  0.29964700  0.91683300  0.83527000  1
  P  P11  1  0.66479400  0.67648000  0.63601000  1
  P  P12  1  0.67648000  0.66479400  0.13601000  1
  P  P13  1  0.29590100  0.78463100  0.33500200  1
  P  P14  1  0.91683300  0.29964700  0.33527000  1
  P  P15  1  0.78463100  0.29590100  0.83500200  1
  O  O0  1  0.19182000  0.80435500  0.41579500  1
  O  O1  1  0.26106900  0.65605300  0.67131200  1
  O  O2  1  0.98671500  0.76355500  0.93465200  1
  O  O3  1  0.07817600  0.66412300  0.16926800  1
  O  O4  1  0.37698000  0.53495100  0.17204200  1
  O  O5  1  0.32362500  0.48812700  0.83575000  1
  O  O6  1  0.53495100  0.37698000  0.67204200  1
  O  O7  1  0.80435500  0.19182000  0.91579500  1
  O  O8  1  0.65605300  0.26106900  0.17131200  1
  O  O9  1  0.18977300  0.47507100  0.32039200  1
  O  O10  1  0.07699700  0.54569900  0.67131400  1
  O  O11  1  0.48812700  0.32362500  0.33575000  1
  O  O12  1  0.31142200  0.31773100  0.96959700  1
  O  O13  1  0.31773100  0.31142200  0.46959700  1
  O  O14  1  0.47507100  0.18977300  0.82039200  1
  O  O15  1  0.08347600  0.38814400  0.17049800  1
  O  O16  1  0.18003300  0.33490400  0.81924400  1
  O  O17  1  0.66412300  0.07817600  0.66926800  1
  O  O18  1  0.79366700  0.00623000  0.26180600  1
  O  O19  1  0.76355500  0.98671500  0.43465200  1
  O  O20  1  0.80817300  0.00061000  0.08652800  1
  O  O21  1  0.54569900  0.07699700  0.17131400  1
  O  O22  1  0.33490300  0.18003300  0.31924400  1
  O  O23  1  0.73710100  0.91389000  0.83901000  1
  O  O24  1  0.38814400  0.08347600  0.67049800  1
  O  O25  1  0.08999800  0.25888800  0.66732400  1
  O  O26  1  0.00623000  0.79366700  0.76180600  1
  O  O27  1  0.00061000  0.80817300  0.58652800  1
  O  O28  1  0.01556000  0.19270100  0.41158600  1
  O  O29  1  0.91389000  0.73710100  0.33901000  1
  O  O30  1  0.61550000  0.90693400  0.32456600  1
  O  O31  1  0.25888800  0.08999800  0.16732400  1
  O  O32  1  0.67466700  0.81601800  0.68365600  1
  O  O33  1  0.45759900  0.92055700  0.82620900  1
  O  O34  1  0.19270100  0.01556000  0.91158600  1
  O  O35  1  0.21914100  0.02224200  0.56283700  1
  O  O36  1  0.21263100  0.98283200  0.73587700  1
  O  O37  1  0.34092000  0.91742900  0.33251800  1
  O  O38  1  0.81601800  0.67466700  0.18365600  1
  O  O39  1  0.90693400  0.61550000  0.82456600  1
  O  O40  1  0.51938700  0.81589300  0.17586300  1
  O  O41  1  0.69234200  0.67388400  0.03357700  1
  O  O42  1  0.67388400  0.69234200  0.53357700  1
  O  O43  1  0.52211100  0.67258100  0.67910800  1
  O  O44  1  0.92055700  0.45759900  0.32620900  1
  O  O45  1  0.81589300  0.51938700  0.67586300  1
  O  O46  1  0.33790600  0.74317200  0.84068100  1
  O  O47  1  0.20379300  0.80989000  0.23796300  1
  O  O48  1  0.20864400  0.77078200  0.06328600  1
  O  O49  1  0.45166400  0.62092000  0.32708400  1
  O  O50  1  0.67258100  0.52211100  0.17910800  1
  O  O51  1  0.62092000  0.45166400  0.82708400  1
  O  O52  1  0.91742900  0.34092000  0.83251800  1
  O  O53  1  0.02224200  0.21914100  0.06283700  1
  O  O54  1  0.98283200  0.21263100  0.23587700  1
  O  O55  1  0.74317200  0.33790600  0.34068100  1
  O  O56  1  0.77078200  0.20864400  0.56328600  1
  O  O57  1  0.80989000  0.20379300  0.73796300  1
loop_
_geom_bond_atom_site_label_1
_geom_bond_atom_site_label_2
_geom_bond_distance
_geom_bond_site_symmetry_2
Li0 O48 1.948151 1_556
Li0 O46 2.036820 1_555
Li0 O2 2.050563 1_455
Li0 O5 2.244760 1_555
Li1 O56 1.948151 1_555
Li1 O55 2.036820 1_555
Li1 O19 2.050563 1_545
Li1 O11 2.244760 1_555
Li2 O34 1.955221 1_555
Li2 O53 1.971107 1_556
Li2 O52 2.177906 1_455
Li2 O16 2.241172 1_555
Li2 O12 2.588955 1_555
Li3 O19 1.982186 1_555
Li3 O27 1.983523 1_655
Li3 O17 2.209156 1_565
Li3 O32 2.297766 1_555
Li4 O28 1.955221 1_555
Li4 O35 1.971107 1_555
Li4 O37 2.177906 1_545
Li4 O22 2.241166 1_555
Li4 O13 2.588955 1_555
Li5 O2 1.982186 1_554
Li5 O20 1.983523 1_565
Li5 O3 2.209156 1_655
Li5 O38 2.297766 1_555
Li6 O7 1.935706 1_554
Li6 O20 2.060363 1_555
Li6 O53 2.105972 1_655
Li7 O0 1.935706 1_555
Li7 O27 2.060363 1_555
Li7 O35 2.105972 1_565
O0 P13 1.476737 1_555
O1 P1 1.535595 1_555
O1 V4 1.908555 1_555
O2 P8 1.502335 1_555
O3 P0 1.578605 1_555
O3 V2 1.923459 1_555
O4 P0 1.526232 1_555
O4 V5 1.945932 1_555
O5 P3 1.551633 1_555
O5 V4 1.992224 1_555
O6 P2 1.526232 1_555
O6 V4 1.945932 1_555
O7 P15 1.476737 1_555
O8 P5 1.535595 1_555
O8 V5 1.908555 1_555
O9 P4 1.595964 1_555
O9 V2 1.833416 1_555
O10 P1 1.557478 1_555
O10 V3 1.896866 1_455
O11 P4 1.551633 1_555
O11 V5 1.992224 1_555
O12 P3 1.486271 1_555
O13 P4 1.486271 1_555
O14 P3 1.595964 1_555
O14 V0 1.833416 1_555
O15 P7 1.544209 1_555
O15 V2 1.941313 1_555
O16 P3 1.577347 1_555
O16 V3 1.910619 1_455
O17 P2 1.578605 1_555
O17 V0 1.923459 1_555
O18 P6 1.606092 1_545
O18 P5 1.621309 1_555
O19 P6 1.502335 1_555
O20 P5 1.493458 1_555
O21 P5 1.557478 1_555
O21 V1 1.896866 1_545
O22 P4 1.577351 1_555
O22 V1 1.910619 1_545
O23 P8 1.553378 1_555
O23 V0 1.895852 1_565
O24 P9 1.544209 1_555
O24 V0 1.941313 1_555
O25 P9 1.563463 1_555
O25 V3 1.859659 1_455
O26 P8 1.606092 1_455
O26 P1 1.621309 1_555
O27 P1 1.493458 1_555
O28 P14 1.483687 1_455
O29 P6 1.553378 1_555
O29 V2 1.895852 1_655
O30 P6 1.540780 1_555
O30 V1 1.924829 1_555
O31 P7 1.563463 1_555
O31 V1 1.859659 1_545
O32 P11 1.587365 1_555
O32 V0 1.908563 1_565
O33 P10 1.566682 1_555
O33 V0 1.875039 1_565
O34 P10 1.483687 1_545
O35 P9 1.493288 1_555
O36 P9 1.603537 1_565
O36 P10 1.623919 1_555
O37 P13 1.568831 1_555
O37 V1 1.939460 1_555
O38 P12 1.587365 1_555
O38 V2 1.908563 1_655
O39 P8 1.540780 1_555
O39 V3 1.924829 1_555
O40 P12 1.602792 1_555
O40 V1 1.813146 1_555
O41 P12 1.482271 1_555
O42 P11 1.482271 1_555
O43 P11 1.532573 1_555
O43 V4 1.934532 1_555
O44 P14 1.566682 1_555
O44 V2 1.875039 1_655
O45 P11 1.602792 1_555
O45 V3 1.813146 1_555
O46 P10 1.543747 1_555
O46 V4 2.005202 1_555
O47 P0 1.618254 1_555
O47 P13 1.622350 1_555
O48 P0 1.490863 1_555
O49 P13 1.557144 1_555
O49 V5 1.891055 1_555
O50 P12 1.532573 1_555
O50 V5 1.934532 1_555
O51 P15 1.557144 1_555
O51 V4 1.891055 1_555
O52 P15 1.568831 1_555
O52 V3 1.939460 1_555
O53 P7 1.493288 1_555
O54 P7 1.603537 1_655
O54 P14 1.623919 1_555
O55 P14 1.543747 1_555
O55 V5 2.005202 1_555
O56 P2 1.490863 1_555
O57 P2 1.618254 1_555
O57 P15 1.622350 1_555
