# generated using pymatgen
data_Ba2TlCd
_symmetry_space_group_name_H-M   'P 1'
_cell_length_a   6.01558243
_cell_length_b   6.01558243
_cell_length_c   6.01558243
_cell_angle_alpha   60.00000000
_cell_angle_beta   60.00000000
_cell_angle_gamma   60.00000000
_symmetry_Int_Tables_number   1
_chemical_formula_structural   Ba2TlCd
_chemical_formula_sum   'Ba2 Tl1 Cd1'
_cell_volume   153.92814974
_cell_formula_units_Z   1
loop_
 _symmetry_equiv_pos_site_id
 _symmetry_equiv_pos_as_xyz
  1  'x, y, z'
loop_
 _atom_site_type_symbol
 _atom_site_label
 _atom_site_symmetry_multiplicity
 _atom_site_fract_x
 _atom_site_fract_y
 _atom_site_fract_z
 _atom_site_occupancy
  Ba  Ba0  1  -0.00000000  0.00000000  0.00000000  1
  Ba  Ba1  1  0.49999900  0.49999900  0.49999900  1
  Tl  Tl0  1  0.75000000  0.75000000  0.75000000  1
  Cd  Cd0  1  0.25000000  0.25000000  0.25000000  1
loop_
_geom_bond_atom_site_label_1
_geom_bond_atom_site_label_2
_geom_bond_distance
_geom_bond_site_symmetry_2
Ba0 Tl0 3.683777 1_444
Ba0 Cd0 3.683777 1_555
Ba0 Cd0 3.683777 1_554
Ba0 Tl0 3.683777 1_445
Ba0 Cd0 3.683777 1_455
Ba0 Cd0 3.683777 1_545
Ba0 Tl0 3.683777 1_544
Ba0 Tl0 3.683777 1_454
Ba1 Cd0 3.683762 1_555
Ba1 Tl0 3.683772 1_554
Ba1 Tl0 3.683772 1_455
Ba1 Tl0 3.683772 1_545
Ba1 Cd0 3.683782 1_556
Ba1 Cd0 3.683782 1_655
Ba1 Cd0 3.683782 1_565
Ba1 Tl0 3.683792 1_555
