# generated using pymatgen
data_Li2Fe5F17
_symmetry_space_group_name_H-M   'P 1'
_cell_length_a   13.05194647
_cell_length_b   13.05194647
_cell_length_c   14.96175300
_cell_angle_alpha   90.00000000
_cell_angle_beta   90.00000000
_cell_angle_gamma   146.52846091
_symmetry_Int_Tables_number   1
_chemical_formula_structural   Li2Fe5F17
_chemical_formula_sum   'Li8 Fe20 F68'
_cell_volume   1405.71227599
_cell_formula_units_Z   4
loop_
 _symmetry_equiv_pos_site_id
 _symmetry_equiv_pos_as_xyz
  1  'x, y, z'
loop_
 _atom_site_type_symbol
 _atom_site_label
 _atom_site_symmetry_multiplicity
 _atom_site_fract_x
 _atom_site_fract_y
 _atom_site_fract_z
 _atom_site_occupancy
  Li  Li0  1  0.00000000  0.00000000  0.00000000  1
  Li  Li1  1  0.00000000  0.00000000  0.50000000  1
  Li  Li2  1  0.69407300  0.30592700  0.75000000  1
  Li  Li3  1  0.74960000  0.25040000  0.55584000  1
  Li  Li4  1  0.74960000  0.25040000  0.94416000  1
  Li  Li5  1  0.30592700  0.69407300  0.25000000  1
  Li  Li6  1  0.25040000  0.74960000  0.44416000  1
  Li  Li7  1  0.25040000  0.74960000  0.05584000  1
  Fe  Fe0  1  0.88277200  0.61978100  0.12430000  1
  Fe  Fe1  1  0.88277200  0.61978100  0.37570000  1
  Fe  Fe2  1  0.75002500  0.74509000  0.25000000  1
  Fe  Fe3  1  0.87436300  0.62369400  0.88027300  1
  Fe  Fe4  1  0.87436300  0.62369400  0.61972700  1
  Fe  Fe5  1  0.37630600  0.12563700  0.61972700  1
  Fe  Fe6  1  0.37630600  0.12563700  0.88027300  1
  Fe  Fe7  1  0.61978100  0.88277200  0.62430000  1
  Fe  Fe8  1  0.61978100  0.88277200  0.87570000  1
  Fe  Fe9  1  0.25491000  0.24997500  0.25000000  1
  Fe  Fe10  1  0.74509000  0.75002500  0.75000000  1
  Fe  Fe11  1  0.38021900  0.11722800  0.37570000  1
  Fe  Fe12  1  0.38021900  0.11722800  0.12430000  1
  Fe  Fe13  1  0.62369400  0.87436300  0.38027300  1
  Fe  Fe14  1  0.62369400  0.87436300  0.11972700  1
  Fe  Fe15  1  0.12563700  0.37630600  0.38027300  1
  Fe  Fe16  1  0.12563700  0.37630600  0.11972700  1
  Fe  Fe17  1  0.24997500  0.25491000  0.75000000  1
  Fe  Fe18  1  0.11722800  0.38021900  0.62430000  1
  Fe  Fe19  1  0.11722800  0.38021900  0.87570000  1
  F  F0  1  0.01422200  0.61400600  0.08941900  1
  F  F1  1  0.01422200  0.61400600  0.41058100  1
  F  F2  1  0.85725400  0.75649900  0.84396900  1
  F  F3  1  0.85725400  0.75649900  0.65603100  1
  F  F4  1  0.90148800  0.70146300  0.49817000  1
  F  F5  1  0.90148800  0.70146300  0.00183000  1
  F  F6  1  0.75413000  0.64522600  0.15635400  1
  F  F7  1  0.75413000  0.64522600  0.34364600  1
  F  F8  1  0.87220400  0.48211400  0.90495300  1
  F  F9  1  0.87220400  0.48211400  0.59504700  1
  F  F10  1  0.85563500  0.55442400  0.25000000  1
  F  F11  1  0.83922500  0.55001900  0.75000000  1
  F  F12  1  0.60084900  0.39915100  0.60942300  1
  F  F13  1  0.88603600  0.11396400  0.84803800  1
  F  F14  1  0.64169400  0.35830600  0.40876500  1
  F  F15  1  0.97841400  0.02158600  0.75000000  1
  F  F16  1  0.85483800  0.14516200  0.36048500  1
  F  F17  1  0.88603600  0.11396400  0.65196200  1
  F  F18  1  0.52160700  0.47839300  0.75000000  1
  F  F19  1  0.85483800  0.14516200  0.13951500  1
  F  F20  1  0.60084900  0.39915100  0.89057700  1
  F  F21  1  0.64169400  0.35830600  0.09123500  1
  F  F22  1  0.61400600  0.01422200  0.91058100  1
  F  F23  1  0.61400600  0.01422200  0.58941900  1
  F  F24  1  0.44998100  0.16077500  0.75000000  1
  F  F25  1  0.75649900  0.85725400  0.34396900  1
  F  F26  1  0.75649900  0.85725400  0.15603100  1
  F  F27  1  0.44557600  0.14436500  0.25000000  1
  F  F28  1  0.51788600  0.12779600  0.90495300  1
  F  F29  1  0.51788600  0.12779600  0.59504700  1
  F  F30  1  0.70146300  0.90148800  0.99817000  1
  F  F31  1  0.70146300  0.90148800  0.50183000  1
  F  F32  1  0.35477400  0.24587000  0.15635400  1
  F  F33  1  0.35477400  0.24587000  0.34364600  1
  F  F34  1  0.64522600  0.75413000  0.84364600  1
  F  F35  1  0.64522600  0.75413000  0.65635400  1
  F  F36  1  0.29853700  0.09851200  0.49817000  1
  F  F37  1  0.29853700  0.09851200  0.00183000  1
  F  F38  1  0.48211400  0.87220400  0.40495300  1
  F  F39  1  0.48211400  0.87220400  0.09504700  1
  F  F40  1  0.55442400  0.85563500  0.75000000  1
  F  F41  1  0.24350100  0.14274600  0.84396900  1
  F  F42  1  0.24350100  0.14274600  0.65603100  1
  F  F43  1  0.55001900  0.83922500  0.25000000  1
  F  F44  1  0.38599400  0.98577800  0.41058100  1
  F  F45  1  0.38599400  0.98577800  0.08941900  1
  F  F46  1  0.11396400  0.88603600  0.34803800  1
  F  F47  1  0.47839300  0.52160700  0.25000000  1
  F  F48  1  0.02158600  0.97841400  0.25000000  1
  F  F49  1  0.39915100  0.60084900  0.39057700  1
  F  F50  1  0.39915100  0.60084900  0.10942300  1
  F  F51  1  0.35830600  0.64169400  0.59123500  1
  F  F52  1  0.35830600  0.64169400  0.90876500  1
  F  F53  1  0.11396400  0.88603600  0.15196200  1
  F  F54  1  0.14516200  0.85483800  0.63951500  1
  F  F55  1  0.14516200  0.85483800  0.86048500  1
  F  F56  1  0.16077500  0.44998100  0.25000000  1
  F  F57  1  0.14436500  0.44557600  0.75000000  1
  F  F58  1  0.12779600  0.51788600  0.40495300  1
  F  F59  1  0.12779600  0.51788600  0.09504700  1
  F  F60  1  0.24587000  0.35477400  0.65635400  1
  F  F61  1  0.24587000  0.35477400  0.84364600  1
  F  F62  1  0.09851200  0.29853700  0.50183000  1
  F  F63  1  0.09851200  0.29853700  0.99817000  1
  F  F64  1  0.14274600  0.24350100  0.34396900  1
  F  F65  1  0.14274600  0.24350100  0.15603100  1
  F  F66  1  0.98577800  0.38599400  0.58941900  1
  F  F67  1  0.98577800  0.38599400  0.91058100  1
loop_
_geom_bond_atom_site_label_1
_geom_bond_atom_site_label_2
_geom_bond_distance
_geom_bond_site_symmetry_2
F0 Fe0 1.854006 1_455
F0 Li7 1.945600 1_555
F1 Fe1 1.854006 1_455
F1 Li6 1.945600 1_555
F2 Fe10 1.980053 1_555
F2 Fe3 1.998801 1_555
F3 Fe10 1.980053 1_555
F3 Fe4 1.998801 1_555
F4 Fe4 1.965657 1_555
F4 Fe1 2.029617 1_555
F5 Fe3 1.965657 1_554
F5 Fe0 2.029617 1_555
F6 Fe2 1.944578 1_555
F6 Fe0 2.022305 1_555
F7 Fe2 1.944578 1_555
F7 Fe1 2.022305 1_555
F8 Fe3 1.861447 1_555
F8 Li4 1.994330 1_555
F9 Fe4 1.861447 1_555
F9 Li3 1.994330 1_555
F10 Fe0 1.971310 1_555
F10 Fe1 1.971310 1_555
F11 Li2 1.915602 1_555
F11 Fe3 2.048977 1_555
F11 Fe4 2.048977 1_555
F12 Fe5 1.975464 1_555
F12 Fe4 1.975464 1_555
F13 Fe8 1.964386 1_545
F13 Fe19 1.964386 1_655
F14 Fe11 1.969090 1_555
F14 Fe1 1.969090 1_555
F15 Fe17 1.956830 1_655
F15 Fe10 1.956830 1_545
F16 Fe13 1.972879 1_545
F16 Fe15 1.972879 1_655
F17 Fe7 1.964386 1_545
F17 Fe18 1.964386 1_655
F18 Fe10 1.955747 1_555
F18 Fe17 1.955747 1_555
F19 Fe14 1.972879 1_545
F19 Fe16 1.972879 1_655
F20 Fe6 1.975464 1_555
F20 Fe3 1.975464 1_555
F21 Fe12 1.969090 1_555
F21 Fe0 1.969090 1_555
F22 Fe8 1.854006 1_545
F22 Li4 1.945600 1_555
F23 Fe7 1.854006 1_545
F23 Li3 1.945600 1_555
F24 Li2 1.915602 1_555
F24 Fe6 2.048977 1_555
F24 Fe5 2.048977 1_555
F25 Fe2 1.980053 1_555
F25 Fe13 1.998801 1_555
F26 Fe2 1.980053 1_555
F26 Fe14 1.998801 1_555
F27 Fe12 1.971310 1_555
F27 Fe11 1.971310 1_555
F28 Fe6 1.861447 1_555
F28 Li4 1.994330 1_555
F29 Fe5 1.861447 1_555
F29 Li3 1.994330 1_555
F30 Fe14 1.965657 1_556
F30 Fe8 2.029617 1_555
F31 Fe13 1.965657 1_555
F31 Fe7 2.029617 1_555
F32 Fe9 1.944578 1_555
F32 Fe12 2.022305 1_555
F33 Fe9 1.944578 1_555
F33 Fe11 2.022305 1_555
F34 Fe10 1.944578 1_555
F34 Fe8 2.022305 1_555
F35 Fe10 1.944578 1_555
F35 Fe7 2.022305 1_555
F36 Fe5 1.965657 1_555
F36 Fe11 2.029617 1_555
F37 Fe6 1.965657 1_554
F37 Fe12 2.029617 1_555
F38 Fe13 1.861447 1_555
F38 Li6 1.994330 1_555
F39 Fe14 1.861447 1_555
F39 Li7 1.994330 1_555
F40 Fe7 1.971310 1_555
F40 Fe8 1.971310 1_555
F41 Fe17 1.980053 1_555
F41 Fe6 1.998801 1_555
F42 Fe17 1.980053 1_555
F42 Fe5 1.998801 1_555
F43 Li5 1.915602 1_555
F43 Fe13 2.048977 1_555
F43 Fe14 2.048977 1_555
F44 Fe11 1.854006 1_565
F44 Li6 1.945600 1_555
F45 Fe12 1.854006 1_565
F45 Li7 1.945600 1_555
F46 Fe1 1.964386 1_455
F46 Fe11 1.964386 1_565
F47 Fe9 1.955747 1_555
F47 Fe2 1.955747 1_555
F48 Fe9 1.956830 1_565
F48 Fe2 1.956830 1_455
F49 Fe15 1.975464 1_555
F49 Fe13 1.975464 1_555
F50 Fe16 1.975464 1_555
F50 Fe14 1.975464 1_555
F51 Fe18 1.969090 1_555
F51 Fe7 1.969090 1_555
F52 Fe19 1.969090 1_555
F52 Fe8 1.969090 1_555
F53 Fe0 1.964386 1_455
F53 Fe12 1.964386 1_565
F54 Fe4 1.972879 1_455
F54 Fe5 1.972879 1_565
F55 Fe3 1.972879 1_455
F55 Fe6 1.972879 1_565
F56 Li5 1.915602 1_555
F56 Fe15 2.048977 1_555
F56 Fe16 2.048977 1_555
F57 Fe18 1.971310 1_555
F57 Fe19 1.971310 1_555
F58 Fe15 1.861447 1_555
F58 Li6 1.994330 1_555
F59 Fe16 1.861447 1_555
F59 Li7 1.994330 1_555
F60 Fe17 1.944578 1_555
F60 Fe18 2.022305 1_555
F61 Fe17 1.944578 1_555
F61 Fe19 2.022305 1_555
F62 Fe15 1.965657 1_555
F62 Fe18 2.029617 1_555
F63 Fe16 1.965657 1_556
F63 Fe19 2.029617 1_555
F64 Fe9 1.980053 1_555
F64 Fe15 1.998801 1_555
F65 Fe9 1.980053 1_555
F65 Fe16 1.998801 1_555
F66 Fe18 1.854006 1_655
F66 Li3 1.945600 1_555
F67 Fe19 1.854006 1_655
F67 Li4 1.945600 1_555
