# generated using pymatgen
data_LiCo3(OF3)2
_symmetry_space_group_name_H-M   'P 1'
_cell_length_a   4.59211801
_cell_length_b   5.49497743
_cell_length_c   10.26843499
_cell_angle_alpha   97.19803791
_cell_angle_beta   89.22126991
_cell_angle_gamma   90.17738191
_symmetry_Int_Tables_number   1
_chemical_formula_structural   LiCo3(OF3)2
_chemical_formula_sum   'Li2 Co6 O4 F12'
_cell_volume   257.04338515
_cell_formula_units_Z   2
loop_
 _symmetry_equiv_pos_site_id
 _symmetry_equiv_pos_as_xyz
  1  'x, y, z'
loop_
 _atom_site_type_symbol
 _atom_site_label
 _atom_site_symmetry_multiplicity
 _atom_site_fract_x
 _atom_site_fract_y
 _atom_site_fract_z
 _atom_site_occupancy
  Li  Li0  1  0.99999600  0.99999600  0.00000000  1
  Li  Li1  1  0.50000100  0.00000200  0.50000100  1
  Co  Co0  1  0.00000200  0.50000400  0.50000100  1
  Co  Co1  1  0.96820900  0.73009600  0.24678600  1
  Co  Co2  1  0.03178500  0.26990300  0.75321300  1
  Co  Co3  1  0.49999800  0.49999400  0.99999700  1
  Co  Co4  1  0.47280500  0.27143000  0.25566900  1
  Co  Co5  1  0.52719300  0.72857100  0.74433200  1
  O  O0  1  0.69488100  0.52633200  0.17316400  1
  O  O1  1  0.19098700  0.47134600  0.33168200  1
  O  O2  1  0.80902500  0.52866400  0.66831200  1
  O  O3  1  0.30511000  0.47366300  0.82683900  1
  F  F0  1  0.19846000  0.71679000  0.07454700  1
  F  F1  1  0.68991400  0.27615200  0.42227600  1
  F  F2  1  0.31009200  0.72384800  0.57772600  1
  F  F3  1  0.80153800  0.28320300  0.92545700  1
  F  F4  1  0.30382400  0.22824900  0.07432500  1
  F  F5  1  0.80118100  0.77474500  0.42710700  1
  F  F6  1  0.19882600  0.22526800  0.57288800  1
  F  F7  1  0.69617700  0.77173700  0.92567700  1
  F  F8  1  0.77707000  0.02932400  0.18248900  1
  F  F9  1  0.27470600  0.96702100  0.31401800  1
  F  F10  1  0.72529000  0.03298900  0.68597900  1
  F  F11  1  0.22293100  0.97067400  0.81751400  1
loop_
_geom_bond_atom_site_label_1
_geom_bond_atom_site_label_2
_geom_bond_distance
_geom_bond_site_symmetry_2
Co0 O2 1.916337 1_455
Co0 O1 1.916426 1_555
Co0 F2 1.987877 1_555
Co0 F1 1.987895 1_455
Co0 F6 1.995776 1_555
Co0 F5 1.995826 1_455
Co1 O0 1.790411 1_555
Co1 F5 1.981337 1_555
Co1 F9 1.985535 1_655
Co1 F0 2.041712 1_655
Co1 O1 2.042540 1_655
Co1 F8 2.051003 1_565
Co2 O3 1.790403 1_555
Co2 F6 1.981396 1_555
Co2 F10 1.985497 1_455
Co2 F3 2.041749 1_455
Co2 O2 2.042570 1_455
Co2 F11 2.051039 1_545
Co3 F3 1.917101 1_555
Co3 F0 1.917143 1_556
Co3 F7 1.970340 1_555
Co3 F4 1.970378 1_556
Co3 O3 1.990315 1_555
Co3 O0 1.990385 1_556
Co4 O1 1.804795 1_555
Co4 F1 1.989109 1_555
Co4 O0 1.996167 1_555
Co4 F8 2.004799 1_555
Co4 F4 2.013293 1_555
Co4 F9 2.052179 1_545
Co5 O2 1.804838 1_555
Co5 F2 1.989081 1_555
Co5 O3 1.996219 1_555
Co5 F11 2.004785 1_555
Co5 F7 2.013307 1_555
Co5 F10 2.052233 1_565
F0 Li0 2.040740 1_455
F1 Li1 1.994129 1_555
F2 Li1 1.994139 1_565
F3 Li0 2.040712 1_546
F4 Li0 1.969887 1_445
F5 Li1 1.937909 1_565
F6 Li1 1.937900 1_555
F7 Li0 1.969870 1_556
F8 Li0 2.111528 1_545
F9 Li1 2.171676 1_565
F10 Li1 2.171617 1_555
F11 Li0 2.111522 1_456
