# generated using pymatgen
data_Li7V3P8O29
_symmetry_space_group_name_H-M   'P 1'
_cell_length_a   9.84788500
_cell_length_b   9.87414557
_cell_length_c   13.92639764
_cell_angle_alpha   89.89899030
_cell_angle_beta   90.37759443
_cell_angle_gamma   119.82227476
_symmetry_Int_Tables_number   1
_chemical_formula_structural   Li7V3P8O29
_chemical_formula_sum   'Li14 V6 P16 O58'
_cell_volume   1174.83482045
_cell_formula_units_Z   2
loop_
 _symmetry_equiv_pos_site_id
 _symmetry_equiv_pos_as_xyz
  1  'x, y, z'
loop_
 _atom_site_type_symbol
 _atom_site_label
 _atom_site_symmetry_multiplicity
 _atom_site_fract_x
 _atom_site_fract_y
 _atom_site_fract_z
 _atom_site_occupancy
  Li  Li0  1  0.67704600  0.90881300  0.55989700  1
  Li  Li1  1  0.23635800  0.32646800  0.56308800  1
  Li  Li2  1  0.33996800  0.67302800  0.38227300  1
  Li  Li3  1  0.33482800  0.66385600  0.88501500  1
  Li  Li4  1  0.08331000  0.30937700  0.06149300  1
  Li  Li5  1  0.22297700  0.90833900  0.06739800  1
  Li  Li6  1  0.90352000  0.23482100  0.43986700  1
  Li  Li7  1  0.09017400  0.76232900  0.56342200  1
  Li  Li8  1  0.78163200  0.08019700  0.93878200  1
  Li  Li9  1  0.90989900  0.68799400  0.93963800  1
  Li  Li10  1  0.66127900  0.32745800  0.11628300  1
  Li  Li11  1  0.76573100  0.66347700  0.43797000  1
  Li  Li12  1  0.31429400  0.22370000  0.94190200  1
  Li  Li13  1  0.05755400  0.01702800  0.48826200  1
  V  V0  1  0.99540200  0.43287300  0.25054900  1
  V  V1  1  0.00211400  0.56945500  0.74919600  1
  V  V2  1  0.56331400  0.99978800  0.74672700  1
  V  V3  1  0.43456200  0.00353600  0.25237900  1
  V  V4  1  0.56765500  0.56839500  0.24847400  1
  V  V5  1  0.43828100  0.43596600  0.75008300  1
  P  P0  1  0.68233400  0.77249100  0.83897200  1
  P  P1  1  0.68509200  0.91188200  0.34142600  1
  P  P2  1  0.22756700  0.31735600  0.34587200  1
  P  P3  1  0.32807900  0.66391600  0.12696000  1
  P  P4  1  0.33485800  0.66551800  0.62486700  1
  P  P5  1  0.09326800  0.32319300  0.84198400  1
  P  P6  1  0.91320900  0.23051800  0.65746900  1
  P  P7  1  0.23351900  0.91128400  0.84699500  1
  P  P8  1  0.76718400  0.09063900  0.15490800  1
  P  P9  1  0.09032000  0.77294500  0.34234200  1
  P  P10  1  0.90478900  0.67661700  0.15739700  1
  P  P11  1  0.66791000  0.33797700  0.37396100  1
  P  P12  1  0.66716600  0.33270700  0.87276200  1
  P  P13  1  0.76819800  0.68512400  0.65404500  1
  P  P14  1  0.30520300  0.08198700  0.66028100  1
  P  P15  1  0.32019500  0.23311100  0.15932700  1
  O  O0  1  0.76311300  0.76533900  0.56248000  1
  O  O1  1  0.67283100  0.74961200  0.34153300  1
  O  O2  1  0.75673200  0.00493300  0.06474900  1
  O  O3  1  0.66116900  0.91833900  0.84010400  1
  O  O4  1  0.51461800  0.62777700  0.82451000  1
  O  O5  1  0.46798200  0.65272700  0.17584800  1
  O  O6  1  0.37709700  0.47901400  0.33689700  1
  O  O7  1  0.24498000  0.25384700  0.06997000  1
  O  O8  1  0.25475300  0.33219300  0.84308000  1
  O  O9  1  0.48949700  0.81053400  0.66497700  1
  O  O10  1  0.51889900  0.88789400  0.33311200  1
  O  O11  1  0.32717800  0.51146300  0.66637700  1
  O  O12  1  0.32607600  0.65006300  0.01972300  1
  O  O13  1  0.34077900  0.66186900  0.51688100  1
  O  O14  1  0.17518700  0.51830500  0.16898700  1
  O  O15  1  0.37297500  0.88352800  0.82442300  1
  O  O16  1  0.33296000  0.81495500  0.16081300  1
  O  O17  1  0.08093400  0.33655000  0.34226400  1
  O  O18  1  0.00208900  0.21256300  0.75124200  1
  O  O19  1  0.00078700  0.22634100  0.56909300  1
  O  O20  1  0.99953900  0.24595600  0.93079300  1
  O  O21  1  0.12217100  0.48986100  0.82617500  1
  O  O22  1  0.19134200  0.67675000  0.65920500  1
  O  O23  1  0.91969800  0.25249600  0.15939900  1
  O  O24  1  0.10392400  0.62298600  0.33240100  1
  O  O25  1  0.25116500  0.91639800  0.34053100  1
  O  O26  1  0.78329400  0.99897900  0.24741400  1
  O  O27  1  0.77487700  0.00510400  0.42944200  1
  O  O28  1  0.19602900  0.98772600  0.58007100  1
  O  O29  1  0.74811500  0.08240600  0.65962000  1
  O  O30  1  0.90442200  0.37851200  0.66922600  1
  O  O31  1  0.08241500  0.75299400  0.84565300  1
  O  O32  1  0.81991400  0.33680500  0.33067600  1
  O  O33  1  0.88216700  0.50974900  0.17252400  1
  O  O34  1  0.00030300  0.75238900  0.06912500  1
  O  O35  1  0.99967700  0.77117400  0.43107000  1
  O  O36  1  0.99660400  0.78167400  0.24944500  1
  O  O37  1  0.91505800  0.66966600  0.65829700  1
  O  O38  1  0.66278000  0.18259500  0.82914200  1
  O  O39  1  0.62807900  0.11801500  0.17227500  1
  O  O40  1  0.81461600  0.48156300  0.83922500  1
  O  O41  1  0.65485200  0.32235300  0.98030700  1
  O  O42  1  0.68934700  0.35581600  0.48017900  1
  O  O43  1  0.67127800  0.48997200  0.33036700  1
  O  O44  1  0.45857100  0.07443700  0.66577700  1
  O  O45  1  0.52354300  0.19539600  0.33380200  1
  O  O46  1  0.74345300  0.66253600  0.15803200  1
  O  O47  1  0.78111600  0.79592300  0.74224100  1
  O  O48  1  0.76870200  0.76185200  0.92333200  1
  O  O49  1  0.61743600  0.52693100  0.66974000  1
  O  O50  1  0.51738100  0.33602200  0.83053600  1
  O  O51  1  0.48803500  0.37341200  0.17521400  1
  O  O52  1  0.32718900  0.08218200  0.15687700  1
  O  O53  1  0.25649900  0.00186900  0.93831600  1
  O  O54  1  0.21824200  0.01166300  0.76118100  1
  O  O55  1  0.33737800  0.25090200  0.65896400  1
  O  O56  1  0.21921400  0.22636900  0.43486200  1
  O  O57  1  0.21517300  0.21878500  0.25106700  1
loop_
_geom_bond_atom_site_label_1
_geom_bond_atom_site_label_2
_geom_bond_distance
_geom_bond_site_symmetry_2
Li0 O0 1.979996 1_555
Li0 O29 2.039365 1_565
Li0 O27 2.058818 1_565
Li0 O9 2.177706 1_555
Li1 O56 2.007614 1_555
Li1 O55 2.011590 1_555
Li1 O19 2.021706 1_555
Li1 O11 2.138483 1_555
Li2 O13 1.877844 1_555
Li2 O10 2.089822 1_555
Li2 O6 2.215182 1_555
Li2 O24 2.228789 1_555
Li3 O12 1.880132 1_556
Li3 O21 2.100629 1_555
Li3 O4 2.149385 1_555
Li3 O15 2.178373 1_555
Li4 O7 1.927423 1_555
Li4 O20 1.963715 1_454
Li4 O23 1.974022 1_455
Li4 O14 2.334969 1_555
Li5 O52 1.947076 1_565
Li5 O34 1.955107 1_555
Li5 O53 1.972854 1_564
Li5 O16 2.164791 1_555
Li6 O27 1.977785 1_555
Li6 O17 2.046962 1_655
Li6 O19 2.054217 1_655
Li6 O32 2.192496 1_555
Li7 O28 1.945456 1_555
Li7 O37 2.003313 1_455
Li7 O35 2.062621 1_455
Li7 O22 2.074088 1_555
Li8 O2 1.873419 1_556
Li8 O20 1.950729 1_555
Li8 O3 1.987608 1_545
Li8 O38 2.423158 1_555
Li9 O48 1.876368 1_555
Li9 O34 1.966875 1_656
Li9 O31 1.988269 1_655
Li9 O40 2.254144 1_555
Li10 O41 1.894218 1_554
Li10 O39 2.077740 1_555
Li10 O51 2.140076 1_555
Li10 O33 2.161786 1_555
Li11 O35 2.003416 1_555
Li11 O0 2.012834 1_555
Li11 O1 2.029224 1_555
Li11 O43 2.109871 1_555
Li12 O53 1.970859 1_555
Li12 O7 1.988852 1_556
Li12 O8 1.998599 1_555
Li12 O50 2.337511 1_555
Li13 O28 1.986515 1_545
Li13 O56 2.024200 1_555
Li13 O35 2.340320 1_445
O0 P13 1.513594 1_555
O1 P1 1.545782 1_555
O1 V4 2.025160 1_555
O2 P8 1.489525 1_555
O3 P0 1.554453 1_555
O3 V2 2.004283 1_555
O4 P0 1.568303 1_555
O4 V5 1.951178 1_555
O5 P3 1.585150 1_555
O5 V4 1.864605 1_555
O6 P2 1.547845 1_555
O6 V4 2.048468 1_555
O7 P15 1.508958 1_555
O8 P5 1.547986 1_555
O8 V5 2.044018 1_555
O9 P4 1.582478 1_555
O9 V2 1.990516 1_555
O10 P1 1.536280 1_555
O10 V3 2.045528 1_565
O11 P4 1.592759 1_555
O11 V5 1.975634 1_555
O12 P3 1.499022 1_555
O13 P4 1.506558 1_555
O14 P3 1.591312 1_555
O14 V0 1.916793 1_455
O15 P7 1.562167 1_555
O15 V2 1.970851 1_555
O16 P3 1.542619 1_555
O16 V3 2.057425 1_565
O17 P2 1.547536 1_555
O17 V0 2.005950 1_455
O18 P5 1.615805 1_555
O18 P6 1.625250 1_455
O19 P6 1.519820 1_455
O20 P5 1.508253 1_655
O21 P5 1.539959 1_555
O21 V1 2.017257 1_555
O22 P4 1.550316 1_555
O22 V1 2.056240 1_555
O23 P8 1.557434 1_555
O23 V0 2.003541 1_555
O24 P9 1.558175 1_555
O24 V0 1.990353 1_455
O25 P9 1.511567 1_555
O25 V3 1.997297 1_565
O26 P1 1.604520 1_555
O26 P8 1.624800 1_565
O27 P1 1.520437 1_545
O28 P14 1.504165 1_565
O29 P6 1.555182 1_555
O29 V2 1.999516 1_545
O30 P6 1.515434 1_555
O30 V1 1.977314 1_655
O31 P7 1.531014 1_555
O31 V1 2.069624 1_555
O32 P11 1.622781 1_555
O32 V0 1.876912 1_555
O33 P10 1.563060 1_555
O33 V0 1.955370 1_555
O34 P10 1.505910 1_455
O35 P9 1.524110 1_655
O36 P10 1.610404 1_555
O36 P9 1.611174 1_655
O37 P13 1.528684 1_555
O37 V1 2.035098 1_655
O38 P12 1.583362 1_555
O38 V2 1.941373 1_545
O39 P8 1.543072 1_555
O39 V3 2.008733 1_555
O40 P12 1.539720 1_555
O40 V1 2.041416 1_655
O41 P12 1.502607 1_555
O42 P11 1.491155 1_555
O43 P11 1.603023 1_555
O43 V4 1.925922 1_555
O44 P14 1.550168 1_555
O44 V2 1.901621 1_545
O45 P11 1.522370 1_555
O45 V3 1.996484 1_555
O46 P10 1.524538 1_555
O46 V4 1.967654 1_555
O47 P13 1.608096 1_555
O47 P0 1.614585 1_555
O48 P0 1.479848 1_555
O49 P13 1.545449 1_555
O49 V5 1.902032 1_555
O50 P12 1.599757 1_555
O50 V5 1.893469 1_555
O51 P15 1.555280 1_555
O51 V4 1.964013 1_555
O52 P15 1.526169 1_555
O52 V3 2.069921 1_555
O53 P7 1.505838 1_545
O54 P7 1.604684 1_545
O54 P14 1.615870 1_555
O55 P14 1.535228 1_555
O55 V5 2.030365 1_555
O56 P2 1.507887 1_555
O57 P2 1.609236 1_555
O57 P15 1.610347 1_555
