# generated using pymatgen
data_Fe4S5
_symmetry_space_group_name_H-M   'P 1'
_cell_length_a   7.85387303
_cell_length_b   7.85835612
_cell_length_c   10.20474771
_cell_angle_alpha   89.26431358
_cell_angle_beta   91.28775421
_cell_angle_gamma   90.00550235
_symmetry_Int_Tables_number   1
_chemical_formula_structural   Fe4S5
_chemical_formula_sum   'Fe8 S10'
_cell_volume   629.61105203
_cell_formula_units_Z   2
loop_
 _symmetry_equiv_pos_site_id
 _symmetry_equiv_pos_as_xyz
  1  'x, y, z'
loop_
 _atom_site_type_symbol
 _atom_site_label
 _atom_site_symmetry_multiplicity
 _atom_site_fract_x
 _atom_site_fract_y
 _atom_site_fract_z
 _atom_site_occupancy
  Fe  Fe0  1  0.29209700  0.09649600  0.99627200  1
  Fe  Fe1  1  0.59497900  0.20501300  0.99520200  1
  Fe  Fe2  1  0.90088500  0.29382700  0.00451100  1
  Fe  Fe3  1  0.20443500  0.40195200  0.00575700  1
  Fe  Fe4  1  0.70781000  0.90342100  0.99634200  1
  Fe  Fe5  1  0.40480200  0.79454900  0.99485600  1
  Fe  Fe6  1  0.09923500  0.70610000  0.00424500  1
  Fe  Fe7  1  0.79566200  0.59775300  0.00558000  1
  S  S0  1  0.79002000  0.11029700  0.87540400  1
  S  S1  1  0.10846500  0.20097100  0.12440300  1
  S  S2  1  0.38606900  0.29779500  0.87685100  1
  S  S3  1  0.70497100  0.39046900  0.12227200  1
  S  S4  1  0.99647900  0.50178900  0.88393400  1
  S  S5  1  0.20320100  0.89357400  0.87498200  1
  S  S6  1  0.89873700  0.79451200  0.12417400  1
  S  S7  1  0.60701400  0.70622000  0.87624900  1
  S  S8  1  0.30187100  0.60554600  0.12229100  1
  S  S9  1  0.50326800  0.99771700  0.11667500  1
loop_
_geom_bond_atom_site_label_1
_geom_bond_atom_site_label_2
_geom_bond_distance
_geom_bond_site_symmetry_2
Fe0 S2 2.126707 1_555
Fe0 S5 2.138673 1_545
Fe0 S1 2.139223 1_556
Fe0 S9 2.178768 1_546
Fe1 S0 2.121975 1_555
Fe1 S3 2.132986 1_556
Fe1 S2 2.137958 1_555
Fe1 S9 2.167288 1_546
Fe2 S3 2.120192 1_555
Fe2 S0 2.137997 1_554
Fe2 S1 2.138897 1_655
Fe2 S4 2.176715 1_554
Fe3 S1 2.126068 1_555
Fe3 S2 2.132504 1_554
Fe3 S8 2.137112 1_555
Fe3 S4 2.170825 1_454
Fe4 S7 2.129556 1_555
Fe4 S6 2.136909 1_556
Fe4 S0 2.137054 1_565
Fe4 S9 2.179435 1_556
Fe5 S5 2.120779 1_555
Fe5 S8 2.132620 1_556
Fe5 S7 2.139429 1_555
Fe5 S9 2.167943 1_556
Fe6 S8 2.120839 1_555
Fe6 S6 2.137477 1_455
Fe6 S5 2.139030 1_554
Fe6 S4 2.177677 1_454
Fe7 S6 2.124737 1_555
Fe7 S7 2.132379 1_554
Fe7 S3 2.137010 1_555
Fe7 S4 2.170136 1_554
