# generated using pymatgen
data_Al2IrRh
_symmetry_space_group_name_H-M   'P 1'
_cell_length_a   4.22470441
_cell_length_b   4.22470938
_cell_length_c   4.22471293
_cell_angle_alpha   59.99998328
_cell_angle_beta   60.00005564
_cell_angle_gamma   60.00000559
_symmetry_Int_Tables_number   1
_chemical_formula_structural   Al2IrRh
_chemical_formula_sum   'Al2 Ir1 Rh1'
_cell_volume   53.31820481
_cell_formula_units_Z   1
loop_
 _symmetry_equiv_pos_site_id
 _symmetry_equiv_pos_as_xyz
  1  'x, y, z'
loop_
 _atom_site_type_symbol
 _atom_site_label
 _atom_site_symmetry_multiplicity
 _atom_site_fract_x
 _atom_site_fract_y
 _atom_site_fract_z
 _atom_site_occupancy
  Al  Al0  1  0.50000100  0.50000100  0.50000100  1
  Al  Al1  1  0.00000100  0.00000000  0.00000000  1
  Ir  Ir0  1  0.25000000  0.25000000  0.25000000  1
  Rh  Rh0  1  0.74999900  0.75000000  0.75000100  1
loop_
_geom_bond_atom_site_label_1
_geom_bond_atom_site_label_2
_geom_bond_distance
_geom_bond_site_symmetry_2
Al0 Rh0 2.587085 1_555
Al0 Ir0 2.587090 1_655
Al0 Ir0 2.587092 1_565
Al0 Ir0 2.587095 1_556
Al0 Rh0 2.587098 1_545
Al0 Rh0 2.587098 1_554
Al0 Rh0 2.587101 1_455
Al0 Ir0 2.587105 1_555
Al1 Rh0 2.587087 1_544
Al1 Ir0 2.587092 1_555
Al1 Ir0 2.587095 1_545
Al1 Rh0 2.587095 1_454
Al1 Ir0 2.587097 1_455
Al1 Rh0 2.587098 1_444
Al1 Ir0 2.587098 1_554
Al1 Rh0 2.587102 1_445
