# generated using pymatgen
data_Y2AlZn
_symmetry_space_group_name_H-M   'P 1'
_cell_length_a   5.07574982
_cell_length_b   5.07574982
_cell_length_c   5.07574982
_cell_angle_alpha   60.00000000
_cell_angle_beta   60.00000000
_cell_angle_gamma   60.00000000
_symmetry_Int_Tables_number   1
_chemical_formula_structural   Y2AlZn
_chemical_formula_sum   'Y2 Al1 Zn1'
_cell_volume   92.46675711
_cell_formula_units_Z   1
loop_
 _symmetry_equiv_pos_site_id
 _symmetry_equiv_pos_as_xyz
  1  'x, y, z'
loop_
 _atom_site_type_symbol
 _atom_site_label
 _atom_site_symmetry_multiplicity
 _atom_site_fract_x
 _atom_site_fract_y
 _atom_site_fract_z
 _atom_site_occupancy
  Y  Y0  1  -0.00000000  0.00000000  0.00000000  1
  Y  Y1  1  0.49999900  0.49999900  0.49999900  1
  Al  Al0  1  0.25000000  0.25000000  0.25000000  1
  Zn  Zn0  1  0.75000000  0.75000000  0.75000000  1
loop_
_geom_bond_atom_site_label_1
_geom_bond_atom_site_label_2
_geom_bond_distance
_geom_bond_site_symmetry_2
Y0 Zn0 3.108249 1_544
Y0 Zn0 3.108249 1_445
Y0 Zn0 3.108249 1_454
Y0 Zn0 3.108249 1_444
Y1 Zn0 3.108245 1_554
Y1 Zn0 3.108245 1_545
Y1 Zn0 3.108245 1_455
Y1 Zn0 3.108262 1_555
Al0 Y1 3.108237 1_555
Al0 Y0 3.108249 1_655
Al0 Y0 3.108249 1_556
Al0 Y0 3.108249 1_555
Al0 Y0 3.108249 1_565
Al0 Y1 3.108253 1_455
Al0 Y1 3.108253 1_545
Al0 Y1 3.108253 1_554
