# generated using pymatgen
data_NaIn3
_symmetry_space_group_name_H-M   'P 1'
_cell_length_a   6.57345864
_cell_length_b   6.57345864
_cell_length_c   5.44759938
_cell_angle_alpha   90.00000000
_cell_angle_beta   90.00000000
_cell_angle_gamma   120.00000685
_symmetry_Int_Tables_number   1
_chemical_formula_structural   NaIn3
_chemical_formula_sum   'Na2 In6'
_cell_volume   203.85606320
_cell_formula_units_Z   2
loop_
 _symmetry_equiv_pos_site_id
 _symmetry_equiv_pos_as_xyz
  1  'x, y, z'
loop_
 _atom_site_type_symbol
 _atom_site_label
 _atom_site_symmetry_multiplicity
 _atom_site_fract_x
 _atom_site_fract_y
 _atom_site_fract_z
 _atom_site_occupancy
  Na  Na0  1  0.66666700  0.33333300  0.25000000  1
  Na  Na1  1  0.33333300  0.66666700  0.75000000  1
  In  In0  1  0.83644264  0.16355736  0.75000000  1
  In  In1  1  0.32711672  0.16355736  0.75000000  1
  In  In2  1  0.83644264  0.67288328  0.75000000  1
  In  In3  1  0.16355736  0.83644264  0.25000000  1
  In  In4  1  0.67288328  0.83644264  0.25000000  1
  In  In5  1  0.16355736  0.32711672  0.25000000  1
loop_
_geom_bond_atom_site_label_1
_geom_bond_atom_site_label_2
_geom_bond_distance
_geom_bond_site_symmetry_2
In0 In1 3.225426 1_655
In0 In2 3.225426 1_545
In0 Na1 3.286920 1_545
In0 Na1 3.286920 1_655
In0 In5 3.299522 1_655
In0 In4 3.299522 1_545
In0 In5 3.299522 1_656
In0 In4 3.299522 1_546
In0 Na0 3.339991 1_555
In0 Na0 3.339991 1_556
In0 In1 3.348033 1_555
In0 In2 3.348033 1_555
In1 In2 3.225425 1_445
In1 Na1 3.286910 1_545
In1 Na1 3.286930 1_555
In1 In3 3.299522 1_545
In1 In3 3.299522 1_546
In1 In5 3.299535 1_556
In1 In5 3.299535 1_555
In1 Na0 3.339988 1_555
In1 Na0 3.339988 1_556
In1 In2 3.348033 1_555
In2 Na1 3.286910 1_655
In2 Na1 3.286930 1_555
In2 In3 3.299522 1_656
In2 In3 3.299522 1_655
In2 In4 3.299535 1_556
In2 In4 3.299535 1_555
In2 Na0 3.339988 1_555
In2 Na0 3.339988 1_556
In3 In4 3.225426 1_455
In3 In5 3.225426 1_565
In3 Na0 3.286920 1_455
In3 Na0 3.286920 1_565
In3 Na1 3.339991 1_555
In3 Na1 3.339991 1_554
In3 In4 3.348033 1_555
In3 In5 3.348033 1_555
In4 In5 3.225425 1_665
In4 Na0 3.286910 1_565
In4 Na0 3.286930 1_555
In4 Na1 3.339988 1_554
In4 Na1 3.339988 1_555
In4 In5 3.348033 1_555
In5 Na0 3.286910 1_455
In5 Na0 3.286930 1_555
In5 Na1 3.339988 1_554
In5 Na1 3.339988 1_555
