# generated using pymatgen
data_Ca3Sn2S7
_symmetry_space_group_name_H-M   'P 1'
_cell_length_a   3.87676300
_cell_length_b   11.34247700
_cell_length_c   12.55014200
_cell_angle_alpha   90.00000000
_cell_angle_beta   90.00000000
_cell_angle_gamma   90.00000000
_symmetry_Int_Tables_number   1
_chemical_formula_structural   Ca3Sn2S7
_chemical_formula_sum   'Ca6 Sn4 S14'
_cell_volume   551.85603832
_cell_formula_units_Z   2
loop_
 _symmetry_equiv_pos_site_id
 _symmetry_equiv_pos_as_xyz
  1  'x, y, z'
loop_
 _atom_site_type_symbol
 _atom_site_label
 _atom_site_symmetry_multiplicity
 _atom_site_fract_x
 _atom_site_fract_y
 _atom_site_fract_z
 _atom_site_occupancy
  Ca  Ca0  1  0.00000000  0.50000000  0.00000000  1
  Ca  Ca1  1  0.00000000  0.00000000  0.50000000  1
  Ca  Ca2  1  0.00000000  0.10981000  0.14699400  1
  Ca  Ca3  1  0.00000000  0.89019000  0.85300600  1
  Ca  Ca4  1  0.00000000  0.60981000  0.35300600  1
  Ca  Ca5  1  0.00000000  0.39019000  0.64699400  1
  Sn  Sn0  1  0.50000000  0.22158200  0.89083300  1
  Sn  Sn1  1  0.50000000  0.77841800  0.10916700  1
  Sn  Sn2  1  0.50000000  0.72158200  0.60916700  1
  Sn  Sn3  1  0.50000000  0.27841800  0.39083300  1
  S  S0  1  0.00000000  0.14595300  0.78978400  1
  S  S1  1  0.00000000  0.85404700  0.21021600  1
  S  S2  1  0.00000000  0.64595300  0.71021600  1
  S  S3  1  0.00000000  0.35404700  0.28978400  1
  S  S4  1  0.50000000  0.20196200  0.56895600  1
  S  S5  1  0.50000000  0.79803800  0.43104400  1
  S  S6  1  0.50000000  0.70196200  0.93104400  1
  S  S7  1  0.50000000  0.29803800  0.06895600  1
  S  S8  1  0.50000000  0.42462200  0.81849500  1
  S  S9  1  0.50000000  0.57537800  0.18150500  1
  S  S10  1  0.50000000  0.92462200  0.68150500  1
  S  S11  1  0.50000000  0.07537800  0.31849500  1
  S  S12  1  0.50000000  0.50000000  0.50000000  1
  S  S13  1  0.50000000  0.00000000  0.00000000  1
loop_
_geom_bond_atom_site_label_1
_geom_bond_atom_site_label_2
_geom_bond_distance
_geom_bond_site_symmetry_2
Ca0 S8 3.110819 1_554
Ca0 S9 3.110819 1_455
Ca0 S9 3.110819 1_555
Ca0 S8 3.110819 1_454
Ca0 S6 3.123105 1_554
Ca0 S6 3.123105 1_454
Ca0 S7 3.123105 1_455
Ca0 S7 3.123105 1_555
Ca1 S10 3.110819 1_545
Ca1 S10 3.110819 1_445
Ca1 S11 3.110819 1_455
Ca1 S11 3.110819 1_555
Ca1 S4 3.123105 1_455
Ca1 S4 3.123105 1_555
Ca1 S5 3.123105 1_445
Ca1 S5 3.123105 1_545
Ca2 S11 2.922757 1_455
Ca2 S11 2.922757 1_555
Ca2 S13 2.951594 1_455
Ca2 S13 2.951594 1_555
Ca2 S1 3.007536 1_545
Ca2 S7 3.045427 1_455
Ca2 S7 3.045427 1_555
Ca2 S3 3.299347 1_555
Ca3 S10 2.922757 1_455
Ca3 S10 2.922757 1_555
Ca3 S13 2.951594 1_466
Ca3 S13 2.951594 1_566
Ca3 S0 3.007536 1_565
Ca3 S6 3.045427 1_555
Ca3 S6 3.045427 1_455
Ca3 S2 3.299347 1_555
Ca4 S9 2.922757 1_455
Ca4 S9 2.922757 1_555
Ca4 S12 2.951594 1_555
Ca4 S12 2.951594 1_455
Ca4 S3 3.007536 1_555
Ca4 S5 3.045427 1_455
Ca4 S5 3.045427 1_555
Ca4 S1 3.299347 1_555
Ca5 S8 2.922757 1_555
Ca5 S8 2.922757 1_455
Ca5 S12 2.951594 1_455
Ca5 S12 2.951594 1_555
Ca5 S2 3.007536 1_555
Ca5 S4 3.045427 1_455
Ca5 S4 3.045427 1_555
Ca5 S0 3.299347 1_555
S0 Sn0 2.470113 1_455
S0 Sn0 2.470113 1_555
S1 Sn1 2.470113 1_555
S1 Sn1 2.470113 1_455
S2 Sn2 2.470113 1_555
S2 Sn2 2.470113 1_455
S3 Sn3 2.470113 1_455
S3 Sn3 2.470113 1_555
S4 Sn3 2.397782 1_555
S5 Sn2 2.397782 1_555
S6 Sn1 2.397782 1_556
S7 Sn0 2.397782 1_554
S8 Sn0 2.475459 1_555
S9 Sn1 2.475459 1_555
S10 Sn2 2.475459 1_555
S11 Sn3 2.475459 1_555
S12 Sn3 2.862462 1_555
S12 Sn2 2.862462 1_555
S13 Sn0 2.862462 1_554
S13 Sn1 2.862462 1_545
