# generated using pymatgen
data_PmCd3
_symmetry_space_group_name_H-M   'P 1'
_cell_length_a   5.10582180
_cell_length_b   5.10582180
_cell_length_c   5.10582180
_cell_angle_alpha   60.00000000
_cell_angle_beta   60.00000000
_cell_angle_gamma   60.00000000
_symmetry_Int_Tables_number   1
_chemical_formula_structural   PmCd3
_chemical_formula_sum   'Pm1 Cd3'
_cell_volume   94.12000956
_cell_formula_units_Z   1
loop_
 _symmetry_equiv_pos_site_id
 _symmetry_equiv_pos_as_xyz
  1  'x, y, z'
loop_
 _atom_site_type_symbol
 _atom_site_label
 _atom_site_symmetry_multiplicity
 _atom_site_fract_x
 _atom_site_fract_y
 _atom_site_fract_z
 _atom_site_occupancy
  Pm  Pm0  1  0.75000000  0.75000000  0.75000000  1
  Cd  Cd0  1  0.00000000  -0.00000000  -0.00000000  1
  Cd  Cd1  1  0.49999900  0.49999900  0.49999900  1
  Cd  Cd2  1  0.25000100  0.25000100  0.25000100  1
loop_
_geom_bond_atom_site_label_1
_geom_bond_atom_site_label_2
_geom_bond_distance
_geom_bond_site_symmetry_2
Cd0 Cd2 3.126660 1_545
Cd0 Cd2 3.126660 1_455
Cd0 Cd2 3.126660 1_554
Cd0 Pm0 3.126665 1_544
Cd0 Pm0 3.126665 1_445
Cd0 Pm0 3.126665 1_454
Cd0 Pm0 3.126665 1_444
Cd0 Cd2 3.126677 1_555
Cd1 Cd2 3.126640 1_555
Cd1 Pm0 3.126660 1_545
Cd1 Pm0 3.126660 1_455
Cd1 Pm0 3.126660 1_554
Cd1 Cd2 3.126673 1_556
Cd1 Cd2 3.126673 1_655
Cd1 Cd2 3.126673 1_565
Cd1 Pm0 3.126677 1_555
Cd2 Pm0 3.610354 1_554
Cd2 Pm0 3.610354 1_545
Cd2 Pm0 3.610354 1_455
Cd2 Pm0 3.610368 1_454
Cd2 Pm0 3.610368 1_544
Cd2 Pm0 3.610368 1_445
