# generated using pymatgen
data_GdNiB4
_symmetry_space_group_name_H-M   'P 1'
_cell_length_a   6.84981702
_cell_length_b   6.84981702
_cell_length_c   6.84981702
_cell_angle_alpha   112.88794647
_cell_angle_beta   112.88794647
_cell_angle_gamma   102.83473923
_symmetry_Int_Tables_number   1
_chemical_formula_structural   GdNiB4
_chemical_formula_sum   'Gd4 Ni4 B16'
_cell_volume   244.95909457
_cell_formula_units_Z   4
loop_
 _symmetry_equiv_pos_site_id
 _symmetry_equiv_pos_as_xyz
  1  'x, y, z'
loop_
 _atom_site_type_symbol
 _atom_site_label
 _atom_site_symmetry_multiplicity
 _atom_site_fract_x
 _atom_site_fract_y
 _atom_site_fract_z
 _atom_site_occupancy
  Gd  Gd0  1  0.20340100  0.20340100  0.00000000  1
  Gd  Gd1  1  0.79659900  0.79659900  0.00000000  1
  Gd  Gd2  1  0.75000000  0.25000000  0.50000000  1
  Gd  Gd3  1  0.25000000  0.75000000  0.50000000  1
  Ni  Ni0  1  0.50000000  0.27145600  0.77145600  1
  Ni  Ni1  1  0.50000000  0.72854400  0.22854400  1
  Ni  Ni2  1  0.72854400  0.50000000  0.22854400  1
  Ni  Ni3  1  0.27145600  0.50000000  0.77145600  1
  B  B0  1  0.11163700  0.27561100  0.38724800  1
  B  B1  1  0.88836300  0.72438900  0.61275200  1
  B  B2  1  0.88836300  0.27561100  0.16397500  1
  B  B3  1  0.11163700  0.72438900  0.83602500  1
  B  B4  1  0.72438900  0.88836300  0.61275200  1
  B  B5  1  0.27561100  0.11163700  0.38724800  1
  B  B6  1  0.72438900  0.11163700  0.83602500  1
  B  B7  1  0.27561100  0.88836300  0.16397500  1
  B  B8  1  0.41807300  0.41807300  0.53125400  1
  B  B9  1  0.88681900  0.88681900  0.46874600  1
  B  B10  1  0.58192700  0.11318100  0.00000000  1
  B  B11  1  0.11318100  0.58192700  0.00000000  1
  B  B12  1  0.58192700  0.58192700  0.46874600  1
  B  B13  1  0.11318100  0.11318100  0.53125400  1
  B  B14  1  0.88681900  0.41807300  0.00000000  1
  B  B15  1  0.41807300  0.88681900  0.00000000  1
loop_
_geom_bond_atom_site_label_1
_geom_bond_atom_site_label_2
_geom_bond_distance
_geom_bond_site_symmetry_2
Gd0 Ni1 3.068638 1_555
Gd0 Ni2 3.068638 1_555
Gd0 Ni3 3.068638 1_554
Gd0 Ni0 3.068638 1_554
Gd1 Ni0 3.068638 1_554
Gd1 Ni3 3.068638 1_554
Gd1 Ni1 3.068638 1_555
Gd1 Ni2 3.068638 1_555
Gd2 Ni0 2.964396 1_555
Gd2 Ni3 2.964396 1_655
Gd2 Ni1 2.964396 1_545
Gd2 Ni2 2.964396 1_555
Gd3 Ni3 2.964396 1_555
Gd3 Ni2 2.964396 1_455
Gd3 Ni1 2.964396 1_555
Gd3 Ni0 2.964396 1_565
B0 B2 1.690739 1_455
B0 B8 1.749816 1_555
B0 B13 1.749816 1_555
B0 B5 1.756020 1_555
B0 Ni3 2.086118 1_555
B0 Gd0 2.844365 1_555
B0 Gd1 2.844365 1_445
B0 Gd2 2.857278 1_455
B0 Gd3 2.857278 1_555
B1 B3 1.690739 1_655
B1 B9 1.749816 1_555
B1 B12 1.749816 1_555
B1 B4 1.756020 1_555
B1 Ni2 2.086118 1_555
B1 Gd0 2.844365 1_666
B1 Gd1 2.844365 1_556
B1 Gd3 2.857278 1_655
B1 Gd2 2.857278 1_555
B2 B6 1.756030 1_554
B2 Ni2 2.086117 1_555
B2 Gd1 2.844364 1_545
B2 Gd0 2.844370 1_655
B2 Gd2 2.857271 1_555
B2 Gd3 2.857278 1_655
B3 B7 1.756030 1_556
B3 Ni3 2.086117 1_555
B3 Gd0 2.844364 1_566
B3 Gd1 2.844370 1_456
B3 Gd3 2.857271 1_555
B3 Gd2 2.857278 1_455
B4 B6 1.690739 1_565
B4 B9 1.749816 1_555
B4 Ni1 2.086118 1_555
B4 Gd0 2.844365 1_666
B4 Gd1 2.844365 1_556
B4 Gd3 2.857278 1_555
B4 Gd2 2.857278 1_565
B5 B7 1.690739 1_545
B5 B8 1.749816 1_555
B5 Ni0 2.086118 1_555
B5 Gd0 2.844365 1_555
B5 Gd1 2.844365 1_445
B5 Gd2 2.857278 1_555
B5 Gd3 2.857278 1_545
B6 Ni0 2.086117 1_555
B6 Gd0 2.844364 1_656
B6 Gd1 2.844370 1_546
B6 Gd2 2.857271 1_555
B6 Gd3 2.857278 1_545
B7 Ni1 2.086117 1_555
B7 Gd1 2.844364 1_455
B7 Gd0 2.844370 1_565
B7 Gd3 2.857271 1_555
B7 Gd2 2.857278 1_565
B8 Ni3 2.201863 1_555
B8 Ni0 2.201863 1_555
B8 Gd1 2.795816 1_556
B8 Gd3 2.809008 1_555
B8 Gd2 2.809008 1_555
B8 Gd0 2.877755 1_555
B9 Ni1 2.201863 1_555
B9 Ni2 2.201863 1_555
B9 Gd1 2.795816 1_555
B9 Gd2 2.809008 1_565
B9 Gd3 2.809008 1_655
B9 Gd0 2.877755 1_666
B10 B15 1.700210 1_545
B10 B2 1.749815 1_555
B10 B6 1.749822 1_554
B10 Ni2 2.201863 1_555
B10 Ni0 2.201863 1_554
B10 Gd0 2.795816 1_555
B10 Gd3 2.809008 1_544
B10 Gd2 2.809008 1_555
B10 Gd1 2.877755 1_545
B11 B14 1.700210 1_455
B11 B7 1.749815 1_555
B11 B3 1.749822 1_554
B11 Ni1 2.201863 1_555
B11 Ni3 2.201863 1_554
B11 Gd0 2.795816 1_555
B11 Gd3 2.809008 1_555
B11 Gd2 2.809008 1_454
B11 Gd1 2.877755 1_455
B12 B8 1.700210 1_555
B12 B4 1.749816 1_555
B12 Ni1 2.201863 1_555
B12 Ni2 2.201863 1_555
B12 Gd0 2.795816 1_555
B12 Gd2 2.809008 1_555
B12 Gd3 2.809008 1_555
B12 Gd1 2.877755 1_556
B13 B9 1.700210 1_445
B13 B5 1.749816 1_555
B13 Ni3 2.201863 1_555
B13 Ni0 2.201863 1_555
B13 Gd0 2.795816 1_556
B13 Gd3 2.809008 1_545
B13 Gd2 2.809008 1_455
B13 Gd1 2.877755 1_445
B14 B6 1.749815 1_554
B14 B2 1.749822 1_555
B14 Ni2 2.201863 1_555
B14 Ni0 2.201863 1_554
B14 Gd1 2.795816 1_555
B14 Gd2 2.809008 1_554
B14 Gd3 2.809008 1_655
B14 Gd0 2.877755 1_655
B15 B3 1.749815 1_554
B15 B7 1.749822 1_555
B15 Ni1 2.201863 1_555
B15 Ni3 2.201863 1_554
B15 Gd1 2.795816 1_555
B15 Gd3 2.809008 1_554
B15 Gd2 2.809008 1_565
B15 Gd0 2.877755 1_565
