# generated using pymatgen
data_Na8SnO6
_symmetry_space_group_name_H-M   'P 1'
_cell_length_a   6.77260671
_cell_length_b   6.77260671
_cell_length_c   6.77260687
_cell_angle_alpha   55.93082177
_cell_angle_beta   55.93082177
_cell_angle_gamma   55.93082803
_symmetry_Int_Tables_number   1
_chemical_formula_structural   Na8SnO6
_chemical_formula_sum   'Na8 Sn1 O6'
_cell_volume   198.94674608
_cell_formula_units_Z   1
loop_
 _symmetry_equiv_pos_site_id
 _symmetry_equiv_pos_as_xyz
  1  'x, y, z'
loop_
 _atom_site_type_symbol
 _atom_site_label
 _atom_site_symmetry_multiplicity
 _atom_site_fract_x
 _atom_site_fract_y
 _atom_site_fract_z
 _atom_site_occupancy
  Na  Na0  1  0.34107400  0.34107400  0.34107400  1
  Na  Na1  1  0.75443300  0.09300500  0.49794700  1
  Na  Na2  1  0.50205300  0.24556700  0.90699500  1
  Na  Na3  1  0.90699500  0.50205300  0.24556700  1
  Na  Na4  1  0.09300500  0.49794700  0.75443300  1
  Na  Na5  1  0.49794700  0.75443300  0.09300500  1
  Na  Na6  1  0.24556700  0.90699500  0.50205300  1
  Na  Na7  1  0.65892600  0.65892600  0.65892600  1
  Sn  Sn0  1  0.00000000  0.00000000  0.00000000  1
  O  O0  1  0.91333600  0.22071500  0.64801400  1
  O  O1  1  0.77928500  0.35198600  0.08666400  1
  O  O2  1  0.35198600  0.08666400  0.77928500  1
  O  O3  1  0.64801400  0.91333600  0.22071500  1
  O  O4  1  0.22071500  0.64801400  0.91333600  1
  O  O5  1  0.08666400  0.77928500  0.35198600  1
loop_
_geom_bond_atom_site_label_1
_geom_bond_atom_site_label_2
_geom_bond_distance
_geom_bond_site_symmetry_2
Na0 O1 2.481149 1_555
Na0 O2 2.481150 1_555
Na0 O5 2.481150 1_555
Na0 O0 2.716248 1_455
Na0 O4 2.716248 1_554
Na0 O3 2.716248 1_545
Na1 O5 2.249281 1_645
Na1 O1 2.279305 1_555
Na1 O2 2.298310 1_555
Na1 O0 2.488468 1_555
Na2 O3 2.249281 1_546
Na2 O0 2.279305 1_555
Na2 O4 2.298310 1_555
Na2 O2 2.488468 1_555
Na3 O4 2.249280 1_654
Na3 O3 2.279306 1_555
Na3 O0 2.298310 1_555
Na3 O1 2.488468 1_555
Na4 O1 2.249280 1_456
Na4 O2 2.279306 1_555
Na4 O5 2.298310 1_555
Na4 O4 2.488468 1_555
Na5 O2 2.249281 1_564
Na5 O5 2.279305 1_555
Na5 O1 2.298310 1_555
Na5 O3 2.488468 1_555
Na6 O0 2.249281 1_465
Na6 O4 2.279305 1_555
Na6 O3 2.298310 1_555
Na6 O5 2.488468 1_555
Na7 O4 2.481149 1_555
Na7 O3 2.481150 1_555
Na7 O0 2.481150 1_555
Na7 O5 2.716248 1_655
Na7 O1 2.716248 1_556
Na7 O2 2.716248 1_565
O0 Sn0 2.203177 1_656
O1 Sn0 2.203177 1_655
O2 Sn0 2.203177 1_556
O3 Sn0 2.203177 1_665
O4 Sn0 2.203177 1_566
O5 Sn0 2.203177 1_565
