# generated using pymatgen
data_Li3Mn4(P2O7)4
_symmetry_space_group_name_H-M   'P 1'
_cell_length_a   9.70169120
_cell_length_b   9.76608361
_cell_length_c   11.27468993
_cell_angle_alpha   89.72667865
_cell_angle_beta   102.80551775
_cell_angle_gamma   90.01021059
_symmetry_Int_Tables_number   1
_chemical_formula_structural   Li3Mn4(P2O7)4
_chemical_formula_sum   'Li6 Mn8 P16 O56'
_cell_volume   1041.66724357
_cell_formula_units_Z   2
loop_
 _symmetry_equiv_pos_site_id
 _symmetry_equiv_pos_as_xyz
  1  'x, y, z'
loop_
 _atom_site_type_symbol
 _atom_site_label
 _atom_site_symmetry_multiplicity
 _atom_site_fract_x
 _atom_site_fract_y
 _atom_site_fract_z
 _atom_site_occupancy
  Li  Li0  1  0.14290000  0.44192700  0.52184100  1
  Li  Li1  1  0.41402600  0.59560100  0.97792000  1
  Li  Li2  1  0.39292100  0.95576000  0.50157500  1
  Li  Li3  1  0.91416800  0.90567700  0.97822300  1
  Li  Li4  1  0.82891800  0.59129400  0.45428500  1
  Li  Li5  1  0.87354400  0.27775000  0.54609100  1
  Mn  Mn0  1  0.19881400  0.92994200  0.67144800  1
  Mn  Mn1  1  0.26242300  0.21963900  0.82971200  1
  Mn  Mn2  1  0.22164800  0.73298500  0.16146300  1
  Mn  Mn3  1  0.30075300  0.43179100  0.32607100  1
  Mn  Mn4  1  0.70011100  0.57209500  0.67342200  1
  Mn  Mn5  1  0.75775300  0.28158200  0.82907300  1
  Mn  Mn6  1  0.72758700  0.77035500  0.16536800  1
  Mn  Mn7  1  0.79625500  0.06165400  0.33049900  1
  P  P0  1  0.02148300  0.44493100  0.75859400  1
  P  P1  1  0.11649900  0.71807400  0.87915900  1
  P  P2  1  0.06914900  0.92181100  0.24642200  1
  P  P3  1  0.12289300  0.14492500  0.42660900  1
  P  P4  1  0.37918000  0.64663100  0.57517300  1
  P  P5  1  0.42776600  0.42579400  0.75877400  1
  P  P6  1  0.51910600  0.05397500  0.74923100  1
  P  P7  1  0.38310200  0.21313500  0.11685400  1
  P  P8  1  0.61596600  0.78472800  0.88291100  1
  P  P9  1  0.47704800  0.94518000  0.24671700  1
  P  P10  1  0.57022900  0.58018500  0.24340800  1
  P  P11  1  0.62227300  0.35159000  0.41394100  1
  P  P12  1  0.87551500  0.85592300  0.57385500  1
  P  P13  1  0.92569000  0.07599000  0.75838400  1
  P  P14  1  0.88091900  0.28076400  0.11981400  1
  P  P15  1  0.98300000  0.54648400  0.25354200  1
  O  O0  1  0.01521900  0.41463900  0.62630900  1
  O  O1  1  0.03406100  0.84735000  0.57372000  1
  O  O2  1  0.07470300  0.08978600  0.73388100  1
  O  O3  1  0.10578200  0.34280900  0.85037800  1
  O  O4  1  0.09654600  0.58977800  0.78512700  1
  O  O5  1  0.19406100  0.82410200  0.81663200  1
  O  O6  1  0.22145300  0.66411100  0.99746900  1
  O  O7  1  0.02402900  0.23480000  0.09978000  1
  O  O8  1  0.12877700  0.06806500  0.30012800  1
  O  O9  1  0.07993100  0.90936200  0.11355900  1
  O  O10  1  0.13624600  0.53826000  0.22536800  1
  O  O11  1  0.17937300  0.28815700  0.41456400  1
  O  O12  1  0.17677200  0.81034300  0.30910300  1
  O  O13  1  0.21113800  0.05540900  0.52787400  1
  O  O14  1  0.29266700  0.55692300  0.47373500  1
  O  O15  1  0.32056700  0.31376000  0.69498200  1
  O  O16  1  0.32686000  0.79103100  0.58575400  1
  O  O17  1  0.36554700  0.04607500  0.77999400  1
  O  O18  1  0.36457600  0.56962200  0.69960600  1
  O  O19  1  0.41818600  0.42471200  0.89049900  1
  O  O20  1  0.47545600  0.74869400  0.90485000  1
  O  O21  1  0.29181700  0.15544000  0.99778600  1
  O  O22  1  0.31281300  0.33015400  0.17107700  1
  O  O23  1  0.40275100  0.09369500  0.21589100  1
  O  O24  1  0.42172000  0.59120300  0.26644900  1
  O  O25  1  0.39376900  0.84579000  0.15303500  1
  O  O26  1  0.51397300  0.06881400  0.61739500  1
  O  O27  1  0.46577600  0.34350800  0.41889900  1
  O  O28  1  0.53758200  0.64857400  0.57085400  1
  O  O29  1  0.47818600  0.91806000  0.37619400  1
  O  O30  1  0.60054700  0.16173500  0.83768700  1
  O  O31  1  0.57581800  0.41291100  0.73091400  1
  O  O32  1  0.60031900  0.91292000  0.79175900  1
  O  O33  1  0.69047400  0.67572800  0.82158200  1
  O  O34  1  0.72436900  0.83468300  0.00133800  1
  O  O35  1  0.52680200  0.25188500  0.09200600  1
  O  O36  1  0.58177100  0.60260100  0.11200700  1
  O  O37  1  0.63017500  0.43107200  0.28769200  1
  O  O38  1  0.63082300  0.95424900  0.21937700  1
  O  O39  1  0.68819100  0.21351100  0.40588500  1
  O  O40  1  0.68352700  0.68358900  0.31314400  1
  O  O41  1  0.71577600  0.43725800  0.51667200  1
  O  O42  1  0.79062400  0.93263300  0.46285000  1
  O  O43  1  0.82818300  0.19640700  0.69491900  1
  O  O44  1  0.82026000  0.71198000  0.58795100  1
  O  O45  1  0.86578400  0.45630500  0.78265300  1
  O  O46  1  0.90933600  0.07372100  0.88792000  1
  O  O47  1  0.85836000  0.93789300  0.69321400  1
  O  O48  1  0.97631600  0.75650000  0.90080200  1
  O  O49  1  0.78776300  0.33549800  0.00018200  1
  O  O50  1  0.80816700  0.16891300  0.18036000  1
  O  O51  1  0.90165300  0.40482100  0.21357900  1
  O  O52  1  0.90395200  0.65638100  0.16868200  1
  O  O53  1  0.91925100  0.91023200  0.26657700  1
  O  O54  1  0.96557000  0.15404200  0.43467700  1
  O  O55  1  0.98764900  0.55561000  0.38754100  1
loop_
_geom_bond_atom_site_label_1
_geom_bond_atom_site_label_2
_geom_bond_distance
_geom_bond_site_symmetry_2
Li0 O0 1.906940 1_555
Li0 O14 2.002393 1_555
Li0 O11 2.012603 1_555
Li0 O55 2.183484 1_455
Li1 O20 1.864098 1_555
Li1 O19 1.947244 1_555
Li1 O36 1.961881 1_556
Li1 O6 2.042331 1_555
Li2 O29 1.828015 1_555
Li2 O26 1.907078 1_565
Li2 O16 2.038219 1_555
Li2 O13 2.092956 1_565
Li3 O48 1.869150 1_555
Li3 O46 1.922250 1_565
Li3 O9 1.956671 1_656
Li3 O34 2.037112 1_556
Li4 O55 1.890925 1_555
Li4 O44 1.934036 1_555
Li4 O41 2.072249 1_555
Li4 O40 2.079936 1_555
Li5 O0 1.988530 1_655
Li5 O43 1.988691 1_555
Li5 O54 2.084864 1_555
Li5 O41 2.156459 1_555
Li5 O39 2.207958 1_555
Mn0 O1 1.909666 1_555
Mn0 O5 1.940953 1_555
Mn0 O13 2.050094 1_565
Mn0 O17 2.129722 1_565
Mn0 O2 2.183819 1_565
Mn0 O16 2.205056 1_555
Mn1 O21 1.953089 1_555
Mn1 O15 1.958810 1_555
Mn1 O3 1.992725 1_555
Mn1 O17 2.108699 1_555
Mn1 O2 2.287439 1_555
Mn1 O19 2.513422 1_555
Mn2 O12 1.965848 1_555
Mn2 O6 1.970147 1_554
Mn2 O25 2.019857 1_555
Mn2 O9 2.193601 1_555
Mn2 O10 2.252350 1_555
Mn2 O24 2.460253 1_555
Mn3 O27 1.910773 1_555
Mn3 O10 2.025719 1_555
Mn3 O22 2.039595 1_555
Mn3 O14 2.085348 1_555
Mn3 O24 2.142890 1_555
Mn3 O11 2.203805 1_555
Mn4 O28 1.888216 1_555
Mn4 O33 1.977091 1_555
Mn4 O45 2.118673 1_555
Mn4 O31 2.151104 1_555
Mn4 O44 2.153716 1_555
Mn4 O41 2.240948 1_555
Mn5 O30 1.941499 1_555
Mn5 O49 1.960737 1_556
Mn5 O43 1.979130 1_555
Mn5 O45 2.125573 1_555
Mn5 O31 2.259786 1_555
Mn5 O46 2.505883 1_555
Mn6 O34 1.944020 1_555
Mn6 O40 1.994702 1_555
Mn6 O52 2.034684 1_555
Mn6 O36 2.162995 1_555
Mn6 O38 2.177586 1_555
Mn6 O53 2.387300 1_555
Mn7 O42 1.958454 1_545
Mn7 O50 2.011428 1_555
Mn7 O54 2.011540 1_555
Mn7 O38 2.089599 1_545
Mn7 O39 2.104422 1_555
Mn7 O53 2.126539 1_545
O0 P0 1.509876 1_555
O1 P12 1.540794 1_455
O2 P13 1.536580 1_455
O3 P0 1.532874 1_555
O4 P0 1.589962 1_555
O4 P1 1.628789 1_555
O5 P1 1.537317 1_555
O6 P1 1.576466 1_555
O7 P14 1.523289 1_455
O8 P2 1.610624 1_545
O8 P3 1.626830 1_555
O9 P2 1.529999 1_555
O10 P15 1.589780 1_455
O11 P3 1.518644 1_555
O12 P2 1.562263 1_555
O13 P3 1.535647 1_555
O14 P4 1.537464 1_555
O15 P5 1.572123 1_555
O16 P4 1.513047 1_555
O17 P6 1.604513 1_555
O18 P5 1.613671 1_555
O18 P4 1.622329 1_555
O19 P5 1.508471 1_555
O20 P8 1.480462 1_555
O21 P7 1.544021 1_556
O22 P7 1.528575 1_555
O23 P7 1.592824 1_555
O23 P9 1.621282 1_545
O24 P10 1.523540 1_555
O25 P9 1.530289 1_555
O26 P6 1.482576 1_555
O27 P11 1.533650 1_555
O28 P4 1.548399 1_555
O29 P9 1.480031 1_555
O30 P6 1.544947 1_555
O31 P5 1.542094 1_555
O32 P8 1.601626 1_555
O32 P6 1.604673 1_565
O33 P8 1.537099 1_555
O34 P8 1.584441 1_554
O35 P7 1.528804 1_555
O36 P10 1.525043 1_555
O37 P10 1.604005 1_555
O37 P11 1.634728 1_555
O38 P9 1.591260 1_555
O39 P11 1.504288 1_555
O40 P10 1.571710 1_555
O41 P11 1.551660 1_555
O42 P12 1.529789 1_555
O43 P13 1.575495 1_555
O44 P12 1.524517 1_555
O45 P0 1.596760 1_655
O46 P13 1.503685 1_555
O47 P13 1.606817 1_565
O47 P12 1.609085 1_555
O48 P1 1.482624 1_655
O49 P14 1.541023 1_555
O50 P14 1.537396 1_555
O51 P14 1.594928 1_555
O51 P15 1.608676 1_555
O52 P15 1.523376 1_555
O53 P2 1.524958 1_655
O54 P3 1.551600 1_655
O55 P15 1.504514 1_555
