# generated using pymatgen
data_KNaTe
_symmetry_space_group_name_H-M   'P 1'
_cell_length_a   5.12521386
_cell_length_b   8.58012690
_cell_length_c   9.28450851
_cell_angle_alpha   90.00000000
_cell_angle_beta   90.00000000
_cell_angle_gamma   90.00000000
_symmetry_Int_Tables_number   1
_chemical_formula_structural   KNaTe
_chemical_formula_sum   'K4 Na4 Te4'
_cell_volume   408.28612532
_cell_formula_units_Z   4
loop_
 _symmetry_equiv_pos_site_id
 _symmetry_equiv_pos_as_xyz
  1  'x, y, z'
loop_
 _atom_site_type_symbol
 _atom_site_label
 _atom_site_symmetry_multiplicity
 _atom_site_fract_x
 _atom_site_fract_y
 _atom_site_fract_z
 _atom_site_occupancy
  K  K0  1  0.75000000  0.48603155  0.68580281  1
  K  K1  1  0.25000000  0.01396845  0.18580281  1
  K  K2  1  0.75000000  0.98603155  0.81419719  1
  K  K3  1  0.25000000  0.51396845  0.31419719  1
  Na  Na0  1  0.25000000  0.64421709  0.92725741  1
  Na  Na1  1  0.25000000  0.14421709  0.57274259  1
  Na  Na2  1  0.75000000  0.35578291  0.07274259  1
  Na  Na3  1  0.75000000  0.85578291  0.42725741  1
  Te  Te0  1  0.25000000  0.77631877  0.60722386  1
  Te  Te1  1  0.25000000  0.27631877  0.89277614  1
  Te  Te2  1  0.75000000  0.72368123  0.10722386  1
  Te  Te3  1  0.75000000  0.22368123  0.39277614  1
loop_
_geom_bond_atom_site_label_1
_geom_bond_atom_site_label_2
_geom_bond_distance
_geom_bond_site_symmetry_2
K0 Te3 3.531106 1_555
K0 Te0 3.647302 1_655
K0 Te0 3.647302 1_555
K0 Te1 3.673878 1_555
K0 Te1 3.673878 1_655
K1 Te1 3.531106 1_554
K1 Te2 3.647302 1_445
K1 Te2 3.647302 1_545
K1 Te3 3.673878 1_455
K1 Te3 3.673878 1_555
K2 Te2 3.531106 1_556
K2 Te1 3.647302 1_665
K2 Te1 3.647302 1_565
K2 Te0 3.673878 1_555
K2 Te0 3.673878 1_655
K3 Te0 3.531106 1_555
K3 Te3 3.647302 1_555
K3 Te3 3.647302 1_455
K3 Te2 3.673878 1_455
K3 Te2 3.673878 1_555
Na0 Te2 3.134283 1_456
Na0 Te2 3.134283 1_556
Na0 Te1 3.172807 1_555
Na0 Te0 3.180197 1_555
Na1 Te3 3.134283 1_455
Na1 Te3 3.134283 1_555
Na1 Te0 3.172807 1_545
Na1 Te1 3.180197 1_555
Na2 Te1 3.134283 1_554
Na2 Te1 3.134283 1_654
Na2 Te2 3.172807 1_555
Na2 Te3 3.180197 1_555
Na3 Te0 3.134283 1_655
Na3 Te0 3.134283 1_555
Na3 Te3 3.172807 1_565
Na3 Te2 3.180197 1_555
