# generated using pymatgen
data_Hf2CoTc
_symmetry_space_group_name_H-M   'P 1'
_cell_length_a   4.52435699
_cell_length_b   4.52435845
_cell_length_c   4.52435771
_cell_angle_alpha   59.99998397
_cell_angle_beta   59.99998397
_cell_angle_gamma   60.00001075
_symmetry_Int_Tables_number   1
_chemical_formula_structural   Hf2CoTc
_chemical_formula_sum   'Hf2 Co1 Tc1'
_cell_volume   65.48709682
_cell_formula_units_Z   1
loop_
 _symmetry_equiv_pos_site_id
 _symmetry_equiv_pos_as_xyz
  1  'x, y, z'
loop_
 _atom_site_type_symbol
 _atom_site_label
 _atom_site_symmetry_multiplicity
 _atom_site_fract_x
 _atom_site_fract_y
 _atom_site_fract_z
 _atom_site_occupancy
  Hf  Hf0  1  -0.00000000  -0.00000000  0.00000000  1
  Hf  Hf1  1  0.50000100  0.50000100  0.50000100  1
  Co  Co0  1  0.25000000  0.25000000  0.25000000  1
  Tc  Tc0  1  0.75000000  0.75000000  0.75000000  1
loop_
_geom_bond_atom_site_label_1
_geom_bond_atom_site_label_2
_geom_bond_distance
_geom_bond_site_symmetry_2
Hf0 Tc0 2.770591 1_445
Hf0 Tc0 2.770592 1_544
Hf0 Tc0 2.770592 1_444
Hf0 Tc0 2.770592 1_454
Hf1 Tc0 2.770581 1_555
Hf1 Tc0 2.770595 1_554
Hf1 Tc0 2.770595 1_455
Hf1 Tc0 2.770596 1_545
Co0 Hf1 2.770588 1_554
Co0 Hf1 2.770588 1_455
Co0 Hf1 2.770589 1_545
Co0 Hf0 2.770591 1_556
Co0 Hf0 2.770592 1_655
Co0 Hf0 2.770592 1_555
Co0 Hf0 2.770592 1_565
Co0 Hf1 2.770603 1_555
