# generated using pymatgen
data_Tm2CuIr
_symmetry_space_group_name_H-M   'P 1'
_cell_length_a   4.76809828
_cell_length_b   4.76809828
_cell_length_c   4.76809828
_cell_angle_alpha   60.00000000
_cell_angle_beta   60.00000000
_cell_angle_gamma   60.00000000
_symmetry_Int_Tables_number   1
_chemical_formula_structural   Tm2CuIr
_chemical_formula_sum   'Tm2 Cu1 Ir1'
_cell_volume   76.65148954
_cell_formula_units_Z   1
loop_
 _symmetry_equiv_pos_site_id
 _symmetry_equiv_pos_as_xyz
  1  'x, y, z'
loop_
 _atom_site_type_symbol
 _atom_site_label
 _atom_site_symmetry_multiplicity
 _atom_site_fract_x
 _atom_site_fract_y
 _atom_site_fract_z
 _atom_site_occupancy
  Tm  Tm0  1  0.00000000  0.00000000  0.00000000  1
  Tm  Tm1  1  0.50000000  0.50000000  0.50000000  1
  Cu  Cu0  1  0.24999900  0.24999900  0.24999900  1
  Ir  Ir0  1  0.75000000  0.75000000  0.75000000  1
loop_
_geom_bond_atom_site_label_1
_geom_bond_atom_site_label_2
_geom_bond_distance
_geom_bond_site_symmetry_2
Cu0 Tm0 2.919840 1_555
Cu0 Tm1 2.919848 1_554
Cu0 Tm1 2.919848 1_455
Cu0 Tm1 2.919848 1_545
Cu0 Tm0 2.919856 1_655
Cu0 Tm0 2.919856 1_556
Cu0 Tm0 2.919856 1_565
Cu0 Tm1 2.919864 1_555
Ir0 Tm0 2.919852 1_566
Ir0 Tm1 2.919852 1_655
Ir0 Tm0 2.919852 1_656
Ir0 Tm1 2.919852 1_556
Ir0 Tm1 2.919852 1_565
Ir0 Tm0 2.919852 1_665
Ir0 Tm0 2.919852 1_666
Ir0 Tm1 2.919852 1_555
