# generated using pymatgen
data_LiNd2Al
_symmetry_space_group_name_H-M   'P 1'
_cell_length_a   5.31889129
_cell_length_b   5.31889129
_cell_length_c   5.31889129
_cell_angle_alpha   60.00000000
_cell_angle_beta   60.00000000
_cell_angle_gamma   60.00000000
_symmetry_Int_Tables_number   1
_chemical_formula_structural   LiNd2Al
_chemical_formula_sum   'Li1 Nd2 Al1'
_cell_volume   106.40164556
_cell_formula_units_Z   1
loop_
 _symmetry_equiv_pos_site_id
 _symmetry_equiv_pos_as_xyz
  1  'x, y, z'
loop_
 _atom_site_type_symbol
 _atom_site_label
 _atom_site_symmetry_multiplicity
 _atom_site_fract_x
 _atom_site_fract_y
 _atom_site_fract_z
 _atom_site_occupancy
  Li  Li0  1  0.75000000  0.75000000  0.75000000  1
  Nd  Nd0  1  -0.00000000  -0.00000000  0.00000000  1
  Nd  Nd1  1  0.49999900  0.49999900  0.49999900  1
  Al  Al0  1  0.25000000  0.25000000  0.25000000  1
loop_
_geom_bond_atom_site_label_1
_geom_bond_atom_site_label_2
_geom_bond_distance
_geom_bond_site_symmetry_2
Li0 Nd1 3.257138 1_655
Li0 Nd1 3.257138 1_556
Li0 Nd1 3.257138 1_565
Li0 Nd0 3.257142 1_666
Li0 Nd0 3.257142 1_656
Li0 Nd0 3.257142 1_665
Li0 Nd0 3.257142 1_566
Li0 Nd1 3.257155 1_555
Al0 Nd1 3.257129 1_555
Al0 Nd0 3.257142 1_555
Al0 Nd0 3.257142 1_556
Al0 Nd0 3.257142 1_565
Al0 Nd0 3.257142 1_655
Al0 Nd1 3.257147 1_545
Al0 Nd1 3.257147 1_455
Al0 Nd1 3.257147 1_554
