# generated using pymatgen
data_LiY2Ir
_symmetry_space_group_name_H-M   'P 1'
_cell_length_a   4.91508876
_cell_length_b   4.91508876
_cell_length_c   4.91508876
_cell_angle_alpha   60.00000000
_cell_angle_beta   60.00000000
_cell_angle_gamma   60.00000000
_symmetry_Int_Tables_number   1
_chemical_formula_structural   LiY2Ir
_chemical_formula_sum   'Li1 Y2 Ir1'
_cell_volume   83.96128880
_cell_formula_units_Z   1
loop_
 _symmetry_equiv_pos_site_id
 _symmetry_equiv_pos_as_xyz
  1  'x, y, z'
loop_
 _atom_site_type_symbol
 _atom_site_label
 _atom_site_symmetry_multiplicity
 _atom_site_fract_x
 _atom_site_fract_y
 _atom_site_fract_z
 _atom_site_occupancy
  Li  Li0  1  0.75000000  0.75000000  0.75000000  1
  Y  Y0  1  -0.00000000  0.00000000  -0.00000000  1
  Y  Y1  1  0.50000000  0.50000000  0.50000000  1
  Ir  Ir0  1  0.25000000  0.25000000  0.25000000  1
loop_
_geom_bond_atom_site_label_1
_geom_bond_atom_site_label_2
_geom_bond_distance
_geom_bond_site_symmetry_2
Li0 Y1 3.009865 1_565
Li0 Y1 3.009865 1_556
Li0 Y0 3.009865 1_566
Li0 Y0 3.009865 1_656
Li0 Y0 3.009865 1_665
Li0 Y1 3.009865 1_655
Li0 Y1 3.009865 1_555
Li0 Y0 3.009865 1_666
Ir0 Y0 3.009865 1_556
Ir0 Y1 3.009865 1_455
Ir0 Y0 3.009865 1_565
Ir0 Y0 3.009865 1_555
Ir0 Y1 3.009865 1_545
Ir0 Y1 3.009865 1_555
Ir0 Y0 3.009865 1_655
Ir0 Y1 3.009865 1_554
