# generated using pymatgen
data_Sr(P3Pt2)2
_symmetry_space_group_name_H-M   'P 1'
_cell_length_a   5.76749103
_cell_length_b   5.76749103
_cell_length_c   11.48723572
_cell_angle_alpha   89.54071307
_cell_angle_beta   89.54071307
_cell_angle_gamma   88.00473884
_symmetry_Int_Tables_number   1
_chemical_formula_structural   Sr(P3Pt2)2
_chemical_formula_sum   'Sr2 P12 Pt8'
_cell_volume   381.85548420
_cell_formula_units_Z   2
loop_
 _symmetry_equiv_pos_site_id
 _symmetry_equiv_pos_as_xyz
  1  'x, y, z'
loop_
 _atom_site_type_symbol
 _atom_site_label
 _atom_site_symmetry_multiplicity
 _atom_site_fract_x
 _atom_site_fract_y
 _atom_site_fract_z
 _atom_site_occupancy
  Sr  Sr0  1  0.60138778  0.39861222  0.75000000  1
  Sr  Sr1  1  0.39861222  0.60138778  0.25000000  1
  P  P0  1  0.08818377  0.13020377  0.30515038  1
  P  P1  1  0.86979623  0.91181623  0.19484962  1
  P  P2  1  0.91181623  0.86979623  0.69484962  1
  P  P3  1  0.13020377  0.08818377  0.80515038  1
  P  P4  1  0.61566926  0.88553967  0.94712407  1
  P  P5  1  0.11446033  0.38433074  0.55287593  1
  P  P6  1  0.38433074  0.11446033  0.05287593  1
  P  P7  1  0.88553967  0.61566926  0.44712407  1
  P  P8  1  0.88384456  0.39154803  0.05092804  1
  P  P9  1  0.60845197  0.11615544  0.44907196  1
  P  P10  1  0.39154803  0.88384456  0.55092804  1
  P  P11  1  0.11615544  0.60845197  0.94907196  1
  Pt  Pt0  1  0.50730691  0.92082145  0.74968528  1
  Pt  Pt1  1  0.07917855  0.49269309  0.75031472  1
  Pt  Pt2  1  0.50000000  0.50000000  0.50000000  1
  Pt  Pt3  1  0.50000000  0.50000000  0.00000000  1
  Pt  Pt4  1  0.00000000  -0.00000000  0.50000000  1
  Pt  Pt5  1  0.00000000  -0.00000000  0.00000000  1
  Pt  Pt6  1  0.92082145  0.50730691  0.24968528  1
  Pt  Pt7  1  0.49269309  0.07917855  0.25031472  1
loop_
_geom_bond_atom_site_label_1
_geom_bond_atom_site_label_2
_geom_bond_distance
_geom_bond_site_symmetry_2
P0 P1 2.222607 1_445
P0 Pt4 2.411205 1_555
P0 Pt7 2.420310 1_555
P0 Pt6 2.430945 1_455
P1 Pt5 2.411205 1_665
P1 Pt6 2.420310 1_555
P1 Pt7 2.430945 1_565
P2 P3 2.222607 1_665
P2 Pt4 2.411205 1_665
P2 Pt0 2.420310 1_555
P2 Pt1 2.430945 1_655
P3 Pt5 2.411205 1_556
P3 Pt1 2.420310 1_555
P3 Pt0 2.430945 1_545
P4 P6 2.208208 1_566
P4 Pt0 2.362714 1_555
P4 Pt3 2.415266 1_556
P4 Pt5 2.418276 1_666
P5 P7 2.208208 1_455
P5 Pt1 2.362714 1_555
P5 Pt2 2.415266 1_555
P5 Pt4 2.418276 1_555
P6 Pt7 2.362714 1_555
P6 Pt3 2.415266 1_555
P6 Pt5 2.418276 1_555
P7 Pt6 2.362714 1_555
P7 Pt2 2.415266 1_555
P7 Pt4 2.418276 1_665
P8 Pt3 2.356474 1_555
P8 Pt6 2.397134 1_555
P8 Pt5 2.408380 1_655
P9 Pt2 2.356474 1_555
P9 Pt7 2.397134 1_555
P9 Pt4 2.408380 1_655
P10 P9 2.190274 1_565
P10 Pt2 2.356474 1_555
P10 Pt0 2.397134 1_555
P10 Pt4 2.408380 1_565
P11 P8 2.190274 1_456
P11 Pt3 2.356474 1_556
P11 Pt1 2.397134 1_555
P11 Pt5 2.408380 1_566
Pt0 Sr0 2.827080 1_565
Pt0 Sr0 3.041654 1_555
Pt1 Sr0 2.827080 1_455
Pt1 Sr0 3.041654 1_555
Pt2 Sr1 2.984518 1_555
Pt2 Sr0 2.984518 1_555
Pt3 Sr1 2.984518 1_555
Pt3 Sr0 2.984518 1_554
Pt6 Sr1 2.827080 1_655
Pt6 Sr1 3.041654 1_555
Pt7 Sr1 2.827080 1_545
Pt7 Sr1 3.041654 1_555
