# generated using pymatgen
data_LiSiBiO4
_symmetry_space_group_name_H-M   'P 1'
_cell_length_a   7.02335000
_cell_length_b   9.55009400
_cell_length_c   19.19056025
_cell_angle_alpha   60.67320478
_cell_angle_beta   90.00000000
_cell_angle_gamma   90.00000000
_symmetry_Int_Tables_number   1
_chemical_formula_structural   LiSiBiO4
_chemical_formula_sum   'Li12 Si12 Bi12 O48'
_cell_volume   1122.21625890
_cell_formula_units_Z   12
loop_
 _symmetry_equiv_pos_site_id
 _symmetry_equiv_pos_as_xyz
  1  'x, y, z'
loop_
 _atom_site_type_symbol
 _atom_site_label
 _atom_site_symmetry_multiplicity
 _atom_site_fract_x
 _atom_site_fract_y
 _atom_site_fract_z
 _atom_site_occupancy
  Li  Li0  1  0.99997200  0.68246200  0.08051400  1
  Li  Li1  1  0.01159500  0.32939300  0.41554600  1
  Li  Li2  1  0.14986200  0.99953300  0.74825300  1
  Li  Li3  1  0.64986200  0.00046700  0.75174700  1
  Li  Li4  1  0.51159500  0.67060700  0.08445400  1
  Li  Li5  1  0.49997200  0.31753800  0.41948600  1
  Li  Li6  1  0.50002800  0.68246200  0.58051400  1
  Li  Li7  1  0.48840500  0.32939300  0.91554600  1
  Li  Li8  1  0.35013800  0.99953300  0.24825300  1
  Li  Li9  1  0.85013800  0.00046700  0.25174700  1
  Li  Li10  1  0.98840500  0.67060700  0.58445400  1
  Li  Li11  1  0.00002800  0.31753800  0.91948600  1
  Si  Si0  1  0.75317000  0.35875700  0.59222700  1
  Si  Si1  1  0.74439800  0.68174100  0.23553900  1
  Si  Si2  1  0.75142200  0.96988000  0.92730000  1
  Si  Si3  1  0.25142200  0.03012000  0.57270000  1
  Si  Si4  1  0.24439800  0.31825900  0.26446100  1
  Si  Si5  1  0.25317000  0.64124300  0.90777300  1
  Si  Si6  1  0.74683000  0.35875700  0.09222700  1
  Si  Si7  1  0.75560200  0.68174100  0.73553900  1
  Si  Si8  1  0.74857800  0.96988000  0.42730000  1
  Si  Si9  1  0.24857800  0.03012000  0.07270000  1
  Si  Si10  1  0.25560200  0.31825900  0.76446100  1
  Si  Si11  1  0.24683000  0.64124300  0.40777300  1
  Bi  Bi0  1  0.25691600  0.38071500  0.59499900  1
  Bi  Bi1  1  0.24640500  0.69080900  0.21920000  1
  Bi  Bi2  1  0.25559000  0.92454300  0.93500300  1
  Bi  Bi3  1  0.75559000  0.07545700  0.56499700  1
  Bi  Bi4  1  0.74640500  0.30919100  0.28080000  1
  Bi  Bi5  1  0.75691600  0.61928500  0.90500100  1
  Bi  Bi6  1  0.24308400  0.38071500  0.09499900  1
  Bi  Bi7  1  0.25359500  0.69080900  0.71920000  1
  Bi  Bi8  1  0.24441000  0.92454300  0.43500300  1
  Bi  Bi9  1  0.74441000  0.07545700  0.06499700  1
  Bi  Bi10  1  0.75359500  0.30919100  0.78080000  1
  Bi  Bi11  1  0.74308400  0.61928500  0.40500100  1
  O  O0  1  0.43371100  0.54159600  0.40415500  1
  O  O1  1  0.05982900  0.54792600  0.40002400  1
  O  O2  1  0.22942600  0.85860500  0.06830400  1
  O  O3  1  0.55883800  0.69552600  0.18076700  1
  O  O4  1  0.75706800  0.34708400  0.50693800  1
  O  O5  1  0.93212700  0.70606200  0.17986400  1
  O  O6  1  0.25970600  0.19543800  0.72731700  1
  O  O7  1  0.72551400  0.04625800  0.83039500  1
  O  O8  1  0.56873900  0.85893100  0.97683600  1
  O  O9  1  0.43779800  0.14789100  0.53799500  1
  O  O10  1  0.74438300  0.50428500  0.32222900  1
  O  O11  1  0.75105400  0.16723800  0.65776600  1
  O  O12  1  0.24438300  0.49571500  0.17777100  1
  O  O13  1  0.25105400  0.83276200  0.84223400  1
  O  O14  1  0.93779800  0.85210900  0.96200500  1
  O  O15  1  0.06873900  0.14106900  0.52316400  1
  O  O16  1  0.22551400  0.95374200  0.66960500  1
  O  O17  1  0.43212700  0.29393800  0.32013600  1
  O  O18  1  0.75970600  0.80456200  0.77268300  1
  O  O19  1  0.25706800  0.65291600  0.99306200  1
  O  O20  1  0.05883800  0.30447400  0.31923300  1
  O  O21  1  0.72942600  0.14139500  0.43169600  1
  O  O22  1  0.55982900  0.45207400  0.09997600  1
  O  O23  1  0.93371100  0.45840400  0.09584500  1
  O  O24  1  0.06628900  0.54159600  0.90415500  1
  O  O25  1  0.44017100  0.54792600  0.90002400  1
  O  O26  1  0.27057400  0.85860500  0.56830400  1
  O  O27  1  0.94116200  0.69552600  0.68076700  1
  O  O28  1  0.74293200  0.34708400  0.00693800  1
  O  O29  1  0.24029400  0.19543800  0.22731700  1
  O  O30  1  0.56787300  0.70606200  0.67986400  1
  O  O31  1  0.77448600  0.04625800  0.33039500  1
  O  O32  1  0.93126100  0.85893100  0.47683600  1
  O  O33  1  0.06220200  0.14789100  0.03799500  1
  O  O34  1  0.74894600  0.16723800  0.15776600  1
  O  O35  1  0.75561700  0.50428500  0.82222900  1
  O  O36  1  0.24894600  0.83276200  0.34223400  1
  O  O37  1  0.25561700  0.49571500  0.67777100  1
  O  O38  1  0.56220200  0.85210900  0.46200500  1
  O  O39  1  0.43126100  0.14106900  0.02316400  1
  O  O40  1  0.27448600  0.95374200  0.16960500  1
  O  O41  1  0.74029400  0.80456200  0.27268300  1
  O  O42  1  0.06787300  0.29393800  0.82013600  1
  O  O43  1  0.24293200  0.65291600  0.49306200  1
  O  O44  1  0.44116200  0.30447400  0.81923300  1
  O  O45  1  0.77057400  0.14139500  0.93169600  1
  O  O46  1  0.94017100  0.45207400  0.59997600  1
  O  O47  1  0.56628900  0.45840400  0.59584500  1
loop_
_geom_bond_atom_site_label_1
_geom_bond_atom_site_label_2
_geom_bond_distance
_geom_bond_site_symmetry_2
Li0 O23 2.065207 1_555
Li0 O5 2.081788 1_555
Li0 O14 2.092462 1_554
Li0 O2 2.257338 1_655
Li0 O12 2.519956 1_655
Li0 O19 2.573032 1_654
Li1 O1 1.987493 1_555
Li1 O20 2.003451 1_555
Li1 O15 2.005604 1_555
Li1 O10 2.566860 1_455
Li1 O4 2.567192 1_455
Li1 O21 2.588793 1_455
Li2 O16 1.843390 1_555
Li2 O13 1.865663 1_555
Li2 O6 1.876317 1_565
Li3 O7 1.843390 1_555
Li3 O11 1.865663 1_555
Li3 O18 1.876317 1_545
Li4 O22 1.987493 1_555
Li4 O3 2.003451 1_555
Li4 O8 2.005604 1_554
Li4 O12 2.566860 1_555
Li4 O19 2.567192 1_554
Li4 O2 2.588793 1_555
Li5 O0 2.065207 1_555
Li5 O17 2.081788 1_555
Li5 O9 2.092462 1_555
Li5 O21 2.257338 1_555
Li5 O10 2.519956 1_555
Li5 O4 2.573032 1_555
Li6 O47 2.065207 1_555
Li6 O30 2.081788 1_555
Li6 O38 2.092462 1_555
Li6 O26 2.257338 1_555
Li6 O37 2.519956 1_555
Li6 O43 2.573032 1_555
Li7 O25 1.987493 1_555
Li7 O44 2.003451 1_555
Li7 O39 2.005604 1_556
Li7 O35 2.566860 1_555
Li7 O28 2.567192 1_556
Li7 O45 2.588793 1_555
Li8 O40 1.843390 1_555
Li8 O36 1.865663 1_555
Li8 O29 1.876317 1_565
Li9 O31 1.843390 1_555
Li9 O34 1.865663 1_555
Li9 O41 1.876317 1_545
Li10 O46 1.987493 1_555
Li10 O27 2.003451 1_555
Li10 O32 2.005604 1_555
Li10 O37 2.566860 1_655
Li10 O43 2.567192 1_655
Li10 O26 2.588793 1_655
Li11 O24 2.065207 1_555
Li11 O42 2.081788 1_555
Li11 O33 2.092462 1_556
Li11 O45 2.257338 1_455
Li11 O35 2.519956 1_455
Li11 O28 2.573032 1_456
Bi0 O6 2.275474 1_555
Bi0 O47 2.298640 1_555
Bi0 O37 2.332017 1_555
Bi0 O46 2.342264 1_455
Bi0 O43 2.369102 1_555
Bi1 O40 2.215613 1_555
Bi1 O3 2.308361 1_555
Bi1 O5 2.314185 1_455
Bi1 O12 2.356850 1_555
Bi1 O2 2.534171 1_555
Bi2 O19 2.267032 1_555
Bi2 O14 2.318958 1_455
Bi2 O8 2.319809 1_555
Bi2 O2 2.322993 1_556
Bi2 O13 2.338229 1_555
Bi3 O4 2.267032 1_555
Bi3 O9 2.318958 1_555
Bi3 O15 2.319809 1_655
Bi3 O21 2.322993 1_555
Bi3 O11 2.338229 1_555
Bi4 O31 2.215613 1_555
Bi4 O20 2.308361 1_655
Bi4 O17 2.314185 1_555
Bi4 O10 2.356850 1_555
Bi4 O21 2.534171 1_555
Bi5 O18 2.275474 1_555
Bi5 O24 2.298640 1_655
Bi5 O35 2.332017 1_555
Bi5 O25 2.342264 1_555
Bi5 O28 2.369102 1_556
Bi6 O29 2.275474 1_555
Bi6 O23 2.298640 1_455
Bi6 O12 2.332017 1_555
Bi6 O22 2.342264 1_555
Bi6 O19 2.369102 1_554
Bi7 O16 2.215613 1_555
Bi7 O27 2.308361 1_455
Bi7 O30 2.314185 1_555
Bi7 O37 2.356850 1_555
Bi7 O26 2.534171 1_555
Bi8 O43 2.267032 1_555
Bi8 O38 2.318958 1_555
Bi8 O32 2.319809 1_455
Bi8 O26 2.322993 1_555
Bi8 O36 2.338229 1_555
Bi9 O28 2.267032 1_555
Bi9 O33 2.318958 1_655
Bi9 O39 2.319809 1_555
Bi9 O45 2.322993 1_554
Bi9 O34 2.338229 1_555
Bi10 O7 2.215613 1_555
Bi10 O44 2.308361 1_555
Bi10 O42 2.314185 1_655
Bi10 O35 2.356850 1_555
Bi10 O45 2.534171 1_555
Bi11 O41 2.275474 1_555
Bi11 O0 2.298640 1_555
Bi11 O10 2.332017 1_555
Bi11 O1 2.342264 1_655
Bi11 O4 2.369102 1_555
O0 Si11 1.642528 1_555
O1 Si11 1.634349 1_555
O2 Si9 1.686287 1_565
O3 Si1 1.638619 1_555
O4 Si0 1.694356 1_555
O5 Si1 1.640369 1_555
O6 Si10 1.644316 1_555
O7 Si2 1.641563 1_545
O8 Si2 1.638872 1_555
O9 Si3 1.639582 1_555
O10 Si1 1.696445 1_555
O11 Si0 1.635234 1_555
O12 Si4 1.696445 1_555
O13 Si5 1.635234 1_555
O14 Si2 1.639582 1_555
O15 Si3 1.638872 1_555
O16 Si3 1.641563 1_565
O17 Si4 1.640369 1_555
O18 Si7 1.644316 1_555
O19 Si5 1.694356 1_555
O20 Si4 1.638619 1_555
O21 Si8 1.686287 1_545
O22 Si6 1.634349 1_555
O23 Si6 1.642528 1_555
O24 Si5 1.642528 1_555
O25 Si5 1.634349 1_555
O26 Si3 1.686287 1_565
O27 Si7 1.638619 1_555
O28 Si6 1.694356 1_555
O29 Si4 1.644316 1_555
O30 Si7 1.640369 1_555
O31 Si8 1.641563 1_545
O32 Si8 1.638872 1_555
O33 Si9 1.639582 1_555
O34 Si6 1.635234 1_555
O35 Si7 1.696445 1_555
O36 Si11 1.635234 1_555
O37 Si10 1.696445 1_555
O38 Si8 1.639582 1_555
O39 Si9 1.638872 1_555
O40 Si9 1.641563 1_565
O41 Si1 1.644316 1_555
O42 Si10 1.640369 1_555
O43 Si11 1.694356 1_555
O44 Si10 1.638619 1_555
O45 Si2 1.686287 1_545
O46 Si0 1.634349 1_555
O47 Si0 1.642528 1_555
