# generated using pymatgen
data_Hf2TcRh
_symmetry_space_group_name_H-M   'P 1'
_cell_length_a   4.58223463
_cell_length_b   4.58234430
_cell_length_c   4.58036180
_cell_angle_alpha   60.01282952
_cell_angle_beta   60.00028269
_cell_angle_gamma   59.98669245
_symmetry_Int_Tables_number   1
_chemical_formula_structural   Hf2TcRh
_chemical_formula_sum   'Hf2 Tc1 Rh1'
_cell_volume   68.00629901
_cell_formula_units_Z   1
loop_
 _symmetry_equiv_pos_site_id
 _symmetry_equiv_pos_as_xyz
  1  'x, y, z'
loop_
 _atom_site_type_symbol
 _atom_site_label
 _atom_site_symmetry_multiplicity
 _atom_site_fract_x
 _atom_site_fract_y
 _atom_site_fract_z
 _atom_site_occupancy
  Hf  Hf0  1  0.00000370  0.99994982  0.00028547  1
  Hf  Hf1  1  0.49999518  0.50005057  0.49971903  1
  Tc  Tc0  1  0.75000264  0.74999792  0.74999791  1
  Rh  Rh0  1  0.24999948  0.25000268  0.25000060  1
loop_
_geom_bond_atom_site_label_1
_geom_bond_atom_site_label_2
_geom_bond_distance
_geom_bond_site_symmetry_2
Hf0 Tc0 2.804184 1_455
Hf0 Rh0 2.804793 1_565
Hf0 Tc0 2.805663 1_554
Hf0 Rh0 2.805684 1_465
Hf0 Rh0 2.805892 1_555
Hf0 Tc0 2.806269 1_464
Hf0 Rh0 2.806325 1_564
Hf0 Tc0 2.806575 1_454
Hf1 Tc0 2.804217 1_554
Hf1 Rh0 2.804786 1_555
Hf1 Tc0 2.805639 1_455
Hf1 Rh0 2.805684 1_655
Hf1 Rh0 2.805910 1_565
Hf1 Tc0 2.806286 1_545
Hf1 Rh0 2.806313 1_556
Hf1 Tc0 2.806550 1_555
