# generated using pymatgen
data_LiPm2Si
_symmetry_space_group_name_H-M   'P 1'
_cell_length_a   5.11211394
_cell_length_b   5.11211394
_cell_length_c   5.11211394
_cell_angle_alpha   60.00000000
_cell_angle_beta   60.00000000
_cell_angle_gamma   60.00000000
_symmetry_Int_Tables_number   1
_chemical_formula_structural   LiPm2Si
_chemical_formula_sum   'Li1 Pm2 Si1'
_cell_volume   94.46840347
_cell_formula_units_Z   1
loop_
 _symmetry_equiv_pos_site_id
 _symmetry_equiv_pos_as_xyz
  1  'x, y, z'
loop_
 _atom_site_type_symbol
 _atom_site_label
 _atom_site_symmetry_multiplicity
 _atom_site_fract_x
 _atom_site_fract_y
 _atom_site_fract_z
 _atom_site_occupancy
  Li  Li0  1  0.25000000  0.25000000  0.25000000  1
  Pm  Pm0  1  -0.00000000  -0.00000000  0.00000000  1
  Pm  Pm1  1  0.50000100  0.50000100  0.50000100  1
  Si  Si0  1  0.75000000  0.75000000  0.75000000  1
loop_
_geom_bond_atom_site_label_1
_geom_bond_atom_site_label_2
_geom_bond_distance
_geom_bond_site_symmetry_2
Li0 Pm1 3.130513 1_545
Li0 Pm1 3.130513 1_455
Li0 Pm1 3.130513 1_554
Li0 Pm0 3.130518 1_655
Li0 Pm0 3.130518 1_556
Li0 Pm0 3.130518 1_555
Li0 Pm0 3.130518 1_565
Li0 Pm1 3.130530 1_555
Pm0 Si0 3.130518 1_544
Pm0 Si0 3.130518 1_444
Pm0 Si0 3.130518 1_445
Pm0 Si0 3.130518 1_454
Pm1 Si0 3.130505 1_555
Pm1 Si0 3.130522 1_545
Pm1 Si0 3.130522 1_554
Pm1 Si0 3.130522 1_455
