# generated using pymatgen
data_KMo6S7
_symmetry_space_group_name_H-M   'P 1'
_cell_length_a   17.54354400
_cell_length_b   10.57844500
_cell_length_c   12.58997949
_cell_angle_alpha   87.93962143
_cell_angle_beta   90.00000000
_cell_angle_gamma   90.00000000
_symmetry_Int_Tables_number   1
_chemical_formula_structural   KMo6S7
_chemical_formula_sum   'K8 Mo48 S56'
_cell_volume   2334.98083807
_cell_formula_units_Z   8
loop_
 _symmetry_equiv_pos_site_id
 _symmetry_equiv_pos_as_xyz
  1  'x, y, z'
loop_
 _atom_site_type_symbol
 _atom_site_label
 _atom_site_symmetry_multiplicity
 _atom_site_fract_x
 _atom_site_fract_y
 _atom_site_fract_z
 _atom_site_occupancy
  K  K0  1  0.86730600  0.41126200  0.26396500  1
  K  K1  1  0.51873300  0.49031900  0.73907700  1
  K  K2  1  0.35694400  0.07076200  0.25068600  1
  K  K3  1  0.01033100  0.97835100  0.30410100  1
  K  K4  1  0.64305600  0.07076200  0.75068600  1
  K  K5  1  0.98966900  0.97835100  0.80410100  1
  K  K6  1  0.48126700  0.49031900  0.23907700  1
  K  K7  1  0.13269400  0.41126200  0.76396500  1
  Mo  Mo0  1  0.83059800  0.34180000  0.67389100  1
  Mo  Mo1  1  0.83566000  0.26494000  0.02436600  1
  Mo  Mo2  1  0.72408700  0.36345000  0.50213200  1
  Mo  Mo3  1  0.90787500  0.43708700  0.84163900  1
  Mo  Mo4  1  0.75434400  0.40739200  0.84712900  1
  Mo  Mo5  1  0.96883000  0.45348400  0.49286800  1
  Mo  Mo6  1  0.94473000  0.63010600  0.00109200  1
  Mo  Mo7  1  0.75270400  0.56922700  0.64645900  1
  Mo  Mo8  1  0.91617300  0.57775300  0.66347000  1
  Mo  Mo9  1  0.70549500  0.59856200  0.03792000  1
  Mo  Mo10  1  0.74003900  0.64987800  0.41452700  1
  Mo  Mo11  1  0.82817700  0.67345400  0.81608300  1
  Mo  Mo12  1  0.67890500  0.82951800  0.16892100  1
  Mo  Mo13  1  0.32109500  0.82951800  0.66892100  1
  Mo  Mo14  1  0.25796900  0.82501900  0.08021900  1
  Mo  Mo15  1  0.74203100  0.82501900  0.58021900  1
  Mo  Mo16  1  0.72313800  0.78556000  0.94692500  1
  Mo  Mo17  1  0.27686200  0.78556000  0.44692500  1
  Mo  Mo18  1  0.41506800  0.93630400  0.83435700  1
  Mo  Mo19  1  0.58493200  0.93630400  0.33435700  1
  Mo  Mo20  1  0.74231900  0.92885300  0.35892300  1
  Mo  Mo21  1  0.25768100  0.92885300  0.85892300  1
  Mo  Mo22  1  0.55579000  0.86430500  0.99812400  1
  Mo  Mo23  1  0.44421000  0.86430500  0.49812400  1
  Mo  Mo24  1  0.46517300  0.06154800  0.00123700  1
  Mo  Mo25  1  0.53482700  0.06154800  0.50123700  1
  Mo  Mo26  1  0.75748400  0.07430300  0.16314800  1
  Mo  Mo27  1  0.24251600  0.07430300  0.66314800  1
  Mo  Mo28  1  0.41280400  0.06079300  0.65313800  1
  Mo  Mo29  1  0.58719600  0.06079300  0.15313800  1
  Mo  Mo30  1  0.76621600  0.13943300  0.50434600  1
  Mo  Mo31  1  0.23378400  0.13943300  0.00434600  1
  Mo  Mo32  1  0.32693000  0.23599500  0.50029100  1
  Mo  Mo33  1  0.67307000  0.23599500  0.00029100  1
  Mo  Mo34  1  0.67880800  0.18558900  0.31486800  1
  Mo  Mo35  1  0.32119200  0.18558900  0.81486800  1
  Mo  Mo36  1  0.16940200  0.34180000  0.17389100  1
  Mo  Mo37  1  0.16434000  0.26494000  0.52436600  1
  Mo  Mo38  1  0.27591300  0.36345000  0.00213200  1
  Mo  Mo39  1  0.09212500  0.43708700  0.34163900  1
  Mo  Mo40  1  0.24565600  0.40739200  0.34712900  1
  Mo  Mo41  1  0.03117000  0.45348400  0.99286800  1
  Mo  Mo42  1  0.05527000  0.63010600  0.50109200  1
  Mo  Mo43  1  0.24729600  0.56922700  0.14645900  1
  Mo  Mo44  1  0.08382700  0.57775300  0.16347000  1
  Mo  Mo45  1  0.29450500  0.59856200  0.53792000  1
  Mo  Mo46  1  0.25996100  0.64987800  0.91452700  1
  Mo  Mo47  1  0.17182300  0.67345400  0.31608300  1
  S  S0  1  0.77322700  0.18879100  0.87886000  1
  S  S1  1  0.85686600  0.12816900  0.63190000  1
  S  S2  1  0.96447100  0.26500000  0.94158200  1
  S  S3  1  0.68193000  0.37645200  0.68125700  1
  S  S4  1  0.96666800  0.35980700  0.67797000  1
  S  S5  1  0.63517800  0.45254900  0.93398500  1
  S  S6  1  0.83263900  0.50865200  0.49722900  1
  S  S7  1  0.83189600  0.49444600  0.00531100  1
  S  S8  1  0.64750000  0.66819400  0.54372400  1
  S  S9  1  0.00138200  0.60657500  0.83310500  1
  S  S10  1  0.69295300  0.72320600  0.76734400  1
  S  S11  1  0.98425200  0.76482600  0.59801200  1
  S  S12  1  0.26657500  0.61831900  0.72735600  1
  S  S13  1  0.73342500  0.61831900  0.22735600  1
  S  S14  1  0.58476400  0.68020200  0.10925600  1
  S  S15  1  0.41523600  0.68020200  0.60925600  1
  S  S16  1  0.85803500  0.81597200  0.95777300  1
  S  S17  1  0.83719700  0.86231700  0.71023800  1
  S  S18  1  0.48841600  0.75033000  0.87588000  1
  S  S19  1  0.51158400  0.75033000  0.37588000  1
  S  S20  1  0.80820000  0.86869900  0.20061900  1
  S  S21  1  0.19180000  0.86869900  0.70061900  1
  S  S22  1  0.51522800  0.91444800  0.64920800  1
  S  S23  1  0.48477200  0.91444800  0.14920800  1
  S  S24  1  0.16492400  0.80129200  0.94898200  1
  S  S25  1  0.83507600  0.80129200  0.44898200  1
  S  S26  1  0.33020500  0.99506000  0.50962900  1
  S  S27  1  0.66979500  0.99506000  0.00962900  1
  S  S28  1  0.66243000  0.98814000  0.50800500  1
  S  S29  1  0.33757000  0.98814000  0.00800500  1
  S  S30  1  0.10911500  0.10439600  0.61851500  1
  S  S31  1  0.89088500  0.10439600  0.11851500  1
  S  S32  1  0.45712300  0.15914300  0.81379600  1
  S  S33  1  0.54287700  0.15914300  0.31379600  1
  S  S34  1  0.82343600  0.11556700  0.34080600  1
  S  S35  1  0.17656400  0.11556700  0.84080600  1
  S  S36  1  0.46252800  0.23942100  0.54436500  1
  S  S37  1  0.53747200  0.23942100  0.04436500  1
  S  S38  1  0.22677300  0.18879100  0.37886000  1
  S  S39  1  0.14313400  0.12816900  0.13190000  1
  S  S40  1  0.63990400  0.40182400  0.37128800  1
  S  S41  1  0.36009600  0.40182400  0.87128800  1
  S  S42  1  0.27210400  0.30315400  0.65510000  1
  S  S43  1  0.72789600  0.30315400  0.15510000  1
  S  S44  1  0.03552900  0.26500000  0.44158200  1
  S  S45  1  0.31807000  0.37645200  0.18125700  1
  S  S46  1  0.03333200  0.35980700  0.17797000  1
  S  S47  1  0.36482200  0.45254900  0.43398500  1
  S  S48  1  0.16736100  0.50865200  0.99722900  1
  S  S49  1  0.16810400  0.49444600  0.50531100  1
  S  S50  1  0.35250000  0.66819400  0.04372400  1
  S  S51  1  0.99861800  0.60657500  0.33310500  1
  S  S52  1  0.30704700  0.72320600  0.26734400  1
  S  S53  1  0.01574800  0.76482600  0.09801200  1
  S  S54  1  0.14196500  0.81597200  0.45777300  1
  S  S55  1  0.16280300  0.86231700  0.21023800  1
loop_
_geom_bond_atom_site_label_1
_geom_bond_atom_site_label_2
_geom_bond_distance
_geom_bond_site_symmetry_2
K0 S43 3.046440 1_555
K0 S46 3.161419 1_655
K0 S6 3.205239 1_555
K0 S13 3.233272 1_555
K0 S51 3.234621 1_555
K0 S34 3.330916 1_555
K0 S7 3.399801 1_555
K1 S15 3.125198 1_555
K1 S3 3.200148 1_555
K1 S5 3.206863 1_555
K1 S18 3.339958 1_555
K1 S41 3.358628 1_555
K1 S32 3.753601 1_555
K2 S38 3.085927 1_555
K2 S23 3.089903 1_545
K2 S29 3.225925 1_545
K2 S26 3.361814 1_545
K2 S45 3.388643 1_555
K2 S33 3.492704 1_555
K3 S55 3.187873 1_555
K3 S31 3.377029 1_465
K3 S54 3.433329 1_555
K3 S53 3.502099 1_555
K3 S39 3.520376 1_565
K3 S44 3.572621 1_565
K3 S34 3.622052 1_465
K4 S0 3.085927 1_555
K4 S22 3.089903 1_545
K4 S28 3.225925 1_545
K4 S27 3.361814 1_546
K4 S3 3.388643 1_555
K4 S32 3.492704 1_555
K5 S17 3.187873 1_555
K5 S30 3.377029 1_665
K5 S16 3.433329 1_555
K5 S11 3.502099 1_555
K5 S1 3.520376 1_565
K5 S2 3.572621 1_565
K5 S35 3.622052 1_665
K6 S14 3.125198 1_555
K6 S45 3.200148 1_555
K6 S47 3.206863 1_555
K6 S19 3.339958 1_555
K6 S40 3.358628 1_555
K6 S33 3.753601 1_555
K7 S42 3.046440 1_555
K7 S4 3.161419 1_455
K7 S48 3.205239 1_555
K7 S12 3.233272 1_555
K7 S9 3.234621 1_555
K7 S35 3.330916 1_555
K7 S49 3.399801 1_555
Mo0 S1 2.384290 1_555
Mo0 S4 2.395435 1_555
Mo0 S3 2.635893 1_555
Mo0 S6 2.789495 1_555
Mo1 S31 2.254588 1_555
Mo1 S0 2.304473 1_554
Mo1 S7 2.431939 1_555
Mo1 S2 2.488561 1_554
Mo1 S43 2.548450 1_555
Mo2 S40 2.238641 1_555
Mo2 S3 2.382025 1_555
Mo2 S6 2.446020 1_555
Mo3 S2 2.391298 1_555
Mo3 S9 2.429673 1_655
Mo3 S4 2.469682 1_555
Mo3 S7 2.545779 1_556
Mo4 S0 2.355923 1_555
Mo4 S5 2.414976 1_555
Mo4 S3 2.476143 1_555
Mo4 S7 2.607122 1_556
Mo5 S44 2.419549 1_655
Mo5 S6 2.460594 1_555
Mo5 S4 2.499657 1_555
Mo5 S51 2.589849 1_555
Mo6 S53 2.279749 1_655
Mo6 S9 2.358100 1_654
Mo6 S7 2.444427 1_555
Mo6 S16 2.529709 1_554
Mo7 S3 2.414107 1_555
Mo7 S6 2.448192 1_555
Mo7 S8 2.465372 1_555
Mo7 S10 2.499310 1_555
Mo8 S11 2.429932 1_555
Mo8 S4 2.470482 1_555
Mo8 S9 2.633558 1_655
Mo8 S6 2.678154 1_555
Mo9 S5 2.401075 1_554
Mo9 S13 2.451085 1_555
Mo9 S14 2.468678 1_555
Mo9 S7 2.516250 1_555
Mo10 S8 2.311194 1_555
Mo10 S25 2.362942 1_555
Mo10 S13 2.394677 1_555
Mo10 S6 2.417287 1_555
Mo11 S17 2.366623 1_555
Mo11 S16 2.433698 1_555
Mo11 S10 2.501629 1_555
Mo11 S7 2.990219 1_556
Mo12 S20 2.342669 1_555
Mo12 S14 2.423258 1_555
Mo12 S13 2.515822 1_555
Mo12 S27 2.619465 1_555
Mo13 S21 2.342669 1_555
Mo13 S15 2.423258 1_555
Mo13 S12 2.515822 1_555
Mo13 S26 2.619465 1_555
Mo14 S24 2.342509 1_554
Mo14 S29 2.375191 1_555
Mo14 S55 2.380981 1_555
Mo14 S50 2.401751 1_555
Mo14 S52 2.696130 1_555
Mo15 S25 2.342509 1_555
Mo15 S28 2.375191 1_555
Mo15 S17 2.380981 1_555
Mo15 S8 2.401751 1_555
Mo15 S10 2.696130 1_555
Mo16 Mo9 2.271206 1_556
Mo16 S16 2.392900 1_555
Mo16 S10 2.436084 1_555
Mo16 S27 2.556611 1_556
Mo17 Mo45 2.271206 1_555
Mo17 S54 2.392900 1_555
Mo17 S52 2.436084 1_555
Mo17 S26 2.556611 1_555
Mo18 S18 2.392798 1_555
Mo18 S32 2.474730 1_565
Mo18 S29 2.648574 1_556
Mo18 S22 2.934874 1_555
Mo19 S19 2.392798 1_555
Mo19 S33 2.474730 1_565
Mo19 S28 2.648574 1_555
Mo19 S23 2.934874 1_555
Mo20 S25 2.375819 1_555
Mo20 S20 2.409187 1_555
Mo20 S34 2.438438 1_565
Mo20 S28 2.442372 1_555
Mo21 S24 2.375819 1_555
Mo21 S21 2.409187 1_555
Mo21 S35 2.438438 1_565
Mo21 S29 2.442372 1_556
Mo22 S18 2.313619 1_555
Mo22 S23 2.350394 1_556
Mo22 S14 2.410998 1_556
Mo22 S27 2.439015 1_556
Mo23 S19 2.313619 1_555
Mo23 S22 2.350394 1_555
Mo23 S15 2.410998 1_555
Mo23 S26 2.439015 1_555
Mo24 S37 2.348952 1_555
Mo24 S29 2.369998 1_545
Mo24 S23 2.408688 1_545
Mo24 S32 2.545514 1_554
Mo25 S36 2.348952 1_555
Mo25 S28 2.369998 1_545
Mo25 S22 2.408688 1_545
Mo25 S33 2.545514 1_555
Mo26 S20 2.381367 1_545
Mo26 S31 2.425153 1_555
Mo26 S43 2.474423 1_555
Mo26 S34 2.569502 1_555
Mo26 S27 2.630877 1_545
Mo27 S21 2.381367 1_545
Mo27 S30 2.425153 1_555
Mo27 S42 2.474423 1_555
Mo27 S35 2.569502 1_555
Mo27 S26 2.630877 1_545
Mo28 S22 2.373469 1_545
Mo28 S32 2.435055 1_555
Mo28 S26 2.436826 1_545
Mo28 S36 2.453753 1_555
Mo29 S23 2.373469 1_545
Mo29 S33 2.435055 1_555
Mo29 S27 2.436826 1_545
Mo29 S37 2.453753 1_555
Mo30 S1 2.260196 1_555
Mo30 S34 2.312607 1_555
Mo30 S28 2.423523 1_545
Mo31 S39 2.260196 1_555
Mo31 S35 2.312607 1_554
Mo31 S29 2.423523 1_545
Mo32 S42 2.308288 1_555
Mo32 S38 2.393521 1_555
Mo32 S36 2.443294 1_555
Mo32 S47 2.499812 1_555
Mo32 S26 2.547850 1_545
Mo33 S43 2.308288 1_555
Mo33 S0 2.393521 1_554
Mo33 S37 2.443294 1_555
Mo33 S5 2.499812 1_554
Mo33 S27 2.547850 1_545
Mo34 S33 2.401159 1_555
Mo34 S43 2.480819 1_555
Mo34 S40 2.513873 1_555
Mo34 S34 2.660028 1_555
Mo35 S32 2.401159 1_555
Mo35 S42 2.480819 1_555
Mo35 S41 2.513873 1_555
Mo35 S35 2.660028 1_555
Mo36 S39 2.384290 1_555
Mo36 S46 2.395435 1_555
Mo36 S45 2.635893 1_555
Mo36 S48 2.789495 1_554
Mo37 S30 2.254588 1_555
Mo37 S38 2.304473 1_555
Mo37 S49 2.431939 1_555
Mo37 S44 2.488561 1_555
Mo37 S42 2.548450 1_555
Mo38 S41 2.238641 1_554
Mo38 S45 2.382025 1_555
Mo38 S48 2.446020 1_554
Mo39 S44 2.391298 1_555
Mo39 S51 2.429673 1_455
Mo39 S46 2.469682 1_555
Mo39 S49 2.545779 1_555
Mo40 S38 2.355923 1_555
Mo40 S47 2.414976 1_555
Mo40 S45 2.476143 1_555
Mo40 S49 2.607122 1_555
Mo41 S2 2.419549 1_455
Mo41 S48 2.460594 1_555
Mo41 S46 2.499657 1_556
Mo41 S9 2.589849 1_555
Mo42 S11 2.279749 1_455
Mo42 S51 2.358100 1_455
Mo42 S49 2.444427 1_555
Mo42 S54 2.529709 1_555
Mo43 S45 2.414107 1_555
Mo43 S48 2.448192 1_554
Mo43 S50 2.465372 1_555
Mo43 S52 2.499310 1_555
Mo44 S53 2.429932 1_555
Mo44 S46 2.470482 1_555
Mo44 S51 2.633558 1_455
Mo44 S48 2.678154 1_554
Mo45 S47 2.401075 1_555
Mo45 S12 2.451085 1_555
Mo45 S15 2.468678 1_555
Mo45 S49 2.516250 1_555
Mo46 S50 2.311194 1_556
Mo46 S24 2.362942 1_555
Mo46 S12 2.394677 1_555
Mo46 S48 2.417287 1_555
Mo47 S55 2.366623 1_555
Mo47 S54 2.433698 1_555
Mo47 S52 2.501629 1_555
Mo47 S49 2.990219 1_555
