# generated using pymatgen
data_Yb2CdSe4
_symmetry_space_group_name_H-M   'P 1'
_cell_length_a   8.39312415
_cell_length_b   8.39312415
_cell_length_c   8.39312415
_cell_angle_alpha   60.00000000
_cell_angle_beta   60.00000000
_cell_angle_gamma   60.00000000
_symmetry_Int_Tables_number   1
_chemical_formula_structural   Yb2CdSe4
_chemical_formula_sum   'Yb4 Cd2 Se8'
_cell_volume   418.07667974
_cell_formula_units_Z   2
loop_
 _symmetry_equiv_pos_site_id
 _symmetry_equiv_pos_as_xyz
  1  'x, y, z'
loop_
 _atom_site_type_symbol
 _atom_site_label
 _atom_site_symmetry_multiplicity
 _atom_site_fract_x
 _atom_site_fract_y
 _atom_site_fract_z
 _atom_site_occupancy
  Yb  Yb0  1  0.12500000  0.12500000  0.62500000  1
  Yb  Yb1  1  0.12500000  0.62500000  0.12500000  1
  Yb  Yb2  1  0.62500000  0.12500000  0.12500000  1
  Yb  Yb3  1  0.12500000  0.12500000  0.12500000  1
  Cd  Cd0  1  0.75000000  0.75000000  0.75000000  1
  Cd  Cd1  1  0.50000000  0.50000000  0.50000000  1
  Se  Se0  1  0.87969400  0.36091900  0.87969400  1
  Se  Se1  1  0.37030600  0.37030600  0.88908100  1
  Se  Se2  1  0.37030600  0.37030600  0.37030600  1
  Se  Se3  1  0.88908100  0.37030600  0.37030600  1
  Se  Se4  1  0.87969400  0.87969400  0.87969400  1
  Se  Se5  1  0.36091900  0.87969400  0.87969400  1
  Se  Se6  1  0.37030600  0.88908100  0.37030600  1
  Se  Se7  1  0.87969400  0.87969400  0.36091900  1
loop_
_geom_bond_atom_site_label_1
_geom_bond_atom_site_label_2
_geom_bond_distance
_geom_bond_site_symmetry_2
Cd0 Se5 2.666355 1_555
Cd0 Se0 2.666355 1_555
Cd0 Se7 2.666355 1_555
Cd0 Se4 2.666362 1_555
Cd1 Se3 2.666355 1_555
Cd1 Se1 2.666355 1_555
Cd1 Se6 2.666355 1_555
Cd1 Se2 2.666362 1_555
Se0 Yb3 2.912767 1_656
Se0 Yb0 2.912773 1_655
Se0 Yb2 2.912773 1_556
Se1 Yb3 2.912767 1_556
Se1 Yb2 2.912773 1_556
Se1 Yb1 2.912773 1_556
Se2 Yb2 2.912767 1_555
Se2 Yb0 2.912767 1_555
Se2 Yb1 2.912767 1_555
Se3 Yb3 2.912767 1_655
Se3 Yb0 2.912773 1_655
Se3 Yb1 2.912773 1_655
Se4 Yb0 2.912767 1_665
Se4 Yb1 2.912767 1_656
Se4 Yb2 2.912767 1_566
Se5 Yb3 2.912767 1_566
Se5 Yb0 2.912773 1_565
Se5 Yb1 2.912773 1_556
Se6 Yb3 2.912767 1_565
Se6 Yb0 2.912773 1_565
Se6 Yb2 2.912773 1_565
Se7 Yb3 2.912767 1_665
Se7 Yb1 2.912773 1_655
Se7 Yb2 2.912773 1_565
