# generated using pymatgen
data_Li2Mn3(BO3)3
_symmetry_space_group_name_H-M   'P 1'
_cell_length_a   5.26947700
_cell_length_b   8.30121684
_cell_length_c   9.25556156
_cell_angle_alpha   104.33468729
_cell_angle_beta   105.66162047
_cell_angle_gamma   90.63127139
_symmetry_Int_Tables_number   1
_chemical_formula_structural   Li2Mn3(BO3)3
_chemical_formula_sum   'Li4 Mn6 B6 O18'
_cell_volume   376.38042050
_cell_formula_units_Z   2
loop_
 _symmetry_equiv_pos_site_id
 _symmetry_equiv_pos_as_xyz
  1  'x, y, z'
loop_
 _atom_site_type_symbol
 _atom_site_label
 _atom_site_symmetry_multiplicity
 _atom_site_fract_x
 _atom_site_fract_y
 _atom_site_fract_z
 _atom_site_occupancy
  Li  Li0  1  0.98544500  0.36939000  0.29236900  1
  Li  Li1  1  0.33564500  0.95128600  0.35732600  1
  Li  Li2  1  0.65931900  0.04331300  0.64176700  1
  Li  Li3  1  0.30763100  0.70039700  0.95597200  1
  Mn  Mn0  1  0.78089300  0.02985700  0.20576100  1
  Mn  Mn1  1  0.86489800  0.62927900  0.11428700  1
  Mn  Mn2  1  0.55409200  0.30519700  0.45136700  1
  Mn  Mn3  1  0.45763800  0.69020400  0.55592700  1
  Mn  Mn4  1  0.12995100  0.35754700  0.88922300  1
  Mn  Mn5  1  0.19978200  0.96797700  0.78038400  1
  B  B0  1  0.22346700  0.13375700  0.10371100  1
  B  B1  1  0.43649400  0.52602900  0.22936400  1
  B  B2  1  0.10918300  0.17903500  0.55336600  1
  B  B3  1  0.89650200  0.82421400  0.44397300  1
  B  B4  1  0.57033300  0.48922200  0.78367900  1
  B  B5  1  0.77178000  0.85180200  0.88958600  1
  O  O0  1  0.98145000  0.17634700  0.11740600  1
  O  O1  1  0.68495100  0.81031300  0.00779900  1
  O  O2  1  0.25801400  0.57656600  0.11100900  1
  O  O3  1  0.41001300  0.09008500  0.22416400  1
  O  O4  1  0.69615900  0.50639800  0.23131200  1
  O  O5  1  0.34413800  0.48871900  0.34727100  1
  O  O6  1  0.92769700  0.22797000  0.43523400  1
  O  O7  1  0.97008900  0.83140200  0.30908100  1
  O  O8  1  0.36154000  0.14848000  0.54641100  1
  O  O9  1  0.64462700  0.84668000  0.45380800  1
  O  O10  1  0.02192700  0.14720000  0.67628200  1
  O  O11  1  0.10176800  0.80654400  0.57044300  1
  O  O12  1  0.63639500  0.50663000  0.65261200  1
  O  O13  1  0.32078200  0.50338400  0.79630000  1
  O  O14  1  0.58590400  0.90056600  0.77261600  1
  O  O15  1  0.77952000  0.46444500  0.90724300  1
  O  O16  1  0.29729100  0.14870800  0.97033400  1
  O  O17  1  0.03152000  0.83988700  0.89081100  1
loop_
_geom_bond_atom_site_label_1
_geom_bond_atom_site_label_2
_geom_bond_distance
_geom_bond_site_symmetry_2
Li0 O4 1.956525 1_555
Li0 O0 1.971466 1_555
Li0 O5 2.000739 1_655
Li0 O6 2.048727 1_555
Li1 O9 1.957692 1_555
Li1 O3 1.988509 1_565
Li1 O7 2.042958 1_455
Li1 O8 2.051489 1_565
Li2 O8 1.915017 1_555
Li2 O14 1.993493 1_545
Li2 O10 1.998614 1_655
Li2 O9 2.053095 1_545
Li3 O13 1.929904 1_555
Li3 O17 1.931482 1_555
Li3 O2 2.027604 1_556
Li3 O1 2.060157 1_556
Mn0 O0 2.048203 1_555
Mn0 O3 2.063378 1_555
Mn0 O1 2.181799 1_545
Mn0 O7 2.218997 1_545
Mn0 O6 2.273613 1_555
Mn1 O15 1.992362 1_554
Mn1 O4 2.012811 1_555
Mn1 O7 2.077269 1_555
Mn1 O1 2.095045 1_555
Mn1 O2 2.128593 1_655
Mn2 O6 2.109074 1_555
Mn2 O12 2.111675 1_555
Mn2 O8 2.124927 1_555
Mn2 O5 2.159082 1_555
Mn2 O3 2.331515 1_555
Mn3 O12 2.064484 1_555
Mn3 O11 2.139858 1_555
Mn3 O9 2.152679 1_555
Mn3 O5 2.154001 1_555
Mn3 O14 2.244214 1_555
Mn4 O13 2.042594 1_555
Mn4 O15 2.086686 1_455
Mn4 O16 2.160395 1_555
Mn4 O10 2.219390 1_555
Mn4 O2 2.313387 1_556
Mn5 O16 1.948068 1_565
Mn5 O17 1.991988 1_555
Mn5 O11 1.997952 1_555
Mn5 O10 2.067168 1_565
Mn5 O14 2.131269 1_555
B0 O0 1.357381 1_455
B0 O3 1.398901 1_555
B0 O16 1.422940 1_554
B1 O4 1.375562 1_555
B1 O2 1.393028 1_555
B1 O5 1.405164 1_555
B2 O8 1.372000 1_555
B2 O6 1.392483 1_455
B2 O10 1.415672 1_555
B3 O9 1.366359 1_555
B3 O11 1.402350 1_655
B3 O7 1.417900 1_555
B4 O13 1.355080 1_555
B4 O12 1.388298 1_555
B4 O15 1.416389 1_555
B5 O17 1.370545 1_655
B5 O14 1.395894 1_555
B5 O1 1.406587 1_556
