# generated using pymatgen
data_In
_symmetry_space_group_name_H-M   'P 1'
_cell_length_a   6.77882951
_cell_length_b   6.77882863
_cell_length_c   6.63987468
_cell_angle_alpha   120.69472806
_cell_angle_beta   120.69470977
_cell_angle_gamma   89.99997900
_symmetry_Int_Tables_number   1
_chemical_formula_structural   In
_chemical_formula_sum   In8
_cell_volume   211.14011784
_cell_formula_units_Z   8
loop_
 _symmetry_equiv_pos_site_id
 _symmetry_equiv_pos_as_xyz
  1  'x, y, z'
loop_
 _atom_site_type_symbol
 _atom_site_label
 _atom_site_symmetry_multiplicity
 _atom_site_fract_x
 _atom_site_fract_y
 _atom_site_fract_z
 _atom_site_occupancy
  In  In0_0  1  0.00000000  0.00000000  0.00000000  1
  In  In0_1  1  0.00000000  0.00000000  0.50000000  1
  In  In0_2  1  0.00000000  0.50000000  0.00000000  1
  In  In0_3  1  0.00000000  0.50000000  0.50000000  1
  In  In0_4  1  0.50000000  0.00000000  0.00000000  1
  In  In0_5  1  0.50000000  0.00000000  0.50000000  1
  In  In0_6  1  0.50000000  0.50000000  1.00000000  1
  In  In0_7  1  0.50000000  0.50000000  0.50000000  1
loop_
_geom_bond_atom_site_label_1
_geom_bond_atom_site_label_2
_geom_bond_distance
_geom_bond_site_symmetry_2
In0_0 In0_3 3.319937 1_555
In0_0 In0_3 3.319937 1_544
In0_0 In0_1 3.319937 1_555
In0_0 In0_1 3.319937 1_554
In0_0 In0_5 3.319938 1_555
In0_0 In0_5 3.319938 1_454
In0_0 In0_7 3.319938 1_555
In0_0 In0_7 3.319938 1_444
In0_0 In0_2 3.389414 1_555
In0_0 In0_2 3.389414 1_545
In0_0 In0_4 3.389415 1_555
In0_0 In0_4 3.389415 1_455
In0_1 In0_2 3.319937 1_556
In0_1 In0_2 3.319937 1_545
In0_1 In0_4 3.319938 1_455
In0_1 In0_4 3.319938 1_556
In0_1 In0_6 3.319938 1_444
In0_1 In0_6 3.319938 1_555
In0_1 In0_3 3.389414 1_555
In0_1 In0_3 3.389414 1_545
In0_1 In0_5 3.389415 1_555
In0_1 In0_5 3.389415 1_455
In0_2 In0_3 3.319937 1_555
In0_2 In0_3 3.319937 1_554
In0_2 In0_7 3.319938 1_555
In0_2 In0_7 3.319938 1_454
In0_2 In0_5 3.319938 1_565
In0_2 In0_5 3.319938 1_454
In0_2 In0_6 3.389415 1_454
In0_2 In0_6 3.389415 1_554
In0_3 In0_6 3.319938 1_454
In0_3 In0_6 3.319938 1_555
In0_3 In0_4 3.319938 1_566
In0_3 In0_4 3.319938 1_455
In0_3 In0_7 3.389415 1_455
In0_3 In0_7 3.389415 1_555
In0_4 In0_7 3.319937 1_555
In0_4 In0_7 3.319937 1_544
In0_4 In0_5 3.319937 1_554
In0_4 In0_5 3.319937 1_555
In0_4 In0_6 3.389414 1_554
In0_4 In0_6 3.389414 1_544
In0_5 In0_6 3.319937 1_555
In0_5 In0_6 3.319937 1_544
In0_5 In0_7 3.389414 1_555
In0_5 In0_7 3.389414 1_545
In0_6 In0_7 3.319937 1_555
In0_6 In0_7 3.319937 1_556
