# generated using pymatgen
data_Gd4Ga16Co3
_symmetry_space_group_name_H-M   'P 1'
_cell_length_a   5.99993685
_cell_length_b   5.99895553
_cell_length_c   11.04664063
_cell_angle_alpha   90.00004251
_cell_angle_beta   90.00002314
_cell_angle_gamma   90.00000000
_symmetry_Int_Tables_number   1
_chemical_formula_structural   Gd4Ga16Co3
_chemical_formula_sum   'Gd4 Ga16 Co3'
_cell_volume   397.60565053
_cell_formula_units_Z   1
loop_
 _symmetry_equiv_pos_site_id
 _symmetry_equiv_pos_as_xyz
  1  'x, y, z'
loop_
 _atom_site_type_symbol
 _atom_site_label
 _atom_site_symmetry_multiplicity
 _atom_site_fract_x
 _atom_site_fract_y
 _atom_site_fract_z
 _atom_site_occupancy
  Gd  Gd0  1  0.00000050  0.49999989  0.19559777  1
  Gd  Gd1  1  -0.00000034  0.50000089  0.80426654  1
  Gd  Gd2  1  0.50000020  -0.00000024  0.80420873  1
  Gd  Gd3  1  0.50000030  -0.00000065  0.19579617  1
  Ga  Ga0  1  0.00000034  -0.00000039  0.78085602  1
  Ga  Ga1  1  -0.00000094  0.00000084  0.21947076  1
  Ga  Ga2  1  0.49999997  0.50000061  0.19379222  1
  Ga  Ga3  1  0.50000018  0.50000021  0.80654776  1
  Ga  Ga4  1  0.28104569  0.28107320  -0.00001140  1
  Ga  Ga5  1  0.71895335  0.71892563  -0.00001169  1
  Ga  Ga6  1  0.28104676  0.71892573  -0.00001170  1
  Ga  Ga7  1  0.71895436  0.28107303  -0.00001149  1
  Ga  Ga8  1  0.24908958  0.24930939  0.38582082  1
  Ga  Ga9  1  0.75090961  0.75069145  0.38582079  1
  Ga  Ga10  1  0.24917518  0.75087386  0.61401597  1
  Ga  Ga11  1  0.75082473  0.24912716  0.61401550  1
  Ga  Ga12  1  0.75082487  0.75087333  0.61401591  1
  Ga  Ga13  1  0.24917528  0.24912673  0.61401554  1
  Ga  Ga14  1  0.24909002  0.75069114  0.38582079  1
  Ga  Ga15  1  0.75091025  0.24930885  0.38582076  1
  Co  Co0  1  0.00000025  -0.00000113  0.00010441  1
  Co  Co1  1  0.49999989  0.00000052  0.50002307  1
  Co  Co2  1  -0.00000001  0.49999992  0.50003774  1
loop_
_geom_bond_atom_site_label_1
_geom_bond_atom_site_label_2
_geom_bond_distance
_geom_bond_site_symmetry_2
Ga0 Ga10 2.804526 1_545
Ga0 Ga12 2.804529 1_445
Ga0 Ga13 2.804535 1_555
Ga0 Ga11 2.804538 1_455
Ga0 Gd1 3.010598 1_545
Ga0 Gd1 3.010613 1_555
Ga0 Gd2 3.011039 1_555
Ga0 Gd2 3.011040 1_455
Ga1 Ga15 2.801280 1_455
Ga1 Ga8 2.801286 1_555
Ga1 Ga9 2.801288 1_445
Ga1 Ga14 2.801293 1_545
Ga1 Gd0 3.011043 1_555
Ga1 Gd0 3.011054 1_545
Ga1 Gd3 3.011339 1_455
Ga1 Gd3 3.011354 1_555
Ga2 Ga6 2.834434 1_555
Ga2 Ga5 2.834435 1_555
Ga2 Ga4 2.834439 1_555
Ga2 Ga7 2.834442 1_555
Ga2 Gd3 2.999552 1_565
Ga2 Gd3 2.999567 1_555
Ga2 Gd0 3.000032 1_555
Ga2 Gd0 3.000038 1_655
Ga2 Ga9 3.004630 1_555
Ga2 Ga8 3.004636 1_555
Ga3 Ga5 2.831403 1_556
Ga3 Ga6 2.831404 1_556
Ga3 Ga7 2.831413 1_556
Ga3 Ga4 2.831415 1_556
Ga3 Gd2 2.999586 1_565
Ga3 Gd2 2.999592 1_555
Ga3 Gd1 3.000071 1_655
Ga3 Gd1 3.000077 1_555
Ga4 Ga6 2.626658 1_555
Ga4 Ga7 2.627424 1_555
Ga4 Gd0 3.039317 1_555
Ga4 Gd1 3.040210 1_554
Ga4 Gd2 3.040764 1_554
Ga4 Gd3 3.040984 1_555
Ga5 Ga7 2.626658 1_555
Ga5 Ga6 2.627412 1_555
Ga5 Gd0 3.039324 1_655
Ga5 Gd1 3.040200 1_654
Ga5 Gd2 3.040761 1_564
Ga5 Gd3 3.040981 1_565
Ga6 Gd0 3.039322 1_555
Ga6 Gd1 3.040202 1_554
Ga6 Gd2 3.040763 1_564
Ga6 Gd3 3.040981 1_565
Ga7 Gd0 3.039321 1_655
Ga7 Gd1 3.040208 1_654
Ga7 Gd2 3.040761 1_554
Ga7 Gd3 3.040984 1_555
Ga8 Gd3 2.984888 1_555
Ga8 Gd0 2.985099 1_555
Ga9 Gd3 2.984878 1_565
Ga9 Gd0 2.985107 1_655
Ga10 Ga14 2.520790 1_555
Ga10 Gd2 2.985381 1_565
Ga10 Gd1 2.986125 1_555
Ga10 Ga13 2.988997 1_565
Ga10 Ga12 2.990070 1_455
Ga10 Ga3 3.008853 1_555
Ga10 Ga12 3.009866 1_555
Ga10 Ga13 3.009959 1_555
Ga11 Ga15 2.520786 1_555
Ga11 Gd2 2.985390 1_555
Ga11 Gd1 2.986127 1_655
Ga11 Ga12 2.989003 1_545
Ga11 Ga13 2.990072 1_655
Ga11 Ga3 3.008853 1_555
Ga11 Ga13 3.009865 1_555
Ga11 Ga12 3.009953 1_555
Ga12 Ga9 2.520790 1_555
Ga12 Gd2 2.985383 1_565
Ga12 Gd1 2.986121 1_655
Ga12 Ga3 3.008852 1_555
Ga13 Ga8 2.520785 1_555
Ga13 Gd2 2.985389 1_555
Ga13 Gd1 2.986131 1_555
Ga13 Ga3 3.008854 1_555
Ga14 Gd3 2.984882 1_565
Ga14 Gd0 2.985101 1_555
Ga14 Ga9 2.989051 1_455
Ga14 Ga8 2.991189 1_565
Ga14 Ga2 3.004631 1_555
Ga14 Ga8 3.007767 1_555
Ga14 Ga9 3.010886 1_555
Ga15 Gd3 2.984883 1_555
Ga15 Gd0 2.985105 1_655
Ga15 Ga8 2.989045 1_655
Ga15 Ga9 2.991184 1_545
Ga15 Ga2 3.004636 1_555
Ga15 Ga9 3.007772 1_555
Ga15 Ga8 3.010892 1_555
Co0 Ga6 2.384652 1_545
Co0 Ga4 2.384652 1_555
Co0 Ga7 2.384654 1_455
Co0 Ga5 2.384654 1_445
Co0 Ga0 2.421958 1_554
Co0 Ga1 2.423261 1_555
Co1 Ga13 2.466579 1_555
Co1 Ga11 2.466580 1_555
Co1 Ga10 2.466584 1_545
Co1 Ga12 2.466586 1_545
Co1 Ga9 2.468738 1_545
Co1 Ga15 2.468739 1_555
Co1 Ga14 2.468740 1_545
Co1 Ga8 2.468740 1_555
Co2 Ga11 2.466849 1_455
Co2 Ga13 2.466851 1_555
Co2 Ga12 2.466852 1_455
Co2 Ga10 2.466854 1_555
Co2 Ga8 2.467220 1_555
Co2 Ga15 2.467222 1_455
Co2 Ga14 2.467225 1_555
Co2 Ga9 2.467227 1_455
