# generated using pymatgen
data_U(PO3)4
_symmetry_space_group_name_H-M   'P 1'
_cell_length_a   8.28530045
_cell_length_b   8.29306153
_cell_length_c   8.67881496
_cell_angle_alpha   118.02112802
_cell_angle_beta   118.10446468
_cell_angle_gamma   90.08464378
_symmetry_Int_Tables_number   1
_chemical_formula_structural   U(PO3)4
_chemical_formula_sum   'U2 P8 O24'
_cell_volume   444.93960977
_cell_formula_units_Z   2
loop_
 _symmetry_equiv_pos_site_id
 _symmetry_equiv_pos_as_xyz
  1  'x, y, z'
loop_
 _atom_site_type_symbol
 _atom_site_label
 _atom_site_symmetry_multiplicity
 _atom_site_fract_x
 _atom_site_fract_y
 _atom_site_fract_z
 _atom_site_occupancy
  U  U0  1  0.71224042  0.70962830  0.91958096  1
  U  U1  1  0.28775958  0.29037170  0.08041904  1
  P  P0  1  0.23410989  0.77547890  0.27980113  1
  P  P1  1  0.53959959  0.99213539  0.27305748  1
  P  P2  1  0.77335203  0.53621566  0.27169341  1
  P  P3  1  0.76589011  0.22452110  0.72019887  1
  P  P4  1  0.00284265  0.76805119  0.71992485  1
  P  P5  1  0.99715735  0.23194881  0.28007515  1
  P  P6  1  0.46040041  0.00786461  0.72694252  1
  P  P7  1  0.22664797  0.46378434  0.72830659  1
  O  O0  1  0.72642072  0.07412663  0.49665597  1
  O  O1  1  0.47947113  0.15483987  0.25663542  1
  O  O2  1  0.27357928  0.92587337  0.50334403  1
  O  O3  1  0.07744582  0.27894238  0.50805439  1
  O  O4  1  0.04434575  0.76372531  0.12445186  1
  O  O5  1  0.13939070  0.96034094  0.86619183  1
  O  O6  1  0.11947863  0.62007166  0.72908714  1
  O  O7  1  0.57703389  0.85175974  0.11851210  1
  O  O8  1  0.86060930  0.03965906  0.13380817  1
  O  O9  1  0.52052887  0.84516013  0.74336458  1
  O  O10  1  0.92255418  0.72105762  0.49194561  1
  O  O11  1  0.83968717  0.72965130  0.73833974  1
  O  O12  1  0.95565425  0.23627469  0.87554814  1
  O  O13  1  0.88052137  0.37992834  0.27091286  1
  O  O14  1  0.59728807  0.48834703  0.26655173  1
  O  O15  1  0.60827973  0.12153565  0.72228925  1
  O  O16  1  0.16031283  0.27034870  0.26166026  1
  O  O17  1  0.72908436  0.40339089  0.72987702  1
  O  O18  1  0.39172027  0.87846435  0.27771075  1
  O  O19  1  0.24211426  0.43102051  0.88732078  1
  O  O20  1  0.27091564  0.59660911  0.27012298  1
  O  O21  1  0.75788574  0.56897949  0.11267922  1
  O  O22  1  0.42296611  0.14824026  0.88148790  1
  O  O23  1  0.40271193  0.51165297  0.73344827  1
loop_
_geom_bond_atom_site_label_1
_geom_bond_atom_site_label_2
_geom_bond_distance
_geom_bond_site_symmetry_2
O0 P1 1.597225 1_545
O0 P3 1.598106 1_555
O1 P1 1.484905 1_545
O1 U1 2.335999 1_555
O2 P6 1.597225 1_565
O2 P0 1.598106 1_555
O3 P5 1.594950 1_455
O3 P7 1.595861 1_555
O4 P0 1.475852 1_555
O4 U0 2.360369 1_454
O5 P4 1.474414 1_555
O5 U1 2.348258 1_566
O6 P4 1.571307 1_555
O6 P7 1.571356 1_555
O7 P1 1.475238 1_555
O7 U0 2.353511 1_554
O8 P5 1.474414 1_555
O8 U0 2.348258 1_544
O9 P6 1.484905 1_565
O9 U0 2.335999 1_555
O10 P4 1.594950 1_655
O10 P2 1.595861 1_555
O11 P4 1.484720 1_655
O11 U0 2.329494 1_555
O12 P3 1.475852 1_555
O12 U1 2.360369 1_656
O13 P5 1.571307 1_555
O13 P2 1.571356 1_555
O14 P2 1.485876 1_555
O14 U1 2.339736 1_555
O15 P3 1.571172 1_555
O15 P6 1.571760 1_555
O16 P5 1.484720 1_455
O16 U1 2.329494 1_555
O17 P3 1.486223 1_555
O17 U0 2.338534 1_555
O18 P0 1.571172 1_555
O18 P1 1.571760 1_555
O19 P7 1.476690 1_555
O19 U1 2.356458 1_556
O20 P0 1.486223 1_555
O20 U1 2.338534 1_555
O21 P2 1.476690 1_555
O21 U0 2.356458 1_554
O22 P6 1.475238 1_555
O22 U1 2.353511 1_556
O23 P7 1.485876 1_555
O23 U0 2.339736 1_555
