# generated using pymatgen
data_V2OF5
_symmetry_space_group_name_H-M   'P 1'
_cell_length_a   5.26609300
_cell_length_b   5.43376343
_cell_length_c   17.43976339
_cell_angle_alpha   83.07259810
_cell_angle_beta   81.53819979
_cell_angle_gamma   61.09879723
_symmetry_Int_Tables_number   1
_chemical_formula_structural   V2OF5
_chemical_formula_sum   'V8 O4 F20'
_cell_volume   431.41895231
_cell_formula_units_Z   4
loop_
 _symmetry_equiv_pos_site_id
 _symmetry_equiv_pos_as_xyz
  1  'x, y, z'
loop_
 _atom_site_type_symbol
 _atom_site_label
 _atom_site_symmetry_multiplicity
 _atom_site_fract_x
 _atom_site_fract_y
 _atom_site_fract_z
 _atom_site_occupancy
  V  V0  1  0.60088000  0.64991200  0.11988400  1
  V  V1  1  0.13125600  0.10764900  0.62388800  1
  V  V2  1  0.23410600  0.28603000  0.25354600  1
  V  V3  1  0.74646700  0.72672700  0.75667800  1
  V  V4  1  0.87204700  0.87733100  0.37352500  1
  V  V5  1  0.39103600  0.37388300  0.87371000  1
  V  V6  1  0.01293300  0.00106000  0.00229800  1
  V  V7  1  0.49176000  0.51873000  0.50424700  1
  O  O0  1  0.39243300  0.79017300  0.55989000  1
  O  O1  1  0.38210300  0.79506700  0.04776600  1
  O  O2  1  0.13437400  0.56007700  0.30702200  1
  O  O3  1  0.60175300  0.57948600  0.82829700  1
  F  F0  1  0.83175600  0.84587800  0.09003400  1
  F  F1  1  0.91145600  0.32954800  0.06123000  1
  F  F2  1  0.34655000  0.94324300  0.19237100  1
  F  F3  1  0.62943900  0.05419800  0.28724800  1
  F  F4  1  0.35284500  0.31283500  0.58388700  1
  F  F5  1  0.14576800  0.52706600  0.78584500  1
  F  F6  1  0.41665300  0.41122800  0.16221800  1
  F  F7  1  0.90708800  0.90807800  0.66914600  1
  F  F8  1  0.11110400  0.69801700  0.46015600  1
  F  F9  1  0.84756400  0.44076900  0.68339100  1
  F  F10  1  0.08960200  0.08400500  0.33615000  1
  F  F11  1  0.88760600  0.28488600  0.53636900  1
  F  F12  1  0.62610800  0.21492600  0.96272300  1
  F  F13  1  0.65178900  0.67117800  0.41198300  1
  F  F14  1  0.86090800  0.45841800  0.20664500  1
  F  F15  1  0.37238000  0.95880300  0.71110500  1
  F  F16  1  0.67922300  0.04472300  0.81516100  1
  F  F17  1  0.10279300  0.68889200  0.93792400  1
  F  F18  1  0.59185800  0.20184900  0.43796400  1
  F  F19  1  0.17885300  0.16080500  0.91334000  1
loop_
_geom_bond_atom_site_label_1
_geom_bond_atom_site_label_2
_geom_bond_distance
_geom_bond_site_symmetry_2
O0 V7 1.685504 1_555
O0 V1 1.957696 1_565
O1 V0 1.685259 1_555
O1 V6 1.948670 1_565
O2 V2 1.672700 1_555
O2 V4 1.983466 1_455
O3 V3 1.687926 1_555
O3 V5 1.957789 1_555
F0 V0 1.953071 1_555
F0 V6 1.999823 1_665
F1 V6 1.971476 1_655
F1 V0 1.984132 1_555
F2 V0 1.963847 1_555
F2 V2 2.045864 1_565
F3 V4 1.962127 1_545
F3 V2 1.978138 1_555
F4 V7 1.957838 1_555
F4 V1 1.980349 1_555
F5 V3 1.958037 1_455
F5 V5 1.986145 1_555
F6 V2 1.960584 1_555
F6 V0 1.985653 1_555
F7 V1 1.987263 1_665
F7 V3 2.019807 1_555
F8 V4 1.958515 1_455
F8 V7 1.985933 1_555
F9 V3 1.952069 1_555
F9 V1 1.992026 1_655
F10 V4 1.961087 1_445
F10 V2 1.990682 1_555
F11 V7 1.971157 1_555
F11 V1 1.982617 1_655
F12 V5 1.974056 1_555
F12 V6 1.976996 1_656
F13 V4 1.973765 1_555
F13 V7 1.984852 1_555
F14 V2 1.979313 1_655
F14 V0 2.024835 1_555
F15 V1 1.964441 1_565
F15 V3 1.980021 1_555
F16 V3 1.969449 1_545
F16 V5 1.976247 1_555
F17 V6 1.971981 1_566
F17 V5 1.984631 1_555
F18 V7 2.000594 1_555
F18 V4 2.006125 1_545
F19 V5 1.974066 1_555
F19 V6 1.983198 1_556
