# generated using pymatgen
data_HfSnS3
_symmetry_space_group_name_H-M   'P 1'
_cell_length_a   3.70225689
_cell_length_b   9.38317293
_cell_length_c   14.17625343
_cell_angle_alpha   90.00000000
_cell_angle_beta   90.00000000
_cell_angle_gamma   90.00000000
_symmetry_Int_Tables_number   1
_chemical_formula_structural   HfSnS3
_chemical_formula_sum   'Hf4 Sn4 S12'
_cell_volume   492.46768603
_cell_formula_units_Z   4
loop_
 _symmetry_equiv_pos_site_id
 _symmetry_equiv_pos_as_xyz
  1  'x, y, z'
loop_
 _atom_site_type_symbol
 _atom_site_label
 _atom_site_symmetry_multiplicity
 _atom_site_fract_x
 _atom_site_fract_y
 _atom_site_fract_z
 _atom_site_occupancy
  Hf  Hf0  1  0.75000000  0.34359948  0.44968417  1
  Hf  Hf1  1  0.25000000  0.65640052  0.55031583  1
  Hf  Hf2  1  0.75000000  0.84359948  0.05031583  1
  Hf  Hf3  1  0.25000000  0.15640052  0.94968417  1
  Sn  Sn0  1  0.75000000  0.94670308  0.66796601  1
  Sn  Sn1  1  0.25000000  0.05329692  0.33203399  1
  Sn  Sn2  1  0.75000000  0.44670308  0.83203399  1
  Sn  Sn3  1  0.25000000  0.55329692  0.16796601  1
  S  S0  1  0.25000000  0.01541336  0.10422038  1
  S  S1  1  0.75000000  0.98458664  0.89577962  1
  S  S2  1  0.25000000  0.51541336  0.39577962  1
  S  S3  1  0.75000000  0.48458664  0.60422038  1
  S  S4  1  0.25000000  0.17786736  0.50345555  1
  S  S5  1  0.75000000  0.82213264  0.49654445  1
  S  S6  1  0.25000000  0.67786736  0.99654445  1
  S  S7  1  0.75000000  0.32213264  0.00345555  1
  S  S8  1  0.75000000  0.23561417  0.28731750  1
  S  S9  1  0.25000000  0.76438583  0.71268250  1
  S  S10  1  0.75000000  0.73561417  0.21268250  1
  S  S11  1  0.25000000  0.26438583  0.78731750  1
loop_
_geom_bond_atom_site_label_1
_geom_bond_atom_site_label_2
_geom_bond_distance
_geom_bond_site_symmetry_2
Hf0 S8 2.514900 1_555
Hf0 S4 2.534967 1_655
Hf0 S4 2.534967 1_555
Hf0 S3 2.559188 1_555
Hf0 S2 2.570930 1_555
Hf0 S2 2.570930 1_655
Hf1 S9 2.514900 1_555
Hf1 S5 2.534967 1_555
Hf1 S5 2.534967 1_455
Hf1 S2 2.559188 1_555
Hf1 S3 2.570930 1_555
Hf1 S3 2.570930 1_455
Hf2 S10 2.514900 1_555
Hf2 S6 2.534967 1_554
Hf2 S6 2.534967 1_654
Hf2 S1 2.559188 1_554
Hf2 S0 2.570930 1_565
Hf2 S0 2.570930 1_665
Hf3 S11 2.514900 1_555
Hf3 S7 2.534967 1_456
Hf3 S7 2.534967 1_556
Hf3 S0 2.559188 1_556
Hf3 S1 2.570930 1_445
Hf3 S1 2.570930 1_545
S4 Sn1 2.696611 1_555
S5 Sn0 2.696611 1_555
S6 Sn3 2.696611 1_556
S7 Sn2 2.696611 1_554
S8 Sn1 2.599051 1_555
S8 Sn1 2.599051 1_655
S9 Sn0 2.599051 1_555
S9 Sn0 2.599051 1_455
S10 Sn3 2.599051 1_555
S10 Sn3 2.599051 1_655
S11 Sn2 2.599051 1_455
S11 Sn2 2.599051 1_555
