# generated using pymatgen
data_B5W2
_symmetry_space_group_name_H-M   'P 1'
_cell_length_a   7.37628618
_cell_length_b   7.37628618
_cell_length_c   7.37628661
_cell_angle_alpha   24.25374530
_cell_angle_beta   24.25374530
_cell_angle_gamma   24.25374412
_symmetry_Int_Tables_number   1
_chemical_formula_structural   B5W2
_chemical_formula_sum   'B5 W2'
_cell_volume   59.52405036
_cell_formula_units_Z   1
loop_
 _symmetry_equiv_pos_site_id
 _symmetry_equiv_pos_as_xyz
  1  'x, y, z'
loop_
 _atom_site_type_symbol
 _atom_site_label
 _atom_site_symmetry_multiplicity
 _atom_site_fract_x
 _atom_site_fract_y
 _atom_site_fract_z
 _atom_site_occupancy
  B  B0  1  0.50000000  0.50000000  0.50000000  1
  B  B1  1  0.81491800  0.81491800  0.81491800  1
  B  B2  1  0.33109000  0.33109000  0.33109000  1
  B  B3  1  0.66891000  0.66891000  0.66891000  1
  B  B4  1  0.18508200  0.18508200  0.18508200  1
  W  W0  1  0.92355800  0.92355800  0.92355800  1
  W  W1  1  0.07644200  0.07644200  0.07644200  1
loop_
_geom_bond_atom_site_label_1
_geom_bond_atom_site_label_2
_geom_bond_distance
_geom_bond_site_symmetry_2
B0 B1 1.832465 1_455
B0 B4 1.832465 1_655
B0 B1 1.832465 1_545
B0 B4 1.832465 1_565
B0 B4 1.832465 1_556
B0 B1 1.832465 1_554
B1 B4 1.956223 1_665
B1 B4 1.956223 1_656
B1 B4 1.956223 1_566
B1 W0 2.332275 1_555
B1 W1 2.361812 1_656
B1 W1 2.361812 1_566
B1 W1 2.361812 1_665
B2 B3 1.791902 1_455
B2 B3 1.791902 1_545
B2 B3 1.791902 1_554
B2 W0 2.395608 1_445
B2 W0 2.395608 1_544
B2 W0 2.395608 1_454
B2 W1 2.460705 1_565
B2 W1 2.460705 1_655
B2 W1 2.460705 1_556
B3 W1 2.395608 1_665
B3 W1 2.395608 1_566
B3 W1 2.395608 1_656
B3 W0 2.460705 1_455
B3 W0 2.460705 1_545
B3 W0 2.460705 1_554
B4 W1 2.332275 1_555
B4 W0 2.361812 1_544
B4 W0 2.361812 1_454
B4 W0 2.361812 1_445
