# generated using pymatgen
data_MgAsPt5
_symmetry_space_group_name_H-M   'P 1'
_cell_length_a   3.94990924
_cell_length_b   3.94990924
_cell_length_c   7.12741656
_cell_angle_alpha   90.00000000
_cell_angle_beta   90.00000000
_cell_angle_gamma   90.00000000
_symmetry_Int_Tables_number   1
_chemical_formula_structural   MgAsPt5
_chemical_formula_sum   'Mg1 As1 Pt5'
_cell_volume   111.20040655
_cell_formula_units_Z   1
loop_
 _symmetry_equiv_pos_site_id
 _symmetry_equiv_pos_as_xyz
  1  'x, y, z'
loop_
 _atom_site_type_symbol
 _atom_site_label
 _atom_site_symmetry_multiplicity
 _atom_site_fract_x
 _atom_site_fract_y
 _atom_site_fract_z
 _atom_site_occupancy
  Mg  Mg0  1  0.49999900  0.49999900  -0.00000000  1
  As  As0  1  0.00000000  0.00000000  0.50000000  1
  Pt  Pt0  1  0.00000000  0.00000000  -0.00000000  1
  Pt  Pt1  1  0.49999900  0.00000000  0.27909500  1
  Pt  Pt2  1  -0.00000000  0.49999900  0.27909500  1
  Pt  Pt3  1  0.49999900  0.00000000  0.72090500  1
  Pt  Pt4  1  0.00000000  0.49999900  0.72090500  1
loop_
_geom_bond_atom_site_label_1
_geom_bond_atom_site_label_2
_geom_bond_distance
_geom_bond_site_symmetry_2
Mg0 Pt0 2.793002 1_555
Mg0 Pt0 2.793008 1_655
Mg0 Pt0 2.793008 1_565
Mg0 Pt0 2.793013 1_665
Mg0 Pt4 2.803115 1_554
Mg0 Pt1 2.803115 1_555
Mg0 Pt2 2.803115 1_555
Mg0 Pt3 2.803115 1_554
Mg0 Pt3 2.803120 1_564
Mg0 Pt1 2.803120 1_565
Mg0 Pt4 2.803120 1_654
Mg0 Pt2 2.803120 1_655
As0 Pt1 2.525752 1_555
As0 Pt2 2.525752 1_555
As0 Pt4 2.525752 1_555
As0 Pt3 2.525752 1_555
As0 Pt1 2.525758 1_455
As0 Pt2 2.525758 1_545
As0 Pt4 2.525758 1_545
As0 Pt3 2.525758 1_455
