# generated using pymatgen
data_Na2Ti4O9
_symmetry_space_group_name_H-M   'P 1'
_cell_length_a   8.87144900
_cell_length_b   11.13426553
_cell_length_c   11.75543726
_cell_angle_alpha   75.93888997
_cell_angle_beta   82.64717850
_cell_angle_gamma   74.58792787
_symmetry_Int_Tables_number   1
_chemical_formula_structural   Na2Ti4O9
_chemical_formula_sum   'Na12 Ti24 O54'
_cell_volume   1083.37136867
_cell_formula_units_Z   6
loop_
 _symmetry_equiv_pos_site_id
 _symmetry_equiv_pos_as_xyz
  1  'x, y, z'
loop_
 _atom_site_type_symbol
 _atom_site_label
 _atom_site_symmetry_multiplicity
 _atom_site_fract_x
 _atom_site_fract_y
 _atom_site_fract_z
 _atom_site_occupancy
  Na  Na0  1  0.94905700  0.29712200  0.85290500  1
  Na  Na1  1  0.56904800  0.30603300  0.85878900  1
  Na  Na2  1  0.84406100  0.60421900  0.72380100  1
  Na  Na3  1  0.51209300  0.60302800  0.72656300  1
  Na  Na4  1  0.18085600  0.59467300  0.72544100  1
  Na  Na5  1  0.52162100  0.09996600  0.71346900  1
  Na  Na6  1  0.16219200  0.90011600  0.28517800  1
  Na  Na7  1  0.82195800  0.39803000  0.27694100  1
  Na  Na8  1  0.48506200  0.40574000  0.27503000  1
  Na  Na9  1  0.15487000  0.39770300  0.27290200  1
  Na  Na10  1  0.71065700  0.70699400  0.14798500  1
  Na  Na11  1  0.09514600  0.69493500  0.14182700  1
  Ti  Ti0  1  0.91703100  0.81346900  0.87548200  1
  Ti  Ti1  1  0.58366200  0.81029300  0.87660400  1
  Ti  Ti2  1  0.17241500  0.49132000  0.99059000  1
  Ti  Ti3  1  0.99978200  0.00426800  0.99660900  1
  Ti  Ti4  1  0.24867400  0.81203900  0.87571500  1
  Ti  Ti5  1  0.94480800  0.88208700  0.57004100  1
  Ti  Ti6  1  0.61557200  0.87395400  0.56245300  1
  Ti  Ti7  1  0.27754200  0.88222000  0.57031800  1
  Ti  Ti8  1  0.78107700  0.37476900  0.55855200  1
  Ti  Ti9  1  0.44835400  0.37606600  0.55365700  1
  Ti  Ti10  1  0.88612100  0.62374500  0.44309100  1
  Ti  Ti11  1  0.11784400  0.37122300  0.55920000  1
  Ti  Ti12  1  0.54938800  0.62646500  0.44193300  1
  Ti  Ti13  1  0.21820600  0.62269200  0.44730800  1
  Ti  Ti14  1  0.72203600  0.11812100  0.42957000  1
  Ti  Ti15  1  0.38930100  0.11731900  0.42967800  1
  Ti  Ti16  1  0.05106400  0.12566600  0.43674000  1
  Ti  Ti17  1  0.66763200  0.99688400  0.00293200  1
  Ti  Ti18  1  0.33318700  0.00117700  0.99862100  1
  Ti  Ti19  1  0.74936700  0.18757900  0.12455900  1
  Ti  Ti20  1  0.41803600  0.18728300  0.12400600  1
  Ti  Ti21  1  0.83389200  0.50129100  0.00052100  1
  Ti  Ti22  1  0.49651400  0.50865900  0.00900300  1
  Ti  Ti23  1  0.08206300  0.19112600  0.12308200  1
  O  O0  1  0.77740200  0.69590400  0.94066800  1
  O  O1  1  0.44462700  0.69549700  0.93900400  1
  O  O2  1  0.71010000  0.94077100  0.84957200  1
  O  O3  1  0.11236600  0.69501200  0.93802500  1
  O  O4  1  0.38006500  0.93985200  0.85044000  1
  O  O5  1  0.04556400  0.93807800  0.85140300  1
  O  O6  1  0.68935800  0.48474500  0.89359700  1
  O  O7  1  0.79950400  0.12618700  0.95570500  1
  O  O8  1  0.35705100  0.48917300  0.89045600  1
  O  O9  1  0.46855200  0.12276400  0.95376100  1
  O  O10  1  0.02023400  0.48751500  0.88841900  1
  O  O11  1  0.95258400  0.78107200  0.72654100  1
  O  O12  1  0.13104600  0.12381200  0.95588800  1
  O  O13  1  0.61798200  0.78400500  0.72563900  1
  O  O14  1  0.28462700  0.78058000  0.72665100  1
  O  O15  1  0.73609200  0.99057700  0.59161000  1
  O  O16  1  0.40691300  0.99015600  0.59151200  1
  O  O17  1  0.07083600  0.99146400  0.59340100  1
  O  O18  1  0.94767800  0.32526500  0.65687000  1
  O  O19  1  0.61487700  0.31889200  0.65720100  1
  O  O20  1  0.82273000  0.77747200  0.51824600  1
  O  O21  1  0.72022700  0.55249000  0.56989500  1
  O  O22  1  0.28784900  0.31725600  0.65389600  1
  O  O23  1  0.48705000  0.77771800  0.51818600  1
  O  O24  1  0.38641300  0.55268400  0.57040900  1
  O  O25  1  0.15331100  0.78307900  0.51384800  1
  O  O26  1  0.05592800  0.55151900  0.57024900  1
  O  O27  1  0.94715200  0.44596300  0.43200000  1
  O  O28  1  0.84480200  0.22214800  0.48189900  1
  O  O29  1  0.61146900  0.44679600  0.43109800  1
  O  O30  1  0.51400800  0.21652200  0.48593300  1
  O  O31  1  0.71983400  0.67203500  0.34437700  1
  O  O32  1  0.28049100  0.44601600  0.43054700  1
  O  O33  1  0.18062100  0.22116400  0.48195900  1
  O  O34  1  0.37990400  0.68052400  0.34669600  1
  O  O35  1  0.05215900  0.67910100  0.34406500  1
  O  O36  1  0.93150400  0.00970000  0.40782300  1
  O  O37  1  0.59695300  0.00837000  0.40616800  1
  O  O38  1  0.26073000  0.00915000  0.40778900  1
  O  O39  1  0.71416400  0.21996300  0.27340800  1
  O  O40  1  0.38203400  0.21835800  0.27315800  1
  O  O41  1  0.04873900  0.21721800  0.27399200  1
  O  O42  1  0.86631600  0.87468700  0.04381000  1
  O  O43  1  0.97578500  0.51563000  0.10702300  1
  O  O44  1  0.53463900  0.87777600  0.04265500  1
  O  O45  1  0.64491300  0.51386800  0.11192500  1
  O  O46  1  0.19772700  0.87864800  0.04584400  1
  O  O47  1  0.30869000  0.51131700  0.10865700  1
  O  O48  1  0.95672700  0.06046300  0.14969800  1
  O  O49  1  0.62127200  0.06198200  0.14851400  1
  O  O50  1  0.88849800  0.30516900  0.05946200  1
  O  O51  1  0.28637900  0.06054000  0.14838400  1
  O  O52  1  0.55398000  0.30535600  0.06213500  1
  O  O53  1  0.22215800  0.30489300  0.06031200  1
loop_
_geom_bond_atom_site_label_1
_geom_bond_atom_site_label_2
_geom_bond_distance
_geom_bond_site_symmetry_2
Na0 O18 2.250166 1_555
Na0 O12 2.346290 1_655
Na0 O50 2.436983 1_556
Na0 O10 2.505181 1_655
Na0 O7 2.580140 1_555
Na0 O6 2.747038 1_555
Na1 O19 2.328305 1_555
Na1 O52 2.375296 1_556
Na1 O9 2.410478 1_555
Na1 O8 2.446425 1_555
Na1 O7 2.607549 1_555
Na1 O6 2.627218 1_555
Na2 O11 2.419051 1_555
Na2 O13 2.430263 1_555
Na2 O21 2.482611 1_555
Na2 O26 2.489060 1_655
Na2 O10 2.519688 1_655
Na2 O6 2.572216 1_555
Na2 O20 2.693320 1_555
Na2 O0 2.906706 1_555
Na3 O14 2.420822 1_555
Na3 O13 2.436360 1_555
Na3 O21 2.489735 1_555
Na3 O8 2.504501 1_555
Na3 O24 2.506600 1_555
Na3 O6 2.548738 1_555
Na3 O23 2.725324 1_555
Na3 O1 2.862552 1_555
Na4 O24 2.444513 1_555
Na4 O26 2.452334 1_555
Na4 O14 2.482511 1_555
Na4 O11 2.486155 1_455
Na4 O10 2.493745 1_555
Na4 O8 2.505792 1_555
Na5 O15 2.464566 1_545
Na5 O2 2.495784 1_545
Na5 O16 2.544072 1_545
Na5 O4 2.573992 1_545
Na5 O30 2.675100 1_555
Na5 O19 2.685540 1_555
Na5 O22 2.743422 1_555
Na5 O9 2.865262 1_555
Na6 O38 2.460148 1_565
Na6 O51 2.487368 1_565
Na6 O36 2.554996 1_465
Na6 O48 2.584205 1_465
Na6 O34 2.686952 1_555
Na6 O25 2.688593 1_555
Na6 O35 2.786374 1_555
Na6 O46 2.851644 1_555
Na7 O39 2.430025 1_555
Na7 O41 2.442354 1_655
Na7 O29 2.477670 1_555
Na7 O27 2.479290 1_555
Na7 O45 2.526022 1_555
Na7 O43 2.558874 1_555
Na7 O28 2.702312 1_555
Na7 O50 2.920143 1_555
Na8 O32 2.439983 1_555
Na8 O29 2.457451 1_555
Na8 O39 2.486887 1_555
Na8 O45 2.495319 1_555
Na8 O40 2.495963 1_555
Na8 O47 2.518663 1_555
Na9 O40 2.430744 1_555
Na9 O41 2.432096 1_555
Na9 O47 2.499321 1_555
Na9 O27 2.502453 1_455
Na9 O32 2.509443 1_555
Na9 O43 2.547672 1_455
Na9 O33 2.741027 1_555
Na9 O53 2.866145 1_555
Na10 O31 2.254489 1_555
Na10 O44 2.315153 1_555
Na10 O0 2.458317 1_554
Na10 O45 2.513272 1_555
Na10 O42 2.592178 1_555
Na10 O43 2.801586 1_555
Na11 O35 2.329922 1_555
Na11 O3 2.380861 1_554
Na11 O46 2.427037 1_555
Na11 O47 2.461790 1_555
Na11 O42 2.602498 1_455
Na11 O43 2.627896 1_455
O0 Ti1 1.960901 1_555
O0 Ti0 1.991624 1_555
O0 Ti21 2.052748 1_556
O1 Ti1 1.960604 1_555
O1 Ti4 1.980471 1_555
O1 Ti22 1.993200 1_556
O2 Ti1 2.005071 1_555
O2 Ti0 2.005545 1_555
O2 Ti17 2.007679 1_556
O3 Ti4 1.960524 1_555
O3 Ti0 1.980700 1_455
O3 Ti2 2.137844 1_555
O4 Ti18 1.978662 1_565
O4 Ti1 1.994896 1_555
O4 Ti4 2.014889 1_555
O5 Ti0 1.967931 1_455
O5 Ti4 1.972495 1_555
O5 Ti3 1.973964 1_465
O6 Ti21 1.977002 1_556
O6 Ti22 2.043914 1_556
O7 Ti3 1.962231 1_555
O7 Ti17 2.022424 1_546
O7 Ti19 2.208356 1_556
O8 Ti2 1.889056 1_555
O8 Ti22 2.061744 1_556
O9 Ti18 1.976881 1_555
O9 Ti17 1.992406 1_546
O9 Ti20 2.240541 1_556
O10 Ti2 1.933183 1_555
O10 Ti21 1.974539 1_456
O11 Ti0 1.843962 1_555
O11 Ti5 1.907920 1_555
O12 Ti3 1.930914 1_455
O12 Ti18 1.982032 1_555
O12 Ti23 2.222069 1_556
O13 Ti1 1.842423 1_555
O13 Ti6 1.936238 1_555
O14 Ti4 1.841421 1_555
O14 Ti7 1.908719 1_555
O15 Ti5 1.947241 1_555
O15 Ti6 1.998693 1_555
O15 Ti14 2.076764 1_565
O16 Ti7 1.943041 1_555
O16 Ti6 1.999297 1_555
O16 Ti15 2.073156 1_565
O17 Ti7 1.939935 1_555
O17 Ti5 1.942515 1_455
O17 Ti16 2.064293 1_565
O18 Ti8 1.875835 1_555
O18 Ti11 1.881625 1_655
O19 Ti8 1.898734 1_555
O19 Ti9 1.911318 1_555
O20 Ti6 1.943971 1_555
O20 Ti5 2.020973 1_555
O20 Ti10 2.030394 1_555
O21 Ti8 1.940832 1_555
O21 Ti10 2.121752 1_555
O21 Ti12 2.134521 1_555
O22 Ti11 1.870271 1_555
O22 Ti9 1.880426 1_555
O23 Ti6 1.947079 1_555
O23 Ti12 2.014232 1_555
O23 Ti7 2.022234 1_555
O24 Ti9 1.947824 1_555
O24 Ti13 2.077223 1_555
O24 Ti12 2.125033 1_555
O25 Ti5 2.007574 1_455
O25 Ti7 2.015884 1_555
O25 Ti13 2.037002 1_555
O26 Ti11 1.967445 1_555
O26 Ti13 2.075226 1_555
O26 Ti10 2.121043 1_455
O27 Ti10 1.940654 1_555
O27 Ti8 2.121072 1_555
O27 Ti11 2.127581 1_655
O28 Ti16 1.941088 1_655
O28 Ti14 2.023450 1_555
O28 Ti8 2.030345 1_555
O29 Ti12 1.960032 1_555
O29 Ti9 2.076218 1_555
O29 Ti8 2.122218 1_555
O30 Ti14 2.002582 1_555
O30 Ti15 2.018177 1_555
O30 Ti9 2.036478 1_555
O31 Ti10 1.877583 1_555
O31 Ti12 1.881561 1_555
O32 Ti13 1.948481 1_555
O32 Ti9 2.075128 1_555
O32 Ti11 2.128592 1_555
O33 Ti16 1.953151 1_555
O33 Ti11 2.009813 1_555
O33 Ti15 2.014504 1_555
O34 Ti12 1.870508 1_555
O34 Ti13 1.886241 1_555
O35 Ti10 1.897300 1_455
O35 Ti13 1.906009 1_555
O36 Ti14 1.952406 1_555
O36 Ti16 1.985261 1_655
O36 Ti5 2.078733 1_545
O37 Ti14 1.939729 1_555
O37 Ti15 1.945851 1_555
O37 Ti6 2.062202 1_545
O38 Ti15 1.942579 1_555
O38 Ti16 2.007122 1_555
O38 Ti7 2.078176 1_545
O39 Ti19 1.842863 1_555
O39 Ti14 1.907855 1_555
O40 Ti20 1.840830 1_555
O40 Ti15 1.908199 1_555
O41 Ti23 1.841049 1_555
O41 Ti16 1.936763 1_555
O42 Ti17 1.952773 1_555
O42 Ti3 2.035265 1_564
O42 Ti0 2.201604 1_554
O43 Ti21 1.945466 1_555
O43 Ti2 2.075453 1_654
O44 Ti17 1.938700 1_555
O44 Ti18 1.983881 1_564
O44 Ti1 2.210366 1_554
O45 Ti22 1.919062 1_555
O45 Ti21 1.986890 1_555
O46 Ti3 1.984020 1_464
O46 Ti18 1.986506 1_564
O46 Ti4 2.250616 1_554
O47 Ti22 1.908061 1_555
O47 Ti2 2.039660 1_554
O48 Ti23 2.000093 1_655
O48 Ti3 2.005048 1_554
O48 Ti19 2.006644 1_555
O49 Ti20 1.969989 1_555
O49 Ti17 1.971668 1_545
O49 Ti19 1.974257 1_555
O50 Ti23 1.956724 1_655
O50 Ti19 1.988375 1_555
O50 Ti21 2.066795 1_555
O51 Ti18 1.985245 1_554
O51 Ti23 2.003753 1_555
O51 Ti20 2.007903 1_555
O52 Ti20 1.966059 1_555
O52 Ti19 1.978008 1_555
O52 Ti22 2.134280 1_555
O53 Ti23 1.959994 1_555
O53 Ti20 1.985498 1_555
O53 Ti2 1.988510 1_554
