# generated using pymatgen
data_Li3V2P4(HO8)2
_symmetry_space_group_name_H-M   'P 1'
_cell_length_a   9.43296655
_cell_length_b   9.43360901
_cell_length_c   7.87551410
_cell_angle_alpha   79.00815556
_cell_angle_beta   78.82942166
_cell_angle_gamma   117.80309370
_symmetry_Int_Tables_number   1
_chemical_formula_structural   Li3V2P4(HO8)2
_chemical_formula_sum   'Li6 V4 P8 H4 O32'
_cell_volume   575.39392691
_cell_formula_units_Z   2
loop_
 _symmetry_equiv_pos_site_id
 _symmetry_equiv_pos_as_xyz
  1  'x, y, z'
loop_
 _atom_site_type_symbol
 _atom_site_label
 _atom_site_symmetry_multiplicity
 _atom_site_fract_x
 _atom_site_fract_y
 _atom_site_fract_z
 _atom_site_occupancy
  Li  Li0  1  0.46279900  0.09380300  0.35324300  1
  Li  Li1  1  0.04627300  0.41319600  0.65374800  1
  Li  Li2  1  0.33662000  0.20784900  0.85205700  1
  Li  Li3  1  0.65662900  0.79162400  0.15555200  1
  Li  Li4  1  0.95651500  0.59311200  0.34541300  1
  Li  Li5  1  0.83843300  0.70267300  0.84405800  1
  V  V0  1  0.25202900  0.25442600  0.48819900  1
  V  V1  1  0.50070300  0.99986600  0.99735500  1
  V  V2  1  0.99918500  0.49356800  0.00381400  1
  V  V3  1  0.74595800  0.75194500  0.50067200  1
  P  P0  1  0.25925100  0.60672800  0.26931800  1
  P  P1  1  0.75744200  0.10888000  0.26542800  1
  P  P2  1  0.64505300  0.49508800  0.22969500  1
  P  P3  1  0.14352700  0.99226300  0.23304100  1
  P  P4  1  0.35660000  0.50860000  0.76022000  1
  P  P5  1  0.85637600  0.01395900  0.76437900  1
  P  P6  1  0.74043700  0.39277000  0.73355000  1
  P  P7  1  0.23970300  0.89445400  0.73972500  1
  H  H0  1  0.74679600  0.25280800  0.49716600  1
  H  H1  1  0.25813400  0.76485500  0.51690700  1
  H  H2  1  0.48135500  0.49015400  0.98235200  1
  H  H3  1  0.98843300  0.99900300  0.99307200  1
  O  O0  1  0.12318000  0.06159800  0.05468600  1
  O  O1  1  0.16524500  0.11300700  0.35472600  1
  O  O2  1  0.01420600  0.18989700  0.64502400  1
  O  O3  1  0.23954500  0.06027300  0.68751400  1
  O  O4  1  0.62555600  0.08176300  0.15374700  1
  O  O5  1  0.13283400  0.58244200  0.16443000  1
  O  O6  1  0.27857800  0.45052500  0.31870300  1
  O  O7  1  0.48603900  0.31496400  0.34989300  1
  O  O8  1  0.68028200  0.13754100  0.43689700  1
  O  O9  1  0.18611200  0.62971700  0.44764700  1
  O  O10  1  0.33069400  0.37674400  0.65239900  1
  O  O11  1  0.19456700  0.51285500  0.80800300  1
  O  O12  1  0.69795700  0.02631500  0.82132000  1
  O  O13  1  0.62438400  0.56773700  0.05089100  1
  O  O14  1  0.93046800  0.25997400  0.14057100  1
  O  O15  1  0.43684700  0.76471100  0.14510800  1
  O  O16  1  0.56111600  0.23523400  0.85132900  1
  O  O17  1  0.06350800  0.73742600  0.85161500  1
  O  O18  1  0.37863700  0.42556300  0.93714500  1
  O  O19  1  0.80704300  0.48726600  0.19083400  1
  O  O20  1  0.30950000  0.98834500  0.19095900  1
  O  O21  1  0.66091200  0.61796200  0.33968200  1
  O  O22  1  0.81319200  0.37077700  0.55202800  1
  O  O23  1  0.31502100  0.87590700  0.55658800  1
  O  O24  1  0.51151800  0.68134500  0.64410300  1
  O  O25  1  0.73679900  0.55642200  0.68789800  1
  O  O26  1  0.86619400  0.41049200  0.83852300  1
  O  O27  1  0.35982600  0.91438500  0.85785000  1
  O  O28  1  0.76014400  0.94510900  0.30942300  1
  O  O29  1  0.98808500  0.81631700  0.35367000  1
  O  O30  1  0.83359400  0.88409100  0.66516100  1
  O  O31  1  0.87950300  0.93866000  0.94653200  1
loop_
_geom_bond_atom_site_label_1
_geom_bond_atom_site_label_2
_geom_bond_distance
_geom_bond_site_symmetry_2
Li0 O23 1.984887 1_545
Li0 O7 1.987887 1_555
Li0 O4 2.033363 1_555
Li0 O20 2.138507 1_545
Li0 O8 2.156543 1_555
Li1 O9 1.984788 1_555
Li1 O26 1.997853 1_455
Li1 O2 2.000613 1_555
Li1 O11 2.045392 1_555
Li1 O22 2.370626 1_455
Li2 O0 1.956518 1_556
Li2 O16 2.008893 1_555
Li2 O10 2.043512 1_555
Li2 O3 2.101050 1_555
Li2 O18 2.166268 1_555
Li3 O15 1.988059 1_555
Li3 O21 1.991703 1_555
Li3 O31 2.030191 1_554
Li3 O28 2.080163 1_555
Li3 O13 2.322594 1_555
Li4 O29 2.000336 1_555
Li4 O22 2.018817 1_555
Li4 O5 2.024929 1_655
Li4 O19 2.069376 1_555
Li4 O9 2.354167 1_655
Li5 O13 1.971762 1_556
Li5 O17 2.006428 1_655
Li5 O30 2.023456 1_555
Li5 O25 2.050636 1_555
Li5 O31 2.399814 1_555
H0 O22 1.206413 1_555
H0 O8 1.215366 1_555
H1 O23 1.071690 1_555
H1 O9 1.408934 1_555
H2 O18 1.049998 1_555
H2 O13 1.469350 1_556
H3 O31 1.092724 1_555
H3 O0 1.359345 1_666
O0 P3 1.519500 1_545
O1 P3 1.591369 1_545
O1 V0 1.845071 1_555
O2 P5 1.553227 1_455
O2 V0 2.072317 1_555
O3 P7 1.540505 1_545
O3 V0 2.112650 1_555
O4 P1 1.612343 1_555
O4 V1 1.891307 1_544
O5 P0 1.534875 1_555
O5 V2 1.982080 1_455
O6 P0 1.554160 1_555
O6 V0 1.939951 1_555
O7 P2 1.578648 1_555
O7 V0 2.010075 1_555
O8 P1 1.538976 1_555
O9 P0 1.541346 1_555
O10 P4 1.589849 1_555
O10 V0 1.922612 1_555
O11 P4 1.522998 1_555
O11 V2 2.070492 1_456
O12 P5 1.539667 1_555
O12 V1 1.970263 1_545
O13 P2 1.534166 1_555
O14 P1 1.528373 1_555
O14 V2 1.981941 1_555
O15 P0 1.569879 1_555
O15 V1 2.033595 1_554
O16 P6 1.565747 1_555
O16 V1 2.041887 1_545
O17 P7 1.539882 1_555
O17 V2 2.112249 1_456
O18 P4 1.564044 1_555
O19 P2 1.538387 1_555
O19 V2 2.071158 1_555
O20 P3 1.555626 1_555
O20 V1 2.068344 1_554
O21 P2 1.545198 1_555
O21 V3 1.976853 1_555
O22 P6 1.556770 1_555
O23 P7 1.559091 1_555
O24 P4 1.523085 1_555
O24 V3 1.995332 1_555
O25 P6 1.535053 1_555
O25 V3 2.085331 1_555
O26 P6 1.538281 1_555
O26 V2 1.996783 1_556
O27 P7 1.568803 1_555
O27 V1 1.878079 1_555
O28 P1 1.530882 1_565
O28 V3 2.062725 1_555
O29 P3 1.547922 1_655
O29 V3 2.083061 1_555
O30 P5 1.530425 1_565
O30 V3 1.996242 1_555
O31 P5 1.577129 1_565
