# generated using pymatgen
data_Tb2IrRh
_symmetry_space_group_name_H-M   'P 1'
_cell_length_a   4.83949696
_cell_length_b   4.83949696
_cell_length_c   4.83949696
_cell_angle_alpha   60.00000000
_cell_angle_beta   60.00000000
_cell_angle_gamma   60.00000000
_symmetry_Int_Tables_number   1
_chemical_formula_structural   Tb2IrRh
_chemical_formula_sum   'Tb2 Ir1 Rh1'
_cell_volume   80.14670404
_cell_formula_units_Z   1
loop_
 _symmetry_equiv_pos_site_id
 _symmetry_equiv_pos_as_xyz
  1  'x, y, z'
loop_
 _atom_site_type_symbol
 _atom_site_label
 _atom_site_symmetry_multiplicity
 _atom_site_fract_x
 _atom_site_fract_y
 _atom_site_fract_z
 _atom_site_occupancy
  Tb  Tb0  1  -0.00000000  -0.00000000  0.00000000  1
  Tb  Tb1  1  0.49999900  0.49999900  0.49999900  1
  Ir  Ir0  1  0.25000000  0.25000000  0.25000000  1
  Rh  Rh0  1  0.75000100  0.75000100  0.75000100  1
loop_
_geom_bond_atom_site_label_1
_geom_bond_atom_site_label_2
_geom_bond_distance
_geom_bond_site_symmetry_2
Ir0 Tb1 2.963563 1_555
Ir0 Tb0 2.963575 1_555
Ir0 Tb0 2.963575 1_556
Ir0 Tb0 2.963575 1_565
Ir0 Tb0 2.963575 1_655
Ir0 Tb1 2.963578 1_455
Ir0 Tb1 2.963578 1_545
Ir0 Tb1 2.963578 1_554
Rh0 Tb0 2.963563 1_666
Rh0 Tb1 2.963567 1_565
Rh0 Tb1 2.963567 1_655
Rh0 Tb1 2.963567 1_556
Rh0 Tb0 2.963578 1_665
Rh0 Tb0 2.963578 1_656
Rh0 Tb0 2.963578 1_566
Rh0 Tb1 2.963598 1_555
