# generated using pymatgen
data_Li5Fe4(P2O7)4
_symmetry_space_group_name_H-M   'P 1'
_cell_length_a   9.78187100
_cell_length_b   9.83334760
_cell_length_c   11.12405407
_cell_angle_alpha   89.94449577
_cell_angle_beta   78.26536576
_cell_angle_gamma   89.83945725
_symmetry_Int_Tables_number   1
_chemical_formula_structural   Li5Fe4(P2O7)4
_chemical_formula_sum   'Li10 Fe8 P16 O56'
_cell_volume   1047.63921365
_cell_formula_units_Z   2
loop_
 _symmetry_equiv_pos_site_id
 _symmetry_equiv_pos_as_xyz
  1  'x, y, z'
loop_
 _atom_site_type_symbol
 _atom_site_label
 _atom_site_symmetry_multiplicity
 _atom_site_fract_x
 _atom_site_fract_y
 _atom_site_fract_z
 _atom_site_occupancy
  Li  Li0  1  0.08763000  0.88906000  0.97496600  1
  Li  Li1  1  0.40974000  0.38900600  0.02501800  1
  Li  Li2  1  0.38713500  0.79370800  0.45360000  1
  Li  Li3  1  0.61000500  0.20316600  0.54021700  1
  Li  Li4  1  0.58996700  0.60374900  0.96755200  1
  Li  Li5  1  0.85727700  0.41021400  0.04532000  1
  Li  Li6  1  0.64429200  0.90846000  0.95207900  1
  Li  Li7  1  0.90921200  0.10571900  0.03187400  1
  Li  Li8  1  0.87430100  0.43847000  0.50928800  1
  Li  Li9  1  0.88513400  0.72034500  0.45540700  1
  Fe  Fe0  1  0.20924100  0.08358300  0.33449300  1
  Fe  Fe1  1  0.24882300  0.79858000  0.17906400  1
  Fe  Fe2  1  0.25130700  0.29354700  0.82282900  1
  Fe  Fe3  1  0.28977400  0.57682200  0.66890500  1
  Fe  Fe4  1  0.70042500  0.42312900  0.32266200  1
  Fe  Fe5  1  0.75385800  0.71549200  0.17415800  1
  Fe  Fe6  1  0.74689200  0.21630300  0.82348800  1
  Fe  Fe7  1  0.79359100  0.92943100  0.67126200  1
  P  P0  1  0.02157100  0.54912300  0.25008900  1
  P  P1  1  0.11953000  0.28900700  0.11756500  1
  P  P2  1  0.05960300  0.07521200  0.76356600  1
  P  P3  1  0.12403700  0.85670400  0.57433400  1
  P  P4  1  0.37528000  0.35491000  0.42764300  1
  P  P5  1  0.43855000  0.57298900  0.23759600  1
  P  P6  1  0.52630600  0.94701600  0.24143400  1
  P  P7  1  0.37974200  0.78832100  0.88316400  1
  P  P8  1  0.61571600  0.20595900  0.11635600  1
  P  P9  1  0.47254500  0.05179000  0.75361900  1
  P  P10  1  0.56113800  0.42407100  0.75710200  1
  P  P11  1  0.62271500  0.64840000  0.57567600  1
  P  P12  1  0.87859400  0.14474600  0.42657400  1
  P  P13  1  0.93765100  0.92450100  0.24293900  1
  P  P14  1  0.88262700  0.70899200  0.88193800  1
  P  P15  1  0.97466100  0.44820400  0.75866000  1
  O  O0  1  0.00316800  0.56772500  0.38649700  1
  O  O1  1  0.03129100  0.15038500  0.43516000  1
  O  O2  1  0.09142200  0.91895400  0.26531100  1
  O  O3  1  0.11070300  0.41247400  0.21457100  1
  O  O4  1  0.10618400  0.65989900  0.16985100  1
  O  O5  1  0.17976800  0.17295300  0.18140400  1
  O  O6  1  0.22272300  0.33812300  0.99859700  1
  O  O7  1  0.02152100  0.73888400  0.90992000  1
  O  O8  1  0.12873400  0.94051200  0.69644900  1
  O  O9  1  0.05758700  0.05801500  0.89840900  1
  O  O10  1  0.13046600  0.46551800  0.77710200  1
  O  O11  1  0.19060900  0.71938700  0.59405600  1
  O  O12  1  0.15516800  0.19534400  0.71385300  1
  O  O13  1  0.21495000  0.92857400  0.46500700  1
  O  O14  1  0.29501400  0.43700900  0.53427200  1
  O  O15  1  0.34654100  0.69553000  0.29262400  1
  O  O16  1  0.31585000  0.21708400  0.40534900  1
  O  O17  1  0.36918800  0.96422300  0.22274700  1
  O  O18  1  0.37044800  0.43868300  0.30316300  1
  O  O19  1  0.43765000  0.56089500  0.10314400  1
  O  O20  1  0.47635900  0.23893500  0.09144600  1
  O  O21  1  0.27433100  0.83443600  0.00263200  1
  O  O22  1  0.32178600  0.67138300  0.81833500  1
  O  O23  1  0.38711000  0.91191200  0.78728900  1
  O  O24  1  0.40747000  0.41533000  0.73552500  1
  O  O25  1  0.39241200  0.15783400  0.84430300  1
  O  O26  1  0.47050100  0.66084300  0.56200700  1
  O  O27  1  0.53440100  0.90087200  0.36749400  1
  O  O28  1  0.47677300  0.08057800  0.62176700  1
  O  O29  1  0.53339200  0.34208600  0.43083900  1
  O  O30  1  0.60821300  0.86215500  0.13426100  1
  O  O31  1  0.58794200  0.58191800  0.26742500  1
  O  O32  1  0.59749100  0.09624600  0.22653600  1
  O  O33  1  0.69077600  0.32678800  0.16820200  1
  O  O34  1  0.71987000  0.14336900  0.00456400  1
  O  O35  1  0.52170200  0.76631800  0.91084400  1
  O  O36  1  0.56835600  0.42776900  0.89098800  1
  O  O37  1  0.61927700  0.56837800  0.70292500  1
  O  O38  1  0.62221200  0.02747400  0.78522200  1
  O  O39  1  0.69507000  0.78223300  0.59263100  1
  O  O40  1  0.65572000  0.31240800  0.68873700  1
  O  O41  1  0.71571700  0.56256500  0.47433100  1
  O  O42  1  0.78378700  0.07165500  0.53348300  1
  O  O43  1  0.84925700  0.80639500  0.30591200  1
  O  O44  1  0.81441000  0.28605900  0.40790600  1
  O  O45  1  0.87552000  0.52643100  0.21173100  1
  O  O46  1  0.93125600  0.93200400  0.10923300  1
  O  O47  1  0.87109000  0.06389700  0.30223000  1
  O  O48  1  0.97684100  0.26680500  0.09108300  1
  O  O49  1  0.77748700  0.64611300  0.99365200  1
  O  O50  1  0.80954400  0.82972500  0.82837500  1
  O  O51  1  0.89302100  0.36270100  0.86534700  1
  O  O52  1  0.90235300  0.59804000  0.77315100  1
  O  O53  1  0.91138700  0.08425700  0.73234000  1
  O  O54  1  0.96906300  0.84519400  0.56605600  1
  O  O55  1  0.96480200  0.40382500  0.63327600  1
loop_
_geom_bond_atom_site_label_1
_geom_bond_atom_site_label_2
_geom_bond_distance
_geom_bond_site_symmetry_2
Li0 O7 1.822150 1_555
Li0 O9 1.915249 1_565
Li0 O46 1.953770 1_456
Li0 O21 1.985284 1_556
Li1 O20 1.826681 1_555
Li1 O19 1.946458 1_555
Li1 O36 1.958785 1_554
Li1 O6 1.976731 1_554
Li2 O27 1.883713 1_555
Li2 O26 2.053583 1_555
Li2 O13 2.124283 1_555
Li2 O15 2.142677 1_555
Li2 O11 2.335557 1_555
Li3 O28 1.870917 1_555
Li3 O29 2.066417 1_555
Li3 O40 2.095264 1_555
Li3 O42 2.122201 1_555
Li3 O44 2.374517 1_555
Li4 O35 1.887528 1_555
Li4 O19 1.939264 1_556
Li4 O36 1.960296 1_555
Li4 O49 1.960515 1_555
Li5 O48 1.961429 1_555
Li5 O51 2.016141 1_554
Li5 O33 2.072172 1_555
Li5 O45 2.214557 1_555
Li5 O49 2.547579 1_554
Li6 O35 1.958678 1_555
Li6 O30 2.036464 1_556
Li6 O50 2.048486 1_555
Li6 O38 2.240293 1_565
Li6 O34 2.531999 1_566
Li7 O48 1.888299 1_555
Li7 O9 1.910982 1_654
Li7 O46 1.943077 1_545
Li7 O34 1.970917 1_555
Li8 O55 1.815529 1_555
Li8 O44 2.034251 1_555
Li8 O41 2.068933 1_555
Li8 O0 2.091768 1_655
Li9 O0 1.950771 1_655
Li9 O43 1.959001 1_555
Li9 O54 2.028759 1_555
Li9 O39 2.235653 1_555
Li9 O41 2.251604 1_555
Fe0 O16 1.943229 1_555
Fe0 O1 1.979300 1_555
Fe0 O5 1.987690 1_555
Fe0 O13 2.112474 1_545
Fe0 O17 2.138262 1_545
Fe0 O2 2.216940 1_545
Fe1 O21 1.959205 1_555
Fe1 O4 1.971312 1_555
Fe1 O15 2.004882 1_555
Fe1 O2 2.020719 1_555
Fe1 O17 2.126138 1_555
Fe2 O12 1.938435 1_555
Fe2 O25 1.966294 1_555
Fe2 O6 1.967721 1_555
Fe2 O24 2.028617 1_555
Fe2 O10 2.178841 1_555
Fe3 O11 1.979429 1_555
Fe3 O22 1.985488 1_555
Fe3 O14 2.026858 1_555
Fe3 O10 2.078226 1_555
Fe3 O26 2.091207 1_555
Fe3 O24 2.175076 1_555
Fe4 O33 1.981993 1_555
Fe4 O29 1.989591 1_555
Fe4 O31 2.071178 1_555
Fe4 O44 2.092433 1_555
Fe4 O45 2.153085 1_555
Fe4 O41 2.203905 1_555
Fe5 O49 2.088958 1_554
Fe5 O43 2.093200 1_555
Fe5 O30 2.133315 1_555
Fe5 O31 2.181758 1_555
Fe5 O45 2.288159 1_555
Fe6 O34 2.103168 1_556
Fe6 O40 2.114637 1_555
Fe6 O51 2.148491 1_555
Fe6 O53 2.151829 1_555
Fe6 O38 2.311235 1_555
Fe7 O39 2.035217 1_555
Fe7 O50 2.036407 1_555
Fe7 O54 2.044206 1_555
Fe7 O42 2.090224 1_565
Fe7 O53 2.106539 1_565
Fe7 O38 2.115596 1_565
O0 P0 1.502545 1_555
O1 P12 1.517145 1_455
O2 P13 1.574551 1_455
O3 P0 1.605053 1_555
O3 P1 1.615546 1_555
O4 P0 1.539796 1_555
O5 P1 1.522734 1_555
O6 P1 1.568985 1_556
O7 P14 1.484466 1_455
O8 P3 1.598227 1_555
O8 P2 1.600215 1_565
O9 P2 1.505484 1_555
O10 P15 1.588252 1_455
O11 P3 1.532342 1_555
O12 P2 1.539414 1_555
O13 P3 1.526856 1_555
O14 P4 1.514807 1_555
O15 P5 1.551772 1_555
O16 P4 1.516568 1_555
O17 P6 1.600736 1_555
O18 P5 1.589143 1_555
O18 P4 1.619407 1_555
O19 P5 1.502298 1_555
O20 P8 1.480259 1_555
O21 P7 1.573578 1_554
O22 P7 1.528162 1_555
O23 P7 1.608215 1_555
O23 P9 1.615160 1_565
O24 P10 1.572263 1_555
O25 P9 1.547654 1_555
O26 P11 1.531685 1_555
O27 P6 1.490749 1_555
O28 P9 1.485842 1_555
O29 P4 1.559006 1_555
O30 P6 1.539236 1_555
O31 P5 1.565669 1_555
O32 P8 1.614789 1_555
O32 P6 1.619876 1_545
O33 P8 1.569040 1_555
O34 P8 1.563938 1_555
O35 P7 1.497344 1_555
O36 P10 1.505782 1_555
O37 P10 1.601159 1_555
O37 P11 1.613275 1_555
O38 P9 1.591023 1_555
O39 P11 1.525920 1_555
O40 P10 1.532876 1_555
O41 P11 1.546400 1_555
O42 P12 1.531153 1_555
O43 P13 1.531283 1_555
O44 P12 1.554292 1_555
O45 P0 1.588345 1_655
O46 P13 1.503057 1_555
O47 P13 1.599971 1_545
O47 P12 1.610734 1_555
O48 P1 1.500562 1_655
O49 P14 1.570537 1_555
O50 P14 1.562911 1_555
O51 P15 1.539304 1_555
O52 P14 1.611969 1_555
O52 P15 1.626465 1_555
O53 P2 1.560334 1_655
O54 P3 1.541789 1_655
O55 P15 1.483670 1_555
