# generated using pymatgen
data_LiMn3(BO3)3
_symmetry_space_group_name_H-M   'P 1'
_cell_length_a   5.32151600
_cell_length_b   5.94814235
_cell_length_c   12.00627166
_cell_angle_alpha   83.93965963
_cell_angle_beta   79.76840131
_cell_angle_gamma   86.83194517
_symmetry_Int_Tables_number   1
_chemical_formula_structural   LiMn3(BO3)3
_chemical_formula_sum   'Li2 Mn6 B6 O18'
_cell_volume   371.64363099
_cell_formula_units_Z   2
loop_
 _symmetry_equiv_pos_site_id
 _symmetry_equiv_pos_as_xyz
  1  'x, y, z'
loop_
 _atom_site_type_symbol
 _atom_site_label
 _atom_site_symmetry_multiplicity
 _atom_site_fract_x
 _atom_site_fract_y
 _atom_site_fract_z
 _atom_site_occupancy
  Li  Li0  1  0.03947500  0.41150700  0.09397700  1
  Li  Li1  1  0.70251300  0.08973700  0.76064100  1
  Mn  Mn0  1  0.61673200  0.24691200  0.98870900  1
  Mn  Mn1  1  0.95089400  0.59631200  0.32882600  1
  Mn  Mn2  1  0.28204500  0.90472200  0.65110500  1
  Mn  Mn3  1  0.71386500  0.09904600  0.34868300  1
  Mn  Mn4  1  0.06824000  0.42077200  0.67060400  1
  Mn  Mn5  1  0.39537000  0.75936600  0.00798300  1
  B  B0  1  0.84492200  0.85762300  0.11712400  1
  B  B1  1  0.47608800  0.46027300  0.22102000  1
  B  B2  1  0.81557900  0.82780200  0.55705700  1
  B  B3  1  0.18785800  0.18993900  0.44288200  1
  B  B4  1  0.51815600  0.52279700  0.77956800  1
  B  B5  1  0.15376500  0.14069100  0.88439700  1
  O  O0  1  0.62028400  0.96305600  0.08620300  1
  O  O1  1  0.00578600  0.73214600  0.04635500  1
  O  O2  1  0.41566000  0.43363600  0.11574700  1
  O  O3  1  0.87954500  0.87155900  0.22950200  1
  O  O4  1  0.31822900  0.57454900  0.29976600  1
  O  O5  1  0.72536300  0.38512200  0.24231200  1
  O  O6  1  0.05146300  0.74156400  0.57722300  1
  O  O7  1  0.76044700  0.81830300  0.44783600  1
  O  O8  1  0.64908100  0.92559400  0.64029900  1
  O  O9  1  0.35413000  0.09805400  0.35872100  1
  O  O10  1  0.22819600  0.18550400  0.55407400  1
  O  O11  1  0.95319500  0.28834800  0.41774300  1
  O  O12  1  0.29059900  0.62872100  0.75160200  1
  O  O13  1  0.67824000  0.40732700  0.70426400  1
  O  O14  1  0.07771700  0.10741400  0.78304800  1
  O  O15  1  0.55473900  0.52675500  0.89250700  1
  O  O16  1  0.99633400  0.24273900  0.97019900  1
  O  O17  1  0.40636400  0.07342800  0.89837100  1
loop_
_geom_bond_atom_site_label_1
_geom_bond_atom_site_label_2
_geom_bond_distance
_geom_bond_site_symmetry_2
Li0 O16 1.931487 1_454
Li0 O1 1.940324 1_555
Li0 O2 2.077359 1_555
Li0 O5 2.214250 1_455
Li1 O8 1.896370 1_545
Li1 O13 1.943588 1_555
Li1 O17 2.069964 1_555
Li1 O14 2.071246 1_655
Mn0 O0 1.951484 1_546
Mn0 O15 1.970367 1_555
Mn0 O16 1.991677 1_555
Mn0 O17 2.071191 1_555
Mn0 O2 2.086010 1_556
Mn1 O4 1.923259 1_655
Mn1 O3 1.981562 1_555
Mn1 O11 2.021045 1_555
Mn1 O7 2.132685 1_555
Mn1 O5 2.232118 1_555
Mn2 O12 1.935482 1_555
Mn2 O8 1.944368 1_555
Mn2 O10 1.970660 1_565
Mn2 O6 1.983535 1_555
Mn2 O14 2.189026 1_565
Mn3 O9 1.896939 1_555
Mn3 O7 1.976493 1_545
Mn3 O5 2.013745 1_555
Mn3 O11 2.075622 1_555
Mn3 O3 2.117688 1_545
Mn4 O13 2.047077 1_455
Mn4 O6 2.114447 1_555
Mn4 O10 2.121090 1_555
Mn4 O12 2.168042 1_555
Mn4 O14 2.186715 1_555
Mn5 O1 2.053915 1_555
Mn5 O15 2.100821 1_554
Mn5 O0 2.140623 1_555
Mn5 O17 2.165808 1_564
Mn5 O2 2.221878 1_555
B0 O1 1.347843 1_655
B0 O3 1.405307 1_555
B0 O0 1.409173 1_555
B1 O4 1.360888 1_555
B1 O2 1.385046 1_555
B1 O5 1.433745 1_555
B2 O8 1.368738 1_555
B2 O6 1.381304 1_655
B2 O7 1.401080 1_555
B3 O9 1.359478 1_555
B3 O10 1.386631 1_555
B3 O11 1.417372 1_455
B4 O13 1.344513 1_555
B4 O15 1.406468 1_555
B4 O12 1.411222 1_555
B5 O16 1.378683 1_455
B5 O14 1.385014 1_555
B5 O17 1.414787 1_555
