# generated using pymatgen
data_Na6U(SO5)4
_symmetry_space_group_name_H-M   'P 1'
_cell_length_a   5.61619700
_cell_length_b   11.41531316
_cell_length_c   14.19182661
_cell_angle_alpha   90.73281389
_cell_angle_beta   93.26595183
_cell_angle_gamma   100.25887366
_symmetry_Int_Tables_number   1
_chemical_formula_structural   Na6U(SO5)4
_chemical_formula_sum   'Na12 U2 S8 O40'
_cell_volume   893.60384385
_cell_formula_units_Z   2
loop_
 _symmetry_equiv_pos_site_id
 _symmetry_equiv_pos_as_xyz
  1  'x, y, z'
loop_
 _atom_site_type_symbol
 _atom_site_label
 _atom_site_symmetry_multiplicity
 _atom_site_fract_x
 _atom_site_fract_y
 _atom_site_fract_z
 _atom_site_occupancy
  Na  Na0  1  0.85404400  0.76492400  0.42106300  1
  Na  Na1  1  0.14595600  0.23507600  0.57893700  1
  Na  Na2  1  0.23492000  0.76908600  0.24736100  1
  Na  Na3  1  0.76508000  0.23091400  0.75263900  1
  Na  Na4  1  0.25310300  0.46385900  0.41482600  1
  Na  Na5  1  0.74689700  0.53614100  0.58517400  1
  Na  Na6  1  0.28398600  0.04244400  0.10790400  1
  Na  Na7  1  0.71601400  0.95755600  0.89209600  1
  Na  Na8  1  0.65239900  0.77137100  0.09368400  1
  Na  Na9  1  0.34760100  0.22862900  0.90631600  1
  Na  Na10  1  0.50000000  0.00000000  0.50000000  1
  Na  Na11  1  0.00000000  0.50000000  0.00000000  1
  U  U0  1  0.25949400  0.70952500  0.75726100  1
  U  U1  1  0.74050600  0.29047500  0.24273900  1
  S  S0  1  0.30052000  0.43700200  0.74890900  1
  S  S1  1  0.69948000  0.56299800  0.25109100  1
  S  S2  1  0.31375200  0.71358900  0.50719000  1
  S  S3  1  0.68624800  0.28641100  0.49281000  1
  S  S4  1  0.14946800  0.79073800  0.99521100  1
  S  S5  1  0.85053200  0.20926200  0.00478900  1
  S  S6  1  0.77829500  0.97018200  0.25619700  1
  S  S7  1  0.22170500  0.02981800  0.74380300  1
  O  O0  1  0.96015000  0.64724400  0.70608300  1
  O  O1  1  0.03985000  0.35275600  0.29391700  1
  O  O2  1  0.55675300  0.77610700  0.80702300  1
  O  O3  1  0.44324700  0.22389300  0.19297700  1
  O  O4  1  0.23829100  0.50567000  0.83372200  1
  O  O5  1  0.76170900  0.49433000  0.16627800  1
  O  O6  1  0.40668900  0.53453100  0.68448000  1
  O  O7  1  0.59331100  0.46546900  0.31552000  1
  O  O8  1  0.77021500  0.95021500  0.36013000  1
  O  O9  1  0.22978500  0.04978500  0.63987000  1
  O  O10  1  0.84991600  0.10177200  0.24042100  1
  O  O11  1  0.15008400  0.89822800  0.75957900  1
  O  O12  1  0.37973300  0.76621200  0.60637500  1
  O  O13  1  0.62026700  0.23378800  0.39362500  1
  O  O14  1  0.50877300  0.64916200  0.48066600  1
  O  O15  1  0.49122700  0.35083800  0.51933400  1
  O  O16  1  0.07866100  0.63196800  0.50452500  1
  O  O17  1  0.92133900  0.36803200  0.49547500  1
  O  O18  1  0.10134900  0.71304700  0.90538200  1
  O  O19  1  0.89865100  0.28695300  0.09461800  1
  O  O20  1  0.07788100  0.36629000  0.70294200  1
  O  O21  1  0.92211900  0.63371000  0.29705800  1
  O  O22  1  0.53374800  0.92701700  0.20943400  1
  O  O23  1  0.46625200  0.07298300  0.79056600  1
  O  O24  1  0.29842600  0.81353300  0.44197700  1
  O  O25  1  0.70157400  0.18646700  0.55802300  1
  O  O26  1  0.47567800  0.35994900  0.77600200  1
  O  O27  1  0.52432200  0.64005100  0.22399800  1
  O  O28  1  0.95906200  0.86419900  0.99906900  1
  O  O29  1  0.04093800  0.13580100  0.00093100  1
  O  O30  1  0.13822800  0.70729700  0.07539700  1
  O  O31  1  0.86177200  0.29270300  0.92460300  1
  O  O32  1  0.95873300  0.90821300  0.21457900  1
  O  O33  1  0.04126700  0.09178700  0.78542100  1
  O  O34  1  0.39184300  0.86676500  0.99499100  1
  O  O35  1  0.60815700  0.13323500  0.00500900  1
  O  O36  1  0.84183600  0.90934000  0.56465500  1
  O  O37  1  0.15816400  0.09066000  0.43534500  1
  O  O38  1  0.64244300  0.59728400  0.96932200  1
  O  O39  1  0.35755700  0.40271600  0.03067800  1
loop_
_geom_bond_atom_site_label_1
_geom_bond_atom_site_label_2
_geom_bond_distance
_geom_bond_site_symmetry_2
Na0 O14 2.350461 1_555
Na0 O21 2.387474 1_555
Na0 O8 2.407992 1_555
Na0 O16 2.419829 1_655
Na0 O24 2.458212 1_655
Na0 O36 2.616379 1_555
Na1 O15 2.350461 1_555
Na1 O20 2.387474 1_555
Na1 O9 2.407992 1_555
Na1 O17 2.419829 1_455
Na1 O25 2.458212 1_455
Na1 O37 2.616379 1_555
Na2 O21 2.274601 1_455
Na2 O22 2.325203 1_555
Na2 O27 2.413085 1_555
Na2 O32 2.441079 1_455
Na2 O30 2.533158 1_555
Na2 O24 2.792937 1_555
Na3 O20 2.274601 1_655
Na3 O23 2.325203 1_555
Na3 O26 2.413085 1_555
Na3 O33 2.441079 1_655
Na3 O31 2.533158 1_555
Na3 O25 2.792937 1_555
Na4 O1 2.270780 1_555
Na4 O17 2.351032 1_455
Na4 O7 2.435613 1_555
Na4 O15 2.467859 1_555
Na4 O14 2.474677 1_555
Na4 O16 2.648061 1_555
Na5 O0 2.270780 1_555
Na5 O16 2.351032 1_655
Na5 O6 2.435613 1_555
Na5 O14 2.467859 1_555
Na5 O15 2.474677 1_555
Na5 O17 2.648061 1_555
Na6 O29 2.372156 1_555
Na6 O3 2.387689 1_555
Na6 O35 2.488107 1_555
Na6 O22 2.501310 1_545
Na6 O32 2.711839 1_445
Na6 O34 2.723526 1_544
Na6 O28 2.851617 1_444
Na7 O28 2.372156 1_555
Na7 O2 2.387689 1_555
Na7 O34 2.488107 1_555
Na7 O23 2.501310 1_565
Na7 O33 2.711839 1_665
Na7 O35 2.723526 1_566
Na7 O29 2.851617 1_666
Na8 O28 2.354139 1_554
Na8 O34 2.379498 1_554
Na8 O27 2.454231 1_555
Na8 O22 2.602142 1_555
Na8 O38 2.631869 1_554
Na8 O32 2.642268 1_555
Na8 O30 2.845786 1_555
Na8 O30 2.972169 1_655
Na9 O29 2.354139 1_556
Na9 O35 2.379498 1_556
Na9 O26 2.454231 1_555
Na9 O23 2.602142 1_555
Na9 O39 2.631869 1_556
Na9 O33 2.642268 1_555
Na9 O31 2.845786 1_555
Na9 O31 2.972169 1_455
Na10 O25 2.341186 1_555
Na10 O24 2.341186 1_545
Na10 O36 2.475875 1_545
Na10 O37 2.475875 1_555
Na10 O9 2.681022 1_555
Na10 O8 2.681022 1_545
Na11 O38 2.482421 1_454
Na11 O39 2.482421 1_555
Na11 O30 2.556074 1_555
Na11 O31 2.556074 1_454
Na11 O5 2.774293 1_455
Na11 O4 2.774293 1_554
Na11 O19 2.778357 1_455
Na11 O18 2.778357 1_554
O0 U0 1.811425 1_655
O1 U1 1.811425 1_455
O2 U0 1.806516 1_555
O3 U1 1.806516 1_555
O4 S0 1.518797 1_555
O4 U0 2.566618 1_555
O5 S1 1.518797 1_555
O5 U1 2.566618 1_555
O6 S0 1.510892 1_555
O6 U0 2.524567 1_555
O7 S1 1.510892 1_555
O7 U1 2.524567 1_555
O8 S6 1.497390 1_555
O9 S7 1.497390 1_555
O10 S6 1.507314 1_545
O10 U1 2.343240 1_555
O11 S7 1.507314 1_565
O11 U0 2.343240 1_555
O12 S2 1.522892 1_555
O12 U0 2.346205 1_555
O13 S3 1.522892 1_555
O13 U1 2.346205 1_555
O14 S2 1.486282 1_555
O15 S3 1.486282 1_555
O16 S2 1.472419 1_555
O17 S3 1.472419 1_555
O18 S4 1.526837 1_555
O18 U0 2.330797 1_555
O19 S5 1.526837 1_555
O19 U1 2.330797 1_555
O20 S0 1.474680 1_555
O21 S1 1.474680 1_555
O22 S6 1.488708 1_555
O23 S7 1.488708 1_555
O24 S2 1.489459 1_555
O25 S3 1.489459 1_555
O26 S0 1.470704 1_555
O27 S1 1.470704 1_555
O28 S4 1.474669 1_655
O29 S5 1.474669 1_455
O30 S4 1.490221 1_554
O31 S5 1.490221 1_556
O32 S6 1.479540 1_555
O33 S7 1.479540 1_555
O34 S4 1.478481 1_555
O35 S5 1.478481 1_555
