# generated using pymatgen
data_Yb2AlGe3
_symmetry_space_group_name_H-M   'P 1'
_cell_length_a   4.19648500
_cell_length_b   6.92820000
_cell_length_c   18.32596500
_cell_angle_alpha   90.00000000
_cell_angle_beta   90.00000000
_cell_angle_gamma   90.00000000
_symmetry_Int_Tables_number   1
_chemical_formula_structural   Yb2AlGe3
_chemical_formula_sum   'Yb8 Al4 Ge12'
_cell_volume   532.81070768
_cell_formula_units_Z   4
loop_
 _symmetry_equiv_pos_site_id
 _symmetry_equiv_pos_as_xyz
  1  'x, y, z'
loop_
 _atom_site_type_symbol
 _atom_site_label
 _atom_site_symmetry_multiplicity
 _atom_site_fract_x
 _atom_site_fract_y
 _atom_site_fract_z
 _atom_site_occupancy
  Yb  Yb0  1  0.75000000  0.83447200  0.92011200  1
  Yb  Yb1  1  0.25000000  0.66552800  0.42011200  1
  Yb  Yb2  1  0.75000000  0.33447200  0.57988800  1
  Yb  Yb3  1  0.25000000  0.16552800  0.07988800  1
  Yb  Yb4  1  0.75000000  0.81336000  0.70114000  1
  Yb  Yb5  1  0.25000000  0.68664000  0.20114000  1
  Yb  Yb6  1  0.75000000  0.31336000  0.79886000  1
  Yb  Yb7  1  0.25000000  0.18664000  0.29886000  1
  Al  Al0  1  0.75000000  0.53663300  0.06128300  1
  Al  Al1  1  0.25000000  0.96336700  0.56128300  1
  Al  Al2  1  0.75000000  0.03663300  0.43871700  1
  Al  Al3  1  0.25000000  0.46336700  0.93871700  1
  Ge  Ge0  1  0.75000000  0.75773800  0.53634200  1
  Ge  Ge1  1  0.25000000  0.74226200  0.03634200  1
  Ge  Ge2  1  0.75000000  0.25773800  0.96365800  1
  Ge  Ge3  1  0.25000000  0.24226200  0.46365800  1
  Ge  Ge4  1  0.75000000  0.50354800  0.31579400  1
  Ge  Ge5  1  0.25000000  0.99645200  0.81579400  1
  Ge  Ge6  1  0.75000000  0.00354800  0.18420600  1
  Ge  Ge7  1  0.25000000  0.49645200  0.68420600  1
  Ge  Ge8  1  0.75000000  0.86779100  0.31159300  1
  Ge  Ge9  1  0.25000000  0.63220900  0.81159300  1
  Ge  Ge10  1  0.75000000  0.36779100  0.18840700  1
  Ge  Ge11  1  0.25000000  0.13220900  0.68840700  1
loop_
_geom_bond_atom_site_label_1
_geom_bond_atom_site_label_2
_geom_bond_distance
_geom_bond_site_symmetry_2
Al0 Ge1 2.577039 1_555
Al0 Ge1 2.577039 1_655
Al0 Ge10 2.606861 1_555
Al0 Ge2 2.633312 1_554
Al0 Yb0 3.309236 1_554
Al0 Yb3 3.336072 1_555
Al0 Yb3 3.336072 1_655
Al1 Ge0 2.577039 1_455
Al1 Ge0 2.577039 1_555
Al1 Ge11 2.606861 1_565
Al1 Ge3 2.633312 1_565
Al1 Yb1 3.309236 1_555
Al1 Yb2 3.336072 1_465
Al1 Yb2 3.336072 1_565
Al2 Ge3 2.577039 1_655
Al2 Ge3 2.577039 1_555
Al2 Ge8 2.606861 1_545
Al2 Ge0 2.633312 1_545
Al2 Yb2 3.309236 1_555
Al2 Yb1 3.336072 1_645
Al2 Yb1 3.336072 1_545
Al3 Ge2 2.577039 1_455
Al3 Ge2 2.577039 1_555
Al3 Ge9 2.606861 1_555
Al3 Ge1 2.633312 1_556
Al3 Yb3 3.309236 1_556
Al3 Yb0 3.336072 1_455
Al3 Yb0 3.336072 1_555
Ge0 Yb2 3.039116 1_555
Ge0 Yb4 3.044569 1_555
Ge0 Yb1 3.057411 1_555
Ge0 Yb1 3.057411 1_655
Ge1 Yb3 3.039116 1_565
Ge1 Yb5 3.044569 1_555
Ge1 Yb0 3.057411 1_454
Ge1 Yb0 3.057411 1_554
Ge2 Yb0 3.039116 1_545
Ge2 Yb6 3.044569 1_555
Ge2 Yb3 3.057411 1_656
Ge2 Yb3 3.057411 1_556
Ge3 Yb1 3.039116 1_555
Ge3 Yb7 3.044569 1_555
Ge3 Yb2 3.057411 1_455
Ge3 Yb2 3.057411 1_555
Ge4 Ge8 2.524722 1_555
Ge4 Yb1 3.052331 1_655
Ge4 Yb1 3.052331 1_555
Ge4 Yb7 3.052801 1_555
Ge4 Yb7 3.052801 1_655
Ge4 Yb5 3.229012 1_555
Ge4 Yb5 3.229012 1_655
Ge5 Ge9 2.524722 1_555
Ge5 Yb0 3.052331 1_555
Ge5 Yb0 3.052331 1_455
Ge5 Yb6 3.052801 1_465
Ge5 Yb6 3.052801 1_565
Ge5 Yb4 3.229012 1_455
Ge5 Yb4 3.229012 1_555
Ge6 Ge8 2.516839 1_545
Ge6 Yb3 3.052331 1_555
Ge6 Yb3 3.052331 1_655
Ge6 Yb5 3.052801 1_545
Ge6 Yb5 3.052801 1_645
Ge6 Yb7 3.229012 1_655
Ge6 Yb7 3.229012 1_555
Ge7 Ge9 2.516839 1_555
Ge7 Yb2 3.052331 1_455
Ge7 Yb2 3.052331 1_555
Ge7 Yb4 3.052801 1_455
Ge7 Yb4 3.052801 1_555
Ge7 Yb6 3.229012 1_455
Ge7 Yb6 3.229012 1_555
Ge8 Yb7 3.055646 1_565
Ge8 Yb7 3.055646 1_665
Ge8 Yb5 3.174112 1_555
Ge8 Yb5 3.174112 1_655
Ge8 Yb1 3.212679 1_555
Ge8 Yb1 3.212679 1_655
Ge9 Yb6 3.055646 1_555
Ge9 Yb6 3.055646 1_455
Ge9 Yb4 3.174112 1_455
Ge9 Yb4 3.174112 1_555
Ge9 Yb0 3.212679 1_455
Ge9 Yb0 3.212679 1_555
Ge10 Ge4 2.516839 1_555
Ge10 Ge6 2.524722 1_555
Ge10 Yb5 3.055646 1_555
Ge10 Yb5 3.055646 1_655
Ge10 Yb7 3.174112 1_555
Ge10 Yb7 3.174112 1_655
Ge10 Yb3 3.212679 1_555
Ge10 Yb3 3.212679 1_655
Ge11 Ge5 2.516839 1_545
Ge11 Ge7 2.524722 1_555
Ge11 Yb4 3.055646 1_445
Ge11 Yb4 3.055646 1_545
Ge11 Yb6 3.174112 1_455
Ge11 Yb6 3.174112 1_555
Ge11 Yb2 3.212679 1_455
Ge11 Yb2 3.212679 1_555
