# generated using pymatgen
data_Li4V3P8O29
_symmetry_space_group_name_H-M   'P 1'
_cell_length_a   9.75421610
_cell_length_b   9.75421610
_cell_length_c   14.16685620
_cell_angle_alpha   89.66910254
_cell_angle_beta   89.66910254
_cell_angle_gamma   60.06136467
_symmetry_Int_Tables_number   1
_chemical_formula_structural   Li4V3P8O29
_chemical_formula_sum   'Li8 V6 P16 O58'
_cell_volume   1168.01229752
_cell_formula_units_Z   2
loop_
 _symmetry_equiv_pos_site_id
 _symmetry_equiv_pos_as_xyz
  1  'x, y, z'
loop_
 _atom_site_type_symbol
 _atom_site_label
 _atom_site_symmetry_multiplicity
 _atom_site_fract_x
 _atom_site_fract_y
 _atom_site_fract_z
 _atom_site_occupancy
  Li  Li0  1  0.91032100  0.33043700  0.43885000  1
  Li  Li1  1  0.76560500  0.33206300  0.94173900  1
  Li  Li2  1  0.33043700  0.91032100  0.93885000  1
  Li  Li3  1  0.66850400  0.23103100  0.55713600  1
  Li  Li4  1  0.33206300  0.76560500  0.44173900  1
  Li  Li5  1  0.23103100  0.66850400  0.05713600  1
  Li  Li6  1  0.95191200  0.01034500  0.00426000  1
  Li  Li7  1  0.01034500  0.95191200  0.50426000  1
  V  V0  1  0.56590100  0.43375700  0.75086100  1
  V  V1  1  0.43375700  0.56590100  0.25086100  1
  V  V2  1  0.56671500  0.99619600  0.25045200  1
  V  V3  1  0.43853400  0.00422500  0.74872600  1
  V  V4  1  0.99619600  0.56671500  0.75045200  1
  V  V5  1  0.00422500  0.43853400  0.24872600  1
  P  P0  1  0.91649700  0.78167600  0.16103900  1
  P  P1  1  0.78167600  0.91649700  0.66103900  1
  P  P2  1  0.91464600  0.31256500  0.65332200  1
  P  P3  1  0.66525400  0.66669200  0.86869900  1
  P  P4  1  0.66669200  0.66525400  0.36869900  1
  P  P5  1  0.77694900  0.31551000  0.15911100  1
  P  P6  1  0.68734200  0.22265100  0.33862900  1
  P  P7  1  0.31256500  0.91464600  0.15332200  1
  P  P8  1  0.69518300  0.08343700  0.84638200  1
  P  P9  1  0.31551000  0.77694900  0.65911100  1
  P  P10  1  0.22265100  0.68734200  0.83862900  1
  P  P11  1  0.33205000  0.33593200  0.63208400  1
  P  P12  1  0.33593200  0.33205000  0.13208400  1
  P  P13  1  0.08343700  0.69518300  0.34638200  1
  P  P14  1  0.22051400  0.08302700  0.33716400  1
  P  P15  1  0.08302700  0.22051400  0.83716400  1
  O  O0  1  0.00599600  0.78865800  0.43205300  1
  O  O1  1  0.91451800  0.74206400  0.66569000  1
  O  O2  1  0.78865800  0.00599600  0.93205300  1
  O  O3  1  0.74206400  0.91451800  0.16569000  1
  O  O4  1  0.92314700  0.61902300  0.17150600  1
  O  O5  1  0.81104600  0.66849400  0.82063300  1
  O  O6  1  0.91281600  0.46981500  0.67209800  1
  O  O7  1  0.98990800  0.20606100  0.91692500  1
  O  O8  1  0.91540500  0.34996700  0.17210400  1
  O  O9  1  0.66849400  0.81104600  0.32063300  1
  O  O10  1  0.61902300  0.92314700  0.67150600  1
  O  O11  1  0.81453900  0.51368000  0.32775200  1
  O  O12  1  0.66567800  0.66609200  0.97378700  1
  O  O13  1  0.66609200  0.66567800  0.47378700  1
  O  O14  1  0.67305400  0.51214000  0.82989200  1
  O  O15  1  0.46981500  0.91281600  0.17209800  1
  O  O16  1  0.51368000  0.81453900  0.82775200  1
  O  O17  1  0.74334900  0.33970600  0.66297600  1
  O  O18  1  0.79684800  0.20135400  0.24804600  1
  O  O19  1  0.77334700  0.22046700  0.42746900  1
  O  O20  1  0.79507800  0.23025100  0.06862300  1
  O  O21  1  0.61965500  0.46800300  0.17186400  1
  O  O22  1  0.51214000  0.67305400  0.32989200  1
  O  O23  1  0.65640400  0.25837700  0.83919200  1
  O  O24  1  0.46800300  0.61965500  0.67186400  1
  O  O25  1  0.34996700  0.91540500  0.67210400  1
  O  O26  1  0.80142100  0.99863800  0.75368800  1
  O  O27  1  0.79410500  0.00380200  0.57701400  1
  O  O28  1  0.20606100  0.98990800  0.41692500  1
  O  O29  1  0.65676000  0.08246200  0.33374100  1
  O  O30  1  0.52985300  0.38050000  0.32626400  1
  O  O31  1  0.33970600  0.74334900  0.16297500  1
  O  O32  1  0.48684000  0.32792600  0.66788600  1
  O  O33  1  0.38050000  0.52985300  0.82626400  1
  O  O34  1  0.22046700  0.77334700  0.92746900  1
  O  O35  1  0.23025100  0.79507800  0.56862300  1
  O  O36  1  0.20135400  0.79684800  0.74804600  1
  O  O37  1  0.25837700  0.65640400  0.33919200  1
  O  O38  1  0.47935200  0.18616700  0.18035900  1
  O  O39  1  0.54087100  0.07613700  0.83114000  1
  O  O40  1  0.32792600  0.48684000  0.16788600  1
  O  O41  1  0.32867900  0.32734400  0.02778000  1
  O  O42  1  0.32734400  0.32867900  0.52778000  1
  O  O43  1  0.18616700  0.47935200  0.68035900  1
  O  O44  1  0.38273900  0.07527800  0.32833900  1
  O  O45  1  0.33466800  0.18705500  0.68237400  1
  O  O46  1  0.08246200  0.65676000  0.83374100  1
  O  O47  1  0.99863800  0.80142100  0.25368800  1
  O  O48  1  0.00380200  0.79410500  0.07701400  1
  O  O49  1  0.07613700  0.54087100  0.33114000  1
  O  O50  1  0.18705500  0.33466800  0.18237400  1
  O  O51  1  0.07527800  0.38273900  0.82833900  1
  O  O52  1  0.25837700  0.08476600  0.83916000  1
  O  O53  1  0.23673400  0.98521600  0.06099400  1
  O  O54  1  0.19609100  0.01385400  0.23852300  1
  O  O55  1  0.08476600  0.25837700  0.33916000  1
  O  O56  1  0.98521600  0.23673400  0.56099400  1
  O  O57  1  0.01385400  0.19609100  0.73852300  1
loop_
_geom_bond_atom_site_label_1
_geom_bond_atom_site_label_2
_geom_bond_distance
_geom_bond_site_symmetry_2
Li0 O56 1.921774 1_555
Li0 O55 2.043011 1_655
Li0 O19 2.096833 1_555
Li0 O11 2.205109 1_555
Li1 O7 1.932125 1_555
Li1 O20 2.000111 1_556
Li1 O23 2.134439 1_555
Li1 O14 2.193768 1_555
Li2 O53 1.921774 1_556
Li2 O52 2.043011 1_565
Li2 O34 2.096833 1_555
Li2 O16 2.205109 1_555
Li3 O27 1.944028 1_555
Li3 O19 2.075146 1_555
Li3 O17 2.169879 1_555
Li3 O32 2.192779 1_555
Li4 O28 1.932125 1_555
Li4 O35 2.000111 1_555
Li4 O37 2.134439 1_555
Li4 O22 2.193768 1_555
Li5 O48 1.944028 1_555
Li5 O34 2.075146 1_554
Li5 O31 2.169869 1_555
Li5 O40 2.192779 1_555
Li6 O2 1.915919 1_554
Li6 O20 2.122240 1_555
Li6 O48 2.163970 1_645
Li6 O7 2.446695 1_554
Li7 O0 1.915919 1_555
Li7 O35 2.122240 1_555
Li7 O27 2.163970 1_465
Li7 O28 2.446695 1_555
O0 P13 1.479765 1_555
O1 P1 1.541883 1_555
O1 V4 1.905073 1_555
O2 P8 1.479765 1_555
O3 P0 1.541883 1_555
O3 V2 1.905073 1_555
O4 P0 1.561415 1_555
O4 V5 1.876081 1_655
O5 P3 1.581123 1_555
O5 V4 1.853855 1_555
O6 P2 1.549548 1_555
O6 V4 1.891256 1_555
O7 P15 1.495267 1_655
O8 P5 1.558023 1_555
O8 V5 1.855796 1_655
O9 P4 1.581123 1_555
O9 V2 1.853855 1_555
O10 P1 1.561415 1_555
O10 V3 1.876081 1_565
O11 P4 1.572958 1_555
O11 V5 1.961099 1_655
O12 P3 1.488766 1_555
O13 P4 1.488766 1_555
O14 P3 1.573309 1_555
O14 V0 1.936899 1_555
O15 P7 1.549548 1_555
O15 V2 1.891256 1_555
O16 P3 1.572958 1_555
O16 V3 1.961099 1_565
O17 P2 1.561040 1_555
O17 V0 1.947057 1_555
O18 P6 1.611413 1_555
O18 P5 1.623538 1_555
O19 P6 1.510730 1_555
O20 P5 1.493030 1_555
O21 P5 1.523527 1_555
O21 V1 1.926897 1_555
O22 P4 1.573309 1_555
O22 V1 1.936899 1_555
O23 P8 1.555454 1_555
O23 V0 1.937106 1_555
O24 P9 1.523527 1_555
O24 V0 1.926897 1_555
O25 P9 1.558023 1_555
O25 V3 1.855796 1_565
O26 P1 1.603408 1_555
O26 P8 1.619798 1_565
O27 P1 1.498854 1_545
O28 P14 1.495267 1_565
O29 P6 1.540176 1_555
O29 V2 1.906015 1_545
O30 P6 1.549299 1_555
O30 V1 1.894054 1_555
O31 P7 1.561039 1_555
O31 V1 1.947066 1_555
O32 P11 1.560036 1_555
O32 V0 1.965004 1_555
O33 P10 1.549299 1_555
O33 V0 1.894054 1_555
O34 P10 1.510730 1_555
O35 P9 1.493030 1_555
O36 P10 1.611413 1_555
O36 P9 1.623538 1_555
O37 P13 1.555454 1_555
O37 V1 1.937106 1_555
O38 P12 1.569228 1_555
O38 V2 1.886340 1_545
O39 P8 1.558272 1_555
O39 V3 1.890356 1_555
O40 P12 1.560036 1_555
O40 V1 1.965004 1_555
O41 P12 1.481831 1_555
O42 P11 1.481831 1_555
O43 P11 1.569228 1_555
O43 V4 1.886340 1_455
O44 P14 1.550388 1_555
O44 V2 1.907402 1_545
O45 P11 1.602594 1_555
O45 V3 1.810698 1_555
O46 P10 1.540176 1_555
O46 V4 1.906015 1_455
O47 P0 1.603408 1_555
O47 P13 1.619798 1_655
O48 P0 1.498854 1_455
O49 P13 1.558272 1_555
O49 V5 1.890356 1_555
O50 P12 1.602594 1_555
O50 V5 1.810698 1_555
O51 P15 1.550388 1_555
O51 V4 1.907402 1_455
O52 P15 1.555350 1_555
O52 V3 1.988536 1_555
O53 P7 1.491431 1_555
O54 P7 1.607604 1_545
O54 P14 1.624809 1_555
O55 P14 1.555350 1_555
O55 V5 1.988536 1_555
O56 P2 1.491431 1_555
O57 P2 1.607604 1_455
O57 P15 1.624809 1_555
