# generated using pymatgen
data_EuB4O7
_symmetry_space_group_name_H-M   'P 1'
_cell_length_a   4.23930622
_cell_length_b   4.43171133
_cell_length_c   10.72677625
_cell_angle_alpha   90.00000000
_cell_angle_beta   90.00000000
_cell_angle_gamma   90.00000000
_symmetry_Int_Tables_number   1
_chemical_formula_structural   EuB4O7
_chemical_formula_sum   'Eu2 B8 O14'
_cell_volume   201.52803667
_cell_formula_units_Z   2
loop_
 _symmetry_equiv_pos_site_id
 _symmetry_equiv_pos_as_xyz
  1  'x, y, z'
loop_
 _atom_site_type_symbol
 _atom_site_label
 _atom_site_symmetry_multiplicity
 _atom_site_fract_x
 _atom_site_fract_y
 _atom_site_fract_z
 _atom_site_occupancy
  Eu  Eu0  1  0.50420729  0.21143433  0.50000000  1
  Eu  Eu1  1  0.00420729  0.78856567  0.00000000  1
  B  B0  1  0.50727715  0.82200409  0.25119937  1
  B  B1  1  0.00727715  0.17799591  0.24880063  1
  B  B2  1  0.53108124  0.32587288  0.12159367  1
  B  B3  1  0.03108124  0.67412712  0.37840633  1
  B  B4  1  0.03108124  0.67412712  0.62159367  1
  B  B5  1  0.53108124  0.32587288  0.87840633  1
  B  B6  1  0.00727715  0.17799591  0.75119937  1
  B  B7  1  0.50727715  0.82200409  0.74880063  1
  O  O0  1  0.45961140  0.64279553  0.14167417  1
  O  O1  1  0.36743675  0.72676727  0.63532609  1
  O  O2  1  0.86743675  0.27323273  0.86467391  1
  O  O3  1  0.86743675  0.27323273  0.13532609  1
  O  O4  1  0.86388286  0.86801869  0.72229464  1
  O  O5  1  0.36388286  0.13198131  0.77770536  1
  O  O6  1  0.36388286  0.13198131  0.22229464  1
  O  O7  1  0.86388286  0.86801869  0.27770536  1
  O  O8  1  0.95961140  0.35720447  0.64167417  1
  O  O9  1  0.45961140  0.64279553  0.85832583  1
  O  O10  1  0.92421188  0.77206431  0.50000000  1
  O  O11  1  0.42421188  0.22793569  0.00000000  1
  O  O12  1  0.36743675  0.72676727  0.36467391  1
  O  O13  1  0.95961140  0.35720447  0.35832583  1
loop_
_geom_bond_atom_site_label_1
_geom_bond_atom_site_label_2
_geom_bond_distance
_geom_bond_site_symmetry_2
Eu0 O13 2.540482 1_555
Eu0 O8 2.540482 1_555
Eu0 O10 2.638506 1_545
Eu0 O12 2.656474 1_545
Eu0 O1 2.656474 1_545
Eu0 O12 2.767514 1_555
Eu0 O1 2.767514 1_555
Eu0 O13 2.838481 1_455
Eu0 O8 2.838481 1_455
Eu1 O9 2.540482 1_554
Eu1 O0 2.540482 1_555
Eu1 O11 2.638506 1_565
Eu1 O3 2.656474 1_465
Eu1 O2 2.656474 1_464
Eu1 O3 2.767514 1_455
Eu1 O2 2.767514 1_454
Eu1 O9 2.838481 1_454
Eu1 O0 2.838481 1_455
B0 O12 1.418166 1_555
B0 O0 1.432433 1_555
B0 O6 1.533884 1_565
B0 O7 1.551723 1_555
B1 O3 1.418166 1_455
B1 O13 1.432433 1_455
B1 O7 1.533884 1_445
B1 O6 1.551723 1_555
B2 O11 1.447362 1_555
B2 O3 1.452361 1_555
B2 O0 1.452874 1_555
B2 O6 1.551637 1_555
B3 O10 1.447362 1_455
B3 O12 1.452361 1_555
B3 O13 1.452874 1_455
B3 O7 1.551637 1_455
B4 O10 1.447362 1_455
B4 O1 1.452361 1_555
B4 O8 1.452874 1_455
B4 O4 1.551637 1_455
B5 O11 1.447362 1_556
B5 O2 1.452361 1_555
B5 O9 1.452874 1_555
B5 O5 1.551637 1_555
B6 O2 1.418166 1_455
B6 O8 1.432433 1_455
B6 O4 1.533884 1_445
B6 O5 1.551723 1_555
B7 O1 1.418166 1_555
B7 O9 1.432433 1_555
B7 O5 1.533884 1_565
B7 O4 1.551723 1_555
