# generated using pymatgen
data_LiHf2Re
_symmetry_space_group_name_H-M   'P 1'
_cell_length_a   4.62320728
_cell_length_b   4.62320728
_cell_length_c   4.62320728
_cell_angle_alpha   60.00000000
_cell_angle_beta   60.00000000
_cell_angle_gamma   60.00000000
_symmetry_Int_Tables_number   1
_chemical_formula_structural   LiHf2Re
_chemical_formula_sum   'Li1 Hf2 Re1'
_cell_volume   69.87391846
_cell_formula_units_Z   1
loop_
 _symmetry_equiv_pos_site_id
 _symmetry_equiv_pos_as_xyz
  1  'x, y, z'
loop_
 _atom_site_type_symbol
 _atom_site_label
 _atom_site_symmetry_multiplicity
 _atom_site_fract_x
 _atom_site_fract_y
 _atom_site_fract_z
 _atom_site_occupancy
  Li  Li0  1  0.25000100  0.25000100  0.25000100  1
  Hf  Hf0  1  -0.00000000  0.00000000  0.00000000  1
  Hf  Hf1  1  0.50000100  0.50000100  0.50000100  1
  Re  Re0  1  0.75000000  0.75000000  0.75000000  1
loop_
_geom_bond_atom_site_label_1
_geom_bond_atom_site_label_2
_geom_bond_distance
_geom_bond_site_symmetry_2
Li0 Re0 3.269095 1_455
Li0 Re0 3.269095 1_545
Li0 Re0 3.269095 1_554
Li0 Re0 3.269108 1_445
Li0 Re0 3.269108 1_544
Li0 Re0 3.269108 1_454
Hf0 Li0 2.831121 1_545
Hf0 Li0 2.831121 1_455
Hf0 Li0 2.831121 1_554
Hf0 Re0 2.831125 1_445
Hf0 Re0 2.831125 1_444
Hf0 Re0 2.831125 1_454
Hf0 Re0 2.831125 1_544
Hf0 Li0 2.831136 1_555
Hf1 Re0 2.831113 1_555
Hf1 Li0 2.831125 1_556
Hf1 Li0 2.831125 1_565
Hf1 Li0 2.831125 1_655
Hf1 Li0 2.831125 1_555
Hf1 Re0 2.831128 1_545
Hf1 Re0 2.831128 1_455
Hf1 Re0 2.831128 1_554
