# generated using pymatgen
data_Er2Mg
_symmetry_space_group_name_H-M   'P 1'
_cell_length_a   7.30303983
_cell_length_b   17.38125306
_cell_length_c   10.77433808
_cell_angle_alpha   90.00000000
_cell_angle_beta   90.00000000
_cell_angle_gamma   77.85084178
_symmetry_Int_Tables_number   1
_chemical_formula_structural   Er2Mg
_chemical_formula_sum   'Er32 Mg16'
_cell_volume   1337.01995677
_cell_formula_units_Z   16
loop_
 _symmetry_equiv_pos_site_id
 _symmetry_equiv_pos_as_xyz
  1  'x, y, z'
loop_
 _atom_site_type_symbol
 _atom_site_label
 _atom_site_symmetry_multiplicity
 _atom_site_fract_x
 _atom_site_fract_y
 _atom_site_fract_z
 _atom_site_occupancy
  Er  Er0_0  1  0.49058820  0.01894650  0.00000000  1
  Er  Er0_1  1  0.49058820  0.01894650  0.50000000  1
  Er  Er0_2  1  0.49058821  0.51894650  0.00000000  1
  Er  Er0_3  1  0.49058821  0.51894650  0.50000000  1
  Er  Er0_4  1  0.99058820  0.01894650  0.00000000  1
  Er  Er0_5  1  0.99058820  0.01894650  0.50000000  1
  Er  Er0_6  1  0.99058820  0.51894651  0.00000000  1
  Er  Er0_7  1  0.99058820  0.51894651  0.50000000  1
  Er  Er1_0  1  0.33006020  0.33885271  0.00000000  1
  Er  Er1_1  1  0.33006020  0.33885271  0.50000000  1
  Er  Er1_2  1  0.33006020  0.83885271  0.00000000  1
  Er  Er1_3  1  0.33006020  0.83885271  0.50000000  1
  Er  Er1_4  1  0.83006020  0.33885271  0.00000000  1
  Er  Er1_5  1  0.83006020  0.33885271  0.50000000  1
  Er  Er1_6  1  0.83006020  0.83885271  0.00000000  1
  Er  Er1_7  1  0.83006020  0.83885271  0.50000000  1
  Er  Er2_0  1  0.39809247  0.20329544  0.25000000  1
  Er  Er2_1  1  0.39809247  0.20329544  0.75000000  1
  Er  Er2_2  1  0.39809247  0.70329544  0.25000000  1
  Er  Er2_3  1  0.39809247  0.70329544  0.75000000  1
  Er  Er2_4  1  0.89809247  0.20329544  0.25000000  1
  Er  Er2_5  1  0.89809247  0.20329544  0.75000000  1
  Er  Er2_6  1  0.89809247  0.70329544  0.25000000  1
  Er  Er2_7  1  0.89809247  0.70329544  0.75000000  1
  Er  Er3_0  1  0.05771526  0.38333632  0.25000000  1
  Er  Er3_1  1  0.05771526  0.38333632  0.75000000  1
  Er  Er3_2  1  0.05771526  0.88333632  0.25000000  1
  Er  Er3_3  1  0.05771526  0.88333632  0.75000000  1
  Er  Er3_4  1  0.55771526  0.38333632  0.25000000  1
  Er  Er3_5  1  0.55771526  0.38333632  0.75000000  1
  Er  Er3_6  1  0.55771525  0.88333632  0.25000000  1
  Er  Er3_7  1  0.55771525  0.88333632  0.75000000  1
  Mg  Mg0_0  1  0.16143483  0.17773520  0.00000000  1
  Mg  Mg0_1  1  0.16143483  0.17773520  0.50000000  1
  Mg  Mg0_2  1  0.16143483  0.67773520  0.00000000  1
  Mg  Mg0_3  1  0.16143483  0.67773520  0.50000000  1
  Mg  Mg0_4  1  0.66143483  0.17773520  0.00000000  1
  Mg  Mg0_5  1  0.66143483  0.17773520  0.50000000  1
  Mg  Mg0_6  1  0.66143483  0.67773520  0.00000000  1
  Mg  Mg0_7  1  0.66143483  0.67773520  0.50000000  1
  Mg  Mg1_0  1  0.22877504  0.04450031  0.25000000  1
  Mg  Mg1_1  1  0.22877504  0.04450031  0.75000000  1
  Mg  Mg1_2  1  0.22877504  0.54450031  0.25000000  1
  Mg  Mg1_3  1  0.22877504  0.54450031  0.75000000  1
  Mg  Mg1_4  1  0.72877504  0.04450031  0.25000000  1
  Mg  Mg1_5  1  0.72877504  0.04450031  0.75000000  1
  Mg  Mg1_6  1  0.72877504  0.54450031  0.25000000  1
  Mg  Mg1_7  1  0.72877504  0.54450031  0.75000000  1
loop_
_geom_bond_atom_site_label_1
_geom_bond_atom_site_label_2
_geom_bond_distance
_geom_bond_site_symmetry_2
Er0_0 Mg0_0 3.256245 1_555
Er0_0 Mg0_4 3.259373 1_555
Er0_0 Mg1_0 3.278884 1_555
Er0_0 Mg1_1 3.278884 1_554
Er0_0 Mg1_5 3.286897 1_554
Er0_0 Mg1_4 3.286897 1_555
Er0_0 Er3_7 3.544736 1_544
Er0_0 Er3_6 3.544736 1_545
Er0_0 Er1_6 3.560664 1_545
Er0_0 Er1_2 3.566165 1_545
Er0_0 Er0_4 3.651520 1_555
Er0_0 Er0_4 3.651520 1_455
Er0_1 Mg0_1 3.256245 1_555
Er0_1 Mg0_5 3.259373 1_555
Er0_1 Mg1_0 3.278884 1_555
Er0_1 Mg1_1 3.278884 1_555
Er0_1 Mg1_4 3.286897 1_555
Er0_1 Mg1_5 3.286897 1_555
Er0_1 Er3_7 3.544736 1_545
Er0_1 Er3_6 3.544736 1_545
Er0_1 Er1_7 3.560664 1_545
Er0_1 Er1_3 3.566165 1_545
Er0_1 Er0_5 3.651520 1_455
Er0_1 Er0_5 3.651520 1_555
Er0_2 Mg0_2 3.256245 1_555
Er0_2 Mg0_6 3.259373 1_555
Er0_2 Mg1_3 3.278884 1_554
Er0_2 Mg1_2 3.278884 1_555
Er0_2 Mg1_7 3.286897 1_554
Er0_2 Mg1_6 3.286897 1_555
Er0_2 Er3_4 3.544736 1_555
Er0_2 Er3_5 3.544736 1_554
Er0_2 Er1_4 3.560664 1_555
Er0_2 Er1_0 3.566165 1_555
Er0_2 Er0_6 3.651520 1_455
Er0_2 Er0_6 3.651520 1_555
Er0_3 Mg0_3 3.256245 1_555
Er0_3 Mg0_7 3.259373 1_555
Er0_3 Mg1_2 3.278884 1_555
Er0_3 Mg1_3 3.278884 1_555
Er0_3 Mg1_6 3.286897 1_555
Er0_3 Mg1_7 3.286897 1_555
Er0_3 Er3_4 3.544736 1_555
Er0_3 Er3_5 3.544736 1_555
Er0_3 Er1_5 3.560664 1_555
Er0_3 Er1_1 3.566165 1_555
Er0_3 Er0_7 3.651520 1_455
Er0_3 Er0_7 3.651520 1_555
Er0_4 Mg0_4 3.256245 1_555
Er0_4 Mg0_0 3.259373 1_655
Er0_4 Mg1_5 3.278884 1_554
Er0_4 Mg1_4 3.278884 1_555
Er0_4 Mg1_1 3.286897 1_654
Er0_4 Mg1_0 3.286897 1_655
Er0_4 Er3_2 3.544736 1_645
Er0_4 Er3_3 3.544736 1_644
Er0_4 Er1_2 3.560664 1_645
Er0_4 Er1_6 3.566165 1_545
Er0_5 Mg0_5 3.256245 1_555
Er0_5 Mg0_1 3.259373 1_655
Er0_5 Mg1_4 3.278884 1_555
Er0_5 Mg1_5 3.278884 1_555
Er0_5 Mg1_0 3.286897 1_655
Er0_5 Mg1_1 3.286897 1_655
Er0_5 Er3_3 3.544736 1_645
Er0_5 Er3_2 3.544736 1_645
Er0_5 Er1_3 3.560664 1_645
Er0_5 Er1_7 3.566165 1_545
Er0_6 Mg0_6 3.256245 1_555
Er0_6 Mg0_2 3.259373 1_655
Er0_6 Mg1_6 3.278884 1_555
Er0_6 Mg1_7 3.278884 1_554
Er0_6 Mg1_2 3.286897 1_655
Er0_6 Mg1_3 3.286897 1_654
Er0_6 Er3_0 3.544736 1_655
Er0_6 Er3_1 3.544736 1_654
Er0_6 Er1_0 3.560664 1_655
Er0_6 Er1_4 3.566165 1_555
Er0_7 Mg0_7 3.256245 1_555
Er0_7 Mg0_3 3.259373 1_655
Er0_7 Mg1_6 3.278884 1_555
Er0_7 Mg1_7 3.278884 1_555
Er0_7 Mg1_3 3.286897 1_655
Er0_7 Mg1_2 3.286897 1_655
Er0_7 Er3_0 3.544736 1_655
Er0_7 Er3_1 3.544736 1_655
Er0_7 Er1_1 3.560664 1_655
Er0_7 Er1_5 3.566165 1_555
Er1_0 Mg0_0 3.287933 1_555
Er1_0 Mg0_4 3.293384 1_555
Er1_0 Er3_4 3.340424 1_555
Er1_0 Er3_5 3.340424 1_554
Er1_0 Er3_0 3.340932 1_555
Er1_0 Er3_1 3.340932 1_554
Er1_0 Er2_0 3.544147 1_555
Er1_0 Er2_1 3.544147 1_554
Er1_0 Er1_4 3.651520 1_555
Er1_0 Er1_4 3.651520 1_455
Er1_1 Mg0_1 3.287933 1_555
Er1_1 Mg0_5 3.293384 1_555
Er1_1 Er3_4 3.340424 1_555
Er1_1 Er3_5 3.340424 1_555
Er1_1 Er3_0 3.340932 1_555
Er1_1 Er3_1 3.340932 1_555
Er1_1 Er2_0 3.544147 1_555
Er1_1 Er2_1 3.544147 1_555
Er1_1 Er1_5 3.651520 1_555
Er1_1 Er1_5 3.651520 1_455
Er1_2 Mg0_2 3.287933 1_555
Er1_2 Mg0_6 3.293384 1_555
Er1_2 Er3_7 3.340424 1_554
Er1_2 Er3_6 3.340424 1_555
Er1_2 Er3_3 3.340932 1_554
Er1_2 Er3_2 3.340932 1_555
Er1_2 Er2_3 3.544147 1_554
Er1_2 Er2_2 3.544147 1_555
Er1_2 Er1_6 3.651520 1_555
Er1_2 Er1_6 3.651520 1_455
Er1_3 Mg0_3 3.287933 1_555
Er1_3 Mg0_7 3.293384 1_555
Er1_3 Er3_7 3.340424 1_555
Er1_3 Er3_6 3.340424 1_555
Er1_3 Er3_2 3.340932 1_555
Er1_3 Er3_3 3.340932 1_555
Er1_3 Er2_3 3.544147 1_555
Er1_3 Er2_2 3.544147 1_555
Er1_3 Er1_7 3.651520 1_555
Er1_3 Er1_7 3.651520 1_455
Er1_4 Mg0_4 3.287933 1_555
Er1_4 Mg0_0 3.293384 1_655
Er1_4 Er3_1 3.340424 1_654
Er1_4 Er3_0 3.340424 1_655
Er1_4 Er3_4 3.340932 1_555
Er1_4 Er3_5 3.340932 1_554
Er1_4 Er2_4 3.544147 1_555
Er1_4 Er2_5 3.544147 1_554
Er1_5 Mg0_5 3.287933 1_555
Er1_5 Mg0_1 3.293384 1_655
Er1_5 Er3_1 3.340424 1_655
Er1_5 Er3_0 3.340424 1_655
Er1_5 Er3_4 3.340932 1_555
Er1_5 Er3_5 3.340932 1_555
Er1_5 Er2_4 3.544147 1_555
Er1_5 Er2_5 3.544147 1_555
Er1_6 Mg0_6 3.287933 1_555
Er1_6 Mg0_2 3.293384 1_655
Er1_6 Er3_2 3.340424 1_655
Er1_6 Er3_3 3.340424 1_654
Er1_6 Er3_7 3.340932 1_554
Er1_6 Er3_6 3.340932 1_555
Er1_6 Er2_6 3.544147 1_555
Er1_6 Er2_7 3.544147 1_554
Er1_7 Mg0_7 3.287933 1_555
Er1_7 Mg0_3 3.293384 1_655
Er1_7 Er3_2 3.340424 1_655
Er1_7 Er3_3 3.340424 1_655
Er1_7 Er3_7 3.340932 1_555
Er1_7 Er3_6 3.340932 1_555
Er1_7 Er2_6 3.544147 1_555
Er1_7 Er2_7 3.544147 1_555
Er2_0 Mg1_0 3.253225 1_555
Er2_0 Mg1_4 3.262588 1_555
Er2_0 Mg0_0 3.280710 1_555
Er2_0 Mg0_1 3.280710 1_555
Er2_0 Mg0_4 3.285092 1_555
Er2_0 Mg0_5 3.285092 1_555
Er2_0 Er3_4 3.561904 1_555
Er2_0 Er3_0 3.563376 1_555
Er2_0 Er2_4 3.651520 1_555
Er2_0 Er2_4 3.651520 1_455
Er2_1 Mg1_1 3.253225 1_555
Er2_1 Mg1_5 3.262588 1_555
Er2_1 Mg0_1 3.280710 1_555
Er2_1 Mg0_0 3.280710 1_556
Er2_1 Mg0_4 3.285092 1_556
Er2_1 Mg0_5 3.285092 1_555
Er2_1 Er3_5 3.561904 1_555
Er2_1 Er3_1 3.563376 1_555
Er2_1 Er2_5 3.651520 1_455
Er2_1 Er2_5 3.651520 1_555
Er2_2 Mg1_2 3.253225 1_555
Er2_2 Mg1_6 3.262588 1_555
Er2_2 Mg0_2 3.280710 1_555
Er2_2 Mg0_3 3.280710 1_555
Er2_2 Mg0_6 3.285092 1_555
Er2_2 Mg0_7 3.285092 1_555
Er2_2 Er3_6 3.561904 1_555
Er2_2 Er3_2 3.563376 1_555
Er2_2 Er2_6 3.651520 1_555
Er2_2 Er2_6 3.651520 1_455
Er2_3 Mg1_3 3.253225 1_555
Er2_3 Mg1_7 3.262588 1_555
Er2_3 Mg0_2 3.280710 1_556
Er2_3 Mg0_3 3.280710 1_555
Er2_3 Mg0_6 3.285092 1_556
Er2_3 Mg0_7 3.285092 1_555
Er2_3 Er3_7 3.561904 1_555
Er2_3 Er3_3 3.563376 1_555
Er2_3 Er2_7 3.651520 1_555
Er2_3 Er2_7 3.651520 1_455
Er2_4 Mg1_4 3.253225 1_555
Er2_4 Mg1_0 3.262588 1_655
Er2_4 Mg0_5 3.280710 1_555
Er2_4 Mg0_4 3.280710 1_555
Er2_4 Mg0_1 3.285092 1_655
Er2_4 Mg0_0 3.285092 1_655
Er2_4 Er3_0 3.561904 1_655
Er2_4 Er3_4 3.563376 1_555
Er2_5 Mg1_5 3.253225 1_555
Er2_5 Mg1_1 3.262588 1_655
Er2_5 Mg0_5 3.280710 1_555
Er2_5 Mg0_4 3.280710 1_556
Er2_5 Mg0_1 3.285092 1_655
Er2_5 Mg0_0 3.285092 1_656
Er2_5 Er3_1 3.561904 1_655
Er2_5 Er3_5 3.563376 1_555
Er2_6 Mg1_6 3.253225 1_555
Er2_6 Mg1_2 3.262588 1_655
Er2_6 Mg0_6 3.280710 1_555
Er2_6 Mg0_7 3.280710 1_555
Er2_6 Mg0_2 3.285092 1_655
Er2_6 Mg0_3 3.285092 1_655
Er2_6 Er3_2 3.561904 1_655
Er2_6 Er3_6 3.563376 1_555
Er2_7 Mg1_7 3.253225 1_555
Er2_7 Mg1_3 3.262588 1_655
Er2_7 Mg0_6 3.280710 1_556
Er2_7 Mg0_7 3.280710 1_555
Er2_7 Mg0_2 3.285092 1_656
Er2_7 Mg0_3 3.285092 1_655
Er2_7 Er3_3 3.561904 1_655
Er2_7 Er3_7 3.563376 1_555
Er3_0 Mg1_6 3.284100 1_455
Er3_0 Mg1_2 3.298563 1_555
Er3_0 Er3_4 3.651520 1_455
Er3_0 Er3_4 3.651520 1_555
Er3_1 Mg1_7 3.284100 1_455
Er3_1 Mg1_3 3.298563 1_555
Er3_1 Er3_5 3.651520 1_455
Er3_1 Er3_5 3.651520 1_555
Er3_2 Mg1_4 3.284100 1_465
Er3_2 Mg1_0 3.298563 1_565
Er3_2 Er3_6 3.651520 1_555
Er3_2 Er3_6 3.651520 1_455
Er3_3 Mg1_5 3.284100 1_465
Er3_3 Mg1_1 3.298563 1_565
Er3_3 Er3_7 3.651520 1_555
Er3_3 Er3_7 3.651520 1_455
Er3_4 Mg1_2 3.284100 1_555
Er3_4 Mg1_6 3.298563 1_555
Er3_5 Mg1_3 3.284100 1_555
Er3_5 Mg1_7 3.298563 1_555
Er3_6 Mg1_0 3.284100 1_565
Er3_6 Mg1_4 3.298563 1_565
Er3_7 Mg1_1 3.284100 1_565
Er3_7 Mg1_5 3.298563 1_565
