# generated using pymatgen
data_Li12Mn3V5(PO4)12
_symmetry_space_group_name_H-M   'P 1'
_cell_length_a   8.65224600
_cell_length_b   8.68800612
_cell_length_c   12.40275748
_cell_angle_alpha   88.24091850
_cell_angle_beta   89.74762119
_cell_angle_gamma   89.97088390
_symmetry_Int_Tables_number   1
_chemical_formula_structural   Li12Mn3V5(PO4)12
_chemical_formula_sum   'Li12 Mn3 V5 P12 O48'
_cell_volume   931.87630810
_cell_formula_units_Z   1
loop_
 _symmetry_equiv_pos_site_id
 _symmetry_equiv_pos_as_xyz
  1  'x, y, z'
loop_
 _atom_site_type_symbol
 _atom_site_label
 _atom_site_symmetry_multiplicity
 _atom_site_fract_x
 _atom_site_fract_y
 _atom_site_fract_z
 _atom_site_occupancy
  Li  Li0  1  0.91905900  0.07705700  0.30292600  1
  Li  Li1  1  0.30235200  0.08467400  0.23995400  1
  Li  Li2  1  0.21741600  0.20777300  0.82514600  1
  Li  Li3  1  0.71909400  0.29126700  0.67407100  1
  Li  Li4  1  0.80535000  0.41613700  0.26161600  1
  Li  Li5  1  0.41641300  0.42537800  0.19784400  1
  Li  Li6  1  0.58097400  0.57721700  0.80150800  1
  Li  Li7  1  0.19599000  0.58584500  0.73764900  1
  Li  Li8  1  0.28199800  0.70770900  0.32630000  1
  Li  Li9  1  0.78285900  0.79195300  0.17466000  1
  Li  Li10  1  0.69557800  0.91275200  0.76098900  1
  Li  Li11  1  0.08104100  0.92216300  0.69794300  1
  Mn  Mn0  1  0.96567300  0.25302300  0.10392200  1
  Mn  Mn1  1  0.03445400  0.74714600  0.89625500  1
  Mn  Mn2  1  0.53453300  0.75280900  0.60342400  1
  V  V0  1  0.46911900  0.24862000  0.39215600  1
  V  V1  1  0.53902600  0.24678700  0.88986200  1
  V  V2  1  0.03957700  0.25230200  0.60972700  1
  V  V3  1  0.96185400  0.74707100  0.39010800  1
  V  V4  1  0.46050700  0.75315100  0.11039700  1
  P  P0  1  0.75281700  0.03712200  0.50725800  1
  P  P1  1  0.61742300  0.10475700  0.14702500  1
  P  P2  1  0.89656800  0.10171700  0.84903100  1
  P  P3  1  0.39710200  0.39625400  0.64843300  1
  P  P4  1  0.11590300  0.39607900  0.35497500  1
  P  P5  1  0.25106000  0.46168700  0.99308100  1
  P  P6  1  0.74907600  0.53875200  0.00643600  1
  P  P7  1  0.88271900  0.60379900  0.64439900  1
  P  P8  1  0.60390300  0.60412200  0.34791200  1
  P  P9  1  0.10332000  0.89850100  0.15108000  1
  P  P10  1  0.38206100  0.89545400  0.85621700  1
  P  P11  1  0.24925000  0.96094500  0.49330000  1
  O  O0  1  0.13290000  0.04574200  0.56568700  1
  O  O1  1  0.11575200  0.07869400  0.14807800  1
  O  O2  1  0.31925100  0.06825800  0.40368800  1
  O  O3  1  0.40105800  0.07039000  0.83316300  1
  O  O4  1  0.63379200  0.10724300  0.42896500  1
  O  O5  1  0.78855100  0.14329300  0.17902800  1
  O  O6  1  0.58915200  0.14830400  0.02810800  1
  O  O7  1  0.01691900  0.14131200  0.75711900  1
  O  O8  1  0.73235900  0.15754800  0.81291900  1
  O  O9  1  0.83101300  0.17001200  0.56745800  1
  O  O10  1  0.95247100  0.17095400  0.95157000  1
  O  O11  1  0.50070500  0.19543100  0.21775600  1
  O  O12  1  0.99701900  0.30385100  0.28977300  1
  O  O13  1  0.45086500  0.32815900  0.54410300  1
  O  O14  1  0.33091100  0.32959000  0.93232400  1
  O  O15  1  0.23395600  0.34035200  0.68696800  1
  O  O16  1  0.09291700  0.35592600  0.47524500  1
  O  O17  1  0.28578500  0.35728500  0.31986700  1
  O  O18  1  0.51794800  0.35607800  0.73958000  1
  O  O19  1  0.13185000  0.39368800  0.07386400  1
  O  O20  1  0.81891400  0.43205700  0.09709700  1
  O  O21  1  0.61540200  0.42455100  0.35072300  1
  O  O22  1  0.90207400  0.42875100  0.66754600  1
  O  O23  1  0.63397200  0.45392900  0.93415600  1
  O  O24  1  0.36650000  0.54667700  0.06484600  1
  O  O25  1  0.09698900  0.57120800  0.33200600  1
  O  O26  1  0.38509600  0.57640200  0.64655000  1
  O  O27  1  0.18109600  0.56784200  0.90233200  1
  O  O28  1  0.86935900  0.60609300  0.92593300  1
  O  O29  1  0.48242100  0.64163200  0.25661300  1
  O  O30  1  0.71167900  0.64298000  0.67879900  1
  O  O31  1  0.90574300  0.64373200  0.52441400  1
  O  O32  1  0.76730600  0.65924900  0.31053400  1
  O  O33  1  0.66996800  0.67142200  0.06666100  1
  O  O34  1  0.54654100  0.67283500  0.45056600  1
  O  O35  1  0.00120500  0.69574000  0.71034400  1
  O  O36  1  0.50027800  0.80305800  0.78992600  1
  O  O37  1  0.04753500  0.82904800  0.04837400  1
  O  O38  1  0.17103700  0.82758300  0.43400100  1
  O  O39  1  0.26681000  0.84269800  0.18820600  1
  O  O40  1  0.98282300  0.85942900  0.24288100  1
  O  O41  1  0.40567800  0.85566100  0.97616400  1
  O  O42  1  0.21104500  0.85649200  0.82238900  1
  O  O43  1  0.36866900  0.89448200  0.57457200  1
  O  O44  1  0.59754000  0.92970500  0.16853700  1
  O  O45  1  0.68196400  0.93052400  0.59802200  1
  O  O46  1  0.88414100  0.92162000  0.85146200  1
  O  O47  1  0.86896900  0.95246000  0.43548000  1
loop_
_geom_bond_atom_site_label_1
_geom_bond_atom_site_label_2
_geom_bond_distance
_geom_bond_site_symmetry_2
Li0 O5 1.981900 1_555
Li0 O47 1.986812 1_545
Li0 O12 2.084389 1_555
Li0 O40 2.125019 1_545
Li1 O1 1.981858 1_555
Li1 O11 1.982001 1_555
Li1 O2 2.037275 1_555
Li1 O39 2.238605 1_545
Li2 O14 1.987554 1_555
Li2 O3 1.987803 1_555
Li2 O7 2.024463 1_555
Li2 O15 2.039881 1_555
Li3 O9 1.967018 1_555
Li3 O22 1.983590 1_555
Li3 O18 2.005169 1_555
Li3 O8 2.051156 1_555
Li4 O12 1.950990 1_555
Li4 O21 1.979041 1_555
Li4 O20 2.043791 1_555
Li4 O32 2.239170 1_555
Li5 O17 1.961754 1_555
Li5 O24 1.979185 1_555
Li5 O29 2.115715 1_555
Li5 O11 2.133972 1_555
Li6 O30 1.963093 1_555
Li6 O23 1.990534 1_555
Li6 O36 2.083309 1_555
Li6 O18 2.161919 1_555
Li7 O35 1.962178 1_555
Li7 O26 1.987397 1_555
Li7 O27 2.047208 1_555
Li7 O15 2.265354 1_555
Li8 O38 1.965655 1_555
Li8 O25 1.992380 1_555
Li8 O29 2.024841 1_555
Li8 O39 2.050536 1_555
Li9 O33 1.985834 1_555
Li9 O44 2.000647 1_555
Li9 O32 2.016477 1_555
Li9 O40 2.024193 1_555
Li10 O36 1.966653 1_555
Li10 O46 1.987061 1_555
Li10 O45 2.026338 1_555
Li10 O8 2.264052 1_565
Li11 O0 1.982589 1_565
Li11 O42 1.983343 1_555
Li11 O35 2.086244 1_555
Li11 O7 2.133707 1_565
Mn0 O19 1.915432 1_655
Mn0 O20 2.007441 1_555
Mn0 O5 2.014828 1_555
Mn0 O10 2.043691 1_554
Mn0 O1 2.057511 1_655
Mn0 O12 2.376975 1_555
Mn1 O28 1.909756 1_455
Mn1 O42 2.003005 1_555
Mn1 O27 2.008442 1_555
Mn1 O37 2.040377 1_556
Mn1 O46 2.061666 1_455
Mn1 O35 2.380794 1_555
Mn2 O43 1.917876 1_555
Mn2 O45 2.002615 1_555
Mn2 O30 2.022380 1_555
Mn2 O34 2.041302 1_555
Mn2 O26 2.062132 1_555
Mn2 O36 2.384296 1_555
O0 P11 1.547290 1_545
O0 V2 2.055657 1_555
O1 P9 1.568553 1_545
O2 P11 1.549967 1_545
O2 V0 2.035680 1_555
O3 P10 1.546565 1_545
O3 V1 2.084134 1_555
O4 P0 1.531824 1_555
O4 V0 1.927864 1_555
O5 P1 1.573461 1_555
O6 P1 1.532033 1_555
O6 V1 1.943258 1_554
O7 P2 1.570987 1_455
O7 V2 2.049125 1_555
O8 P2 1.563989 1_555
O8 V1 2.083264 1_555
O9 P0 1.551251 1_555
O9 V2 2.018668 1_655
O10 P2 1.505279 1_555
O11 P1 1.563277 1_555
O11 V0 2.241206 1_555
O12 P4 1.549842 1_655
O13 P3 1.510691 1_555
O13 V0 2.032552 1_555
O14 P5 1.552417 1_555
O14 V1 2.012674 1_555
O15 P3 1.561207 1_555
O15 V2 2.095699 1_555
O16 P4 1.533580 1_555
O16 V2 1.925359 1_555
O17 P4 1.570529 1_555
O17 V0 2.042152 1_555
O18 P3 1.574446 1_555
O18 V1 2.074410 1_555
O19 P5 1.540102 1_554
O20 P6 1.558909 1_555
O21 P8 1.562563 1_555
O21 V0 2.037230 1_555
O22 P7 1.548131 1_555
O22 V2 2.082749 1_655
O23 P6 1.545234 1_556
O23 V1 2.069198 1_555
O24 P5 1.544033 1_554
O24 V4 2.065524 1_555
O25 P4 1.548067 1_555
O25 V3 2.068626 1_455
O26 P3 1.567983 1_555
O27 P5 1.557426 1_555
O28 P6 1.542047 1_556
O29 P8 1.575029 1_555
O29 V4 2.039206 1_555
O30 P7 1.578226 1_555
O31 P7 1.529832 1_555
O31 V3 1.928220 1_555
O32 P8 1.557056 1_555
O32 V3 2.109930 1_555
O33 P6 1.550019 1_555
O33 V4 2.024000 1_555
O34 P8 1.504833 1_555
O35 P7 1.551231 1_455
O36 P10 1.548828 1_555
O37 P9 1.507525 1_555
O38 P11 1.548817 1_555
O38 V3 2.023547 1_455
O39 P9 1.561851 1_555
O39 V4 2.091837 1_555
O40 P9 1.569947 1_655
O40 V3 2.051340 1_555
O41 P10 1.531496 1_555
O41 V4 1.924964 1_556
O42 P10 1.579476 1_555
O43 P11 1.545933 1_555
O44 P1 1.545550 1_565
O44 V4 2.087073 1_555
O45 P0 1.559252 1_565
O46 P2 1.567786 1_565
O47 P0 1.541138 1_565
O47 V3 2.050101 1_555
