# generated using pymatgen
data_YbB4Os
_symmetry_space_group_name_H-M   'P 1'
_cell_length_a   3.53630900
_cell_length_b   5.95407200
_cell_length_c   11.52428200
_cell_angle_alpha   90.00000000
_cell_angle_beta   90.00000000
_cell_angle_gamma   90.00000000
_symmetry_Int_Tables_number   1
_chemical_formula_structural   YbB4Os
_chemical_formula_sum   'Yb4 B16 Os4'
_cell_volume   242.64880976
_cell_formula_units_Z   4
loop_
 _symmetry_equiv_pos_site_id
 _symmetry_equiv_pos_as_xyz
  1  'x, y, z'
loop_
 _atom_site_type_symbol
 _atom_site_label
 _atom_site_symmetry_multiplicity
 _atom_site_fract_x
 _atom_site_fract_y
 _atom_site_fract_z
 _atom_site_occupancy
  Yb  Yb0  1  0.00000000  0.12917500  0.65000900  1
  Yb  Yb1  1  0.00000000  0.87082500  0.34999100  1
  Yb  Yb2  1  0.00000000  0.62917500  0.84999100  1
  Yb  Yb3  1  0.00000000  0.37082500  0.15000900  1
  B  B0  1  0.50000000  0.47515000  0.69187500  1
  B  B1  1  0.50000000  0.52485000  0.30812500  1
  B  B2  1  0.50000000  0.97515000  0.80812500  1
  B  B3  1  0.50000000  0.02485000  0.19187500  1
  B  B4  1  0.50000000  0.28639900  0.81502300  1
  B  B5  1  0.50000000  0.71360100  0.18497700  1
  B  B6  1  0.50000000  0.78639900  0.68497700  1
  B  B7  1  0.50000000  0.21360100  0.31502300  1
  B  B8  1  0.50000000  0.36405500  0.96944400  1
  B  B9  1  0.50000000  0.63594500  0.03055600  1
  B  B10  1  0.50000000  0.86405500  0.53055600  1
  B  B11  1  0.50000000  0.13594500  0.46944400  1
  B  B12  1  0.50000000  0.38649500  0.54745400  1
  B  B13  1  0.50000000  0.61350500  0.45254600  1
  B  B14  1  0.50000000  0.88649500  0.95254600  1
  B  B15  1  0.50000000  0.11350500  0.04745400  1
  Os  Os0  1  0.00000000  0.13587900  0.91164700  1
  Os  Os1  1  0.00000000  0.86412100  0.08835300  1
  Os  Os2  1  0.00000000  0.63587900  0.58835300  1
  Os  Os3  1  0.00000000  0.36412100  0.41164700  1
loop_
_geom_bond_atom_site_label_1
_geom_bond_atom_site_label_2
_geom_bond_distance
_geom_bond_site_symmetry_2
B0 B12 1.746050 1_555
B0 B4 1.810281 1_555
B0 B6 1.854903 1_555
B0 Os2 2.337839 1_555
B0 Os2 2.337839 1_655
B0 Yb2 2.699577 1_655
B0 Yb2 2.699577 1_555
B0 Yb0 2.757279 1_555
B0 Yb0 2.757279 1_655
B1 B13 1.746050 1_555
B1 B5 1.810281 1_555
B1 B7 1.854903 1_555
B1 Os3 2.337839 1_555
B1 Os3 2.337839 1_655
B1 Yb3 2.699577 1_555
B1 Yb3 2.699577 1_655
B1 Yb1 2.757279 1_555
B1 Yb1 2.757279 1_655
B2 B6 1.810281 1_555
B2 B4 1.854903 1_565
B2 Os0 2.337839 1_665
B2 Os0 2.337839 1_565
B2 Yb0 2.699577 1_565
B2 Yb0 2.699577 1_665
B2 Yb2 2.757279 1_555
B2 Yb2 2.757279 1_655
B3 B7 1.810281 1_555
B3 B5 1.854903 1_545
B3 Os1 2.337839 1_645
B3 Os1 2.337839 1_545
B3 Yb1 2.699577 1_645
B3 Yb1 2.699577 1_545
B3 Yb3 2.757279 1_555
B3 Yb3 2.757279 1_655
B4 B8 1.838676 1_555
B4 Os0 2.273651 1_555
B4 Os0 2.273651 1_655
B4 Yb2 2.730218 1_555
B4 Yb2 2.730218 1_655
B4 Yb0 2.760260 1_555
B4 Yb0 2.760260 1_655
B5 B9 1.838676 1_555
B5 Os1 2.273651 1_655
B5 Os1 2.273651 1_555
B5 Yb3 2.730218 1_555
B5 Yb3 2.730218 1_655
B5 Yb1 2.760260 1_555
B5 Yb1 2.760260 1_655
B6 Os2 2.273651 1_655
B6 Os2 2.273651 1_555
B6 Yb0 2.730218 1_665
B6 Yb0 2.730218 1_565
B6 Yb2 2.760260 1_655
B6 Yb2 2.760260 1_555
B7 Os3 2.273651 1_555
B7 Os3 2.273651 1_655
B7 Yb1 2.730218 1_545
B7 Yb1 2.730218 1_645
B7 Yb3 2.760260 1_555
B7 Yb3 2.760260 1_655
B8 B9 1.765413 1_556
B8 Os0 2.327176 1_555
B8 Os0 2.327176 1_655
B8 Yb3 2.730946 1_656
B8 Yb3 2.730946 1_556
B8 Yb2 2.741026 1_555
B8 Yb2 2.741026 1_655
B9 Os1 2.327176 1_555
B9 Os1 2.327176 1_655
B9 Yb2 2.730946 1_554
B9 Yb2 2.730946 1_654
B9 Yb3 2.741026 1_555
B9 Yb3 2.741026 1_655
B10 B13 1.741741 1_555
B10 B11 1.765413 1_565
B10 B6 1.838676 1_555
B10 Os2 2.327176 1_655
B10 Os2 2.327176 1_555
B10 Yb1 2.730946 1_655
B10 Yb1 2.730946 1_555
B10 Yb0 2.741026 1_565
B10 Yb0 2.741026 1_665
B11 B12 1.741741 1_555
B11 B7 1.838676 1_555
B11 Os3 2.327176 1_555
B11 Os3 2.327176 1_655
B11 Yb0 2.730946 1_555
B11 Yb0 2.730946 1_655
B11 Yb1 2.741026 1_545
B11 Yb1 2.741026 1_645
B12 B13 1.738734 1_555
B12 Os2 2.356545 1_655
B12 Os2 2.356545 1_555
B12 Os3 2.365076 1_655
B12 Os3 2.365076 1_555
B12 Yb0 2.621169 1_555
B12 Yb0 2.621169 1_655
B13 Os3 2.356545 1_655
B13 Os3 2.356545 1_555
B13 Os2 2.365076 1_555
B13 Os2 2.365076 1_655
B13 Yb1 2.621169 1_555
B13 Yb1 2.621169 1_655
B14 B15 1.738734 1_566
B14 B9 1.741741 1_556
B14 B2 1.746050 1_555
B14 Os0 2.356545 1_665
B14 Os0 2.356545 1_565
B14 Os1 2.365076 1_556
B14 Os1 2.365076 1_656
B14 Yb2 2.621169 1_655
B14 Yb2 2.621169 1_555
B15 B8 1.741741 1_554
B15 B3 1.746050 1_555
B15 Os1 2.356545 1_545
B15 Os1 2.356545 1_645
B15 Os0 2.365076 1_554
B15 Os0 2.365076 1_654
B15 Yb3 2.621169 1_555
B15 Yb3 2.621169 1_655
Os0 Os1 2.600981 1_546
Os0 Yb0 3.015454 1_555
Os0 Yb2 3.021844 1_555
Os0 Yb3 3.082632 1_556
Os0 Yb2 3.099495 1_545
Os1 Yb1 3.015454 1_555
Os1 Yb3 3.021844 1_555
Os1 Yb2 3.082632 1_554
Os1 Yb3 3.099495 1_565
Os2 Os3 2.600981 1_555
Os2 Yb2 3.015454 1_555
Os2 Yb0 3.021844 1_565
Os2 Yb1 3.082632 1_555
Os2 Yb0 3.099495 1_555
Os3 Yb3 3.015454 1_555
Os3 Yb1 3.021844 1_545
Os3 Yb0 3.082632 1_555
Os3 Yb1 3.099495 1_555
