# generated using pymatgen
data_Na4WO5
_symmetry_space_group_name_H-M   'P 1'
_cell_length_a   5.74220000
_cell_length_b   5.77678704
_cell_length_c   8.61041295
_cell_angle_alpha   109.21438057
_cell_angle_beta   101.32926712
_cell_angle_gamma   102.32052496
_symmetry_Int_Tables_number   1
_chemical_formula_structural   Na4WO5
_chemical_formula_sum   'Na8 W2 O10'
_cell_volume   252.24913170
_cell_formula_units_Z   2
loop_
 _symmetry_equiv_pos_site_id
 _symmetry_equiv_pos_as_xyz
  1  'x, y, z'
loop_
 _atom_site_type_symbol
 _atom_site_label
 _atom_site_symmetry_multiplicity
 _atom_site_fract_x
 _atom_site_fract_y
 _atom_site_fract_z
 _atom_site_occupancy
  Na  Na0  1  0.40602900  0.61018300  0.90223900  1
  Na  Na1  1  0.82660300  0.21451200  0.29284900  1
  Na  Na2  1  0.90414000  0.59919500  0.39791800  1
  Na  Na3  1  0.09586000  0.40080500  0.60208200  1
  Na  Na4  1  0.59397100  0.38981700  0.09776100  1
  Na  Na5  1  0.00000000  0.00000000  0.50000000  1
  Na  Na6  1  0.50000000  0.00000000  0.00000000  1
  Na  Na7  1  0.17339700  0.78548800  0.70715100  1
  W  W0  1  0.30637000  0.20800000  0.79509900  1
  W  W1  1  0.69363000  0.79200000  0.20490100  1
  O  O0  1  0.91581200  0.94095900  0.84416100  1
  O  O1  1  0.08418800  0.05904100  0.15583900  1
  O  O2  1  0.49099300  0.62024700  0.60066600  1
  O  O3  1  0.50900700  0.37975300  0.39933400  1
  O  O4  1  0.32174000  0.53647100  0.24176900  1
  O  O5  1  0.67826000  0.46352900  0.75823100  1
  O  O6  1  0.95930100  0.22731600  0.96342200  1
  O  O7  1  0.04069900  0.77268400  0.03657800  1
  O  O8  1  0.42615700  0.89449400  0.31448300  1
  O  O9  1  0.57384300  0.10550600  0.68551700  1
loop_
_geom_bond_atom_site_label_1
_geom_bond_atom_site_label_2
_geom_bond_distance
_geom_bond_site_symmetry_2
Na0 Na6 2.031267 1_566
Na0 W0 2.095425 1_555
Na0 O5 2.309578 1_555
Na0 W1 2.527679 1_556
Na0 O7 2.774714 1_556
Na1 W1 2.207873 1_545
Na1 O1 2.222879 1_655
Na1 O3 2.429310 1_555
Na1 Na6 2.550401 1_555
Na2 Na5 2.088770 1_665
Na2 O3 2.355580 1_555
Na2 W1 2.543120 1_555
Na3 Na5 2.088770 1_555
Na3 O2 2.355580 1_555
Na3 W0 2.543120 1_555
Na4 Na6 2.031267 1_555
Na4 W1 2.095425 1_555
Na4 O4 2.309578 1_555
Na4 W0 2.527679 1_554
Na4 O6 2.774714 1_554
Na5 W1 2.515360 1_445
Na5 W0 2.515360 1_555
Na6 Na7 2.550401 1_544
Na6 W1 2.643383 1_545
Na6 W0 2.643383 1_554
Na6 O7 2.810697 1_545
Na6 O6 2.810697 1_554
Na6 O0 2.987129 1_544
Na6 O1 2.987129 1_555
Na6 O9 3.051347 1_554
Na6 O8 3.051347 1_545
Na7 W0 2.207873 1_565
Na7 O0 2.222879 1_455
Na7 O2 2.429310 1_555
O0 O6 1.567855 1_565
O0 W0 2.629157 1_665
O1 O7 1.567855 1_545
O1 W1 2.629157 1_445
O4 W1 2.463635 1_555
O5 W0 2.463635 1_555
O6 W0 2.684794 1_655
O7 W1 2.684794 1_455
O8 W1 2.046834 1_555
O9 W0 2.046834 1_555
