# generated using pymatgen
data_VCrO3
_symmetry_space_group_name_H-M   'P 1'
_cell_length_a   5.11809900
_cell_length_b   5.50042667
_cell_length_c   8.82918951
_cell_angle_alpha   105.49564475
_cell_angle_beta   89.93937640
_cell_angle_gamma   117.65709477
_symmetry_Int_Tables_number   1
_chemical_formula_structural   VCrO3
_chemical_formula_sum   'V4 Cr4 O12'
_cell_volume   209.94192075
_cell_formula_units_Z   4
loop_
 _symmetry_equiv_pos_site_id
 _symmetry_equiv_pos_as_xyz
  1  'x, y, z'
loop_
 _atom_site_type_symbol
 _atom_site_label
 _atom_site_symmetry_multiplicity
 _atom_site_fract_x
 _atom_site_fract_y
 _atom_site_fract_z
 _atom_site_occupancy
  V  V0  1  0.27390400  0.70136800  0.42552200  1
  V  V1  1  0.78076000  0.70450600  0.92474600  1
  V  V2  1  0.47768500  0.29631400  0.82643200  1
  V  V3  1  0.72261200  0.29826100  0.57360500  1
  Cr  Cr0  1  0.97586500  0.30457200  0.32452600  1
  Cr  Cr1  1  0.02393100  0.69510600  0.67542700  1
  Cr  Cr2  1  0.52277000  0.69870400  0.17387700  1
  Cr  Cr3  1  0.22695500  0.30057400  0.07572800  1
  O  O0  1  0.52705100  0.19901400  0.27657700  1
  O  O1  1  0.02582200  0.19817300  0.77612500  1
  O  O2  1  0.57275400  0.49945500  0.62618400  1
  O  O3  1  0.93311400  0.49953200  0.87566600  1
  O  O4  1  0.47552600  0.20054900  0.02610500  1
  O  O5  1  0.97092800  0.19283800  0.52687100  1
  O  O6  1  0.02547500  0.80575400  0.47280400  1
  O  O7  1  0.52408800  0.80065500  0.97459200  1
  O  O8  1  0.07302400  0.50027700  0.12523400  1
  O  O9  1  0.42485100  0.50078700  0.37318400  1
  O  O10  1  0.97149100  0.80158700  0.22387300  1
  O  O11  1  0.47139200  0.80197100  0.72292200  1
loop_
_geom_bond_atom_site_label_1
_geom_bond_atom_site_label_2
_geom_bond_distance
_geom_bond_site_symmetry_2
Cr0 O9 2.020369 1_655
Cr0 O5 2.035254 1_555
Cr0 O0 2.103674 1_555
Cr0 O8 2.239528 1_655
Cr1 O2 2.030893 1_455
Cr1 O6 2.036729 1_555
Cr1 O11 2.094458 1_555
Cr1 O3 2.247041 1_455
Cr2 O7 1.983463 1_554
Cr2 O8 2.023233 1_555
Cr2 O10 2.109880 1_555
Cr2 O9 2.246805 1_555
Cr3 O8 1.601392 1_555
Cr3 O4 1.622651 1_555
O1 V2 2.133600 1_555
O2 V3 1.594108 1_555
O2 V2 2.271609 1_555
O3 V1 1.619052 1_555
O3 V2 2.048253 1_555
O4 V2 1.968840 1_554
O5 V3 1.636129 1_555
O6 V0 1.633756 1_555
O7 V1 1.648789 1_555
O9 V0 1.595536 1_555
O11 V2 2.611647 1_565
