# generated using pymatgen
data_Li4V5Sn3O16
_symmetry_space_group_name_H-M   'P 1'
_cell_length_a   6.10728306
_cell_length_b   6.10728306
_cell_length_c   9.64862646
_cell_angle_alpha   89.39901833
_cell_angle_beta   89.39901833
_cell_angle_gamma   59.54237067
_symmetry_Int_Tables_number   1
_chemical_formula_structural   Li4V5Sn3O16
_chemical_formula_sum   'Li4 V5 Sn3 O16'
_cell_volume   310.19821257
_cell_formula_units_Z   1
loop_
 _symmetry_equiv_pos_site_id
 _symmetry_equiv_pos_as_xyz
  1  'x, y, z'
loop_
 _atom_site_type_symbol
 _atom_site_label
 _atom_site_symmetry_multiplicity
 _atom_site_fract_x
 _atom_site_fract_y
 _atom_site_fract_z
 _atom_site_occupancy
  Li  Li0  1  0.67400800  0.67400800  0.88914300  1
  Li  Li1  1  0.98798500  0.98798500  0.99054100  1
  Li  Li2  1  0.99249100  0.99249100  0.50167300  1
  Li  Li3  1  0.33445400  0.33445400  0.39516900  1
  V  V0  1  0.67516300  0.67516300  0.49468800  1
  V  V1  1  0.83185600  0.83185600  0.21358500  1
  V  V2  1  0.34197100  0.34197100  0.98289500  1
  V  V3  1  0.65369200  0.18086500  0.71185200  1
  V  V4  1  0.18086500  0.65369200  0.71185200  1
  Sn  Sn0  1  0.33948600  0.83187300  0.21360800  1
  Sn  Sn1  1  0.83187300  0.33948600  0.21360800  1
  Sn  Sn2  1  0.16977500  0.16977500  0.71409100  1
  O  O0  1  0.33739100  0.82212300  0.59907000  1
  O  O1  1  0.51942600  0.51942600  0.34846600  1
  O  O2  1  0.67088700  0.67088700  0.09600700  1
  O  O3  1  0.99607500  0.99607500  0.31687600  1
  O  O4  1  0.99264400  0.99264400  0.80536800  1
  O  O5  1  0.82212300  0.33739100  0.59907000  1
  O  O6  1  0.52692600  0.95979200  0.34287800  1
  O  O7  1  0.95979200  0.52692600  0.34287800  1
  O  O8  1  0.16109800  0.16109800  0.08926600  1
  O  O9  1  0.83166000  0.83166000  0.60608400  1
  O  O10  1  0.04581900  0.48775900  0.84337300  1
  O  O11  1  0.48775900  0.04581900  0.84337300  1
  O  O12  1  0.33722100  0.33722100  0.59849800  1
  O  O13  1  0.15683200  0.66610500  0.10110800  1
  O  O14  1  0.47841900  0.47841900  0.84130700  1
  O  O15  1  0.66610500  0.15683200  0.10110800  1
loop_
_geom_bond_atom_site_label_1
_geom_bond_atom_site_label_2
_geom_bond_distance
_geom_bond_site_symmetry_2
Li0 O2 1.995828 1_556
Li0 O10 2.004028 1_655
Li0 O11 2.004028 1_565
Li0 O14 2.129899 1_555
Li1 O4 1.786751 1_555
Li1 O15 1.997462 1_566
Li1 O13 1.997462 1_656
Li1 O8 2.078073 1_666
Li2 O3 1.782983 1_555
Li2 O9 1.970048 1_555
Li2 O5 2.049816 1_565
Li2 O0 2.049816 1_655
Li3 O12 1.962419 1_555
Li3 O1 2.006943 1_555
Li3 O6 2.038867 1_545
Li3 O7 2.038867 1_455
O0 V4 2.026756 1_555
O0 V0 2.042955 1_555
O0 Sn2 2.147020 1_565
O1 Sn0 2.096182 1_555
O1 Sn1 2.096182 1_555
O1 V0 2.184766 1_555
O2 V1 2.060704 1_555
O2 Sn0 2.075673 1_555
O2 Sn1 2.075673 1_555
O3 V1 2.016601 1_555
O3 Sn0 2.059617 1_655
O3 Sn1 2.059617 1_565
O4 V3 2.006426 1_565
O4 V4 2.006426 1_655
O4 Sn2 2.064609 1_665
O5 V3 2.026756 1_555
O5 V0 2.042955 1_555
O5 Sn2 2.147020 1_655
O6 V1 2.032592 1_555
O6 V0 2.089449 1_555
O6 Sn0 2.105598 1_555
O7 V1 2.032592 1_555
O7 V0 2.089449 1_555
O7 Sn1 2.105598 1_555
O8 Sn0 2.103594 1_545
O8 Sn1 2.103594 1_455
O8 V2 2.164103 1_554
O9 V0 1.987823 1_555
O9 V4 2.107975 1_655
O9 V3 2.107975 1_565
O10 V4 2.028790 1_555
O10 V2 2.066313 1_555
O10 Sn2 2.107384 1_555
O11 V3 2.028790 1_555
O11 V2 2.066313 1_555
O11 Sn2 2.107384 1_555
O12 V4 1.998755 1_555
O12 V3 1.998755 1_555
O12 Sn2 2.085158 1_555
O13 V1 2.020552 1_455
O13 V2 2.061376 1_554
O13 Sn0 2.154287 1_555
O14 V2 1.977734 1_555
O14 V3 2.013915 1_555
O14 V4 2.013915 1_555
O15 V1 2.020552 1_545
O15 V2 2.061376 1_554
O15 Sn1 2.154287 1_555
