# generated using pymatgen
data_Tm2AgIr
_symmetry_space_group_name_H-M   'P 1'
_cell_length_a   4.87091230
_cell_length_b   4.87091157
_cell_length_c   4.87091302
_cell_angle_alpha   60.00001983
_cell_angle_beta   60.00000499
_cell_angle_gamma   60.00003453
_symmetry_Int_Tables_number   1
_chemical_formula_structural   Tm2AgIr
_chemical_formula_sum   'Tm2 Ag1 Ir1'
_cell_volume   81.71769837
_cell_formula_units_Z   1
loop_
 _symmetry_equiv_pos_site_id
 _symmetry_equiv_pos_as_xyz
  1  'x, y, z'
loop_
 _atom_site_type_symbol
 _atom_site_label
 _atom_site_symmetry_multiplicity
 _atom_site_fract_x
 _atom_site_fract_y
 _atom_site_fract_z
 _atom_site_occupancy
  Tm  Tm0  1  -0.00000000  -0.00000000  0.00000000  1
  Tm  Tm1  1  0.50000100  0.50000100  0.50000100  1
  Ag  Ag0  1  0.25000000  0.25000000  0.25000000  1
  Ir  Ir0  1  0.75000000  0.75000000  0.75000000  1
loop_
_geom_bond_atom_site_label_1
_geom_bond_atom_site_label_2
_geom_bond_distance
_geom_bond_site_symmetry_2
Ag0 Tm1 2.982809 1_554
Ag0 Tm1 2.982809 1_455
Ag0 Tm1 2.982809 1_545
Ag0 Tm0 2.982812 1_555
Ag0 Tm0 2.982813 1_556
Ag0 Tm0 2.982813 1_655
Ag0 Tm0 2.982813 1_565
Ag0 Tm1 2.982824 1_555
Ir0 Tm1 2.982800 1_555
Ir0 Tm0 2.982812 1_666
Ir0 Tm0 2.982813 1_665
Ir0 Tm0 2.982813 1_566
Ir0 Tm0 2.982813 1_656
Ir0 Tm1 2.982817 1_565
Ir0 Tm1 2.982817 1_655
Ir0 Tm1 2.982817 1_556
