# generated using pymatgen
data_Tm3ReB7
_symmetry_space_group_name_H-M   'P 1'
_cell_length_a   7.97255815
_cell_length_b   7.97255815
_cell_length_c   9.26778776
_cell_angle_alpha   90.00000000
_cell_angle_beta   90.00000000
_cell_angle_gamma   154.80090764
_symmetry_Int_Tables_number   1
_chemical_formula_structural   Tm3ReB7
_chemical_formula_sum   'Tm6 Re2 B14'
_cell_volume   250.80800007
_cell_formula_units_Z   2
loop_
 _symmetry_equiv_pos_site_id
 _symmetry_equiv_pos_as_xyz
  1  'x, y, z'
loop_
 _atom_site_type_symbol
 _atom_site_label
 _atom_site_symmetry_multiplicity
 _atom_site_fract_x
 _atom_site_fract_y
 _atom_site_fract_z
 _atom_site_occupancy
  Tm  Tm0  1  0.89438626  0.10561374  0.05927904  1
  Tm  Tm1  1  0.10561374  0.89438626  0.55927904  1
  Tm  Tm2  1  0.10561374  0.89438626  0.94072096  1
  Tm  Tm3  1  0.89438626  0.10561374  0.44072096  1
  Tm  Tm4  1  0.24295390  0.75704610  0.25000000  1
  Tm  Tm5  1  0.75704610  0.24295390  0.75000000  1
  Re  Re0  1  0.05286665  0.94713335  0.25000000  1
  Re  Re1  1  0.94713335  0.05286665  0.75000000  1
  B  B0  1  0.45344836  0.54655164  0.25000000  1
  B  B1  1  0.54655164  0.45344836  0.75000000  1
  B  B2  1  0.72766965  0.27233035  0.03439758  1
  B  B3  1  0.27233035  0.72766965  0.53439758  1
  B  B4  1  0.27233035  0.72766965  0.96560242  1
  B  B5  1  0.72766965  0.27233035  0.46560242  1
  B  B6  1  0.63268924  0.36731076  0.35055993  1
  B  B7  1  0.36731076  0.63268924  0.85055993  1
  B  B8  1  0.36731076  0.63268924  0.64944007  1
  B  B9  1  0.63268924  0.36731076  0.14944007  1
  B  B10  1  0.51946557  0.48053443  0.40565835  1
  B  B11  1  0.48053443  0.51946557  0.90565835  1
  B  B12  1  0.48053443  0.51946557  0.59434165  1
  B  B13  1  0.51946557  0.48053443  0.09434165  1
loop_
_geom_bond_atom_site_label_1
_geom_bond_atom_site_label_2
_geom_bond_distance
_geom_bond_site_symmetry_2
Re0 Tm4 2.957973 1_555
Re1 Tm5 2.957973 1_555
B0 B13 1.771008 1_555
B0 B10 1.771008 1_555
B0 Re0 2.327630 1_655
B0 Re0 2.327630 1_545
B0 Tm3 2.644510 1_565
B0 Tm0 2.644510 1_565
B0 Tm0 2.644510 1_455
B0 Tm3 2.644510 1_455
B0 Tm4 3.275532 1_555
B1 B12 1.771008 1_555
B1 B11 1.771008 1_555
B1 Re1 2.327630 1_565
B1 Re1 2.327630 1_455
B1 Tm2 2.644510 1_655
B1 Tm1 2.644510 1_655
B1 Tm2 2.644510 1_545
B1 Tm1 2.644510 1_545
B1 Tm5 3.275532 1_555
B2 B9 1.822430 1_555
B2 B4 1.978372 1_654
B2 B4 1.978372 1_544
B2 Tm0 2.604528 1_555
B2 Tm4 2.659636 1_545
B2 Tm4 2.659636 1_655
B2 Tm5 2.675084 1_554
B2 Tm2 2.717653 1_544
B2 Tm2 2.717653 1_654
B3 B8 1.822430 1_555
B3 B5 1.978372 1_455
B3 B5 1.978372 1_565
B3 Tm1 2.604528 1_555
B3 Tm5 2.659636 1_455
B3 Tm5 2.659636 1_565
B3 Tm4 2.675084 1_555
B3 Tm3 2.717653 1_455
B3 Tm3 2.717653 1_565
B4 B7 1.822430 1_555
B4 Tm2 2.604528 1_555
B4 Tm5 2.659636 1_455
B4 Tm5 2.659636 1_565
B4 Tm4 2.675084 1_556
B4 Tm0 2.717653 1_456
B4 Tm0 2.717653 1_566
B5 B6 1.822430 1_555
B5 Tm3 2.604528 1_555
B5 Tm4 2.659636 1_545
B5 Tm4 2.659636 1_655
B5 Tm5 2.675084 1_555
B5 Tm1 2.717653 1_545
B5 Tm1 2.717653 1_655
B6 B9 1.863936 1_555
B6 Re0 2.331505 1_545
B6 Re0 2.331505 1_655
B6 Tm4 2.614793 1_545
B6 Tm4 2.614793 1_655
B6 Tm1 2.635098 1_545
B6 Tm1 2.635098 1_655
B7 B8 1.863936 1_555
B7 Re1 2.331505 1_455
B7 Re1 2.331505 1_565
B7 Tm5 2.614793 1_455
B7 Tm5 2.614793 1_565
B7 Tm0 2.635098 1_566
B7 Tm0 2.635098 1_456
B8 Re1 2.331505 1_455
B8 Re1 2.331505 1_565
B8 Tm5 2.614793 1_455
B8 Tm5 2.614793 1_565
B8 Tm3 2.635098 1_565
B8 Tm3 2.635098 1_455
B9 Re0 2.331505 1_545
B9 Re0 2.331505 1_655
B9 Tm4 2.614793 1_545
B9 Tm4 2.614793 1_655
B9 Tm2 2.635098 1_544
B9 Tm2 2.635098 1_654
B10 B6 1.834395 1_555
B10 B12 1.850643 1_555
B10 Re0 2.318562 1_655
B10 Re0 2.318562 1_545
B10 Tm1 2.616976 1_655
B10 Tm1 2.616976 1_545
B10 Tm3 2.630292 1_565
B10 Tm3 2.630292 1_455
B11 B7 1.834395 1_555
B11 B13 1.850643 1_556
B11 Re1 2.318562 1_565
B11 Re1 2.318562 1_455
B11 Tm0 2.616976 1_456
B11 Tm0 2.616976 1_566
B11 Tm2 2.630292 1_655
B11 Tm2 2.630292 1_545
B12 B8 1.834395 1_555
B12 Re1 2.318562 1_565
B12 Re1 2.318562 1_455
B12 Tm3 2.616976 1_565
B12 Tm3 2.616976 1_455
B12 Tm1 2.630292 1_655
B12 Tm1 2.630292 1_545
B13 B9 1.834395 1_555
B13 Re0 2.318562 1_655
B13 Re0 2.318562 1_545
B13 Tm2 2.616976 1_654
B13 Tm2 2.616976 1_544
B13 Tm0 2.630292 1_565
B13 Tm0 2.630292 1_455
