# generated using pymatgen
data_HfPaTc2
_symmetry_space_group_name_H-M   'P 1'
_cell_length_a   4.73097382
_cell_length_b   4.73097382
_cell_length_c   4.73097382
_cell_angle_alpha   60.00000000
_cell_angle_beta   60.00000000
_cell_angle_gamma   60.00000000
_symmetry_Int_Tables_number   1
_chemical_formula_structural   HfPaTc2
_chemical_formula_sum   'Hf1 Pa1 Tc2'
_cell_volume   74.87496573
_cell_formula_units_Z   1
loop_
 _symmetry_equiv_pos_site_id
 _symmetry_equiv_pos_as_xyz
  1  'x, y, z'
loop_
 _atom_site_type_symbol
 _atom_site_label
 _atom_site_symmetry_multiplicity
 _atom_site_fract_x
 _atom_site_fract_y
 _atom_site_fract_z
 _atom_site_occupancy
  Hf  Hf0  1  0.24999900  0.24999900  0.24999900  1
  Pa  Pa0  1  0.75000100  0.75000100  0.75000100  1
  Tc  Tc0  1  0.50000000  0.50000000  0.50000000  1
  Tc  Tc1  1  0.00000000  -0.00000000  0.00000000  1
loop_
_geom_bond_atom_site_label_1
_geom_bond_atom_site_label_2
_geom_bond_distance
_geom_bond_site_symmetry_2
Hf0 Tc1 2.897106 1_555
Hf0 Tc0 2.897114 1_545
Hf0 Tc0 2.897114 1_455
Hf0 Tc0 2.897114 1_554
Hf0 Tc1 2.897122 1_556
Hf0 Tc1 2.897122 1_565
Hf0 Tc1 2.897122 1_655
Hf0 Tc0 2.897130 1_555
Pa0 Tc1 2.897106 1_666
Pa0 Tc0 2.897114 1_565
Pa0 Tc0 2.897114 1_655
Pa0 Tc0 2.897114 1_556
Pa0 Tc1 2.897122 1_665
Pa0 Tc1 2.897122 1_566
Pa0 Tc1 2.897122 1_656
Pa0 Tc0 2.897130 1_555
