# generated using pymatgen
data_PmSi3
_symmetry_space_group_name_H-M   'P 1'
_cell_length_a   6.12926892
_cell_length_b   6.12900715
_cell_length_c   4.65379367
_cell_angle_alpha   90.00000000
_cell_angle_beta   90.00000000
_cell_angle_gamma   119.99964536
_symmetry_Int_Tables_number   1
_chemical_formula_structural   PmSi3
_chemical_formula_sum   'Pm2 Si6'
_cell_volume   151.40426626
_cell_formula_units_Z   2
loop_
 _symmetry_equiv_pos_site_id
 _symmetry_equiv_pos_as_xyz
  1  'x, y, z'
loop_
 _atom_site_type_symbol
 _atom_site_label
 _atom_site_symmetry_multiplicity
 _atom_site_fract_x
 _atom_site_fract_y
 _atom_site_fract_z
 _atom_site_occupancy
  Pm  Pm0  1  0.66664238  0.33331112  0.25000000  1
  Pm  Pm1  1  0.33335762  0.66668888  0.75000100  1
  Si  Si0  1  0.86552689  0.13450632  0.75000100  1
  Si  Si1  1  0.26897153  0.13449374  0.75000100  1
  Si  Si2  1  0.86551343  0.73101235  0.75000100  1
  Si  Si3  1  0.13447411  0.86549368  0.25000000  1
  Si  Si4  1  0.73102947  0.86550626  0.25000000  1
  Si  Si5  1  0.13448757  0.26898765  0.25000000  1
loop_
_geom_bond_atom_site_label_1
_geom_bond_atom_site_label_2
_geom_bond_distance
_geom_bond_site_symmetry_2
Pm0 Si4 3.083500 1_545
Pm0 Si4 3.083507 1_555
Pm0 Si3 3.083535 1_545
Pm0 Si5 3.083563 1_555
Pm0 Si3 3.083589 1_655
Pm0 Si5 3.083626 1_655
Pm0 Si1 3.141698 1_554
Pm0 Si1 3.141704 1_555
Pm0 Si0 3.141726 1_554
Pm0 Si0 3.141732 1_555
Pm0 Si2 3.141745 1_554
Pm0 Si2 3.141752 1_555
Pm1 Si1 3.083496 1_565
Pm1 Si1 3.083509 1_555
Pm1 Si0 3.083539 1_565
Pm1 Si2 3.083569 1_555
Pm1 Si0 3.083587 1_455
Pm1 Si2 3.083620 1_455
Pm1 Si4 3.141701 1_556
Pm1 Si4 3.141708 1_555
Pm1 Si3 3.141722 1_556
Pm1 Si3 3.141729 1_555
Pm1 Si5 3.141745 1_556
Pm1 Si5 3.141752 1_555
Si0 Si1 2.472859 1_655
Si0 Si2 2.472976 1_545
Si0 Si5 2.729961 1_656
Si0 Si5 2.729969 1_655
Si0 Si4 2.730038 1_546
Si0 Si4 2.730046 1_545
Si1 Si2 2.472935 1_445
Si1 Si5 2.729989 1_556
Si1 Si5 2.729996 1_555
Si1 Si3 2.730038 1_546
Si1 Si3 2.730046 1_545
Si2 Si3 2.729961 1_656
Si2 Si3 2.729969 1_655
Si2 Si4 2.729989 1_556
Si2 Si4 2.729996 1_555
Si3 Si4 2.472859 1_455
Si3 Si5 2.472976 1_565
Si4 Si5 2.472935 1_665
