# generated using pymatgen
data_Li2Si5Ni2O13
_symmetry_space_group_name_H-M   'P 1'
_cell_length_a   7.53701400
_cell_length_b   7.65593695
_cell_length_c   9.77943784
_cell_angle_alpha   83.58276788
_cell_angle_beta   111.84128848
_cell_angle_gamma   108.24908308
_symmetry_Int_Tables_number   1
_chemical_formula_structural   Li2Si5Ni2O13
_chemical_formula_sum   'Li4 Si10 Ni4 O26'
_cell_volume   497.44331430
_cell_formula_units_Z   2
loop_
 _symmetry_equiv_pos_site_id
 _symmetry_equiv_pos_as_xyz
  1  'x, y, z'
loop_
 _atom_site_type_symbol
 _atom_site_label
 _atom_site_symmetry_multiplicity
 _atom_site_fract_x
 _atom_site_fract_y
 _atom_site_fract_z
 _atom_site_occupancy
  Li  Li0  1  0.21106000  0.92867700  0.15061800  1
  Li  Li1  1  0.15512700  0.60011700  0.25956800  1
  Li  Li2  1  0.84487300  0.39988300  0.74043200  1
  Li  Li3  1  0.78894000  0.07132300  0.84938200  1
  Si  Si0  1  0.16487700  0.78348500  0.74295100  1
  Si  Si1  1  0.20827000  0.30725100  0.95247900  1
  Si  Si2  1  0.31115500  0.54625300  0.59425600  1
  Si  Si3  1  0.25047600  0.24294000  0.26861200  1
  Si  Si4  1  0.62043100  0.29199500  0.94812900  1
  Si  Si5  1  0.37956900  0.70800500  0.05187100  1
  Si  Si6  1  0.74952400  0.75706000  0.73138800  1
  Si  Si7  1  0.68884500  0.45374700  0.40574400  1
  Si  Si8  1  0.79173000  0.69274900  0.04752100  1
  Si  Si9  1  0.83512300  0.21651500  0.25704900  1
  Ni  Ni0  1  0.03838700  0.85551400  0.40192600  1
  Ni  Ni1  1  0.41288500  0.16886500  0.59478900  1
  Ni  Ni2  1  0.58711500  0.83113500  0.40521100  1
  Ni  Ni3  1  0.96161300  0.14448600  0.59807400  1
  O  O0  1  0.01404700  0.22428900  0.81068900  1
  O  O1  1  0.16604000  0.95345100  0.62544900  1
  O  O2  1  0.31199900  0.84934500  0.91339300  1
  O  O3  1  0.22081500  0.61107100  0.70379100  1
  O  O4  1  0.06088400  0.31553100  0.25097600  1
  O  O5  1  0.40900200  0.32103500  0.92481200  1
  O  O6  1  0.21807200  0.32340600  0.57118000  1
  O  O7  1  0.28804900  0.68523400  0.45500600  1
  O  O8  1  0.55480500  0.57799600  0.68539000  1
  O  O9  1  0.38337700  0.78501500  0.19997900  1
  O  O10  1  0.20958800  0.50556300  0.00338300  1
  O  O11  1  0.27465700  0.07169600  0.38080500  1
  O  O12  1  0.20913000  0.17274000  0.10074900  1
  O  O13  1  0.79087000  0.82726000  0.89925100  1
  O  O14  1  0.72534300  0.92830400  0.61919500  1
  O  O15  1  0.79041200  0.49443700  0.99661700  1
  O  O16  1  0.61662300  0.21498500  0.80002100  1
  O  O17  1  0.44519500  0.42200400  0.31461000  1
  O  O18  1  0.71195100  0.31476600  0.54499400  1
  O  O19  1  0.78192800  0.67659400  0.42882000  1
  O  O20  1  0.59099800  0.67896500  0.07518800  1
  O  O21  1  0.93911600  0.68446900  0.74902400  1
  O  O22  1  0.77918500  0.38892900  0.29620900  1
  O  O23  1  0.68800100  0.15065500  0.08660700  1
  O  O24  1  0.83396000  0.04654900  0.37455100  1
  O  O25  1  0.98595300  0.77571100  0.18931100  1
loop_
_geom_bond_atom_site_label_1
_geom_bond_atom_site_label_2
_geom_bond_distance
_geom_bond_site_symmetry_2
Li0 O9 1.854444 1_555
Li0 O25 1.878152 1_455
Li0 O12 1.880826 1_565
Li0 O11 2.432182 1_565
Li1 O7 1.877787 1_555
Li1 O25 2.029859 1_455
Li1 O4 2.070242 1_555
Li1 O9 2.083099 1_555
Li2 O18 1.877787 1_555
Li2 O0 2.029859 1_655
Li2 O21 2.070242 1_555
Li2 O16 2.083099 1_555
Li3 O16 1.854444 1_555
Li3 O0 1.878152 1_655
Li3 O13 1.880826 1_545
Li3 O14 2.432182 1_545
Ni0 O11 2.074719 1_565
Ni0 O19 2.078757 1_455
Ni0 O25 2.091434 1_455
Ni0 O1 2.148452 1_555
Ni0 O24 2.366768 1_465
Ni0 O7 2.483563 1_555
Ni1 O16 2.009116 1_555
Ni1 O11 2.063578 1_555
Ni1 O6 2.093756 1_555
Ni1 O1 2.157311 1_545
Ni1 O18 2.384093 1_555
Ni2 O9 2.009116 1_555
Ni2 O14 2.063578 1_555
Ni2 O19 2.093756 1_555
Ni2 O24 2.157311 1_565
Ni2 O7 2.384093 1_555
Ni3 O14 2.074719 1_545
Ni3 O6 2.078757 1_655
Ni3 O0 2.091434 1_655
Ni3 O24 2.148452 1_555
Ni3 O1 2.366768 1_645
Ni3 O18 2.483563 1_555
O0 Si1 1.604137 1_555
O1 Si0 1.637031 1_555
O2 Si0 1.650626 1_555
O2 Si5 1.663922 1_556
O3 Si0 1.627411 1_555
O3 Si2 1.652413 1_555
O4 Si3 1.634960 1_555
O4 Si9 1.652507 1_455
O5 Si1 1.603583 1_555
O5 Si4 1.606546 1_555
O6 Si2 1.634787 1_555
O7 Si2 1.622542 1_555
O8 Si6 1.619300 1_555
O8 Si2 1.666378 1_555
O9 Si5 1.611116 1_555
O10 Si1 1.645864 1_554
O10 Si5 1.654386 1_555
O11 Si3 1.623315 1_555
O12 Si3 1.671081 1_555
O12 Si1 1.681201 1_554
O13 Si6 1.671081 1_555
O13 Si8 1.681201 1_556
O14 Si6 1.623315 1_555
O15 Si8 1.645864 1_556
O15 Si4 1.654386 1_555
O16 Si4 1.611116 1_555
O17 Si3 1.619300 1_555
O17 Si7 1.666378 1_555
O18 Si7 1.622542 1_555
O19 Si7 1.634787 1_555
O20 Si8 1.603583 1_555
O20 Si5 1.606546 1_555
O21 Si6 1.634960 1_555
O21 Si0 1.652507 1_655
O22 Si9 1.627411 1_555
O22 Si7 1.652413 1_555
O23 Si9 1.650626 1_555
O23 Si4 1.663922 1_554
O24 Si9 1.637031 1_555
O25 Si8 1.604137 1_555
