# generated using pymatgen
data_Nd2Si3Rh
_symmetry_space_group_name_H-M   'P 1'
_cell_length_a   8.18735655
_cell_length_b   8.18735740
_cell_length_c   8.42889057
_cell_angle_alpha   90.00000000
_cell_angle_beta   90.00000000
_cell_angle_gamma   120.00004062
_symmetry_Int_Tables_number   1
_chemical_formula_structural   Nd2Si3Rh
_chemical_formula_sum   'Nd8 Si12 Rh4'
_cell_volume   489.31476696
_cell_formula_units_Z   4
loop_
 _symmetry_equiv_pos_site_id
 _symmetry_equiv_pos_as_xyz
  1  'x, y, z'
loop_
 _atom_site_type_symbol
 _atom_site_label
 _atom_site_symmetry_multiplicity
 _atom_site_fract_x
 _atom_site_fract_y
 _atom_site_fract_z
 _atom_site_occupancy
  Nd  Nd0  1  0.00248147  0.50123974  0.75000000  1
  Nd  Nd1  1  0.50123094  0.00246487  0.25000000  1
  Nd  Nd2  1  0.50123394  0.49876906  0.25000000  1
  Nd  Nd3  1  0.99753513  0.49876606  0.25000000  1
  Nd  Nd4  1  0.49875826  0.99751853  0.75000000  1
  Nd  Nd5  1  0.49876026  0.50124174  0.75000000  1
  Nd  Nd6  1  0.00000000  -0.00000000  0.75000000  1
  Nd  Nd7  1  0.00000000  -0.00000000  0.25000000  1
  Si  Si0  1  0.83282271  0.16717629  0.50002421  1
  Si  Si1  1  0.83282271  0.66564643  0.50002421  1
  Si  Si2  1  0.33435357  0.16717729  0.50002421  1
  Si  Si3  1  0.16717388  0.33434776  0.49997533  1
  Si  Si4  1  0.33435357  0.16717729  0.99997579  1
  Si  Si5  1  0.83282271  0.16717629  0.99997579  1
  Si  Si6  1  0.83282271  0.66564643  0.99997579  1
  Si  Si7  1  0.16717388  0.33434776  0.00002467  1
  Si  Si8  1  0.66565224  0.83282612  0.00002467  1
  Si  Si9  1  0.66565224  0.83282612  0.49997533  1
  Si  Si10  1  0.16717388  0.83282612  0.49997533  1
  Si  Si11  1  0.16717388  0.83282612  0.00002467  1
  Rh  Rh0  1  0.66666700  0.33333300  0.99596462  1
  Rh  Rh1  1  0.33333300  0.66666700  0.00404160  1
  Rh  Rh2  1  0.33333300  0.66666700  0.49595840  1
  Rh  Rh3  1  0.66666700  0.33333300  0.50403538  1
loop_
_geom_bond_atom_site_label_1
_geom_bond_atom_site_label_2
_geom_bond_distance
_geom_bond_site_symmetry_2
Nd0 Rh3 3.157171 1_455
Nd0 Rh0 3.157171 1_455
Nd0 Si7 3.157364 1_556
Nd0 Si3 3.157364 1_555
Nd0 Si11 3.157374 1_556
Nd0 Si10 3.157374 1_555
Nd0 Si5 3.170260 1_455
Nd0 Si0 3.170260 1_455
Nd0 Si1 3.170272 1_455
Nd0 Si6 3.170272 1_455
Nd0 Rh2 3.176210 1_555
Nd0 Rh1 3.176210 1_556
Nd1 Rh1 3.157048 1_545
Nd1 Rh2 3.157048 1_545
Nd1 Si4 3.157390 1_554
Nd1 Si2 3.157390 1_555
Nd1 Si5 3.157399 1_554
Nd1 Si0 3.157399 1_555
Nd1 Si10 3.170223 1_545
Nd1 Si11 3.170223 1_545
Nd1 Si9 3.170240 1_545
Nd1 Si8 3.170240 1_545
Nd1 Rh3 3.176262 1_555
Nd1 Rh0 3.176262 1_554
Nd2 Rh1 3.157054 1_555
Nd2 Rh2 3.157054 1_555
Nd2 Si1 3.157383 1_555
Nd2 Si6 3.157383 1_554
Nd2 Si2 3.157399 1_555
Nd2 Si4 3.157399 1_554
Nd2 Si9 3.170223 1_555
Nd2 Si8 3.170223 1_555
Nd2 Si3 3.170239 1_555
Nd2 Si7 3.170239 1_555
Nd2 Rh0 3.176268 1_554
Nd2 Rh3 3.176268 1_555
Nd3 Rh1 3.157047 1_655
Nd3 Rh2 3.157047 1_655
Nd3 Si0 3.157389 1_555
Nd3 Si5 3.157389 1_554
Nd3 Si6 3.157406 1_554
Nd3 Si1 3.157406 1_555
Nd3 Si3 3.170224 1_655
Nd3 Si7 3.170224 1_655
Nd3 Si10 3.170239 1_655
Nd3 Si11 3.170239 1_655
Nd3 Rh0 3.176261 1_554
Nd3 Rh3 3.176261 1_555
Nd4 Rh3 3.157171 1_565
Nd4 Rh0 3.157171 1_565
Nd4 Si11 3.157363 1_556
Nd4 Si10 3.157363 1_555
Nd4 Si8 3.157375 1_556
Nd4 Si9 3.157375 1_555
Nd4 Si2 3.170261 1_565
Nd4 Si4 3.170261 1_565
Nd4 Si0 3.170265 1_565
Nd4 Si5 3.170265 1_565
Nd4 Rh2 3.176210 1_555
Nd4 Rh1 3.176210 1_556
Nd5 Rh3 3.157177 1_555
Nd5 Rh0 3.157177 1_555
Nd5 Si9 3.157363 1_555
Nd5 Si8 3.157363 1_556
Nd5 Si7 3.157374 1_556
Nd5 Si3 3.157374 1_555
Nd5 Si6 3.170255 1_555
Nd5 Si1 3.170255 1_555
Nd5 Si2 3.170266 1_555
Nd5 Si4 3.170266 1_555
Nd5 Rh2 3.176216 1_555
Nd5 Rh1 3.176216 1_556
Nd6 Si2 3.171725 1_555
Nd6 Si4 3.171725 1_555
Nd6 Si6 3.171725 1_445
Nd6 Si1 3.171725 1_445
Nd6 Si0 3.171726 1_455
Nd6 Si5 3.171726 1_455
Nd6 Si8 3.171968 1_446
Nd6 Si9 3.171968 1_445
Nd6 Si7 3.171968 1_556
Nd6 Si3 3.171968 1_555
Nd6 Si11 3.171969 1_546
Nd6 Si10 3.171969 1_545
Nd7 Si8 3.171691 1_445
Nd7 Si9 3.171691 1_445
Nd7 Si3 3.171691 1_555
Nd7 Si7 3.171691 1_555
Nd7 Si10 3.171692 1_545
Nd7 Si11 3.171692 1_545
Nd7 Si4 3.171996 1_554
Nd7 Si2 3.171996 1_555
Nd7 Si1 3.171996 1_445
Nd7 Si6 3.171996 1_444
Nd7 Si5 3.171997 1_454
Nd7 Si0 3.171997 1_455
Si0 Si9 2.370695 1_545
Si0 Si3 2.370702 1_655
Si1 Si9 2.370697 1_555
Si1 Si10 2.370702 1_655
Si2 Si3 2.370697 1_555
Si4 Si7 2.370697 1_556
Si5 Si8 2.370695 1_546
Si5 Si7 2.370702 1_656
Si6 Si8 2.370697 1_556
Si10 Si2 2.370702 1_565
Si11 Si6 2.370702 1_454
Si11 Si4 2.370702 1_564
Rh0 Si5 2.356491 1_555
Rh0 Si4 2.356496 1_555
Rh0 Si6 2.356497 1_555
Rh1 Si11 2.356533 1_555
Rh1 Si8 2.356538 1_555
Rh1 Si7 2.356538 1_555
Rh2 Si10 2.356533 1_555
Rh2 Si9 2.356538 1_555
Rh2 Si3 2.356538 1_555
Rh3 Si0 2.356491 1_555
Rh3 Si2 2.356496 1_555
Rh3 Si1 2.356497 1_555
