# generated using pymatgen
data_Ca2PN3
_symmetry_space_group_name_H-M   'P 1'
_cell_length_a   5.77472997
_cell_length_b   5.77472997
_cell_length_c   11.27488282
_cell_angle_alpha   90.00000000
_cell_angle_beta   90.00000000
_cell_angle_gamma   126.65340592
_symmetry_Int_Tables_number   1
_chemical_formula_structural   Ca2PN3
_chemical_formula_sum   'Ca8 P4 N12'
_cell_volume   301.64163447
_cell_formula_units_Z   4
loop_
 _symmetry_equiv_pos_site_id
 _symmetry_equiv_pos_as_xyz
  1  'x, y, z'
loop_
 _atom_site_type_symbol
 _atom_site_label
 _atom_site_symmetry_multiplicity
 _atom_site_fract_x
 _atom_site_fract_y
 _atom_site_fract_z
 _atom_site_occupancy
  Ca  Ca0  1  0.36238648  0.63761352  0.07396678  1
  Ca  Ca1  1  0.86238648  0.13761352  0.42603322  1
  Ca  Ca2  1  0.13761352  0.86238648  0.57396678  1
  Ca  Ca3  1  0.63761352  0.36238648  0.92603322  1
  Ca  Ca4  1  0.44740171  0.55259829  0.64231613  1
  Ca  Ca5  1  0.55259829  0.44740171  0.35768387  1
  Ca  Ca6  1  0.05259829  0.94740171  0.14231613  1
  Ca  Ca7  1  0.94740171  0.05259829  0.85768387  1
  P  P0  1  0.75543605  0.24456395  0.66556405  1
  P  P1  1  0.74456395  0.25543605  0.16556405  1
  P  P2  1  0.24456395  0.75543605  0.33443595  1
  P  P3  1  0.25543605  0.74456395  0.83443595  1
  N  N0  1  0.96175036  0.53824964  0.75000000  1
  N  N1  1  0.53824964  0.96175036  0.25000000  1
  N  N2  1  0.03824964  0.46175036  0.25000000  1
  N  N3  1  0.46175036  0.03824964  0.75000000  1
  N  N4  1  0.41059161  0.58940839  0.85944607  1
  N  N5  1  0.58940839  0.41059161  0.14055393  1
  N  N6  1  0.08940839  0.91059161  0.35944607  1
  N  N7  1  0.66059676  0.33940324  0.55111953  1
  N  N8  1  0.16059676  0.83940324  0.94888047  1
  N  N9  1  0.83940324  0.16059676  0.05111953  1
  N  N10  1  0.33940324  0.66059676  0.44888047  1
  N  N11  1  0.91059161  0.08940839  0.64055393  1
loop_
_geom_bond_atom_site_label_1
_geom_bond_atom_site_label_2
_geom_bond_distance
_geom_bond_site_symmetry_2
Ca0 N5 2.460298 1_555
Ca0 N4 2.469330 1_554
Ca0 N2 2.490914 1_555
Ca0 N1 2.490914 1_555
Ca0 N8 2.515161 1_554
Ca0 N9 2.615835 1_565
Ca0 N9 2.615835 1_455
Ca1 N6 2.460298 1_645
Ca1 N11 2.469330 1_555
Ca1 N1 2.490914 1_545
Ca1 N2 2.490914 1_655
Ca1 N7 2.515161 1_555
Ca1 N10 2.615835 1_655
Ca1 N10 2.615835 1_545
Ca2 N11 2.460298 1_465
Ca2 N6 2.469330 1_555
Ca2 N0 2.490914 1_455
Ca2 N3 2.490914 1_565
Ca2 N10 2.515161 1_555
Ca2 N7 2.615835 1_455
Ca2 N7 2.615835 1_565
Ca3 N4 2.460298 1_555
Ca3 N5 2.469330 1_556
Ca3 N3 2.490914 1_555
Ca3 N0 2.490914 1_555
Ca3 N9 2.515161 1_556
Ca3 N8 2.615835 1_655
Ca3 N8 2.615835 1_545
Ca4 N7 2.428656 1_555
Ca4 N10 2.449266 1_555
Ca4 N4 2.477415 1_555
Ca4 N11 2.620055 1_565
Ca4 N11 2.620055 1_455
Ca5 N10 2.428656 1_555
Ca5 N7 2.449266 1_555
Ca5 N5 2.477415 1_555
Ca5 N6 2.620055 1_655
Ca5 N6 2.620055 1_545
Ca6 N9 2.428656 1_465
Ca6 N8 2.449266 1_554
Ca6 N6 2.477415 1_555
Ca6 N5 2.620055 1_565
Ca6 N5 2.620055 1_455
Ca7 N8 2.428656 1_645
Ca7 N9 2.449266 1_556
Ca7 N11 2.477415 1_555
Ca7 N4 2.620055 1_655
Ca7 N4 2.620055 1_545
N0 P0 1.670202 1_555
N0 P3 1.670202 1_655
N1 P2 1.670202 1_555
N1 P1 1.670202 1_565
N2 P2 1.670202 1_555
N2 P1 1.670202 1_455
N3 P3 1.670202 1_545
N3 P0 1.670202 1_555
N4 P3 1.625903 1_555
N5 P1 1.625903 1_555
N6 P2 1.625903 1_555
N7 P0 1.619569 1_555
N8 P3 1.619569 1_555
N9 P1 1.619569 1_555
N10 P2 1.619569 1_555
N11 P0 1.625903 1_555
