# generated using pymatgen
data_PuSnAu2
_symmetry_space_group_name_H-M   'P 1'
_cell_length_a   5.00793195
_cell_length_b   5.00793195
_cell_length_c   5.00793195
_cell_angle_alpha   60.00000000
_cell_angle_beta   60.00000000
_cell_angle_gamma   60.00000000
_symmetry_Int_Tables_number   1
_chemical_formula_structural   PuSnAu2
_chemical_formula_sum   'Pu1 Sn1 Au2'
_cell_volume   88.80967038
_cell_formula_units_Z   1
loop_
 _symmetry_equiv_pos_site_id
 _symmetry_equiv_pos_as_xyz
  1  'x, y, z'
loop_
 _atom_site_type_symbol
 _atom_site_label
 _atom_site_symmetry_multiplicity
 _atom_site_fract_x
 _atom_site_fract_y
 _atom_site_fract_z
 _atom_site_occupancy
  Pu  Pu0  1  0.25000100  0.25000100  0.25000100  1
  Sn  Sn0  1  0.75000100  0.75000100  0.75000100  1
  Au  Au0  1  -0.00000000  0.00000000  0.00000000  1
  Au  Au1  1  0.50000000  0.50000000  0.50000000  1
loop_
_geom_bond_atom_site_label_1
_geom_bond_atom_site_label_2
_geom_bond_distance
_geom_bond_site_symmetry_2
Au0 Sn0 3.066707 1_444
Au0 Pu0 3.066715 1_455
Au0 Pu0 3.066715 1_545
Au0 Pu0 3.066715 1_554
Au0 Sn0 3.066724 1_544
Au0 Sn0 3.066724 1_454
Au0 Sn0 3.066724 1_445
Au0 Pu0 3.066732 1_555
Au1 Pu0 3.066707 1_555
Au1 Sn0 3.066715 1_545
Au1 Sn0 3.066715 1_455
Au1 Sn0 3.066715 1_554
Au1 Pu0 3.066724 1_556
Au1 Pu0 3.066724 1_655
Au1 Pu0 3.066724 1_565
Au1 Sn0 3.066732 1_555
