# generated using pymatgen
data_Li3Ti2Cu3O10
_symmetry_space_group_name_H-M   'P 1'
_cell_length_a   5.13238304
_cell_length_b   5.31639157
_cell_length_c   7.72914503
_cell_angle_alpha   108.38343907
_cell_angle_beta   98.14914850
_cell_angle_gamma   104.26349796
_symmetry_Int_Tables_number   1
_chemical_formula_structural   Li3Ti2Cu3O10
_chemical_formula_sum   'Li3 Ti2 Cu3 O10'
_cell_volume   188.36091689
_cell_formula_units_Z   1
loop_
 _symmetry_equiv_pos_site_id
 _symmetry_equiv_pos_as_xyz
  1  'x, y, z'
loop_
 _atom_site_type_symbol
 _atom_site_label
 _atom_site_symmetry_multiplicity
 _atom_site_fract_x
 _atom_site_fract_y
 _atom_site_fract_z
 _atom_site_occupancy
  Li  Li0  1  0.20752600  0.91033900  0.38501600  1
  Li  Li1  1  0.50000000  0.50000000  0.50000000  1
  Li  Li2  1  0.79247400  0.08966100  0.61498400  1
  Ti  Ti0  1  0.12338000  0.69843600  0.68963100  1
  Ti  Ti1  1  0.87662000  0.30156400  0.31036900  1
  Cu  Cu0  1  0.00000000  0.50000000  0.00000000  1
  Cu  Cu1  1  0.70353200  0.87551000  0.90843600  1
  Cu  Cu2  1  0.29646800  0.12449000  0.09156400  1
  O  O0  1  0.04725300  0.05141700  0.84370300  1
  O  O1  1  0.31523700  0.73526600  0.95201100  1
  O  O2  1  0.10025800  0.31516200  0.53180100  1
  O  O3  1  0.20207300  0.47830400  0.21213700  1
  O  O4  1  0.47072500  0.85229400  0.66386100  1
  O  O5  1  0.52927500  0.14770600  0.33613900  1
  O  O6  1  0.79792700  0.52169600  0.78786300  1
  O  O7  1  0.89974200  0.68483800  0.46819900  1
  O  O8  1  0.68476300  0.26473400  0.04798900  1
  O  O9  1  0.95274700  0.94858200  0.15629700  1
loop_
_geom_bond_atom_site_label_1
_geom_bond_atom_site_label_2
_geom_bond_distance
_geom_bond_site_symmetry_2
Li0 O5 1.978083 1_565
Li0 O7 2.046183 1_455
Li0 O9 2.139791 1_455
Li0 O3 2.254712 1_555
Li0 O2 2.333027 1_565
Li0 O4 2.522808 1_555
Li1 O4 1.957273 1_555
Li1 O5 1.957273 1_555
Li1 O7 2.130048 1_555
Li1 O2 2.130048 1_555
Li1 O3 2.467475 1_555
Li1 O6 2.467475 1_555
Li2 O4 1.978083 1_545
Li2 O2 2.046183 1_655
Li2 O0 2.139793 1_655
Li2 O6 2.254712 1_555
Li2 O7 2.333027 1_545
Li2 O5 2.522808 1_555
Cu0 O6 1.863725 1_454
Cu0 O3 1.863725 1_555
Cu0 O8 1.945566 1_455
Cu0 O1 1.945566 1_554
Cu0 O9 2.399273 1_455
Cu0 O0 2.399278 1_554
Cu1 O0 1.992335 1_665
Cu1 O9 2.011985 1_556
Cu1 O6 2.027999 1_555
Cu1 O4 2.038670 1_555
Cu1 O8 2.043147 1_566
Cu1 O1 2.063346 1_555
Cu2 O9 1.992337 1_445
Cu2 O0 2.011984 1_554
Cu2 O3 2.027999 1_555
Cu2 O5 2.038670 1_555
Cu2 O1 2.043147 1_544
Cu2 O8 2.063346 1_555
O0 Ti0 2.043525 1_545
O1 Ti0 2.051590 1_555
O2 Ti1 1.891026 1_455
O2 Ti0 1.981446 1_555
O3 Ti1 2.070155 1_455
O4 Ti0 1.836212 1_555
O5 Ti1 1.836212 1_555
O6 Ti0 2.070155 1_655
O7 Ti0 1.891026 1_655
O7 Ti1 1.981446 1_555
O8 Ti1 2.051590 1_555
O9 Ti1 2.043529 1_565
