# generated using pymatgen
data_Y2NiRu
_symmetry_space_group_name_H-M   'P 1'
_cell_length_a   4.79588941
_cell_length_b   4.79610314
_cell_length_c   4.79633817
_cell_angle_alpha   59.99033879
_cell_angle_beta   59.99094971
_cell_angle_gamma   59.99430121
_symmetry_Int_Tables_number   1
_chemical_formula_structural   Y2NiRu
_chemical_formula_sum   'Y2 Ni1 Ru1'
_cell_volume   77.99600174
_cell_formula_units_Z   1
loop_
 _symmetry_equiv_pos_site_id
 _symmetry_equiv_pos_as_xyz
  1  'x, y, z'
loop_
 _atom_site_type_symbol
 _atom_site_label
 _atom_site_symmetry_multiplicity
 _atom_site_fract_x
 _atom_site_fract_y
 _atom_site_fract_z
 _atom_site_occupancy
  Y  Y0  1  0.00000270  0.00000044  -0.00000043  1
  Y  Y1  1  0.49999795  0.49999894  0.49999899  1
  Ni  Ni0  1  0.25000011  0.24999907  0.24999996  1
  Ru  Ru0  1  0.74999923  0.75000155  0.75000149  1
loop_
_geom_bond_atom_site_label_1
_geom_bond_atom_site_label_2
_geom_bond_distance
_geom_bond_site_symmetry_2
Ni0 Y1 2.936623 1_455
Ni0 Y0 2.936625 1_655
Ni0 Y1 2.936728 1_545
Ni0 Y0 2.936733 1_565
Ni0 Y0 2.936771 1_556
Ni0 Y1 2.936776 1_554
Ni0 Y0 2.937172 1_555
Ni0 Y1 2.937174 1_555
Ru0 Y0 2.936601 1_566
Ru0 Y1 2.936610 1_655
Ru0 Y1 2.936717 1_565
Ru0 Y0 2.936732 1_656
Ru0 Y1 2.936762 1_556
Ru0 Y0 2.936780 1_665
Ru0 Y0 2.937188 1_666
Ru0 Y1 2.937211 1_555
