# generated using pymatgen
data_Pm2PdRu
_symmetry_space_group_name_H-M   'P 1'
_cell_length_a   4.98228340
_cell_length_b   4.98228340
_cell_length_c   4.98228340
_cell_angle_alpha   60.00000000
_cell_angle_beta   60.00000000
_cell_angle_gamma   60.00000000
_symmetry_Int_Tables_number   1
_chemical_formula_structural   Pm2PdRu
_chemical_formula_sum   'Pm2 Pd1 Ru1'
_cell_volume   87.45210845
_cell_formula_units_Z   1
loop_
 _symmetry_equiv_pos_site_id
 _symmetry_equiv_pos_as_xyz
  1  'x, y, z'
loop_
 _atom_site_type_symbol
 _atom_site_label
 _atom_site_symmetry_multiplicity
 _atom_site_fract_x
 _atom_site_fract_y
 _atom_site_fract_z
 _atom_site_occupancy
  Pm  Pm0  1  0.00000000  0.00000000  0.00000000  1
  Pm  Pm1  1  0.50000000  0.50000000  0.50000000  1
  Pd  Pd0  1  0.25000100  0.25000100  0.25000100  1
  Ru  Ru0  1  0.75000000  0.75000000  0.75000000  1
loop_
_geom_bond_atom_site_label_1
_geom_bond_atom_site_label_2
_geom_bond_distance
_geom_bond_site_symmetry_2
Pm0 Ru0 3.051013 1_544
Pm0 Ru0 3.051013 1_454
Pm0 Ru0 3.051013 1_444
Pm0 Ru0 3.051013 1_445
Pm1 Ru0 3.051013 1_555
Pm1 Ru0 3.051013 1_545
Pm1 Ru0 3.051013 1_554
Pm1 Ru0 3.051013 1_455
Pd0 Pm1 3.051001 1_555
Pd0 Pm0 3.051009 1_556
Pd0 Pm0 3.051009 1_565
Pd0 Pm0 3.051009 1_655
Pd0 Pm1 3.051017 1_545
Pd0 Pm1 3.051017 1_455
Pd0 Pm1 3.051017 1_554
Pd0 Pm0 3.051025 1_555
