# generated using pymatgen
data_NaLi2Bi
_symmetry_space_group_name_H-M   'P 1'
_cell_length_a   4.91730965
_cell_length_b   4.91730965
_cell_length_c   4.91730965
_cell_angle_alpha   60.00000000
_cell_angle_beta   60.00000000
_cell_angle_gamma   60.00000000
_symmetry_Int_Tables_number   1
_chemical_formula_structural   NaLi2Bi
_chemical_formula_sum   'Na1 Li2 Bi1'
_cell_volume   84.07515459
_cell_formula_units_Z   1
loop_
 _symmetry_equiv_pos_site_id
 _symmetry_equiv_pos_as_xyz
  1  'x, y, z'
loop_
 _atom_site_type_symbol
 _atom_site_label
 _atom_site_symmetry_multiplicity
 _atom_site_fract_x
 _atom_site_fract_y
 _atom_site_fract_z
 _atom_site_occupancy
  Na  Na0  1  0.75000000  0.75000000  0.75000000  1
  Li  Li0  1  0.49999900  0.49999900  0.49999900  1
  Li  Li1  1  0.00000000  0.00000000  0.00000000  1
  Bi  Bi0  1  0.25000000  0.25000000  0.25000000  1
loop_
_geom_bond_atom_site_label_1
_geom_bond_atom_site_label_2
_geom_bond_distance
_geom_bond_site_symmetry_2
Li0 Na0 3.011221 1_545
Li0 Na0 3.011221 1_455
Li0 Na0 3.011221 1_554
Li0 Na0 3.011237 1_555
Li1 Na0 3.011225 1_445
Li1 Na0 3.011225 1_444
Li1 Na0 3.011225 1_454
Li1 Na0 3.011225 1_544
Bi0 Li0 3.011213 1_555
Bi0 Li1 3.011225 1_556
Bi0 Li1 3.011225 1_555
Bi0 Li1 3.011225 1_565
Bi0 Li1 3.011225 1_655
Bi0 Li0 3.011229 1_545
Bi0 Li0 3.011229 1_455
Bi0 Li0 3.011229 1_554
Bi0 Na0 3.477063 1_554
Bi0 Na0 3.477063 1_445
Bi0 Na0 3.477063 1_545
Bi0 Na0 3.477063 1_455
Bi0 Na0 3.477063 1_544
Bi0 Na0 3.477063 1_454
