# generated using pymatgen
data_Li3V3P8O29
_symmetry_space_group_name_H-M   'P 1'
_cell_length_a   9.74030285
_cell_length_b   9.74030285
_cell_length_c   14.31226636
_cell_angle_alpha   89.78510455
_cell_angle_beta   89.78510455
_cell_angle_gamma   60.10153856
_symmetry_Int_Tables_number   1
_chemical_formula_structural   Li3V3P8O29
_chemical_formula_sum   'Li6 V6 P16 O58'
_cell_volume   1177.12703386
_cell_formula_units_Z   2
loop_
 _symmetry_equiv_pos_site_id
 _symmetry_equiv_pos_as_xyz
  1  'x, y, z'
loop_
 _atom_site_type_symbol
 _atom_site_label
 _atom_site_symmetry_multiplicity
 _atom_site_fract_x
 _atom_site_fract_y
 _atom_site_fract_z
 _atom_site_occupancy
  Li  Li0  1  0.90741000  0.32615200  0.44110700  1
  Li  Li1  1  0.76681100  0.32773700  0.94160900  1
  Li  Li2  1  0.32615200  0.90741000  0.94110700  1
  Li  Li3  1  0.32773700  0.76681100  0.44160900  1
  Li  Li4  1  0.98465800  0.95984100  0.99663900  1
  Li  Li5  1  0.95984100  0.98465800  0.49663900  1
  V  V0  1  0.56414700  0.43497700  0.74786300  1
  V  V1  1  0.43497700  0.56414700  0.24786300  1
  V  V2  1  0.56696100  0.99708700  0.25333300  1
  V  V3  1  0.44044700  0.00263800  0.74828200  1
  V  V4  1  0.99708700  0.56696100  0.75333300  1
  V  V5  1  0.00263800  0.44044700  0.24828200  1
  P  P0  1  0.91570100  0.78327900  0.16029100  1
  P  P1  1  0.78327900  0.91570100  0.66029100  1
  P  P2  1  0.91445000  0.31262100  0.65615000  1
  P  P3  1  0.66434500  0.66515600  0.86845600  1
  P  P4  1  0.66515600  0.66434500  0.36845600  1
  P  P5  1  0.77635600  0.31477500  0.15711000  1
  P  P6  1  0.69407200  0.22035000  0.33712200  1
  P  P7  1  0.31262100  0.91445000  0.15615000  1
  P  P8  1  0.69654200  0.08493600  0.84338300  1
  P  P9  1  0.31477500  0.77635600  0.65711000  1
  P  P10  1  0.22035000  0.69407200  0.83712200  1
  P  P11  1  0.32931700  0.33758900  0.63440600  1
  P  P12  1  0.33758900  0.32931700  0.13440600  1
  P  P13  1  0.08493600  0.69654200  0.34338300  1
  P  P14  1  0.21967000  0.08554800  0.33710200  1
  P  P15  1  0.08554800  0.21967000  0.83710200  1
  O  O0  1  0.00858100  0.79195300  0.42743100  1
  O  O1  1  0.91509100  0.74042700  0.67143000  1
  O  O2  1  0.79195300  0.00858100  0.92743100  1
  O  O3  1  0.74042700  0.91509100  0.17143000  1
  O  O4  1  0.92127900  0.61991300  0.17310800  1
  O  O5  1  0.81162000  0.66597900  0.82327600  1
  O  O6  1  0.91350100  0.46977700  0.67349800  1
  O  O7  1  0.99096000  0.20943100  0.91594900  1
  O  O8  1  0.91477900  0.34852000  0.17241300  1
  O  O9  1  0.66597900  0.81162000  0.32327600  1
  O  O10  1  0.61991300  0.92127900  0.67310800  1
  O  O11  1  0.81471300  0.51442300  0.32787300  1
  O  O12  1  0.66377000  0.65843200  0.97232100  1
  O  O13  1  0.65843200  0.66377000  0.47232100  1
  O  O14  1  0.66916000  0.51313700  0.82628300  1
  O  O15  1  0.46977700  0.91350100  0.17349800  1
  O  O16  1  0.51442300  0.81471300  0.82787300  1
  O  O17  1  0.74267500  0.34278500  0.67230700  1
  O  O18  1  0.79114100  0.19766500  0.24015900  1
  O  O19  1  0.79828000  0.20666200  0.41696100  1
  O  O20  1  0.78513600  0.24034200  0.06531100  1
  O  O21  1  0.61847300  0.47258600  0.17423700  1
  O  O22  1  0.51313700  0.66916000  0.32628300  1
  O  O23  1  0.65310900  0.26254400  0.83711700  1
  O  O24  1  0.47258600  0.61847300  0.67423700  1
  O  O25  1  0.34852000  0.91477900  0.67241300  1
  O  O26  1  0.79957700  0.00412500  0.75073000  1
  O  O27  1  0.79876600  0.99265600  0.57540000  1
  O  O28  1  0.20943100  0.99096000  0.41594900  1
  O  O29  1  0.65502400  0.08445400  0.33510700  1
  O  O30  1  0.53872300  0.38105200  0.32718600  1
  O  O31  1  0.34278500  0.74267500  0.17230700  1
  O  O32  1  0.47796600  0.33753800  0.67934000  1
  O  O33  1  0.38105200  0.53872300  0.82718600  1
  O  O34  1  0.20666200  0.79828000  0.91696100  1
  O  O35  1  0.24034200  0.78513600  0.56531100  1
  O  O36  1  0.19766500  0.79114100  0.74015900  1
  O  O37  1  0.26254400  0.65310900  0.33711700  1
  O  O38  1  0.48096000  0.18346900  0.18065000  1
  O  O39  1  0.54143400  0.07741000  0.82929800  1
  O  O40  1  0.33753800  0.47796600  0.17934000  1
  O  O41  1  0.33428000  0.33140500  0.03122200  1
  O  O42  1  0.33140500  0.33428000  0.53122200  1
  O  O43  1  0.18346900  0.48096000  0.68065000  1
  O  O44  1  0.38113000  0.08027300  0.32754500  1
  O  O45  1  0.33464000  0.18660900  0.68144200  1
  O  O46  1  0.08445400  0.65502400  0.83510700  1
  O  O47  1  0.00412500  0.79957700  0.25073000  1
  O  O48  1  0.99265600  0.79876600  0.07540000  1
  O  O49  1  0.07741000  0.54143400  0.32929800  1
  O  O50  1  0.18660900  0.33464000  0.18144200  1
  O  O51  1  0.08027300  0.38113100  0.82754500  1
  O  O52  1  0.26097600  0.08325400  0.83901300  1
  O  O53  1  0.23710600  0.97753400  0.06399200  1
  O  O54  1  0.19434900  0.01761600  0.23885400  1
  O  O55  1  0.08325400  0.26097600  0.33901300  1
  O  O56  1  0.97753400  0.23710600  0.56399200  1
  O  O57  1  0.01761600  0.19434900  0.73885400  1
loop_
_geom_bond_atom_site_label_1
_geom_bond_atom_site_label_2
_geom_bond_distance
_geom_bond_site_symmetry_2
Li0 O56 1.928476 1_555
Li0 O19 1.960362 1_555
Li0 O55 2.091865 1_655
Li0 O11 2.267727 1_555
Li1 O7 1.928335 1_555
Li1 O20 1.931475 1_556
Li1 O23 2.141724 1_555
Li1 O14 2.273158 1_555
Li2 O53 1.928476 1_556
Li2 O34 1.960362 1_555
Li2 O52 2.091865 1_565
Li2 O16 2.267727 1_555
Li3 O28 1.928335 1_555
Li3 O35 1.931475 1_555
Li3 O37 2.141724 1_555
Li3 O22 2.273158 1_555
Li4 O48 1.898370 1_556
Li4 O2 1.962582 1_565
Li4 O34 2.248403 1_655
Li5 O27 1.898370 1_555
Li5 O0 1.962582 1_655
Li5 O19 2.248403 1_565
O0 P13 1.475270 1_555
O1 P1 1.550076 1_555
O1 V4 1.874466 1_555
O2 P8 1.475270 1_555
O3 P0 1.550076 1_555
O3 V2 1.874466 1_555
O4 P0 1.574905 1_555
O4 V5 1.858103 1_655
O5 P3 1.574947 1_555
O5 V4 1.858079 1_555
O6 P2 1.547142 1_555
O6 V4 1.909943 1_555
O7 P15 1.488352 1_655
O8 P5 1.555129 1_555
O8 V5 1.868512 1_655
O9 P4 1.574947 1_555
O9 V2 1.858079 1_555
O10 P1 1.574905 1_555
O10 V3 1.858103 1_565
O11 P4 1.571996 1_555
O11 V5 1.960351 1_655
O12 P3 1.487853 1_555
O13 P4 1.487853 1_555
O14 P3 1.579964 1_555
O14 V0 1.917515 1_555
O15 P7 1.547142 1_555
O15 V2 1.909943 1_555
O16 P3 1.571996 1_555
O16 V3 1.960351 1_565
O17 P2 1.564203 1_555
O17 V0 1.853655 1_555
O18 P5 1.600646 1_555
O18 P6 1.628749 1_555
O19 P6 1.492110 1_555
O20 P5 1.484465 1_555
O21 P5 1.559225 1_555
O21 V1 1.871916 1_555
O22 P4 1.579964 1_555
O22 V1 1.917515 1_555
O23 P8 1.565015 1_555
O23 V0 1.935169 1_555
O24 P9 1.559225 1_555
O24 V0 1.871916 1_555
O25 P9 1.555129 1_555
O25 V3 1.868512 1_565
O26 P1 1.608927 1_545
O26 P8 1.611073 1_555
O27 P1 1.471497 1_555
O28 P14 1.488352 1_565
O29 P6 1.549146 1_555
O29 V2 1.890076 1_545
O30 P6 1.548763 1_555
O30 V1 1.920246 1_555
O31 P7 1.564203 1_555
O31 V1 1.853655 1_555
O32 P11 1.586262 1_555
O32 V0 1.837013 1_555
O33 P10 1.548763 1_555
O33 V0 1.920246 1_555
O34 P10 1.492110 1_555
O35 P9 1.484465 1_555
O36 P9 1.600646 1_555
O36 P10 1.628749 1_555
O37 P13 1.565015 1_555
O37 V1 1.935169 1_555
O38 P12 1.558348 1_555
O38 V2 1.885706 1_545
O39 P8 1.562476 1_555
O39 V3 1.889855 1_555
O40 P12 1.586262 1_555
O40 V1 1.837013 1_555
O41 P12 1.477112 1_555
O42 P11 1.477112 1_555
O43 P11 1.558348 1_555
O43 V4 1.885706 1_455
O44 P14 1.553229 1_555
O44 V2 1.894961 1_545
O45 P11 1.592274 1_555
O45 V3 1.828044 1_555
O46 P10 1.549146 1_555
O46 V4 1.890076 1_455
O47 P0 1.608927 1_455
O47 P13 1.611073 1_555
O48 P0 1.471497 1_555
O49 P13 1.562476 1_555
O49 V5 1.889855 1_555
O50 P12 1.592274 1_555
O50 V5 1.828044 1_555
O51 P15 1.553239 1_555
O51 V4 1.894954 1_455
O52 P15 1.556479 1_555
O52 V3 1.995218 1_555
O53 P7 1.486250 1_555
O54 P7 1.607051 1_545
O54 P14 1.627323 1_555
O55 P14 1.556479 1_555
O55 V5 1.995218 1_555
O56 P2 1.486250 1_555
O57 P2 1.607051 1_455
O57 P15 1.627323 1_555
