# generated using pymatgen
data_NaCaFe3(PO4)4
_symmetry_space_group_name_H-M   'P 1'
_cell_length_a   8.81680286
_cell_length_b   9.53494948
_cell_length_c   29.60666731
_cell_angle_alpha   90.00000000
_cell_angle_beta   90.00000000
_cell_angle_gamma   90.00000000
_symmetry_Int_Tables_number   1
_chemical_formula_structural   NaCaFe3(PO4)4
_chemical_formula_sum   'Na8 Ca8 Fe24 P32 O128'
_cell_volume   2488.96649330
_cell_formula_units_Z   8
loop_
 _symmetry_equiv_pos_site_id
 _symmetry_equiv_pos_as_xyz
  1  'x, y, z'
loop_
 _atom_site_type_symbol
 _atom_site_label
 _atom_site_symmetry_multiplicity
 _atom_site_fract_x
 _atom_site_fract_y
 _atom_site_fract_z
 _atom_site_occupancy
  Na  Na0  1  0.08629502  0.09363295  0.05622354  1
  Na  Na1  1  0.08629502  0.59363295  0.44377646  1
  Na  Na2  1  0.41370498  0.09363295  0.55622354  1
  Na  Na3  1  0.41370498  0.59363295  0.94377646  1
  Na  Na4  1  0.58629502  0.40636705  0.05622354  1
  Na  Na5  1  0.58629502  0.90636705  0.44377646  1
  Na  Na6  1  0.91370498  0.40636705  0.55622354  1
  Na  Na7  1  0.91370498  0.90636705  0.94377646  1
  Ca  Ca0  1  0.16252753  0.02916935  0.19078311  1
  Ca  Ca1  1  0.16252753  0.52916935  0.30921689  1
  Ca  Ca2  1  0.33747247  0.02916935  0.69078311  1
  Ca  Ca3  1  0.33747247  0.52916935  0.80921689  1
  Ca  Ca4  1  0.66252753  0.47083065  0.19078311  1
  Ca  Ca5  1  0.66252753  0.97083065  0.30921689  1
  Ca  Ca6  1  0.83747247  0.47083065  0.69078311  1
  Ca  Ca7  1  0.83747247  0.97083065  0.80921689  1
  Fe  Fe0  1  0.04957523  0.69867606  0.04199315  1
  Fe  Fe1  1  0.04957523  0.19867606  0.45800685  1
  Fe  Fe2  1  0.10622175  0.65039680  0.19638768  1
  Fe  Fe3  1  0.10622175  0.15039680  0.30361232  1
  Fe  Fe4  1  0.22242240  0.31889561  0.62507134  1
  Fe  Fe5  1  0.22242240  0.81889561  0.87492866  1
  Fe  Fe6  1  0.27757760  0.31889561  0.12507134  1
  Fe  Fe7  1  0.27757760  0.81889561  0.37492866  1
  Fe  Fe8  1  0.39377825  0.15039680  0.80361232  1
  Fe  Fe9  1  0.39377825  0.65039680  0.69638768  1
  Fe  Fe10  1  0.45042477  0.69867606  0.54199315  1
  Fe  Fe11  1  0.45042477  0.19867606  0.95800685  1
  Fe  Fe12  1  0.54957523  0.30132394  0.45800685  1
  Fe  Fe13  1  0.54957523  0.80132394  0.04199315  1
  Fe  Fe14  1  0.60622175  0.34960320  0.30361232  1
  Fe  Fe15  1  0.60622175  0.84960320  0.19638768  1
  Fe  Fe16  1  0.72242240  0.18110439  0.62507134  1
  Fe  Fe17  1  0.72242240  0.68110439  0.87492866  1
  Fe  Fe18  1  0.77757760  0.18110439  0.12507134  1
  Fe  Fe19  1  0.77757760  0.68110439  0.37492866  1
  Fe  Fe20  1  0.89377825  0.84960320  0.69638768  1
  Fe  Fe21  1  0.89377825  0.34960320  0.80361232  1
  Fe  Fe22  1  0.95042477  0.30132394  0.95800685  1
  Fe  Fe23  1  0.95042477  0.80132394  0.54199315  1
  P  P0  1  0.05608663  0.04432941  0.62033798  1
  P  P1  1  0.05608663  0.54432941  0.87966202  1
  P  P2  1  0.09368341  0.61701596  0.63257711  1
  P  P3  1  0.09368341  0.11701596  0.86742289  1
  P  P4  1  0.18936289  0.35943702  0.73348247  1
  P  P5  1  0.18936289  0.85943702  0.76651753  1
  P  P6  1  0.23087277  0.40415095  0.01635805  1
  P  P7  1  0.23087277  0.90415095  0.48364195  1
  P  P8  1  0.26912723  0.40415095  0.51635805  1
  P  P9  1  0.26912723  0.90415095  0.98364195  1
  P  P10  1  0.31063711  0.35943702  0.23348247  1
  P  P11  1  0.31063711  0.85943702  0.26651753  1
  P  P12  1  0.40631659  0.11701596  0.36742289  1
  P  P13  1  0.40631659  0.61701596  0.13257711  1
  P  P14  1  0.44391337  0.04432941  0.12033798  1
  P  P15  1  0.44391337  0.54432941  0.37966202  1
  P  P16  1  0.55608663  0.45567059  0.62033798  1
  P  P17  1  0.55608663  0.95567059  0.87966202  1
  P  P18  1  0.59368341  0.38298404  0.86742289  1
  P  P19  1  0.59368341  0.88298404  0.63257711  1
  P  P20  1  0.68936289  0.14056298  0.73348247  1
  P  P21  1  0.68936289  0.64056298  0.76651753  1
  P  P22  1  0.73087277  0.09584905  0.01635805  1
  P  P23  1  0.73087277  0.59584905  0.48364195  1
  P  P24  1  0.76912723  0.09584905  0.51635805  1
  P  P25  1  0.76912723  0.59584905  0.98364195  1
  P  P26  1  0.81063711  0.14056298  0.23348247  1
  P  P27  1  0.81063711  0.64056298  0.26651753  1
  P  P28  1  0.90631659  0.38298404  0.36742289  1
  P  P29  1  0.90631659  0.88298404  0.13257711  1
  P  P30  1  0.94391337  0.95567059  0.37966202  1
  P  P31  1  0.94391337  0.45567059  0.12033798  1
  O  O0  1  0.00516019  0.82220903  0.17104135  1
  O  O1  1  0.00516019  0.32220903  0.32895865  1
  O  O2  1  0.01544652  0.36732765  0.74150204  1
  O  O3  1  0.01544652  0.86732765  0.75849796  1
  O  O4  1  0.03091380  0.94989499  0.57984954  1
  O  O5  1  0.03091380  0.44989499  0.92015046  1
  O  O6  1  0.04465890  0.66606987  0.58565763  1
  O  O7  1  0.04465890  0.16606987  0.91434237  1
  O  O8  1  0.05626064  0.96961363  0.66685944  1
  O  O9  1  0.05626064  0.46961363  0.83314056  1
  O  O10  1  0.05727934  0.45408954  0.63701683  1
  O  O11  1  0.05727934  0.95408954  0.86298317  1
  O  O12  1  0.05833898  0.33137513  0.12112631  1
  O  O13  1  0.05833898  0.83137513  0.37887369  1
  O  O14  1  0.08639035  0.31269877  0.00960898  1
  O  O15  1  0.08639035  0.81269877  0.49039102  1
  O  O16  1  0.15488064  0.87361566  0.02244000  1
  O  O17  1  0.15488064  0.37361566  0.47756000  1
  O  O18  1  0.19141086  0.35793031  0.56096716  1
  O  O19  1  0.19141086  0.85793031  0.93903284  1
  O  O20  1  0.19986683  0.56358625  0.01619965  1
  O  O21  1  0.19986683  0.06358625  0.48380035  1
  O  O22  1  0.21916317  0.11124158  0.61629545  1
  O  O23  1  0.21916317  0.61124158  0.88370455  1
  O  O24  1  0.22602554  0.26599356  0.69189273  1
  O  O25  1  0.22602554  0.76599356  0.80810727  1
  O  O26  1  0.23392453  0.30141011  0.27643124  1
  O  O27  1  0.23392453  0.80141011  0.22356876  1
  O  O28  1  0.23429747  0.13701947  0.36024843  1
  O  O29  1  0.23429747  0.63701947  0.13975157  1
  O  O30  1  0.24456005  0.00946603  0.27204313  1
  O  O31  1  0.24456005  0.50946603  0.22795687  1
  O  O32  1  0.25543995  0.00946603  0.77204313  1
  O  O33  1  0.25543995  0.50946603  0.72795687  1
  O  O34  1  0.26570253  0.13701947  0.86024843  1
  O  O35  1  0.26570253  0.63701947  0.63975157  1
  O  O36  1  0.26607547  0.30141011  0.77643124  1
  O  O37  1  0.26607547  0.80141011  0.72356876  1
  O  O38  1  0.27397446  0.26599356  0.19189373  1
  O  O39  1  0.27397446  0.76599356  0.30810727  1
  O  O40  1  0.28083683  0.11124158  0.11629545  1
  O  O41  1  0.28083683  0.61124158  0.38370455  1
  O  O42  1  0.30013317  0.56358625  0.51619965  1
  O  O43  1  0.30013317  0.06358625  0.98380035  1
  O  O44  1  0.30858914  0.35793031  0.06096716  1
  O  O45  1  0.30858914  0.85793031  0.43903284  1
  O  O46  1  0.34511936  0.87361566  0.52244000  1
  O  O47  1  0.34511936  0.37361566  0.97756000  1
  O  O48  1  0.41360965  0.31269877  0.50960898  1
  O  O49  1  0.41360965  0.81269877  0.99039102  1
  O  O50  1  0.44166102  0.33137513  0.62112631  1
  O  O51  1  0.44166102  0.83137513  0.87887369  1
  O  O52  1  0.44272066  0.45408954  0.13701683  1
  O  O53  1  0.44272066  0.95408954  0.36298317  1
  O  O54  1  0.44373936  0.46961363  0.33314056  1
  O  O55  1  0.44373936  0.96961363  0.16685944  1
  O  O56  1  0.45534110  0.66606987  0.08565763  1
  O  O57  1  0.45534110  0.16606987  0.41434237  1
  O  O58  1  0.46908620  0.44989499  0.42015046  1
  O  O59  1  0.46908620  0.94989499  0.07984954  1
  O  O60  1  0.48455348  0.36732765  0.24150204  1
  O  O61  1  0.48455348  0.86732765  0.25849796  1
  O  O62  1  0.49483981  0.32220903  0.82895865  1
  O  O63  1  0.49483981  0.82220903  0.67104135  1
  O  O64  1  0.50516019  0.67779097  0.17104135  1
  O  O65  1  0.50516019  0.17779097  0.32895865  1
  O  O66  1  0.51544652  0.13267235  0.74150204  1
  O  O67  1  0.51544652  0.63267235  0.75849796  1
  O  O68  1  0.53091380  0.55010501  0.57984954  1
  O  O69  1  0.53091380  0.05010501  0.92015046  1
  O  O70  1  0.54465890  0.33393013  0.91434237  1
  O  O71  1  0.54465890  0.83393013  0.58565763  1
  O  O72  1  0.55626064  0.53038637  0.66685944  1
  O  O73  1  0.55626064  0.03038637  0.83314056  1
  O  O74  1  0.55727934  0.04591046  0.63701683  1
  O  O75  1  0.55727934  0.54591046  0.86298317  1
  O  O76  1  0.55833898  0.16862487  0.12112631  1
  O  O77  1  0.55833898  0.66862487  0.37887369  1
  O  O78  1  0.58639035  0.18730123  0.00960898  1
  O  O79  1  0.58639035  0.68730123  0.49039102  1
  O  O80  1  0.65488064  0.62638434  0.02244000  1
  O  O81  1  0.65488064  0.12638434  0.47756000  1
  O  O82  1  0.69141086  0.14206969  0.56096716  1
  O  O83  1  0.69141086  0.64206969  0.93903284  1
  O  O84  1  0.69986683  0.43641375  0.48380035  1
  O  O85  1  0.69986683  0.93641375  0.01619965  1
  O  O86  1  0.71916317  0.38875842  0.61629545  1
  O  O87  1  0.71916317  0.88875842  0.88370455  1
  O  O88  1  0.72602554  0.23400644  0.69189273  1
  O  O89  1  0.72602554  0.73400644  0.80810727  1
  O  O90  1  0.73392453  0.69858989  0.22356876  1
  O  O91  1  0.73392453  0.19858989  0.27643124  1
  O  O92  1  0.73429747  0.36298053  0.36024843  1
  O  O93  1  0.73429747  0.86298053  0.13975157  1
  O  O94  1  0.74456005  0.49053397  0.27204313  1
  O  O95  1  0.74456005  0.99053397  0.22795687  1
  O  O96  1  0.75543995  0.99053397  0.72795687  1
  O  O97  1  0.75543995  0.49053397  0.77204313  1
  O  O98  1  0.76570253  0.36298053  0.86024843  1
  O  O99  1  0.76570253  0.86298053  0.63975157  1
  O  O100  1  0.76607547  0.69858989  0.72356876  1
  O  O101  1  0.76607547  0.19858989  0.77643124  1
  O  O102  1  0.77397446  0.23400644  0.19189373  1
  O  O103  1  0.77397446  0.73400644  0.30810727  1
  O  O104  1  0.78083683  0.38875842  0.11629545  1
  O  O105  1  0.78083683  0.88875842  0.38370455  1
  O  O106  1  0.80013317  0.43641375  0.98380035  1
  O  O107  1  0.80013317  0.93641375  0.51619965  1
  O  O108  1  0.80858914  0.14206969  0.06096716  1
  O  O109  1  0.80858914  0.64206969  0.43903284  1
  O  O110  1  0.84511936  0.62638434  0.52244000  1
  O  O111  1  0.84511936  0.12638434  0.97756000  1
  O  O112  1  0.91360965  0.18730123  0.50960898  1
  O  O113  1  0.91360965  0.68730123  0.99039102  1
  O  O114  1  0.94166102  0.16862487  0.62112631  1
  O  O115  1  0.94166102  0.66862487  0.87887369  1
  O  O116  1  0.94272066  0.54591046  0.36298317  1
  O  O117  1  0.94272066  0.04591046  0.13701683  1
  O  O118  1  0.94373936  0.03038637  0.33314056  1
  O  O119  1  0.94373936  0.53038637  0.16685944  1
  O  O120  1  0.95534110  0.33393013  0.41434237  1
  O  O121  1  0.95534110  0.83393013  0.08565763  1
  O  O122  1  0.96908620  0.05010501  0.42015046  1
  O  O123  1  0.96908620  0.55010501  0.07984954  1
  O  O124  1  0.98455348  0.13267235  0.24150204  1
  O  O125  1  0.98455348  0.63267235  0.25849796  1
  O  O126  1  0.99483981  0.17779097  0.82895865  1
  O  O127  1  0.99483981  0.67779097  0.67104135  1
loop_
_geom_bond_atom_site_label_1
_geom_bond_atom_site_label_2
_geom_bond_distance
_geom_bond_site_symmetry_2
Na0 O16 2.401478 1_545
Na0 O40 2.476569 1_555
Na0 O108 2.495609 1_455
Na0 O14 2.503535 1_555
Na0 O117 2.744309 1_455
Na0 O121 2.867810 1_445
Na0 O43 2.869552 1_554
Na0 O12 2.981909 1_555
Na1 O17 2.401478 1_555
Na1 O41 2.476569 1_555
Na1 O109 2.495609 1_455
Na1 O15 2.503535 1_555
Na1 O116 2.744309 1_455
Na1 O120 2.867810 1_455
Na1 O42 2.869552 1_555
Na1 O13 2.981909 1_555
Na2 O46 2.401478 1_545
Na2 O22 2.476569 1_555
Na2 O82 2.495609 1_555
Na2 O48 2.503535 1_555
Na2 O74 2.744309 1_555
Na2 O71 2.867810 1_545
Na2 O21 2.869552 1_555
Na2 O50 2.981909 1_555
Na3 O47 2.401478 1_555
Na3 O23 2.476569 1_555
Na3 O83 2.495609 1_555
Na3 O49 2.503535 1_555
Na3 O75 2.744309 1_555
Na3 O70 2.867810 1_555
Na3 O20 2.869552 1_556
Na3 O51 2.981909 1_555
Na4 O80 2.401478 1_555
Na4 O104 2.476569 1_555
Na4 O44 2.495609 1_555
Na4 O78 2.503535 1_555
Na4 O52 2.744309 1_555
Na4 O56 2.867810 1_555
Na4 O106 2.869552 1_554
Na4 O76 2.981909 1_555
Na5 O81 2.401478 1_565
Na5 O105 2.476569 1_555
Na5 O45 2.495609 1_555
Na5 O79 2.503535 1_555
Na5 O53 2.744309 1_555
Na5 O57 2.867810 1_565
Na5 O107 2.869552 1_555
Na5 O77 2.981909 1_555
Na6 O110 2.401478 1_555
Na6 O86 2.476569 1_555
Na6 O18 2.495609 1_655
Na6 O112 2.503535 1_555
Na6 O10 2.744309 1_655
Na6 O6 2.867810 1_655
Na6 O84 2.869552 1_555
Na6 O114 2.981909 1_555
Na7 O111 2.401478 1_565
Na7 O87 2.476569 1_555
Na7 O19 2.495609 1_655
Na7 O113 2.503535 1_555
Na7 O11 2.744309 1_655
Na7 O7 2.867810 1_665
Na7 O85 2.869552 1_556
Na7 O115 2.981909 1_555
Ca0 O124 2.385601 1_455
Ca0 O27 2.460616 1_545
Ca0 O38 2.462852 1_555
Ca0 O0 2.482106 1_545
Ca0 O117 2.513017 1_455
Ca0 O30 2.519219 1_555
Ca0 O40 2.562022 1_555
Ca0 O55 2.640365 1_545
Ca1 O125 2.385601 1_455
Ca1 O26 2.460616 1_555
Ca1 O39 2.462852 1_555
Ca1 O1 2.482106 1_555
Ca1 O116 2.513017 1_455
Ca1 O31 2.519219 1_555
Ca1 O41 2.562022 1_555
Ca1 O54 2.640365 1_555
Ca2 O66 2.385601 1_555
Ca2 O37 2.460616 1_545
Ca2 O24 2.462852 1_555
Ca2 O63 2.482106 1_545
Ca2 O74 2.513017 1_555
Ca2 O32 2.519219 1_555
Ca2 O22 2.562022 1_555
Ca2 O8 2.640365 1_545
Ca3 O67 2.385601 1_555
Ca3 O36 2.460616 1_555
Ca3 O25 2.462852 1_555
Ca3 O62 2.482106 1_555
Ca3 O75 2.513017 1_555
Ca3 O33 2.519219 1_555
Ca3 O23 2.562022 1_555
Ca3 O9 2.640365 1_555
Ca4 O60 2.385601 1_555
Ca4 O90 2.460616 1_555
Ca4 O102 2.462852 1_555
Ca4 O64 2.482106 1_555
Ca4 O52 2.513017 1_555
Ca4 O94 2.519219 1_555
Ca4 O104 2.562022 1_555
Ca4 O119 2.640365 1_555
Ca5 O61 2.385601 1_555
Ca5 O91 2.460616 1_565
Ca5 O103 2.462852 1_555
Ca5 O65 2.482106 1_565
Ca5 O53 2.513017 1_555
Ca5 O95 2.519219 1_555
Ca5 O105 2.562022 1_555
Ca5 O118 2.640365 1_565
Ca6 O2 2.385601 1_655
Ca6 O100 2.460616 1_555
Ca6 O88 2.462852 1_555
Ca6 O127 2.482106 1_555
Ca6 O10 2.513017 1_655
Ca6 O97 2.519219 1_555
Ca6 O86 2.562022 1_555
Ca6 O72 2.640365 1_555
Ca7 O3 2.385601 1_655
Ca7 O101 2.460616 1_565
Ca7 O89 2.462852 1_555
Ca7 O126 2.482106 1_565
Ca7 O11 2.513017 1_655
Ca7 O96 2.519219 1_555
Ca7 O87 2.562022 1_555
Ca7 O73 2.640365 1_565
Fe0 O123 1.940776 1_455
Fe0 O113 1.944971 1_454
Fe0 O16 1.994873 1_555
Fe0 O20 1.999545 1_555
Fe0 O121 2.006166 1_455
Fe1 O122 1.940776 1_455
Fe1 O112 1.944971 1_455
Fe1 O17 1.994873 1_555
Fe1 O21 1.999545 1_555
Fe1 O120 2.006166 1_455
Fe2 O27 1.997161 1_555
Fe2 O0 2.010187 1_555
Fe2 O29 2.025607 1_555
Fe2 O119 2.031246 1_455
Fe2 O31 2.041316 1_555
Fe2 O125 2.135597 1_455
Fe3 O26 1.997161 1_555
Fe3 O1 2.010187 1_555
Fe3 O28 2.025607 1_555
Fe3 O118 2.031246 1_455
Fe3 O30 2.041316 1_555
Fe3 O124 2.135597 1_455
Fe4 O50 1.940162 1_555
Fe4 O18 1.953293 1_555
Fe4 O10 1.976565 1_555
Fe4 O22 1.997153 1_555
Fe4 O24 2.041899 1_555
Fe5 O51 1.940162 1_555
Fe5 O19 1.953293 1_555
Fe5 O11 1.976565 1_555
Fe5 O23 1.997153 1_555
Fe5 O25 2.041899 1_555
Fe6 O12 1.940162 1_555
Fe6 O44 1.953293 1_555
Fe6 O52 1.976565 1_555
Fe6 O40 1.997153 1_555
Fe6 O38 2.041927 1_555
Fe7 O13 1.940162 1_555
Fe7 O45 1.953293 1_555
Fe7 O53 1.976565 1_555
Fe7 O41 1.997153 1_555
Fe7 O39 2.041899 1_555
Fe8 O36 1.997161 1_555
Fe8 O62 2.010187 1_555
Fe8 O34 2.025607 1_555
Fe8 O73 2.031246 1_555
Fe8 O32 2.041316 1_555
Fe8 O66 2.135597 1_555
Fe9 O37 1.997161 1_555
Fe9 O63 2.010187 1_555
Fe9 O35 2.025607 1_555
Fe9 O72 2.031246 1_555
Fe9 O33 2.041316 1_555
Fe9 O67 2.135597 1_555
Fe10 O68 1.940776 1_555
Fe10 O79 1.944971 1_555
Fe10 O46 1.994873 1_555
Fe10 O42 1.999545 1_555
Fe10 O71 2.006166 1_555
Fe11 O69 1.940776 1_555
Fe11 O78 1.944971 1_556
Fe11 O47 1.994873 1_555
Fe11 O43 1.999545 1_555
Fe11 O70 2.006166 1_555
Fe12 O58 1.940776 1_555
Fe12 O48 1.944971 1_555
Fe12 O81 1.994873 1_555
Fe12 O84 1.999545 1_555
Fe12 O57 2.006166 1_555
Fe13 O59 1.940776 1_555
Fe13 O49 1.944971 1_554
Fe13 O80 1.994873 1_555
Fe13 O85 1.999545 1_555
Fe13 O56 2.006166 1_555
Fe14 O91 1.997161 1_555
Fe14 O65 2.010187 1_555
Fe14 O92 2.025607 1_555
Fe14 O54 2.031246 1_555
Fe14 O94 2.041316 1_555
Fe14 O60 2.135597 1_555
Fe15 O90 1.997161 1_555
Fe15 O64 2.010187 1_555
Fe15 O93 2.025607 1_555
Fe15 O55 2.031246 1_555
Fe15 O95 2.041316 1_555
Fe15 O61 2.135597 1_555
Fe16 O114 1.940162 1_555
Fe16 O82 1.953293 1_555
Fe16 O74 1.976565 1_555
Fe16 O86 1.997153 1_555
Fe16 O88 2.041899 1_555
Fe17 O115 1.940162 1_555
Fe17 O83 1.953293 1_555
Fe17 O75 1.976565 1_555
Fe17 O87 1.997153 1_555
Fe17 O89 2.041899 1_555
Fe18 O76 1.940162 1_555
Fe18 O108 1.953293 1_555
Fe18 O117 1.976565 1_555
Fe18 O104 1.997153 1_555
Fe18 O102 2.041927 1_555
Fe19 O77 1.940162 1_555
Fe19 O109 1.953293 1_555
Fe19 O116 1.976565 1_555
Fe19 O105 1.997153 1_555
Fe19 O103 2.041899 1_555
Fe20 O100 1.997161 1_555
Fe20 O127 2.010187 1_555
Fe20 O99 2.025607 1_555
Fe20 O8 2.031246 1_655
Fe20 O96 2.041316 1_555
Fe20 O3 2.135597 1_655
Fe21 O101 1.997161 1_555
Fe21 O126 2.010187 1_555
Fe21 O98 2.025607 1_555
Fe21 O9 2.031246 1_655
Fe21 O97 2.041316 1_555
Fe21 O2 2.135597 1_655
Fe22 O5 1.940776 1_655
Fe22 O14 1.944971 1_656
Fe22 O111 1.994873 1_555
Fe22 O106 1.999545 1_555
Fe22 O7 2.006166 1_655
Fe23 O4 1.940776 1_655
Fe23 O15 1.944971 1_655
Fe23 O110 1.994873 1_555
Fe23 O107 1.999545 1_555
Fe23 O6 2.006166 1_655
O0 P29 1.546658 1_455
O1 P28 1.546658 1_455
O2 P4 1.553483 1_555
O3 P5 1.553483 1_555
O4 P0 1.515578 1_565
O5 P1 1.515578 1_555
O6 P2 1.528162 1_555
O7 P3 1.528162 1_555
O8 P0 1.550681 1_565
O9 P1 1.550681 1_555
O10 P2 1.591743 1_555
O11 P3 1.591743 1_565
O12 P31 1.556580 1_455
O13 P30 1.556580 1_455
O14 P6 1.556615 1_555
O15 P7 1.556615 1_555
O16 P9 1.555272 1_554
O17 P8 1.555272 1_555
O18 P8 1.551792 1_555
O19 P9 1.551792 1_555
O20 P6 1.544599 1_555
O21 P7 1.544599 1_545
O22 P0 1.577556 1_555
O23 P1 1.577556 1_555
O24 P4 1.553871 1_555
O25 P5 1.553871 1_555
O26 P10 1.542879 1_555
O27 P11 1.542879 1_555
O28 P12 1.543292 1_555
O29 P13 1.543292 1_555
O30 P11 1.553241 1_545
O31 P10 1.553241 1_555
O32 P5 1.553241 1_545
O33 P4 1.553241 1_555
O34 P3 1.543292 1_555
O35 P2 1.543292 1_555
O36 P4 1.542879 1_555
O37 P5 1.542879 1_555
O38 P10 1.553847 1_555
O39 P11 1.553871 1_555
O40 P14 1.577556 1_555
O41 P15 1.577556 1_555
O42 P8 1.544599 1_555
O43 P9 1.544599 1_545
O44 P6 1.551792 1_555
O45 P7 1.551792 1_555
O46 P7 1.555272 1_555
O47 P6 1.555272 1_556
O48 P8 1.556615 1_555
O49 P9 1.556615 1_555
O50 P16 1.556580 1_555
O51 P17 1.556580 1_555
O52 P13 1.591743 1_555
O53 P12 1.591743 1_565
O54 P15 1.550681 1_555
O55 P14 1.550681 1_565
O56 P13 1.528162 1_555
O57 P12 1.528162 1_555
O58 P15 1.515578 1_555
O59 P14 1.515578 1_565
O60 P10 1.553483 1_555
O61 P11 1.553483 1_555
O62 P18 1.546658 1_555
O63 P19 1.546658 1_555
O64 P13 1.546658 1_555
O65 P12 1.546658 1_555
O66 P20 1.553483 1_555
O67 P21 1.553483 1_555
O68 P16 1.515578 1_555
O69 P17 1.515578 1_545
O70 P18 1.528162 1_555
O71 P19 1.528162 1_555
O72 P16 1.550681 1_555
O73 P17 1.550681 1_545
O74 P19 1.591743 1_545
O75 P18 1.591743 1_555
O76 P14 1.556580 1_555
O77 P15 1.556580 1_555
O78 P22 1.556615 1_555
O79 P23 1.556615 1_555
O80 P25 1.555272 1_554
O81 P24 1.555272 1_555
O82 P24 1.551792 1_555
O83 P25 1.551792 1_555
O84 P23 1.544599 1_555
O85 P22 1.544599 1_565
O86 P16 1.577556 1_555
O87 P17 1.577556 1_555
O88 P20 1.553871 1_555
O89 P21 1.553871 1_555
O90 P27 1.542879 1_555
O91 P26 1.542879 1_555
O92 P28 1.543292 1_555
O93 P29 1.543292 1_555
O94 P27 1.553241 1_555
O95 P26 1.553241 1_565
O96 P20 1.553241 1_565
O97 P21 1.553241 1_555
O98 P18 1.543292 1_555
O99 P19 1.543292 1_555
O100 P21 1.542879 1_555
O101 P20 1.542879 1_555
O102 P26 1.553847 1_555
O103 P27 1.553871 1_555
O104 P31 1.577556 1_555
O105 P30 1.577556 1_555
O106 P25 1.544599 1_555
O107 P24 1.544599 1_565
O108 P22 1.551792 1_555
O109 P23 1.551792 1_555
O110 P23 1.555272 1_555
O111 P22 1.555272 1_556
O112 P24 1.556615 1_555
O113 P25 1.556615 1_555
O114 P0 1.556580 1_655
O115 P1 1.556580 1_655
O116 P28 1.591743 1_555
O117 P29 1.591743 1_545
O118 P30 1.550681 1_545
O119 P31 1.550681 1_555
O120 P28 1.528162 1_555
O121 P29 1.528162 1_555
O122 P30 1.515578 1_545
O123 P31 1.515578 1_555
O124 P26 1.553483 1_555
O125 P27 1.553483 1_555
O126 P3 1.546658 1_655
O127 P2 1.546658 1_655
