# generated using pymatgen
data_Li2MnV(P2O7)2
_symmetry_space_group_name_H-M   'P 1'
_cell_length_a   4.85480752
_cell_length_b   8.33745651
_cell_length_c   7.08165200
_cell_angle_alpha   91.76393787
_cell_angle_beta   108.56023706
_cell_angle_gamma   89.48552116
_symmetry_Int_Tables_number   1
_chemical_formula_structural   Li2MnV(P2O7)2
_chemical_formula_sum   'Li2 Mn1 V1 P4 O14'
_cell_volume   271.60497076
_cell_formula_units_Z   1
loop_
 _symmetry_equiv_pos_site_id
 _symmetry_equiv_pos_as_xyz
  1  'x, y, z'
loop_
 _atom_site_type_symbol
 _atom_site_label
 _atom_site_symmetry_multiplicity
 _atom_site_fract_x
 _atom_site_fract_y
 _atom_site_fract_z
 _atom_site_occupancy
  Li  Li0  1  0.17264200  0.85921600  0.67074700  1
  Li  Li1  1  0.82448600  0.35599700  0.32994700  1
  Mn  Mn0  1  0.79095600  0.99877700  0.27176800  1
  V  V0  1  0.21135900  0.49943600  0.72527200  1
  P  P0  1  0.40275500  0.17553600  0.52272200  1
  P  P1  1  0.22009100  0.78579700  0.09100700  1
  P  P2  1  0.78419100  0.28894900  0.91234000  1
  P  P3  1  0.60045800  0.68079400  0.48066300  1
  O  O0  1  0.04290100  0.32674800  0.84331500  1
  O  O1  1  0.14189100  0.69898600  0.88871900  1
  O  O2  1  0.18851600  0.03354200  0.47775100  1
  O  O3  1  0.24847400  0.33773700  0.50503800  1
  O  O4  1  0.38884300  0.67477600  0.60183900  1
  O  O5  1  0.59469800  0.43814000  0.91042400  1
  O  O6  1  0.59188100  0.15318800  0.75239100  1
  O  O7  1  0.40517000  0.65712000  0.24798300  1
  O  O8  1  0.40586900  0.93538000  0.09609000  1
  O  O9  1  0.61046100  0.17158600  0.39710200  1
  O  O10  1  0.75598300  0.84135000  0.50646400  1
  O  O11  1  0.80903500  0.53692500  0.51339300  1
  O  O12  1  0.86515700  0.20790900  0.11170600  1
  O  O13  1  0.94418000  0.82769100  0.14331900  1
loop_
_geom_bond_atom_site_label_1
_geom_bond_atom_site_label_2
_geom_bond_distance
_geom_bond_site_symmetry_2
Li0 O4 1.988820 1_555
Li0 O10 1.990982 1_455
Li0 O2 2.043948 1_565
Li0 O1 2.113501 1_555
Li1 O11 1.976906 1_555
Li1 O12 2.006095 1_555
Li1 O9 2.014455 1_555
Li1 O3 2.044202 1_655
Mn0 O13 1.935789 1_555
Mn0 O8 1.954196 1_555
Mn0 O9 2.006294 1_565
Mn0 O2 2.031930 1_665
Mn0 O10 2.198158 1_555
Mn0 O12 2.201757 1_565
O0 P2 1.524200 1_455
O0 V0 1.992753 1_555
O1 P1 1.521521 1_556
O1 V0 2.083601 1_555
O2 P0 1.540386 1_555
O3 P0 1.529068 1_555
O3 V0 2.080266 1_555
O4 P3 1.535952 1_555
O4 V0 2.055333 1_555
O5 P2 1.538265 1_555
O5 V0 1.978533 1_555
O6 P0 1.608715 1_555
O6 P2 1.643990 1_555
O7 P1 1.616891 1_555
O7 P3 1.625350 1_555
O8 P1 1.538467 1_555
O9 P0 1.542059 1_555
O10 P3 1.520090 1_555
O11 P3 1.537459 1_555
O11 V0 2.077568 1_655
O12 P2 1.518222 1_554
O13 P1 1.533954 1_655
