# generated using pymatgen
data_AcMg5
_symmetry_space_group_name_H-M   'P 1'
_cell_length_a   6.16865925
_cell_length_b   6.16865863
_cell_length_c   4.96995389
_cell_angle_alpha   90.00000025
_cell_angle_beta   90.00000141
_cell_angle_gamma   120.00264425
_symmetry_Int_Tables_number   1
_chemical_formula_structural   AcMg5
_chemical_formula_sum   'Ac1 Mg5'
_cell_volume   163.77700953
_cell_formula_units_Z   1
loop_
 _symmetry_equiv_pos_site_id
 _symmetry_equiv_pos_as_xyz
  1  'x, y, z'
loop_
 _atom_site_type_symbol
 _atom_site_label
 _atom_site_symmetry_multiplicity
 _atom_site_fract_x
 _atom_site_fract_y
 _atom_site_fract_z
 _atom_site_occupancy
  Ac  Ac0  1  0.00004422  0.00004420  0.49999992  1
  Mg  Mg0  1  0.00001164  0.50825730  -0.00000009  1
  Mg  Mg1  1  0.33333449  0.66666886  0.50000003  1
  Mg  Mg2  1  0.50825704  0.00001157  -0.00000001  1
  Mg  Mg3  1  0.66666883  0.33333442  0.50000002  1
  Mg  Mg4  1  0.49168378  0.49168365  0.00000012  1
loop_
_geom_bond_atom_site_label_1
_geom_bond_atom_site_label_2
_geom_bond_distance
_geom_bond_site_symmetry_2
Ac0 Mg1 3.561157 1_555
Ac0 Mg3 3.561158 1_555
Ac0 Mg1 3.561519 1_545
Ac0 Mg3 3.561519 1_455
Ac0 Mg3 3.561612 1_445
Ac0 Mg1 3.561612 1_445
Ac0 Mg4 3.920712 1_555
Ac0 Mg4 3.920713 1_556
Ac0 Mg0 3.921432 1_546
Ac0 Mg0 3.921432 1_545
Ac0 Mg2 3.921433 1_455
Ac0 Mg2 3.921433 1_456
Ac0 Mg2 4.000489 1_555
Ac0 Mg2 4.000489 1_556
Ac0 Mg0 4.000490 1_556
Ac0 Mg0 4.000490 1_555
Ac0 Mg4 4.001025 1_445
Ac0 Mg4 4.001027 1_446
Mg0 Mg1 3.057510 1_554
Mg0 Mg1 3.057511 1_555
Mg0 Mg3 3.057569 1_454
Mg0 Mg3 3.057570 1_455
Mg0 Mg4 3.085351 1_555
Mg0 Mg2 3.085463 1_565
Mg0 Mg2 3.085465 1_455
Mg0 Mg4 3.085849 1_455
Mg1 Mg2 3.057569 1_566
Mg1 Mg2 3.057570 1_565
Mg1 Mg4 3.057593 1_555
Mg1 Mg4 3.057594 1_556
Mg2 Mg3 3.057510 1_554
Mg2 Mg3 3.057510 1_555
Mg2 Mg4 3.085349 1_555
Mg2 Mg4 3.085850 1_545
Mg3 Mg4 3.057593 1_555
Mg3 Mg4 3.057593 1_556
