# generated using pymatgen
data_VGeRu2
_symmetry_space_group_name_H-M   'P 1'
_cell_length_a   4.23423100
_cell_length_b   4.23753304
_cell_length_c   4.23605017
_cell_angle_alpha   59.99278611
_cell_angle_beta   59.98295923
_cell_angle_gamma   60.01366781
_symmetry_Int_Tables_number   1
_chemical_formula_structural   VGeRu2
_chemical_formula_sum   'V1 Ge1 Ru2'
_cell_volume   53.74015658
_cell_formula_units_Z   1
loop_
 _symmetry_equiv_pos_site_id
 _symmetry_equiv_pos_as_xyz
  1  'x, y, z'
loop_
 _atom_site_type_symbol
 _atom_site_label
 _atom_site_symmetry_multiplicity
 _atom_site_fract_x
 _atom_site_fract_y
 _atom_site_fract_z
 _atom_site_occupancy
  V  V0  1  0.74996064  0.75000799  0.75002198  1
  Ge  Ge0  1  0.25001274  0.24999336  0.24998218  1
  Ru  Ru0  1  0.50002398  0.50001872  0.49991963  1
  Ru  Ru1  1  0.00000164  0.99997894  0.00007521  1
loop_
_geom_bond_atom_site_label_1
_geom_bond_atom_site_label_2
_geom_bond_distance
_geom_bond_site_symmetry_2
Ge0 Ru0 2.592869 1_455
Ge0 Ru1 2.592869 1_645
Ge0 Ru0 2.593692 1_554
Ge0 Ru1 2.593797 1_546
Ge0 Ru1 2.593807 1_545
Ge0 Ru0 2.593951 1_555
Ge0 Ru0 2.595099 1_545
Ge0 Ru1 2.595137 1_555
Ru0 V0 2.593122 1_554
Ru0 V0 2.593127 1_455
Ru0 V0 2.594139 1_555
Ru0 V0 2.595223 1_545
Ru1 V0 2.592766 1_554
Ru1 V0 2.593291 1_455
Ru1 V0 2.594266 1_454
Ru1 V0 2.595287 1_464
