# generated using pymatgen
data_VIr3
_symmetry_space_group_name_H-M   'P 1'
_cell_length_a   5.43434995
_cell_length_b   5.43434972
_cell_length_c   4.33421918
_cell_angle_alpha   90.00000000
_cell_angle_beta   90.00000000
_cell_angle_gamma   120.00000132
_symmetry_Int_Tables_number   1
_chemical_formula_structural   VIr3
_chemical_formula_sum   'V2 Ir6'
_cell_volume   110.85025103
_cell_formula_units_Z   2
loop_
 _symmetry_equiv_pos_site_id
 _symmetry_equiv_pos_as_xyz
  1  'x, y, z'
loop_
 _atom_site_type_symbol
 _atom_site_label
 _atom_site_symmetry_multiplicity
 _atom_site_fract_x
 _atom_site_fract_y
 _atom_site_fract_z
 _atom_site_occupancy
  V  V0  1  0.33333400  0.66666800  0.74999645  1
  V  V1  1  0.66666700  0.33333300  0.25000355  1
  Ir  Ir0  1  0.16742612  0.33485224  0.24999931  1
  Ir  Ir1  1  0.66514876  0.83257488  0.24999931  1
  Ir  Ir2  1  0.16742612  0.83257488  0.24999931  1
  Ir  Ir3  1  0.83257388  0.66514676  0.75000069  1
  Ir  Ir4  1  0.33485324  0.16742812  0.75000069  1
  Ir  Ir5  1  0.83257488  0.16742812  0.75000069  1
loop_
_geom_bond_atom_site_label_1
_geom_bond_atom_site_label_2
_geom_bond_distance
_geom_bond_site_symmetry_2
Ir0 V0 2.671136 1_555
Ir0 V0 2.671156 1_554
Ir0 Ir4 2.679518 1_554
Ir0 Ir5 2.679518 1_454
Ir0 Ir4 2.679528 1_555
Ir0 Ir5 2.679528 1_455
Ir0 Ir2 2.704799 1_555
Ir0 Ir1 2.704799 1_555
Ir0 V1 2.717182 1_455
Ir0 V1 2.717187 1_555
Ir0 Ir2 2.729551 1_545
Ir0 Ir1 2.729551 1_445
Ir1 V0 2.671133 1_555
Ir1 V0 2.671153 1_554
Ir1 Ir5 2.679523 1_564
Ir1 Ir3 2.679523 1_554
Ir1 Ir5 2.679533 1_565
Ir1 Ir3 2.679533 1_555
Ir1 Ir2 2.704799 1_555
Ir1 V1 2.717179 1_565
Ir1 V1 2.717190 1_555
Ir1 Ir2 2.729551 1_655
Ir2 V0 2.671133 1_555
Ir2 V0 2.671153 1_554
Ir2 Ir3 2.679521 1_454
Ir2 Ir4 2.679523 1_564
Ir2 Ir3 2.679530 1_455
Ir2 Ir4 2.679533 1_565
Ir2 V1 2.717182 1_565
Ir2 V1 2.717187 1_455
Ir3 V1 2.671130 1_555
Ir3 V1 2.671150 1_556
Ir3 Ir5 2.704780 1_555
Ir3 Ir4 2.704783 1_555
Ir3 V0 2.717182 1_655
Ir3 V0 2.717187 1_555
Ir3 Ir4 2.729567 1_665
Ir3 Ir5 2.729570 1_565
Ir4 V1 2.671130 1_555
Ir4 V1 2.671150 1_556
Ir4 Ir5 2.704794 1_555
Ir4 V0 2.717182 1_555
Ir4 V0 2.717187 1_545
Ir4 Ir5 2.729556 1_455
Ir5 V1 2.671127 1_555
Ir5 V1 2.671148 1_556
Ir5 V0 2.717182 1_655
Ir5 V0 2.717187 1_545
