# generated using pymatgen
data_Li4Fe3(CoO4)3
_symmetry_space_group_name_H-M   'P 1'
_cell_length_a   5.72661700
_cell_length_b   5.90282130
_cell_length_c   6.60989445
_cell_angle_alpha   105.61919157
_cell_angle_beta   102.72223973
_cell_angle_gamma   88.98220945
_symmetry_Int_Tables_number   1
_chemical_formula_structural   Li4Fe3(CoO4)3
_chemical_formula_sum   'Li4 Fe3 Co3 O12'
_cell_volume   209.69644510
_cell_formula_units_Z   1
loop_
 _symmetry_equiv_pos_site_id
 _symmetry_equiv_pos_as_xyz
  1  'x, y, z'
loop_
 _atom_site_type_symbol
 _atom_site_label
 _atom_site_symmetry_multiplicity
 _atom_site_fract_x
 _atom_site_fract_y
 _atom_site_fract_z
 _atom_site_occupancy
  Li  Li0  1  0.17851900  0.15245200  0.65235400  1
  Li  Li1  1  0.82148100  0.84754800  0.34764600  1
  Li  Li2  1  0.50000000  0.50000000  0.00000000  1
  Li  Li3  1  0.00000000  0.50000000  0.00000000  1
  Fe  Fe0  1  0.00000000  0.00000000  0.00000000  1
  Fe  Fe1  1  0.66424800  0.66837900  0.66449500  1
  Fe  Fe2  1  0.33575200  0.33162100  0.33550500  1
  Co  Co0  1  0.50000000  0.00000000  0.00000000  1
  Co  Co1  1  0.16704500  0.66691700  0.66229300  1
  Co  Co2  1  0.83295500  0.33308300  0.33770700  1
  O  O0  1  0.41740300  0.89061300  0.68926500  1
  O  O1  1  0.91939600  0.88858700  0.67203700  1
  O  O2  1  0.58259700  0.10938700  0.31073500  1
  O  O3  1  0.25365900  0.76016100  0.97063600  1
  O  O4  1  0.08060400  0.11141300  0.32796300  1
  O  O5  1  0.73975600  0.75925400  0.98185500  1
  O  O6  1  0.58965500  0.55964100  0.35343800  1
  O  O7  1  0.26024400  0.24074600  0.01814500  1
  O  O8  1  0.08180900  0.55260500  0.34689200  1
  O  O9  1  0.74634100  0.23983900  0.02936400  1
  O  O10  1  0.41034500  0.44035900  0.64656200  1
  O  O11  1  0.91819100  0.44739500  0.65310800  1
loop_
_geom_bond_atom_site_label_1
_geom_bond_atom_site_label_2
_geom_bond_distance
_geom_bond_site_symmetry_2
Li0 O4 2.041132 1_555
Li0 O0 2.073819 1_545
Li0 O10 2.188534 1_555
Li0 O1 2.218354 1_445
Li0 O11 2.271556 1_455
Li0 O7 2.273393 1_556
Li1 O1 2.041132 1_555
Li1 O2 2.073819 1_565
Li1 O6 2.188534 1_555
Li1 O4 2.218354 1_665
Li1 O8 2.271556 1_655
Li1 O5 2.273393 1_554
Li2 O9 2.085429 1_555
Li2 O3 2.085429 1_554
Li2 O7 2.118350 1_555
Li2 O5 2.118350 1_554
Li2 O10 2.209199 1_554
Li2 O6 2.209199 1_555
Li3 O7 2.125189 1_555
Li3 O5 2.125189 1_454
Li3 O11 2.173021 1_454
Li3 O8 2.173021 1_555
Li3 O3 2.206808 1_554
Li3 O9 2.206808 1_455
Fe0 O3 2.013748 1_544
Fe0 O9 2.013748 1_455
Fe0 O4 2.036490 1_555
Fe0 O1 2.036490 1_444
Fe0 O5 2.039518 1_444
Fe0 O7 2.039518 1_555
Fe1 O0 1.914753 1_555
Fe1 O6 1.932377 1_555
Fe1 O11 1.936478 1_555
Fe1 O1 1.956400 1_555
Fe1 O10 1.961503 1_555
Fe1 O5 1.969245 1_555
Fe2 O2 1.914753 1_555
Fe2 O10 1.932377 1_555
Fe2 O8 1.936478 1_555
Fe2 O4 1.956400 1_555
Fe2 O6 1.961503 1_555
Fe2 O7 1.969245 1_555
Co0 O2 1.930820 1_555
Co0 O0 1.930820 1_544
Co0 O7 1.957139 1_555
Co0 O5 1.957139 1_544
Co0 O9 1.958167 1_555
Co0 O3 1.958167 1_544
Co1 O1 1.912186 1_455
Co1 O0 1.912788 1_555
Co1 O10 1.913961 1_555
Co1 O3 1.913963 1_555
Co1 O11 1.923226 1_455
Co1 O8 1.961074 1_555
Co2 O4 1.912186 1_655
Co2 O2 1.912788 1_555
Co2 O6 1.913961 1_555
Co2 O9 1.913963 1_555
Co2 O8 1.923226 1_655
Co2 O11 1.961074 1_555
