# generated using pymatgen
data_HfTc2Sb
_symmetry_space_group_name_H-M   'P 1'
_cell_length_a   4.55809399
_cell_length_b   4.55809399
_cell_length_c   4.55809399
_cell_angle_alpha   60.00000000
_cell_angle_beta   60.00000000
_cell_angle_gamma   60.00000000
_symmetry_Int_Tables_number   1
_chemical_formula_structural   HfTc2Sb
_chemical_formula_sum   'Hf1 Tc2 Sb1'
_cell_volume   66.96298905
_cell_formula_units_Z   1
loop_
 _symmetry_equiv_pos_site_id
 _symmetry_equiv_pos_as_xyz
  1  'x, y, z'
loop_
 _atom_site_type_symbol
 _atom_site_label
 _atom_site_symmetry_multiplicity
 _atom_site_fract_x
 _atom_site_fract_y
 _atom_site_fract_z
 _atom_site_occupancy
  Hf  Hf0  1  0.25000000  0.25000000  0.25000000  1
  Tc  Tc0  1  0.50000000  0.50000000  0.50000000  1
  Tc  Tc1  1  0.00000000  -0.00000000  -0.00000000  1
  Sb  Sb0  1  0.75000100  0.75000100  0.75000100  1
loop_
_geom_bond_atom_site_label_1
_geom_bond_atom_site_label_2
_geom_bond_distance
_geom_bond_site_symmetry_2
Hf0 Tc1 2.791251 1_555
Hf0 Tc1 2.791251 1_655
Hf0 Tc0 2.791251 1_455
Hf0 Tc0 2.791251 1_545
Hf0 Tc0 2.791251 1_555
Hf0 Tc0 2.791251 1_554
Hf0 Tc1 2.791251 1_556
Hf0 Tc1 2.791251 1_565
Hf0 Sb0 3.223053 1_454
Hf0 Sb0 3.223053 1_544
Hf0 Sb0 3.223053 1_445
Hf0 Sb0 3.223066 1_554
Hf0 Sb0 3.223066 1_545
Hf0 Sb0 3.223066 1_455
Sb0 Tc1 2.791240 1_666
Sb0 Tc0 2.791247 1_556
Sb0 Tc0 2.791247 1_565
Sb0 Tc0 2.791247 1_655
Sb0 Tc1 2.791255 1_656
Sb0 Tc1 2.791255 1_566
Sb0 Tc1 2.791255 1_665
Sb0 Tc0 2.791262 1_555
