# generated using pymatgen
data_Mn15NiO32
_symmetry_space_group_name_H-M   'P 1'
_cell_length_a   8.23564595
_cell_length_b   8.23564595
_cell_length_c   8.23564610
_cell_angle_alpha   90.23833908
_cell_angle_beta   90.23833908
_cell_angle_gamma   90.23834391
_symmetry_Int_Tables_number   1
_chemical_formula_structural   Mn15NiO32
_chemical_formula_sum   'Mn15 Ni1 O32'
_cell_volume   558.57527481
_cell_formula_units_Z   1
loop_
 _symmetry_equiv_pos_site_id
 _symmetry_equiv_pos_as_xyz
  1  'x, y, z'
loop_
 _atom_site_type_symbol
 _atom_site_label
 _atom_site_symmetry_multiplicity
 _atom_site_fract_x
 _atom_site_fract_y
 _atom_site_fract_z
 _atom_site_occupancy
  Mn  Mn0  1  0.99943100  0.24879200  0.24879200  1
  Mn  Mn1  1  0.00000000  0.50000000  0.50000000  1
  Mn  Mn2  1  0.00056900  0.75120800  0.75120800  1
  Mn  Mn3  1  0.75050300  0.50000000  0.24949700  1
  Mn  Mn4  1  0.75050300  0.24949700  0.50000000  1
  Mn  Mn5  1  0.75120800  0.75120800  0.00056900  1
  Mn  Mn6  1  0.75120800  0.00056900  0.75120800  1
  Mn  Mn7  1  0.50000000  0.50000000  0.00000000  1
  Mn  Mn8  1  0.50000000  0.24949700  0.75050300  1
  Mn  Mn9  1  0.50000000  0.75050300  0.24949700  1
  Mn  Mn10  1  0.50000000  0.00000000  0.50000000  1
  Mn  Mn11  1  0.24879200  0.24879200  0.99943100  1
  Mn  Mn12  1  0.24949700  0.50000000  0.75050300  1
  Mn  Mn13  1  0.24879200  0.99943100  0.24879200  1
  Mn  Mn14  1  0.24949700  0.75050300  0.50000000  1
  Ni  Ni0  1  0.00000000  0.00000000  0.00000000  1
  O  O0  1  0.01388200  0.23133200  0.01388200  1
  O  O1  1  0.01388200  0.01388200  0.23133200  1
  O  O2  1  0.01425000  0.73609900  0.51499400  1
  O  O3  1  0.01425000  0.51499400  0.73609900  1
  O  O4  1  0.98575000  0.26390100  0.48500600  1
  O  O5  1  0.98575000  0.48500600  0.26390100  1
  O  O6  1  0.98611800  0.76866800  0.98611800  1
  O  O7  1  0.98611800  0.98611800  0.76866800  1
  O  O8  1  0.76424200  0.26423600  0.26423600  1
  O  O9  1  0.76504600  0.48509400  0.48509400  1
  O  O10  1  0.76483000  0.76483000  0.76483000  1
  O  O11  1  0.76866800  0.98611800  0.98611800  1
  O  O12  1  0.73576400  0.73576400  0.23575800  1
  O  O13  1  0.73609900  0.51499400  0.01425000  1
  O  O14  1  0.73576400  0.23575800  0.73576400  1
  O  O15  1  0.73609900  0.01425000  0.51499400  1
  O  O16  1  0.51490600  0.51490600  0.23495400  1
  O  O17  1  0.51499400  0.73609900  0.01425000  1
  O  O18  1  0.51499400  0.01425000  0.73609900  1
  O  O19  1  0.51490600  0.23495400  0.51490600  1
  O  O20  1  0.48509400  0.48509400  0.76504600  1
  O  O21  1  0.48500600  0.26390100  0.98575000  1
  O  O22  1  0.48500600  0.98575000  0.26390100  1
  O  O23  1  0.48509400  0.76504600  0.48509400  1
  O  O24  1  0.26390100  0.48500600  0.98575000  1
  O  O25  1  0.26423600  0.26423600  0.76424200  1
  O  O26  1  0.26390100  0.98575000  0.48500600  1
  O  O27  1  0.26423600  0.76424200  0.26423600  1
  O  O28  1  0.23133200  0.01388200  0.01388200  1
  O  O29  1  0.23517000  0.23517000  0.23517000  1
  O  O30  1  0.23495400  0.51490600  0.51490600  1
  O  O31  1  0.23575800  0.73576400  0.73576400  1
loop_
_geom_bond_atom_site_label_1
_geom_bond_atom_site_label_2
_geom_bond_distance
_geom_bond_site_symmetry_2
Mn0 O1 1.943553 1_655
Mn0 O0 1.943553 1_655
Mn0 O8 1.946286 1_555
Mn0 O29 1.948838 1_655
Mn0 O5 1.952585 1_555
Mn0 O4 1.952585 1_555
Mn1 O30 1.941721 1_555
Mn1 O9 1.941721 1_455
Mn1 O2 1.950847 1_555
Mn1 O4 1.950847 1_455
Mn1 O3 1.950847 1_555
Mn1 O5 1.950847 1_455
Mn2 O7 1.943553 1_455
Mn2 O6 1.943553 1_455
Mn2 O31 1.946286 1_555
Mn2 O10 1.948838 1_455
Mn2 O3 1.952585 1_555
Mn2 O2 1.952585 1_555
Mn3 O5 1.945015 1_555
Mn3 O13 1.945015 1_555
Mn3 O16 1.947903 1_555
Mn3 O9 1.947903 1_555
Mn3 O8 1.949690 1_555
Mn3 O12 1.949690 1_555
Mn4 O4 1.945015 1_555
Mn4 O15 1.945015 1_555
Mn4 O9 1.947903 1_555
Mn4 O19 1.947903 1_555
Mn4 O14 1.949690 1_555
Mn4 O8 1.949690 1_555
Mn5 O11 1.943553 1_554
Mn5 O6 1.943553 1_554
Mn5 O12 1.946286 1_555
Mn5 O10 1.948838 1_554
Mn5 O13 1.952585 1_555
Mn5 O17 1.952585 1_555
Mn6 O7 1.943553 1_545
Mn6 O11 1.943553 1_545
Mn6 O14 1.946286 1_555
Mn6 O10 1.948838 1_545
Mn6 O18 1.952585 1_555
Mn6 O15 1.952585 1_555
Mn7 O16 1.941721 1_555
Mn7 O20 1.941721 1_554
Mn7 O17 1.950847 1_555
Mn7 O13 1.950847 1_555
Mn7 O21 1.950847 1_554
Mn7 O24 1.950847 1_554
Mn8 O18 1.945015 1_555
Mn8 O21 1.945015 1_555
Mn8 O20 1.947903 1_555
Mn8 O19 1.947903 1_555
Mn8 O14 1.949690 1_555
Mn8 O25 1.949690 1_555
Mn9 O22 1.945015 1_555
Mn9 O17 1.945015 1_555
Mn9 O16 1.947903 1_555
Mn9 O23 1.947903 1_555
Mn9 O27 1.949690 1_555
Mn9 O12 1.949690 1_555
Mn10 O23 1.941721 1_545
Mn10 O19 1.941721 1_555
Mn10 O15 1.950847 1_555
Mn10 O26 1.950847 1_545
Mn10 O18 1.950847 1_555
Mn10 O22 1.950847 1_545
Mn11 O28 1.943553 1_556
Mn11 O0 1.943553 1_556
Mn11 O25 1.946286 1_555
Mn11 O29 1.948838 1_556
Mn11 O21 1.952585 1_555
Mn11 O24 1.952585 1_555
Mn12 O3 1.945015 1_555
Mn12 O24 1.945015 1_555
Mn12 O20 1.947903 1_555
Mn12 O30 1.947903 1_555
Mn12 O31 1.949690 1_555
Mn12 O25 1.949690 1_555
Mn13 O1 1.943553 1_565
Mn13 O28 1.943553 1_565
Mn13 O27 1.946286 1_555
Mn13 O29 1.948838 1_565
Mn13 O22 1.952585 1_555
Mn13 O26 1.952585 1_555
Mn14 O26 1.945015 1_555
Mn14 O2 1.945015 1_555
Mn14 O23 1.947903 1_555
Mn14 O30 1.947903 1_555
Mn14 O27 1.949690 1_555
Mn14 O31 1.949690 1_555
Ni0 O6 1.911040 1_444
Ni0 O11 1.911040 1_444
Ni0 O28 1.911040 1_555
Ni0 O0 1.911040 1_555
Ni0 O7 1.911040 1_444
Ni0 O1 1.911040 1_555
