# generated using pymatgen
data_LiV2OF5
_symmetry_space_group_name_H-M   'P 1'
_cell_length_a   5.51764633
_cell_length_b   5.51764633
_cell_length_c   17.78833197
_cell_angle_alpha   77.39788504
_cell_angle_beta   77.39788504
_cell_angle_gamma   56.54257078
_symmetry_Int_Tables_number   1
_chemical_formula_structural   LiV2OF5
_chemical_formula_sum   'Li4 V8 O4 F20'
_cell_volume   437.73386756
_cell_formula_units_Z   4
loop_
 _symmetry_equiv_pos_site_id
 _symmetry_equiv_pos_as_xyz
  1  'x, y, z'
loop_
 _atom_site_type_symbol
 _atom_site_label
 _atom_site_symmetry_multiplicity
 _atom_site_fract_x
 _atom_site_fract_y
 _atom_site_fract_z
 _atom_site_occupancy
  Li  Li0  1  0.52569600  0.62928600  0.12074900  1
  Li  Li1  1  0.00935000  0.13815500  0.61563000  1
  Li  Li2  1  0.86184500  0.99065000  0.38437000  1
  Li  Li3  1  0.37071400  0.47430400  0.87925100  1
  V  V0  1  0.90274700  0.98146100  0.19014700  1
  V  V1  1  0.48398300  0.63656500  0.30504600  1
  V  V2  1  0.75506700  0.88870200  0.55992000  1
  V  V3  1  0.11129800  0.24493300  0.44008000  1
  V  V4  1  0.01853900  0.09725300  0.80985300  1
  V  V5  1  0.62963100  0.72352000  0.94068300  1
  V  V6  1  0.36343500  0.51601700  0.69495400  1
  V  V7  1  0.27648000  0.37036900  0.05931700  1
  O  O0  1  0.27629400  0.78006400  0.21997300  1
  O  O1  1  0.01660300  0.98339700  0.50000000  1
  O  O2  1  0.21993600  0.72370600  0.78002700  1
  O  O3  1  0.53985400  0.46014600  0.00000000  1
  F  F0  1  0.17427400  0.57359800  0.37815200  1
  F  F1  1  0.30733400  0.20087500  0.75271300  1
  F  F2  1  0.79912500  0.69266600  0.24728700  1
  F  F3  1  0.53308100  0.27467400  0.60195300  1
  F  F4  1  0.72532600  0.46691900  0.39804700  1
  F  F5  1  0.23568000  0.95573000  0.90355100  1
  F  F6  1  0.96243900  0.47192800  0.53628100  1
  F  F7  1  0.79413300  0.28444300  0.71337700  1
  F  F8  1  0.71555700  0.20586700  0.28662300  1
  F  F9  1  0.47853200  0.95273100  0.03733100  1
  F  F10  1  0.68361800  0.05720000  0.87591500  1
  F  F11  1  0.04427000  0.76432000  0.09644900  1
  F  F12  1  0.76460900  0.50024400  0.84728700  1
  F  F13  1  0.97393000  0.74452400  0.65288900  1
  F  F14  1  0.25547600  0.02607000  0.34711100  1
  F  F15  1  0.52807200  0.03756100  0.46371900  1
  F  F16  1  0.04726900  0.52146800  0.96266900  1
  F  F17  1  0.42640200  0.82572600  0.62184800  1
  F  F18  1  0.94280000  0.31638200  0.12408500  1
  F  F19  1  0.49975600  0.23539100  0.15271300  1
loop_
_geom_bond_atom_site_label_1
_geom_bond_atom_site_label_2
_geom_bond_distance
_geom_bond_site_symmetry_2
Li0 O0 2.004914 1_555
Li0 O3 2.492337 1_555
Li1 O1 2.377865 1_545
Li2 O1 2.377865 1_655
Li3 O2 2.004914 1_555
Li3 O3 2.492337 1_556
O0 V0 1.859821 1_455
O0 V1 1.861084 1_555
O1 V3 1.846270 1_565
O1 V2 1.846270 1_455
O2 V4 1.859821 1_565
O2 V6 1.861084 1_555
O3 V7 1.834966 1_555
O3 V5 1.834966 1_554
F0 Li2 1.983200 1_455
F0 V1 2.054226 1_555
F0 V3 2.068563 1_555
F1 V6 1.962181 1_555
F1 V4 1.985800 1_555
F2 V1 1.962181 1_555
F2 V0 1.985800 1_555
F3 V2 2.003427 1_545
F3 V6 2.073027 1_555
F3 Li1 2.355574 1_655
F4 V3 2.003427 1_655
F4 V1 2.073027 1_555
F4 Li2 2.355574 1_545
F5 V5 1.997280 1_555
F5 V4 2.023629 1_565
F5 Li3 2.444652 1_555
F6 Li1 1.987574 1_655
F6 V2 2.021128 1_555
F6 V3 2.087903 1_655
F7 Li1 1.933775 1_655
F7 V6 2.048530 1_555
F7 V4 2.070920 1_655
F8 Li2 1.933775 1_545
F8 V1 2.048530 1_555
F8 V0 2.070920 1_545
F9 Li0 1.988825 1_555
F9 V7 2.018985 1_565
F9 V5 2.100223 1_554
F10 Li3 1.978525 1_555
F10 V4 2.057712 1_655
F10 V5 2.082120 1_545
F11 V7 1.997280 1_555
F11 V0 2.023629 1_455
F11 Li0 2.444652 1_555
F12 V4 2.038262 1_655
F12 V5 2.043040 1_555
F12 Li3 2.198996 1_555
F13 V2 2.015987 1_555
F13 V6 2.017590 1_655
F13 Li1 2.231158 1_665
F14 V3 2.015987 1_555
F14 V1 2.017590 1_545
F14 Li2 2.231158 1_445
F15 Li2 1.987574 1_545
F15 V3 2.021128 1_555
F15 V2 2.087903 1_545
F16 Li3 1.988825 1_555
F16 V5 2.018985 1_455
F16 V7 2.100223 1_556
F17 Li1 1.983200 1_565
F17 V6 2.054226 1_555
F17 V2 2.068563 1_555
F18 Li0 1.978525 1_555
F18 V0 2.057712 1_545
F18 V7 2.082120 1_655
F19 V0 2.038262 1_545
F19 V7 2.043040 1_555
F19 Li0 2.198996 1_555
