# generated using pymatgen
data_H28RuS2(N3O5)2
_symmetry_space_group_name_H-M   'P 1'
_cell_length_a   10.05346200
_cell_length_b   6.33261500
_cell_length_c   12.63794785
_cell_angle_alpha   84.47200961
_cell_angle_beta   90.00000000
_cell_angle_gamma   90.00000000
_symmetry_Int_Tables_number   1
_chemical_formula_structural   H28RuS2(N3O5)2
_chemical_formula_sum   'H56 Ru2 S4 N12 O20'
_cell_volume   800.84926526
_cell_formula_units_Z   2
loop_
 _symmetry_equiv_pos_site_id
 _symmetry_equiv_pos_as_xyz
  1  'x, y, z'
loop_
 _atom_site_type_symbol
 _atom_site_label
 _atom_site_symmetry_multiplicity
 _atom_site_fract_x
 _atom_site_fract_y
 _atom_site_fract_z
 _atom_site_occupancy
  H  H0  1  0.62332300  0.83551900  0.33249400  1
  H  H1  1  0.87667700  0.83551900  0.83249400  1
  H  H2  1  0.37667700  0.16448100  0.66750600  1
  H  H3  1  0.12332300  0.16448100  0.16750600  1
  H  H4  1  0.49715800  0.68092200  0.37196600  1
  H  H5  1  0.00284200  0.68092200  0.87196600  1
  H  H6  1  0.50284200  0.31907800  0.62803400  1
  H  H7  1  0.99715800  0.31907800  0.12803400  1
  H  H8  1  0.47120200  0.90397400  0.29825300  1
  H  H9  1  0.02879800  0.90397400  0.79825300  1
  H  H10  1  0.52879800  0.09602600  0.70174700  1
  H  H11  1  0.97120200  0.09602600  0.20174700  1
  H  H12  1  0.37692500  0.62045700  0.52266300  1
  H  H13  1  0.12307500  0.62045700  0.02266300  1
  H  H14  1  0.62307500  0.37954300  0.47733700  1
  H  H15  1  0.87692500  0.37954300  0.97733700  1
  H  H16  1  0.37845900  0.71646800  0.64174100  1
  H  H17  1  0.12154100  0.71646800  0.14174100  1
  H  H18  1  0.62154100  0.28353200  0.35825900  1
  H  H19  1  0.87845900  0.28353200  0.85825900  1
  H  H20  1  0.27100100  0.80437700  0.55039000  1
  H  H21  1  0.22899900  0.80437700  0.05039000  1
  H  H22  1  0.72899900  0.19562300  0.44961000  1
  H  H23  1  0.77100100  0.19562300  0.94961000  1
  H  H24  1  0.03452900  0.15038000  0.41133100  1
  H  H25  1  0.46547100  0.15038000  0.91133100  1
  H  H26  1  0.96547100  0.84962000  0.58866900  1
  H  H27  1  0.53452900  0.84962000  0.08866900  1
  H  H28  1  0.89138000  0.04727300  0.42352300  1
  H  H29  1  0.60862000  0.04727300  0.92352300  1
  H  H30  1  0.10862000  0.95272700  0.57647700  1
  H  H31  1  0.39138000  0.95272700  0.07647700  1
  H  H32  1  0.76748200  0.39031900  0.65780500  1
  H  H33  1  0.73251800  0.39031900  0.15780500  1
  H  H34  1  0.23251800  0.60968100  0.34219500  1
  H  H35  1  0.26748200  0.60968100  0.84219500  1
  H  H36  1  0.79148500  0.14171900  0.68525700  1
  H  H37  1  0.70851500  0.14171900  0.18525700  1
  H  H38  1  0.20851500  0.85828100  0.31474300  1
  H  H39  1  0.29148500  0.85828100  0.81474300  1
  H  H40  1  0.09719400  0.56639000  0.64007200  1
  H  H41  1  0.40280600  0.56639000  0.14007200  1
  H  H42  1  0.90280600  0.43361000  0.35992800  1
  H  H43  1  0.59719400  0.43361000  0.85992800  1
  H  H44  1  0.99597700  0.35122000  0.65372600  1
  H  H45  1  0.50402300  0.35122000  0.15372600  1
  H  H46  1  0.00402300  0.64878000  0.34627400  1
  H  H47  1  0.49597700  0.64878000  0.84627400  1
  H  H48  1  0.13938000  0.33969700  0.58108100  1
  H  H49  1  0.36062000  0.33969700  0.08108100  1
  H  H50  1  0.86062000  0.66030300  0.41891900  1
  H  H51  1  0.63938000  0.66030300  0.91891900  1
  H  H52  1  0.14490800  0.33444200  0.71493400  1
  H  H53  1  0.35509200  0.33444200  0.21493500  1
  H  H54  1  0.85509200  0.66555800  0.28506600  1
  H  H55  1  0.64490800  0.66555800  0.78506600  1
  Ru  Ru0  1  0.50000000  0.00000000  0.50000000  1
  Ru  Ru1  1  0.00000000  0.00000000  0.00000000  1
  S  S0  1  0.67668900  0.81188900  0.57820000  1
  S  S1  1  0.82331100  0.81188900  0.07820000  1
  S  S2  1  0.32331100  0.18811100  0.42180000  1
  S  S3  1  0.17668900  0.18811100  0.92180000  1
  N  N0  1  0.52780200  0.83661200  0.36021400  1
  N  N1  1  0.97219800  0.83661200  0.86021400  1
  N  N2  1  0.47219800  0.16338800  0.63978600  1
  N  N3  1  0.02780200  0.16338800  0.13978600  1
  N  N4  1  0.36716800  0.75515200  0.56166000  1
  N  N5  1  0.13283200  0.75515200  0.06166000  1
  N  N6  1  0.63283200  0.24484800  0.43834000  1
  N  N7  1  0.86716800  0.24484800  0.93834000  1
  N  N8  1  0.09571200  0.40079000  0.64708600  1
  N  N9  1  0.40428800  0.40079000  0.14708600  1
  N  N10  1  0.90428800  0.59921000  0.35291400  1
  N  N11  1  0.59571200  0.59921000  0.85291400  1
  O  O0  1  0.71574700  0.88212900  0.68656600  1
  O  O1  1  0.78425300  0.88212900  0.18656600  1
  O  O2  1  0.28425300  0.11787100  0.31343400  1
  O  O3  1  0.21574700  0.11787100  0.81343400  1
  O  O4  1  0.64879100  0.57404900  0.59669500  1
  O  O5  1  0.85120900  0.57404900  0.09669500  1
  O  O6  1  0.35120900  0.42595100  0.40330500  1
  O  O7  1  0.14879100  0.42595100  0.90330500  1
  O  O8  1  0.80510700  0.83540300  0.50990500  1
  O  O9  1  0.69489300  0.83540300  0.00990500  1
  O  O10  1  0.19489300  0.16459700  0.49009500  1
  O  O11  1  0.30510700  0.16459700  0.99009500  1
  O  O12  1  0.94342800  0.15590900  0.38048400  1
  O  O13  1  0.55657200  0.15590900  0.88048400  1
  O  O14  1  0.05657200  0.84409100  0.61951600  1
  O  O15  1  0.44342800  0.84409100  0.11951600  1
  O  O16  1  0.83208600  0.28354600  0.69010400  1
  O  O17  1  0.66791400  0.28354600  0.19010400  1
  O  O18  1  0.16791400  0.71645400  0.30989600  1
  O  O19  1  0.33208600  0.71645400  0.80989600  1
loop_
_geom_bond_atom_site_label_1
_geom_bond_atom_site_label_2
_geom_bond_distance
_geom_bond_site_symmetry_2
H0 N0 1.022473 1_555
H1 N1 1.022473 1_555
H2 N2 1.022473 1_555
H3 N3 1.022473 1_555
H4 N0 1.029955 1_555
H5 N1 1.029955 1_455
H6 N2 1.029955 1_555
H7 N3 1.029955 1_655
H8 N0 1.026930 1_555
H9 N1 1.026930 1_455
H10 N2 1.026930 1_555
H11 N3 1.026930 1_655
H12 N4 1.030082 1_555
H13 N5 1.030082 1_555
H14 N6 1.030082 1_555
H15 N7 1.030082 1_555
H16 N4 1.024399 1_555
H17 N5 1.024399 1_555
H18 N6 1.024399 1_555
H19 N7 1.024399 1_555
H20 N4 1.021581 1_555
H21 N5 1.021581 1_555
H22 N6 1.021581 1_555
H23 N7 1.021581 1_555
H24 O12 0.994691 1_455
H25 O13 0.994691 1_555
H26 O14 0.994691 1_655
H27 O15 0.994691 1_555
H28 O12 0.985312 1_555
H29 O13 0.985312 1_555
H30 O14 0.985312 1_555
H31 O15 0.985312 1_555
H32 O16 0.996228 1_555
H33 O17 0.996228 1_555
H34 O18 0.996228 1_555
H35 O19 0.996228 1_555
H36 O16 0.993786 1_555
H37 O17 0.993786 1_555
H38 O18 0.993786 1_555
H39 O19 0.993786 1_555
H40 N8 1.043984 1_555
H41 N9 1.043984 1_555
H42 N10 1.043984 1_555
H43 N11 1.043984 1_555
H44 N8 1.051606 1_655
H45 N9 1.051606 1_555
H46 N10 1.051606 1_455
H47 N11 1.051606 1_555
H48 N8 1.049010 1_555
H49 N9 1.049010 1_555
H50 N10 1.049010 1_555
H51 N11 1.049010 1_555
H52 N8 1.042582 1_555
H53 N9 1.042592 1_555
H54 N10 1.042582 1_555
H55 N11 1.042582 1_555
Ru0 S0 2.307445 1_545
Ru0 S2 2.307445 1_555
Ru1 S3 2.307445 1_554
Ru1 S1 2.307445 1_445
N0 Ru0 2.149823 1_565
N1 Ru1 2.149823 1_666
N2 Ru0 2.149823 1_555
N3 Ru1 2.149823 1_555
N4 Ru0 2.135870 1_565
N5 Ru1 2.135870 1_565
N6 Ru0 2.135870 1_555
N7 Ru1 2.135870 1_656
O0 S0 1.531339 1_555
O1 S1 1.531339 1_555
O2 S2 1.531339 1_555
O3 S3 1.531339 1_555
O4 S0 1.527729 1_555
O5 S1 1.527729 1_555
O6 S2 1.527729 1_555
O7 S3 1.527729 1_555
O8 S0 1.552149 1_555
O9 S1 1.552149 1_555
O10 S2 1.552149 1_555
O11 S3 1.552149 1_555
