# generated using pymatgen
data_MgRh3
_symmetry_space_group_name_H-M   'P 1'
_cell_length_a   5.51414364
_cell_length_b   10.28208829
_cell_length_c   9.42760738
_cell_angle_alpha   62.71300206
_cell_angle_beta   90.00000000
_cell_angle_gamma   74.44618331
_symmetry_Int_Tables_number   1
_chemical_formula_structural   MgRh3
_chemical_formula_sum   'Mg8 Rh24'
_cell_volume   452.89792168
_cell_formula_units_Z   8
loop_
 _symmetry_equiv_pos_site_id
 _symmetry_equiv_pos_as_xyz
  1  'x, y, z'
loop_
 _atom_site_type_symbol
 _atom_site_label
 _atom_site_symmetry_multiplicity
 _atom_site_fract_x
 _atom_site_fract_y
 _atom_site_fract_z
 _atom_site_occupancy
  Mg  Mg0_0  1  0.37500000  0.25000050  0.04210795  1
  Mg  Mg0_1  1  0.37500000  0.25000050  0.54210795  1
  Mg  Mg0_2  1  0.37500000  0.75000050  0.04210795  1
  Mg  Mg0_3  1  0.37500000  0.75000050  0.54210795  1
  Mg  Mg0_4  1  0.87500000  0.25000050  0.04210795  1
  Mg  Mg0_5  1  0.87500000  0.25000050  0.54210795  1
  Mg  Mg0_6  1  0.87500000  0.75000050  0.04210795  1
  Mg  Mg0_7  1  0.87500000  0.75000050  0.54210795  1
  Rh  Rh0_0  1  0.49802220  0.00395610  0.00075891  1
  Rh  Rh0_1  1  0.49802220  0.00395610  0.50075890  1
  Rh  Rh0_2  1  0.49802220  0.50395610  0.00075890  1
  Rh  Rh0_3  1  0.49802220  0.50395610  0.50075890  1
  Rh  Rh0_4  1  0.99802220  0.00395610  0.00075891  1
  Rh  Rh0_5  1  0.99802220  0.00395610  0.50075890  1
  Rh  Rh0_6  1  0.99802220  0.50395610  0.00075890  1
  Rh  Rh0_7  1  0.99802220  0.50395610  0.50075890  1
  Rh  Rh1_0  1  0.25197830  0.49604489  0.25471501  1
  Rh  Rh1_1  1  0.25197830  0.49604489  0.75471501  1
  Rh  Rh1_2  1  0.25197830  0.99604489  0.25471501  1
  Rh  Rh1_3  1  0.25197830  0.99604489  0.75471501  1
  Rh  Rh1_4  1  0.75197830  0.49604489  0.25471501  1
  Rh  Rh1_5  1  0.75197830  0.49604489  0.75471501  1
  Rh  Rh1_6  1  0.75197830  0.99604489  0.25471501  1
  Rh  Rh1_7  1  0.75197830  0.99604489  0.75471501  1
  Rh  Rh2_0  1  0.12500000  0.25000050  0.28574964  1
  Rh  Rh2_1  1  0.12500000  0.25000050  0.78574963  1
  Rh  Rh2_2  1  0.12500000  0.75000050  0.28574963  1
  Rh  Rh2_3  1  0.12500000  0.75000050  0.78574964  1
  Rh  Rh2_4  1  0.62500000  0.25000050  0.28574964  1
  Rh  Rh2_5  1  0.62500000  0.25000050  0.78574963  1
  Rh  Rh2_6  1  0.62500000  0.75000050  0.28574963  1
  Rh  Rh2_7  1  0.62500000  0.75000050  0.78574964  1
loop_
_geom_bond_atom_site_label_1
_geom_bond_atom_site_label_2
_geom_bond_distance
_geom_bond_site_symmetry_2
Mg0_0 Rh1_1 2.645024 1_554
Mg0_0 Rh0_0 2.645026 1_555
Mg0_0 Rh2_0 2.678876 1_555
Mg0_0 Rh2_4 2.678876 1_555
Mg0_0 Rh0_6 2.728938 1_455
Mg0_0 Rh0_2 2.728938 1_555
Mg0_0 Rh1_2 2.728939 1_545
Mg0_0 Rh1_6 2.728941 1_545
Mg0_0 Mg0_4 2.757072 1_455
Mg0_0 Mg0_4 2.757072 1_555
Mg0_0 Rh2_1 2.782356 1_554
Mg0_0 Rh2_5 2.782356 1_554
Mg0_1 Rh1_0 2.645024 1_555
Mg0_1 Rh0_1 2.645026 1_555
Mg0_1 Rh2_1 2.678876 1_555
Mg0_1 Rh2_5 2.678876 1_555
Mg0_1 Rh0_7 2.728938 1_455
Mg0_1 Rh0_3 2.728938 1_555
Mg0_1 Rh1_3 2.728939 1_545
Mg0_1 Rh1_7 2.728941 1_545
Mg0_1 Mg0_5 2.757072 1_455
Mg0_1 Mg0_5 2.757072 1_555
Mg0_1 Rh2_0 2.782356 1_555
Mg0_1 Rh2_4 2.782356 1_555
Mg0_2 Rh1_3 2.645024 1_554
Mg0_2 Rh0_2 2.645026 1_555
Mg0_2 Rh2_2 2.678876 1_555
Mg0_2 Rh2_6 2.678876 1_555
Mg0_2 Rh0_4 2.728938 1_465
Mg0_2 Rh0_0 2.728938 1_565
Mg0_2 Rh1_0 2.728939 1_555
Mg0_2 Rh1_4 2.728941 1_555
Mg0_2 Mg0_6 2.757072 1_455
Mg0_2 Mg0_6 2.757072 1_555
Mg0_2 Rh2_3 2.782356 1_554
Mg0_2 Rh2_7 2.782356 1_554
Mg0_3 Rh1_2 2.645024 1_555
Mg0_3 Rh0_3 2.645026 1_555
Mg0_3 Rh2_3 2.678876 1_555
Mg0_3 Rh2_7 2.678876 1_555
Mg0_3 Rh0_5 2.728938 1_465
Mg0_3 Rh0_1 2.728938 1_565
Mg0_3 Rh1_1 2.728939 1_555
Mg0_3 Rh1_5 2.728941 1_555
Mg0_3 Mg0_7 2.757072 1_455
Mg0_3 Mg0_7 2.757072 1_555
Mg0_3 Rh2_2 2.782356 1_555
Mg0_3 Rh2_6 2.782356 1_555
Mg0_4 Rh1_5 2.645024 1_554
Mg0_4 Rh0_4 2.645026 1_555
Mg0_4 Rh2_4 2.678876 1_555
Mg0_4 Rh2_0 2.678876 1_655
Mg0_4 Rh0_2 2.728938 1_555
Mg0_4 Rh0_6 2.728938 1_555
Mg0_4 Rh1_6 2.728939 1_545
Mg0_4 Rh1_2 2.728941 1_645
Mg0_4 Rh2_1 2.782356 1_654
Mg0_4 Rh2_5 2.782356 1_554
Mg0_5 Rh1_4 2.645024 1_555
Mg0_5 Rh0_5 2.645026 1_555
Mg0_5 Rh2_1 2.678876 1_655
Mg0_5 Rh2_5 2.678876 1_555
Mg0_5 Rh0_3 2.728938 1_555
Mg0_5 Rh0_7 2.728938 1_555
Mg0_5 Rh1_7 2.728939 1_545
Mg0_5 Rh1_3 2.728941 1_645
Mg0_5 Rh2_0 2.782356 1_655
Mg0_5 Rh2_4 2.782356 1_555
Mg0_6 Rh1_7 2.645024 1_554
Mg0_6 Rh0_6 2.645026 1_555
Mg0_6 Rh2_2 2.678876 1_655
Mg0_6 Rh2_6 2.678876 1_555
Mg0_6 Rh0_0 2.728938 1_565
Mg0_6 Rh0_4 2.728938 1_565
Mg0_6 Rh1_4 2.728939 1_555
Mg0_6 Rh1_0 2.728941 1_655
Mg0_6 Rh2_7 2.782356 1_554
Mg0_6 Rh2_3 2.782356 1_654
Mg0_7 Rh1_6 2.645024 1_555
Mg0_7 Rh0_7 2.645026 1_555
Mg0_7 Rh2_3 2.678876 1_655
Mg0_7 Rh2_7 2.678876 1_555
Mg0_7 Rh0_1 2.728938 1_565
Mg0_7 Rh0_5 2.728938 1_565
Mg0_7 Rh1_5 2.728939 1_555
Mg0_7 Rh1_1 2.728941 1_655
Mg0_7 Rh2_2 2.782356 1_655
Mg0_7 Rh2_6 2.782356 1_555
Rh0_0 Rh2_6 2.667248 1_545
Rh0_0 Rh2_1 2.692071 1_554
Rh0_0 Rh2_5 2.692072 1_554
Rh0_0 Rh1_3 2.731313 1_544
Rh0_0 Rh1_7 2.731315 1_544
Rh0_0 Rh1_2 2.731321 1_545
Rh0_0 Rh1_6 2.731323 1_545
Rh0_0 Rh0_4 2.757072 1_555
Rh0_0 Rh0_4 2.757072 1_455
Rh0_1 Rh2_7 2.667248 1_545
Rh0_1 Rh2_0 2.692071 1_555
Rh0_1 Rh2_4 2.692072 1_555
Rh0_1 Rh1_2 2.731313 1_545
Rh0_1 Rh1_6 2.731315 1_545
Rh0_1 Rh1_3 2.731321 1_545
Rh0_1 Rh1_7 2.731323 1_545
Rh0_1 Rh0_5 2.757072 1_555
Rh0_1 Rh0_5 2.757072 1_455
Rh0_2 Rh2_4 2.667248 1_555
Rh0_2 Rh2_3 2.692071 1_554
Rh0_2 Rh2_7 2.692072 1_554
Rh0_2 Rh1_1 2.731313 1_554
Rh0_2 Rh1_5 2.731315 1_554
Rh0_2 Rh1_0 2.731321 1_555
Rh0_2 Rh1_4 2.731323 1_555
Rh0_2 Rh0_6 2.757072 1_455
Rh0_2 Rh0_6 2.757072 1_555
Rh0_3 Rh2_5 2.667248 1_555
Rh0_3 Rh2_2 2.692071 1_555
Rh0_3 Rh2_6 2.692072 1_555
Rh0_3 Rh1_0 2.731313 1_555
Rh0_3 Rh1_4 2.731315 1_555
Rh0_3 Rh1_1 2.731321 1_555
Rh0_3 Rh1_5 2.731323 1_555
Rh0_3 Rh0_7 2.757072 1_455
Rh0_3 Rh0_7 2.757072 1_555
Rh0_4 Rh2_2 2.667248 1_645
Rh0_4 Rh2_5 2.692071 1_554
Rh0_4 Rh2_1 2.692072 1_654
Rh0_4 Rh1_7 2.731313 1_544
Rh0_4 Rh1_3 2.731315 1_644
Rh0_4 Rh1_6 2.731321 1_545
Rh0_4 Rh1_2 2.731323 1_645
Rh0_5 Rh2_3 2.667248 1_645
Rh0_5 Rh2_4 2.692071 1_555
Rh0_5 Rh2_0 2.692072 1_655
Rh0_5 Rh1_6 2.731313 1_545
Rh0_5 Rh1_2 2.731315 1_645
Rh0_5 Rh1_7 2.731321 1_545
Rh0_5 Rh1_3 2.731323 1_645
Rh0_6 Rh2_0 2.667248 1_655
Rh0_6 Rh2_7 2.692071 1_554
Rh0_6 Rh2_3 2.692072 1_654
Rh0_6 Rh1_5 2.731313 1_554
Rh0_6 Rh1_1 2.731315 1_654
Rh0_6 Rh1_4 2.731321 1_555
Rh0_6 Rh1_0 2.731323 1_655
Rh0_7 Rh2_1 2.667248 1_655
Rh0_7 Rh2_6 2.692071 1_555
Rh0_7 Rh2_2 2.692072 1_655
Rh0_7 Rh1_4 2.731313 1_555
Rh0_7 Rh1_0 2.731315 1_655
Rh0_7 Rh1_5 2.731321 1_555
Rh0_7 Rh1_1 2.731323 1_655
Rh1_0 Rh2_2 2.667244 1_555
Rh1_0 Rh2_4 2.692071 1_555
Rh1_0 Rh2_0 2.692074 1_555
Rh1_0 Rh1_4 2.757072 1_455
Rh1_0 Rh1_4 2.757072 1_555
Rh1_1 Rh2_3 2.667244 1_555
Rh1_1 Rh2_5 2.692071 1_555
Rh1_1 Rh2_1 2.692074 1_555
Rh1_1 Rh1_5 2.757072 1_455
Rh1_1 Rh1_5 2.757072 1_555
Rh1_2 Rh2_0 2.667244 1_565
Rh1_2 Rh2_6 2.692071 1_555
Rh1_2 Rh2_2 2.692074 1_555
Rh1_2 Rh1_6 2.757072 1_555
Rh1_2 Rh1_6 2.757072 1_455
Rh1_3 Rh2_1 2.667244 1_565
Rh1_3 Rh2_7 2.692071 1_555
Rh1_3 Rh2_3 2.692074 1_555
Rh1_3 Rh1_7 2.757072 1_555
Rh1_3 Rh1_7 2.757072 1_455
Rh1_4 Rh2_6 2.667244 1_555
Rh1_4 Rh2_0 2.692071 1_655
Rh1_4 Rh2_4 2.692074 1_555
Rh1_5 Rh2_7 2.667244 1_555
Rh1_5 Rh2_1 2.692071 1_655
Rh1_5 Rh2_5 2.692074 1_555
Rh1_6 Rh2_4 2.667244 1_565
Rh1_6 Rh2_2 2.692071 1_655
Rh1_6 Rh2_6 2.692074 1_555
Rh1_7 Rh2_5 2.667244 1_565
Rh1_7 Rh2_3 2.692071 1_655
Rh1_7 Rh2_7 2.692074 1_555
Rh2_0 Rh2_4 2.757072 1_455
Rh2_0 Rh2_4 2.757072 1_555
Rh2_1 Rh2_5 2.757072 1_455
Rh2_1 Rh2_5 2.757072 1_555
Rh2_2 Rh2_6 2.757072 1_555
Rh2_2 Rh2_6 2.757072 1_455
Rh2_3 Rh2_7 2.757072 1_555
Rh2_3 Rh2_7 2.757072 1_455
