# generated using pymatgen
data_LuNiB4
_symmetry_space_group_name_H-M   'P 1'
_cell_length_a   3.34082869
_cell_length_b   5.83811281
_cell_length_c   11.31322638
_cell_angle_alpha   90.00023599
_cell_angle_beta   90.00000179
_cell_angle_gamma   90.00002793
_symmetry_Int_Tables_number   1
_chemical_formula_structural   LuNiB4
_chemical_formula_sum   'Lu4 Ni4 B16'
_cell_volume   220.65469201
_cell_formula_units_Z   4
loop_
 _symmetry_equiv_pos_site_id
 _symmetry_equiv_pos_as_xyz
  1  'x, y, z'
loop_
 _atom_site_type_symbol
 _atom_site_label
 _atom_site_symmetry_multiplicity
 _atom_site_fract_x
 _atom_site_fract_y
 _atom_site_fract_z
 _atom_site_occupancy
  Lu  Lu0  1  0.50000090  0.62698958  0.64998345  1
  Lu  Lu1  1  0.49999872  0.37307661  0.34998725  1
  Lu  Lu2  1  0.49999988  0.12693550  0.84998627  1
  Lu  Lu3  1  0.49999856  0.87305385  0.15002358  1
  Ni  Ni0  1  0.50000104  0.63342367  0.91164216  1
  Ni  Ni1  1  0.50000191  0.36652835  0.08864268  1
  Ni  Ni2  1  0.49999926  0.13343454  0.58837848  1
  Ni  Ni3  1  0.50000141  0.86652438  0.41140248  1
  B  B0  1  -0.00000084  0.86352154  0.96719845  1
  B  B1  1  -0.00000052  0.13648794  0.03285716  1
  B  B2  1  0.00000019  0.36354325  0.53279110  1
  B  B3  1  0.00000055  0.63650575  0.46713620  1
  B  B4  1  0.00000023  0.97852386  0.69191148  1
  B  B5  1  -0.00000027  0.02147194  0.30804395  1
  B  B6  1  0.00000003  0.47853568  0.80806817  1
  B  B7  1  -0.00000053  0.52146990  0.19196629  1
  B  B8  1  0.00000002  0.78584850  0.81456225  1
  B  B9  1  -0.00000033  0.21410503  0.18546851  1
  B  B10  1  0.00000018  0.28587776  0.68542274  1
  B  B11  1  -0.00000019  0.71410952  0.31453760  1
  B  B12  1  0.00000043  0.88579285  0.54752428  1
  B  B13  1  0.00000015  0.11424932  0.45240754  1
  B  B14  1  -0.00000027  0.38576750  0.95246388  1
  B  B15  1  -0.00000050  0.61422418  0.04759303  1
loop_
_geom_bond_atom_site_label_1
_geom_bond_atom_site_label_2
_geom_bond_distance
_geom_bond_site_symmetry_2
B0 B15 1.716248 1_556
B0 B1 1.758223 1_566
B0 B8 1.785354 1_555
B0 Ni0 2.233797 1_455
B0 Ni0 2.233807 1_555
B0 Lu2 2.629382 1_465
B0 Lu2 2.629384 1_565
B0 Lu3 2.659213 1_556
B0 Lu3 2.659215 1_456
B1 B14 1.716152 1_554
B1 B9 1.784999 1_555
B1 Ni1 2.234326 1_455
B1 Ni1 2.234337 1_555
B1 Lu3 2.629190 1_545
B1 Lu3 2.629193 1_445
B1 Lu2 2.659618 1_454
B1 Lu2 2.659620 1_554
B2 B3 1.758190 1_555
B2 Ni2 2.233940 1_555
B2 Ni2 2.233944 1_455
B2 Lu0 2.629373 1_455
B2 Lu0 2.629375 1_555
B2 Lu1 2.659024 1_555
B2 Lu1 2.659030 1_455
B3 Ni3 2.234091 1_455
B3 Ni3 2.234094 1_555
B3 Lu1 2.629065 1_555
B3 Lu1 2.629072 1_455
B3 Lu0 2.659406 1_455
B3 Lu0 2.659408 1_555
B4 B8 1.786251 1_555
B4 Ni2 2.231618 1_565
B4 Ni2 2.231624 1_465
B4 Lu2 2.595985 1_565
B4 Lu2 2.595987 1_465
B4 Lu0 2.688343 1_455
B4 Lu0 2.688347 1_555
B5 B9 1.785433 1_555
B5 Ni3 2.230668 1_445
B5 Ni3 2.230677 1_545
B5 Lu3 2.595572 1_545
B5 Lu3 2.595576 1_445
B5 Lu1 2.688686 1_555
B5 Lu1 2.688692 1_455
B6 B8 1.795630 1_555
B6 Ni0 2.231805 1_455
B6 Ni0 2.231809 1_555
B6 Lu0 2.596149 1_455
B6 Lu0 2.596152 1_555
B6 Lu2 2.688621 1_455
B6 Lu2 2.688622 1_555
B7 B9 1.795936 1_555
B7 Ni1 2.230441 1_455
B7 Ni1 2.230454 1_555
B7 Lu1 2.595534 1_555
B7 Lu1 2.595537 1_455
B7 Lu3 2.688596 1_555
B7 Lu3 2.688601 1_455
B8 Ni0 2.188239 1_455
B8 Ni0 2.188244 1_555
B8 Lu2 2.629862 1_565
B8 Lu2 2.629864 1_465
B8 Lu0 2.667795 1_455
B8 Lu0 2.667800 1_555
B9 Ni1 2.186791 1_455
B9 Ni1 2.186802 1_555
B9 Lu3 2.629739 1_545
B9 Lu3 2.629742 1_445
B9 Lu1 2.667550 1_555
B9 Lu1 2.667554 1_455
B10 B2 1.785296 1_555
B10 B6 1.786132 1_555
B10 B4 1.795868 1_545
B10 Ni2 2.188077 1_555
B10 Ni2 2.188081 1_455
B10 Lu0 2.630001 1_455
B10 Lu0 2.630002 1_555
B10 Lu2 2.667851 1_555
B10 Lu2 2.667852 1_455
B11 B3 1.784843 1_555
B11 B7 1.785414 1_555
B11 B5 1.795920 1_565
B11 Ni3 2.186990 1_455
B11 Ni3 2.186998 1_555
B11 Lu1 2.629669 1_555
B11 Lu1 2.629672 1_455
B11 Lu3 2.667462 1_555
B11 Lu3 2.667468 1_455
B12 B13 1.713726 1_565
B12 B3 1.716152 1_555
B12 B4 1.720858 1_555
B12 Ni2 2.257013 1_565
B12 Ni2 2.257020 1_465
B12 Ni3 2.274743 1_455
B12 Ni3 2.274748 1_555
B12 Lu0 2.533139 1_455
B12 Lu0 2.533142 1_555
B13 B2 1.716158 1_555
B13 B5 1.720690 1_555
B13 Ni3 2.257674 1_445
B13 Ni3 2.257681 1_545
B13 Ni2 2.273564 1_555
B13 Ni2 2.273568 1_455
B13 Lu1 2.533019 1_555
B13 Lu1 2.533026 1_455
B14 B15 1.713808 1_556
B14 B6 1.721022 1_555
B14 Ni0 2.256995 1_455
B14 Ni0 2.257001 1_555
B14 Ni1 2.275169 1_456
B14 Ni1 2.275179 1_556
B14 Lu2 2.533329 1_455
B14 Lu2 2.533331 1_555
B15 B7 1.720755 1_555
B15 Ni1 2.257669 1_455
B15 Ni1 2.257682 1_555
B15 Ni0 2.273413 1_454
B15 Ni0 2.273421 1_554
B15 Lu3 2.533076 1_555
B15 Lu3 2.533081 1_455
