# generated using pymatgen
data_IrRu3
_symmetry_space_group_name_H-M   'P 1'
_cell_length_a   5.42460460
_cell_length_b   5.42459636
_cell_length_c   4.30798914
_cell_angle_alpha   90.00000000
_cell_angle_beta   90.00000000
_cell_angle_gamma   120.00008148
_symmetry_Int_Tables_number   1
_chemical_formula_structural   IrRu3
_chemical_formula_sum   'Ir2 Ru6'
_cell_volume   109.78433889
_cell_formula_units_Z   2
loop_
 _symmetry_equiv_pos_site_id
 _symmetry_equiv_pos_as_xyz
  1  'x, y, z'
loop_
 _atom_site_type_symbol
 _atom_site_label
 _atom_site_symmetry_multiplicity
 _atom_site_fract_x
 _atom_site_fract_y
 _atom_site_fract_z
 _atom_site_occupancy
  Ir  Ir0  1  0.33333084  0.66666580  0.75000000  1
  Ir  Ir1  1  0.66666413  0.33332279  0.25000000  1
  Ru  Ru0  1  0.16581546  0.33162417  0.25000000  1
  Ru  Ru1  1  0.66837574  0.83418763  0.25000000  1
  Ru  Ru2  1  0.16581473  0.83419269  0.25000000  1
  Ru  Ru3  1  0.83418482  0.66837058  0.75000000  1
  Ru  Ru4  1  0.33161891  0.16582175  0.75000000  1
  Ru  Ru5  1  0.83420437  0.16581860  0.75000000  1
loop_
_geom_bond_atom_site_label_1
_geom_bond_atom_site_label_2
_geom_bond_distance
_geom_bond_site_symmetry_2
Ir0 Ru0 2.667785 1_556
Ir0 Ru0 2.667785 1_555
Ir0 Ru2 2.667790 1_555
Ir0 Ru2 2.667790 1_556
Ir0 Ru1 2.667795 1_556
Ir0 Ru1 2.667795 1_555
Ir0 Ru5 2.712238 1_455
Ir0 Ru4 2.712245 1_555
Ir0 Ru3 2.712306 1_455
Ir0 Ru3 2.712323 1_555
Ir0 Ru4 2.712375 1_565
Ir0 Ru5 2.712380 1_565
Ir1 Ru5 2.667794 1_555
Ir1 Ru5 2.667794 1_554
Ir1 Ru4 2.667796 1_555
Ir1 Ru4 2.667796 1_554
Ir1 Ru3 2.667802 1_555
Ir1 Ru3 2.667802 1_554
Ir1 Ru2 2.712253 1_545
Ir1 Ru1 2.712261 1_545
Ir1 Ru0 2.712311 1_555
Ir1 Ru0 2.712318 1_655
Ir1 Ru1 2.712359 1_555
Ir1 Ru2 2.712365 1_655
Ru0 Ru4 2.658295 1_555
Ru0 Ru4 2.658295 1_554
Ru0 Ru5 2.658309 1_455
Ru0 Ru5 2.658309 1_454
Ru0 Ru2 2.698363 1_545
Ru0 Ru1 2.698400 1_445
Ru0 Ru1 2.726194 1_555
Ru0 Ru2 2.726233 1_555
Ru1 Ru3 2.658351 1_555
Ru1 Ru3 2.658351 1_554
Ru1 Ru5 2.658363 1_564
Ru1 Ru5 2.658363 1_565
Ru1 Ru2 2.698396 1_655
Ru1 Ru2 2.726208 1_555
Ru2 Ru4 2.658358 1_565
Ru2 Ru4 2.658358 1_564
Ru2 Ru3 2.658361 1_454
Ru2 Ru3 2.658361 1_455
Ru3 Ru5 2.698402 1_565
Ru3 Ru4 2.698424 1_665
Ru3 Ru4 2.726170 1_555
Ru3 Ru5 2.726195 1_555
Ru4 Ru5 2.698269 1_455
Ru4 Ru5 2.726336 1_555
