# generated using pymatgen
data_CaSnS3
_symmetry_space_group_name_H-M   'P 1'
_cell_length_a   5.01111500
_cell_length_b   5.01111500
_cell_length_c   5.01111500
_cell_angle_alpha   90.00000000
_cell_angle_beta   90.00000000
_cell_angle_gamma   90.00000000
_symmetry_Int_Tables_number   1
_chemical_formula_structural   CaSnS3
_chemical_formula_sum   'Ca1 Sn1 S3'
_cell_volume   125.83547952
_cell_formula_units_Z   1
loop_
 _symmetry_equiv_pos_site_id
 _symmetry_equiv_pos_as_xyz
  1  'x, y, z'
loop_
 _atom_site_type_symbol
 _atom_site_label
 _atom_site_symmetry_multiplicity
 _atom_site_fract_x
 _atom_site_fract_y
 _atom_site_fract_z
 _atom_site_occupancy
  Ca  Ca0  1  0.50000000  0.50000000  0.50000000  1
  Sn  Sn0  1  0.00000000  0.00000000  0.00000000  1
  S  S0  1  0.00000000  0.00000000  0.50000000  1
  S  S1  1  0.00000000  0.50000000  0.00000000  1
  S  S2  1  0.50000000  0.00000000  0.00000000  1
loop_
_geom_bond_atom_site_label_1
_geom_bond_atom_site_label_2
_geom_bond_distance
_geom_bond_site_symmetry_2
Ca0 S2 3.543393 1_556
Ca0 S2 3.543393 1_566
Ca0 S2 3.543393 1_565
Ca0 S0 3.543393 1_555
Ca0 S1 3.543393 1_556
Ca0 S1 3.543393 1_555
Ca0 S0 3.543393 1_565
Ca0 S0 3.543393 1_655
Ca0 S0 3.543393 1_665
Ca0 S1 3.543393 1_655
Ca0 S1 3.543393 1_656
Ca0 S2 3.543393 1_555
S0 Sn0 2.505558 1_555
S0 Sn0 2.505558 1_556
S1 Sn0 2.505558 1_555
S1 Sn0 2.505558 1_565
S2 Sn0 2.505558 1_655
S2 Sn0 2.505558 1_555
