# generated using pymatgen
data_RuO2
_symmetry_space_group_name_H-M   'P 1'
_cell_length_a   4.84225282
_cell_length_b   4.84225282
_cell_length_c   4.84225282
_cell_angle_alpha   90.00000000
_cell_angle_beta   90.00000000
_cell_angle_gamma   90.00000000
_symmetry_Int_Tables_number   1
_chemical_formula_structural   RuO2
_chemical_formula_sum   'Ru4 O8'
_cell_volume   113.53829868
_cell_formula_units_Z   4
loop_
 _symmetry_equiv_pos_site_id
 _symmetry_equiv_pos_as_xyz
  1  'x, y, z'
loop_
 _atom_site_type_symbol
 _atom_site_label
 _atom_site_symmetry_multiplicity
 _atom_site_fract_x
 _atom_site_fract_y
 _atom_site_fract_z
 _atom_site_occupancy
  Ru  Ru0  1  -0.00000000  0.50000000  0.50000000  1
  Ru  Ru1  1  0.50000000  0.50000000  -0.00000000  1
  Ru  Ru2  1  0.50000000  -0.00000000  0.50000000  1
  Ru  Ru3  1  -0.00000000  0.00000000  0.00000000  1
  O  O0  1  0.35092560  0.14907440  0.85092560  1
  O  O1  1  0.14907440  0.85092560  0.35092560  1
  O  O2  1  0.85092560  0.35092560  0.14907440  1
  O  O3  1  0.64907440  0.64907440  0.64907440  1
  O  O4  1  0.35092560  0.35092560  0.35092560  1
  O  O5  1  0.14907440  0.64907440  0.85092560  1
  O  O6  1  0.85092560  0.14907440  0.64907440  1
  O  O7  1  0.64907440  0.85092560  0.14907440  1
loop_
_geom_bond_atom_site_label_1
_geom_bond_atom_site_label_2
_geom_bond_distance
_geom_bond_site_symmetry_2
O0 Ru2 1.982340 1_555
O0 Ru1 1.982340 1_556
O0 Ru3 1.982340 1_556
O1 Ru0 1.982340 1_555
O1 Ru3 1.982340 1_565
O1 Ru2 1.982340 1_565
O2 Ru1 1.982340 1_555
O2 Ru0 1.982340 1_655
O2 Ru3 1.982340 1_655
O3 Ru0 1.982340 1_655
O3 Ru1 1.982340 1_556
O3 Ru2 1.982340 1_565
O4 Ru0 1.982340 1_555
O4 Ru1 1.982340 1_555
O4 Ru2 1.982340 1_555
O5 Ru0 1.982340 1_555
O5 Ru1 1.982340 1_556
O5 Ru3 1.982340 1_566
O6 Ru2 1.982340 1_555
O6 Ru0 1.982340 1_655
O6 Ru3 1.982340 1_656
O7 Ru1 1.982340 1_555
O7 Ru2 1.982340 1_565
O7 Ru3 1.982340 1_665
