# generated using pymatgen
data_CaMgPb
_symmetry_space_group_name_H-M   'P 1'
_cell_length_a   4.73165391
_cell_length_b   7.93144145
_cell_length_c   8.87370094
_cell_angle_alpha   90.00000000
_cell_angle_beta   90.00000000
_cell_angle_gamma   90.00000000
_symmetry_Int_Tables_number   1
_chemical_formula_structural   CaMgPb
_chemical_formula_sum   'Ca4 Mg4 Pb4'
_cell_volume   333.01966684
_cell_formula_units_Z   4
loop_
 _symmetry_equiv_pos_site_id
 _symmetry_equiv_pos_as_xyz
  1  'x, y, z'
loop_
 _atom_site_type_symbol
 _atom_site_label
 _atom_site_symmetry_multiplicity
 _atom_site_fract_x
 _atom_site_fract_y
 _atom_site_fract_z
 _atom_site_occupancy
  Ca  Ca0  1  0.75000000  0.97956865  0.18317228  1
  Ca  Ca1  1  0.75000000  0.47956865  0.31682772  1
  Ca  Ca2  1  0.25000000  0.52043135  0.68317228  1
  Ca  Ca3  1  0.25000000  0.02043135  0.81682772  1
  Mg  Mg0  1  0.25000000  0.64117235  0.06097050  1
  Mg  Mg1  1  0.25000000  0.14117235  0.43902950  1
  Mg  Mg2  1  0.75000000  0.85882765  0.56097050  1
  Mg  Mg3  1  0.75000000  0.35882765  0.93902950  1
  Pb  Pb0  1  0.25000000  0.26324800  0.11714235  1
  Pb  Pb1  1  0.25000000  0.76324800  0.38285765  1
  Pb  Pb2  1  0.75000000  0.23675200  0.61714235  1
  Pb  Pb3  1  0.75000000  0.73675200  0.88285765  1
loop_
_geom_bond_atom_site_label_1
_geom_bond_atom_site_label_2
_geom_bond_distance
_geom_bond_site_symmetry_2
Ca0 Pb3 3.287969 1_554
Ca0 Pb0 3.317060 1_665
Ca0 Pb0 3.317060 1_565
Ca0 Pb1 3.417701 1_555
Ca0 Pb1 3.417701 1_655
Ca0 Mg2 3.486565 1_555
Ca0 Mg1 3.520616 1_565
Ca0 Mg1 3.520616 1_665
Ca0 Mg3 3.707020 1_564
Ca0 Mg0 3.738545 1_655
Ca0 Mg0 3.738545 1_555
Ca0 Ca3 4.033620 1_664
Ca0 Ca3 4.033620 1_564
Ca0 Ca1 4.139273 1_555
Ca0 Ca1 4.139273 1_565
Ca1 Pb2 3.287969 1_555
Ca1 Pb1 3.317060 1_655
Ca1 Pb1 3.317060 1_555
Ca1 Pb0 3.417701 1_555
Ca1 Pb0 3.417701 1_655
Ca1 Mg3 3.486565 1_554
Ca1 Mg0 3.520616 1_655
Ca1 Mg0 3.520616 1_555
Ca1 Mg2 3.707020 1_555
Ca1 Mg1 3.738545 1_555
Ca1 Mg1 3.738545 1_655
Ca1 Ca2 4.033620 1_555
Ca1 Ca2 4.033620 1_655
Ca2 Pb1 3.287969 1_555
Ca2 Pb2 3.317060 1_455
Ca2 Pb2 3.317060 1_555
Ca2 Pb3 3.417701 1_455
Ca2 Pb3 3.417701 1_555
Ca2 Mg0 3.486565 1_556
Ca2 Mg3 3.520616 1_455
Ca2 Mg3 3.520616 1_555
Ca2 Mg1 3.707020 1_555
Ca2 Mg2 3.738545 1_455
Ca2 Mg2 3.738545 1_555
Ca2 Ca3 4.139273 1_555
Ca2 Ca3 4.139273 1_565
Ca3 Pb0 3.287969 1_556
Ca3 Pb3 3.317060 1_545
Ca3 Pb3 3.317060 1_445
Ca3 Pb2 3.417701 1_455
Ca3 Pb2 3.417701 1_555
Ca3 Mg1 3.486565 1_555
Ca3 Mg2 3.520616 1_545
Ca3 Mg2 3.520616 1_445
Ca3 Mg0 3.707020 1_546
Ca3 Mg3 3.738545 1_455
Ca3 Mg3 3.738545 1_555
Mg0 Pb3 2.944465 1_554
Mg0 Pb3 2.944465 1_454
Mg0 Pb1 3.015975 1_555
Mg0 Pb0 3.038646 1_555
Mg0 Mg3 3.432626 1_554
Mg0 Mg3 3.432626 1_454
Mg1 Pb2 2.944465 1_455
Mg1 Pb2 2.944465 1_555
Mg1 Pb0 3.015975 1_555
Mg1 Pb1 3.038646 1_545
Mg1 Mg2 3.432626 1_545
Mg1 Mg2 3.432626 1_445
Mg2 Pb1 2.944465 1_655
Mg2 Pb1 2.944465 1_555
Mg2 Pb3 3.015975 1_555
Mg2 Pb2 3.038646 1_565
Mg3 Pb0 2.944465 1_556
Mg3 Pb0 2.944465 1_656
Mg3 Pb2 3.015975 1_555
Mg3 Pb3 3.038646 1_555
