# generated using pymatgen
data_Li2VH2OF5
_symmetry_space_group_name_H-M   'P 1'
_cell_length_a   5.78609000
_cell_length_b   5.81346351
_cell_length_c   7.84977657
_cell_angle_alpha   85.88239962
_cell_angle_beta   85.30032213
_cell_angle_gamma   67.84117473
_symmetry_Int_Tables_number   1
_chemical_formula_structural   Li2VH2OF5
_chemical_formula_sum   'Li4 V2 H4 O2 F10'
_cell_volume   243.48125847
_cell_formula_units_Z   2
loop_
 _symmetry_equiv_pos_site_id
 _symmetry_equiv_pos_as_xyz
  1  'x, y, z'
loop_
 _atom_site_type_symbol
 _atom_site_label
 _atom_site_symmetry_multiplicity
 _atom_site_fract_x
 _atom_site_fract_y
 _atom_site_fract_z
 _atom_site_occupancy
  Li  Li0  1  0.73310600  0.84654100  0.44374200  1
  Li  Li1  1  0.83864200  0.72281900  0.94982600  1
  Li  Li2  1  0.27360300  0.28019500  0.00057800  1
  Li  Li3  1  0.27147400  0.20635100  0.53323500  1
  V  V0  1  0.77382400  0.23464500  0.74988200  1
  V  V1  1  0.23803600  0.77165000  0.24599900  1
  H  H0  1  0.20482800  0.86377700  0.84013900  1
  H  H1  1  0.12835600  0.78398100  0.66284700  1
  H  H2  1  0.86358700  0.20266500  0.33641800  1
  H  H3  1  0.78755400  0.12507300  0.16136300  1
  O  O0  1  0.06927500  0.89516700  0.76093200  1
  O  O1  1  0.88520000  0.06087000  0.26389800  1
  F  F0  1  0.39966500  0.96029900  0.36808600  1
  F  F1  1  0.29890400  0.93363800  0.02911000  1
  F  F2  1  0.97616500  0.39747900  0.85382200  1
  F  F3  1  0.10165100  0.67542900  0.46926200  1
  F  F4  1  0.48241900  0.51990200  0.76641200  1
  F  F5  1  0.53872400  0.49800900  0.23875700  1
  F  F6  1  0.91765900  0.30141300  0.52718400  1
  F  F7  1  0.07814900  0.58625200  0.11850500  1
  F  F8  1  0.67058100  0.10237800  0.97333200  1
  F  F9  1  0.58879300  0.06016900  0.63437600  1
loop_
_geom_bond_atom_site_label_1
_geom_bond_atom_site_label_2
_geom_bond_distance
_geom_bond_site_symmetry_2
Li0 O1 2.165852 1_565
Li1 O0 2.335446 1_655
H0 O0 0.995335 1_555
H1 O0 0.994552 1_555
H2 O1 0.998582 1_555
H3 O1 0.989267 1_555
O0 V0 2.068697 1_465
O1 V1 2.100520 1_645
F0 Li3 1.893472 1_565
F0 Li0 1.918644 1_555
F0 V1 2.016754 1_555
F1 V1 1.957333 1_555
F1 Li2 1.961805 1_565
F2 Li1 1.936350 1_555
F2 V0 2.008973 1_555
F2 Li2 2.020088 1_656
F3 V1 1.993163 1_555
F3 Li0 2.004535 1_455
F4 V0 1.869659 1_555
F5 V1 1.862736 1_555
F6 Li3 1.912442 1_655
F6 V0 1.951175 1_555
F7 Li1 1.903619 1_454
F7 Li2 1.961814 1_555
F7 V1 2.019380 1_555
F8 V0 2.001462 1_555
F8 Li1 2.063730 1_545
F8 Li2 2.133172 1_556
F9 Li3 1.920551 1_555
F9 Li0 1.938756 1_545
F9 V0 2.026679 1_555
