# generated using pymatgen
data_Ti3VFe2(PO4)6
_symmetry_space_group_name_H-M   'P 1'
_cell_length_a   8.58176019
_cell_length_b   8.58176019
_cell_length_c   8.58176001
_cell_angle_alpha   60.81038029
_cell_angle_beta   60.81038029
_cell_angle_gamma   60.81038190
_symmetry_Int_Tables_number   1
_chemical_formula_structural   Ti3VFe2(PO4)6
_chemical_formula_sum   'Ti3 V1 Fe2 P6 O24'
_cell_volume   455.07193838
_cell_formula_units_Z   1
loop_
 _symmetry_equiv_pos_site_id
 _symmetry_equiv_pos_as_xyz
  1  'x, y, z'
loop_
 _atom_site_type_symbol
 _atom_site_label
 _atom_site_symmetry_multiplicity
 _atom_site_fract_x
 _atom_site_fract_y
 _atom_site_fract_z
 _atom_site_occupancy
  Ti  Ti0  1  0.64458100  0.64458100  0.64458100  1
  Ti  Ti1  1  0.85680300  0.85680300  0.85680300  1
  Ti  Ti2  1  0.35448300  0.35448300  0.35448300  1
  V  V0  1  0.14076300  0.14076300  0.14076300  1
  Fe  Fe0  1  0.00121000  0.00121000  0.00121000  1
  Fe  Fe1  1  0.50083800  0.50083800  0.50083800  1
  P  P0  1  0.54336200  0.95542800  0.24897800  1
  P  P1  1  0.24897800  0.54336200  0.95542800  1
  P  P2  1  0.95542800  0.24897800  0.54336200  1
  P  P3  1  0.04362400  0.74785800  0.45797600  1
  P  P4  1  0.74785800  0.45797600  0.04362400  1
  P  P5  1  0.45797600  0.04362400  0.74785800  1
  O  O0  1  0.31514400  0.49696200  0.11844600  1
  O  O1  1  0.11844600  0.31514400  0.49696200  1
  O  O2  1  0.49696200  0.11844600  0.31514400  1
  O  O3  1  0.74064200  0.94313600  0.08995000  1
  O  O4  1  0.39105300  0.98972300  0.18681300  1
  O  O5  1  0.56425400  0.76102600  0.41325600  1
  O  O6  1  0.08995000  0.74064200  0.94313600  1
  O  O7  1  0.41325600  0.56425400  0.76102600  1
  O  O8  1  0.99777100  0.81449700  0.61844800  1
  O  O9  1  0.76102600  0.41325600  0.56425400  1
  O  O10  1  0.05217000  0.90279700  0.26429900  1
  O  O11  1  0.81449700  0.61844800  0.99777100  1
  O  O12  1  0.18681300  0.39105300  0.98972300  1
  O  O13  1  0.94313600  0.08995000  0.74064200  1
  O  O14  1  0.23820800  0.58604000  0.44748900  1
  O  O15  1  0.98972300  0.18681300  0.39105300  1
  O  O16  1  0.58604000  0.44748900  0.23820800  1
  O  O17  1  0.90279700  0.26429900  0.05217000  1
  O  O18  1  0.44748900  0.23820800  0.58604000  1
  O  O19  1  0.61844800  0.99777100  0.81449700  1
  O  O20  1  0.26429900  0.05217000  0.90279700  1
  O  O21  1  0.51056200  0.88381100  0.67758700  1
  O  O22  1  0.88381100  0.67758700  0.51056200  1
  O  O23  1  0.67758700  0.51056200  0.88381100  1
loop_
_geom_bond_atom_site_label_1
_geom_bond_atom_site_label_2
_geom_bond_distance
_geom_bond_site_symmetry_2
Fe0 O10 2.178294 1_545
Fe0 O20 2.178294 1_554
Fe0 O17 2.178294 1_455
Fe0 O13 2.210071 1_454
Fe0 O3 2.210071 1_445
Fe0 O6 2.210071 1_544
Fe1 O16 2.212806 1_555
Fe1 O18 2.212806 1_555
Fe1 O14 2.212806 1_555
Fe1 O7 2.235206 1_555
Fe1 O5 2.235206 1_555
Fe1 O9 2.235206 1_555
O0 P1 1.564945 1_554
O0 Ti2 1.886975 1_555
O1 P2 1.564946 1_455
O1 Ti2 1.886975 1_555
O2 P0 1.564946 1_545
O2 Ti2 1.886975 1_555
O3 P0 1.566034 1_555
O3 Ti1 2.079890 1_554
O4 P0 1.493808 1_555
O4 V0 2.015579 1_565
O5 P0 1.569584 1_555
O5 Ti0 2.035344 1_555
O6 P1 1.566034 1_555
O6 Ti1 2.079890 1_455
O7 P1 1.569584 1_555
O7 Ti0 2.035344 1_555
O8 P3 1.548707 1_655
O8 Ti1 1.913552 1_555
O9 P2 1.569584 1_555
O9 Ti0 2.035344 1_555
O10 P3 1.535080 1_555
O10 V0 2.118700 1_565
O11 P4 1.548707 1_556
O11 Ti1 1.913552 1_555
O12 P1 1.493808 1_555
O12 V0 2.015579 1_556
O13 P2 1.566034 1_555
O13 Ti1 2.079890 1_545
O14 P3 1.561553 1_555
O14 Ti2 2.101827 1_555
O15 P2 1.493808 1_555
O15 V0 2.015579 1_655
O16 P4 1.561553 1_555
O16 Ti2 2.101827 1_555
O17 P4 1.535080 1_555
O17 V0 2.118700 1_655
O18 P5 1.561553 1_555
O18 Ti2 2.101827 1_555
O19 P5 1.548707 1_565
O19 Ti1 1.913552 1_555
O20 P5 1.535080 1_555
O20 V0 2.118700 1_556
O21 P5 1.544619 1_565
O21 Ti0 1.887907 1_555
O22 P3 1.544619 1_655
O22 Ti0 1.887907 1_555
O23 P4 1.544619 1_556
O23 Ti0 1.887907 1_555
