# generated using pymatgen
data_V2TcRu
_symmetry_space_group_name_H-M   'P 1'
_cell_length_a   4.24238549
_cell_length_b   4.24238549
_cell_length_c   4.24238549
_cell_angle_alpha   60.00000000
_cell_angle_beta   60.00000000
_cell_angle_gamma   60.00000000
_symmetry_Int_Tables_number   1
_chemical_formula_structural   V2TcRu
_chemical_formula_sum   'V2 Tc1 Ru1'
_cell_volume   53.99025629
_cell_formula_units_Z   1
loop_
 _symmetry_equiv_pos_site_id
 _symmetry_equiv_pos_as_xyz
  1  'x, y, z'
loop_
 _atom_site_type_symbol
 _atom_site_label
 _atom_site_symmetry_multiplicity
 _atom_site_fract_x
 _atom_site_fract_y
 _atom_site_fract_z
 _atom_site_occupancy
  V  V0  1  0.50000100  0.50000100  0.50000100  1
  V  V1  1  -0.00000000  0.00000000  0.00000000  1
  Tc  Tc0  1  0.75000000  0.75000000  0.75000000  1
  Ru  Ru0  1  0.25000000  0.25000000  0.25000000  1
loop_
_geom_bond_atom_site_label_1
_geom_bond_atom_site_label_2
_geom_bond_distance
_geom_bond_site_symmetry_2
Tc0 V0 2.597910 1_555
Tc0 V1 2.597920 1_566
Tc0 V1 2.597920 1_666
Tc0 V1 2.597920 1_665
Tc0 V1 2.597920 1_656
Tc0 V0 2.597923 1_565
Tc0 V0 2.597923 1_655
Tc0 V0 2.597923 1_556
Ru0 V0 2.597916 1_545
Ru0 V0 2.597916 1_455
Ru0 V0 2.597916 1_554
Ru0 V1 2.597920 1_556
Ru0 V1 2.597920 1_655
Ru0 V1 2.597920 1_565
Ru0 V1 2.597920 1_555
Ru0 V0 2.597930 1_555
