# generated using pymatgen
data_W(SO4)2
_symmetry_space_group_name_H-M   'P 1'
_cell_length_a   9.23975800
_cell_length_b   9.39351700
_cell_length_c   13.79438300
_cell_angle_alpha   90.00000000
_cell_angle_beta   90.00000000
_cell_angle_gamma   90.00000000
_symmetry_Int_Tables_number   1
_chemical_formula_structural   W(SO4)2
_chemical_formula_sum   'W8 S16 O64'
_cell_volume   1197.26724821
_cell_formula_units_Z   8
loop_
 _symmetry_equiv_pos_site_id
 _symmetry_equiv_pos_as_xyz
  1  'x, y, z'
loop_
 _atom_site_type_symbol
 _atom_site_label
 _atom_site_symmetry_multiplicity
 _atom_site_fract_x
 _atom_site_fract_y
 _atom_site_fract_z
 _atom_site_occupancy
  W  W0  1  0.89495200  0.85882000  0.12664900  1
  W  W1  1  0.60504800  0.85882000  0.62664900  1
  W  W2  1  0.39495200  0.64118000  0.12664900  1
  W  W3  1  0.10504800  0.64118000  0.62664900  1
  W  W4  1  0.89495200  0.35882000  0.37335100  1
  W  W5  1  0.60504800  0.35882000  0.87335100  1
  W  W6  1  0.39495200  0.14118000  0.37335100  1
  W  W7  1  0.10504800  0.14118000  0.87335100  1
  S  S0  1  0.93402000  0.92533600  0.72129600  1
  S  S1  1  0.56598000  0.92533600  0.22129600  1
  S  S2  1  0.31175500  0.84330800  0.48709100  1
  S  S3  1  0.18824500  0.84330800  0.98709100  1
  S  S4  1  0.81175500  0.65669200  0.48709100  1
  S  S5  1  0.68824500  0.65669200  0.98709100  1
  S  S6  1  0.06598000  0.57466400  0.22129600  1
  S  S7  1  0.43402000  0.57466400  0.72129600  1
  S  S8  1  0.56598000  0.42533600  0.27870400  1
  S  S9  1  0.93402000  0.42533600  0.77870400  1
  S  S10  1  0.31175500  0.34330800  0.01290900  1
  S  S11  1  0.18824500  0.34330800  0.51290900  1
  S  S12  1  0.81175500  0.15669200  0.01290900  1
  S  S13  1  0.68824500  0.15669200  0.51290900  1
  S  S14  1  0.43402000  0.07466400  0.77870400  1
  S  S15  1  0.06598000  0.07466400  0.27870400  1
  O  O0  1  0.30357800  0.00408900  0.47281600  1
  O  O1  1  0.19642200  0.00408900  0.97281600  1
  O  O2  1  0.01171500  0.98545000  0.35420700  1
  O  O3  1  0.48828500  0.98545000  0.85420700  1
  O  O4  1  0.52971500  0.97200600  0.32229300  1
  O  O5  1  0.97028500  0.97200600  0.82229300  1
  O  O6  1  0.73096200  0.91343400  0.22087400  1
  O  O7  1  0.76903800  0.91343400  0.72087400  1
  O  O8  1  0.27538400  0.81833300  0.07756700  1
  O  O9  1  0.22461600  0.81833300  0.57756700  1
  O  O10  1  0.03223600  0.80971100  0.01515500  1
  O  O11  1  0.46776400  0.80971100  0.51515500  1
  O  O12  1  0.98809600  0.77129100  0.71597600  1
  O  O13  1  0.51190400  0.77129100  0.21597600  1
  O  O14  1  0.26921800  0.76346900  0.40395600  1
  O  O15  1  0.23078200  0.76346900  0.90395600  1
  O  O16  1  0.76921800  0.73653100  0.40395600  1
  O  O17  1  0.73078200  0.73653100  0.90395600  1
  O  O18  1  0.01190400  0.72870900  0.21597600  1
  O  O19  1  0.48809600  0.72870900  0.71597600  1
  O  O20  1  0.96776400  0.69028900  0.51515500  1
  O  O21  1  0.53223600  0.69028900  0.01515500  1
  O  O22  1  0.77538400  0.68166700  0.07756700  1
  O  O23  1  0.72461600  0.68166700  0.57756700  1
  O  O24  1  0.23096200  0.58656600  0.22087400  1
  O  O25  1  0.26903800  0.58656600  0.72087400  1
  O  O26  1  0.47028500  0.52799400  0.82229300  1
  O  O27  1  0.02971500  0.52799400  0.32229300  1
  O  O28  1  0.51171500  0.51455000  0.35420700  1
  O  O29  1  0.98828500  0.51455000  0.85420700  1
  O  O30  1  0.80357800  0.49591100  0.47281600  1
  O  O31  1  0.69642200  0.49591100  0.97281600  1
  O  O32  1  0.30357800  0.50408900  0.02718400  1
  O  O33  1  0.19642200  0.50408900  0.52718400  1
  O  O34  1  0.48828500  0.48545000  0.64579300  1
  O  O35  1  0.01171500  0.48545000  0.14579300  1
  O  O36  1  0.52971500  0.47200600  0.17770700  1
  O  O37  1  0.97028500  0.47200600  0.67770700  1
  O  O38  1  0.73096200  0.41343400  0.27912600  1
  O  O39  1  0.76903800  0.41343400  0.77912600  1
  O  O40  1  0.27538400  0.31833300  0.42243300  1
  O  O41  1  0.22461600  0.31833300  0.92243300  1
  O  O42  1  0.46776400  0.30971100  0.98484500  1
  O  O43  1  0.03223600  0.30971100  0.48484500  1
  O  O44  1  0.51190400  0.27129100  0.28402400  1
  O  O45  1  0.98809600  0.27129100  0.78402400  1
  O  O46  1  0.26921800  0.26346900  0.09604400  1
  O  O47  1  0.23078200  0.26346900  0.59604400  1
  O  O48  1  0.76921800  0.23653100  0.09604400  1
  O  O49  1  0.73078200  0.23653100  0.59604400  1
  O  O50  1  0.48809600  0.22870900  0.78402400  1
  O  O51  1  0.01190400  0.22870900  0.28402400  1
  O  O52  1  0.53223600  0.19028900  0.48484500  1
  O  O53  1  0.96776400  0.19028900  0.98484500  1
  O  O54  1  0.77538400  0.18166700  0.42243300  1
  O  O55  1  0.72461600  0.18166700  0.92243300  1
  O  O56  1  0.26903800  0.08656600  0.77912600  1
  O  O57  1  0.23096200  0.08656600  0.27912600  1
  O  O58  1  0.47028500  0.02799400  0.67770700  1
  O  O59  1  0.02971500  0.02799400  0.17770700  1
  O  O60  1  0.98828500  0.01455000  0.64579300  1
  O  O61  1  0.51171500  0.01455000  0.14579300  1
  O  O62  1  0.80357800  0.99591100  0.02718400  1
  O  O63  1  0.69642200  0.99591100  0.52718400  1
loop_
_geom_bond_atom_site_label_1
_geom_bond_atom_site_label_2
_geom_bond_distance
_geom_bond_site_symmetry_2
O0 S2 1.524955 1_545
O0 W6 2.062446 1_555
O1 S3 1.524955 1_545
O1 W7 2.062446 1_555
O2 S15 1.427745 1_565
O3 S14 1.427745 1_565
O4 S1 1.498483 1_555
O4 W6 2.138197 1_565
O5 S0 1.498483 1_555
O5 W7 2.138197 1_665
O6 S1 1.528499 1_555
O6 W0 2.061194 1_555
O7 S0 1.528499 1_555
O7 W1 2.061194 1_555
O8 S3 1.503645 1_554
O8 W2 2.109061 1_555
O9 S2 1.503645 1_555
O9 W3 2.109061 1_555
O10 S3 1.525564 1_554
O10 W0 2.046274 1_455
O11 S2 1.525564 1_555
O11 W1 2.046274 1_555
O12 S0 1.532617 1_555
O12 W3 2.044463 1_655
O13 S1 1.532617 1_555
O13 W2 2.044463 1_555
O14 S2 1.425506 1_555
O15 S3 1.425506 1_555
O16 S4 1.425506 1_555
O17 S5 1.425506 1_555
O18 S6 1.532617 1_555
O18 W0 2.044463 1_455
O19 S7 1.532617 1_555
O19 W1 2.044463 1_555
O20 S4 1.525564 1_555
O20 W3 2.046274 1_655
O21 S5 1.525564 1_554
O21 W2 2.046274 1_555
O22 S5 1.503645 1_554
O22 W0 2.109061 1_555
O23 S4 1.503645 1_555
O23 W1 2.109061 1_555
O24 S6 1.528499 1_555
O24 W2 2.061194 1_555
O25 S7 1.528499 1_555
O25 W3 2.061194 1_555
O26 S7 1.498483 1_555
O26 W5 2.138197 1_555
O27 S6 1.498483 1_555
O27 W4 2.138197 1_455
O28 S8 1.427745 1_555
O29 S9 1.427745 1_555
O30 S4 1.524955 1_555
O30 W4 2.062446 1_555
O31 S5 1.524955 1_555
O31 W5 2.062446 1_555
O32 S10 1.524955 1_555
O32 W2 2.062446 1_555
O33 S11 1.524955 1_555
O33 W3 2.062446 1_555
O34 S7 1.427745 1_555
O35 S6 1.427745 1_555
O36 S8 1.498483 1_555
O36 W2 2.138197 1_555
O37 S9 1.498483 1_555
O37 W3 2.138197 1_655
O38 S8 1.528499 1_555
O38 W4 2.061194 1_555
O39 S9 1.528499 1_555
O39 W5 2.061194 1_555
O40 S11 1.503645 1_555
O40 W6 2.109061 1_555
O41 S10 1.503645 1_556
O41 W7 2.109061 1_555
O42 S10 1.525564 1_556
O42 W5 2.046274 1_555
O43 S11 1.525564 1_555
O43 W4 2.046274 1_455
O44 S8 1.532617 1_555
O44 W6 2.044463 1_555
O45 S9 1.532617 1_555
O45 W7 2.044463 1_655
O46 S10 1.425506 1_555
O47 S11 1.425506 1_555
O48 S12 1.425506 1_555
O49 S13 1.425506 1_555
O50 S14 1.532617 1_555
O50 W5 2.044463 1_555
O51 S15 1.532617 1_555
O51 W4 2.044463 1_455
O52 S13 1.525564 1_555
O52 W6 2.046274 1_555
O53 S12 1.525564 1_556
O53 W7 2.046274 1_655
O54 S13 1.503645 1_555
O54 W4 2.109061 1_555
O55 S12 1.503645 1_556
O55 W5 2.109061 1_555
O56 S14 1.528499 1_555
O56 W7 2.061194 1_555
O57 S15 1.528499 1_555
O57 W6 2.061194 1_555
O58 S14 1.498483 1_555
O58 W1 2.138197 1_545
O59 S15 1.498483 1_555
O59 W0 2.138197 1_445
O60 S0 1.427745 1_545
O61 S1 1.427745 1_545
O62 S12 1.524955 1_565
O62 W0 2.062446 1_555
O63 S13 1.524955 1_565
O63 W1 2.062446 1_555
