# generated using pymatgen
data_LiSmAlF6
_symmetry_space_group_name_H-M   'P 1'
_cell_length_a   4.92916962
_cell_length_b   4.92916962
_cell_length_c   11.08231800
_cell_angle_alpha   90.00000000
_cell_angle_beta   90.00000000
_cell_angle_gamma   119.99999489
_symmetry_Int_Tables_number   1
_chemical_formula_structural   LiSmAlF6
_chemical_formula_sum   'Li2 Sm2 Al2 F12'
_cell_volume   233.18939088
_cell_formula_units_Z   2
loop_
 _symmetry_equiv_pos_site_id
 _symmetry_equiv_pos_as_xyz
  1  'x, y, z'
loop_
 _atom_site_type_symbol
 _atom_site_label
 _atom_site_symmetry_multiplicity
 _atom_site_fract_x
 _atom_site_fract_y
 _atom_site_fract_z
 _atom_site_occupancy
  Li  Li0  1  0.66666700  0.33333300  0.75000000  1
  Li  Li1  1  0.33333300  0.66666700  0.25000000  1
  Sm  Sm0  1  0.00000000  0.00000000  0.50000000  1
  Sm  Sm1  1  0.00000000  0.00000000  0.00000000  1
  Al  Al0  1  0.33333300  0.66666700  0.75000000  1
  Al  Al1  1  0.66666700  0.33333300  0.25000000  1
  F  F0  1  0.35979600  0.33104800  0.34436000  1
  F  F1  1  0.66895200  0.02874800  0.34436000  1
  F  F2  1  0.35979600  0.02874800  0.15564000  1
  F  F3  1  0.33104800  0.35979600  0.65564000  1
  F  F4  1  0.02874800  0.66895200  0.65564000  1
  F  F5  1  0.97125200  0.33104800  0.15564000  1
  F  F6  1  0.66895200  0.64020400  0.15564000  1
  F  F7  1  0.33104800  0.97125200  0.84436000  1
  F  F8  1  0.64020400  0.66895200  0.84436000  1
  F  F9  1  0.64020400  0.97125200  0.65564000  1
  F  F10  1  0.02874800  0.35979600  0.84436000  1
  F  F11  1  0.97125200  0.64020400  0.34436000  1
loop_
_geom_bond_atom_site_label_1
_geom_bond_atom_site_label_2
_geom_bond_distance
_geom_bond_site_symmetry_2
Al0 F4 1.834295 1_555
Al0 F7 1.834295 1_555
Al0 F10 1.834297 1_555
Al0 F9 1.834297 1_555
Al0 F3 1.834299 1_555
Al0 F8 1.834299 1_555
Al1 F1 1.834295 1_555
Al1 F5 1.834295 1_555
Al1 F2 1.834297 1_555
Al1 F11 1.834297 1_555
Al1 F6 1.834299 1_555
Al1 F0 1.834299 1_555
F0 Li1 2.015722 1_555
F0 Sm0 2.426761 1_555
F1 Li1 2.015720 1_545
F1 Sm0 2.426761 1_655
F2 Li1 2.015718 1_545
F2 Sm1 2.426761 1_555
F3 Li0 2.015722 1_555
F3 Sm0 2.426761 1_555
F4 Li0 2.015720 1_455
F4 Sm0 2.426761 1_565
F5 Li1 2.015720 1_655
F5 Sm1 2.426761 1_655
F6 Li1 2.015722 1_555
F6 Sm1 2.426761 1_665
F7 Li0 2.015720 1_565
F7 Sm1 2.426761 1_566
F8 Li0 2.015722 1_555
F8 Sm1 2.426761 1_666
F9 Li0 2.015718 1_565
F9 Sm0 2.426761 1_665
F10 Li0 2.015718 1_455
F10 Sm1 2.426761 1_556
F11 Li1 2.015718 1_655
F11 Sm0 2.426761 1_665
