# generated using pymatgen
data_Na3SbSe4
_symmetry_space_group_name_H-M   'P 1'
_cell_length_a   6.48731853
_cell_length_b   6.48731862
_cell_length_c   6.48731779
_cell_angle_alpha   109.47122767
_cell_angle_beta   109.47122795
_cell_angle_gamma   109.47120390
_symmetry_Int_Tables_number   1
_chemical_formula_structural   Na3SbSe4
_chemical_formula_sum   'Na3 Sb1 Se4'
_cell_volume   210.17146233
_cell_formula_units_Z   1
loop_
 _symmetry_equiv_pos_site_id
 _symmetry_equiv_pos_as_xyz
  1  'x, y, z'
loop_
 _atom_site_type_symbol
 _atom_site_label
 _atom_site_symmetry_multiplicity
 _atom_site_fract_x
 _atom_site_fract_y
 _atom_site_fract_z
 _atom_site_occupancy
  Na  Na0  1  -0.00000000  0.50000000  0.50000000  1
  Na  Na1  1  0.50000000  -0.00000000  0.50000000  1
  Na  Na2  1  0.50000000  0.50000000  0.00000000  1
  Sb  Sb0  1  -0.00000000  -0.00000000  0.00000000  1
  Se  Se0  1  0.38417576  0.38417576  0.38417576  1
  Se  Se1  1  -0.00000000  0.61582424  -0.00000000  1
  Se  Se2  1  0.61582424  -0.00000000  -0.00000000  1
  Se  Se3  1  0.00000000  0.00000000  0.61582424  1
loop_
_geom_bond_atom_site_label_1
_geom_bond_atom_site_label_2
_geom_bond_distance
_geom_bond_site_symmetry_2
Na0 Se1 3.075886 1_556
Na0 Se0 3.075886 1_555
Na0 Se2 3.075886 1_455
Na0 Se3 3.075886 1_565
Na1 Se2 3.075886 1_556
Na1 Se1 3.075886 1_545
Na1 Se0 3.075886 1_555
Na1 Se3 3.075886 1_655
Na2 Se0 3.075886 1_555
Na2 Se1 3.075887 1_655
Na2 Se2 3.075887 1_565
Na2 Se3 3.075887 1_554
Sb0 Se3 2.492270 1_554
Sb0 Se2 2.492271 1_455
Sb0 Se0 2.492271 1_555
Sb0 Se1 2.492271 1_545
