# generated using pymatgen
data_CsTaGeS5
_symmetry_space_group_name_H-M   'P 1'
_cell_length_a   7.06244000
_cell_length_b   7.48602710
_cell_length_c   9.54044971
_cell_angle_alpha   67.34803584
_cell_angle_beta   77.48155292
_cell_angle_gamma   74.84189850
_symmetry_Int_Tables_number   1
_chemical_formula_structural   CsTaGeS5
_chemical_formula_sum   'Cs2 Ta2 Ge2 S10'
_cell_volume   445.46649061
_cell_formula_units_Z   2
loop_
 _symmetry_equiv_pos_site_id
 _symmetry_equiv_pos_as_xyz
  1  'x, y, z'
loop_
 _atom_site_type_symbol
 _atom_site_label
 _atom_site_symmetry_multiplicity
 _atom_site_fract_x
 _atom_site_fract_y
 _atom_site_fract_z
 _atom_site_occupancy
  Cs  Cs0  1  0.60530800  0.35130100  0.31232100  1
  Cs  Cs1  1  0.39469200  0.64869900  0.68767900  1
  Ta  Ta0  1  0.23975300  0.02800100  0.00425600  1
  Ta  Ta1  1  0.76024700  0.97199900  0.99574400  1
  Ge  Ge0  1  0.97719100  0.70238000  0.37237100  1
  Ge  Ge1  1  0.02280900  0.29762000  0.62762900  1
  S  S0  1  0.07003400  0.76080000  0.01360900  1
  S  S1  1  0.43799500  0.21633400  0.03105800  1
  S  S2  1  0.69075300  0.86162500  0.28626900  1
  S  S3  1  0.21079500  0.88033200  0.28899200  1
  S  S4  1  0.07684900  0.39049700  0.36642000  1
  S  S5  1  0.92315100  0.60950300  0.63358000  1
  S  S6  1  0.78920500  0.11966800  0.71100800  1
  S  S7  1  0.30924700  0.13837500  0.71373100  1
  S  S8  1  0.56200500  0.78366600  0.96894200  1
  S  S9  1  0.92996600  0.23920000  0.98639100  1
loop_
_geom_bond_atom_site_label_1
_geom_bond_atom_site_label_2
_geom_bond_distance
_geom_bond_site_symmetry_2
Cs0 S4 3.579905 1_655
Cs0 S4 3.604269 1_555
Cs0 S8 3.612628 1_554
Cs0 S2 3.652864 1_545
Cs0 S9 3.680157 1_554
Cs0 S1 3.702009 1_555
Cs0 S6 3.878763 1_555
Cs0 S7 3.892105 1_555
Cs0 S2 3.928083 1_555
Cs1 S5 3.579905 1_455
Cs1 S5 3.604269 1_555
Cs1 S1 3.612628 1_556
Cs1 S7 3.652864 1_565
Cs1 S0 3.680157 1_556
Cs1 S8 3.702009 1_555
Cs1 S3 3.878763 1_555
Cs1 S2 3.892105 1_555
Cs1 S7 3.928083 1_555
Ge0 S2 2.212049 1_555
Ge0 S3 2.212127 1_655
Ge0 S4 2.274891 1_655
Ge0 S5 2.287190 1_555
Ge1 S7 2.212049 1_555
Ge1 S6 2.212127 1_455
Ge1 S5 2.274891 1_455
Ge1 S4 2.287190 1_555
S0 Ta1 2.336780 1_454
S0 Ta0 2.552603 1_565
S1 Ta0 2.340616 1_555
S1 Ta1 2.569828 1_544
S2 Ta1 2.542524 1_554
S3 Ta0 2.491502 1_565
S6 Ta1 2.491502 1_545
S7 Ta0 2.542524 1_556
S8 Ta1 2.340616 1_555
S8 Ta0 2.569828 1_566
S9 Ta0 2.336780 1_656
S9 Ta1 2.552603 1_545
