# generated using pymatgen
data_ScB2C
_symmetry_space_group_name_H-M   'P 1'
_cell_length_a   6.64555500
_cell_length_b   6.64555500
_cell_length_c   6.79219100
_cell_angle_alpha   90.00000000
_cell_angle_beta   90.00000000
_cell_angle_gamma   90.00000000
_symmetry_Int_Tables_number   1
_chemical_formula_structural   ScB2C
_chemical_formula_sum   'Sc8 B16 C8'
_cell_volume   299.96625655
_cell_formula_units_Z   8
loop_
 _symmetry_equiv_pos_site_id
 _symmetry_equiv_pos_as_xyz
  1  'x, y, z'
loop_
 _atom_site_type_symbol
 _atom_site_label
 _atom_site_symmetry_multiplicity
 _atom_site_fract_x
 _atom_site_fract_y
 _atom_site_fract_z
 _atom_site_occupancy
  Sc  Sc0  1  0.30766600  0.80766600  0.75000000  1
  Sc  Sc1  1  0.19233400  0.30766600  0.25000000  1
  Sc  Sc2  1  0.80766600  0.69233400  0.25000000  1
  Sc  Sc3  1  0.69233400  0.19233400  0.75000000  1
  Sc  Sc4  1  0.69233400  0.19233400  0.25000000  1
  Sc  Sc5  1  0.80766600  0.69233400  0.75000000  1
  Sc  Sc6  1  0.19233400  0.30766600  0.75000000  1
  Sc  Sc7  1  0.30766600  0.80766600  0.25000000  1
  B  B0  1  0.15321700  0.03356000  0.00000000  1
  B  B1  1  0.53356000  0.65321700  0.50000000  1
  B  B2  1  0.84678300  0.96644000  0.00000000  1
  B  B3  1  0.34678300  0.53356000  0.00000000  1
  B  B4  1  0.65321700  0.46644000  0.00000000  1
  B  B5  1  0.03356000  0.84678300  0.50000000  1
  B  B6  1  0.96644000  0.15321700  0.50000000  1
  B  B7  1  0.46644000  0.34678300  0.50000000  1
  B  B8  1  0.09608500  0.59222100  0.00000000  1
  B  B9  1  0.40777900  0.09608500  0.50000000  1
  B  B10  1  0.59222100  0.90391500  0.50000000  1
  B  B11  1  0.59608500  0.90777900  0.00000000  1
  B  B12  1  0.40391500  0.09222100  0.00000000  1
  B  B13  1  0.90391500  0.40777900  0.00000000  1
  B  B14  1  0.09222100  0.59608500  0.50000000  1
  B  B15  1  0.90777900  0.40391500  0.50000000  1
  C  C0  1  0.17902300  0.04002600  0.50000000  1
  C  C1  1  0.67902300  0.45997400  0.50000000  1
  C  C2  1  0.32097700  0.54002600  0.50000000  1
  C  C3  1  0.95997400  0.17902300  0.00000000  1
  C  C4  1  0.04002600  0.82097700  0.00000000  1
  C  C5  1  0.54002600  0.67902300  0.00000000  1
  C  C6  1  0.82097700  0.95997400  0.50000000  1
  C  C7  1  0.45997400  0.32097700  0.00000000  1
loop_
_geom_bond_atom_site_label_1
_geom_bond_atom_site_label_2
_geom_bond_distance
_geom_bond_site_symmetry_2
B0 C4 1.600513 1_545
B0 C3 1.607377 1_455
B0 Sc0 2.488059 1_544
B0 Sc7 2.488059 1_545
B0 Sc6 2.503821 1_554
B0 Sc1 2.503821 1_555
B1 C2 1.600513 1_555
B1 C1 1.607377 1_555
B1 Sc7 2.488059 1_555
B1 Sc0 2.488059 1_555
B1 Sc5 2.503821 1_555
B1 Sc2 2.503821 1_555
B2 C3 1.600513 1_565
B2 C4 1.607377 1_655
B2 Sc3 2.488059 1_564
B2 Sc4 2.488059 1_565
B2 Sc2 2.503821 1_555
B2 Sc5 2.503821 1_554
B3 C7 1.600513 1_555
B3 C5 1.607377 1_555
B3 Sc1 2.488059 1_555
B3 Sc6 2.488059 1_554
B3 Sc0 2.503821 1_554
B3 Sc7 2.503821 1_555
B4 C5 1.600513 1_555
B4 C7 1.607377 1_555
B4 Sc5 2.488059 1_554
B4 Sc2 2.488059 1_555
B4 Sc4 2.503821 1_555
B4 Sc3 2.503821 1_554
B5 C6 1.600513 1_455
B5 C0 1.607377 1_565
B5 Sc2 2.488059 1_455
B5 Sc5 2.488059 1_455
B5 Sc7 2.503821 1_555
B5 Sc0 2.503821 1_555
B6 C0 1.600513 1_655
B6 C6 1.607377 1_545
B6 Sc6 2.488059 1_655
B6 Sc1 2.488059 1_655
B6 Sc4 2.503821 1_555
B6 Sc3 2.503821 1_555
B7 C1 1.600513 1_555
B7 C2 1.607377 1_555
B7 Sc4 2.488059 1_555
B7 Sc3 2.488059 1_555
B7 Sc6 2.503821 1_555
B7 Sc1 2.503821 1_555
B8 C4 1.565193 1_555
B8 Sc1 2.620776 1_555
B8 Sc6 2.620776 1_554
B8 Sc7 2.628749 1_555
B8 Sc0 2.628749 1_554
B8 Sc2 2.645705 1_455
B8 Sc5 2.645705 1_454
B9 C0 1.565193 1_555
B9 Sc3 2.620776 1_555
B9 Sc4 2.620776 1_555
B9 Sc6 2.628749 1_555
B9 Sc1 2.628749 1_555
B9 Sc0 2.645705 1_545
B9 Sc7 2.645705 1_545
B10 C6 1.565193 1_555
B10 Sc7 2.620776 1_555
B10 Sc0 2.620776 1_555
B10 Sc5 2.628749 1_555
B10 Sc2 2.628749 1_555
B10 Sc3 2.645705 1_565
B10 Sc4 2.645705 1_565
B11 C5 1.565193 1_555
B11 Sc3 2.620776 1_564
B11 Sc4 2.620776 1_565
B11 Sc5 2.628749 1_554
B11 Sc2 2.628749 1_555
B11 Sc7 2.645705 1_555
B11 Sc0 2.645705 1_554
B12 C7 1.565193 1_555
B12 Sc0 2.620776 1_544
B12 Sc7 2.620776 1_545
B12 Sc1 2.628749 1_555
B12 Sc6 2.628749 1_554
B12 Sc4 2.645705 1_555
B12 Sc3 2.645705 1_554
B13 C3 1.565193 1_555
B13 Sc2 2.620776 1_555
B13 Sc5 2.620776 1_554
B13 Sc3 2.628749 1_554
B13 Sc4 2.628749 1_555
B13 Sc1 2.645705 1_655
B13 Sc6 2.645705 1_654
B14 C2 1.565193 1_555
B14 Sc5 2.620776 1_455
B14 Sc2 2.620776 1_455
B14 Sc7 2.628749 1_555
B14 Sc0 2.628749 1_555
B14 Sc6 2.645705 1_555
B14 Sc1 2.645705 1_555
B15 C1 1.565193 1_555
B15 Sc6 2.620776 1_655
B15 Sc1 2.620776 1_655
B15 Sc3 2.628749 1_555
B15 Sc4 2.628749 1_555
B15 Sc2 2.645705 1_555
B15 Sc5 2.645705 1_555
C0 Sc0 2.449216 1_545
C0 Sc7 2.449216 1_545
C0 Sc6 2.460623 1_555
C0 Sc1 2.460623 1_555
C1 Sc5 2.449216 1_555
C1 Sc2 2.449216 1_555
C1 Sc3 2.460623 1_555
C1 Sc4 2.460623 1_555
C2 Sc1 2.449216 1_555
C2 Sc6 2.449216 1_555
C2 Sc7 2.460623 1_555
C2 Sc0 2.460623 1_555
C3 Sc1 2.449216 1_655
C3 Sc6 2.449216 1_654
C3 Sc3 2.460623 1_554
C3 Sc4 2.460623 1_555
C4 Sc2 2.449216 1_455
C4 Sc5 2.449216 1_454
C4 Sc7 2.460623 1_555
C4 Sc0 2.460623 1_554
C5 Sc7 2.449216 1_555
C5 Sc0 2.449216 1_554
C5 Sc2 2.460623 1_555
C5 Sc5 2.460623 1_554
C6 Sc3 2.449216 1_565
C6 Sc4 2.449216 1_565
C6 Sc2 2.460623 1_555
C6 Sc5 2.460623 1_555
C7 Sc4 2.449216 1_555
C7 Sc3 2.449216 1_554
C7 Sc1 2.460623 1_555
C7 Sc6 2.460623 1_554
