# generated using pymatgen
data_Yb3GeO
_symmetry_space_group_name_H-M   'P 1'
_cell_length_a   6.56514627
_cell_length_b   6.56514627
_cell_length_c   6.57013871
_cell_angle_alpha   60.20897493
_cell_angle_beta   60.20897493
_cell_angle_gamma   60.28464574
_symmetry_Int_Tables_number   1
_chemical_formula_structural   Yb3GeO
_chemical_formula_sum   'Yb6 Ge2 O2'
_cell_volume   201.30028335
_cell_formula_units_Z   2
loop_
 _symmetry_equiv_pos_site_id
 _symmetry_equiv_pos_as_xyz
  1  'x, y, z'
loop_
 _atom_site_type_symbol
 _atom_site_label
 _atom_site_symmetry_multiplicity
 _atom_site_fract_x
 _atom_site_fract_y
 _atom_site_fract_z
 _atom_site_occupancy
  Yb  Yb0  1  0.78556300  0.21443700  0.75000000  1
  Yb  Yb1  1  0.21443700  0.78556300  0.25000000  1
  Yb  Yb2  1  0.74268200  0.72153500  0.77713400  1
  Yb  Yb3  1  0.27846500  0.25731700  0.72286600  1
  Yb  Yb4  1  0.25731800  0.27846500  0.22286600  1
  Yb  Yb5  1  0.72153500  0.74268200  0.27713400  1
  Ge  Ge0  1  0.74952400  0.25047600  0.25000000  1
  Ge  Ge1  1  0.25047600  0.74952400  0.75000000  1
  O  O0  1  0.50000000  0.00000000  0.00000000  1
  O  O1  1  0.00000000  0.50000000  0.50000000  1
loop_
_geom_bond_atom_site_label_1
_geom_bond_atom_site_label_2
_geom_bond_distance
_geom_bond_site_symmetry_2
Ge0 Yb1 3.065344 1_645
Ge0 Yb3 3.109971 1_555
Ge0 Yb2 3.109971 1_554
Ge0 Yb4 3.233998 1_555
Ge0 Yb5 3.233998 1_555
Ge0 Yb0 3.293652 1_554
Ge0 Yb0 3.293652 1_555
Ge0 Yb4 3.341193 1_655
Ge0 Yb5 3.341193 1_545
Ge0 Yb3 3.479214 1_654
Ge0 Yb2 3.479215 1_545
Ge0 Yb1 3.528028 1_555
Ge1 Yb0 3.065344 1_465
Ge1 Yb5 3.109971 1_555
Ge1 Yb4 3.109971 1_556
Ge1 Yb2 3.233998 1_555
Ge1 Yb3 3.234004 1_555
Ge1 Yb1 3.293652 1_555
Ge1 Yb1 3.293652 1_556
Ge1 Yb3 3.341187 1_565
Ge1 Yb2 3.341193 1_455
Ge1 Yb5 3.479215 1_456
Ge1 Yb4 3.479215 1_565
Ge1 Yb0 3.528028 1_555
O0 Yb3 2.328871 1_554
O0 Yb5 2.328871 1_545
O0 Yb0 2.335275 1_554
O0 Yb1 2.335275 1_545
O0 Yb2 2.340697 1_544
O0 Yb4 2.340697 1_555
O1 Yb4 2.328871 1_555
O1 Yb2 2.328871 1_455
O1 Yb0 2.335275 1_455
O1 Yb1 2.335275 1_555
O1 Yb3 2.340697 1_555
O1 Yb5 2.340697 1_455
