# generated using pymatgen
data_LiMnPO4
_symmetry_space_group_name_H-M   'P 1'
_cell_length_a   5.39692300
_cell_length_b   6.30737100
_cell_length_c   9.05779600
_cell_angle_alpha   90.00000000
_cell_angle_beta   90.00000000
_cell_angle_gamma   90.00000000
_symmetry_Int_Tables_number   1
_chemical_formula_structural   LiMnPO4
_chemical_formula_sum   'Li4 Mn4 P4 O16'
_cell_volume   308.33095928
_cell_formula_units_Z   4
loop_
 _symmetry_equiv_pos_site_id
 _symmetry_equiv_pos_as_xyz
  1  'x, y, z'
loop_
 _atom_site_type_symbol
 _atom_site_label
 _atom_site_symmetry_multiplicity
 _atom_site_fract_x
 _atom_site_fract_y
 _atom_site_fract_z
 _atom_site_occupancy
  Li  Li0  1  0.25000000  0.18284200  0.99471300  1
  Li  Li1  1  0.75000000  0.31715800  0.49471300  1
  Li  Li2  1  0.25000000  0.68284200  0.50528700  1
  Li  Li3  1  0.75000000  0.81715800  0.00528700  1
  Mn  Mn0  1  0.75000000  0.98414700  0.71287900  1
  Mn  Mn1  1  0.25000000  0.51585300  0.21287900  1
  Mn  Mn2  1  0.75000000  0.48414700  0.78712100  1
  Mn  Mn3  1  0.25000000  0.01585300  0.28712100  1
  P  P0  1  0.25000000  0.21801600  0.59035400  1
  P  P1  1  0.75000000  0.28198400  0.09035400  1
  P  P2  1  0.25000000  0.71801600  0.90964600  1
  P  P3  1  0.75000000  0.78198400  0.40964600  1
  O  O0  1  0.25000000  0.98848000  0.53116200  1
  O  O1  1  0.75000000  0.12507400  0.95853400  1
  O  O2  1  0.98897300  0.24508700  0.18516600  1
  O  O3  1  0.51102700  0.24508700  0.18516600  1
  O  O4  1  0.01102700  0.25491300  0.68516600  1
  O  O5  1  0.48897300  0.25491300  0.68516600  1
  O  O6  1  0.25000000  0.37492600  0.45853400  1
  O  O7  1  0.75000000  0.51152000  0.03116200  1
  O  O8  1  0.25000000  0.48848000  0.96883800  1
  O  O9  1  0.75000000  0.62507400  0.54146600  1
  O  O10  1  0.51102700  0.74508700  0.31483400  1
  O  O11  1  0.98897300  0.74508700  0.31483400  1
  O  O12  1  0.01102700  0.75491300  0.81483400  1
  O  O13  1  0.48897300  0.75491300  0.81483400  1
  O  O14  1  0.25000000  0.87492600  0.04146600  1
  O  O15  1  0.75000000  0.01152000  0.46883800  1
loop_
_geom_bond_atom_site_label_1
_geom_bond_atom_site_label_2
_geom_bond_distance
_geom_bond_site_symmetry_2
Li0 O8 1.941967 1_555
Li0 O14 1.987774 1_546
Li0 O2 2.261550 1_456
Li0 O3 2.261550 1_556
Li1 O15 1.941967 1_555
Li1 O9 1.987774 1_555
Li1 O5 2.261550 1_555
Li1 O4 2.261550 1_655
Li2 O0 1.941967 1_555
Li2 O6 1.987774 1_555
Li2 O10 2.261550 1_555
Li2 O11 2.261550 1_455
Li3 O7 1.941967 1_555
Li3 O1 1.987774 1_564
Li3 O12 2.261550 1_654
Li3 O13 2.261550 1_554
Mn0 O15 2.217206 1_565
Mn0 O12 2.219889 1_655
Mn0 O13 2.219889 1_555
Mn0 O4 2.228053 1_665
Mn0 O5 2.228053 1_565
Mn0 O1 2.396068 1_565
Mn1 O8 2.217206 1_554
Mn1 O10 2.219889 1_555
Mn1 O11 2.219889 1_455
Mn1 O3 2.228053 1_555
Mn1 O2 2.228053 1_455
Mn1 O6 2.396068 1_555
Mn2 O7 2.217206 1_556
Mn2 O4 2.219889 1_655
Mn2 O5 2.219889 1_555
Mn2 O12 2.228053 1_655
Mn2 O13 2.228053 1_555
Mn2 O9 2.396068 1_555
Mn3 O0 2.217206 1_545
Mn3 O2 2.219889 1_455
Mn3 O3 2.219889 1_555
Mn3 O10 2.228053 1_545
Mn3 O11 2.228053 1_445
Mn3 O14 2.396068 1_545
O0 P0 1.543856 1_565
O1 P1 1.550844 1_556
O2 P1 1.566860 1_555
O3 P1 1.566860 1_555
O4 P0 1.566860 1_555
O5 P0 1.566860 1_555
O6 P0 1.550844 1_555
O7 P1 1.543856 1_555
O8 P2 1.543856 1_555
O9 P3 1.550844 1_555
O10 P3 1.566860 1_555
O11 P3 1.566860 1_555
O12 P2 1.566860 1_555
O13 P2 1.566860 1_555
O14 P2 1.550844 1_554
O15 P3 1.543856 1_545
