# generated using pymatgen
data_LiVF3
_symmetry_space_group_name_H-M   'P 1'
_cell_length_a   7.03015800
_cell_length_b   8.06741788
_cell_length_c   21.04280028
_cell_angle_alpha   83.55320761
_cell_angle_beta   82.90641013
_cell_angle_gamma   86.18551699
_symmetry_Int_Tables_number   1
_chemical_formula_structural   LiVF3
_chemical_formula_sum   'Li18 V18 F54'
_cell_volume   1175.14386295
_cell_formula_units_Z   18
loop_
 _symmetry_equiv_pos_site_id
 _symmetry_equiv_pos_as_xyz
  1  'x, y, z'
loop_
 _atom_site_type_symbol
 _atom_site_label
 _atom_site_symmetry_multiplicity
 _atom_site_fract_x
 _atom_site_fract_y
 _atom_site_fract_z
 _atom_site_occupancy
  Li  Li0  1  0.73059400  0.69830400  0.85982900  1
  Li  Li1  1  0.86825500  0.31091200  0.29366500  1
  Li  Li2  1  0.64638800  0.40310700  0.65471000  1
  Li  Li3  1  0.73120800  0.33581200  0.44433500  1
  Li  Li4  1  0.81612100  0.99883500  0.08982600  1
  Li  Li5  1  0.53325100  0.43495400  0.79830400  1
  Li  Li6  1  0.38153500  0.27992900  0.98260600  1
  Li  Li7  1  0.69096400  0.04231600  0.23136800  1
  Li  Li8  1  0.49748600  0.86367800  0.41250900  1
  Li  Li9  1  0.50251400  0.13632200  0.58749100  1
  Li  Li10  1  0.30903600  0.95768400  0.76863200  1
  Li  Li11  1  0.61846500  0.72007100  0.01739400  1
  Li  Li12  1  0.46674900  0.56504600  0.20169600  1
  Li  Li13  1  0.18387900  0.00116500  0.91017400  1
  Li  Li14  1  0.26879200  0.66418800  0.55566500  1
  Li  Li15  1  0.35361200  0.59689300  0.34529000  1
  Li  Li16  1  0.13174500  0.68908800  0.70633500  1
  Li  Li17  1  0.26940600  0.30169600  0.14017100  1
  V  V0  1  0.89314900  0.35091500  0.96523400  1
  V  V1  1  0.94516000  0.01465300  0.57933100  1
  V  V2  1  0.79974300  0.04959100  0.73460200  1
  V  V3  1  0.99362800  0.67758000  0.19285800  1
  V  V4  1  0.74918100  0.72810800  0.50628000  1
  V  V5  1  0.59994900  0.02997000  0.90177000  1
  V  V6  1  0.86027900  0.70194500  0.34957900  1
  V  V7  1  0.60493200  0.76036100  0.65679200  1
  V  V8  1  0.78723800  0.39429300  0.12810500  1
  V  V9  1  0.21276200  0.60570700  0.87189500  1
  V  V10  1  0.39506800  0.23963900  0.34320800  1
  V  V11  1  0.13972100  0.29805500  0.65042100  1
  V  V12  1  0.40005100  0.97003000  0.09823000  1
  V  V13  1  0.25081900  0.27189200  0.49372000  1
  V  V14  1  0.00637200  0.32242000  0.80714200  1
  V  V15  1  0.20025700  0.95040900  0.26539800  1
  V  V16  1  0.05484000  0.98534700  0.42066900  1
  V  V17  1  0.10685100  0.64908500  0.03476600  1
  F  F0  1  0.99238000  0.17554000  0.89739700  1
  F  F1  1  0.92226300  0.51400000  0.87238200  1
  F  F2  1  0.90233800  0.85612400  0.66814300  1
  F  F3  1  0.79573700  0.91894600  0.82216400  1
  F  F4  1  0.96597200  0.17077200  0.48599300  1
  F  F5  1  0.84863600  0.20872600  0.64083800  1
  F  F6  1  0.65631000  0.78549300  0.93346300  1
  F  F7  1  0.95842900  0.52874700  0.28565300  1
  F  F8  1  0.73090700  0.25744900  0.78772500  1
  F  F9  1  0.83594900  0.55148200  0.44013800  1
  F  F10  1  0.90829200  0.86895900  0.26118200  1
  F  F11  1  0.63451700  0.28014800  0.94135800  1
  F  F12  1  0.72379500  0.58341200  0.59298100  1
  F  F13  1  0.78244700  0.89325100  0.41718800  1
  F  F14  1  0.67049000  0.93871600  0.57003800  1
  F  F15  1  0.50795900  0.60291600  0.85269800  1
  F  F16  1  0.53807200  0.96926300  0.70803200  1
  F  F17  1  0.59411100  0.54806600  0.71821000  1
  F  F18  1  0.87556300  0.21983200  0.05924700  1
  F  F19  1  0.81199400  0.24495800  0.21745100  1
  F  F20  1  0.67673300  0.26839000  0.36547200  1
  F  F21  1  0.82215000  0.54753000  0.03174400  1
  F  F22  1  0.72631800  0.60819000  0.17975200  1
  F  F23  1  0.38989900  0.01089100  0.84084900  1
  F  F24  1  0.53535400  0.27009300  0.50801000  1
  F  F25  1  0.65296600  0.93109900  0.03828500  1
  F  F26  1  0.43330100  0.29374500  0.64570400  1
  F  F27  1  0.56669900  0.70625500  0.35429600  1
  F  F28  1  0.34703400  0.06890100  0.96171500  1
  F  F29  1  0.46464600  0.72990700  0.49199000  1
  F  F30  1  0.61010100  0.98910900  0.15915100  1
  F  F31  1  0.27368200  0.39181000  0.82024800  1
  F  F32  1  0.17785000  0.45247000  0.96825600  1
  F  F33  1  0.32326700  0.73161000  0.63452800  1
  F  F34  1  0.18800600  0.75504200  0.78254900  1
  F  F35  1  0.12443700  0.78016800  0.94075300  1
  F  F36  1  0.40588900  0.45193400  0.28179000  1
  F  F37  1  0.46192800  0.03073700  0.29196800  1
  F  F38  1  0.49204100  0.39708400  0.14730200  1
  F  F39  1  0.32951000  0.06128400  0.42996200  1
  F  F40  1  0.21755300  0.10674900  0.58281200  1
  F  F41  1  0.27620500  0.41658800  0.40701900  1
  F  F42  1  0.36548300  0.71985200  0.05864200  1
  F  F43  1  0.09170800  0.13104100  0.73881800  1
  F  F44  1  0.16405100  0.44851800  0.55986200  1
  F  F45  1  0.26909300  0.74255100  0.21227500  1
  F  F46  1  0.04157100  0.47125300  0.71434700  1
  F  F47  1  0.34369000  0.21450700  0.06653700  1
  F  F48  1  0.15136400  0.79127400  0.35916200  1
  F  F49  1  0.03402800  0.82922800  0.51400700  1
  F  F50  1  0.20426300  0.08105400  0.17783600  1
  F  F51  1  0.09766200  0.14387600  0.33185700  1
  F  F52  1  0.07773700  0.48600000  0.12761800  1
  F  F53  1  0.00762000  0.82446000  0.10260300  1
loop_
_geom_bond_atom_site_label_1
_geom_bond_atom_site_label_2
_geom_bond_distance
_geom_bond_site_symmetry_2
F0 Li13 1.901622 1_655
F0 V14 2.117733 1_655
F0 V0 2.145307 1_555
F1 Li0 1.956865 1_555
F1 V14 2.185734 1_655
F1 V9 2.216400 1_655
F1 V0 2.224922 1_555
F2 V1 2.143461 1_565
F2 Li16 2.202397 1_655
F2 V2 2.236796 1_565
F2 V7 2.324885 1_555
F3 Li0 1.925709 1_555
F3 V2 2.015358 1_565
F3 V5 2.259707 1_565
F4 V16 2.154732 1_645
F4 V1 2.205310 1_555
F4 V13 2.242671 1_655
F4 Li3 2.251209 1_555
F5 Li2 2.066290 1_555
F5 V1 2.164191 1_555
F5 V2 2.231963 1_555
F5 V11 2.253535 1_655
F6 Li11 1.778176 1_556
F6 Li0 1.778860 1_555
F6 V5 2.039028 1_565
F7 Li1 1.890485 1_555
F7 V6 2.074252 1_555
F7 V3 2.170141 1_555
F8 Li5 1.939456 1_555
F8 V2 2.115436 1_555
F8 V14 2.137878 1_655
F9 Li3 1.922798 1_555
F9 V4 2.111786 1_555
F9 V6 2.135822 1_555
F10 Li7 2.106952 1_565
F10 V6 2.175321 1_555
F10 V15 2.211370 1_655
F10 V3 2.230002 1_555
F11 Li6 1.880230 1_555
F11 V0 2.076642 1_555
F11 V5 2.306368 1_555
F12 Li2 1.898868 1_555
F12 V4 2.047462 1_555
F12 V7 2.129249 1_555
F13 Li8 2.048778 1_555
F13 V16 2.112024 1_655
F13 V4 2.171777 1_555
F13 V6 2.212189 1_555
F14 Li9 1.960781 1_565
F14 V1 2.102321 1_565
F14 V7 2.214936 1_555
F14 V4 2.279560 1_555
F15 Li0 1.818960 1_555
F15 Li5 1.855740 1_555
F15 V9 2.063797 1_555
F16 Li10 1.927071 1_555
F16 V7 2.097915 1_555
F16 V2 2.147242 1_565
F17 Li5 1.839787 1_555
F17 Li2 1.860264 1_555
F17 V7 2.026165 1_555
F18 Li4 1.882132 1_545
F18 V0 2.129424 1_554
F18 V8 2.141365 1_555
F19 Li1 1.840617 1_555
F19 Li7 1.870377 1_555
F19 V8 2.135585 1_555
F20 Li3 1.893100 1_555
F20 Li1 1.912148 1_555
F20 V10 2.123420 1_555
F21 Li11 1.956115 1_555
F21 V17 2.223187 1_655
F21 V0 2.223620 1_554
F21 V8 2.248251 1_555
F22 Li12 1.872060 1_555
F22 V3 2.055136 1_555
F22 V8 2.133092 1_555
F23 Li10 1.791385 1_545
F23 Li13 1.923419 1_555
F23 V5 2.095179 1_555
F24 Li3 1.858544 1_555
F24 Li9 1.883527 1_555
F24 V13 2.058070 1_555
F25 Li4 1.820508 1_555
F25 Li11 1.843844 1_555
F25 V12 2.076518 1_555
F26 Li2 1.828097 1_555
F26 Li9 1.862823 1_555
F26 V11 2.052177 1_555
F27 Li15 1.828097 1_555
F27 Li8 1.862823 1_555
F27 V6 2.052177 1_555
F28 Li13 1.820508 1_555
F28 Li6 1.843844 1_555
F28 V5 2.076518 1_555
F29 Li14 1.858544 1_555
F29 Li8 1.883527 1_555
F29 V4 2.058070 1_555
F30 Li7 1.791385 1_565
F30 Li4 1.923419 1_555
F30 V12 2.095179 1_555
F31 Li5 1.872060 1_555
F31 V14 2.055136 1_555
F31 V9 2.133092 1_555
F32 Li6 1.956115 1_555
F32 V0 2.223187 1_455
F32 V17 2.223620 1_556
F32 V9 2.248251 1_555
F33 Li14 1.893100 1_555
F33 Li16 1.912148 1_555
F33 V7 2.123420 1_555
F34 Li16 1.840617 1_555
F34 Li10 1.870377 1_555
F34 V9 2.135585 1_555
F35 Li13 1.882132 1_565
F35 V17 2.129424 1_556
F35 V9 2.141365 1_555
F36 Li12 1.839787 1_555
F36 Li15 1.860264 1_555
F36 V10 2.026165 1_555
F37 Li7 1.927071 1_555
F37 V10 2.097915 1_555
F37 V15 2.147242 1_545
F38 Li17 1.818960 1_555
F38 Li12 1.855740 1_555
F38 V8 2.063797 1_555
F39 Li8 1.960781 1_545
F39 V16 2.102321 1_545
F39 V10 2.214936 1_555
F39 V13 2.279560 1_555
F40 Li9 2.048778 1_555
F40 V1 2.112024 1_455
F40 V13 2.171777 1_555
F40 V11 2.212189 1_555
F41 Li15 1.898868 1_555
F41 V13 2.047462 1_555
F41 V10 2.129249 1_555
F42 Li11 1.880230 1_555
F42 V17 2.076642 1_555
F42 V12 2.306368 1_555
F43 Li10 2.106952 1_545
F43 V11 2.175321 1_555
F43 V2 2.211370 1_455
F43 V14 2.230002 1_555
F44 Li14 1.922798 1_555
F44 V13 2.111786 1_555
F44 V11 2.135822 1_555
F45 Li12 1.939456 1_555
F45 V15 2.115436 1_555
F45 V3 2.137878 1_455
F46 Li16 1.890485 1_555
F46 V11 2.074252 1_555
F46 V14 2.170141 1_555
F47 Li6 1.778176 1_554
F47 Li17 1.778860 1_555
F47 V12 2.039028 1_545
F48 Li15 2.066290 1_555
F48 V16 2.164191 1_555
F48 V15 2.231963 1_555
F48 V6 2.253535 1_455
F49 V1 2.154732 1_465
F49 V16 2.205310 1_555
F49 V4 2.242671 1_455
F49 Li14 2.251209 1_555
F50 Li17 1.925709 1_555
F50 V15 2.015358 1_545
F50 V12 2.259707 1_545
F51 V16 2.143461 1_545
F51 Li1 2.202397 1_455
F51 V15 2.236796 1_545
F51 V10 2.324885 1_555
F52 Li17 1.956865 1_555
F52 V3 2.185734 1_455
F52 V8 2.216400 1_455
F52 V17 2.224922 1_555
F53 Li4 1.901622 1_455
F53 V3 2.117733 1_455
F53 V17 2.145307 1_555
