# generated using pymatgen
data_Li4Mn3VO8
_symmetry_space_group_name_H-M   'P 1'
_cell_length_a   5.93626000
_cell_length_b   5.95539402
_cell_length_c   5.99847255
_cell_angle_alpha   119.55856397
_cell_angle_beta   118.47323640
_cell_angle_gamma   90.42393572
_symmetry_Int_Tables_number   1
_chemical_formula_structural   Li4Mn3VO8
_chemical_formula_sum   'Li4 Mn3 V1 O8'
_cell_volume   153.77368202
_cell_formula_units_Z   1
loop_
 _symmetry_equiv_pos_site_id
 _symmetry_equiv_pos_as_xyz
  1  'x, y, z'
loop_
 _atom_site_type_symbol
 _atom_site_label
 _atom_site_symmetry_multiplicity
 _atom_site_fract_x
 _atom_site_fract_y
 _atom_site_fract_z
 _atom_site_occupancy
  Li  Li0  1  0.50000000  0.50000000  0.00000000  1
  Li  Li1  1  0.00000000  0.50000000  0.50000000  1
  Li  Li2  1  0.50000000  0.00000000  0.00000000  1
  Li  Li3  1  0.00000000  0.00000000  0.50000000  1
  Mn  Mn0  1  0.50000000  0.00000000  0.50000000  1
  Mn  Mn1  1  0.00000000  0.50000000  0.00000000  1
  Mn  Mn2  1  0.50000000  0.50000000  0.50000000  1
  V  V0  1  0.00000000  0.00000000  0.00000000  1
  O  O0  1  0.72802200  0.74464700  0.50921000  1
  O  O1  1  0.26028400  0.74541300  0.03670100  1
  O  O2  1  0.75297800  0.21369300  0.51791000  1
  O  O3  1  0.27197800  0.25535300  0.49079000  1
  O  O4  1  0.21317800  0.27283400  0.97987600  1
  O  O5  1  0.73971600  0.25458700  0.96329900  1
  O  O6  1  0.24702200  0.78630700  0.48209000  1
  O  O7  1  0.78682200  0.72716600  0.02012400  1
loop_
_geom_bond_atom_site_label_1
_geom_bond_atom_site_label_2
_geom_bond_distance
_geom_bond_site_symmetry_2
Li0 O1 2.054640 1_555
Li0 O5 2.054640 1_554
Li0 O4 2.086299 1_554
Li0 O7 2.086299 1_555
Li0 O3 2.218699 1_554
Li0 O0 2.218699 1_555
Li1 O3 2.184712 1_555
Li1 O0 2.184712 1_455
Li1 O2 2.315824 1_455
Li1 O6 2.315824 1_555
Li1 O5 2.338628 1_454
Li1 O1 2.338628 1_556
Li2 O1 2.228969 1_545
Li2 O5 2.228969 1_554
Li2 O6 2.269077 1_544
Li2 O2 2.269077 1_555
Li2 O7 2.364774 1_545
Li2 O4 2.364774 1_554
Li3 O2 1.955593 1_455
Li3 O6 1.955593 1_545
Li3 O4 2.099788 1_555
Li3 O7 2.099788 1_445
Li3 O3 2.248107 1_555
Li3 O0 2.248107 1_445
Mn0 O2 1.889271 1_555
Mn0 O6 1.889271 1_545
Mn0 O1 2.021669 1_545
Mn0 O5 2.021669 1_555
Mn0 O3 2.046934 1_555
Mn0 O0 2.046934 1_545
Mn1 O7 1.859063 1_455
Mn1 O4 1.859063 1_554
Mn1 O5 1.974008 1_454
Mn1 O1 1.974008 1_555
Mn1 O2 2.115419 1_454
Mn1 O6 2.115419 1_555
Mn2 O0 1.943743 1_555
Mn2 O3 1.943743 1_555
Mn2 O7 2.280284 1_556
Mn2 O4 2.280284 1_554
Mn2 O2 2.288849 1_555
Mn2 O6 2.288849 1_555
O0 V0 2.144951 1_666
O1 V0 2.185005 1_565
O3 V0 2.144951 1_555
O4 V0 2.136549 1_556
O5 V0 2.185005 1_656
O7 V0 2.136549 1_665
