# generated using pymatgen
data_Ba2Hg
_symmetry_space_group_name_H-M   'P 1'
_cell_length_a   8.45636995
_cell_length_b   8.45636949
_cell_length_c   16.48370194
_cell_angle_alpha   104.86289068
_cell_angle_beta   104.86288228
_cell_angle_gamma   89.99999994
_symmetry_Int_Tables_number   1
_chemical_formula_structural   Ba2Hg
_chemical_formula_sum   'Ba16 Hg8'
_cell_volume   1098.46120958
_cell_formula_units_Z   8
loop_
 _symmetry_equiv_pos_site_id
 _symmetry_equiv_pos_as_xyz
  1  'x, y, z'
loop_
 _atom_site_type_symbol
 _atom_site_label
 _atom_site_symmetry_multiplicity
 _atom_site_fract_x
 _atom_site_fract_y
 _atom_site_fract_z
 _atom_site_occupancy
  Ba  Ba0_0  1  0.18588271  0.18588271  0.37176491  1
  Ba  Ba0_1  1  0.18588271  0.18588271  0.87176491  1
  Ba  Ba0_2  1  0.18588271  0.68588271  0.37176491  1
  Ba  Ba0_3  1  0.18588270  0.68588271  0.87176491  1
  Ba  Ba0_4  1  0.68588270  0.18588271  0.37176491  1
  Ba  Ba0_5  1  0.68588270  0.18588271  0.87176491  1
  Ba  Ba0_6  1  0.68588270  0.68588271  0.37176491  1
  Ba  Ba0_7  1  0.68588270  0.68588271  0.87176491  1
  Ba  Ba1_0  1  0.31411729  0.31411730  0.12823509  1
  Ba  Ba1_1  1  0.31411730  0.31411730  0.62823509  1
  Ba  Ba1_2  1  0.31411730  0.81411730  0.12823509  1
  Ba  Ba1_3  1  0.31411729  0.81411730  0.62823509  1
  Ba  Ba1_4  1  0.81411729  0.31411730  0.12823509  1
  Ba  Ba1_5  1  0.81411729  0.31411730  0.62823509  1
  Ba  Ba1_6  1  0.81411729  0.81411730  0.12823509  1
  Ba  Ba1_7  1  0.81411729  0.81411730  0.62823509  1
  Hg  Hg0_0  1  0.00000000  0.00000000  0.00000000  1
  Hg  Hg0_1  1  0.00000000  0.00000000  0.50000000  1
  Hg  Hg0_2  1  0.00000000  0.50000000  0.00000000  1
  Hg  Hg0_3  1  0.00000000  0.50000000  0.50000000  1
  Hg  Hg0_4  1  0.50000000  0.00000000  0.00000000  1
  Hg  Hg0_5  1  0.50000000  0.00000000  0.50000000  1
  Hg  Hg0_6  1  0.50000000  0.50000000  0.00000000  1
  Hg  Hg0_7  1  0.50000000  0.50000000  0.50000000  1
loop_
_geom_bond_atom_site_label_1
_geom_bond_atom_site_label_2
_geom_bond_distance
_geom_bond_site_symmetry_2
Ba0_0 Hg0_7 3.580349 1_555
Ba0_0 Hg0_3 3.580351 1_555
Ba0_0 Hg0_5 3.580351 1_555
Ba0_0 Hg0_1 3.580353 1_555
Ba0_0 Ba1_1 3.939614 1_555
Ba0_0 Ba0_2 4.228185 1_555
Ba0_0 Ba0_2 4.228185 1_545
Ba0_0 Ba0_4 4.228185 1_555
Ba0_0 Ba0_4 4.228185 1_455
Ba0_0 Ba1_0 4.788800 1_555
Ba0_0 Ba1_2 4.788804 1_545
Ba0_0 Ba1_4 4.788804 1_455
Ba0_0 Ba1_6 4.788809 1_445
Ba0_1 Hg0_6 3.580349 1_556
Ba0_1 Hg0_2 3.580351 1_556
Ba0_1 Hg0_4 3.580351 1_556
Ba0_1 Hg0_0 3.580353 1_556
Ba0_1 Ba1_0 3.939614 1_556
Ba0_1 Ba0_3 4.228185 1_545
Ba0_1 Ba0_3 4.228185 1_555
Ba0_1 Ba0_5 4.228185 1_555
Ba0_1 Ba0_5 4.228185 1_455
Ba0_1 Ba1_1 4.788800 1_555
Ba0_1 Ba1_3 4.788804 1_545
Ba0_1 Ba1_5 4.788804 1_455
Ba0_1 Ba1_7 4.788809 1_445
Ba0_2 Hg0_5 3.580349 1_565
Ba0_2 Hg0_1 3.580351 1_565
Ba0_2 Hg0_7 3.580351 1_555
Ba0_2 Hg0_3 3.580353 1_555
Ba0_2 Ba1_3 3.939614 1_555
Ba0_2 Ba0_6 4.228185 1_555
Ba0_2 Ba0_6 4.228185 1_455
Ba0_2 Ba1_2 4.788800 1_555
Ba0_2 Ba1_0 4.788804 1_555
Ba0_2 Ba1_6 4.788804 1_455
Ba0_2 Ba1_4 4.788809 1_455
Ba0_3 Hg0_4 3.580349 1_566
Ba0_3 Hg0_0 3.580351 1_566
Ba0_3 Hg0_6 3.580351 1_556
Ba0_3 Hg0_2 3.580353 1_556
Ba0_3 Ba1_2 3.939614 1_556
Ba0_3 Ba0_7 4.228185 1_555
Ba0_3 Ba0_7 4.228185 1_455
Ba0_3 Ba1_3 4.788800 1_555
Ba0_3 Ba1_1 4.788804 1_555
Ba0_3 Ba1_7 4.788804 1_455
Ba0_3 Ba1_5 4.788809 1_455
Ba0_4 Hg0_3 3.580349 1_655
Ba0_4 Hg0_7 3.580351 1_555
Ba0_4 Hg0_1 3.580351 1_655
Ba0_4 Hg0_5 3.580353 1_555
Ba0_4 Ba1_5 3.939614 1_555
Ba0_4 Ba0_6 4.228185 1_545
Ba0_4 Ba0_6 4.228185 1_555
Ba0_4 Ba1_4 4.788800 1_555
Ba0_4 Ba1_6 4.788804 1_545
Ba0_4 Ba1_0 4.788804 1_555
Ba0_4 Ba1_2 4.788809 1_545
Ba0_5 Hg0_2 3.580349 1_656
Ba0_5 Hg0_6 3.580351 1_556
Ba0_5 Hg0_0 3.580351 1_656
Ba0_5 Hg0_4 3.580353 1_556
Ba0_5 Ba1_4 3.939614 1_556
Ba0_5 Ba0_7 4.228185 1_555
Ba0_5 Ba0_7 4.228185 1_545
Ba0_5 Ba1_5 4.788800 1_555
Ba0_5 Ba1_7 4.788804 1_545
Ba0_5 Ba1_1 4.788804 1_555
Ba0_5 Ba1_3 4.788809 1_545
Ba0_6 Hg0_1 3.580349 1_665
Ba0_6 Hg0_5 3.580351 1_565
Ba0_6 Hg0_3 3.580351 1_655
Ba0_6 Hg0_7 3.580353 1_555
Ba0_6 Ba1_7 3.939614 1_555
Ba0_6 Ba1_6 4.788800 1_555
Ba0_6 Ba1_4 4.788804 1_555
Ba0_6 Ba1_2 4.788804 1_555
Ba0_6 Ba1_0 4.788809 1_555
Ba0_7 Hg0_0 3.580349 1_666
Ba0_7 Hg0_4 3.580351 1_566
Ba0_7 Hg0_2 3.580351 1_656
Ba0_7 Hg0_6 3.580353 1_556
Ba0_7 Ba1_6 3.939614 1_556
Ba0_7 Ba1_7 4.788800 1_555
Ba0_7 Ba1_5 4.788804 1_555
Ba0_7 Ba1_3 4.788804 1_555
Ba0_7 Ba1_1 4.788809 1_555
Ba1_0 Hg0_0 3.580349 1_555
Ba1_0 Hg0_4 3.580351 1_555
Ba1_0 Hg0_2 3.580351 1_555
Ba1_0 Hg0_6 3.580353 1_555
Ba1_0 Ba1_2 4.228185 1_555
Ba1_0 Ba1_2 4.228185 1_545
Ba1_0 Ba1_4 4.228185 1_555
Ba1_0 Ba1_4 4.228185 1_455
Ba1_1 Hg0_1 3.580349 1_555
Ba1_1 Hg0_5 3.580351 1_555
Ba1_1 Hg0_3 3.580351 1_555
Ba1_1 Hg0_7 3.580353 1_555
Ba1_1 Ba1_3 4.228185 1_555
Ba1_1 Ba1_3 4.228185 1_545
Ba1_1 Ba1_5 4.228185 1_455
Ba1_1 Ba1_5 4.228185 1_555
Ba1_2 Hg0_2 3.580349 1_555
Ba1_2 Hg0_6 3.580351 1_555
Ba1_2 Hg0_0 3.580351 1_565
Ba1_2 Hg0_4 3.580353 1_565
Ba1_2 Ba1_6 4.228185 1_555
Ba1_2 Ba1_6 4.228185 1_455
Ba1_3 Hg0_3 3.580349 1_555
Ba1_3 Hg0_7 3.580351 1_555
Ba1_3 Hg0_1 3.580351 1_565
Ba1_3 Hg0_5 3.580353 1_565
Ba1_3 Ba1_7 4.228185 1_555
Ba1_3 Ba1_7 4.228185 1_455
Ba1_4 Hg0_4 3.580349 1_555
Ba1_4 Hg0_0 3.580351 1_655
Ba1_4 Hg0_6 3.580351 1_555
Ba1_4 Hg0_2 3.580353 1_655
Ba1_4 Ba1_6 4.228185 1_545
Ba1_4 Ba1_6 4.228185 1_555
Ba1_5 Hg0_5 3.580349 1_555
Ba1_5 Hg0_1 3.580351 1_655
Ba1_5 Hg0_7 3.580351 1_555
Ba1_5 Hg0_3 3.580353 1_655
Ba1_5 Ba1_7 4.228185 1_545
Ba1_5 Ba1_7 4.228185 1_555
Ba1_6 Hg0_6 3.580349 1_555
Ba1_6 Hg0_2 3.580351 1_655
Ba1_6 Hg0_4 3.580351 1_565
Ba1_6 Hg0_0 3.580353 1_665
Ba1_7 Hg0_7 3.580349 1_555
Ba1_7 Hg0_3 3.580351 1_655
Ba1_7 Hg0_5 3.580351 1_565
Ba1_7 Hg0_1 3.580353 1_665
