# generated using pymatgen
data_HgPd
_symmetry_space_group_name_H-M   'P 1'
_cell_length_a   5.32332200
_cell_length_b   5.32332200
_cell_length_c   5.32332200
_cell_angle_alpha   90.00000000
_cell_angle_beta   90.00000000
_cell_angle_gamma   90.00000000
_symmetry_Int_Tables_number   1
_chemical_formula_structural   HgPd
_chemical_formula_sum   'Hg4 Pd4'
_cell_volume   150.85100588
_cell_formula_units_Z   4
loop_
 _symmetry_equiv_pos_site_id
 _symmetry_equiv_pos_as_xyz
  1  'x, y, z'
loop_
 _atom_site_type_symbol
 _atom_site_label
 _atom_site_symmetry_multiplicity
 _atom_site_fract_x
 _atom_site_fract_y
 _atom_site_fract_z
 _atom_site_occupancy
  Hg  Hg0  1  0.84356500  0.65643500  0.34356500  1
  Hg  Hg1  1  0.65643500  0.34356500  0.84356500  1
  Hg  Hg2  1  0.34356500  0.84356500  0.65643500  1
  Hg  Hg3  1  0.15643500  0.15643500  0.15643500  1
  Pd  Pd0  1  0.15254700  0.34745300  0.65254700  1
  Pd  Pd1  1  0.34745300  0.65254700  0.15254700  1
  Pd  Pd2  1  0.65254700  0.15254700  0.34745300  1
  Pd  Pd3  1  0.84745300  0.84745300  0.84745300  1
loop_
_geom_bond_atom_site_label_1
_geom_bond_atom_site_label_2
_geom_bond_distance
_geom_bond_site_symmetry_2
Hg0 Pd1 2.830036 1_555
Hg0 Pd2 2.830036 1_565
Hg0 Pd3 2.830036 1_554
Hg0 Pd0 2.848896 1_655
Hg0 Pd3 2.868703 1_555
Hg0 Pd2 2.868703 1_555
Hg0 Pd1 2.868703 1_655
Hg1 Pd3 2.830036 1_545
Hg1 Pd0 2.830036 1_655
Hg1 Pd2 2.830036 1_555
Hg1 Pd1 2.848896 1_556
Hg1 Pd3 2.868703 1_555
Hg1 Pd0 2.868703 1_555
Hg1 Pd2 2.868703 1_556
Hg2 Pd1 2.830036 1_556
Hg2 Pd3 2.830036 1_455
Hg2 Pd0 2.830036 1_555
Hg2 Pd2 2.848896 1_565
Hg2 Pd1 2.868703 1_555
Hg2 Pd3 2.868703 1_555
Hg2 Pd0 2.868703 1_565
Hg3 Pd1 2.830036 1_555
Hg3 Pd0 2.830036 1_555
Hg3 Pd2 2.830036 1_555
Hg3 Pd3 2.848896 1_444
Hg3 Pd1 2.868703 1_545
Hg3 Pd0 2.868703 1_554
Hg3 Pd2 2.868703 1_455
