# generated using pymatgen
data_La2PdO4
_symmetry_space_group_name_H-M   'P 1'
_cell_length_a   6.94899446
_cell_length_b   6.94899446
_cell_length_c   6.94899446
_cell_angle_alpha   145.71073201
_cell_angle_beta   145.71073201
_cell_angle_gamma   49.27662343
_symmetry_Int_Tables_number   1
_chemical_formula_structural   La2PdO4
_chemical_formula_sum   'La2 Pd1 O4'
_cell_volume   106.01801960
_cell_formula_units_Z   1
loop_
 _symmetry_equiv_pos_site_id
 _symmetry_equiv_pos_as_xyz
  1  'x, y, z'
loop_
 _atom_site_type_symbol
 _atom_site_label
 _atom_site_symmetry_multiplicity
 _atom_site_fract_x
 _atom_site_fract_y
 _atom_site_fract_z
 _atom_site_occupancy
  La  La0  1  0.65153200  0.65153200  0.00000000  1
  La  La1  1  0.34846800  0.34846800  0.00000000  1
  Pd  Pd0  1  0.00000000  0.00000000  0.00000000  1
  O  O0  1  0.75000000  0.25000000  0.50000000  1
  O  O1  1  0.25000000  0.75000000  0.50000000  1
  O  O2  1  0.50000000  0.00000000  0.50000000  1
  O  O3  1  0.00000000  0.50000000  0.50000000  1
loop_
_geom_bond_atom_site_label_1
_geom_bond_atom_site_label_2
_geom_bond_distance
_geom_bond_site_symmetry_2
La0 O1 2.396561 1_554
La0 O0 2.396561 1_565
La0 O1 2.396561 1_655
La0 O0 2.396561 1_554
La0 O3 2.803668 1_655
La0 O2 2.803668 1_565
La0 O2 2.803668 1_554
La0 O3 2.803668 1_554
La1 O0 2.396561 1_555
La1 O1 2.396561 1_544
La1 O0 2.396561 1_454
La1 O1 2.396561 1_555
La1 O3 2.803668 1_554
La1 O2 2.803668 1_554
La1 O2 2.803668 1_565
La1 O3 2.803668 1_655
O2 Pd0 2.048458 1_555
O2 Pd0 2.048458 1_656
O3 Pd0 2.048458 1_555
O3 Pd0 2.048458 1_566
