# generated using pymatgen
data_KNpAgS3
_symmetry_space_group_name_H-M   'P 1'
_cell_length_a   7.35904143
_cell_length_b   7.35904143
_cell_length_c   10.41709100
_cell_angle_alpha   90.00000000
_cell_angle_beta   90.00000000
_cell_angle_gamma   147.67688761
_symmetry_Int_Tables_number   1
_chemical_formula_structural   KNpAgS3
_chemical_formula_sum   'K2 Np2 Ag2 S6'
_cell_volume   301.64329381
_cell_formula_units_Z   2
loop_
 _symmetry_equiv_pos_site_id
 _symmetry_equiv_pos_as_xyz
  1  'x, y, z'
loop_
 _atom_site_type_symbol
 _atom_site_label
 _atom_site_symmetry_multiplicity
 _atom_site_fract_x
 _atom_site_fract_y
 _atom_site_fract_z
 _atom_site_occupancy
  K  K0  1  0.73938300  0.26061700  0.25000000  1
  K  K1  1  0.26061700  0.73938300  0.75000000  1
  Np  Np0  1  0.00000000  0.00000000  0.50000000  1
  Np  Np1  1  0.00000000  0.00000000  0.00000000  1
  Ag  Ag0  1  0.45313100  0.54686900  0.25000000  1
  Ag  Ag1  1  0.54686900  0.45313100  0.75000000  1
  S  S0  1  0.37576300  0.62423700  0.46272700  1
  S  S1  1  0.06179400  0.93820600  0.25000000  1
  S  S2  1  0.37576300  0.62423700  0.03727300  1
  S  S3  1  0.62423700  0.37576300  0.96272700  1
  S  S4  1  0.93820600  0.06179400  0.75000000  1
  S  S5  1  0.62423700  0.37576300  0.53727300  1
loop_
_geom_bond_atom_site_label_1
_geom_bond_atom_site_label_2
_geom_bond_distance
_geom_bond_site_symmetry_2
K0 S1 3.240106 1_545
K0 S1 3.240106 1_655
K0 S5 3.406601 1_555
K0 S3 3.406601 1_554
K0 S0 3.580969 1_545
K0 S2 3.580969 1_545
K0 S2 3.580969 1_655
K0 S0 3.580969 1_655
K1 S4 3.240106 1_455
K1 S4 3.240106 1_565
K1 S2 3.406601 1_556
K1 S0 3.406601 1_555
K1 S5 3.580969 1_455
K1 S5 3.580969 1_565
K1 S3 3.580969 1_455
K1 S3 3.580969 1_565
Np0 S5 2.725993 1_445
Np0 S0 2.725993 1_555
Np0 S0 2.725993 1_445
Np0 S5 2.725993 1_555
Np0 S1 2.746875 1_545
Np0 S4 2.746875 1_455
Np1 S3 2.725993 1_444
Np1 S2 2.725993 1_555
Np1 S2 2.725993 1_445
Np1 S3 2.725993 1_554
Np1 S1 2.746875 1_545
Np1 S4 2.746875 1_454
Ag0 S0 2.471202 1_555
Ag0 S2 2.471202 1_555
Ag0 S1 2.560356 1_655
Ag0 S1 2.560356 1_545
Ag0 K0 3.650490 1_565
Ag0 K0 3.650490 1_455
Ag1 S3 2.471202 1_555
Ag1 S5 2.471202 1_555
Ag1 S4 2.560356 1_565
Ag1 S4 2.560356 1_455
Ag1 K1 3.650490 1_655
Ag1 K1 3.650490 1_545
