# generated using pymatgen
data_ZrSi
_symmetry_space_group_name_H-M   'P 1'
_cell_length_a   3.79273916
_cell_length_b   5.31712717
_cell_length_c   7.00730357
_cell_angle_alpha   90.00000000
_cell_angle_beta   90.00000000
_cell_angle_gamma   90.00000000
_symmetry_Int_Tables_number   1
_chemical_formula_structural   ZrSi
_chemical_formula_sum   'Zr4 Si4'
_cell_volume   141.31262233
_cell_formula_units_Z   4
loop_
 _symmetry_equiv_pos_site_id
 _symmetry_equiv_pos_as_xyz
  1  'x, y, z'
loop_
 _atom_site_type_symbol
 _atom_site_label
 _atom_site_symmetry_multiplicity
 _atom_site_fract_x
 _atom_site_fract_y
 _atom_site_fract_z
 _atom_site_occupancy
  Zr  Zr0  1  0.25000000  0.12455523  0.17523432  1
  Zr  Zr1  1  0.75000000  0.87544477  0.82476568  1
  Zr  Zr2  1  0.75000000  0.62455523  0.32476568  1
  Zr  Zr3  1  0.25000000  0.37544477  0.67523432  1
  Si  Si0  1  0.25000000  0.63694113  0.04269496  1
  Si  Si1  1  0.75000000  0.36305887  0.95730504  1
  Si  Si2  1  0.75000000  0.13694113  0.45730504  1
  Si  Si3  1  0.25000000  0.86305887  0.54269496  1
loop_
_geom_bond_atom_site_label_1
_geom_bond_atom_site_label_2
_geom_bond_distance
_geom_bond_site_symmetry_2
Si0 Si1 2.464743 1_554
Si0 Si1 2.464743 1_454
Si0 Zr2 2.739950 1_555
Si0 Zr2 2.739950 1_455
Si0 Zr1 2.745261 1_454
Si0 Zr1 2.745261 1_554
Si0 Zr0 2.754032 1_565
Si0 Zr0 2.878374 1_555
Si0 Zr3 2.926327 1_554
Si1 Zr3 2.739950 1_555
Si1 Zr3 2.739950 1_655
Si1 Zr0 2.745261 1_656
Si1 Zr0 2.745261 1_556
Si1 Zr1 2.754032 1_545
Si1 Zr1 2.878374 1_555
Si1 Zr2 2.926327 1_556
Si2 Si3 2.464743 1_645
Si2 Si3 2.464743 1_545
Si2 Zr0 2.739950 1_555
Si2 Zr0 2.739950 1_655
Si2 Zr3 2.745261 1_555
Si2 Zr3 2.745261 1_655
Si2 Zr2 2.754032 1_555
Si2 Zr2 2.878374 1_545
Si2 Zr1 2.926327 1_545
Si3 Zr1 2.739950 1_555
Si3 Zr1 2.739950 1_455
Si3 Zr2 2.745261 1_555
Si3 Zr2 2.745261 1_455
Si3 Zr3 2.754032 1_555
Si3 Zr3 2.878374 1_565
Si3 Zr0 2.926327 1_565
