# generated using pymatgen
data_Sc2OsPd
_symmetry_space_group_name_H-M   'P 1'
_cell_length_a   4.58473249
_cell_length_b   4.58481120
_cell_length_c   4.58476351
_cell_angle_alpha   59.99500190
_cell_angle_beta   59.99502189
_cell_angle_gamma   59.99568414
_symmetry_Int_Tables_number   1
_chemical_formula_structural   Sc2OsPd
_chemical_formula_sum   'Sc2 Os1 Pd1'
_cell_volume   68.13817307
_cell_formula_units_Z   1
loop_
 _symmetry_equiv_pos_site_id
 _symmetry_equiv_pos_as_xyz
  1  'x, y, z'
loop_
 _atom_site_type_symbol
 _atom_site_label
 _atom_site_symmetry_multiplicity
 _atom_site_fract_x
 _atom_site_fract_y
 _atom_site_fract_z
 _atom_site_occupancy
  Sc  Sc0  1  0.00000915  0.00000874  0.00000398  1
  Sc  Sc1  1  0.49999165  0.49999136  0.49999621  1
  Os  Os0  1  0.24999931  0.25000076  0.25000153  1
  Pd  Pd0  1  0.75000090  0.74999914  0.74999828  1
loop_
_geom_bond_atom_site_label_1
_geom_bond_atom_site_label_2
_geom_bond_distance
_geom_bond_site_symmetry_2
Os0 Sc0 2.807411 1_556
Os0 Sc1 2.807422 1_554
Os0 Sc1 2.807431 1_455
Os0 Sc0 2.807439 1_655
Os0 Sc0 2.807479 1_565
Os0 Sc1 2.807485 1_545
Os0 Sc1 2.807603 1_555
Os0 Sc0 2.807611 1_555
Pd0 Sc1 2.807367 1_655
Pd0 Sc0 2.807371 1_566
Pd0 Sc0 2.807380 1_665
Pd0 Sc1 2.807394 1_556
Pd0 Sc0 2.807414 1_656
Pd0 Sc1 2.807420 1_565
Pd0 Sc1 2.807759 1_555
Pd0 Sc0 2.807775 1_666
