# generated using pymatgen
data_ScAlCo2
_symmetry_space_group_name_H-M   'P 1'
_cell_length_a   4.18923867
_cell_length_b   4.18922850
_cell_length_c   4.18917034
_cell_angle_alpha   60.00463842
_cell_angle_beta   60.00473680
_cell_angle_gamma   60.00255711
_symmetry_Int_Tables_number   1
_chemical_formula_structural   ScAlCo2
_chemical_formula_sum   'Sc1 Al1 Co2'
_cell_volume   51.99018187
_cell_formula_units_Z   1
loop_
 _symmetry_equiv_pos_site_id
 _symmetry_equiv_pos_as_xyz
  1  'x, y, z'
loop_
 _atom_site_type_symbol
 _atom_site_label
 _atom_site_symmetry_multiplicity
 _atom_site_fract_x
 _atom_site_fract_y
 _atom_site_fract_z
 _atom_site_occupancy
  Sc  Sc0  1  0.74999810  0.75000496  0.75000456  1
  Al  Al0  1  0.24998796  0.25000381  0.25000457  1
  Co  Co0  1  0.50001543  0.50000765  0.50000206  1
  Co  Co1  1  -0.00000049  0.99998357  0.99998981  1
loop_
_geom_bond_atom_site_label_1
_geom_bond_atom_site_label_2
_geom_bond_distance
_geom_bond_site_symmetry_2
Al0 Co1 2.565361 1_544
Al0 Co0 2.565380 1_555
Al0 Co0 2.565392 1_455
Al0 Co1 2.565408 1_554
Al0 Co1 2.565447 1_545
Al0 Co0 2.565464 1_545
Al0 Co0 2.565506 1_554
Al0 Co1 2.565525 1_644
Co0 Sc0 2.565221 1_555
Co0 Sc0 2.565486 1_545
Co0 Sc0 2.565489 1_554
Co0 Sc0 2.565545 1_455
Co1 Sc0 2.565162 1_455
Co1 Sc0 2.565481 1_555
Co1 Sc0 2.565548 1_456
Co1 Sc0 2.565550 1_465
