# generated using pymatgen
data_PmCdAu2
_symmetry_space_group_name_H-M   'P 1'
_cell_length_a   4.97619567
_cell_length_b   4.97619567
_cell_length_c   4.97619421
_cell_angle_alpha   59.99994176
_cell_angle_beta   59.99992225
_cell_angle_gamma   59.99992221
_symmetry_Int_Tables_number   1
_chemical_formula_structural   PmCdAu2
_chemical_formula_sum   'Pm1 Cd1 Au2'
_cell_volume   87.13176670
_cell_formula_units_Z   1
loop_
 _symmetry_equiv_pos_site_id
 _symmetry_equiv_pos_as_xyz
  1  'x, y, z'
loop_
 _atom_site_type_symbol
 _atom_site_label
 _atom_site_symmetry_multiplicity
 _atom_site_fract_x
 _atom_site_fract_y
 _atom_site_fract_z
 _atom_site_occupancy
  Pm  Pm0  1  0.75000000  0.75000000  0.75000000  1
  Cd  Cd0  1  0.24999900  0.24999900  0.24999900  1
  Au  Au0  1  0.50000100  0.50000100  0.50000100  1
  Au  Au1  1  -0.00000000  0.00000000  0.00000000  1
loop_
_geom_bond_atom_site_label_1
_geom_bond_atom_site_label_2
_geom_bond_distance
_geom_bond_site_symmetry_2
Au0 Cd0 3.047274 1_556
Au0 Cd0 3.047274 1_655
Au0 Pm0 3.047274 1_555
Au0 Cd0 3.047274 1_565
Au0 Pm0 3.047286 1_554
Au0 Pm0 3.047286 1_455
Au0 Pm0 3.047287 1_545
Au0 Cd0 3.047311 1_555
Au1 Cd0 3.047274 1_555
Au1 Pm0 3.047282 1_445
Au1 Pm0 3.047282 1_544
Au1 Pm0 3.047283 1_454
Au1 Cd0 3.047286 1_554
Au1 Cd0 3.047286 1_455
Au1 Pm0 3.047286 1_444
Au1 Cd0 3.047287 1_545
