# generated using pymatgen
data_YW2O9
_symmetry_space_group_name_H-M   'P 1'
_cell_length_a   8.70787700
_cell_length_b   5.87927900
_cell_length_c   6.93399552
_cell_angle_alpha   77.08343802
_cell_angle_beta   90.00000000
_cell_angle_gamma   90.00000000
_symmetry_Int_Tables_number   1
_chemical_formula_structural   YW2O9
_chemical_formula_sum   'Y2 W4 O18'
_cell_volume   346.01057563
_cell_formula_units_Z   2
loop_
 _symmetry_equiv_pos_site_id
 _symmetry_equiv_pos_as_xyz
  1  'x, y, z'
loop_
 _atom_site_type_symbol
 _atom_site_label
 _atom_site_symmetry_multiplicity
 _atom_site_fract_x
 _atom_site_fract_y
 _atom_site_fract_z
 _atom_site_occupancy
  Y  Y0  1  0.75000000  0.27646400  0.27690200  1
  Y  Y1  1  0.25000000  0.72353600  0.72309800  1
  W  W0  1  0.56411100  0.19869200  0.81614000  1
  W  W1  1  0.06411100  0.80130800  0.18386000  1
  W  W2  1  0.43588900  0.80130800  0.18386000  1
  W  W3  1  0.93588900  0.19869200  0.81614000  1
  O  O0  1  0.25000000  0.03817900  0.18425100  1
  O  O1  1  0.75000000  0.96182100  0.81574900  1
  O  O2  1  0.75000000  0.37150500  0.87165800  1
  O  O3  1  0.25000000  0.62849500  0.12834200  1
  O  O4  1  0.58771000  0.22204400  0.55047400  1
  O  O5  1  0.08771000  0.77795600  0.44952600  1
  O  O6  1  0.41229000  0.77795600  0.44952600  1
  O  O7  1  0.91229000  0.22204400  0.55047400  1
  O  O8  1  0.57439700  0.07117200  0.12560000  1
  O  O9  1  0.07439700  0.92882800  0.87440000  1
  O  O10  1  0.42560300  0.92882800  0.87440000  1
  O  O11  1  0.92560300  0.07117200  0.12560000  1
  O  O12  1  0.42719100  0.43153200  0.81178000  1
  O  O13  1  0.92719100  0.56846800  0.18822000  1
  O  O14  1  0.57280900  0.56846800  0.18822000  1
  O  O15  1  0.07280900  0.43153200  0.81178000  1
  O  O16  1  0.75000000  0.86792600  0.45016500  1
  O  O17  1  0.25000000  0.13207400  0.54983500  1
loop_
_geom_bond_atom_site_label_1
_geom_bond_atom_site_label_2
_geom_bond_distance
_geom_bond_site_symmetry_2
O0 W2 2.135720 1_545
O0 W1 2.135720 1_545
O1 W3 2.135720 1_565
O1 W0 2.135720 1_565
O2 W0 1.993872 1_555
O2 W3 1.993872 1_555
O2 Y0 2.739736 1_556
O3 W2 1.993872 1_555
O3 W1 1.993872 1_555
O3 Y1 2.739736 1_554
O4 W0 1.827961 1_555
O4 Y0 2.329502 1_555
O5 W1 1.827961 1_555
O5 Y1 2.329502 1_555
O6 W2 1.827961 1_555
O6 Y1 2.329502 1_555
O7 W3 1.827961 1_555
O7 Y0 2.329502 1_555
O8 W2 1.961803 1_545
O8 W0 2.110765 1_554
O8 Y0 2.337045 1_555
O9 W3 1.961803 1_465
O9 W1 2.110765 1_556
O9 Y1 2.337045 1_555
O10 W0 1.961803 1_565
O10 W2 2.110765 1_556
O10 Y1 2.337045 1_555
O11 W1 1.961803 1_645
O11 W3 2.110765 1_554
O11 Y0 2.337045 1_555
O12 W0 1.810503 1_555
O12 Y1 2.287837 1_555
O13 W1 1.810503 1_655
O13 Y0 2.287837 1_555
O14 W2 1.810503 1_555
O14 Y0 2.287837 1_555
O15 W3 1.810503 1_455
O15 Y1 2.287837 1_555
O16 Y0 2.433611 1_565
O17 Y1 2.433611 1_545
