# generated using pymatgen
data_Pr2Ni12As7
_symmetry_space_group_name_H-M   'P 1'
_cell_length_a   9.33888661
_cell_length_b   9.33886865
_cell_length_c   3.89138094
_cell_angle_alpha   90.00000430
_cell_angle_beta   89.99999949
_cell_angle_gamma   119.99605668
_symmetry_Int_Tables_number   1
_chemical_formula_structural   Pr2Ni12As7
_chemical_formula_sum   'Pr2 Ni12 As7'
_cell_volume   293.92803007
_cell_formula_units_Z   1
loop_
 _symmetry_equiv_pos_site_id
 _symmetry_equiv_pos_as_xyz
  1  'x, y, z'
loop_
 _atom_site_type_symbol
 _atom_site_label
 _atom_site_symmetry_multiplicity
 _atom_site_fract_x
 _atom_site_fract_y
 _atom_site_fract_z
 _atom_site_occupancy
  Pr  Pr0  1  0.66662376  0.33331073  0.00000015  1
  Pr  Pr1  1  -0.00002060  0.00004105  0.49999996  1
  Ni  Ni0  1  0.70628338  0.08873547  0.49999994  1
  Ni  Ni1  1  0.91112915  0.61750382  0.50000003  1
  Ni  Ni2  1  0.38251254  0.29382398  0.49999996  1
  Ni  Ni3  1  0.76648764  0.72506309  -0.00000014  1
  Ni  Ni4  1  0.27493621  0.04151836  -0.00000021  1
  Ni  Ni5  1  0.95839974  0.23332547  -0.00000026  1
  Ni  Ni6  1  0.53637788  0.76170063  0.49999995  1
  Ni  Ni7  1  0.23843264  0.77468392  0.50000020  1
  Ni  Ni8  1  0.22547964  0.46376689  0.49999997  1
  Ni  Ni9  1  0.48086013  0.94341817  0.00000013  1
  Ni  Ni10  1  0.05652212  0.53724265  0.00000019  1
  Ni  Ni11  1  0.46268881  0.51922256  0.00000001  1
  As  As0  1  0.33332452  0.66664938  -0.00000010  1
  As  As1  1  0.43298390  0.06561480  0.50000015  1
  As  As2  1  0.93441363  0.36735484  0.50000012  1
  As  As3  1  0.63260644  0.56706169  0.50000019  1
  As  As4  1  0.73431507  0.96010477  -0.00000007  1
  As  As5  1  0.03984933  0.77418741  0.00000000  1
  As  As6  1  0.22579407  0.26567031  -0.00000018  1
loop_
_geom_bond_atom_site_label_1
_geom_bond_atom_site_label_2
_geom_bond_distance
_geom_bond_site_symmetry_2
Ni0 Pr0 3.160010 1_555
Ni0 Pr0 3.160010 1_556
Ni0 Pr1 3.237377 1_655
Ni1 Pr0 3.159757 1_555
Ni1 Pr0 3.159757 1_556
Ni1 Pr1 3.238374 1_665
Ni2 Pr0 3.159634 1_555
Ni2 Pr0 3.159635 1_556
Ni2 Pr1 3.238744 1_555
Ni3 Pr1 3.088058 1_664
Ni3 Pr1 3.088058 1_665
Ni3 Pr0 3.292867 1_555
Ni4 Pr1 3.087844 1_554
Ni4 Pr1 3.087845 1_555
Ni4 Pr0 3.292325 1_555
Ni5 Pr1 3.086862 1_654
Ni5 Pr1 3.086863 1_655
Ni5 Pr0 3.292537 1_555
Ni9 Pr0 3.154618 1_565
Ni10 Pr0 3.154633 1_455
Ni11 Pr0 3.154027 1_555
As0 Ni9 2.240148 1_555
As0 Ni11 2.240149 1_555
As0 Ni10 2.240357 1_555
As0 Ni8 2.545960 1_554
As0 Ni8 2.545960 1_555
As0 Ni7 2.546161 1_554
As0 Ni7 2.546162 1_555
As0 Ni6 2.546863 1_554
As0 Ni6 2.546863 1_555
As1 Ni4 2.383859 1_556
As1 Ni4 2.383861 1_555
As1 Ni7 2.397322 1_545
As1 Ni2 2.401805 1_555
As1 Ni9 2.407920 1_545
As1 Ni9 2.407920 1_546
As1 Ni0 2.451508 1_555
As1 Pr0 3.056518 1_556
As1 Pr0 3.056518 1_555
As2 Ni5 2.383892 1_556
As2 Ni5 2.383894 1_555
As2 Ni8 2.398400 1_655
As2 Ni0 2.401348 1_555
As2 Ni10 2.407129 1_655
As2 Ni10 2.407129 1_656
As2 Ni1 2.452064 1_555
As2 Pr0 3.057135 1_555
As2 Pr0 3.057136 1_556
As3 Ni3 2.383601 1_556
As3 Ni3 2.383603 1_555
As3 Ni6 2.396870 1_555
As3 Ni1 2.400507 1_555
As3 Ni11 2.407180 1_556
As3 Ni11 2.407181 1_555
As3 Ni2 2.450968 1_555
As3 Pr0 3.057025 1_555
As3 Pr0 3.057025 1_556
As4 Ni9 2.293054 1_555
As4 Ni5 2.356030 1_565
As4 Ni3 2.359625 1_555
As4 Ni0 2.368906 1_565
As4 Ni0 2.368906 1_564
As4 Ni6 2.685366 1_554
As4 Ni6 2.685367 1_555
As4 Pr1 3.025725 1_664
As4 Pr1 3.025725 1_665
As5 Ni10 2.294605 1_555
As5 Ni3 2.357264 1_455
As5 Ni4 2.360597 1_565
As5 Ni1 2.369196 1_454
As5 Ni1 2.369197 1_455
As5 Ni7 2.686350 1_554
As5 Ni7 2.686351 1_555
As5 Pr1 3.026285 1_565
As5 Pr1 3.026285 1_564
As6 Ni11 2.294207 1_555
As6 Ni4 2.356526 1_555
As6 Ni5 2.360691 1_455
As6 Ni2 2.368994 1_554
As6 Ni2 2.368994 1_555
As6 Ni8 2.685822 1_554
As6 Ni8 2.685823 1_555
As6 Pr1 3.025884 1_554
As6 Pr1 3.025885 1_555
