# generated using pymatgen
data_Li3V3P8O29
_symmetry_space_group_name_H-M   'P 1'
_cell_length_a   9.75613700
_cell_length_b   9.75615070
_cell_length_c   14.40892741
_cell_angle_alpha   89.38859543
_cell_angle_beta   89.21771278
_cell_angle_gamma   60.11428985
_symmetry_Int_Tables_number   1
_chemical_formula_structural   Li3V3P8O29
_chemical_formula_sum   'Li6 V6 P16 O58'
_cell_volume   1188.97543121
_cell_formula_units_Z   2
loop_
 _symmetry_equiv_pos_site_id
 _symmetry_equiv_pos_as_xyz
  1  'x, y, z'
loop_
 _atom_site_type_symbol
 _atom_site_label
 _atom_site_symmetry_multiplicity
 _atom_site_fract_x
 _atom_site_fract_y
 _atom_site_fract_z
 _atom_site_occupancy
  Li  Li0  1  0.67911300  0.09073400  0.45181100  1
  Li  Li1  1  0.08954200  0.68106500  0.94304700  1
  Li  Li2  1  0.21873400  0.08487000  0.94020700  1
  Li  Li3  1  0.09358000  0.22774400  0.44281500  1
  Li  Li4  1  0.78187400  0.92734400  0.05515200  1
  Li  Li5  1  0.03885200  0.93588800  0.49929600  1
  V  V0  1  0.99695000  0.56615400  0.74386000  1
  V  V1  1  0.99727600  0.43684100  0.25300400  1
  V  V2  1  0.56135400  0.00564200  0.25132000  1
  V  V3  1  0.43598800  0.99556800  0.74835400  1
  V  V4  1  0.56549100  0.43671300  0.75178400  1
  V  V5  1  0.43417900  0.56151800  0.25162700  1
  P  P0  1  0.68911300  0.22937100  0.15453800  1
  P  P1  1  0.68823000  0.09016300  0.66295500  1
  P  P2  1  0.22676100  0.69490000  0.65967400  1
  P  P3  1  0.32747700  0.33426700  0.86623800  1
  P  P4  1  0.33363800  0.33088400  0.36876800  1
  P  P5  1  0.09006500  0.68277700  0.16113800  1
  P  P6  1  0.91287700  0.78086300  0.34060700  1
  P  P7  1  0.22792000  0.09337500  0.15737900  1
  P  P8  1  0.77252000  0.90704600  0.84038400  1
  P  P9  1  0.08781900  0.22399100  0.65678700  1
  P  P10  1  0.91023500  0.31346100  0.83554800  1
  P  P11  1  0.66651300  0.66708200  0.63305900  1
  P  P12  1  0.66648400  0.67076400  0.13636900  1
  P  P13  1  0.77496800  0.30419500  0.33793800  1
  P  P14  1  0.30531400  0.91235000  0.33425800  1
  P  P15  1  0.31039600  0.77344800  0.84131300  1
  O  O0  1  0.78474300  0.20274900  0.41803900  1
  O  O1  1  0.65547900  0.26152200  0.67158700  1
  O  O2  1  0.76561000  0.98392100  0.92983400  1
  O  O3  1  0.66286000  0.08265300  0.16554000  1
  O  O4  1  0.52746200  0.38133800  0.17814300  1
  O  O5  1  0.46881000  0.34509400  0.81875400  1
  O  O6  1  0.38736000  0.54130400  0.66981600  1
  O  O7  1  0.22156200  0.76905100  0.92449900  1
  O  O8  1  0.25788900  0.65868600  0.16850900  1
  O  O9  1  0.48847500  0.18605600  0.32393000  1
  O  O10  1  0.52984100  0.08843300  0.67654600  1
  O  O11  1  0.32758900  0.48083300  0.32361400  1
  O  O12  1  0.32572600  0.33839000  0.96928900  1
  O  O13  1  0.34983300  0.31528200  0.47133700  1
  O  O14  1  0.17596900  0.47978600  0.82505600  1
  O  O15  1  0.37907900  0.10288400  0.18107400  1
  O  O16  1  0.33744100  0.17920700  0.82731100  1
  O  O17  1  0.09213300  0.65259500  0.67208600  1
  O  O18  1  0.98842600  0.80060000  0.24347900  1
  O  O19  1  0.99124700  0.80490400  0.42071600  1
  O  O20  1  0.00762100  0.75215800  0.07147900  1
  O  O21  1  0.09889100  0.52132600  0.18300300  1
  O  O22  1  0.18521200  0.32465900  0.33314200  1
  O  O23  1  0.92036900  0.73869800  0.83519400  1
  O  O24  1  0.08790300  0.38243900  0.67040800  1
  O  O25  1  0.25828200  0.08466800  0.67364200  1
  O  O26  1  0.79426200  0.99892100  0.75195100  1
  O  O27  1  0.77021100  0.01692900  0.57385100  1
  O  O28  1  0.20016700  0.00358900  0.41317200  1
  O  O29  1  0.73638000  0.91680700  0.33584600  1
  O  O30  1  0.92179500  0.61762400  0.33201900  1
  O  O31  1  0.08245800  0.26013000  0.17539600  1
  O  O32  1  0.81334000  0.67244300  0.67604800  1
  O  O33  1  0.90447600  0.47376500  0.81770600  1
  O  O34  1  0.00447800  0.22471700  0.91678700  1
  O  O35  1  0.02693100  0.21026200  0.56544200  1
  O  O36  1  0.98598300  0.21138100  0.74069200  1
  O  O37  1  0.91293600  0.34230600  0.33959600  1
  O  O38  1  0.66231000  0.82237900  0.17818500  1
  O  O39  1  0.62040900  0.89991500  0.81975300  1
  O  O40  1  0.81743500  0.52808600  0.18484600  1
  O  O41  1  0.67748100  0.67112900  0.03400200  1
  O  O42  1  0.66695100  0.67208400  0.53044500  1
  O  O43  1  0.67067100  0.51956600  0.67899300  1
  O  O44  1  0.46183900  0.91865500  0.32575600  1
  O  O45  1  0.51617300  0.81490100  0.67796100  1
  O  O46  1  0.73810800  0.34475100  0.83378000  1
  O  O47  1  0.80000200  0.21003600  0.24245400  1
  O  O48  1  0.76491900  0.22900300  0.06591800  1
  O  O49  1  0.61554800  0.46188600  0.32765900  1
  O  O50  1  0.52504200  0.66099900  0.18061000  1
  O  O51  1  0.47141000  0.62093700  0.82419900  1
  O  O52  1  0.33899500  0.91722500  0.84051800  1
  O  O53  1  0.23586400  0.02701700  0.06480100  1
  O  O54  1  0.21481100  0.98423700  0.23697600  1
  O  O55  1  0.34467300  0.73820500  0.33246000  1
  O  O56  1  0.20265600  0.79158300  0.57544900  1
  O  O57  1  0.20646600  0.80027400  0.74979000  1
loop_
_geom_bond_atom_site_label_1
_geom_bond_atom_site_label_2
_geom_bond_distance
_geom_bond_site_symmetry_2
Li0 O0 1.894829 1_555
Li0 O27 1.943833 1_555
Li0 O29 2.252497 1_545
Li0 O9 2.460216 1_555
Li1 O7 1.885406 1_555
Li1 O20 1.994749 1_556
Li1 O23 2.140527 1_455
Li1 O14 2.416524 1_555
Li2 O53 1.860658 1_556
Li2 O34 1.874065 1_555
Li2 O52 2.051031 1_545
Li2 O16 2.411083 1_555
Li3 O35 1.909616 1_555
Li3 O28 1.946237 1_555
Li3 O37 2.154142 1_455
Li3 O22 2.227629 1_555
Li4 O2 1.868066 1_554
Li4 O20 2.020270 1_655
Li4 O3 2.102794 1_565
Li4 O38 2.578235 1_555
Li5 O56 1.874248 1_555
Li5 O19 1.940986 1_455
Li5 O28 2.327703 1_565
Li5 O27 2.554303 1_465
O0 P13 1.485032 1_555
O1 P1 1.543863 1_555
O1 V4 1.883210 1_555
O2 P8 1.481934 1_555
O3 P0 1.580838 1_555
O3 V2 1.939363 1_555
O4 P0 1.570675 1_555
O4 V5 1.859727 1_555
O5 P3 1.580629 1_555
O5 V4 1.848444 1_555
O6 P2 1.543896 1_555
O6 V4 1.928594 1_555
O7 P15 1.482312 1_555
O8 P5 1.538843 1_555
O8 V5 1.923100 1_555
O9 P4 1.600496 1_555
O9 V2 1.862816 1_555
O10 P1 1.563373 1_555
O10 V3 1.873669 1_545
O11 P4 1.568961 1_555
O11 V5 1.883037 1_555
O12 P3 1.485463 1_555
O13 P4 1.486593 1_555
O14 P3 1.570752 1_555
O14 V0 1.922848 1_455
O15 P7 1.565490 1_555
O15 V2 1.853182 1_555
O16 P3 1.575644 1_555
O16 V3 1.930187 1_545
O17 P2 1.568351 1_555
O17 V0 1.838116 1_455
O18 P5 1.604167 1_655
O18 P6 1.626804 1_555
O19 P6 1.476676 1_555
O20 P5 1.497085 1_555
O21 P5 1.562922 1_555
O21 V1 1.857099 1_455
O22 P4 1.572480 1_555
O22 V1 1.980926 1_455
O23 P8 1.556455 1_555
O23 V0 1.972544 1_555
O24 P9 1.560734 1_555
O24 V0 1.884129 1_455
O25 P9 1.556792 1_555
O25 V3 1.857270 1_545
O26 P1 1.612793 1_565
O26 P8 1.621665 1_555
O27 P1 1.490178 1_555
O28 P14 1.489083 1_545
O29 P6 1.566586 1_555
O29 V2 1.926074 1_565
O30 P6 1.557252 1_555
O30 V1 1.917015 1_555
O31 P7 1.557651 1_555
O31 V1 1.871187 1_455
O32 P11 1.593098 1_555
O32 V0 1.847678 1_555
O33 P10 1.555453 1_555
O33 V0 1.876776 1_555
O34 P10 1.476372 1_455
O35 P9 1.485785 1_555
O36 P9 1.596777 1_655
O36 P10 1.635256 1_555
O37 P13 1.565389 1_555
O37 V1 1.946309 1_555
O38 P12 1.584609 1_555
O38 V2 1.879966 1_565
O39 P8 1.552703 1_555
O39 V3 1.877051 1_555
O40 P12 1.599632 1_555
O40 V1 1.818596 1_555
O41 P12 1.477529 1_555
O42 P11 1.478860 1_555
O43 P11 1.559869 1_555
O43 V4 1.893557 1_555
O44 P14 1.561763 1_555
O44 V2 1.893785 1_565
O45 P11 1.592407 1_555
O45 V3 1.841180 1_555
O46 P10 1.550485 1_555
O46 V4 1.887574 1_555
O47 P13 1.609543 1_555
O47 P0 1.624700 1_555
O48 P0 1.466005 1_555
O49 P13 1.557151 1_555
O49 V5 1.895316 1_555
O50 P12 1.557348 1_555
O50 V5 1.893761 1_555
O51 P15 1.552533 1_555
O51 V4 1.879211 1_555
O52 P15 1.560504 1_555
O52 V3 1.976857 1_555
O53 P7 1.473146 1_555
O54 P7 1.603471 1_565
O54 P14 1.622357 1_555
O55 P14 1.544408 1_555
O55 V5 1.898828 1_555
O56 P2 1.476530 1_555
O57 P15 1.612573 1_555
O57 P2 1.612680 1_555
