# generated using pymatgen
data_Rb3PdF5
_symmetry_space_group_name_H-M   'P 1'
_cell_length_a   6.39198845
_cell_length_b   7.42276177
_cell_length_c   7.42276177
_cell_angle_alpha   90.00000000
_cell_angle_beta   90.00000000
_cell_angle_gamma   90.00000000
_symmetry_Int_Tables_number   1
_chemical_formula_structural   Rb3PdF5
_chemical_formula_sum   'Rb6 Pd2 F10'
_cell_volume   352.18189517
_cell_formula_units_Z   2
loop_
 _symmetry_equiv_pos_site_id
 _symmetry_equiv_pos_as_xyz
  1  'x, y, z'
loop_
 _atom_site_type_symbol
 _atom_site_label
 _atom_site_symmetry_multiplicity
 _atom_site_fract_x
 _atom_site_fract_y
 _atom_site_fract_z
 _atom_site_occupancy
  Rb  Rb0  1  -0.00000000  0.00000000  -0.00000000  1
  Rb  Rb1  1  -0.00000000  0.50000000  0.50000000  1
  Rb  Rb2  1  0.50000000  0.82729214  0.32729214  1
  Rb  Rb3  1  0.50000000  0.67270786  0.82729214  1
  Rb  Rb4  1  0.50000000  0.32729214  0.17270786  1
  Rb  Rb5  1  0.50000000  0.17270786  0.67270786  1
  Pd  Pd0  1  -0.00000000  0.00000000  0.50000000  1
  Pd  Pd1  1  -0.00000000  0.50000000  -0.00000000  1
  F  F0  1  0.78670980  0.63453735  0.13453735  1
  F  F1  1  0.78670980  0.36546265  0.86546265  1
  F  F2  1  0.78670980  0.13453735  0.36546265  1
  F  F3  1  0.78670980  0.86546265  0.63453735  1
  F  F4  1  0.21329020  0.63453735  0.13453735  1
  F  F5  1  0.21329020  0.86546265  0.63453735  1
  F  F6  1  0.21329020  0.13453735  0.36546265  1
  F  F7  1  0.21329020  0.36546265  0.86546265  1
  F  F8  1  0.50000000  0.00000000  -0.00000000  1
  F  F9  1  0.50000000  0.50000000  0.50000000  1
loop_
_geom_bond_atom_site_label_1
_geom_bond_atom_site_label_2
_geom_bond_distance
_geom_bond_site_symmetry_2
F0 Pd1 1.962977 1_655
F0 Rb2 2.729984 1_555
F0 Rb3 2.939394 1_554
F0 Rb4 2.939394 1_555
F0 Rb0 3.196086 1_665
F0 Rb1 3.196086 1_655
F1 Pd1 1.962977 1_656
F1 Rb5 2.729984 1_555
F1 Rb3 2.939394 1_555
F1 Rb4 2.939394 1_556
F1 Rb0 3.196086 1_656
F1 Rb1 3.196086 1_655
F2 Pd0 1.962977 1_655
F2 Rb4 2.729984 1_555
F2 Rb2 2.939394 1_545
F2 Rb5 2.939394 1_555
F2 Rb1 3.196086 1_655
F2 Rb0 3.196086 1_655
F3 Pd0 1.962977 1_665
F3 Rb3 2.729984 1_555
F3 Rb2 2.939394 1_555
F3 Rb5 2.939394 1_565
F3 Rb0 3.196086 1_666
F3 Rb1 3.196086 1_655
F4 Pd1 1.962977 1_555
F4 Rb2 2.729984 1_555
F4 Rb3 2.939394 1_554
F4 Rb4 2.939394 1_555
F4 Rb1 3.196086 1_555
F4 Rb0 3.196086 1_565
F5 Pd0 1.962977 1_565
F5 Rb3 2.729984 1_555
F5 Rb2 2.939394 1_555
F5 Rb5 2.939394 1_565
F5 Rb0 3.196086 1_566
F5 Rb1 3.196086 1_555
F6 Pd0 1.962977 1_555
F6 Rb4 2.729984 1_555
F6 Rb2 2.939394 1_545
F6 Rb5 2.939394 1_555
F6 Rb0 3.196086 1_555
F6 Rb1 3.196086 1_555
F7 Pd1 1.962977 1_556
F7 Rb5 2.729984 1_555
F7 Rb3 2.939394 1_555
F7 Rb4 2.939394 1_556
F7 Rb1 3.196086 1_555
F7 Rb0 3.196086 1_556
F8 Rb3 2.746905 1_544
F8 Rb5 2.746905 1_554
F8 Rb2 2.746905 1_545
F8 Rb4 2.746905 1_555
F8 Rb0 3.195994 1_655
F8 Rb0 3.195994 1_555
F9 Rb5 2.746905 1_555
F9 Rb4 2.746905 1_555
F9 Rb3 2.746905 1_555
F9 Rb2 2.746905 1_555
F9 Rb1 3.195994 1_555
F9 Rb1 3.195994 1_655
