# generated using pymatgen
data_LuSbRh2
_symmetry_space_group_name_H-M   'P 1'
_cell_length_a   4.61845483
_cell_length_b   4.61845583
_cell_length_c   4.61845617
_cell_angle_alpha   59.99994226
_cell_angle_beta   59.99995184
_cell_angle_gamma   59.99996045
_symmetry_Int_Tables_number   1
_chemical_formula_structural   LuSbRh2
_chemical_formula_sum   'Lu1 Sb1 Rh2'
_cell_volume   69.65861671
_cell_formula_units_Z   1
loop_
 _symmetry_equiv_pos_site_id
 _symmetry_equiv_pos_as_xyz
  1  'x, y, z'
loop_
 _atom_site_type_symbol
 _atom_site_label
 _atom_site_symmetry_multiplicity
 _atom_site_fract_x
 _atom_site_fract_y
 _atom_site_fract_z
 _atom_site_occupancy
  Lu  Lu0  1  0.25000069  0.25000086  0.25000074  1
  Sb  Sb0  1  0.75000003  0.75000010  0.75000005  1
  Rh  Rh0  1  0.00000007  -0.00000000  0.00000005  1
  Rh  Rh1  1  0.49999921  0.49999905  0.49999916  1
loop_
_geom_bond_atom_site_label_1
_geom_bond_atom_site_label_2
_geom_bond_distance
_geom_bond_site_symmetry_2
Lu0 Rh1 2.828198 1_555
Lu0 Rh0 2.828210 1_565
Lu0 Rh0 2.828211 1_655
Lu0 Rh0 2.828211 1_556
Lu0 Rh1 2.828219 1_455
Lu0 Rh1 2.828219 1_554
Lu0 Rh1 2.828220 1_545
Lu0 Rh0 2.828224 1_555
Lu0 Sb0 3.265735 1_554
Lu0 Sb0 3.265736 1_545
Lu0 Sb0 3.265736 1_455
Lu0 Sb0 3.265744 1_445
Lu0 Sb0 3.265744 1_454
Lu0 Sb0 3.265746 1_544
Rh0 Sb0 2.828213 1_544
Rh0 Sb0 2.828213 1_445
Rh0 Sb0 2.828214 1_454
Rh0 Sb0 2.828216 1_444
Rh1 Sb0 2.828209 1_545
Rh1 Sb0 2.828210 1_455
Rh1 Sb0 2.828210 1_554
Rh1 Sb0 2.828226 1_555
