# generated using pymatgen
data_LiMnPO4
_symmetry_space_group_name_H-M   'P 1'
_cell_length_a   5.12685501
_cell_length_b   8.23331400
_cell_length_c   9.13788401
_cell_angle_alpha   90.00195442
_cell_angle_beta   90.00554784
_cell_angle_gamma   90.00198550
_symmetry_Int_Tables_number   1
_chemical_formula_structural   LiMnPO4
_chemical_formula_sum   'Li4 Mn4 P4 O16'
_cell_volume   385.71928479
_cell_formula_units_Z   4
loop_
 _symmetry_equiv_pos_site_id
 _symmetry_equiv_pos_as_xyz
  1  'x, y, z'
loop_
 _atom_site_type_symbol
 _atom_site_label
 _atom_site_symmetry_multiplicity
 _atom_site_fract_x
 _atom_site_fract_y
 _atom_site_fract_z
 _atom_site_occupancy
  Li  Li0  1  0.91187500  0.05740900  0.60332400  1
  Li  Li1  1  0.41188800  0.44255800  0.10329200  1
  Li  Li2  1  0.91193100  0.55736900  0.89670400  1
  Li  Li3  1  0.41187400  0.94262200  0.39674300  1
  Mn  Mn0  1  0.51599500  0.33583200  0.52538200  1
  Mn  Mn1  1  0.51592800  0.83586300  0.97453700  1
  Mn  Mn2  1  0.01594900  0.16408400  0.02540100  1
  Mn  Mn3  1  0.01598700  0.66411500  0.47459600  1
  P  P0  1  0.56617100  0.23246900  0.86297900  1
  P  P1  1  0.06612300  0.26754100  0.36294200  1
  P  P2  1  0.56616500  0.73247900  0.63701400  1
  P  P3  1  0.06622100  0.76753200  0.13705700  1
  O  O0  1  0.65528800  0.07316700  0.94351900  1
  O  O1  1  0.15528600  0.42684400  0.44351200  1
  O  O2  1  0.65530200  0.57319100  0.55644100  1
  O  O3  1  0.15536500  0.92681400  0.05647800  1
  O  O4  1  0.19877300  0.12922700  0.45392500  1
  O  O5  1  0.69883100  0.37076400  0.95398400  1
  O  O6  1  0.19887300  0.62920100  0.04610400  1
  O  O7  1  0.69882900  0.87078600  0.54606400  1
  O  O8  1  0.26760600  0.25270100  0.86336400  1
  O  O9  1  0.76757600  0.24735900  0.36325100  1
  O  O10  1  0.26761800  0.75269000  0.63664700  1
  O  O11  1  0.76765700  0.74734400  0.13672200  1
  O  O12  1  0.67613200  0.22262300  0.70487800  1
  O  O13  1  0.17621900  0.27741400  0.20487300  1
  O  O14  1  0.67620800  0.72257200  0.79512200  1
  O  O15  1  0.17633000  0.77742900  0.29514600  1
loop_
_geom_bond_atom_site_label_1
_geom_bond_atom_site_label_2
_geom_bond_distance
_geom_bond_site_symmetry_2
Li0 O7 1.956381 1_545
Li0 O12 2.042664 1_555
Li0 O4 2.092192 1_655
Li1 O6 1.956334 1_555
Li1 O13 2.042154 1_555
Li1 O5 2.091758 1_554
Li2 O5 1.956553 1_555
Li2 O14 2.042595 1_555
Li2 O6 2.092177 1_656
Li3 O4 1.956348 1_565
Li3 O15 2.041961 1_555
Li3 O7 2.091817 1_555
Mn0 O12 2.057430 1_555
Mn0 O9 2.095124 1_555
Mn0 O2 2.099896 1_555
Mn0 O1 2.130954 1_555
Mn0 O4 2.442224 1_555
Mn1 O14 2.057515 1_555
Mn1 O11 2.095930 1_556
Mn1 O0 2.099554 1_565
Mn1 O3 2.130463 1_556
Mn1 O6 2.442365 1_556
Mn2 O13 2.057903 1_555
Mn2 O8 2.095173 1_554
Mn2 O3 2.099491 1_545
Mn2 O0 2.130441 1_454
Mn2 O5 2.442311 1_454
Mn3 O15 2.058010 1_555
Mn3 O10 2.094849 1_555
Mn3 O1 2.099304 1_555
Mn3 O2 2.130593 1_455
Mn3 O7 2.442574 1_455
O0 P0 1.571842 1_555
O1 P1 1.571977 1_555
O2 P2 1.571916 1_555
O3 P3 1.571927 1_555
O4 P1 1.565424 1_555
O5 P0 1.565364 1_555
O6 P3 1.565413 1_555
O7 P2 1.565289 1_555
O8 P0 1.539747 1_555
O9 P1 1.539597 1_655
O10 P2 1.539635 1_555
O11 P3 1.539689 1_655
O12 P0 1.552973 1_555
O13 P1 1.552967 1_555
O14 P2 1.553115 1_555
O15 P3 1.553065 1_555
