# generated using pymatgen
data_LiVP2HO8
_symmetry_space_group_name_H-M   'P 1'
_cell_length_a   9.71584400
_cell_length_b   7.98374701
_cell_length_c   7.47448577
_cell_angle_alpha   90.04382831
_cell_angle_beta   105.46432218
_cell_angle_gamma   90.04069106
_symmetry_Int_Tables_number   1
_chemical_formula_structural   LiVP2HO8
_chemical_formula_sum   'Li4 V4 P8 H4 O32'
_cell_volume   558.79655548
_cell_formula_units_Z   4
loop_
 _symmetry_equiv_pos_site_id
 _symmetry_equiv_pos_as_xyz
  1  'x, y, z'
loop_
 _atom_site_type_symbol
 _atom_site_label
 _atom_site_symmetry_multiplicity
 _atom_site_fract_x
 _atom_site_fract_y
 _atom_site_fract_z
 _atom_site_occupancy
  Li  Li0  1  0.85634900  0.20253200  0.86904300  1
  Li  Li1  1  0.35443900  0.45395200  0.63091600  1
  Li  Li2  1  0.14277900  0.79129700  0.13023300  1
  Li  Li3  1  0.35218300  0.95323600  0.63140500  1
  V  V0  1  0.99972400  0.24632400  0.49047000  1
  V  V1  1  0.49999600  0.49853300  0.00595300  1
  V  V2  1  0.98983600  0.74624000  0.50319800  1
  V  V3  1  0.50062500  0.99914000  0.00588200  1
  P  P0  1  0.26657400  0.06541400  0.35012100  1
  P  P1  1  0.23283100  0.18586000  0.84843400  1
  P  P2  1  0.76379400  0.31703500  0.15521600  1
  P  P3  1  0.73586600  0.43376600  0.65733600  1
  P  P4  1  0.26749300  0.56754000  0.34743400  1
  P  P5  1  0.23075900  0.68267100  0.84800400  1
  P  P6  1  0.76191400  0.81292000  0.15430100  1
  P  P7  1  0.73567200  0.93597600  0.65221500  1
  H  H0  1  0.50825800  0.25973700  0.50378700  1
  H  H1  1  0.99167600  0.48753800  0.00679800  1
  H  H2  1  0.49929100  0.75001900  0.50229400  1
  H  H3  1  0.99002200  0.98621800  0.00579200  1
  O  O0  1  0.85420200  0.06990800  0.55524100  1
  O  O1  1  0.31257100  0.01147300  0.17658300  1
  O  O2  1  0.35577000  0.07963200  0.82916500  1
  O  O3  1  0.44020300  0.12935900  0.45351600  1
  O  O4  1  0.65395100  0.18137800  0.05299500  1
  O  O5  1  0.81808100  0.27229900  0.32665200  1
  O  O6  1  0.05137900  0.11779500  0.93798100  1
  O  O7  1  0.13712900  0.16457600  0.32776300  1
  O  O8  1  0.85579600  0.32734600  0.67292100  1
  O  O9  1  0.93783500  0.37563600  0.04478200  1
  O  O10  1  0.19082800  0.24425600  0.67609200  1
  O  O11  1  0.35156100  0.31794100  0.94814700  1
  O  O12  1  0.55529300  0.37117900  0.55687500  1
  O  O13  1  0.63760300  0.41744900  0.17252100  1
  O  O14  1  0.68229400  0.48264900  0.82750000  1
  O  O15  1  0.85400700  0.56615000  0.55823100  1
  O  O16  1  0.15649200  0.43252500  0.44852600  1
  O  O17  1  0.31883300  0.52242600  0.17439200  1
  O  O18  1  0.35517300  0.57899000  0.82584400  1
  O  O19  1  0.43908900  0.63094000  0.45674800  1
  O  O20  1  0.65109400  0.67980900  0.05486000  1
  O  O21  1  0.81570700  0.76792600  0.32708400  1
  O  O22  1  0.06021800  0.62296900  0.95568100  1
  O  O23  1  0.13985000  0.66931200  0.32768300  1
  O  O24  1  0.85861000  0.83240300  0.66925700  1
  O  O25  1  0.94687700  0.87909600  0.05987800  1
  O  O26  1  0.18690200  0.74076400  0.67778000  1
  O  O27  1  0.35014700  0.81749300  0.94923000  1
  O  O28  1  0.55309700  0.87136200  0.55954100  1
  O  O29  1  0.63983800  0.91728400  0.16795200  1
  O  O30  1  0.68840200  0.99242800  0.82362200  1
  O  O31  1  0.15494500  0.92939300  0.45010300  1
loop_
_geom_bond_atom_site_label_1
_geom_bond_atom_site_label_2
_geom_bond_distance
_geom_bond_site_symmetry_2
Li0 O8 1.771989 1_555
Li0 O9 1.924395 1_556
Li0 O6 1.948187 1_655
Li0 O30 2.300305 1_545
Li1 O18 1.763982 1_555
Li1 O16 2.046350 1_555
Li1 O19 2.222593 1_555
Li1 O12 2.264597 1_555
Li1 O10 2.393125 1_555
Li2 O23 1.775370 1_555
Li2 O22 1.894563 1_554
Li2 O25 1.964520 1_455
Li2 O1 2.370987 1_565
Li3 O2 1.781758 1_565
Li3 O31 2.039410 1_555
Li3 O3 2.254766 1_565
Li3 O28 2.255378 1_555
Li3 O26 2.422864 1_555
H0 O12 1.029602 1_555
H0 O3 1.236043 1_555
H1 O9 1.109655 1_555
H1 O22 1.376173 1_654
H2 O19 1.119986 1_555
H2 O28 1.128830 1_555
H3 O25 1.077482 1_555
H3 O6 1.369976 1_664
O0 P7 1.854600 1_545
O0 V0 2.140189 1_555
O1 P0 1.541497 1_555
O1 V3 2.493826 1_545
O2 P1 1.503240 1_555
O2 V3 1.774723 1_546
O3 P0 1.733963 1_555
O4 P2 1.567794 1_555
O4 V3 2.043632 1_545
O5 P2 1.299339 1_555
O5 V0 1.872271 1_555
O6 P1 2.116545 1_555
O7 P0 1.458065 1_555
O7 V0 2.133789 1_455
O8 P3 1.422095 1_555
O8 V0 2.291408 1_555
O9 P2 2.122114 1_555
O10 P1 1.328204 1_555
O10 V0 1.999753 1_455
O11 P1 1.592714 1_555
O11 V1 2.002281 1_556
O12 P3 1.785262 1_555
O13 P2 1.499477 1_555
O13 V1 1.694522 1_555
O14 P3 1.547092 1_555
O14 V1 2.488415 1_556
O15 P3 1.853711 1_555
O15 V2 2.065367 1_555
O16 P4 1.824864 1_555
O16 V0 2.209139 1_455
O17 P4 1.547584 1_555
O17 V1 2.429290 1_555
O18 P5 1.510554 1_555
O18 V1 1.788085 1_556
O19 P4 1.724846 1_555
O20 P6 1.552910 1_555
O20 V1 2.023201 1_555
O21 P6 1.308092 1_555
O21 V2 1.854224 1_555
O22 P5 2.081117 1_555
O23 P4 1.457382 1_555
O23 V2 2.289608 1_455
O24 P7 1.430776 1_555
O24 V2 2.117358 1_555
O25 P6 2.163859 1_555
O26 P5 1.314376 1_555
O26 V2 2.009594 1_455
O27 P5 1.614162 1_555
O27 V3 2.021352 1_556
O28 P7 1.798734 1_555
O29 P6 1.475546 1_555
O29 V3 1.688993 1_555
O30 P7 1.539048 1_555
O30 V3 2.551988 1_556
O31 P0 1.829172 1_565
O31 V2 2.281686 1_455
