# generated using pymatgen
data_Mg(B2O5)3
_symmetry_space_group_name_H-M   'P 1'
_cell_length_a   12.14403117
_cell_length_b   21.88509241
_cell_length_c   7.89839909
_cell_angle_alpha   90.00000000
_cell_angle_beta   90.00000000
_cell_angle_gamma   90.00000000
_symmetry_Int_Tables_number   1
_chemical_formula_structural   Mg(B2O5)3
_chemical_formula_sum   'Mg8 B48 O120'
_cell_volume   2099.18315160
_cell_formula_units_Z   8
loop_
 _symmetry_equiv_pos_site_id
 _symmetry_equiv_pos_as_xyz
  1  'x, y, z'
loop_
 _atom_site_type_symbol
 _atom_site_label
 _atom_site_symmetry_multiplicity
 _atom_site_fract_x
 _atom_site_fract_y
 _atom_site_fract_z
 _atom_site_occupancy
  Mg  Mg0  1  0.91473662  0.12244014  0.43050082  1
  Mg  Mg1  1  0.41473662  0.37755986  0.56949918  1
  Mg  Mg2  1  0.08526338  0.62244014  0.06949918  1
  Mg  Mg3  1  0.58526338  0.87755986  0.93050082  1
  Mg  Mg4  1  0.08526338  0.87755986  0.56949918  1
  Mg  Mg5  1  0.58526338  0.62244014  0.43050082  1
  Mg  Mg6  1  0.91473662  0.37755986  0.93050082  1
  Mg  Mg7  1  0.41473662  0.12244014  0.06949918  1
  B  B0  1  0.16236606  0.36420231  0.11791304  1
  B  B1  1  0.66236606  0.13579769  0.88208696  1
  B  B2  1  0.83763394  0.86420231  0.38208696  1
  B  B3  1  0.33763394  0.63579769  0.61791304  1
  B  B4  1  0.83763394  0.63579769  0.88208696  1
  B  B5  1  0.33763394  0.86420231  0.11791304  1
  B  B6  1  0.16236606  0.13579769  0.61791304  1
  B  B7  1  0.66236606  0.36420231  0.38208696  1
  B  B8  1  0.01247908  0.32251497  0.30554655  1
  B  B9  1  0.51247908  0.17748503  0.69445345  1
  B  B10  1  0.98752092  0.82251497  0.19445345  1
  B  B11  1  0.48752092  0.67748503  0.80554655  1
  B  B12  1  0.98752092  0.67748503  0.69445345  1
  B  B13  1  0.48752092  0.82251497  0.30554655  1
  B  B14  1  0.01247908  0.17748503  0.80554655  1
  B  B15  1  0.51247908  0.32251497  0.19445345  1
  B  B16  1  0.03422817  0.43543902  0.27447113  1
  B  B17  1  0.53422817  0.06456098  0.72552887  1
  B  B18  1  0.96577183  0.93543902  0.22552887  1
  B  B19  1  0.46577183  0.56456098  0.77447113  1
  B  B20  1  0.96577183  0.56456098  0.72552887  1
  B  B21  1  0.46577183  0.93543902  0.27447113  1
  B  B22  1  0.03422817  0.06456098  0.77447113  1
  B  B23  1  0.53422817  0.43543902  0.22552887  1
  B  B24  1  0.17178205  0.26326443  0.23627472  1
  B  B25  1  0.67178205  0.23673557  0.76372528  1
  B  B26  1  0.82821795  0.76326443  0.26372528  1
  B  B27  1  0.32821795  0.73673557  0.73627472  1
  B  B28  1  0.82821795  0.73673557  0.76372528  1
  B  B29  1  0.32821795  0.76326443  0.23627472  1
  B  B30  1  0.17178205  0.23673557  0.73627472  1
  B  B31  1  0.67178205  0.26326443  0.26372528  1
  B  B32  1  0.94420444  0.39162800  0.52333155  1
  B  B33  1  0.44420444  0.10837200  0.47666845  1
  B  B34  1  0.05579556  0.89162800  0.97666845  1
  B  B35  1  0.55579556  0.60837200  0.02333155  1
  B  B36  1  0.05579556  0.60837200  0.47666845  1
  B  B37  1  0.55579556  0.89162800  0.52333155  1
  B  B38  1  0.94420444  0.10837200  0.02333155  1
  B  B39  1  0.44420444  0.39162800  0.97666845  1
  B  B40  1  0.21108675  0.47095638  0.15554480  1
  B  B41  1  0.71108675  0.02904362  0.84445520  1
  B  B42  1  0.78891325  0.97095638  0.34445520  1
  B  B43  1  0.28891325  0.52904362  0.65554480  1
  B  B44  1  0.78891325  0.52904362  0.84445520  1
  B  B45  1  0.28891325  0.97095638  0.15554480  1
  B  B46  1  0.21108675  0.02904362  0.65554480  1
  B  B47  1  0.71108675  0.47095638  0.34445520  1
  O  O0  1  0.21872024  0.30540356  0.13666087  1
  O  O1  1  0.71872024  0.19459644  0.86333913  1
  O  O2  1  0.78127976  0.80540356  0.36333913  1
  O  O3  1  0.28127976  0.69459644  0.63666087  1
  O  O4  1  0.78127976  0.69459644  0.86333913  1
  O  O5  1  0.28127976  0.80540356  0.13666087  1
  O  O6  1  0.21872024  0.19459644  0.63666087  1
  O  O7  1  0.71872024  0.30540356  0.36333913  1
  O  O8  1  0.07848419  0.36245087  0.98233293  1
  O  O9  1  0.57848419  0.13754913  0.01766707  1
  O  O10  1  0.92151581  0.86245087  0.51766707  1
  O  O11  1  0.42151581  0.63754913  0.48233293  1
  O  O12  1  0.92151581  0.63754913  0.01766707  1
  O  O13  1  0.42151581  0.86245087  0.98233293  1
  O  O14  1  0.07848419  0.13754913  0.48233293  1
  O  O15  1  0.57848419  0.36245087  0.51766707  1
  O  O16  1  0.09650765  0.37451044  0.27936350  1
  O  O17  1  0.59650765  0.12548956  0.72063650  1
  O  O18  1  0.90349235  0.87451044  0.22063650  1
  O  O19  1  0.40349235  0.62548956  0.77936350  1
  O  O20  1  0.90349235  0.62548956  0.72063650  1
  O  O21  1  0.40349235  0.87451044  0.27936350  1
  O  O22  1  0.09650765  0.12548956  0.77936350  1
  O  O23  1  0.59650765  0.37451044  0.22063650  1
  O  O24  1  0.23808167  0.41438637  0.09283919  1
  O  O25  1  0.73808167  0.08561363  0.90716081  1
  O  O26  1  0.76191833  0.91438637  0.40716081  1
  O  O27  1  0.26191833  0.58561363  0.59283919  1
  O  O28  1  0.76191833  0.58561363  0.90716081  1
  O  O29  1  0.26191833  0.91438637  0.09283919  1
  O  O30  1  0.23808167  0.08561363  0.59283919  1
  O  O31  1  0.73808167  0.41438637  0.40716081  1
  O  O32  1  0.07319703  0.26448181  0.31274219  1
  O  O33  1  0.57319703  0.23551819  0.68725781  1
  O  O34  1  0.92680297  0.76448181  0.18725781  1
  O  O35  1  0.42680297  0.73551819  0.81274219  1
  O  O36  1  0.92680297  0.73551819  0.68725781  1
  O  O37  1  0.42680297  0.76448181  0.31274219  1
  O  O38  1  0.07319703  0.23551819  0.81274219  1
  O  O39  1  0.57319703  0.26448181  0.18725781  1
  O  O40  1  0.94097001  0.32509523  0.15212494  1
  O  O41  1  0.44097001  0.17490477  0.84787506  1
  O  O42  1  0.05902999  0.82509523  0.34787506  1
  O  O43  1  0.55902999  0.67490477  0.65212494  1
  O  O44  1  0.05902999  0.67490477  0.84787506  1
  O  O45  1  0.55902999  0.82509523  0.15212494  1
  O  O46  1  0.94097001  0.17490477  0.65212494  1
  O  O47  1  0.44097001  0.32509523  0.34787506  1
  O  O48  1  0.95223950  0.33341526  0.45676622  1
  O  O49  1  0.45223950  0.16658474  0.54323378  1
  O  O50  1  0.04776050  0.83341526  0.04323378  1
  O  O51  1  0.54776050  0.66658474  0.95676622  1
  O  O52  1  0.04776050  0.66658474  0.54323378  1
  O  O53  1  0.54776050  0.83341526  0.45676622  1
  O  O54  1  0.95223950  0.16658474  0.95676622  1
  O  O55  1  0.45223950  0.33341526  0.04323378  1
  O  O56  1  0.97569915  0.44242566  0.43128217  1
  O  O57  1  0.47569915  0.05757434  0.56871783  1
  O  O58  1  0.02430085  0.94242566  0.06871783  1
  O  O59  1  0.52430085  0.55757434  0.93128217  1
  O  O60  1  0.02430085  0.55757434  0.56871783  1
  O  O61  1  0.52430085  0.94242566  0.43128217  1
  O  O62  1  0.97569915  0.05757434  0.93128217  1
  O  O63  1  0.47569915  0.44242566  0.06871783  1
  O  O64  1  0.95679598  0.42951599  0.13076015  1
  O  O65  1  0.45679598  0.07048401  0.86923985  1
  O  O66  1  0.04320402  0.92951599  0.36923985  1
  O  O67  1  0.54320402  0.57048401  0.63076015  1
  O  O68  1  0.04320402  0.57048401  0.86923985  1
  O  O69  1  0.54320402  0.92951599  0.13076015  1
  O  O70  1  0.95679598  0.07048401  0.63076015  1
  O  O71  1  0.45679598  0.42951599  0.36923985  1
  O  O72  1  0.11101966  0.48398214  0.22823872  1
  O  O73  1  0.61101966  0.01601786  0.77176128  1
  O  O74  1  0.88898034  0.98398214  0.27176128  1
  O  O75  1  0.38898034  0.51601786  0.72823872  1
  O  O76  1  0.88898034  0.51601786  0.77176128  1
  O  O77  1  0.38898034  0.98398214  0.22823872  1
  O  O78  1  0.11101966  0.01601786  0.72823872  1
  O  O79  1  0.61101966  0.48398214  0.27176128  1
  O  O80  1  0.23377383  0.20538299  0.27209486  1
  O  O81  1  0.73377383  0.29461701  0.72790514  1
  O  O82  1  0.76622617  0.70538299  0.22790514  1
  O  O83  1  0.26622617  0.79461701  0.77209486  1
  O  O84  1  0.76622617  0.79461701  0.72790514  1
  O  O85  1  0.26622617  0.70538299  0.27209486  1
  O  O86  1  0.23377383  0.29461701  0.77209486  1
  O  O87  1  0.73377383  0.20538299  0.22790514  1
  O  O88  1  0.91140736  0.39598724  0.68887102  1
  O  O89  1  0.41140736  0.10401276  0.31112898  1
  O  O90  1  0.08859264  0.89598724  0.81112898  1
  O  O91  1  0.58859264  0.60401276  0.18887102  1
  O  O92  1  0.08859264  0.60401276  0.31112898  1
  O  O93  1  0.58859264  0.89598724  0.68887102  1
  O  O94  1  0.91140736  0.10401276  0.18887102  1
  O  O95  1  0.41140736  0.39598724  0.81112898  1
  O  O96  1  0.28813160  0.51804604  0.16321895  1
  O  O97  1  0.78813160  0.98195396  0.83678105  1
  O  O98  1  0.71186840  0.01804604  0.33678105  1
  O  O99  1  0.21186840  0.48195396  0.66321895  1
  O  O100  1  0.71186840  0.48195396  0.83678105  1
  O  O101  1  0.21186840  0.01804604  0.16321895  1
  O  O102  1  0.28813160  0.98195396  0.66321895  1
  O  O103  1  0.78813160  0.51804604  0.33678105  1
  O  O104  1  0.74236996  0.10843376  0.44152037  1
  O  O105  1  0.24236996  0.39156624  0.55847963  1
  O  O106  1  0.25763004  0.60843376  0.05847963  1
  O  O107  1  0.75763004  0.89156624  0.94152037  1
  O  O108  1  0.25763004  0.89156624  0.55847963  1
  O  O109  1  0.75763004  0.60843376  0.44152037  1
  O  O110  1  0.74236996  0.39156624  0.94152037  1
  O  O111  1  0.24236996  0.10843376  0.05847963  1
  O  O112  1  0.83829686  0.20656586  0.26940960  1
  O  O113  1  0.33829686  0.29343414  0.73059040  1
  O  O114  1  0.16170314  0.70656586  0.23059040  1
  O  O115  1  0.66170314  0.79343414  0.76940960  1
  O  O116  1  0.16170314  0.79343414  0.73059040  1
  O  O117  1  0.66170314  0.70656586  0.26940960  1
  O  O118  1  0.83829686  0.29343414  0.76940960  1
  O  O119  1  0.33829686  0.20656586  0.23059040  1
loop_
_geom_bond_atom_site_label_1
_geom_bond_atom_site_label_2
_geom_bond_distance
_geom_bond_site_symmetry_2
Mg0 O94 1.951052 1_555
Mg0 O70 2.013868 1_555
Mg0 O14 2.057010 1_655
Mg0 O104 2.117341 1_555
Mg0 O46 2.117547 1_555
Mg0 O112 2.422864 1_555
Mg1 O95 1.951052 1_555
Mg1 O71 2.013868 1_555
Mg1 O15 2.057010 1_555
Mg1 O105 2.117341 1_555
Mg1 O47 2.117547 1_555
Mg1 O113 2.422864 1_555
Mg2 O92 1.951052 1_555
Mg2 O68 2.013868 1_554
Mg2 O12 2.057010 1_455
Mg2 O106 2.117341 1_555
Mg2 O44 2.117547 1_554
Mg2 O114 2.422864 1_555
Mg3 O93 1.951052 1_555
Mg3 O69 2.013868 1_556
Mg3 O13 2.057010 1_555
Mg3 O107 2.117341 1_555
Mg3 O45 2.117547 1_556
Mg3 O115 2.422864 1_555
Mg4 O90 1.951052 1_555
Mg4 O66 2.013868 1_555
Mg4 O10 2.057010 1_455
Mg4 O108 2.117341 1_555
Mg4 O42 2.117547 1_555
Mg4 O116 2.422864 1_555
Mg5 O91 1.951052 1_555
Mg5 O67 2.013868 1_555
Mg5 O11 2.057010 1_555
Mg5 O109 2.117341 1_555
Mg5 O43 2.117547 1_555
Mg5 O117 2.422864 1_555
Mg6 O88 1.951052 1_555
Mg6 O64 2.013868 1_556
Mg6 O8 2.057010 1_655
Mg6 O110 2.117341 1_555
Mg6 O40 2.117547 1_556
Mg6 O118 2.422864 1_555
Mg7 O89 1.951052 1_555
Mg7 O65 2.013868 1_554
Mg7 O9 2.057010 1_555
Mg7 O111 2.117341 1_555
Mg7 O41 2.117547 1_554
Mg7 O119 2.422864 1_555
B0 O24 1.445999 1_555
B0 O0 1.464985 1_555
B0 O8 1.478479 1_554
B0 O16 1.522067 1_555
B1 O25 1.445999 1_555
B1 O1 1.464985 1_555
B1 O9 1.478479 1_556
B1 O17 1.522067 1_555
B2 O26 1.445999 1_555
B2 O2 1.464985 1_555
B2 O10 1.478479 1_555
B2 O18 1.522067 1_555
B3 O27 1.445999 1_555
B3 O3 1.464985 1_555
B3 O11 1.478479 1_555
B3 O19 1.522067 1_555
B4 O28 1.445999 1_555
B4 O4 1.464985 1_555
B4 O12 1.478479 1_556
B4 O20 1.522067 1_555
B5 O29 1.445999 1_555
B5 O5 1.464985 1_555
B5 O13 1.478479 1_554
B5 O21 1.522067 1_555
B6 O30 1.445999 1_555
B6 O6 1.464985 1_555
B6 O14 1.478479 1_555
B6 O22 1.522067 1_555
B7 O31 1.445999 1_555
B7 O7 1.464985 1_555
B7 O15 1.478479 1_555
B7 O23 1.522067 1_555
B8 O48 1.420792 1_455
B8 O32 1.469689 1_555
B8 O40 1.491893 1_455
B8 O16 1.542385 1_555
B9 O49 1.420792 1_555
B9 O33 1.469689 1_555
B9 O41 1.491893 1_555
B9 O17 1.542385 1_555
B10 O50 1.420792 1_655
B10 O34 1.469689 1_555
B10 O42 1.491893 1_655
B10 O18 1.542385 1_555
B11 O51 1.420792 1_555
B11 O35 1.469689 1_555
B11 O43 1.491893 1_555
B11 O19 1.542385 1_555
B12 O52 1.420792 1_655
B12 O36 1.469689 1_555
B12 O44 1.491893 1_655
B12 O20 1.542385 1_555
B13 O53 1.420792 1_555
B13 O37 1.469689 1_555
B13 O45 1.491893 1_555
B13 O21 1.542385 1_555
B14 O54 1.420792 1_455
B14 O38 1.469689 1_555
B14 O46 1.491893 1_455
B14 O22 1.542385 1_555
B15 O55 1.420792 1_555
B15 O39 1.469689 1_555
B15 O47 1.491893 1_555
B15 O23 1.542385 1_555
B16 O56 1.436178 1_455
B16 O72 1.460014 1_555
B16 O64 1.479683 1_455
B16 O16 1.533476 1_555
B17 O57 1.436178 1_555
B17 O73 1.460014 1_555
B17 O65 1.479683 1_555
B17 O17 1.533476 1_555
B18 O58 1.436178 1_655
B18 O74 1.460014 1_555
B18 O66 1.479683 1_655
B18 O18 1.533476 1_555
B19 O59 1.436178 1_555
B19 O75 1.460014 1_555
B19 O67 1.479683 1_555
B19 O19 1.533476 1_555
B20 O60 1.436178 1_655
B20 O76 1.460014 1_555
B20 O68 1.479683 1_655
B20 O20 1.533476 1_555
B21 O61 1.436178 1_555
B21 O77 1.460014 1_555
B21 O69 1.479683 1_555
B21 O21 1.533476 1_555
B22 O62 1.436178 1_455
B22 O78 1.460014 1_555
B22 O70 1.479683 1_455
B22 O22 1.533476 1_555
B23 O63 1.436178 1_555
B23 O79 1.460014 1_555
B23 O71 1.479683 1_555
B23 O23 1.533476 1_555
B24 O0 1.339570 1_555
B24 O32 1.341203 1_555
B24 O80 1.500477 1_555
B25 O1 1.339570 1_555
B25 O33 1.341203 1_555
B25 O81 1.500477 1_555
B26 O2 1.339570 1_555
B26 O34 1.341203 1_555
B26 O82 1.500477 1_555
B27 O3 1.339570 1_555
B27 O35 1.341203 1_555
B27 O83 1.500477 1_555
B28 O4 1.339570 1_555
B28 O36 1.341203 1_555
B28 O84 1.500477 1_555
B29 O5 1.339570 1_555
B29 O37 1.341203 1_555
B29 O85 1.500477 1_555
B30 O6 1.339570 1_555
B30 O38 1.341203 1_555
B30 O86 1.500477 1_555
B31 O7 1.339570 1_555
B31 O39 1.341203 1_555
B31 O87 1.500477 1_555
B32 O88 1.370140 1_555
B32 O48 1.381665 1_555
B32 O56 1.382309 1_555
B33 O89 1.370140 1_555
B33 O49 1.381665 1_555
B33 O57 1.382309 1_555
B34 O90 1.370140 1_555
B34 O50 1.381665 1_556
B34 O58 1.382309 1_556
B35 O91 1.370140 1_555
B35 O51 1.381665 1_554
B35 O59 1.382309 1_554
B36 O92 1.370140 1_555
B36 O52 1.381665 1_555
B36 O60 1.382309 1_555
B37 O93 1.370140 1_555
B37 O53 1.381665 1_555
B37 O61 1.382309 1_555
B38 O94 1.370140 1_555
B38 O54 1.381665 1_554
B38 O62 1.382309 1_554
B39 O95 1.370140 1_555
B39 O55 1.381665 1_556
B39 O63 1.382309 1_556
B40 O24 1.373139 1_555
B40 O72 1.373931 1_555
B40 O96 1.393249 1_555
B41 O25 1.373139 1_555
B41 O73 1.373931 1_555
B41 O97 1.393249 1_545
B42 O26 1.373139 1_555
B42 O74 1.373931 1_555
B42 O98 1.393249 1_565
B43 O27 1.373139 1_555
B43 O75 1.373931 1_555
B43 O99 1.393249 1_555
B44 O28 1.373139 1_555
B44 O76 1.373931 1_555
B44 O100 1.393249 1_555
B45 O29 1.373139 1_555
B45 O77 1.373931 1_555
B45 O101 1.393249 1_565
B46 O30 1.373139 1_555
B46 O78 1.373931 1_555
B46 O102 1.393249 1_545
B47 O31 1.373139 1_555
B47 O79 1.373931 1_555
B47 O103 1.393249 1_555
O112 O87 1.311235 1_555
O113 O86 1.311235 1_555
O114 O85 1.311235 1_555
O115 O84 1.311235 1_555
O116 O83 1.311235 1_555
O117 O82 1.311235 1_555
O118 O81 1.311235 1_555
O119 O80 1.311235 1_555
