# generated using pymatgen
data_In15SnO24
_symmetry_space_group_name_H-M   'P 1'
_cell_length_a   8.82101893
_cell_length_b   8.82101893
_cell_length_c   8.82101959
_cell_angle_alpha   109.40133012
_cell_angle_beta   109.40133009
_cell_angle_gamma   109.40132880
_symmetry_Int_Tables_number   1
_chemical_formula_structural   In15SnO24
_chemical_formula_sum   'In15 Sn1 O24'
_cell_volume   529.72825201
_cell_formula_units_Z   1
loop_
 _symmetry_equiv_pos_site_id
 _symmetry_equiv_pos_as_xyz
  1  'x, y, z'
loop_
 _atom_site_type_symbol
 _atom_site_label
 _atom_site_symmetry_multiplicity
 _atom_site_fract_x
 _atom_site_fract_y
 _atom_site_fract_z
 _atom_site_occupancy
  In  In0  1  0.96580564  0.75001071  0.21747287  1
  In  In1  1  0.71556100  0.46669131  0.74944326  1
  In  In2  1  0.78252713  0.03419436  0.24998929  1
  In  In3  1  0.24998929  0.78252713  0.03419436  1
  In  In4  1  0.25055674  0.28443900  0.53330869  1
  In  In5  1  0.50000000  0.50000000  -0.00000000  1
  In  In6  1  0.53330869  0.25055674  0.28443900  1
  In  In7  1  -0.00000000  0.50000000  0.50000000  1
  In  In8  1  0.46669131  0.74944326  0.71556100  1
  In  In9  1  0.50000000  -0.00000000  0.50000000  1
  In  In10  1  0.74944326  0.71556100  0.46669131  1
  In  In11  1  0.75001071  0.21747287  0.96580564  1
  In  In12  1  0.28443900  0.53330869  0.25055674  1
  In  In13  1  0.21747287  0.96580564  0.75001071  1
  In  In14  1  0.03419436  0.24998929  0.78252713  1
  Sn  Sn0  1  -0.00000000  -0.00000000  -0.00000000  1
  O  O0  1  0.04626116  0.03975167  0.26325609  1
  O  O1  1  0.45542501  0.22729103  0.49329165  1
  O  O2  1  0.72954700  0.77448141  0.23612124  1
  O  O3  1  0.03975167  0.26325609  0.04626116  1
  O  O4  1  0.53396902  0.99220585  0.26172483  1
  O  O5  1  0.22729103  0.49329165  0.45542501  1
  O  O6  1  0.76387876  0.27045300  0.22551859  1
  O  O7  1  0.73827517  0.46603098  0.00779415  1
  O  O8  1  0.50670835  0.54457499  0.77270897  1
  O  O9  1  0.26325609  0.04626116  0.03975167  1
  O  O10  1  0.22551859  0.76387876  0.27045300  1
  O  O11  1  0.99220585  0.26172483  0.53396902  1
  O  O12  1  0.00779415  0.73827517  0.46603098  1
  O  O13  1  0.49329165  0.45542501  0.22729103  1
  O  O14  1  0.77448141  0.23612124  0.72954700  1
  O  O15  1  0.73674391  0.95373884  0.96024833  1
  O  O16  1  0.23612124  0.72954700  0.77448141  1
  O  O17  1  0.26172483  0.53396902  0.99220585  1
  O  O18  1  0.46603098  0.00779415  0.73827517  1
  O  O19  1  0.77270897  0.50670835  0.54457499  1
  O  O20  1  0.27045300  0.22551859  0.76387876  1
  O  O21  1  0.96024833  0.73674391  0.95373884  1
  O  O22  1  0.54457499  0.77270897  0.50670835  1
  O  O23  1  0.95373884  0.96024833  0.73674391  1
loop_
_geom_bond_atom_site_label_1
_geom_bond_atom_site_label_2
_geom_bond_distance
_geom_bond_site_symmetry_2
In0 O10 2.132200 1_655
In0 O12 2.142863 1_655
In0 O7 2.199908 1_555
In0 O2 2.218089 1_555
In0 O0 2.262236 1_665
In0 O21 2.273279 1_554
In1 O19 2.134319 1_555
In1 O21 2.174566 1_555
In1 O8 2.215072 1_555
In1 O7 2.222585 1_556
In1 O14 2.227839 1_555
In1 O1 2.235256 1_555
In2 O2 2.132200 1_545
In2 O4 2.142863 1_545
In2 O11 2.199908 1_555
In2 O6 2.218089 1_555
In2 O15 2.262237 1_544
In2 O0 2.273279 1_655
In3 O16 2.132200 1_554
In3 O17 2.142863 1_554
In3 O4 2.199908 1_555
In3 O10 2.218089 1_555
In3 O21 2.262236 1_454
In3 O9 2.273279 1_565
In4 O1 2.134319 1_555
In4 O0 2.174566 1_555
In4 O5 2.215072 1_555
In4 O11 2.222585 1_455
In4 O20 2.227839 1_555
In4 O8 2.235256 1_555
In5 O13 2.182886 1_555
In5 O8 2.182886 1_554
In5 O7 2.201885 1_555
In5 O17 2.201885 1_554
In5 O2 2.211569 1_555
In5 O20 2.211569 1_554
In6 O13 2.134319 1_555
In6 O9 2.174566 1_555
In6 O1 2.215072 1_555
In6 O4 2.222585 1_545
In6 O6 2.227839 1_555
In6 O19 2.235256 1_555
In7 O19 2.182886 1_455
In7 O5 2.182886 1_555
In7 O12 2.201885 1_555
In7 O11 2.201885 1_455
In7 O16 2.211569 1_555
In7 O6 2.211569 1_455
In8 O8 2.134319 1_555
In8 O15 2.174566 1_555
In8 O22 2.215072 1_555
In8 O18 2.222585 1_565
In8 O16 2.227839 1_555
In8 O5 2.235256 1_555
In9 O22 2.182886 1_545
In9 O1 2.182886 1_555
In9 O4 2.201885 1_545
In9 O18 2.201885 1_555
In9 O14 2.211569 1_555
In9 O10 2.211569 1_545
In10 O22 2.134319 1_555
In10 O23 2.174566 1_555
In10 O19 2.215072 1_555
In10 O12 2.222585 1_655
In10 O2 2.227839 1_555
In10 O13 2.235256 1_555
In11 O6 2.132200 1_556
In11 O7 2.142863 1_556
In11 O18 2.199908 1_555
In11 O14 2.218089 1_555
In11 O3 2.262236 1_656
In11 O15 2.273279 1_545
In12 O5 2.134319 1_555
In12 O3 2.174566 1_555
In12 O13 2.215072 1_555
In12 O17 2.222585 1_554
In12 O10 2.227839 1_555
In12 O22 2.235256 1_555
In13 O20 2.132200 1_565
In13 O18 2.142863 1_565
In13 O12 2.199908 1_555
In13 O16 2.218089 1_555
In13 O9 2.262237 1_566
In13 O23 2.273279 1_455
In14 O14 2.132200 1_455
In14 O11 2.142863 1_455
In14 O17 2.199908 1_555
In14 O20 2.218089 1_555
In14 O23 2.262236 1_445
In14 O3 2.273279 1_556
O0 Sn0 2.101529 1_555
O3 Sn0 2.101529 1_555
O9 Sn0 2.101529 1_555
O15 Sn0 2.101529 1_666
O21 Sn0 2.101529 1_666
O23 Sn0 2.101529 1_666
