# generated using pymatgen
data_Co21O40
_symmetry_space_group_name_H-M   'P 1'
_cell_length_a   9.82959486
_cell_length_b   9.82959486
_cell_length_c   9.82959486
_cell_angle_alpha   99.53013199
_cell_angle_beta   99.53013199
_cell_angle_gamma   131.97971442
_symmetry_Int_Tables_number   1
_chemical_formula_structural   Co21O40
_chemical_formula_sum   'Co21 O40'
_cell_volume   644.93305436
_cell_formula_units_Z   1
loop_
 _symmetry_equiv_pos_site_id
 _symmetry_equiv_pos_as_xyz
  1  'x, y, z'
loop_
 _atom_site_type_symbol
 _atom_site_label
 _atom_site_symmetry_multiplicity
 _atom_site_fract_x
 _atom_site_fract_y
 _atom_site_fract_z
 _atom_site_occupancy
  Co  Co0  1  0.07590600  0.22693900  0.55334400  1
  Co  Co1  1  0.17735800  0.52644000  0.45343000  1
  Co  Co2  1  0.07301000  0.72392800  0.54657000  1
  Co  Co3  1  0.47356000  0.92699000  0.65091800  1
  Co  Co4  1  0.97041100  0.91970700  0.64505400  1
  Co  Co5  1  0.27458100  0.32702200  0.85192200  1
  Co  Co6  1  0.87085700  0.12508600  0.74955100  1
  Co  Co7  1  0.87491400  0.62446500  0.74577100  1
  Co  Co8  1  0.67464400  0.02958900  0.94929600  1
  Co  Co9  1  0.57734100  0.72541900  0.05244100  1
  Co  Co10  1  0.77306100  0.32640400  0.84896700  1
  Co  Co11  1  0.00000000  0.00000000  0.00000000  1
  Co  Co12  1  0.47510000  0.42265900  0.14807800  1
  Co  Co13  1  0.67297800  0.52490000  0.94755900  1
  Co  Co14  1  0.08029300  0.72534700  0.05070400  1
  Co  Co15  1  0.47743800  0.92409400  0.15103300  1
  Co  Co16  1  0.37553500  0.12130600  0.25044900  1
  Co  Co17  1  0.87869400  0.12914300  0.25422900  1
  Co  Co18  1  0.27465300  0.32535600  0.35494600  1
  Co  Co19  1  0.27607200  0.82264200  0.34908200  1
  Co  Co20  1  0.67359600  0.52256200  0.44665600  1
  O  O0  1  0.94843300  0.27980000  0.44716800  1
  O  O1  1  0.30111400  0.45618300  0.53641100  1
  O  O2  1  0.40617400  0.77285300  0.45986400  1
  O  O3  1  0.31298900  0.94631100  0.54013600  1
  O  O4  1  0.62755700  0.90203200  0.75799300  1
  O  O5  1  0.91977200  0.76470300  0.46358900  1
  O  O6  1  0.85325900  0.99836200  0.57047900  1
  O  O7  1  0.20586200  0.17416200  0.65991400  1
  O  O8  1  0.65215000  0.40199200  0.76909600  1
  O  O9  1  0.22714700  0.68701100  0.63332200  1
  O  O10  1  0.83263200  0.50126600  0.55283200  1
  O  O11  1  0.11694600  0.34785000  0.74984100  1
  O  O12  1  0.52028900  0.56621900  0.86745800  1
  O  O13  1  0.09796800  0.85596100  0.72552500  1
  O  O14  1  0.74440600  0.67800800  0.63816900  1
  O  O15  1  0.54381700  0.08022800  0.84493100  1
  O  O16  1  0.45405200  0.79413800  0.96830000  1
  O  O17  1  0.02390400  0.07876400  0.83791500  1
  O  O18  1  0.43378100  0.30123900  0.95407000  1
  O  O19  1  0.72020000  0.16736800  0.66863400  1
  O  O20  1  0.34716800  0.47971100  0.04593000  1
  O  O21  1  0.00163800  0.57211700  0.85489700  1
  O  O22  1  0.63289600  0.88305400  0.23090400  1
  O  O23  1  0.92123600  0.75915100  0.94514000  1
  O  O24  1  0.32199200  0.96016000  0.06639700  1
  O  O25  1  0.89376300  0.25559400  0.93360300  1
  O  O26  1  0.81401100  0.97609600  0.05486000  1
  O  O27  1  0.24084900  0.18598900  0.16208500  1
  O  O28  1  0.59800800  0.36710400  0.25015900  1
  O  O29  1  0.82583800  0.48575300  0.03170000  1
  O  O30  1  0.51424700  0.54594800  0.34008600  1
  O  O31  1  0.23529700  0.69888600  0.15506900  1
  O  O32  1  0.13043600  0.37244300  0.27447500  1
  O  O33  1  0.69876100  0.65283200  0.13254200  1
  O  O34  1  0.49873400  0.05156700  0.33136600  1
  O  O35  1  0.14403900  0.86956400  0.24200700  1
  O  O36  1  0.42788300  0.28278000  0.42952100  1
  O  O37  1  0.71722000  0.14674100  0.14510300  1
  O  O38  1  0.03984000  0.10623700  0.36183100  1
  O  O39  1  0.05368900  0.59382600  0.36667800  1
loop_
_geom_bond_atom_site_label_1
_geom_bond_atom_site_label_2
_geom_bond_distance
_geom_bond_site_symmetry_2
Co0 O6 1.880332 1_445
Co0 O0 1.883282 1_455
Co0 O38 1.885178 1_555
Co0 O1 1.891841 1_555
Co0 O7 1.903054 1_555
Co0 O11 1.909553 1_555
Co1 O32 1.874577 1_555
Co1 O2 1.882546 1_555
Co1 O0 1.884612 1_455
Co1 O39 1.888001 1_555
Co1 O1 1.898376 1_555
Co1 O9 1.900893 1_555
Co2 O13 1.874577 1_555
Co2 O3 1.882550 1_555
Co2 O10 1.884609 1_455
Co2 O9 1.887993 1_555
Co2 O5 1.898376 1_455
Co2 O39 1.900888 1_555
Co3 O4 1.874577 1_555
Co3 O9 1.882550 1_555
Co3 O19 1.884609 1_565
Co3 O2 1.887989 1_555
Co3 O15 1.898376 1_565
Co3 O3 1.900893 1_555
Co4 O14 1.849526 1_555
Co4 O13 1.864699 1_655
Co4 O5 1.882130 1_555
Co4 O6 1.886889 1_555
Co4 O7 1.912323 1_665
Co4 O17 1.975724 1_665
Co5 O11 1.851276 1_555
Co5 O12 1.883393 1_555
Co5 O7 1.886039 1_555
Co5 O20 1.888797 1_556
Co5 O18 1.901507 1_555
Co5 O17 1.943735 1_555
Co6 O19 1.881809 1_555
Co6 O11 1.885754 1_655
Co6 O6 1.888060 1_545
Co6 O4 1.909203 1_545
Co6 O25 1.918237 1_555
Co6 O17 1.959478 1_655
Co7 O10 1.881809 1_555
Co7 O8 1.885750 1_555
Co7 O21 1.888060 1_655
Co7 O13 1.909203 1_655
Co7 O14 1.918229 1_555
Co7 O23 1.959478 1_555
Co8 O25 1.849517 1_555
Co8 O4 1.864695 1_545
Co8 O15 1.882138 1_555
Co8 O37 1.886893 1_556
Co8 O16 1.912327 1_545
Co8 O26 1.975716 1_546
Co9 O22 1.851272 1_555
Co9 O20 1.883397 1_555
Co9 O16 1.886039 1_554
Co9 O33 1.888786 1_555
Co9 O12 1.901507 1_554
Co9 O26 1.943735 1_555
Co10 O21 1.880337 1_655
Co10 O19 1.883270 1_555
Co10 O25 1.885170 1_555
Co10 O15 1.891836 1_555
Co10 O29 1.903063 1_556
Co10 O8 1.909570 1_555
Co11 O27 1.866029 1_555
Co11 O23 1.866029 1_444
Co11 O17 1.866029 1_554
Co11 O26 1.866029 1_445
Co12 O28 1.851277 1_555
Co12 O33 1.883398 1_555
Co12 O30 1.886043 1_555
Co12 O18 1.888794 1_554
Co12 O20 1.901514 1_555
Co12 O27 1.943735 1_555
Co13 O8 1.851272 1_555
Co13 O18 1.883393 1_555
Co13 O29 1.886031 1_556
Co13 O12 1.888794 1_555
Co13 O33 1.901511 1_556
Co13 O23 1.943735 1_555
Co14 O24 1.849525 1_555
Co14 O35 1.864699 1_555
Co14 O31 1.882130 1_555
Co14 O21 1.886889 1_554
Co14 O29 1.912320 1_455
Co14 O23 1.975724 1_454
Co15 O37 1.880332 1_565
Co15 O34 1.883279 1_565
Co15 O24 1.885170 1_555
Co15 O31 1.891841 1_555
Co15 O16 1.903054 1_554
Co15 O22 1.909561 1_555
Co16 O34 1.881801 1_555
Co16 O28 1.885746 1_555
Co16 O36 1.888060 1_555
Co16 O35 1.909203 1_545
Co16 O24 1.918242 1_545
Co16 O27 1.959478 1_555
Co17 O0 1.881813 1_555
Co17 O22 1.885750 1_545
Co17 O37 1.888060 1_555
Co17 O32 1.909203 1_655
Co17 O38 1.918237 1_655
Co17 O26 1.959478 1_545
Co18 O38 1.849518 1_555
Co18 O32 1.864707 1_555
Co18 O1 1.882134 1_555
Co18 O36 1.886881 1_555
Co18 O30 1.912322 1_555
Co18 O27 1.975719 1_555
Co19 O35 1.874577 1_555
Co19 O39 1.882545 1_555
Co19 O34 1.884613 1_565
Co19 O3 1.887993 1_555
Co19 O31 1.898376 1_555
Co19 O2 1.900886 1_555
Co20 O36 1.880336 1_555
Co20 O10 1.883266 1_555
Co20 O14 1.885178 1_555
Co20 O5 1.891837 1_555
Co20 O30 1.903069 1_555
Co20 O28 1.909550 1_555
