# generated using pymatgen
data_Li2PrIn
_symmetry_space_group_name_H-M   'P 1'
_cell_length_a   4.96757688
_cell_length_b   4.96729404
_cell_length_c   4.96884537
_cell_angle_alpha   60.02331487
_cell_angle_beta   60.02402157
_cell_angle_gamma   60.01607481
_symmetry_Int_Tables_number   1
_chemical_formula_structural   Li2PrIn
_chemical_formula_sum   'Li2 Pr1 In1'
_cell_volume   86.73871714
_cell_formula_units_Z   1
loop_
 _symmetry_equiv_pos_site_id
 _symmetry_equiv_pos_as_xyz
  1  'x, y, z'
loop_
 _atom_site_type_symbol
 _atom_site_label
 _atom_site_symmetry_multiplicity
 _atom_site_fract_x
 _atom_site_fract_y
 _atom_site_fract_z
 _atom_site_occupancy
  Li  Li0  1  -0.00002444  -0.00003621  0.00009649  1
  Li  Li1  1  0.50005506  0.50005127  0.49987108  1
  Pr  Pr0  1  0.75023220  0.75022640  0.74931524  1
  In  In0  1  0.24973719  0.24975854  0.25071819  1
loop_
_geom_bond_atom_site_label_1
_geom_bond_atom_site_label_2
_geom_bond_distance
_geom_bond_site_symmetry_2
Li0 Pr0 3.040578 1_445
Li0 Pr0 3.042787 1_444
Li0 Pr0 3.043623 1_454
Li0 Pr0 3.043794 1_544
Li1 Pr0 3.040897 1_555
Li1 Pr0 3.041845 1_545
Li1 Pr0 3.042032 1_455
Li1 Pr0 3.046005 1_554
In0 Li1 3.040764 1_555
In0 Li0 3.041226 1_556
In0 Li1 3.041369 1_545
In0 Li1 3.041461 1_455
In0 Li0 3.042446 1_555
In0 Li0 3.043390 1_565
In0 Li0 3.043719 1_655
In0 Li1 3.047187 1_554
