# generated using pymatgen
data_Li3CrCo3O8
_symmetry_space_group_name_H-M   'P 1'
_cell_length_a   5.84796443
_cell_length_b   5.84796443
_cell_length_c   5.84796434
_cell_angle_alpha   58.23076253
_cell_angle_beta   58.23076253
_cell_angle_gamma   58.23077046
_symmetry_Int_Tables_number   1
_chemical_formula_structural   Li3CrCo3O8
_chemical_formula_sum   'Li3 Cr1 Co3 O8'
_cell_volume   135.68413369
_cell_formula_units_Z   1
loop_
 _symmetry_equiv_pos_site_id
 _symmetry_equiv_pos_as_xyz
  1  'x, y, z'
loop_
 _atom_site_type_symbol
 _atom_site_label
 _atom_site_symmetry_multiplicity
 _atom_site_fract_x
 _atom_site_fract_y
 _atom_site_fract_z
 _atom_site_occupancy
  Li  Li0  1  0.00000000  0.50000000  0.00000000  1
  Li  Li1  1  0.00000000  0.00000000  0.50000000  1
  Li  Li2  1  0.50000000  0.00000000  0.00000000  1
  Cr  Cr0  1  0.00000000  0.00000000  0.00000000  1
  Co  Co0  1  0.00000000  0.50000000  0.50000000  1
  Co  Co1  1  0.50000000  0.00000000  0.50000000  1
  Co  Co2  1  0.50000000  0.50000000  0.00000000  1
  O  O0  1  0.76344000  0.76344000  0.25951800  1
  O  O1  1  0.76344000  0.25951800  0.76344000  1
  O  O2  1  0.25951800  0.76344000  0.76344000  1
  O  O3  1  0.26212600  0.26212600  0.26212600  1
  O  O4  1  0.73787400  0.73787400  0.73787400  1
  O  O5  1  0.74048200  0.23656000  0.23656000  1
  O  O6  1  0.23656000  0.74048200  0.23656000  1
  O  O7  1  0.23656000  0.23656000  0.74048200  1
loop_
_geom_bond_atom_site_label_1
_geom_bond_atom_site_label_2
_geom_bond_distance
_geom_bond_site_symmetry_2
Li0 O2 2.144172 1_554
Li0 O5 2.144172 1_455
Li0 O0 2.144172 1_455
Li0 O7 2.144172 1_554
Li0 O3 2.149002 1_555
Li0 O4 2.149002 1_454
Li1 O2 2.144172 1_545
Li1 O1 2.144172 1_455
Li1 O6 2.144172 1_545
Li1 O5 2.144172 1_455
Li1 O3 2.149002 1_555
Li1 O4 2.149002 1_445
Li2 O1 2.144172 1_554
Li2 O6 2.144172 1_545
Li2 O0 2.144172 1_545
Li2 O7 2.144172 1_554
Li2 O3 2.149002 1_555
Li2 O4 2.149002 1_544
Cr0 O0 1.929889 1_445
Cr0 O7 1.929889 1_554
Cr0 O1 1.929889 1_454
Cr0 O2 1.929889 1_544
Cr0 O6 1.929889 1_545
Cr0 O5 1.929889 1_455
Co0 O4 1.940836 1_455
Co0 O3 1.940836 1_555
Co0 O6 1.946273 1_555
Co0 O1 1.946273 1_455
Co0 O7 1.946273 1_555
Co0 O0 1.946273 1_455
Co1 O4 1.940836 1_545
Co1 O3 1.940836 1_555
Co1 O5 1.946273 1_555
Co1 O2 1.946273 1_545
Co1 O7 1.946273 1_555
Co1 O0 1.946273 1_545
Co2 O4 1.940836 1_554
Co2 O3 1.940836 1_555
Co2 O6 1.946273 1_555
Co2 O5 1.946273 1_555
Co2 O1 1.946273 1_554
Co2 O2 1.946273 1_554
