# generated using pymatgen
data_PrNiB4
_symmetry_space_group_name_H-M   'P 1'
_cell_length_a   6.95617147
_cell_length_b   6.95617385
_cell_length_c   6.95579352
_cell_angle_alpha   112.80570395
_cell_angle_beta   112.80500208
_cell_angle_gamma   102.98664813
_symmetry_Int_Tables_number   1
_chemical_formula_structural   PrNiB4
_chemical_formula_sum   'Pr4 Ni4 B16'
_cell_volume   256.66374423
_cell_formula_units_Z   4
loop_
 _symmetry_equiv_pos_site_id
 _symmetry_equiv_pos_as_xyz
  1  'x, y, z'
loop_
 _atom_site_type_symbol
 _atom_site_label
 _atom_site_symmetry_multiplicity
 _atom_site_fract_x
 _atom_site_fract_y
 _atom_site_fract_z
 _atom_site_occupancy
  Pr  Pr0  1  0.20642967  0.20643144  0.00013300  1
  Pr  Pr1  1  0.79356736  0.79356901  0.99986462  1
  Pr  Pr2  1  0.74997552  0.25001185  0.49999778  1
  Pr  Pr3  1  0.25001871  0.74998944  0.49999787  1
  Ni  Ni0  1  0.49993273  0.27327622  0.77330326  1
  Ni  Ni1  1  0.50007650  0.72672259  0.22670599  1
  Ni  Ni2  1  0.72672242  0.50007149  0.22669927  1
  Ni  Ni3  1  0.27328178  0.49992746  0.77330316  1
  B  B0  1  0.11308600  0.27711901  0.39022268  1
  B  B1  1  0.88691238  0.72288040  0.60977529  1
  B  B2  1  0.88687326  0.27720404  0.16409202  1
  B  B3  1  0.11312565  0.72279539  0.83590636  1
  B  B4  1  0.72287376  0.88691251  0.60976889  1
  B  B5  1  0.27712858  0.11308874  0.39023505  1
  B  B6  1  0.72278939  0.11312707  0.83590189  1
  B  B7  1  0.27721304  0.88687197  0.16409977  1
  B  B8  1  0.41622728  0.41622721  0.53037599  1
  B  B9  1  0.88588742  0.88588868  0.46963762  1
  B  B10  1  0.58381586  0.11403757  0.99995606  1
  B  B11  1  0.11403634  0.58381847  0.99995702  1
  B  B12  1  0.58377068  0.58377183  0.46962203  1
  B  B13  1  0.11411050  0.11411064  0.53035963  1
  B  B14  1  0.88596148  0.41618327  0.00004237  1
  B  B15  1  0.41618169  0.88596370  0.00004340  1
loop_
_geom_bond_atom_site_label_1
_geom_bond_atom_site_label_2
_geom_bond_distance
_geom_bond_site_symmetry_2
Ni0 Ni3 2.467529 1_555
Ni0 Ni2 2.468052 1_556
Ni0 Pr3 3.019241 1_545
Ni0 Pr2 3.019398 1_555
Ni0 Pr0 3.084338 1_556
Ni0 Pr1 3.084666 1_555
Ni1 Ni2 2.467501 1_555
Ni1 Ni3 2.468089 1_554
Ni1 Pr2 3.019254 1_565
Ni1 Pr3 3.019405 1_555
Ni1 Pr1 3.084337 1_554
Ni1 Pr0 3.084658 1_555
Ni2 Pr3 3.019313 1_655
Ni2 Pr2 3.019474 1_555
Ni2 Pr1 3.084344 1_554
Ni2 Pr0 3.084675 1_555
Ni3 Pr2 3.019366 1_455
Ni3 Pr3 3.019523 1_555
Ni3 Pr0 3.084318 1_556
Ni3 Pr1 3.084643 1_555
B0 B2 1.741456 1_455
B0 B13 1.758143 1_555
B0 B8 1.758236 1_555
B0 B5 1.785849 1_555
B0 Ni3 2.112957 1_555
B0 Pr3 2.896753 1_555
B0 Pr2 2.896758 1_455
B0 Pr0 2.915614 1_555
B0 Pr1 2.916892 1_444
B1 B3 1.741459 1_655
B1 B9 1.758147 1_555
B1 B12 1.758239 1_555
B1 B4 1.785838 1_555
B1 Ni2 2.112939 1_555
B1 Pr2 2.896735 1_555
B1 Pr3 2.896741 1_655
B1 Pr1 2.915616 1_555
B1 Pr0 2.916895 1_666
B2 B6 1.786496 1_554
B2 Ni2 2.112609 1_555
B2 Pr2 2.896251 1_555
B2 Pr3 2.896596 1_655
B2 Pr0 2.916517 1_655
B2 Pr1 2.917017 1_544
B3 B7 1.786514 1_556
B3 Ni3 2.112636 1_555
B3 Pr3 2.896253 1_555
B3 Pr2 2.896598 1_455
B3 Pr1 2.916528 1_455
B3 Pr0 2.917027 1_566
B4 B6 1.741453 1_565
B4 B9 1.758136 1_555
B4 Ni1 2.112864 1_555
B4 Pr3 2.896667 1_555
B4 Pr2 2.896676 1_565
B4 Pr1 2.915659 1_555
B4 Pr0 2.916937 1_666
B5 B7 1.741471 1_545
B5 B8 1.758219 1_555
B5 Ni0 2.112901 1_555
B5 Pr2 2.896631 1_555
B5 Pr3 2.896638 1_545
B5 Pr0 2.915693 1_555
B5 Pr1 2.916969 1_444
B6 Ni0 2.112540 1_555
B6 Pr2 2.896178 1_555
B6 Pr3 2.896521 1_545
B6 Pr1 2.916564 1_545
B6 Pr0 2.917061 1_656
B7 Ni1 2.112585 1_555
B7 Pr3 2.896146 1_555
B7 Pr2 2.896489 1_565
B7 Pr0 2.916598 1_565
B7 Pr1 2.917095 1_454
B8 Ni3 2.232265 1_555
B8 Ni0 2.232312 1_555
B8 Pr1 2.838611 1_555
B8 Pr2 2.858096 1_555
B8 Pr3 2.858164 1_555
B8 Pr0 2.925822 1_555
B9 Ni1 2.232150 1_555
B9 Ni2 2.232177 1_555
B9 Pr1 2.839630 1_554
B9 Pr2 2.858395 1_565
B9 Pr3 2.858401 1_655
B9 Pr0 2.927246 1_666
B10 B15 1.745459 1_546
B10 B6 1.757575 1_555
B10 B2 1.757887 1_556
B10 Ni0 2.232517 1_555
B10 Ni2 2.233443 1_556
B10 Pr0 2.839852 1_556
B10 Pr3 2.858112 1_545
B10 Pr2 2.858361 1_556
B10 Pr1 2.925724 1_545
B11 B14 1.745458 1_456
B11 B3 1.757581 1_555
B11 B7 1.757865 1_556
B11 Ni3 2.232553 1_555
B11 Ni1 2.233496 1_556
B11 Pr0 2.839855 1_556
B11 Pr2 2.858148 1_455
B11 Pr3 2.858329 1_556
B11 Pr1 2.925722 1_455
B12 B8 1.745942 1_555
B12 B4 1.758230 1_555
B12 Ni1 2.232241 1_555
B12 Ni2 2.232274 1_555
B12 Pr0 2.838612 1_555
B12 Pr3 2.858125 1_555
B12 Pr2 2.858131 1_555
B12 Pr1 2.925819 1_555
B13 B9 1.745480 1_445
B13 B5 1.758126 1_555
B13 Ni3 2.232176 1_555
B13 Ni0 2.232221 1_555
B13 Pr0 2.839632 1_556
B13 Pr3 2.858367 1_545
B13 Pr2 2.858431 1_455
B13 Pr1 2.927245 1_444
B14 B2 1.757586 1_555
B14 B6 1.757877 1_554
B14 Ni2 2.232531 1_555
B14 Ni0 2.233424 1_554
B14 Pr1 2.839852 1_554
B14 Pr3 2.858127 1_655
B14 Pr2 2.858347 1_554
B14 Pr0 2.925724 1_655
B15 B7 1.757563 1_555
B15 B3 1.757881 1_554
B15 Ni1 2.232593 1_555
B15 Ni3 2.233460 1_554
B15 Pr1 2.839855 1_554
B15 Pr2 2.858094 1_565
B15 Pr3 2.858383 1_554
B15 Pr0 2.925723 1_565
