# generated using pymatgen
data_Fe3CoSb2(PO4)6
_symmetry_space_group_name_H-M   'P 1'
_cell_length_a   8.80823553
_cell_length_b   8.80823553
_cell_length_c   8.80823552
_cell_angle_alpha   58.70195505
_cell_angle_beta   58.70195505
_cell_angle_gamma   58.70196213
_symmetry_Int_Tables_number   1
_chemical_formula_structural   Fe3CoSb2(PO4)6
_chemical_formula_sum   'Fe3 Co1 Sb2 P6 O24'
_cell_volume   468.89513336
_cell_formula_units_Z   1
loop_
 _symmetry_equiv_pos_site_id
 _symmetry_equiv_pos_as_xyz
  1  'x, y, z'
loop_
 _atom_site_type_symbol
 _atom_site_label
 _atom_site_symmetry_multiplicity
 _atom_site_fract_x
 _atom_site_fract_y
 _atom_site_fract_z
 _atom_site_occupancy
  Fe  Fe0  1  0.85254900  0.85254900  0.85254900  1
  Fe  Fe1  1  0.64914000  0.64914000  0.64914000  1
  Fe  Fe2  1  0.35128300  0.35128300  0.35128300  1
  Co  Co0  1  0.14604500  0.14604500  0.14604500  1
  Sb  Sb0  1  0.00168700  0.00168700  0.00168700  1
  Sb  Sb1  1  0.50107400  0.50107400  0.50107400  1
  P  P0  1  0.24881200  0.53398300  0.96320900  1
  P  P1  1  0.96320900  0.24881200  0.53398300  1
  P  P2  1  0.53398300  0.96320900  0.24881200  1
  P  P3  1  0.45907000  0.04175600  0.75282500  1
  P  P4  1  0.04175600  0.75282500  0.45907000  1
  P  P5  1  0.75282500  0.45907000  0.04175600  1
  O  O0  1  0.70392000  0.48761500  0.88357600  1
  O  O1  1  0.48761500  0.88357600  0.70392000  1
  O  O2  1  0.08210700  0.72921200  0.94190400  1
  O  O3  1  0.88357600  0.70392000  0.48761500  1
  O  O4  1  0.20093900  0.37522800  0.99171400  1
  O  O5  1  0.41747700  0.55717600  0.76804900  1
  O  O6  1  0.94190400  0.08210700  0.72921100  1
  O  O7  1  0.76804900  0.41747700  0.55717600  1
  O  O8  1  0.61673800  0.00855400  0.80319500  1
  O  O9  1  0.55717600  0.76804900  0.41747700  1
  O  O10  1  0.26484400  0.06137500  0.92392100  1
  O  O11  1  0.00855400  0.80319500  0.61673800  1
  O  O12  1  0.99171400  0.20093900  0.37522800  1
  O  O13  1  0.72921100  0.94190400  0.08210700  1
  O  O14  1  0.43710600  0.23385700  0.58475900  1
  O  O15  1  0.37522800  0.99171400  0.20093900  1
  O  O16  1  0.23385700  0.58475900  0.43710600  1
  O  O17  1  0.06137500  0.92392100  0.26484400  1
  O  O18  1  0.58475900  0.43710600  0.23385700  1
  O  O19  1  0.80319500  0.61673800  0.00855400  1
  O  O20  1  0.11690900  0.30232700  0.50606400  1
  O  O21  1  0.92392100  0.26484400  0.06137500  1
  O  O22  1  0.50606400  0.11690900  0.30232700  1
  O  O23  1  0.30232700  0.50606400  0.11690900  1
loop_
_geom_bond_atom_site_label_1
_geom_bond_atom_site_label_2
_geom_bond_distance
_geom_bond_site_symmetry_2
Fe0 O19 1.934823 1_556
Fe0 O11 1.934823 1_655
Fe0 O8 1.934823 1_565
Fe0 O6 2.090687 1_565
Fe0 O13 2.090687 1_556
Fe0 O2 2.090689 1_655
Fe1 O3 1.946955 1_555
Fe1 O0 1.946955 1_555
Fe1 O1 1.946956 1_555
Fe1 O5 2.128923 1_555
Fe1 O9 2.128923 1_555
Fe1 O7 2.128923 1_555
Fe2 O20 1.922593 1_555
Fe2 O23 1.922593 1_555
Fe2 O22 1.922593 1_555
Fe2 O18 2.112667 1_555
Fe2 O14 2.112667 1_555
Fe2 O16 2.112667 1_555
Co0 O4 1.907071 1_554
Co0 O12 1.907071 1_455
Co0 O15 1.907071 1_545
Co0 O17 2.014259 1_545
Co0 O10 2.014259 1_554
Co0 O21 2.014259 1_455
O0 P5 1.528758 1_556
O1 P3 1.528758 1_565
O2 P0 1.573526 1_555
O2 Sb0 2.387123 1_566
O3 P4 1.528758 1_655
O4 P0 1.527774 1_555
O5 P0 1.581441 1_555
O5 Sb1 2.312261 1_555
O6 P1 1.573521 1_555
O6 Sb0 2.387131 1_656
O7 P1 1.581441 1_555
O7 Sb1 2.312261 1_555
O8 P3 1.514747 1_555
O9 P2 1.581441 1_555
O9 Sb1 2.312261 1_555
O10 P3 1.585100 1_555
O10 Sb0 2.315350 1_556
O11 P4 1.514747 1_555
O12 P1 1.527774 1_555
O13 P2 1.573521 1_555
O13 Sb0 2.387131 1_665
O14 P3 1.564269 1_555
O14 Sb1 2.354685 1_555
O15 P2 1.527774 1_555
O16 P4 1.564269 1_555
O16 Sb1 2.354685 1_555
O17 P4 1.585100 1_555
O17 Sb0 2.315350 1_565
O18 P5 1.564268 1_555
O18 Sb1 2.354685 1_555
O19 P5 1.514747 1_555
O20 P1 1.520592 1_455
O21 P5 1.585100 1_555
O21 Sb0 2.315350 1_655
O22 P2 1.520592 1_545
O23 P0 1.520592 1_554
