# generated using pymatgen
data_Ta8Cr3O24
_symmetry_space_group_name_H-M   'P 1'
_cell_length_a   10.44170052
_cell_length_b   10.44170052
_cell_length_c   10.44170052
_cell_angle_alpha   142.33612720
_cell_angle_beta   142.14644719
_cell_angle_gamma   54.46566152
_symmetry_Int_Tables_number   1
_chemical_formula_structural   Ta8Cr3O24
_chemical_formula_sum   'Ta8 Cr3 O24'
_cell_volume   423.93765795
_cell_formula_units_Z   1
loop_
 _symmetry_equiv_pos_site_id
 _symmetry_equiv_pos_as_xyz
  1  'x, y, z'
loop_
 _atom_site_type_symbol
 _atom_site_label
 _atom_site_symmetry_multiplicity
 _atom_site_fract_x
 _atom_site_fract_y
 _atom_site_fract_z
 _atom_site_occupancy
  Ta  Ta0  1  0.32396400  0.82396400  0.50000000  1
  Ta  Ta1  1  0.15253100  0.65253100  0.50000000  1
  Ta  Ta2  1  0.50049000  0.00049000  0.50000000  1
  Ta  Ta3  1  0.08431700  0.08431700  0.00000000  1
  Ta  Ta4  1  0.91479300  0.91479300  0.00000000  1
  Ta  Ta5  1  0.42268800  0.42268800  0.00000000  1
  Ta  Ta6  1  0.83458200  0.33458200  0.50000000  1
  Ta  Ta7  1  0.67213900  0.17213900  0.50000000  1
  Cr  Cr0  1  0.25275200  0.25275200  0.00000000  1
  Cr  Cr1  1  0.74282500  0.74282500  0.00000000  1
  Cr  Cr2  1  0.00008700  0.50008700  0.50000000  1
  O  O0  1  0.48934800  0.27508200  0.78573400  1
  O  O1  1  0.99984500  0.80936900  0.80952400  1
  O  O2  1  0.16439000  0.97106300  0.80667300  1
  O  O3  1  0.27305800  0.58235000  0.69070900  1
  O  O4  1  0.44783700  0.75134800  0.69648800  1
  O  O5  1  0.05486000  0.75134800  0.30351200  1
  O  O6  1  0.89164100  0.58235000  0.30929100  1
  O  O7  1  0.38388500  0.08126400  0.30262100  1
  O  O8  1  0.21735500  0.91609600  0.30125900  1
  O  O9  1  0.33609300  0.53701200  0.20091900  1
  O  O10  1  0.67855500  0.89801800  0.21946300  1
  O  O11  1  0.16439000  0.35771800  0.19332700  1
  O  O12  1  0.33609300  0.13517500  0.79908100  1
  O  O13  1  0.83745900  0.63912200  0.80166300  1
  O  O14  1  0.67855500  0.45909200  0.78053700  1
  O  O15  1  0.77864300  0.08126400  0.69737900  1
  O  O16  1  0.61483700  0.91609600  0.69874100  1
  O  O17  1  0.11517200  0.41503200  0.70014000  1
  O  O18  1  0.95162300  0.25585500  0.69576800  1
  O  O19  1  0.56008700  0.25585500  0.30423200  1
  O  O20  1  0.71489200  0.41503200  0.29986000  1
  O  O21  1  0.83745900  0.03579600  0.19833700  1
  O  O22  1  0.99984500  0.19032100  0.19047600  1
  O  O23  1  0.48934800  0.70361400  0.21426600  1
loop_
_geom_bond_atom_site_label_1
_geom_bond_atom_site_label_2
_geom_bond_distance
_geom_bond_site_symmetry_2
Cr0 O9 2.056508 1_555
Cr0 O12 2.056513 1_554
Cr0 O19 2.061591 1_555
Cr0 O18 2.061591 1_454
Cr0 O11 2.095339 1_555
Cr0 O2 2.095344 1_544
Cr1 O10 1.900749 1_555
Cr1 O14 1.900749 1_554
Cr1 O4 2.061988 1_554
Cr1 O5 2.061991 1_655
Cr1 O21 2.208023 1_565
Cr1 O13 2.208023 1_554
Cr2 O3 2.000503 1_555
Cr2 O6 2.000513 1_455
Cr2 O17 2.081406 1_555
Cr2 O20 2.081406 1_455
Cr2 O22 2.086513 1_455
Cr2 O1 2.086513 1_455
O0 Ta5 1.902186 1_556
O0 Ta2 1.937219 1_555
O1 Ta3 2.027050 1_666
O1 Ta4 2.035395 1_556
O2 Ta3 1.977140 1_566
O2 Ta1 2.078984 1_555
O3 Ta1 1.834944 1_555
O4 Ta0 1.894609 1_555
O4 Ta1 2.266784 1_555
O5 Ta0 1.894614 1_555
O5 Ta1 2.266775 1_555
O6 Ta1 1.834940 1_655
O7 Ta2 2.009259 1_555
O7 Ta3 2.050657 1_555
O7 Ta7 2.152888 1_555
O8 Ta4 2.040791 1_455
O8 Ta2 2.065921 1_565
O8 Ta0 2.176924 1_555
O9 Ta0 2.028652 1_555
O9 Ta5 2.102352 1_555
O10 Ta7 1.894855 1_565
O11 Ta3 1.977149 1_555
O11 Ta1 2.078982 1_555
O12 Ta0 2.028656 1_545
O12 Ta5 2.102343 1_556
O13 Ta4 1.962039 1_556
O13 Ta6 2.034219 1_555
O14 Ta7 1.894855 1_555
O15 Ta2 2.009259 1_555
O15 Ta3 2.050657 1_656
O15 Ta7 2.152888 1_555
O16 Ta4 2.040791 1_556
O16 Ta2 2.065921 1_565
O16 Ta0 2.176924 1_555
O17 Ta6 2.017292 1_455
O17 Ta5 2.036139 1_556
O18 Ta6 1.973698 1_555
O18 Ta7 2.043261 1_555
O19 Ta6 1.973698 1_555
O19 Ta7 2.043261 1_555
O20 Ta6 2.017292 1_555
O20 Ta5 2.036139 1_555
O21 Ta4 1.962039 1_545
O21 Ta6 2.034219 1_555
O22 Ta3 2.027050 1_655
O22 Ta4 2.035395 1_545
O23 Ta5 1.902186 1_555
O23 Ta2 1.937219 1_565
