# generated using pymatgen
data_LiMnPO4
_symmetry_space_group_name_H-M   'P 1'
_cell_length_a   11.01167900
_cell_length_b   5.88452900
_cell_length_c   10.00689500
_cell_angle_alpha   88.72720798
_cell_angle_beta   90.00000000
_cell_angle_gamma   90.00000000
_symmetry_Int_Tables_number   1
_chemical_formula_structural   LiMnPO4
_chemical_formula_sum   'Li8 Mn8 P8 O32'
_cell_volume   648.27224250
_cell_formula_units_Z   8
loop_
 _symmetry_equiv_pos_site_id
 _symmetry_equiv_pos_as_xyz
  1  'x, y, z'
loop_
 _atom_site_type_symbol
 _atom_site_label
 _atom_site_symmetry_multiplicity
 _atom_site_fract_x
 _atom_site_fract_y
 _atom_site_fract_z
 _atom_site_occupancy
  Li  Li0  1  0.15616200  0.88784500  0.86222700  1
  Li  Li1  1  0.34383800  0.88784500  0.36222700  1
  Li  Li2  1  0.65283000  0.61624900  0.60506400  1
  Li  Li3  1  0.84717000  0.61624900  0.10506400  1
  Li  Li4  1  0.15283000  0.38375100  0.89493600  1
  Li  Li5  1  0.34717000  0.38375100  0.39493600  1
  Li  Li6  1  0.65616200  0.11215500  0.63777300  1
  Li  Li7  1  0.84383800  0.11215500  0.13777300  1
  Mn  Mn0  1  0.87394300  0.84927400  0.51124400  1
  Mn  Mn1  1  0.62605700  0.84927400  0.01124400  1
  Mn  Mn2  1  0.40437000  0.62200200  0.76380900  1
  Mn  Mn3  1  0.09563000  0.62200200  0.26380900  1
  Mn  Mn4  1  0.90437000  0.37799800  0.73619100  1
  Mn  Mn5  1  0.59563000  0.37799800  0.23619100  1
  Mn  Mn6  1  0.37394300  0.15072600  0.98875600  1
  Mn  Mn7  1  0.12605700  0.15072600  0.48875600  1
  P  P0  1  0.89210300  0.87095500  0.84262000  1
  P  P1  1  0.60789700  0.87095500  0.34262000  1
  P  P2  1  0.14438800  0.62727000  0.59526800  1
  P  P3  1  0.35561200  0.62727000  0.09526800  1
  P  P4  1  0.64438800  0.37273000  0.90473200  1
  P  P5  1  0.85561200  0.37273000  0.40473200  1
  P  P6  1  0.39210300  0.12904500  0.65738000  1
  P  P7  1  0.10789700  0.12904500  0.15738000  1
  O  O0  1  0.81361300  0.89267000  0.97259300  1
  O  O1  1  0.47872400  0.92093900  0.67078400  1
  O  O2  1  0.68638700  0.89267000  0.47259300  1
  O  O3  1  0.02127600  0.92093900  0.17078400  1
  O  O4  1  0.80771500  0.85597100  0.71638700  1
  O  O5  1  0.06128400  0.83780200  0.57137800  1
  O  O6  1  0.69228500  0.85597100  0.21638700  1
  O  O7  1  0.43871600  0.83780200  0.07137800  1
  O  O8  1  0.22271900  0.67120100  0.71892600  1
  O  O9  1  0.96954300  0.64918000  0.85703100  1
  O  O10  1  0.27728100  0.67120100  0.21892600  1
  O  O11  1  0.53045700  0.64918000  0.35703100  1
  O  O12  1  0.56679500  0.59102600  0.87571100  1
  O  O13  1  0.28174900  0.58427100  0.96635600  1
  O  O14  1  0.93320500  0.59102600  0.37571100  1
  O  O15  1  0.21825100  0.58427100  0.46635600  1
  O  O16  1  0.78174900  0.41572900  0.53364400  1
  O  O17  1  0.06679500  0.40897400  0.62428900  1
  O  O18  1  0.71825100  0.41572900  0.03364400  1
  O  O19  1  0.43320500  0.40897400  0.12428900  1
  O  O20  1  0.46954300  0.35082000  0.64296900  1
  O  O21  1  0.72271900  0.32879900  0.78107400  1
  O  O22  1  0.03045700  0.35082000  0.14296900  1
  O  O23  1  0.77728100  0.32879900  0.28107400  1
  O  O24  1  0.56128400  0.16219800  0.92862200  1
  O  O25  1  0.30771500  0.14402900  0.78361300  1
  O  O26  1  0.93871600  0.16219800  0.42862200  1
  O  O27  1  0.19228500  0.14402900  0.28361300  1
  O  O28  1  0.97872400  0.07906100  0.82921600  1
  O  O29  1  0.31361300  0.10733000  0.52740700  1
  O  O30  1  0.52127600  0.07906100  0.32921600  1
  O  O31  1  0.18638700  0.10733000  0.02740700  1
loop_
_geom_bond_atom_site_label_1
_geom_bond_atom_site_label_2
_geom_bond_distance
_geom_bond_site_symmetry_2
Li0 O8 2.073632 1_555
Li0 O31 2.146151 1_566
Li0 O28 2.275172 1_465
Li0 O25 2.371471 1_565
Li0 O13 2.471185 1_555
Li0 O9 2.490251 1_455
Li1 O10 2.073632 1_555
Li1 O29 2.146151 1_565
Li1 O30 2.275172 1_565
Li1 O27 2.371471 1_565
Li1 O15 2.471185 1_555
Li1 O11 2.490251 1_555
Li2 O16 1.988938 1_555
Li2 O2 2.108051 1_555
Li2 O4 2.491911 1_555
Li2 O21 2.534432 1_555
Li2 O20 2.575013 1_555
Li3 O18 1.988938 1_555
Li3 O0 2.108051 1_554
Li3 O6 2.491911 1_555
Li3 O23 2.534432 1_555
Li3 O22 2.575013 1_655
Li4 O13 1.988938 1_555
Li4 O31 2.108051 1_556
Li4 O25 2.491911 1_555
Li4 O8 2.534432 1_555
Li4 O9 2.575013 1_455
Li5 O15 1.988938 1_555
Li5 O29 2.108051 1_555
Li5 O27 2.491911 1_555
Li5 O10 2.534432 1_555
Li5 O11 2.575013 1_555
Li6 O21 2.073632 1_555
Li6 O2 2.146151 1_545
Li6 O1 2.275172 1_545
Li6 O4 2.371471 1_545
Li6 O16 2.471185 1_555
Li6 O20 2.490251 1_555
Li7 O23 2.073632 1_555
Li7 O0 2.146151 1_544
Li7 O3 2.275172 1_645
Li7 O6 2.371471 1_545
Li7 O18 2.471185 1_555
Li7 O22 2.490251 1_655
Mn0 O2 2.115635 1_555
Mn0 O26 2.124965 1_565
Mn0 O5 2.149553 1_655
Mn0 O14 2.160153 1_555
Mn0 O4 2.179718 1_555
Mn1 O0 2.115635 1_554
Mn1 O24 2.124965 1_564
Mn1 O7 2.149553 1_555
Mn1 O12 2.160153 1_554
Mn1 O6 2.179718 1_555
Mn2 O8 2.069033 1_555
Mn2 O12 2.115911 1_555
Mn2 O1 2.135094 1_555
Mn2 O20 2.146980 1_555
Mn2 O13 2.441455 1_555
Mn3 O10 2.069033 1_555
Mn3 O14 2.115911 1_455
Mn3 O3 2.135094 1_555
Mn3 O22 2.146980 1_555
Mn3 O15 2.441455 1_555
Mn4 O21 2.069033 1_555
Mn4 O17 2.115911 1_655
Mn4 O28 2.135094 1_555
Mn4 O9 2.146980 1_555
Mn4 O16 2.441455 1_555
Mn5 O23 2.069033 1_555
Mn5 O19 2.115911 1_555
Mn5 O30 2.135094 1_555
Mn5 O11 2.146980 1_555
Mn5 O18 2.441455 1_555
Mn6 O31 2.115635 1_556
Mn6 O7 2.124965 1_546
Mn6 O24 2.149553 1_555
Mn6 O19 2.160153 1_556
Mn6 O25 2.179718 1_555
Mn7 O29 2.115635 1_555
Mn7 O5 2.124965 1_545
Mn7 O26 2.149553 1_455
Mn7 O17 2.160153 1_555
Mn7 O27 2.179718 1_555
O0 P0 1.569193 1_555
O1 P6 1.555689 1_565
O2 P1 1.569193 1_555
O3 P7 1.555689 1_565
O4 P0 1.572231 1_555
O5 P2 1.554431 1_555
O6 P1 1.572231 1_555
O7 P3 1.554431 1_555
O8 P2 1.535019 1_555
O9 P0 1.562927 1_555
O10 P3 1.535019 1_555
O11 P1 1.562927 1_555
O12 P4 1.564587 1_555
O13 P3 1.550547 1_556
O14 P5 1.564587 1_555
O15 P2 1.550547 1_555
O16 P5 1.550547 1_555
O17 P2 1.564587 1_555
O18 P4 1.550547 1_554
O19 P3 1.564587 1_555
O20 P6 1.562927 1_555
O21 P4 1.535019 1_555
O22 P7 1.562927 1_555
O23 P5 1.535019 1_555
O24 P4 1.554431 1_555
O25 P6 1.572231 1_555
O26 P5 1.554431 1_555
O27 P7 1.572231 1_555
O28 P0 1.555689 1_545
O29 P6 1.569193 1_555
O30 P1 1.555689 1_545
O31 P7 1.569193 1_555
