# generated using pymatgen
data_KPPdS4
_symmetry_space_group_name_H-M   'P 1'
_cell_length_a   8.76130000
_cell_length_b   8.76130000
_cell_length_c   10.74041100
_cell_angle_alpha   90.00000000
_cell_angle_beta   90.00000000
_cell_angle_gamma   90.00000000
_symmetry_Int_Tables_number   1
_chemical_formula_structural   KPPdS4
_chemical_formula_sum   'K4 P4 Pd4 S16'
_cell_volume   824.43800491
_cell_formula_units_Z   4
loop_
 _symmetry_equiv_pos_site_id
 _symmetry_equiv_pos_as_xyz
  1  'x, y, z'
loop_
 _atom_site_type_symbol
 _atom_site_label
 _atom_site_symmetry_multiplicity
 _atom_site_fract_x
 _atom_site_fract_y
 _atom_site_fract_z
 _atom_site_occupancy
  K  K0  1  0.00000000  0.50000000  0.75000000  1
  K  K1  1  0.50000000  0.00000000  0.75000000  1
  K  K2  1  0.50000000  0.00000000  0.25000000  1
  K  K3  1  0.00000000  0.50000000  0.25000000  1
  P  P0  1  0.74893800  0.74893800  0.00000000  1
  P  P1  1  0.25106200  0.25106200  0.00000000  1
  P  P2  1  0.24893800  0.75106200  0.50000000  1
  P  P3  1  0.75106200  0.24893800  0.50000000  1
  Pd  Pd0  1  0.50000000  0.50000000  0.50000000  1
  Pd  Pd1  1  0.00000000  0.00000000  0.00000000  1
  Pd  Pd2  1  0.50000000  0.50000000  0.00000000  1
  Pd  Pd3  1  0.00000000  0.00000000  0.50000000  1
  S  S0  1  0.35746000  0.35746000  0.14641500  1
  S  S1  1  0.64254000  0.64254000  0.14641500  1
  S  S2  1  0.14254000  0.85746000  0.35358500  1
  S  S3  1  0.85746000  0.14254000  0.35358500  1
  S  S4  1  0.64254000  0.64254000  0.85358500  1
  S  S5  1  0.35746000  0.35746000  0.85358500  1
  S  S6  1  0.14254000  0.85746000  0.64641500  1
  S  S7  1  0.85746000  0.14254000  0.64641500  1
  S  S8  1  0.51695800  0.23236800  0.50000000  1
  S  S9  1  0.48304200  0.76763200  0.50000000  1
  S  S10  1  0.98304200  0.73236800  0.00000000  1
  S  S11  1  0.01695800  0.26763200  0.00000000  1
  S  S12  1  0.76763200  0.48304200  0.50000000  1
  S  S13  1  0.23236800  0.51695800  0.50000000  1
  S  S14  1  0.26763200  0.01695800  0.00000000  1
  S  S15  1  0.73236800  0.98304200  0.00000000  1
loop_
_geom_bond_atom_site_label_1
_geom_bond_atom_site_label_2
_geom_bond_distance
_geom_bond_site_symmetry_2
K0 S13 3.372910 1_555
K0 S11 3.372910 1_556
K0 S10 3.372910 1_456
K0 S12 3.372910 1_455
K0 S5 3.550438 1_555
K0 S4 3.550438 1_455
K0 S7 3.550438 1_455
K0 S6 3.550438 1_555
K1 S15 3.372910 1_546
K1 S8 3.372910 1_555
K1 S14 3.372910 1_556
K1 S9 3.372910 1_545
K1 S5 3.550438 1_555
K1 S4 3.550438 1_545
K1 S6 3.550438 1_545
K1 S7 3.550438 1_555
K2 S14 3.372910 1_555
K2 S8 3.372910 1_555
K2 S15 3.372910 1_545
K2 S9 3.372910 1_545
K2 S2 3.550438 1_545
K2 S1 3.550438 1_545
K2 S0 3.550438 1_555
K2 S3 3.550438 1_555
K3 S13 3.372910 1_555
K3 S11 3.372910 1_555
K3 S10 3.372910 1_455
K3 S12 3.372910 1_455
K3 S3 3.550438 1_455
K3 S0 3.550438 1_555
K3 S1 3.550438 1_455
K3 S2 3.550438 1_555
P0 S1 2.052041 1_555
P0 S4 2.052041 1_554
P0 S15 2.056187 1_555
P0 S10 2.056187 1_555
P1 S0 2.052041 1_555
P1 S5 2.052041 1_554
P1 S14 2.056187 1_555
P1 S11 2.056187 1_555
P2 S6 2.052041 1_555
P2 S2 2.052041 1_555
P2 S9 2.056187 1_555
P2 S13 2.056187 1_555
P3 S7 2.052041 1_555
P3 S3 2.052041 1_555
P3 S12 2.056187 1_555
P3 S8 2.056187 1_555
Pd0 S8 2.349507 1_555
Pd0 S13 2.349507 1_555
Pd0 S9 2.349507 1_555
Pd0 S12 2.349507 1_555
Pd1 S14 2.349507 1_555
Pd1 S15 2.349507 1_445
Pd1 S10 2.349507 1_445
Pd1 S11 2.349507 1_555
Pd2 S0 2.364766 1_555
Pd2 S1 2.364766 1_555
Pd2 S5 2.364766 1_554
Pd2 S4 2.364766 1_554
Pd3 S6 2.364766 1_545
Pd3 S7 2.364766 1_455
Pd3 S3 2.364766 1_455
Pd3 S2 2.364766 1_545
