# generated using pymatgen
data_Li2CrCoO4
_symmetry_space_group_name_H-M   'P 1'
_cell_length_a   5.79147900
_cell_length_b   5.79409373
_cell_length_c   5.79450129
_cell_angle_alpha   119.94589125
_cell_angle_beta   89.58597775
_cell_angle_gamma   119.94220686
_symmetry_Int_Tables_number   1
_chemical_formula_structural   Li2CrCoO4
_chemical_formula_sum   'Li4 Cr2 Co2 O8'
_cell_volume   138.21001106
_cell_formula_units_Z   2
loop_
 _symmetry_equiv_pos_site_id
 _symmetry_equiv_pos_as_xyz
  1  'x, y, z'
loop_
 _atom_site_type_symbol
 _atom_site_label
 _atom_site_symmetry_multiplicity
 _atom_site_fract_x
 _atom_site_fract_y
 _atom_site_fract_z
 _atom_site_occupancy
  Li  Li0  1  0.49316600  0.00405600  0.49346900  1
  Li  Li1  1  0.99317800  0.50862800  0.98988200  1
  Li  Li2  1  0.99746100  0.50192900  0.49687600  1
  Li  Li3  1  0.99793000  0.00312700  0.49464400  1
  Cr  Cr0  1  0.99827900  0.00060100  0.99783500  1
  Cr  Cr1  1  0.49818800  0.50094200  0.49773600  1
  Co  Co0  1  0.49812600  0.00099400  0.99762700  1
  Co  Co1  1  0.49804400  0.50122200  0.99750900  1
  O  O0  1  0.73802600  0.46856700  0.75682300  1
  O  O1  1  0.27690000  0.98830700  0.76607800  1
  O  O2  1  0.25726500  0.00693300  0.23772300  1
  O  O3  1  0.72982600  0.53448100  0.21921800  1
  O  O4  1  0.26646700  0.46761800  0.77602700  1
  O  O5  1  0.73881800  0.99527400  0.75740800  1
  O  O6  1  0.71943400  0.01392800  0.22918500  1
  O  O7  1  0.25841100  0.53341300  0.23846500  1
loop_
_geom_bond_atom_site_label_1
_geom_bond_atom_site_label_2
_geom_bond_distance
_geom_bond_site_symmetry_2
Li0 O0 1.924651 1_555
Li0 O7 1.942492 1_545
Li0 O6 2.012283 1_555
Li0 O1 2.018303 1_545
Li0 O2 2.034593 1_555
Li0 O5 2.132389 1_545
Li1 O0 1.853302 1_555
Li1 O7 2.015006 1_656
Li1 O3 2.028460 1_556
Li1 O4 2.037214 1_655
Li1 O2 2.054679 1_666
Li1 O5 2.118093 1_545
Li2 O1 2.022153 1_655
Li2 O6 2.026358 1_555
Li2 O7 2.127005 1_655
Li2 O0 2.128799 1_555
Li2 O3 2.378537 1_555
Li2 O4 2.397871 1_655
Li3 O4 1.948781 1_655
Li3 O3 1.957478 1_545
Li3 O2 2.107131 1_655
Li3 O5 2.130786 1_545
Li3 O6 2.281264 1_555
Li3 O1 2.324118 1_645
Cr0 O2 2.026710 1_656
Cr0 O5 2.034909 1_545
Cr0 O1 2.097669 1_645
Cr0 O6 2.097830 1_556
Cr0 O0 2.195242 1_545
Cr0 O7 2.198741 1_656
Cr1 O2 2.036634 1_555
Cr1 O5 2.037871 1_555
Cr1 O4 2.111756 1_555
Cr1 O3 2.112728 1_555
Cr1 O0 2.188559 1_555
Cr1 O7 2.189514 1_555
Co0 O6 1.810327 1_556
Co0 O1 1.810936 1_545
Co0 O5 1.963103 1_545
Co0 O2 1.963329 1_556
Co0 O4 2.218932 1_545
Co0 O3 2.219433 1_556
Co1 O4 1.731601 1_555
Co1 O3 1.734657 1_556
Co1 O7 1.969948 1_556
Co1 O0 1.970685 1_555
Co1 O6 2.124188 1_566
Co1 O1 2.125353 1_545
