# generated using pymatgen
data_Sc2NiOs
_symmetry_space_group_name_H-M   'P 1'
_cell_length_a   4.49914327
_cell_length_b   4.49913965
_cell_length_c   4.49913892
_cell_angle_alpha   59.99998404
_cell_angle_beta   60.00002126
_cell_angle_gamma   59.99993065
_symmetry_Int_Tables_number   1
_chemical_formula_structural   Sc2NiOs
_chemical_formula_sum   'Sc2 Ni1 Os1'
_cell_volume   64.39816483
_cell_formula_units_Z   1
loop_
 _symmetry_equiv_pos_site_id
 _symmetry_equiv_pos_as_xyz
  1  'x, y, z'
loop_
 _atom_site_type_symbol
 _atom_site_label
 _atom_site_symmetry_multiplicity
 _atom_site_fract_x
 _atom_site_fract_y
 _atom_site_fract_z
 _atom_site_occupancy
  Sc  Sc0  1  -0.00000000  0.00000000  0.00000000  1
  Sc  Sc1  1  0.50000100  0.50000100  0.50000100  1
  Ni  Ni0  1  0.25000100  0.25000100  0.25000000  1
  Os  Os0  1  0.75000000  0.75000000  0.75000000  1
loop_
_geom_bond_atom_site_label_1
_geom_bond_atom_site_label_2
_geom_bond_distance
_geom_bond_site_symmetry_2
Ni0 Sc0 2.755144 1_565
Ni0 Sc1 2.755146 1_554
Ni0 Sc0 2.755147 1_655
Ni0 Sc1 2.755147 1_545
Ni0 Sc0 2.755149 1_556
Ni0 Sc1 2.755150 1_455
Ni0 Sc1 2.755154 1_555
Ni0 Sc0 2.755157 1_555
Os0 Sc1 2.755139 1_555
Os0 Sc0 2.755147 1_656
Os0 Sc0 2.755149 1_665
Os0 Sc0 2.755150 1_666
Os0 Sc0 2.755150 1_566
Os0 Sc1 2.755151 1_565
Os0 Sc1 2.755153 1_556
Os0 Sc1 2.755154 1_655
