# generated using pymatgen
data_Pm2MgAl
_symmetry_space_group_name_H-M   'P 1'
_cell_length_a   5.32591491
_cell_length_b   5.32591491
_cell_length_c   5.32591491
_cell_angle_alpha   60.00000000
_cell_angle_beta   60.00000000
_cell_angle_gamma   60.00000000
_symmetry_Int_Tables_number   1
_chemical_formula_structural   Pm2MgAl
_chemical_formula_sum   'Pm2 Mg1 Al1'
_cell_volume   106.82371403
_cell_formula_units_Z   1
loop_
 _symmetry_equiv_pos_site_id
 _symmetry_equiv_pos_as_xyz
  1  'x, y, z'
loop_
 _atom_site_type_symbol
 _atom_site_label
 _atom_site_symmetry_multiplicity
 _atom_site_fract_x
 _atom_site_fract_y
 _atom_site_fract_z
 _atom_site_occupancy
  Pm  Pm0  1  -0.00000000  0.00000000  -0.00000000  1
  Pm  Pm1  1  0.50000000  0.50000000  0.50000000  1
  Mg  Mg0  1  0.75000000  0.75000000  0.75000000  1
  Al  Al0  1  0.25000100  0.25000100  0.25000100  1
loop_
_geom_bond_atom_site_label_1
_geom_bond_atom_site_label_2
_geom_bond_distance
_geom_bond_site_symmetry_2
Mg0 Pm0 3.261443 1_566
Mg0 Pm0 3.261443 1_666
Mg0 Pm1 3.261443 1_555
Mg0 Pm1 3.261443 1_565
Mg0 Pm1 3.261443 1_655
Mg0 Pm0 3.261443 1_656
Mg0 Pm0 3.261443 1_665
Mg0 Pm1 3.261443 1_556
Al0 Pm1 3.261430 1_555
Al0 Pm0 3.261439 1_655
Al0 Pm0 3.261439 1_556
Al0 Pm0 3.261439 1_565
Al0 Pm1 3.261448 1_554
Al0 Pm1 3.261448 1_545
Al0 Pm1 3.261448 1_455
Al0 Pm0 3.261457 1_555
