# generated using pymatgen
data_Be2CuPt
_symmetry_space_group_name_H-M   'P 1'
_cell_length_a   3.90949949
_cell_length_b   3.90949949
_cell_length_c   3.90949949
_cell_angle_alpha   60.00000000
_cell_angle_beta   60.00000000
_cell_angle_gamma   60.00000000
_symmetry_Int_Tables_number   1
_chemical_formula_structural   Be2CuPt
_chemical_formula_sum   'Be2 Cu1 Pt1'
_cell_volume   42.25211804
_cell_formula_units_Z   1
loop_
 _symmetry_equiv_pos_site_id
 _symmetry_equiv_pos_as_xyz
  1  'x, y, z'
loop_
 _atom_site_type_symbol
 _atom_site_label
 _atom_site_symmetry_multiplicity
 _atom_site_fract_x
 _atom_site_fract_y
 _atom_site_fract_z
 _atom_site_occupancy
  Be  Be0  1  0.50000100  0.50000100  0.50000100  1
  Be  Be1  1  0.00000000  -0.00000000  -0.00000000  1
  Cu  Cu0  1  0.25000000  0.25000000  0.25000000  1
  Pt  Pt0  1  0.74999900  0.74999900  0.74999900  1
loop_
_geom_bond_atom_site_label_1
_geom_bond_atom_site_label_2
_geom_bond_distance
_geom_bond_site_symmetry_2
Be0 Pt0 2.394051 1_555
Be0 Cu0 2.394067 1_556
Be0 Cu0 2.394067 1_565
Be0 Cu0 2.394067 1_655
Be0 Pt0 2.394076 1_455
Be0 Pt0 2.394076 1_545
Be0 Pt0 2.394076 1_554
Be0 Cu0 2.394079 1_555
Be1 Pt0 2.394067 1_544
Be1 Pt0 2.394067 1_445
Be1 Pt0 2.394067 1_454
Be1 Cu0 2.394070 1_455
Be1 Cu0 2.394070 1_554
Be1 Cu0 2.394070 1_545
Be1 Cu0 2.394070 1_555
Be1 Pt0 2.394079 1_444
