# generated using pymatgen
data_Mn12O7F17
_symmetry_space_group_name_H-M   'P 1'
_cell_length_a   4.72988600
_cell_length_b   5.79678781
_cell_length_c   16.02109148
_cell_angle_alpha   89.36405501
_cell_angle_beta   89.63059359
_cell_angle_gamma   87.62228102
_symmetry_Int_Tables_number   1
_chemical_formula_structural   Mn12O7F17
_chemical_formula_sum   'Mn12 O7 F17'
_cell_volume   438.85551031
_cell_formula_units_Z   1
loop_
 _symmetry_equiv_pos_site_id
 _symmetry_equiv_pos_as_xyz
  1  'x, y, z'
loop_
 _atom_site_type_symbol
 _atom_site_label
 _atom_site_symmetry_multiplicity
 _atom_site_fract_x
 _atom_site_fract_y
 _atom_site_fract_z
 _atom_site_occupancy
  Mn  Mn0  1  0.99926800  0.15239500  0.41573000  1
  Mn  Mn1  1  0.02688300  0.83740000  0.23966900  1
  Mn  Mn2  1  0.00391300  0.86009800  0.91616900  1
  Mn  Mn3  1  0.01617200  0.15493400  0.07689800  1
  Mn  Mn4  1  0.03195100  0.85397600  0.57740900  1
  Mn  Mn5  1  0.00792200  0.16544000  0.73895600  1
  Mn  Mn6  1  0.49352700  0.33030800  0.59280900  1
  Mn  Mn7  1  0.49813300  0.32631800  0.92921800  1
  Mn  Mn8  1  0.53393900  0.33777100  0.26012300  1
  Mn  Mn9  1  0.49115000  0.64988800  0.08338400  1
  Mn  Mn10  1  0.50848000  0.65661200  0.41990500  1
  Mn  Mn11  1  0.52527300  0.64199700  0.75068600  1
  O  O0  1  0.22254800  0.11880600  0.63698200  1
  O  O1  1  0.20985800  0.11954100  0.97052100  1
  O  O2  1  0.23416400  0.88769800  0.12840300  1
  O  O3  1  0.22326700  0.88773000  0.46510700  1
  O  O4  1  0.71072000  0.38292500  0.03252400  1
  O  O5  1  0.73568900  0.38909500  0.37171000  1
  O  O6  1  0.71768400  0.36762900  0.69312500  1
  F  F0  1  0.21694900  0.12132200  0.30650200  1
  F  F1  1  0.23703400  0.89500900  0.80032600  1
  F  F2  1  0.26430400  0.39888000  0.14931200  1
  F  F3  1  0.27667300  0.61624400  0.31294400  1
  F  F4  1  0.26489900  0.38725200  0.48430500  1
  F  F5  1  0.27439500  0.38506400  0.81723200  1
  F  F6  1  0.25604000  0.61155600  0.64756200  1
  F  F7  1  0.25431400  0.61695900  0.97648000  1
  F  F8  1  0.72233800  0.61995500  0.19348000  1
  F  F9  1  0.71603100  0.61352700  0.53401600  1
  F  F10  1  0.73365200  0.61222300  0.86754100  1
  F  F11  1  0.75805200  0.89142500  0.35037200  1
  F  F12  1  0.78810000  0.12263800  0.18453700  1
  F  F13  1  0.75920600  0.11434900  0.51899300  1
  F  F14  1  0.73989100  0.88170600  0.02235000  1
  F  F15  1  0.77004200  0.11776000  0.84826900  1
  F  F16  1  0.77753700  0.87356800  0.68645200  1
loop_
_geom_bond_atom_site_label_1
_geom_bond_atom_site_label_2
_geom_bond_distance
_geom_bond_site_symmetry_2
Mn0 O5 1.944791 1_555
Mn0 O3 1.987737 1_645
Mn1 O2 2.052692 1_555
Mn2 O1 2.032365 1_565
Mn3 O1 1.938542 1_554
Mn3 O2 1.998456 1_545
Mn3 O4 2.042876 1_455
Mn4 O3 2.019936 1_555
Mn4 O0 2.058837 1_565
Mn5 O6 1.912534 1_455
Mn5 O0 1.933483 1_555
Mn6 O0 1.935504 1_555
Mn6 O6 1.950033 1_555
Mn7 O1 1.959627 1_555
Mn7 O4 1.979620 1_556
Mn8 O5 2.062162 1_555
Mn9 O2 1.941590 1_555
Mn9 O4 2.005265 1_555
Mn10 O3 1.999550 1_555
Mn10 O5 2.008360 1_555
Mn11 O6 2.027279 1_555
F0 Mn0 2.030576 1_455
F0 Mn8 2.120240 1_555
F0 Mn1 2.199486 1_545
F1 Mn5 2.106441 1_565
F1 Mn11 2.118550 1_555
F1 Mn2 2.164493 1_555
F2 Mn9 2.113013 1_555
F2 Mn8 2.209405 1_555
F2 Mn3 2.216922 1_555
F3 Mn10 2.061031 1_555
F3 Mn1 2.067933 1_555
F3 Mn8 2.157938 1_555
F4 Mn6 2.069325 1_555
F4 Mn0 2.198171 1_455
F4 Mn10 2.219932 1_555
F5 Mn7 2.106138 1_555
F5 Mn11 2.204106 1_555
F5 Mn5 2.229583 1_555
F6 Mn4 2.053801 1_555
F6 Mn11 2.105865 1_555
F6 Mn6 2.134558 1_555
F7 Mn2 2.041779 1_555
F7 Mn9 2.067473 1_556
F7 Mn7 2.144208 1_555
F8 Mn9 2.083114 1_555
F8 Mn1 2.096772 1_655
F8 Mn8 2.163252 1_555
F9 Mn10 2.088304 1_555
F9 Mn6 2.187795 1_555
F9 Mn4 2.206043 1_655
F10 Mn2 2.120314 1_655
F10 Mn11 2.123357 1_555
F10 Mn7 2.250942 1_555
F11 Mn10 2.137733 1_555
F11 Mn1 2.193330 1_655
F11 Mn0 2.209173 1_565
F12 Mn3 2.039177 1_655
F12 Mn8 2.087388 1_555
F12 Mn1 2.148300 1_645
F13 Mn0 2.015781 1_555
F13 Mn6 2.104291 1_555
F13 Mn4 2.154261 1_645
F14 Mn9 2.057504 1_555
F14 Mn2 2.105563 1_654
F14 Mn3 2.279726 1_665
F15 Mn5 2.097401 1_655
F15 Mn2 2.116661 1_645
F15 Mn7 2.163761 1_555
F16 Mn11 2.090712 1_555
F16 Mn4 2.116334 1_655
F16 Mn5 2.225755 1_665
