# generated using pymatgen
data_Pm2MgSi
_symmetry_space_group_name_H-M   'P 1'
_cell_length_a   5.20581124
_cell_length_b   5.20581124
_cell_length_c   5.20581124
_cell_angle_alpha   60.00000000
_cell_angle_beta   60.00000000
_cell_angle_gamma   60.00000000
_symmetry_Int_Tables_number   1
_chemical_formula_structural   Pm2MgSi
_chemical_formula_sum   'Pm2 Mg1 Si1'
_cell_volume   99.75857864
_cell_formula_units_Z   1
loop_
 _symmetry_equiv_pos_site_id
 _symmetry_equiv_pos_as_xyz
  1  'x, y, z'
loop_
 _atom_site_type_symbol
 _atom_site_label
 _atom_site_symmetry_multiplicity
 _atom_site_fract_x
 _atom_site_fract_y
 _atom_site_fract_z
 _atom_site_occupancy
  Pm  Pm0  1  -0.00000000  0.00000000  0.00000000  1
  Pm  Pm1  1  0.49999900  0.49999900  0.49999900  1
  Mg  Mg0  1  0.24999900  0.24999900  0.24999900  1
  Si  Si0  1  0.75000000  0.75000000  0.75000000  1
loop_
_geom_bond_atom_site_label_1
_geom_bond_atom_site_label_2
_geom_bond_distance
_geom_bond_site_symmetry_2
Pm0 Si0 3.187895 1_444
Pm0 Si0 3.187895 1_445
Pm0 Si0 3.187895 1_454
Pm0 Si0 3.187895 1_544
Pm1 Si0 3.187891 1_455
Pm1 Si0 3.187891 1_545
Pm1 Si0 3.187891 1_554
Pm1 Si0 3.187908 1_555
Mg0 Pm0 3.187883 1_555
Mg0 Pm1 3.187895 1_555
Mg0 Pm1 3.187895 1_545
Mg0 Pm1 3.187895 1_455
Mg0 Pm1 3.187895 1_554
Mg0 Pm0 3.187900 1_655
Mg0 Pm0 3.187900 1_556
Mg0 Pm0 3.187900 1_565
