# generated using pymatgen
data_TlInS2
_symmetry_space_group_name_H-M   'P 1'
_cell_length_a   7.80407493
_cell_length_b   7.80407493
_cell_length_c   15.22713762
_cell_angle_alpha   82.54083603
_cell_angle_beta   82.54083603
_cell_angle_gamma   90.01302842
_symmetry_Int_Tables_number   1
_chemical_formula_structural   TlInS2
_chemical_formula_sum   'Tl8 In8 S16'
_cell_volume   911.62030819
_cell_formula_units_Z   8
loop_
 _symmetry_equiv_pos_site_id
 _symmetry_equiv_pos_as_xyz
  1  'x, y, z'
loop_
 _atom_site_type_symbol
 _atom_site_label
 _atom_site_symmetry_multiplicity
 _atom_site_fract_x
 _atom_site_fract_y
 _atom_site_fract_z
 _atom_site_occupancy
  Tl  Tl0  1  0.65641796  0.77328999  0.37886427  1
  Tl  Tl1  1  0.22671001  0.34358204  0.12113573  1
  Tl  Tl2  1  0.34358204  0.22671001  0.62113573  1
  Tl  Tl3  1  0.77328999  0.65641796  0.87886427  1
  Tl  Tl4  1  0.21750390  0.84387172  0.11799297  1
  Tl  Tl5  1  0.15612828  0.78249610  0.38200703  1
  Tl  Tl6  1  0.78249610  0.15612828  0.88200703  1
  Tl  Tl7  1  0.84387172  0.21750390  0.61799297  1
  In  In0  1  0.71180125  0.08858457  0.15391397  1
  In  In1  1  0.91141543  0.28819875  0.34608603  1
  In  In2  1  0.28819875  0.91141543  0.84608603  1
  In  In3  1  0.08858457  0.71180125  0.65391397  1
  In  In4  1  0.41469391  0.28800331  0.34639579  1
  In  In5  1  0.71199669  0.58530609  0.15360421  1
  In  In6  1  0.58530609  0.71199669  0.65360421  1
  In  In7  1  0.28800331  0.41469391  0.84639579  1
  S  S0  1  0.42848179  0.05309885  0.25037570  1
  S  S1  1  0.94690115  0.57151821  0.24962430  1
  S  S2  1  0.57151821  0.94690115  0.74962430  1
  S  S3  1  0.05309885  0.42848179  0.75037570  1
  S  S4  1  0.42825311  0.57174689  0.25000000  1
  S  S5  1  0.57174689  0.42825311  0.75000000  1
  S  S6  1  0.94626642  0.05373358  0.25000000  1
  S  S7  1  0.05373358  0.94626642  0.75000000  1
  S  S8  1  0.63777763  0.26832113  0.44679476  1
  S  S9  1  0.73167887  0.36222237  0.05320524  1
  S  S10  1  0.36222237  0.73167887  0.55320524  1
  S  S11  1  0.26832113  0.63777763  0.94679476  1
  S  S12  1  0.73915332  0.86221103  0.05499561  1
  S  S13  1  0.13778897  0.26084668  0.44500439  1
  S  S14  1  0.26084668  0.13778897  0.94500439  1
  S  S15  1  0.86221103  0.73915332  0.55499561  1
loop_
_geom_bond_atom_site_label_1
_geom_bond_atom_site_label_2
_geom_bond_distance
_geom_bond_site_symmetry_2
In0 S9 2.454352 1_555
In0 S12 2.458236 1_545
In0 S6 2.480886 1_555
In0 S0 2.484710 1_555
In1 S8 2.454352 1_555
In1 S13 2.458236 1_655
In1 S6 2.480886 1_555
In1 S1 2.484710 1_555
In2 S11 2.454352 1_555
In2 S14 2.458236 1_565
In2 S7 2.480886 1_555
In2 S2 2.484710 1_555
In3 S10 2.454352 1_555
In3 S15 2.458236 1_455
In3 S7 2.480886 1_555
In3 S3 2.484710 1_555
In4 S8 2.453963 1_555
In4 S13 2.458467 1_555
In4 S0 2.482978 1_555
In4 S4 2.486918 1_555
In5 S9 2.453963 1_555
In5 S12 2.458467 1_555
In5 S1 2.482978 1_555
In5 S4 2.486918 1_555
In6 S10 2.453963 1_555
In6 S15 2.458467 1_555
In6 S2 2.482978 1_555
In6 S5 2.486918 1_555
In7 S11 2.453963 1_555
In7 S14 2.458467 1_555
In7 S3 2.482978 1_555
In7 S5 2.486918 1_555
