# generated using pymatgen
data_Li2Mn3(BO3)3
_symmetry_space_group_name_H-M   'P 1'
_cell_length_a   8.24319600
_cell_length_b   8.27412201
_cell_length_c   15.85011846
_cell_angle_alpha   90.38782316
_cell_angle_beta   90.67989308
_cell_angle_gamma   119.79948777
_symmetry_Int_Tables_number   1
_chemical_formula_structural   Li2Mn3(BO3)3
_chemical_formula_sum   'Li10 Mn15 B15 O45'
_cell_volume   937.94590190
_cell_formula_units_Z   5
loop_
 _symmetry_equiv_pos_site_id
 _symmetry_equiv_pos_as_xyz
  1  'x, y, z'
loop_
 _atom_site_type_symbol
 _atom_site_label
 _atom_site_symmetry_multiplicity
 _atom_site_fract_x
 _atom_site_fract_y
 _atom_site_fract_z
 _atom_site_occupancy
  Li  Li0  1  0.70396200  0.72045100  0.50334400  1
  Li  Li1  1  0.69796400  0.71355300  0.90227500  1
  Li  Li2  1  0.70235400  0.72924800  0.09857700  1
  Li  Li3  1  0.01958200  0.30664800  0.29782500  1
  Li  Li4  1  0.03049200  0.29664000  0.70029800  1
  Li  Li5  1  0.00850700  0.29377100  0.10143000  1
  Li  Li6  1  0.28703600  0.98165900  0.50176500  1
  Li  Li7  1  0.28942600  0.98272700  0.69728200  1
  Li  Li8  1  0.26698900  0.96923700  0.89976700  1
  Li  Li9  1  0.28557200  0.98752700  0.30034000  1
  Mn  Mn0  1  0.98814800  0.61842200  0.99334600  1
  Mn  Mn1  1  0.98004900  0.63722100  0.39515700  1
  Mn  Mn2  1  0.98418900  0.60066700  0.59354300  1
  Mn  Mn3  1  0.97649700  0.63033500  0.79318000  1
  Mn  Mn4  1  0.99120400  0.64803300  0.19683800  1
  Mn  Mn5  1  0.66009800  0.01485200  0.40246000  1
  Mn  Mn6  1  0.65688200  0.00674000  0.80250100  1
  Mn  Mn7  1  0.65490800  0.01063000  0.60204700  1
  Mn  Mn8  1  0.62934100  0.00300200  0.20052100  1
  Mn  Mn9  1  0.61679500  0.01635600  0.00088100  1
  Mn  Mn10  1  0.39728900  0.38242700  0.20497600  1
  Mn  Mn11  1  0.37110800  0.36364000  0.80533800  1
  Mn  Mn12  1  0.34583900  0.34289400  0.00513000  1
  Mn  Mn13  1  0.36083500  0.36440900  0.40319800  1
  Mn  Mn14  1  0.38104900  0.37080000  0.60439800  1
  B  B0  1  0.97463600  0.98823400  0.99777700  1
  B  B1  1  0.33432400  0.66403400  0.10013800  1
  B  B2  1  0.33195400  0.66953300  0.90244700  1
  B  B3  1  0.01333600  0.02249400  0.19809500  1
  B  B4  1  0.32662100  0.66416800  0.29799300  1
  B  B5  1  0.33188300  0.66468100  0.69853400  1
  B  B6  1  0.33669000  0.67805200  0.50264000  1
  B  B7  1  0.01135100  0.99951700  0.80081200  1
  B  B8  1  0.00671900  0.00131900  0.39956800  1
  B  B9  1  0.01164000  0.99131100  0.60161200  1
  B  B10  1  0.66750300  0.33381600  0.29594800  1
  B  B11  1  0.67585000  0.32606200  0.69714300  1
  B  B12  1  0.66406600  0.34162700  0.10038900  1
  B  B13  1  0.64784300  0.32086900  0.90245000  1
  B  B14  1  0.66475900  0.33224800  0.50276100  1
  O  O0  1  0.82184500  0.89006800  0.81147900  1
  O  O1  1  0.81678800  0.88791300  0.40840600  1
  O  O2  1  0.81978200  0.89600500  0.59649900  1
  O  O3  1  0.82133500  0.92288100  0.18499000  1
  O  O4  1  0.77872600  0.88783800  0.99899400  1
  O  O5  1  0.41876700  0.55431300  0.11200200  1
  O  O6  1  0.41160100  0.55765800  0.90903400  1
  O  O7  1  0.41258100  0.56162800  0.50411400  1
  O  O8  1  0.39765000  0.54135000  0.29761700  1
  O  O9  1  0.39669400  0.54152200  0.70846200  1
  O  O10  1  0.45497900  0.85456400  0.09165700  1
  O  O11  1  0.44953000  0.86607900  0.90537500  1
  O  O12  1  0.45427600  0.86854000  0.50052100  1
  O  O13  1  0.44639200  0.85500600  0.70088200  1
  O  O14  1  0.44368700  0.85474600  0.29967700  1
  O  O15  1  0.08247900  0.19032300  0.38868700  1
  O  O16  1  0.09308600  0.19066900  0.79759400  1
  O  O17  1  0.10609900  0.18285500  0.61081800  1
  O  O18  1  0.06881100  0.17714200  0.01261600  1
  O  O19  1  0.10517700  0.21705300  0.20034800  1
  O  O20  1  0.14345400  0.58413200  0.09743600  1
  O  O21  1  0.13491800  0.58838900  0.29823700  1
  O  O22  1  0.14457600  0.60497100  0.89151200  1
  O  O23  1  0.13631100  0.58464700  0.68750100  1
  O  O24  1  0.14388900  0.60823800  0.50121200  1
  O  O25  1  0.12301800  0.91709100  0.79316700  1
  O  O26  1  0.12462100  0.92460600  0.40161900  1
  O  O27  1  0.11175500  0.89584700  0.59793400  1
  O  O28  1  0.10891200  0.92671600  0.20906000  1
  O  O29  1  0.07036200  0.89347400  0.98166100  1
  O  O30  1  0.75755200  0.21455900  0.70603600  1
  O  O31  1  0.73987000  0.21329700  0.29955300  1
  O  O32  1  0.73184700  0.21622300  0.09294900  1
  O  O33  1  0.72687700  0.20719600  0.91414100  1
  O  O34  1  0.74169100  0.22019400  0.50656000  1
  O  O35  1  0.79015800  0.51625600  0.68058900  1
  O  O36  1  0.78005700  0.52229700  0.29251400  1
  O  O37  1  0.78313100  0.53132400  0.09298500  1
  O  O38  1  0.76225100  0.50872800  0.88812000  1
  O  O39  1  0.78509100  0.52932900  0.50277000  1
  O  O40  1  0.48567300  0.25489800  0.70436700  1
  O  O41  1  0.47067600  0.25829800  0.29454000  1
  O  O42  1  0.47472200  0.26953700  0.11489900  1
  O  O43  1  0.45443000  0.24316300  0.90609200  1
  O  O44  1  0.47220800  0.26233600  0.50004800  1
loop_
_geom_bond_atom_site_label_1
_geom_bond_atom_site_label_2
_geom_bond_distance
_geom_bond_site_symmetry_2
Li0 O2 1.939241 1_555
Li0 O1 1.956993 1_555
Li0 O39 1.999784 1_555
Li0 O7 2.088038 1_555
Li1 O0 1.956505 1_555
Li1 O4 1.965830 1_555
Li1 O38 2.023278 1_555
Li1 O6 2.056447 1_555
Li2 O3 1.944569 1_555
Li2 O4 1.959612 1_554
Li2 O37 2.053382 1_555
Li2 O5 2.063469 1_555
Li3 O15 1.940705 1_555
Li3 O19 1.991165 1_555
Li3 O21 2.033475 1_555
Li3 O31 2.036014 1_455
Li4 O16 1.965290 1_555
Li4 O17 1.967840 1_555
Li4 O30 2.004621 1_455
Li4 O23 2.103671 1_555
Li5 O18 1.906567 1_555
Li5 O19 1.995674 1_555
Li5 O32 2.041537 1_455
Li5 O20 2.088250 1_555
Li6 O26 1.961156 1_555
Li6 O27 1.990605 1_555
Li6 O12 2.014895 1_555
Li6 O44 2.049997 1_565
Li7 O25 1.951039 1_555
Li7 O27 2.006206 1_555
Li7 O40 2.017997 1_565
Li7 O13 2.037733 1_555
Li8 O29 1.938043 1_555
Li8 O25 1.970541 1_555
Li8 O43 2.011700 1_565
Li8 O11 2.067613 1_555
Li9 O28 1.918048 1_555
Li9 O41 1.991076 1_565
Li9 O26 1.995888 1_555
Li9 O14 2.080707 1_555
Mn0 O29 2.036818 1_655
Mn0 O22 2.114231 1_655
Mn0 O37 2.176653 1_556
Mn0 O20 2.181434 1_656
Mn0 O38 2.301936 1_555
Mn1 O26 2.064499 1_655
Mn1 O36 2.150839 1_555
Mn1 O21 2.168802 1_655
Mn1 O39 2.224564 1_555
Mn1 O24 2.231756 1_655
Mn2 O24 1.960520 1_655
Mn2 O35 1.976017 1_555
Mn2 O23 1.982783 1_655
Mn2 O39 2.020297 1_555
Mn2 O27 2.125791 1_655
Mn3 O25 2.059121 1_655
Mn3 O22 2.152908 1_655
Mn3 O38 2.170997 1_555
Mn3 O35 2.214982 1_555
Mn3 O23 2.285362 1_655
Mn4 O28 2.015362 1_655
Mn4 O36 2.166954 1_555
Mn4 O21 2.185556 1_655
Mn4 O37 2.202088 1_555
Mn4 O20 2.243242 1_655
Mn5 O1 2.031540 1_545
Mn5 O31 2.185733 1_555
Mn5 O12 2.192366 1_545
Mn5 O34 2.204870 1_555
Mn5 O14 2.268097 1_545
Mn6 O0 2.025661 1_545
Mn6 O30 2.151883 1_555
Mn6 O13 2.218607 1_545
Mn6 O11 2.247087 1_545
Mn6 O33 2.280323 1_555
Mn7 O2 2.009287 1_545
Mn7 O34 2.153442 1_555
Mn7 O12 2.164621 1_545
Mn7 O30 2.188591 1_555
Mn7 O13 2.226633 1_545
Mn8 O3 2.013627 1_545
Mn8 O14 2.129351 1_545
Mn8 O31 2.162168 1_555
Mn8 O10 2.170149 1_545
Mn8 O32 2.307987 1_555
Mn9 O33 1.960047 1_554
Mn9 O10 1.984516 1_545
Mn9 O11 1.989890 1_544
Mn9 O32 2.034551 1_555
Mn9 O4 2.079604 1_544
Mn10 O8 1.963436 1_555
Mn10 O42 1.978505 1_555
Mn10 O5 2.002486 1_555
Mn10 O41 2.013199 1_555
Mn10 O19 2.096534 1_555
Mn11 O16 2.011598 1_555
Mn11 O9 2.073215 1_555
Mn11 O43 2.166049 1_555
Mn11 O6 2.192844 1_555
Mn11 O40 2.263539 1_555
Mn12 O18 2.001391 1_555
Mn12 O43 2.167106 1_554
Mn12 O6 2.206867 1_554
Mn12 O42 2.266178 1_555
Mn12 O5 2.276261 1_555
Mn13 O15 2.022516 1_555
Mn13 O8 2.153976 1_555
Mn13 O7 2.158681 1_555
Mn13 O44 2.160415 1_555
Mn13 O41 2.315913 1_555
Mn14 O17 2.017415 1_555
Mn14 O9 2.124841 1_555
Mn14 O7 2.173249 1_555
Mn14 O44 2.187542 1_555
Mn14 O40 2.232565 1_555
B0 O18 1.373222 1_666
B0 O29 1.385518 1_655
B0 O4 1.402139 1_555
B1 O20 1.370610 1_555
B1 O10 1.392891 1_555
B1 O5 1.404056 1_555
B2 O22 1.368744 1_555
B2 O6 1.379330 1_555
B2 O11 1.420385 1_555
B3 O28 1.377723 1_545
B3 O3 1.385904 1_445
B3 O19 1.397549 1_555
B4 O14 1.380152 1_555
B4 O21 1.380469 1_555
B4 O8 1.402471 1_555
B5 O9 1.374737 1_555
B5 O13 1.375940 1_555
B5 O23 1.413767 1_555
B6 O12 1.381248 1_555
B6 O7 1.385205 1_555
B6 O24 1.395184 1_555
B7 O0 1.375215 1_455
B7 O16 1.378697 1_565
B7 O25 1.397360 1_555
B8 O1 1.377724 1_445
B8 O15 1.378716 1_555
B8 O26 1.400424 1_545
B9 O2 1.373370 1_455
B9 O17 1.380932 1_565
B9 O27 1.398858 1_555
B10 O36 1.363845 1_555
B10 O31 1.394531 1_555
B10 O41 1.419396 1_555
B11 O40 1.380253 1_555
B11 O30 1.393453 1_555
B11 O35 1.403861 1_555
B12 O37 1.383730 1_555
B12 O42 1.389178 1_555
B12 O32 1.406717 1_555
B13 O38 1.381997 1_555
B13 O43 1.393724 1_555
B13 O33 1.397118 1_555
B14 O34 1.360016 1_555
B14 O44 1.393285 1_555
B14 O39 1.426642 1_555
