# generated using pymatgen
data_NaHo4Ge2O11
_symmetry_space_group_name_H-M   'P 1'
_cell_length_a   6.78436900
_cell_length_b   6.90959600
_cell_length_c   21.84077900
_cell_angle_alpha   90.00000000
_cell_angle_beta   90.00000000
_cell_angle_gamma   90.00000000
_symmetry_Int_Tables_number   1
_chemical_formula_structural   NaHo4Ge2O11
_chemical_formula_sum   'Na4 Ho16 Ge8 O44'
_cell_volume   1023.83563346
_cell_formula_units_Z   4
loop_
 _symmetry_equiv_pos_site_id
 _symmetry_equiv_pos_as_xyz
  1  'x, y, z'
loop_
 _atom_site_type_symbol
 _atom_site_label
 _atom_site_symmetry_multiplicity
 _atom_site_fract_x
 _atom_site_fract_y
 _atom_site_fract_z
 _atom_site_occupancy
  Na  Na0  1  0.64188400  0.80497600  0.25000000  1
  Na  Na1  1  0.14188400  0.69502400  0.25000000  1
  Na  Na2  1  0.35811600  0.19502400  0.75000000  1
  Na  Na3  1  0.85811600  0.30497600  0.75000000  1
  Ho  Ho0  1  0.71790700  0.37496400  0.01323800  1
  Ho  Ho1  1  0.21790700  0.12503600  0.48676200  1
  Ho  Ho2  1  0.28209300  0.62503600  0.51323800  1
  Ho  Ho3  1  0.78209300  0.87496400  0.98676200  1
  Ho  Ho4  1  0.28209300  0.62503600  0.98676200  1
  Ho  Ho5  1  0.78209300  0.87496400  0.51323800  1
  Ho  Ho6  1  0.71790700  0.37496400  0.48676200  1
  Ho  Ho7  1  0.21790700  0.12503600  0.01323800  1
  Ho  Ho8  1  0.90747800  0.12988900  0.14952300  1
  Ho  Ho9  1  0.40747800  0.37011100  0.35047700  1
  Ho  Ho10  1  0.09252200  0.87011100  0.64952300  1
  Ho  Ho11  1  0.59252200  0.62988900  0.85047700  1
  Ho  Ho12  1  0.09252200  0.87011100  0.85047700  1
  Ho  Ho13  1  0.59252200  0.62988900  0.64952300  1
  Ho  Ho14  1  0.90747800  0.12988900  0.35047700  1
  Ho  Ho15  1  0.40747800  0.37011100  0.14952300  1
  Ge  Ge0  1  0.92111000  0.59538700  0.12637700  1
  Ge  Ge1  1  0.42111000  0.90461300  0.37362300  1
  Ge  Ge2  1  0.07889000  0.40461300  0.62637700  1
  Ge  Ge3  1  0.57889000  0.09538700  0.87362300  1
  Ge  Ge4  1  0.07889000  0.40461300  0.87362300  1
  Ge  Ge5  1  0.57889000  0.09538700  0.62637700  1
  Ge  Ge6  1  0.92111000  0.59538700  0.37362300  1
  Ge  Ge7  1  0.42111000  0.90461300  0.12637700  1
  O  O0  1  0.72113100  0.42609500  0.11804100  1
  O  O1  1  0.22113100  0.07390500  0.38195900  1
  O  O2  1  0.27886900  0.57390500  0.61804100  1
  O  O3  1  0.77886900  0.92609500  0.88195900  1
  O  O4  1  0.27886900  0.57390500  0.88195900  1
  O  O5  1  0.77886900  0.92609500  0.61804100  1
  O  O6  1  0.72113100  0.42609500  0.38195900  1
  O  O7  1  0.22113100  0.07390500  0.11804100  1
  O  O8  1  0.89177300  0.11560500  0.04444600  1
  O  O9  1  0.39177300  0.38439500  0.45555400  1
  O  O10  1  0.10822700  0.88439500  0.54444600  1
  O  O11  1  0.60822700  0.61560500  0.95555400  1
  O  O12  1  0.10822700  0.88439500  0.95555400  1
  O  O13  1  0.60822700  0.61560500  0.54444600  1
  O  O14  1  0.89177300  0.11560500  0.45555400  1
  O  O15  1  0.39177300  0.38439500  0.04444600  1
  O  O16  1  0.97765900  0.13837000  0.25000000  1
  O  O17  1  0.47765900  0.36163000  0.25000000  1
  O  O18  1  0.02234100  0.86163000  0.75000000  1
  O  O19  1  0.52234100  0.63837000  0.75000000  1
  O  O20  1  0.58332600  0.07593200  0.15979400  1
  O  O21  1  0.08332600  0.42406800  0.34020600  1
  O  O22  1  0.41667400  0.92406800  0.65979400  1
  O  O23  1  0.91667400  0.57593200  0.84020600  1
  O  O24  1  0.41667400  0.92406800  0.84020600  1
  O  O25  1  0.91667400  0.57593200  0.65979400  1
  O  O26  1  0.58332600  0.07593200  0.34020600  1
  O  O27  1  0.08332600  0.42406800  0.15979400  1
  O  O28  1  0.89599900  0.80096000  0.17139400  1
  O  O29  1  0.39599900  0.69904000  0.32860600  1
  O  O30  1  0.10400100  0.19904000  0.67139400  1
  O  O31  1  0.60400100  0.30096000  0.82860600  1
  O  O32  1  0.10400100  0.19904000  0.82860600  1
  O  O33  1  0.60400100  0.30096000  0.67139400  1
  O  O34  1  0.89599900  0.80096000  0.32860600  1
  O  O35  1  0.39599900  0.69904000  0.17139400  1
  O  O36  1  0.95444700  0.64099100  0.04602700  1
  O  O37  1  0.45444700  0.85900900  0.45397300  1
  O  O38  1  0.04555300  0.35900900  0.54602700  1
  O  O39  1  0.54555300  0.14099100  0.95397300  1
  O  O40  1  0.04555300  0.35900900  0.95397300  1
  O  O41  1  0.54555300  0.14099100  0.54602700  1
  O  O42  1  0.95444700  0.64099100  0.45397300  1
  O  O43  1  0.45444700  0.85900900  0.04602700  1
loop_
_geom_bond_atom_site_label_1
_geom_bond_atom_site_label_2
_geom_bond_distance
_geom_bond_site_symmetry_2
Na0 O28 2.433195 1_555
Na0 O34 2.433195 1_555
Na0 O35 2.503208 1_555
Na0 O29 2.503208 1_555
Na0 O20 2.746729 1_565
Na0 O26 2.746729 1_565
Na1 O35 2.433195 1_555
Na1 O29 2.433195 1_555
Na1 O28 2.503208 1_455
Na1 O34 2.503208 1_455
Na1 O27 2.746729 1_555
Na1 O21 2.746729 1_555
Na2 O32 2.433195 1_555
Na2 O30 2.433195 1_555
Na2 O31 2.503208 1_555
Na2 O33 2.503208 1_555
Na2 O24 2.746729 1_545
Na2 O22 2.746729 1_545
Na3 O31 2.433195 1_555
Na3 O33 2.433195 1_555
Na3 O32 2.503208 1_655
Na3 O30 2.503208 1_655
Na3 O23 2.746729 1_555
Na3 O25 2.746729 1_555
Ho0 O11 2.214866 1_554
Ho0 O8 2.251106 1_555
Ho0 O15 2.316137 1_555
Ho0 O0 2.316187 1_555
Ho0 O39 2.378305 1_554
Ho0 O36 2.543012 1_555
Ho0 O40 2.574639 1_654
Ho1 O10 2.214866 1_545
Ho1 O9 2.251106 1_555
Ho1 O14 2.316137 1_455
Ho1 O1 2.316187 1_555
Ho1 O38 2.378305 1_555
Ho1 O37 2.543012 1_545
Ho1 O41 2.574639 1_555
Ho2 O9 2.214866 1_555
Ho2 O10 2.251106 1_555
Ho2 O13 2.316137 1_555
Ho2 O2 2.316187 1_555
Ho2 O37 2.378305 1_555
Ho2 O38 2.543012 1_555
Ho2 O42 2.574639 1_455
Ho3 O8 2.214866 1_566
Ho3 O11 2.251106 1_555
Ho3 O12 2.316137 1_655
Ho3 O3 2.316187 1_555
Ho3 O36 2.378305 1_556
Ho3 O39 2.543012 1_565
Ho3 O43 2.574639 1_556
Ho4 O15 2.214866 1_556
Ho4 O12 2.251106 1_555
Ho4 O11 2.316137 1_555
Ho4 O4 2.316187 1_555
Ho4 O43 2.378305 1_556
Ho4 O40 2.543012 1_555
Ho4 O36 2.574639 1_456
Ho5 O14 2.214866 1_565
Ho5 O13 2.251106 1_555
Ho5 O10 2.316137 1_655
Ho5 O5 2.316187 1_555
Ho5 O42 2.378305 1_555
Ho5 O41 2.543012 1_565
Ho5 O37 2.574639 1_555
Ho6 O13 2.214866 1_555
Ho6 O14 2.251106 1_555
Ho6 O9 2.316137 1_555
Ho6 O6 2.316187 1_555
Ho6 O41 2.378305 1_555
Ho6 O42 2.543012 1_555
Ho6 O38 2.574639 1_655
Ho7 O12 2.214866 1_544
Ho7 O15 2.251106 1_555
Ho7 O8 2.316137 1_455
Ho7 O7 2.316187 1_555
Ho7 O40 2.378305 1_554
Ho7 O43 2.543012 1_545
Ho7 O39 2.574639 1_554
Ho8 O20 2.241797 1_555
Ho8 O16 2.246319 1_555
Ho8 O7 2.269479 1_655
Ho8 O8 2.299555 1_555
Ho8 O28 2.323728 1_545
Ho8 O27 2.367554 1_655
Ho8 O0 2.501986 1_555
Ho9 O21 2.241797 1_555
Ho9 O17 2.246319 1_555
Ho9 O6 2.269479 1_555
Ho9 O9 2.299555 1_555
Ho9 O29 2.323728 1_555
Ho9 O26 2.367554 1_555
Ho9 O1 2.501986 1_555
Ho10 O22 2.241797 1_555
Ho10 O18 2.246319 1_555
Ho10 O5 2.269479 1_455
Ho10 O10 2.299555 1_555
Ho10 O30 2.323728 1_565
Ho10 O25 2.367554 1_455
Ho10 O2 2.501986 1_555
Ho11 O23 2.241797 1_555
Ho11 O19 2.246319 1_555
Ho11 O4 2.269479 1_555
Ho11 O11 2.299555 1_555
Ho11 O31 2.323728 1_555
Ho11 O24 2.367554 1_555
Ho11 O3 2.501986 1_555
Ho12 O24 2.241797 1_555
Ho12 O18 2.246319 1_555
Ho12 O3 2.269479 1_455
Ho12 O12 2.299555 1_555
Ho12 O32 2.323728 1_565
Ho12 O23 2.367554 1_455
Ho12 O4 2.501986 1_555
Ho13 O25 2.241797 1_555
Ho13 O19 2.246319 1_555
Ho13 O2 2.269479 1_555
Ho13 O13 2.299555 1_555
Ho13 O33 2.323728 1_555
Ho13 O22 2.367554 1_555
Ho13 O5 2.501986 1_555
Ho14 O26 2.241797 1_555
Ho14 O16 2.246319 1_555
Ho14 O1 2.269479 1_655
Ho14 O14 2.299555 1_555
Ho14 O34 2.323728 1_545
Ho14 O21 2.367554 1_655
Ho14 O6 2.501986 1_555
Ho15 O27 2.241797 1_555
Ho15 O17 2.246319 1_555
Ho15 O0 2.269479 1_555
Ho15 O15 2.299555 1_555
Ho15 O35 2.323728 1_555
Ho15 O20 2.367554 1_555
Ho15 O7 2.501986 1_555
Ge0 O28 1.735894 1_555
Ge0 O27 1.773446 1_655
Ge0 O36 1.797259 1_555
Ge0 O0 1.800599 1_555
Ge1 O29 1.735894 1_555
Ge1 O26 1.773446 1_565
Ge1 O37 1.797259 1_555
Ge1 O1 1.800599 1_565
Ge2 O30 1.735894 1_555
Ge2 O25 1.773446 1_455
Ge2 O38 1.797259 1_555
Ge2 O2 1.800599 1_555
Ge3 O31 1.735894 1_555
Ge3 O24 1.773446 1_545
Ge3 O39 1.797259 1_555
Ge3 O3 1.800599 1_545
Ge4 O32 1.735894 1_555
Ge4 O23 1.773446 1_455
Ge4 O40 1.797259 1_555
Ge4 O4 1.800599 1_555
Ge5 O33 1.735894 1_555
Ge5 O22 1.773446 1_545
Ge5 O41 1.797259 1_555
Ge5 O5 1.800599 1_545
Ge6 O34 1.735894 1_555
Ge6 O21 1.773446 1_655
Ge6 O42 1.797259 1_555
Ge6 O6 1.800599 1_555
Ge7 O35 1.735894 1_555
Ge7 O20 1.773446 1_565
Ge7 O43 1.797259 1_555
Ge7 O7 1.800599 1_565
