# generated using pymatgen
data_K2Au3
_symmetry_space_group_name_H-M   'P 1'
_cell_length_a   4.92962216
_cell_length_b   5.51272103
_cell_length_c   6.19521178
_cell_angle_alpha   116.40167336
_cell_angle_beta   113.42566183
_cell_angle_gamma   90.00413966
_symmetry_Int_Tables_number   1
_chemical_formula_structural   K2Au3
_chemical_formula_sum   'K2 Au3'
_cell_volume   135.12800966
_cell_formula_units_Z   1
loop_
 _symmetry_equiv_pos_site_id
 _symmetry_equiv_pos_as_xyz
  1  'x, y, z'
loop_
 _atom_site_type_symbol
 _atom_site_label
 _atom_site_symmetry_multiplicity
 _atom_site_fract_x
 _atom_site_fract_y
 _atom_site_fract_z
 _atom_site_occupancy
  K  K0  1  0.19477636  0.69467842  0.38966510  1
  K  K1  1  0.80522364  0.30532158  0.61033490  1
  Au  Au0  1  0.00000000  -0.00000000  -0.00000000  1
  Au  Au1  1  0.49996767  0.25278983  0.99988993  1
  Au  Au2  1  0.50003233  0.74721017  0.00011007  1
loop_
_geom_bond_atom_site_label_1
_geom_bond_atom_site_label_2
_geom_bond_distance
_geom_bond_site_symmetry_2
K0 K1 3.854894 1_455
K0 K1 3.856322 1_555
K0 K1 3.858022 1_465
K0 K1 3.858941 1_565
K0 K1 3.875139 1_454
Au0 Au2 2.831624 1_545
Au0 Au1 2.831624 1_454
Au0 Au2 2.831643 1_445
Au0 Au1 2.831643 1_554
Au0 K0 3.368983 1_555
Au0 K1 3.368983 1_444
Au0 K1 3.369473 1_454
Au0 K0 3.369473 1_545
Au0 K1 3.908854 1_455
Au0 K0 3.908854 1_544
Au0 K1 3.910474 1_555
Au0 K0 3.910474 1_444
Au1 Au2 2.724995 1_556
Au1 Au2 2.787726 1_546
Au1 K1 3.339399 1_556
Au1 K0 3.339833 1_545
Au1 K1 3.417854 1_555
Au1 K0 3.418538 1_556
Au1 K1 3.418685 1_455
Au1 K0 3.418763 1_656
Au2 K0 3.339399 1_554
Au2 K1 3.339833 1_565
Au2 K0 3.417854 1_555
Au2 K1 3.418538 1_554
Au2 K0 3.418685 1_655
Au2 K1 3.418763 1_454
