# generated using pymatgen
data_FeAs2Pb4(ClO2)4
_symmetry_space_group_name_H-M   'P 1'
_cell_length_a   6.64006900
_cell_length_b   10.35428686
_cell_length_c   5.56699375
_cell_angle_alpha   96.63352472
_cell_angle_beta   91.34047657
_cell_angle_gamma   102.44668289
_symmetry_Int_Tables_number   1
_chemical_formula_structural   FeAs2Pb4(ClO2)4
_chemical_formula_sum   'Fe1 As2 Pb4 Cl4 O8'
_cell_volume   370.79022872
_cell_formula_units_Z   1
loop_
 _symmetry_equiv_pos_site_id
 _symmetry_equiv_pos_as_xyz
  1  'x, y, z'
loop_
 _atom_site_type_symbol
 _atom_site_label
 _atom_site_symmetry_multiplicity
 _atom_site_fract_x
 _atom_site_fract_y
 _atom_site_fract_z
 _atom_site_occupancy
  Fe  Fe0  1  0.00000000  0.00000000  0.50000000  1
  As  As0  1  0.29796800  0.20254300  0.68725700  1
  As  As1  1  0.70203200  0.79745700  0.31274300  1
  Pb  Pb0  1  0.54205400  0.75915000  0.79482300  1
  Pb  Pb1  1  0.45794600  0.24085000  0.20517700  1
  Pb  Pb2  1  0.16204200  0.66617900  0.89206800  1
  Pb  Pb3  1  0.83795800  0.33382100  0.10793200  1
  Cl  Cl0  1  0.60991000  0.27892700  0.64471000  1
  Cl  Cl1  1  0.39009000  0.72107300  0.35529000  1
  Cl  Cl2  1  0.87403900  0.85861700  0.79229800  1
  Cl  Cl3  1  0.12596100  0.14138300  0.20770200  1
  O  O0  1  0.36100500  0.46434800  0.85848400  1
  O  O1  1  0.63899500  0.53565200  0.14151600  1
  O  O2  1  0.35398300  0.98063000  0.86811000  1
  O  O3  1  0.64601700  0.01937000  0.13189000  1
  O  O4  1  0.12887300  0.22116500  0.70002600  1
  O  O5  1  0.87112700  0.77883500  0.29997400  1
  O  O6  1  0.10799800  0.76982700  0.56136000  1
  O  O7  1  0.89200200  0.23017300  0.43864000  1
loop_
_geom_bond_atom_site_label_1
_geom_bond_atom_site_label_2
_geom_bond_distance
_geom_bond_site_symmetry_2
Fe0 O5 2.395396 1_445
Fe0 O4 2.395396 1_555
Fe0 O6 2.687805 1_545
Fe0 O7 2.687805 1_455
As0 O4 1.181866 1_555
As0 Cl0 2.081357 1_555
As1 O5 1.181866 1_555
As1 Cl1 2.081357 1_555
Cl0 O7 2.335329 1_555
Cl0 Pb1 2.578943 1_555
Cl0 Pb3 2.893727 1_556
Cl1 O6 2.335329 1_555
Cl1 Pb0 2.578943 1_555
Cl1 Pb2 2.893727 1_554
Cl2 Pb0 2.224060 1_555
Cl2 O6 2.312458 1_655
Cl2 Fe0 2.361503 1_665
Cl3 Pb1 2.224060 1_555
Cl3 O7 2.312458 1_455
Cl3 Fe0 2.361503 1_555
O0 Pb2 2.694268 1_555
O1 Pb3 2.694268 1_555
O6 Pb2 2.293815 1_555
O7 Pb3 2.293815 1_555
