# generated using pymatgen
data_LiTi4O8
_symmetry_space_group_name_H-M   'P 1'
_cell_length_a   5.80080200
_cell_length_b   7.25030972
_cell_length_c   10.18749306
_cell_angle_alpha   78.71159913
_cell_angle_beta   88.52677694
_cell_angle_gamma   85.84285564
_symmetry_Int_Tables_number   1
_chemical_formula_structural   LiTi4O8
_chemical_formula_sum   'Li3 Ti12 O24'
_cell_volume   419.03818399
_cell_formula_units_Z   3
loop_
 _symmetry_equiv_pos_site_id
 _symmetry_equiv_pos_as_xyz
  1  'x, y, z'
loop_
 _atom_site_type_symbol
 _atom_site_label
 _atom_site_symmetry_multiplicity
 _atom_site_fract_x
 _atom_site_fract_y
 _atom_site_fract_z
 _atom_site_occupancy
  Li  Li0  1  0.99356000  0.42718800  0.93085300  1
  Li  Li1  1  0.25125100  0.57274700  0.31561000  1
  Li  Li2  1  0.50920300  0.57233800  0.57318900  1
  Ti  Ti0  1  0.74937300  0.00267900  0.75147300  1
  Ti  Ti1  1  0.00126600  0.98935700  0.00352100  1
  Ti  Ti2  1  0.25371900  0.01111700  0.24657200  1
  Ti  Ti3  1  0.49691200  0.00624500  0.49640800  1
  Ti  Ti4  1  0.73251000  0.31100200  0.20804900  1
  Ti  Ti5  1  0.97225500  0.30635500  0.45992300  1
  Ti  Ti6  1  0.22523300  0.30508000  0.70416400  1
  Ti  Ti7  1  0.48150200  0.30940100  0.95143100  1
  Ti  Ti8  1  0.51779200  0.68889500  0.04124700  1
  Ti  Ti9  1  0.77365600  0.69600500  0.29129300  1
  Ti  Ti10  1  0.01231000  0.69068300  0.55228400  1
  Ti  Ti11  1  0.27836400  0.69598700  0.79429200  1
  O  O0  1  0.97401900  0.13842100  0.15069600  1
  O  O1  1  0.47209200  0.13367000  0.65376900  1
  O  O2  1  0.22107700  0.13633800  0.40391400  1
  O  O3  1  0.72722600  0.13707700  0.90255500  1
  O  O4  1  0.71020100  0.19024800  0.39727100  1
  O  O5  1  0.96019300  0.18822100  0.64802100  1
  O  O6  1  0.46625800  0.19077400  0.14653600  1
  O  O7  1  0.20214800  0.20061300  0.89965600  1
  O  O8  1  0.71406500  0.45739600  0.01812600  1
  O  O9  1  0.97051400  0.45884000  0.27053600  1
  O  O10  1  0.46781800  0.45910700  0.76354000  1
  O  O11  1  0.22526500  0.46106000  0.51550400  1
  O  O12  1  0.53626800  0.54337200  0.23211100  1
  O  O13  1  0.78505100  0.54270100  0.48354400  1
  O  O14  1  0.03121800  0.54092500  0.73487200  1
  O  O15  1  0.27828300  0.54146600  0.97873800  1
  O  O16  1  0.78521000  0.80979400  0.10188600  1
  O  O17  1  0.04605100  0.79909800  0.35200400  1
  O  O18  1  0.29661700  0.79969700  0.59981400  1
  O  O19  1  0.54009600  0.81109900  0.85330100  1
  O  O20  1  0.77260400  0.86439700  0.59654800  1
  O  O21  1  0.52391500  0.85925000  0.34974600  1
  O  O22  1  0.27635700  0.86098100  0.09972200  1
  O  O23  1  0.02637100  0.86598100  0.84540300  1
loop_
_geom_bond_atom_site_label_1
_geom_bond_atom_site_label_2
_geom_bond_distance
_geom_bond_site_symmetry_2
Li0 O8 1.848698 1_556
Li0 O15 2.012560 1_655
Li0 O14 2.018190 1_655
Li0 O7 2.039629 1_655
Li1 O12 1.857419 1_555
Li1 O9 1.981621 1_455
Li1 O17 2.044479 1_555
Li1 O11 2.044938 1_555
Li2 O13 1.841872 1_555
Li2 O10 1.968115 1_555
Li2 O11 2.034002 1_555
Li2 O18 2.043209 1_555
O0 Ti4 1.964607 1_555
O0 Ti2 1.987413 1_655
O0 Ti1 2.009601 1_645
O1 Ti6 1.952589 1_555
O1 Ti0 1.992635 1_555
O1 Ti3 1.998229 1_555
O2 Ti3 1.961764 1_555
O2 Ti5 1.975710 1_455
O2 Ti2 1.989642 1_555
O3 Ti7 1.946675 1_555
O3 Ti0 1.973278 1_555
O3 Ti1 2.034211 1_646
O4 Ti4 1.960139 1_555
O4 Ti5 1.967886 1_555
O4 Ti3 1.994525 1_555
O5 Ti5 1.941583 1_555
O5 Ti6 1.957682 1_655
O5 Ti0 2.008269 1_555
O6 Ti2 1.975816 1_555
O6 Ti4 1.999193 1_555
O6 Ti7 2.007724 1_554
O7 Ti7 1.979499 1_555
O7 Ti6 1.992089 1_555
O7 Ti1 2.093893 1_546
O8 Ti7 1.993835 1_554
O8 Ti8 2.008194 1_555
O8 Ti4 2.017873 1_555
O9 Ti4 1.996778 1_555
O9 Ti5 2.027111 1_555
O9 Ti9 2.037333 1_555
O10 Ti7 2.007558 1_555
O10 Ti6 2.032056 1_555
O10 Ti11 2.043246 1_555
O11 Ti6 2.030269 1_555
O11 Ti5 2.064659 1_455
O11 Ti10 2.088137 1_555
O12 Ti9 2.002307 1_555
O12 Ti4 2.015844 1_555
O12 Ti8 2.024016 1_555
O13 Ti10 1.981442 1_655
O13 Ti5 2.012890 1_555
O13 Ti9 2.054140 1_555
O14 Ti10 1.963039 1_555
O14 Ti6 2.049566 1_555
O14 Ti11 2.056805 1_555
O15 Ti11 1.990429 1_555
O15 Ti8 2.001414 1_556
O15 Ti7 2.043723 1_555
O16 Ti9 1.945907 1_555
O16 Ti1 1.982698 1_655
O16 Ti8 2.003679 1_555
O17 Ti9 1.959705 1_455
O17 Ti10 2.047705 1_555
O17 Ti2 2.126822 1_565
O18 Ti11 1.979762 1_555
O18 Ti10 1.989708 1_555
O18 Ti3 2.067373 1_565
O19 Ti11 1.946819 1_555
O19 Ti8 1.951298 1_556
O19 Ti0 2.023572 1_565
O20 Ti10 1.912927 1_655
O20 Ti3 2.022543 1_565
O20 Ti0 2.025669 1_565
O21 Ti9 1.958867 1_555
O21 Ti3 1.994977 1_565
O21 Ti2 2.038423 1_565
O22 Ti8 1.966661 1_555
O22 Ti1 1.970072 1_555
O22 Ti2 2.011711 1_565
O23 Ti11 1.969225 1_555
O23 Ti1 1.987280 1_556
O23 Ti0 1.989141 1_465
