# generated using pymatgen
data_TiV(PO4)2
_symmetry_space_group_name_H-M   'P 1'
_cell_length_a   8.60538872
_cell_length_b   8.60538872
_cell_length_c   8.60538885
_cell_angle_alpha   60.58518080
_cell_angle_beta   60.58518080
_cell_angle_gamma   60.58517396
_symmetry_Int_Tables_number   1
_chemical_formula_structural   TiV(PO4)2
_chemical_formula_sum   'Ti3 V3 P6 O24'
_cell_volume   456.56141914
_cell_formula_units_Z   3
loop_
 _symmetry_equiv_pos_site_id
 _symmetry_equiv_pos_as_xyz
  1  'x, y, z'
loop_
 _atom_site_type_symbol
 _atom_site_label
 _atom_site_symmetry_multiplicity
 _atom_site_fract_x
 _atom_site_fract_y
 _atom_site_fract_z
 _atom_site_occupancy
  Ti  Ti0  1  0.64497500  0.64497500  0.64497500  1
  Ti  Ti1  1  0.85645300  0.85645300  0.85645300  1
  Ti  Ti2  1  0.35490900  0.35490900  0.35490900  1
  V  V0  1  0.99927000  0.99927000  0.99927000  1
  V  V1  1  0.14167300  0.14167300  0.14167300  1
  V  V2  1  0.50100000  0.50100000  0.50100000  1
  P  P0  1  0.95593800  0.24981600  0.54271400  1
  P  P1  1  0.54271400  0.95593800  0.24981600  1
  P  P2  1  0.24981600  0.54271400  0.95593800  1
  P  P3  1  0.74914800  0.45715500  0.04346600  1
  P  P4  1  0.45715500  0.04346600  0.74914800  1
  P  P5  1  0.04346600  0.74914800  0.45715500  1
  O  O0  1  0.49729300  0.11802100  0.31527700  1
  O  O1  1  0.31527700  0.49729300  0.11802000  1
  O  O2  1  0.11802100  0.31527700  0.49729300  1
  O  O3  1  0.94190200  0.08959800  0.73946100  1
  O  O4  1  0.99033900  0.18675900  0.39139000  1
  O  O5  1  0.76115000  0.41313100  0.56500800  1
  O  O6  1  0.73946100  0.94190200  0.08959800  1
  O  O7  1  0.56500800  0.76115000  0.41313100  1
  O  O8  1  0.81554200  0.61682000  0.99812600  1
  O  O9  1  0.41313100  0.56500800  0.76115000  1
  O  O10  1  0.90408300  0.26316100  0.05477500  1
  O  O11  1  0.61682000  0.99812600  0.81554200  1
  O  O12  1  0.39139000  0.99033900  0.18675900  1
  O  O13  1  0.08959800  0.73946100  0.94190200  1
  O  O14  1  0.58721300  0.44443900  0.23827500  1
  O  O15  1  0.18675900  0.39139000  0.99033900  1
  O  O16  1  0.44443900  0.23827500  0.58721300  1
  O  O17  1  0.26316100  0.05477500  0.90408300  1
  O  O18  1  0.23827500  0.58721300  0.44443900  1
  O  O19  1  0.99812600  0.81554200  0.61682000  1
  O  O20  1  0.05477500  0.90408300  0.26316100  1
  O  O21  1  0.88469400  0.67891600  0.50811100  1
  O  O22  1  0.67891600  0.50811100  0.88469400  1
  O  O23  1  0.50811100  0.88469400  0.67891600  1
loop_
_geom_bond_atom_site_label_1
_geom_bond_atom_site_label_2
_geom_bond_distance
_geom_bond_site_symmetry_2
O0 P1 1.560617 1_545
O0 Ti2 1.895299 1_555
O1 P2 1.560609 1_554
O1 Ti2 1.895306 1_555
O2 P0 1.560617 1_455
O2 Ti2 1.895299 1_555
O3 P0 1.565836 1_555
O3 Ti1 2.077843 1_545
O3 V0 2.201526 1_545
O4 P0 1.495141 1_555
O4 V1 2.009503 1_655
O5 P0 1.567376 1_555
O5 Ti0 2.041346 1_555
O5 V2 2.241934 1_555
O6 P1 1.565836 1_555
O6 Ti1 2.077843 1_554
O6 V0 2.201527 1_554
O7 P1 1.567376 1_555
O7 Ti0 2.041346 1_555
O7 V2 2.241934 1_555
O8 P3 1.546622 1_556
O8 Ti1 1.919566 1_555
O9 P2 1.567376 1_555
O9 Ti0 2.041346 1_555
O9 V2 2.241934 1_555
O10 P3 1.534786 1_555
O10 V1 2.113449 1_655
O10 V0 2.215855 1_544
O11 P4 1.546622 1_565
O11 Ti1 1.919566 1_555
O12 P1 1.495141 1_555
O12 V1 2.009503 1_565
O13 P2 1.565836 1_555
O13 Ti1 2.077843 1_455
O13 V0 2.201526 1_455
O14 P3 1.561774 1_555
O14 Ti2 2.092767 1_555
O14 V2 2.231010 1_555
O15 P2 1.495141 1_555
O15 V1 2.009503 1_556
O16 P4 1.561774 1_555
O16 Ti2 2.092767 1_555
O16 V2 2.231010 1_555
O17 P4 1.534786 1_555
O17 V1 2.113449 1_556
O17 V0 2.215855 1_445
O18 P5 1.561774 1_555
O18 Ti2 2.092766 1_555
O18 V2 2.231010 1_555
O19 P5 1.546622 1_655
O19 Ti1 1.919566 1_555
O20 P5 1.534786 1_555
O20 V1 2.113449 1_565
O20 V0 2.215855 1_454
O21 P5 1.544866 1_655
O21 Ti0 1.896140 1_555
O22 P3 1.544866 1_556
O22 Ti0 1.896140 1_555
O23 P4 1.544866 1_565
O23 Ti0 1.896140 1_555
