# generated using pymatgen
data_MnPSe3
_symmetry_space_group_name_H-M   'P 1'
_cell_length_a   7.83181751
_cell_length_b   7.83181577
_cell_length_c   7.83181742
_cell_angle_alpha   48.22903535
_cell_angle_beta   48.22902317
_cell_angle_gamma   48.22902874
_symmetry_Int_Tables_number   1
_chemical_formula_structural   MnPSe3
_chemical_formula_sum   'Mn2 P2 Se6'
_cell_volume   244.92095213
_cell_formula_units_Z   2
loop_
 _symmetry_equiv_pos_site_id
 _symmetry_equiv_pos_as_xyz
  1  'x, y, z'
loop_
 _atom_site_type_symbol
 _atom_site_label
 _atom_site_symmetry_multiplicity
 _atom_site_fract_x
 _atom_site_fract_y
 _atom_site_fract_z
 _atom_site_occupancy
  Mn  Mn0  1  0.83238286  0.83238286  0.83238286  1
  Mn  Mn1  1  0.16761714  0.16761714  0.16761714  1
  P  P0  1  0.55357939  0.55357939  0.55357939  1
  P  P1  1  0.44642061  0.44642061  0.44642061  1
  Se  Se0  1  0.41514393  0.74941380  0.08893301  1
  Se  Se1  1  0.08893301  0.41514393  0.74941380  1
  Se  Se2  1  0.74941380  0.08893301  0.41514393  1
  Se  Se3  1  0.58485607  0.25058620  0.91106699  1
  Se  Se4  1  0.91106699  0.58485607  0.25058620  1
  Se  Se5  1  0.25058620  0.91106699  0.58485607  1
loop_
_geom_bond_atom_site_label_1
_geom_bond_atom_site_label_2
_geom_bond_distance
_geom_bond_site_symmetry_2
Mn0 Se1 2.734849 1_655
Mn0 Se0 2.734850 1_556
Mn0 Se2 2.734850 1_565
Mn0 Se3 2.739244 1_565
Mn0 Se5 2.739244 1_655
Mn0 Se4 2.739245 1_556
Mn1 Se4 2.734849 1_455
Mn1 Se3 2.734850 1_554
Mn1 Se5 2.734850 1_545
Mn1 Se0 2.739244 1_545
Mn1 Se2 2.739244 1_455
Mn1 Se1 2.739245 1_554
P0 Se5 2.194872 1_555
P0 Se4 2.194872 1_555
P0 Se3 2.194872 1_555
P0 P1 2.219954 1_555
P1 Se2 2.194872 1_555
P1 Se1 2.194872 1_555
P1 Se0 2.194872 1_555
