# generated using pymatgen
data_K2VAgS4
_symmetry_space_group_name_H-M   'P 1'
_cell_length_a   12.93474725
_cell_length_b   11.54848245
_cell_length_c   7.12244476
_cell_angle_alpha   84.14239978
_cell_angle_beta   62.64349756
_cell_angle_gamma   33.21410266
_symmetry_Int_Tables_number   1
_chemical_formula_structural   K2VAgS4
_chemical_formula_sum   'K4 V2 Ag2 S8'
_cell_volume   421.48640102
_cell_formula_units_Z   2
loop_
 _symmetry_equiv_pos_site_id
 _symmetry_equiv_pos_as_xyz
  1  'x, y, z'
loop_
 _atom_site_type_symbol
 _atom_site_label
 _atom_site_symmetry_multiplicity
 _atom_site_fract_x
 _atom_site_fract_y
 _atom_site_fract_z
 _atom_site_occupancy
  K  K0  1  0.06947718  0.06947718  0.43052282  1
  K  K1  1  0.18052282  0.18052282  0.81947718  1
  K  K2  1  0.43052282  0.43052282  0.06947718  1
  K  K3  1  0.81947718  0.81947718  0.18052282  1
  V  V0  1  0.00000000  -0.00000000  0.00000000  1
  V  V1  1  0.25000000  0.25000000  0.25000000  1
  Ag  Ag0  1  0.50000000  0.50000000  0.50000000  1
  Ag  Ag1  1  0.75000000  0.75000000  0.75000000  1
  S  S0  1  0.75321261  0.36096003  0.04613606  1
  S  S1  1  0.04613606  0.83969030  0.75321261  1
  S  S2  1  0.83969030  0.04613606  0.36096003  1
  S  S3  1  0.36096003  0.75321261  0.83969030  1
  S  S4  1  0.49678739  0.88903997  0.20386394  1
  S  S5  1  0.41030970  0.20386394  0.88903997  1
  S  S6  1  0.20386394  0.41030970  0.49678739  1
  S  S7  1  0.88903997  0.49678739  0.41030970  1
loop_
_geom_bond_atom_site_label_1
_geom_bond_atom_site_label_2
_geom_bond_distance
_geom_bond_site_symmetry_2
K0 S7 3.272959 1_455
K0 S4 3.272960 1_545
K0 S0 3.282915 1_456
K0 S3 3.282921 1_544
K0 S1 3.445801 1_545
K0 S2 3.445805 1_455
K0 S0 3.727875 1_545
K0 S3 3.727876 1_455
K1 S3 3.272959 1_545
K1 S0 3.272960 1_456
K1 S4 3.282915 1_545
K1 S7 3.282921 1_456
K1 S6 3.445801 1_555
K1 S5 3.445805 1_555
K1 S4 3.727875 1_456
K1 S7 3.727876 1_545
K2 S5 3.272948 1_554
K2 S6 3.272952 1_555
K2 S1 3.282916 1_644
K2 S2 3.282918 1_465
K2 S0 3.445792 1_555
K2 S3 3.445795 1_554
K2 S1 3.727872 1_555
K2 S2 3.727878 1_554
K3 S2 3.272948 1_565
K3 S1 3.272952 1_654
K3 S6 3.282916 1_565
K3 S5 3.282918 1_654
K3 S4 3.445792 1_555
K3 S7 3.445795 1_555
K3 S6 3.727872 1_654
K3 S5 3.727878 1_565
Ag0 S3 2.506878 1_555
Ag0 S0 2.506884 1_555
Ag0 S2 2.506886 1_555
Ag0 S1 2.506887 1_555
Ag1 S7 2.506878 1_555
Ag1 S4 2.506884 1_556
Ag1 S5 2.506886 1_565
Ag1 S6 2.506887 1_655
S0 V0 2.173638 1_655
S1 V0 2.173646 1_566
S2 V0 2.173641 1_655
S3 V0 2.173636 1_566
S4 V1 2.173638 1_565
S5 V1 2.173641 1_556
S6 V1 2.173646 1_555
S7 V1 2.173636 1_655
