# generated using pymatgen
data_V4(OF3)3
_symmetry_space_group_name_H-M   'P 1'
_cell_length_a   5.26727700
_cell_length_b   5.37148362
_cell_length_c   17.35462389
_cell_angle_alpha   87.66409297
_cell_angle_beta   98.70234580
_cell_angle_gamma   118.92401250
_symmetry_Int_Tables_number   1
_chemical_formula_structural   V4(OF3)3
_chemical_formula_sum   'V8 O6 F18'
_cell_volume   424.52162697
_cell_formula_units_Z   2
loop_
 _symmetry_equiv_pos_site_id
 _symmetry_equiv_pos_as_xyz
  1  'x, y, z'
loop_
 _atom_site_type_symbol
 _atom_site_label
 _atom_site_symmetry_multiplicity
 _atom_site_fract_x
 _atom_site_fract_y
 _atom_site_fract_z
 _atom_site_occupancy
  V  V0  1  0.25107900  0.63117900  0.87472900  1
  V  V1  1  0.24989200  0.11976400  0.37523300  1
  V  V2  1  0.50159400  0.23162200  0.75356000  1
  V  V3  1  0.50252600  0.71886000  0.25292700  1
  V  V4  1  0.73230200  0.84976500  0.63016200  1
  V  V5  1  0.73393500  0.39219400  0.12744600  1
  V  V6  1  0.99759400  0.03085800  0.99617300  1
  V  V7  1  0.99841500  0.51738300  0.49662100  1
  O  O0  1  0.04007100  0.30620400  0.93977500  1
  O  O1  1  0.03757800  0.79078500  0.43996300  1
  O  O2  1  0.45805100  0.95119800  0.80908100  1
  O  O3  1  0.55388200  0.57609300  0.68702100  1
  O  O4  1  0.46310800  0.44854200  0.31072000  1
  O  O5  1  0.59184500  0.57535700  0.16437600  1
  F  F0  1  0.06875400  0.83358200  0.91437700  1
  F  F1  1  0.07956000  0.06094600  0.70964500  1
  F  F2  1  0.06851500  0.32082700  0.41489100  1
  F  F3  1  0.08043700  0.53779300  0.20952300  1
  F  F4  1  0.58006600  0.79336600  0.96511400  1
  F  F5  1  0.43247400  0.42535300  0.83584800  1
  F  F6  1  0.42824800  0.91907600  0.33443700  1
  F  F7  1  0.42600700  0.69963300  0.53797100  1
  F  F8  1  0.57164500  0.09008700  0.66023500  1
  F  F9  1  0.57122100  0.28154900  0.46315100  1
  F  F10  1  0.42291900  0.20459700  0.03858200  1
  F  F11  1  0.93623800  0.67087800  0.58892300  1
  F  F12  1  0.92096200  0.46103200  0.78538000  1
  F  F13  1  0.92749900  0.96393900  0.28738900  1
  F  F14  1  0.53545700  0.05133000  0.18722900  1
  F  F15  1  0.96706300  0.69320300  0.05982400  1
  F  F16  1  0.95303100  0.18336300  0.56235600  1
  F  F17  1  0.91803200  0.16964400  0.08734000  1
loop_
_geom_bond_atom_site_label_1
_geom_bond_atom_site_label_2
_geom_bond_distance
_geom_bond_site_symmetry_2
O0 V6 1.680388 1_455
O0 V0 1.974603 1_555
O1 V7 1.678312 1_455
O1 V1 1.985452 1_565
O2 V2 1.692433 1_565
O2 V0 1.960831 1_555
O3 V4 1.686393 1_555
O3 V2 2.064493 1_555
O4 V3 1.676330 1_555
O4 V1 1.983541 1_555
O5 V5 1.687512 1_555
O5 V3 1.960434 1_555
F0 V0 1.961797 1_555
F0 V6 1.986527 1_465
F1 V4 1.972862 1_445
F1 V2 1.983905 1_555
F2 V1 1.952035 1_555
F2 V7 1.980032 1_455
F3 V5 1.973598 1_455
F3 V3 1.979282 1_555
F4 V6 1.933417 1_565
F4 V0 2.012679 1_555
F5 V0 1.966785 1_555
F5 V2 1.974790 1_555
F6 V1 1.946532 1_565
F6 V3 2.002297 1_555
F7 V4 1.969413 1_555
F7 V7 1.995338 1_455
F8 V2 1.972271 1_555
F8 V4 1.974864 1_545
F9 V1 1.962590 1_555
F9 V7 1.978015 1_555
F10 V5 1.960329 1_555
F10 V6 1.991547 1_454
F11 V4 1.968885 1_555
F11 V7 1.969933 1_555
F12 V2 1.938084 1_555
F12 V0 2.006394 1_655
F13 V1 1.963187 1_665
F13 V3 1.977375 1_555
F14 V5 1.960499 1_555
F14 V3 2.028195 1_545
F15 V5 1.964748 1_555
F15 V6 2.035665 1_564
F16 V7 2.019524 1_555
F16 V4 2.043115 1_545
F17 V6 1.957963 1_554
F17 V5 2.060856 1_555
