# generated using pymatgen
data_Li3Cd
_symmetry_space_group_name_H-M   'P 1'
_cell_length_a   4.67566415
_cell_length_b   4.67566415
_cell_length_c   4.67566415
_cell_angle_alpha   60.00000000
_cell_angle_beta   60.00000000
_cell_angle_gamma   60.00000000
_symmetry_Int_Tables_number   1
_chemical_formula_structural   Li3Cd
_chemical_formula_sum   'Li3 Cd1'
_cell_volume   72.27946493
_cell_formula_units_Z   1
loop_
 _symmetry_equiv_pos_site_id
 _symmetry_equiv_pos_as_xyz
  1  'x, y, z'
loop_
 _atom_site_type_symbol
 _atom_site_label
 _atom_site_symmetry_multiplicity
 _atom_site_fract_x
 _atom_site_fract_y
 _atom_site_fract_z
 _atom_site_occupancy
  Li  Li0  1  -0.00000000  -0.00000000  -0.00000000  1
  Li  Li1  1  0.50000000  0.50000000  0.50000000  1
  Li  Li2  1  0.25000100  0.25000100  0.25000100  1
  Cd  Cd0  1  0.74999900  0.74999900  0.74999900  1
loop_
_geom_bond_atom_site_label_1
_geom_bond_atom_site_label_2
_geom_bond_distance
_geom_bond_site_symmetry_2
Li0 Li2 2.863244 1_545
Li0 Li2 2.863244 1_455
Li0 Li2 2.863244 1_554
Li0 Li2 2.863259 1_555
Li1 Li2 2.863236 1_555
Li1 Li2 2.863252 1_565
Li1 Li2 2.863252 1_655
Li1 Li2 2.863252 1_556
Cd0 Li1 2.863236 1_555
Cd0 Li0 2.863244 1_566
Cd0 Li0 2.863244 1_665
Cd0 Li0 2.863244 1_656
Cd0 Li1 2.863252 1_556
Cd0 Li1 2.863252 1_565
Cd0 Li1 2.863252 1_655
Cd0 Li0 2.863259 1_666
Cd0 Li2 3.306181 1_565
Cd0 Li2 3.306181 1_655
Cd0 Li2 3.306181 1_556
Cd0 Li2 3.306207 1_566
Cd0 Li2 3.306207 1_665
Cd0 Li2 3.306207 1_656
