# generated using pymatgen
data_CsNa2Be6(BO3)5
_symmetry_space_group_name_H-M   'P 1'
_cell_length_a   7.34385751
_cell_length_b   7.34385751
_cell_length_c   10.87228913
_cell_angle_alpha   77.62830435
_cell_angle_beta   77.62830435
_cell_angle_gamma   35.27384616
_symmetry_Int_Tables_number   1
_chemical_formula_structural   CsNa2Be6(BO3)5
_chemical_formula_sum   'Cs1 Na2 Be6 B5 O15'
_cell_volume   329.94957861
_cell_formula_units_Z   1
loop_
 _symmetry_equiv_pos_site_id
 _symmetry_equiv_pos_as_xyz
  1  'x, y, z'
loop_
 _atom_site_type_symbol
 _atom_site_label
 _atom_site_symmetry_multiplicity
 _atom_site_fract_x
 _atom_site_fract_y
 _atom_site_fract_z
 _atom_site_occupancy
  Cs  Cs0  1  0.54038100  0.45961900  0.00000000  1
  Na  Na0  1  0.20338900  0.17240800  0.45641900  1
  Na  Na1  1  0.82759200  0.79661100  0.54358100  1
  Be  Be0  1  0.81072200  0.70486800  0.07749600  1
  Be  Be1  1  0.29513200  0.18927800  0.92250400  1
  Be  Be2  1  0.67846000  0.60084200  0.29691900  1
  Be  Be3  1  0.39915800  0.32154000  0.70308100  1
  Be  Be4  1  0.04951600  0.96963900  0.36479700  1
  Be  Be5  1  0.03036100  0.95048400  0.63520300  1
  B  B0  1  0.85332100  0.81160700  0.27526400  1
  B  B1  1  0.18839300  0.14667900  0.72473600  1
  B  B2  1  0.20856200  0.11091100  0.16368200  1
  B  B3  1  0.88908900  0.79143800  0.83631800  1
  B  B4  1  0.54583700  0.45416300  0.50000000  1
  O  O0  1  0.90415800  0.42354400  0.16575700  1
  O  O1  1  0.57645600  0.09584200  0.83424300  1
  O  O2  1  0.42086400  0.00457100  0.06195600  1
  O  O3  1  0.99542900  0.57913600  0.93804400  1
  O  O4  1  0.74666100  0.72598500  0.35519100  1
  O  O5  1  0.27401500  0.25333900  0.64480900  1
  O  O6  1  0.23673600  0.76326400  0.50000000  1
  O  O7  1  0.75696800  0.34837400  0.39804100  1
  O  O8  1  0.65162600  0.24303200  0.60195900  1
  O  O9  1  0.30313500  0.90118400  0.26477200  1
  O  O10  1  0.09881600  0.69686500  0.73522800  1
  O  O11  1  0.88737000  0.80398900  0.14684600  1
  O  O12  1  0.19601100  0.11263000  0.85315400  1
  O  O13  1  0.91788300  0.89759600  0.33583200  1
  O  O14  1  0.10240400  0.08211700  0.66416800  1
loop_
_geom_bond_atom_site_label_1
_geom_bond_atom_site_label_2
_geom_bond_distance
_geom_bond_site_symmetry_2
Cs0 O11 3.254118 1_455
Cs0 O12 3.254118 1_564
Cs0 O11 3.262078 1_545
Cs0 O12 3.262078 1_654
Cs0 O0 3.340334 1_555
Cs0 O1 3.340334 1_554
Na0 O14 2.352618 1_555
Na0 O4 2.486908 1_545
Na0 O5 2.509526 1_555
Na0 O4 2.527606 1_455
Na0 O7 2.538433 1_455
Na0 O6 2.747883 1_545
Na0 O9 2.754553 1_545
Na1 O13 2.352618 1_555
Na1 O5 2.486908 1_655
Na1 O4 2.509526 1_555
Na1 O5 2.527606 1_565
Na1 O8 2.538433 1_565
Na1 O6 2.747883 1_655
Na1 O10 2.754553 1_655
Be0 O11 1.581557 1_555
Be0 O3 1.632440 1_554
Be0 O0 1.666711 1_555
Be0 O2 1.681887 1_565
Be1 O12 1.581557 1_555
Be1 O2 1.632440 1_556
Be1 O1 1.666711 1_555
Be1 O3 1.681887 1_455
Be2 O7 1.622192 1_555
Be2 O4 1.622937 1_555
Be2 O0 1.653835 1_555
Be2 O9 1.655373 1_555
Be3 O8 1.622192 1_555
Be3 O5 1.622937 1_555
Be3 O1 1.653835 1_555
Be3 O10 1.655373 1_555
Be4 O13 1.533145 1_455
Be4 O9 1.655872 1_555
Be4 O7 1.680330 1_465
Be4 O6 1.690311 1_555
Be5 O14 1.533145 1_565
Be5 O10 1.655872 1_555
Be5 O8 1.680330 1_465
Be5 O6 1.690311 1_555
B0 O13 1.363116 1_555
B0 O11 1.369691 1_555
B0 O4 1.429151 1_555
B1 O14 1.363116 1_555
B1 O12 1.369691 1_555
B1 O5 1.429151 1_555
B2 O0 1.374557 1_455
B2 O2 1.380968 1_555
B2 O9 1.384796 1_545
B3 O1 1.374557 1_565
B3 O3 1.380968 1_555
B3 O10 1.384796 1_655
B4 O6 1.375544 1_555
B4 O7 1.379190 1_555
B4 O8 1.379190 1_555
