# generated using pymatgen
data_KNaSmTaO5
_symmetry_space_group_name_H-M   'P 1'
_cell_length_a   5.74907900
_cell_length_b   5.74907900
_cell_length_c   8.32085500
_cell_angle_alpha   90.00000000
_cell_angle_beta   90.00000000
_cell_angle_gamma   90.00000000
_symmetry_Int_Tables_number   1
_chemical_formula_structural   KNaSmTaO5
_chemical_formula_sum   'K2 Na2 Sm2 Ta2 O10'
_cell_volume   275.02014516
_cell_formula_units_Z   2
loop_
 _symmetry_equiv_pos_site_id
 _symmetry_equiv_pos_as_xyz
  1  'x, y, z'
loop_
 _atom_site_type_symbol
 _atom_site_label
 _atom_site_symmetry_multiplicity
 _atom_site_fract_x
 _atom_site_fract_y
 _atom_site_fract_z
 _atom_site_occupancy
  K  K0  1  0.00000000  0.00000000  0.00000000  1
  K  K1  1  0.50000000  0.50000000  0.00000000  1
  Na  Na0  1  0.00000000  0.50000000  0.24089900  1
  Na  Na1  1  0.50000000  0.00000000  0.75910100  1
  Sm  Sm0  1  0.00000000  0.00000000  0.50000000  1
  Sm  Sm1  1  0.50000000  0.50000000  0.50000000  1
  Ta  Ta0  1  0.50000000  0.00000000  0.25955700  1
  Ta  Ta1  1  0.00000000  0.50000000  0.74044300  1
  O  O0  1  0.50000000  0.00000000  0.03534000  1
  O  O1  1  0.26885100  0.76885100  0.33111600  1
  O  O2  1  0.73114900  0.76885100  0.33111600  1
  O  O3  1  0.26885100  0.23114900  0.33111600  1
  O  O4  1  0.73114900  0.23114900  0.33111600  1
  O  O5  1  0.76885100  0.26885100  0.66888400  1
  O  O6  1  0.23114900  0.26885100  0.66888400  1
  O  O7  1  0.76885100  0.73114900  0.66888400  1
  O  O8  1  0.23114900  0.73114900  0.66888400  1
  O  O9  1  0.00000000  0.50000000  0.96466000  1
loop_
_geom_bond_atom_site_label_1
_geom_bond_atom_site_label_2
_geom_bond_distance
_geom_bond_site_symmetry_2
K0 O0 2.889541 1_455
K0 O9 2.889541 1_554
K0 O9 2.889541 1_544
K0 O0 2.889541 1_555
K1 O9 2.889541 1_554
K1 O0 2.889541 1_555
K1 O9 2.889541 1_654
K1 O0 2.889541 1_565
Na0 O9 2.298545 1_554
Na0 O4 2.311183 1_455
Na0 O1 2.311183 1_555
Na0 O2 2.311183 1_455
Na0 O3 2.311183 1_555
Na1 O0 2.298545 1_556
Na1 O7 2.311183 1_545
Na1 O8 2.311183 1_545
Na1 O5 2.311183 1_555
Na1 O6 2.311183 1_555
O0 Ta0 1.865677 1_555
O1 Ta0 1.971410 1_565
O1 Sm1 2.475830 1_555
O1 Sm0 2.475830 1_565
O2 Ta0 1.971410 1_565
O2 Sm1 2.475830 1_555
O2 Sm0 2.475830 1_665
O3 Ta0 1.971410 1_555
O3 Sm1 2.475830 1_555
O3 Sm0 2.475830 1_555
O4 Ta0 1.971410 1_555
O4 Sm0 2.475830 1_655
O4 Sm1 2.475830 1_555
O5 Ta1 1.971410 1_655
O5 Sm1 2.475830 1_555
O5 Sm0 2.475830 1_655
O6 Ta1 1.971410 1_555
O6 Sm0 2.475830 1_555
O6 Sm1 2.475830 1_555
O7 Ta1 1.971410 1_655
O7 Sm0 2.475830 1_665
O7 Sm1 2.475830 1_555
O8 Ta1 1.971410 1_555
O8 Sm0 2.475830 1_565
O8 Sm1 2.475830 1_555
O9 Ta1 1.865677 1_555
