# generated using pymatgen
data_HfBeRh2
_symmetry_space_group_name_H-M   'P 1'
_cell_length_a   4.30693429
_cell_length_b   4.30693429
_cell_length_c   4.30693429
_cell_angle_alpha   60.00000000
_cell_angle_beta   60.00000000
_cell_angle_gamma   60.00000000
_symmetry_Int_Tables_number   1
_chemical_formula_structural   HfBeRh2
_chemical_formula_sum   'Hf1 Be1 Rh2'
_cell_volume   56.49236269
_cell_formula_units_Z   1
loop_
 _symmetry_equiv_pos_site_id
 _symmetry_equiv_pos_as_xyz
  1  'x, y, z'
loop_
 _atom_site_type_symbol
 _atom_site_label
 _atom_site_symmetry_multiplicity
 _atom_site_fract_x
 _atom_site_fract_y
 _atom_site_fract_z
 _atom_site_occupancy
  Hf  Hf0  1  0.75000100  0.75000100  0.75000100  1
  Be  Be0  1  0.25000000  0.25000000  0.25000000  1
  Rh  Rh0  1  0.00000000  -0.00000000  0.00000000  1
  Rh  Rh1  1  0.50000100  0.50000100  0.50000100  1
loop_
_geom_bond_atom_site_label_1
_geom_bond_atom_site_label_2
_geom_bond_distance
_geom_bond_site_symmetry_2
Hf0 Rh0 2.637437 1_666
Hf0 Rh1 2.637448 1_555
Hf0 Rh1 2.637448 1_655
Hf0 Rh1 2.637448 1_556
Hf0 Rh1 2.637448 1_565
Hf0 Rh0 2.637451 1_566
Hf0 Rh0 2.637451 1_656
Hf0 Rh0 2.637451 1_665
Be0 Rh1 2.637444 1_545
Be0 Rh1 2.637444 1_554
Be0 Rh1 2.637444 1_455
Be0 Rh0 2.637448 1_555
Be0 Rh0 2.637448 1_556
Be0 Rh0 2.637448 1_565
Be0 Rh0 2.637448 1_655
Be0 Rh1 2.637458 1_555
