# generated using pymatgen
data_Tc3Ir
_symmetry_space_group_name_H-M   'P 1'
_cell_length_a   5.49572555
_cell_length_b   5.49572845
_cell_length_c   4.34201213
_cell_angle_alpha   90.00000000
_cell_angle_beta   90.00000000
_cell_angle_gamma   120.00000365
_symmetry_Int_Tables_number   1
_chemical_formula_structural   Tc3Ir
_chemical_formula_sum   'Tc6 Ir2'
_cell_volume   113.57217688
_cell_formula_units_Z   2
loop_
 _symmetry_equiv_pos_site_id
 _symmetry_equiv_pos_as_xyz
  1  'x, y, z'
loop_
 _atom_site_type_symbol
 _atom_site_label
 _atom_site_symmetry_multiplicity
 _atom_site_fract_x
 _atom_site_fract_y
 _atom_site_fract_z
 _atom_site_occupancy
  Tc  Tc0  1  0.83967229  0.16031227  0.74999900  1
  Tc  Tc1  1  0.32063679  0.16030803  0.74999900  1
  Tc  Tc2  1  0.83968659  0.67936881  0.74999900  1
  Tc  Tc3  1  0.16032690  0.83969597  0.24999900  1
  Tc  Tc4  1  0.67936734  0.83969359  0.24999900  1
  Tc  Tc5  1  0.16031326  0.32062255  0.24999900  1
  Ir  Ir0  1  0.66666170  0.33332756  0.24999900  1
  Ir  Ir1  1  0.33333413  0.66667322  0.74999900  1
loop_
_geom_bond_atom_site_label_1
_geom_bond_atom_site_label_2
_geom_bond_distance
_geom_bond_site_symmetry_2
Tc0 Tc2 2.643174 1_545
Tc0 Tc1 2.643261 1_655
Tc0 Tc4 2.653646 1_546
Tc0 Tc4 2.653646 1_545
Tc0 Tc5 2.653707 1_655
Tc0 Tc5 2.653707 1_656
Tc0 Tc1 2.852465 1_555
Tc0 Tc2 2.852555 1_555
Tc1 Tc2 2.643141 1_445
Tc1 Tc3 2.653628 1_545
Tc1 Tc3 2.653628 1_546
Tc1 Tc5 2.653699 1_555
Tc1 Tc5 2.653699 1_556
Tc1 Tc2 2.852586 1_555
Tc2 Tc3 2.653705 1_655
Tc2 Tc3 2.653705 1_656
Tc2 Tc4 2.653715 1_555
Tc2 Tc4 2.653715 1_556
Tc3 Tc5 2.643079 1_565
Tc3 Tc4 2.643215 1_455
Tc3 Tc4 2.852510 1_555
Tc3 Tc5 2.852649 1_555
Tc4 Tc5 2.643101 1_665
Tc4 Tc5 2.852626 1_555
Ir0 Tc1 2.724976 1_555
Ir0 Tc1 2.724976 1_554
Ir0 Tc0 2.724979 1_554
Ir0 Tc0 2.724979 1_555
Ir0 Tc2 2.725024 1_555
Ir0 Tc2 2.725024 1_554
Ir0 Tc3 2.748436 1_545
Ir0 Tc4 2.748457 1_545
Ir0 Tc5 2.748506 1_555
Ir0 Tc5 2.748550 1_655
Ir0 Tc4 2.748602 1_555
Ir0 Tc3 2.748621 1_655
Ir1 Tc3 2.724991 1_555
Ir1 Tc3 2.724991 1_556
Ir1 Tc4 2.725000 1_555
Ir1 Tc4 2.725000 1_556
Ir1 Tc5 2.725051 1_555
Ir1 Tc5 2.725051 1_556
Ir1 Tc1 2.748438 1_565
Ir1 Tc0 2.748465 1_565
Ir1 Tc2 2.748501 1_455
Ir1 Tc2 2.748553 1_555
Ir1 Tc0 2.748591 1_455
Ir1 Tc1 2.748619 1_555
