# generated using pymatgen
data_NbC2NCl8
_symmetry_space_group_name_H-M   'P 1'
_cell_length_a   6.16204324
_cell_length_b   6.16204324
_cell_length_c   16.75697400
_cell_angle_alpha   90.00000000
_cell_angle_beta   90.00000000
_cell_angle_gamma   97.49513765
_symmetry_Int_Tables_number   1
_chemical_formula_structural   NbC2NCl8
_chemical_formula_sum   'Nb2 C4 N2 Cl16'
_cell_volume   630.83894295
_cell_formula_units_Z   2
loop_
 _symmetry_equiv_pos_site_id
 _symmetry_equiv_pos_as_xyz
  1  'x, y, z'
loop_
 _atom_site_type_symbol
 _atom_site_label
 _atom_site_symmetry_multiplicity
 _atom_site_fract_x
 _atom_site_fract_y
 _atom_site_fract_z
 _atom_site_occupancy
  Nb  Nb0  1  0.59499700  0.40500300  0.37432700  1
  Nb  Nb1  1  0.40500300  0.59499700  0.87432700  1
  C  C0  1  0.93393400  0.06606600  0.14369600  1
  C  C1  1  0.06606600  0.93393400  0.64369600  1
  C  C2  1  0.84545300  0.15454700  0.21626500  1
  C  C3  1  0.15454700  0.84545300  0.71626500  1
  N  N0  1  0.77176100  0.22823900  0.27241200  1
  N  N1  1  0.22823900  0.77176100  0.77241200  1
  Cl  Cl0  1  0.06998900  0.29072800  0.08855500  1
  Cl  Cl1  1  0.93001100  0.70927200  0.58855500  1
  Cl  Cl2  1  0.70927200  0.93001100  0.08855500  1
  Cl  Cl3  1  0.29072800  0.06998900  0.58855500  1
  Cl  Cl4  1  0.44446100  0.55553900  0.26023700  1
  Cl  Cl5  1  0.55553900  0.44446100  0.76023700  1
  Cl  Cl6  1  0.11837400  0.88162600  0.17197400  1
  Cl  Cl7  1  0.88162600  0.11837400  0.67197400  1
  Cl  Cl8  1  0.41857100  0.58142900  0.46992900  1
  Cl  Cl9  1  0.58142900  0.41857100  0.96992900  1
  Cl  Cl10  1  0.33107800  0.09645300  0.36231500  1
  Cl  Cl11  1  0.66892200  0.90354700  0.86231500  1
  Cl  Cl12  1  0.90354700  0.66892200  0.36231500  1
  Cl  Cl13  1  0.09645300  0.33107800  0.86231500  1
  Cl  Cl14  1  0.79564600  0.20435400  0.46042900  1
  Cl  Cl15  1  0.20435400  0.79564600  0.96042900  1
loop_
_geom_bond_atom_site_label_1
_geom_bond_atom_site_label_2
_geom_bond_distance
_geom_bond_site_symmetry_2
C0 C2 1.466573 1_555
C0 Cl6 1.773389 1_645
C0 Cl2 1.780549 1_545
C0 Cl0 1.780549 1_655
C1 C3 1.466573 1_555
C1 Cl7 1.773389 1_465
C1 Cl1 1.780549 1_455
C1 Cl3 1.780549 1_565
C2 N0 1.162498 1_555
C3 N1 1.162498 1_555
N0 Nb0 2.366197 1_555
N1 Nb1 2.366197 1_555
Cl4 Nb0 2.366514 1_555
Cl5 Nb1 2.366514 1_555
Cl8 Nb0 2.288778 1_555
Cl9 Nb1 2.288778 1_555
Cl10 Nb0 2.343837 1_555
Cl11 Nb1 2.343837 1_555
Cl12 Nb0 2.343837 1_555
Cl13 Nb1 2.343837 1_555
Cl14 Nb0 2.353279 1_555
Cl15 Nb1 2.353279 1_555
