# generated using pymatgen
data_Li3Mn4(BO3)4
_symmetry_space_group_name_H-M   'P 1'
_cell_length_a   5.21755800
_cell_length_b   5.89150736
_cell_length_c   9.16935594
_cell_angle_alpha   103.75050308
_cell_angle_beta   89.88476920
_cell_angle_gamma   112.41124585
_symmetry_Int_Tables_number   1
_chemical_formula_structural   Li3Mn4(BO3)4
_chemical_formula_sum   'Li3 Mn4 B4 O12'
_cell_volume   251.86766285
_cell_formula_units_Z   1
loop_
 _symmetry_equiv_pos_site_id
 _symmetry_equiv_pos_as_xyz
  1  'x, y, z'
loop_
 _atom_site_type_symbol
 _atom_site_label
 _atom_site_symmetry_multiplicity
 _atom_site_fract_x
 _atom_site_fract_y
 _atom_site_fract_z
 _atom_site_occupancy
  Li  Li0  1  0.75348200  0.68037400  0.68551000  1
  Li  Li1  1  0.25332300  0.34805300  0.31113600  1
  Li  Li2  1  0.74265500  0.31510300  0.80531400  1
  Mn  Mn0  1  0.78568900  0.76376100  0.37284700  1
  Mn  Mn1  1  0.27993100  0.75458600  0.88977000  1
  Mn  Mn2  1  0.73226600  0.25128800  0.11673600  1
  Mn  Mn3  1  0.21927700  0.24307300  0.62203600  1
  B  B0  1  0.76694700  0.73544500  0.03470800  1
  B  B1  1  0.27571700  0.74311600  0.54781500  1
  B  B2  1  0.73096400  0.26051600  0.45502000  1
  B  B3  1  0.22368000  0.25641900  0.96437100  1
  O  O0  1  0.60124400  0.87756000  0.07120100  1
  O  O1  1  0.05763900  0.83021900  0.57024000  1
  O  O2  1  0.37798900  0.71140100  0.41125200  1
  O  O3  1  0.81571500  0.62071000  0.14290000  1
  O  O4  1  0.37581600  0.67898200  0.66797200  1
  O  O5  1  0.11952000  0.26660000  0.10169200  1
  O  O6  1  0.85707400  0.69545900  0.89398600  1
  O  O7  1  0.62430600  0.32266300  0.33766000  1
  O  O8  1  0.12117700  0.32719800  0.85038800  1
  O  O9  1  0.64043200  0.29816900  0.59770300  1
  O  O10  1  0.94834800  0.17563200  0.42933800  1
  O  O11  1  0.44507500  0.17515800  0.93740500  1
loop_
_geom_bond_atom_site_label_1
_geom_bond_atom_site_label_2
_geom_bond_distance
_geom_bond_site_symmetry_2
Li0 O1 1.945126 1_655
Li0 O6 1.959842 1_555
Li0 O4 1.974108 1_555
Li0 O9 2.047899 1_555
Li1 O5 1.928129 1_555
Li1 O2 1.963353 1_555
Li1 O10 2.005626 1_455
Li1 O7 2.016962 1_555
Li2 O9 1.947193 1_555
Li2 O8 1.989557 1_655
Li2 O11 2.012091 1_555
Li2 O6 2.038313 1_555
Mn0 O2 2.071815 1_555
Mn0 O3 2.105955 1_555
Mn0 O1 2.166200 1_655
Mn0 O10 2.170402 1_565
Mn0 O7 2.345315 1_555
Mn1 O4 2.078457 1_555
Mn1 O6 2.100131 1_455
Mn1 O0 2.148286 1_556
Mn1 O11 2.220766 1_565
Mn1 O8 2.266110 1_555
Mn2 O0 1.976378 1_545
Mn2 O5 1.993860 1_655
Mn2 O3 2.003423 1_555
Mn2 O11 2.072970 1_554
Mn2 O7 2.090161 1_555
Mn3 O9 2.114781 1_555
Mn3 O10 2.127470 1_455
Mn3 O8 2.141863 1_555
Mn3 O1 2.177465 1_545
Mn3 O4 2.308182 1_555
B0 O6 1.370803 1_554
B0 O3 1.398853 1_555
B0 O0 1.406439 1_555
B1 O2 1.360057 1_555
B1 O4 1.407162 1_555
B1 O1 1.412237 1_555
B2 O9 1.386885 1_555
B2 O7 1.395295 1_555
B2 O10 1.402652 1_555
B3 O5 1.367696 1_556
B3 O8 1.389869 1_555
B3 O11 1.410301 1_555
