# generated using pymatgen
data_Be3Rh
_symmetry_space_group_name_H-M   'P 1'
_cell_length_a   4.80888274
_cell_length_b   4.80887953
_cell_length_c   3.74336565
_cell_angle_alpha   90.00000000
_cell_angle_beta   90.00000000
_cell_angle_gamma   119.99983482
_symmetry_Int_Tables_number   1
_chemical_formula_structural   Be3Rh
_chemical_formula_sum   'Be6 Rh2'
_cell_volume   74.96899516
_cell_formula_units_Z   2
loop_
 _symmetry_equiv_pos_site_id
 _symmetry_equiv_pos_as_xyz
  1  'x, y, z'
loop_
 _atom_site_type_symbol
 _atom_site_label
 _atom_site_symmetry_multiplicity
 _atom_site_fract_x
 _atom_site_fract_y
 _atom_site_fract_z
 _atom_site_occupancy
  Be  Be0  1  0.16016136  0.32032372  0.24999900  1
  Be  Be1  1  0.67967628  0.83983864  0.25000000  1
  Be  Be2  1  0.16016336  0.83983764  0.24999900  1
  Be  Be3  1  0.83983864  0.67967728  0.75000000  1
  Be  Be4  1  0.32032372  0.16016236  0.74999900  1
  Be  Be5  1  0.83983664  0.16016336  0.75000000  1
  Rh  Rh0  1  0.33333400  0.66666700  0.75000000  1
  Rh  Rh1  1  0.66666600  0.33333300  0.24999900  1
loop_
_geom_bond_atom_site_label_1
_geom_bond_atom_site_label_2
_geom_bond_distance
_geom_bond_site_symmetry_2
Be0 Rh0 2.362978 1_554
Be0 Rh0 2.362984 1_555
Be0 Rh1 2.405052 1_455
Be0 Rh1 2.405052 1_555
Be1 Rh0 2.362979 1_554
Be1 Rh0 2.362979 1_555
Be1 Rh1 2.405048 1_565
Be1 Rh1 2.405053 1_555
Be2 Rh0 2.362971 1_554
Be2 Rh0 2.362977 1_555
Be2 Rh1 2.405052 1_565
Be2 Rh1 2.405061 1_455
Be3 Rh1 2.362981 1_556
Be3 Rh1 2.362986 1_555
Be3 Rh0 2.405050 1_555
Be3 Rh0 2.405054 1_655
Be4 Rh1 2.362979 1_555
Be4 Rh1 2.362979 1_556
Be4 Rh0 2.405048 1_555
Be4 Rh0 2.405052 1_545
Be5 Rh1 2.362968 1_556
Be5 Rh1 2.362974 1_555
Be5 Rh0 2.405054 1_545
Be5 Rh0 2.405059 1_655
