# generated using pymatgen
data_Ba3FeN3
_symmetry_space_group_name_H-M   'P 1'
_cell_length_a   8.12248516
_cell_length_b   8.12253729
_cell_length_c   5.61160968
_cell_angle_alpha   90.00000000
_cell_angle_beta   90.00000000
_cell_angle_gamma   120.00443700
_symmetry_Int_Tables_number   1
_chemical_formula_structural   Ba3FeN3
_chemical_formula_sum   'Ba6 Fe2 N6'
_cell_volume   320.61165701
_cell_formula_units_Z   2
loop_
 _symmetry_equiv_pos_site_id
 _symmetry_equiv_pos_as_xyz
  1  'x, y, z'
loop_
 _atom_site_type_symbol
 _atom_site_label
 _atom_site_symmetry_multiplicity
 _atom_site_fract_x
 _atom_site_fract_y
 _atom_site_fract_z
 _atom_site_occupancy
  Ba  Ba0  1  0.72261599  0.63790257  0.75000000  1
  Ba  Ba1  1  0.08407973  0.72164799  0.25000000  1
  Ba  Ba2  1  0.63755582  0.91590574  0.25000000  1
  Ba  Ba3  1  0.36209667  0.08471689  0.75000000  1
  Ba  Ba4  1  0.91528796  0.27737955  0.75000000  1
  Ba  Ba5  1  0.27834971  0.36243198  0.25000000  1
  Fe  Fe0  1  0.66662698  0.33330013  0.25000000  1
  Fe  Fe1  1  0.33339600  0.66671617  0.75000000  1
  N  N0  1  0.55225623  0.87029420  0.75000000  1
  N  N1  1  0.68312611  0.55384251  0.25000000  1
  N  N2  1  0.87070413  0.31685267  0.25000000  1
  N  N3  1  0.12971881  0.68196533  0.75000000  1
  N  N4  1  0.31805408  0.44776232  0.75000000  1
  N  N5  1  0.44613177  0.12928195  0.25000000  1
loop_
_geom_bond_atom_site_label_1
_geom_bond_atom_site_label_2
_geom_bond_distance
_geom_bond_site_symmetry_2
Ba0 N0 2.844317 1_555
Ba0 N4 2.847389 1_555
Ba0 N1 2.867504 1_555
Ba0 N1 2.867504 1_556
Ba0 N3 3.143031 1_655
Ba1 N1 2.832770 1_455
Ba1 N2 2.848723 1_455
Ba1 N3 2.869383 1_554
Ba1 N3 2.869383 1_555
Ba1 N5 3.142088 1_565
Ba2 N2 2.832703 1_565
Ba2 N5 2.848946 1_565
Ba2 N0 2.869340 1_555
Ba2 N0 2.869340 1_554
Ba2 N1 3.142360 1_555
Ba3 N3 2.844107 1_545
Ba3 N0 2.847723 1_545
Ba3 N5 2.867467 1_555
Ba3 N5 2.867467 1_556
Ba3 N4 3.143046 1_555
Ba4 N4 2.844229 1_655
Ba4 N3 2.847559 1_655
Ba4 N2 2.867508 1_555
Ba4 N2 2.867508 1_556
Ba4 N0 3.142751 1_545
Ba5 N5 2.832807 1_555
Ba5 N1 2.848585 1_555
Ba5 N4 2.869386 1_555
Ba5 N4 2.869386 1_554
Ba5 N2 3.142359 1_455
Fe0 N5 1.727833 1_555
Fe0 N1 1.728249 1_555
Fe0 N2 1.728297 1_555
Fe1 N0 1.718879 1_555
Fe1 N4 1.719535 1_555
Fe1 N3 1.719653 1_555
