# generated using pymatgen
data_WN2(OF4)2
_symmetry_space_group_name_H-M   'P 1'
_cell_length_a   9.29458500
_cell_length_b   5.88046100
_cell_length_c   12.59617400
_cell_angle_alpha   90.00000000
_cell_angle_beta   90.00000000
_cell_angle_gamma   90.00000000
_symmetry_Int_Tables_number   1
_chemical_formula_structural   WN2(OF4)2
_chemical_formula_sum   'W4 N8 O8 F32'
_cell_volume   688.46208645
_cell_formula_units_Z   4
loop_
 _symmetry_equiv_pos_site_id
 _symmetry_equiv_pos_as_xyz
  1  'x, y, z'
loop_
 _atom_site_type_symbol
 _atom_site_label
 _atom_site_symmetry_multiplicity
 _atom_site_fract_x
 _atom_site_fract_y
 _atom_site_fract_z
 _atom_site_occupancy
  W  W0  1  0.22760200  0.25000000  0.12909600  1
  W  W1  1  0.72760200  0.25000000  0.37090400  1
  W  W2  1  0.77239800  0.75000000  0.87090400  1
  W  W3  1  0.27239800  0.75000000  0.62909600  1
  N  N0  1  0.49568400  0.25000000  0.77145600  1
  N  N1  1  0.99568400  0.25000000  0.72854400  1
  N  N2  1  0.50431600  0.75000000  0.22854400  1
  N  N3  1  0.00431600  0.75000000  0.27145600  1
  N  N4  1  0.24639900  0.25000000  0.43501700  1
  N  N5  1  0.74639900  0.25000000  0.06498300  1
  N  N6  1  0.75360100  0.75000000  0.56498300  1
  N  N7  1  0.25360100  0.75000000  0.93501700  1
  O  O0  1  0.54900600  0.25000000  0.69332000  1
  O  O1  1  0.04900600  0.25000000  0.80668000  1
  O  O2  1  0.45099400  0.75000000  0.30668000  1
  O  O3  1  0.95099400  0.75000000  0.19332000  1
  O  O4  1  0.13189600  0.25000000  0.45738000  1
  O  O5  1  0.63189600  0.25000000  0.04262000  1
  O  O6  1  0.86810400  0.75000000  0.54262000  1
  O  O7  1  0.36810400  0.75000000  0.95738000  1
  F  F0  1  0.27504100  0.25000000  0.97732500  1
  F  F1  1  0.77504100  0.25000000  0.52267500  1
  F  F2  1  0.72495900  0.75000000  0.02267500  1
  F  F3  1  0.22495900  0.75000000  0.47732500  1
  F  F4  1  0.02501000  0.25000000  0.17033300  1
  F  F5  1  0.52501000  0.25000000  0.32966700  1
  F  F6  1  0.97499000  0.75000000  0.82966700  1
  F  F7  1  0.47499000  0.75000000  0.67033300  1
  F  F8  1  0.14094400  0.97255300  0.06795800  1
  F  F9  1  0.64094400  0.52744700  0.43204200  1
  F  F10  1  0.85905600  0.47255300  0.93204200  1
  F  F11  1  0.35905600  0.02744700  0.56795800  1
  F  F12  1  0.85905600  0.02744700  0.93204200  1
  F  F13  1  0.35905600  0.47255300  0.56795800  1
  F  F14  1  0.14094400  0.52744700  0.06795800  1
  F  F15  1  0.64094400  0.97255300  0.43204200  1
  F  F16  1  0.40009700  0.45557900  0.12132000  1
  F  F17  1  0.90009700  0.04442100  0.37868000  1
  F  F18  1  0.59990300  0.95557900  0.87868000  1
  F  F19  1  0.09990300  0.54442100  0.62132000  1
  F  F20  1  0.59990300  0.54442100  0.87868000  1
  F  F21  1  0.09990300  0.95557900  0.62132000  1
  F  F22  1  0.40009700  0.04442100  0.12132000  1
  F  F23  1  0.90009700  0.45557900  0.37868000  1
  F  F24  1  0.22514100  0.45495900  0.25619600  1
  F  F25  1  0.72514100  0.04504100  0.24380400  1
  F  F26  1  0.77485900  0.95495900  0.74380400  1
  F  F27  1  0.27485900  0.54504100  0.75619600  1
  F  F28  1  0.77485900  0.54504100  0.74380400  1
  F  F29  1  0.27485900  0.95495900  0.75619600  1
  F  F30  1  0.22514100  0.04504100  0.25619600  1
  F  F31  1  0.72514100  0.45495900  0.24380400  1
loop_
_geom_bond_atom_site_label_1
_geom_bond_atom_site_label_2
_geom_bond_distance
_geom_bond_site_symmetry_2
N0 O0 1.101954 1_555
N1 O1 1.101954 1_655
N2 O2 1.101954 1_555
N3 O3 1.101954 1_455
N4 O4 1.100906 1_555
N5 O5 1.100906 1_555
N6 O6 1.100906 1_555
N7 O7 1.100906 1_555
F0 W0 1.961923 1_556
F1 W1 1.961923 1_555
F2 W2 1.961923 1_554
F3 W3 1.961923 1_555
F4 W0 1.953337 1_555
F5 W1 1.953337 1_555
F6 W2 1.953337 1_555
F7 W3 1.953337 1_555
F8 W0 1.975767 1_565
F9 W1 1.975767 1_555
F10 W2 1.975767 1_555
F11 W3 1.975767 1_545
F12 W2 1.975767 1_545
F13 W3 1.975767 1_555
F14 W0 1.975767 1_555
F15 W1 1.975767 1_565
F16 W0 2.010349 1_555
F17 W1 2.010349 1_555
F18 W2 2.010349 1_555
F19 W3 2.010349 1_555
F20 W2 2.010349 1_555
F21 W3 2.010349 1_555
F22 W0 2.010349 1_555
F23 W1 2.010349 1_555
F24 W0 2.004065 1_555
F25 W1 2.004065 1_555
F26 W2 2.004065 1_555
F27 W3 2.004065 1_555
F28 W2 2.004065 1_555
F29 W3 2.004065 1_555
F30 W0 2.004065 1_555
F31 W1 2.004065 1_555
