# generated using pymatgen
data_Li5Mn6(BO3)6
_symmetry_space_group_name_H-M   'P 1'
_cell_length_a   8.21677900
_cell_length_b   8.85431879
_cell_length_c   12.65352632
_cell_angle_alpha   92.56794293
_cell_angle_beta   108.59848066
_cell_angle_gamma   117.63090741
_symmetry_Int_Tables_number   1
_chemical_formula_structural   Li5Mn6(BO3)6
_chemical_formula_sum   'Li10 Mn12 B12 O36'
_cell_volume   752.37574507
_cell_formula_units_Z   2
loop_
 _symmetry_equiv_pos_site_id
 _symmetry_equiv_pos_as_xyz
  1  'x, y, z'
loop_
 _atom_site_type_symbol
 _atom_site_label
 _atom_site_symmetry_multiplicity
 _atom_site_fract_x
 _atom_site_fract_y
 _atom_site_fract_z
 _atom_site_occupancy
  Li  Li0  1  0.29880600  0.59386200  0.30898500  1
  Li  Li1  1  0.53350600  0.83729100  0.55389800  1
  Li  Li2  1  0.92206200  0.89971800  0.19696400  1
  Li  Li3  1  0.77779500  0.07733400  0.80284000  1
  Li  Li4  1  0.67610400  0.39154500  0.37454700  1
  Li  Li5  1  0.42812100  0.13524400  0.12307100  1
  Li  Li6  1  0.16751000  0.88465800  0.86764700  1
  Li  Li7  1  0.91237900  0.63940000  0.61822600  1
  Li  Li8  1  0.66503000  0.64684100  0.95026300  1
  Li  Li9  1  0.41905500  0.40846700  0.70276600  1
  Mn  Mn0  1  0.78686200  0.80280000  0.40269500  1
  Mn  Mn1  1  0.50347300  0.52172600  0.15962600  1
  Mn  Mn2  1  0.10257000  0.72029700  0.09031700  1
  Mn  Mn3  1  0.34485300  0.97719800  0.34141700  1
  Mn  Mn4  1  0.01779600  0.03287900  0.65720900  1
  Mn  Mn5  1  0.24757300  0.27189100  0.91524200  1
  Mn  Mn6  1  0.90399300  0.24840000  0.25052500  1
  Mn  Mn7  1  0.13226500  0.47732800  0.50106700  1
  Mn  Mn8  1  0.64402300  0.00114500  0.00136100  1
  Mn  Mn9  1  0.37566600  0.74008000  0.75097500  1
  Mn  Mn10  1  0.85589000  0.46838300  0.84355700  1
  Mn  Mn11  1  0.57821500  0.22876500  0.58720000  1
  B  B0  1  0.51077800  0.51927100  0.50111300  1
  B  B1  1  0.55486600  0.88134700  0.20949700  1
  B  B2  1  0.28957100  0.62442600  0.95449300  1
  B  B3  1  0.19589300  0.86047500  0.54171100  1
  B  B4  1  0.03459300  0.37346100  0.71189100  1
  B  B5  1  0.96254900  0.62593000  0.29712200  1
  B  B6  1  0.69934000  0.37421600  0.03602400  1
  B  B7  1  0.78446400  0.12292300  0.45417300  1
  B  B8  1  0.26368000  0.25039300  0.25110000  1
  B  B9  1  0.99819200  0.98419400  0.99731300  1
  B  B10  1  0.75057100  0.74806700  0.75023300  1
  B  B11  1  0.45648800  0.13363900  0.79508500  1
  O  O0  1  0.71378100  0.96090300  0.17652800  1
  O  O1  1  0.26634800  0.49197700  0.01053000  1
  O  O2  1  0.53844100  0.74803200  0.27145400  1
  O  O3  1  0.75230500  0.96944800  0.49708300  1
  O  O4  1  0.17530000  0.35188700  0.23743500  1
  O  O5  1  0.39322000  0.59653600  0.47167700  1
  O  O6  1  0.63310300  0.82563800  0.71726400  1
  O  O7  1  0.40863900  0.92532400  0.18464100  1
  O  O8  1  0.45381800  0.71584200  0.92656200  1
  O  O9  1  0.12249100  0.70147700  0.26346900  1
  O  O10  1  0.19454400  0.45290400  0.67951300  1
  O  O11  1  0.36521100  0.95251200  0.51886200  1
  O  O12  1  0.94163400  0.20459900  0.42209200  1
  O  O13  1  0.85376800  0.45945400  0.99659400  1
  O  O14  1  0.16421100  0.71776100  0.58990700  1
  O  O15  1  0.99581900  0.22569700  0.75624700  1
  O  O16  1  0.68291000  0.23750600  0.08865000  1
  O  O17  1  0.92204500  0.48084700  0.34226700  1
  O  O18  1  0.42208700  0.98625200  0.83804800  1
  O  O19  1  0.93442100  0.84204500  0.04817700  1
  O  O20  1  0.88138300  0.05724300  0.95689600  1
  O  O21  1  0.13815100  0.66986900  0.92363500  1
  O  O22  1  0.83919500  0.70013500  0.28170800  1
  O  O23  1  0.90750400  0.44337000  0.70074700  1
  O  O24  1  0.05500700  0.91425200  0.51995400  1
  O  O25  1  0.56847500  0.43536700  0.02242200  1
  O  O26  1  0.65278000  0.18331000  0.44618100  1
  O  O27  1  0.44246200  0.31002700  0.23327600  1
  O  O28  1  0.67848400  0.57823100  0.47263800  1
  O  O29  1  0.92579300  0.81516000  0.73010000  1
  O  O30  1  0.63002700  0.22054200  0.77075300  1
  O  O31  1  0.18179200  0.09182100  0.28075500  1
  O  O32  1  0.46479400  0.39002500  0.56172300  1
  O  O33  1  0.69469700  0.60608700  0.80193500  1
  O  O34  1  0.32622300  0.19593300  0.77218900  1
  O  O35  1  0.18052600  0.05063500  0.98385700  1
loop_
_geom_bond_atom_site_label_1
_geom_bond_atom_site_label_2
_geom_bond_distance
_geom_bond_site_symmetry_2
Li0 O4 1.913980 1_555
Li0 O5 1.949419 1_555
Li0 O2 2.031613 1_555
Li0 O9 2.033684 1_555
Li1 O5 1.926773 1_555
Li1 O6 1.992953 1_555
Li1 O3 2.016622 1_555
Li1 O11 2.026736 1_555
Li2 O31 1.897348 1_665
Li2 O0 1.969643 1_555
Li2 O19 1.974708 1_555
Li2 O22 2.062963 1_555
Li3 O20 1.915529 1_555
Li3 O15 1.960317 1_555
Li3 O6 2.014355 1_545
Li3 O30 2.099201 1_555
Li4 O27 1.952452 1_555
Li4 O17 1.987256 1_555
Li4 O28 2.010963 1_555
Li4 O26 2.047110 1_555
Li5 O27 1.971329 1_555
Li5 O35 1.996323 1_554
Li5 O7 2.005162 1_545
Li5 O16 2.061839 1_555
Li6 O35 1.973253 1_565
Li6 O29 1.979396 1_455
Li6 O21 1.995287 1_555
Li6 O18 2.027235 1_555
Li7 O29 1.995472 1_555
Li7 O14 2.013741 1_655
Li7 O28 2.016772 1_555
Li7 O23 2.056505 1_555
Li8 O19 1.982975 1_556
Li8 O33 2.006246 1_555
Li8 O8 2.035440 1_555
Li8 O25 2.050994 1_556
Li9 O32 1.952353 1_555
Li9 O10 1.995472 1_555
Li9 O33 2.020035 1_555
Li9 O34 2.034440 1_555
Mn0 O24 1.948484 1_655
Mn0 O2 2.001751 1_555
Mn0 O22 2.003175 1_555
Mn0 O3 2.032576 1_555
Mn0 O28 2.132615 1_555
Mn1 O27 2.053366 1_555
Mn1 O1 2.135325 1_555
Mn1 O25 2.176095 1_555
Mn1 O2 2.247789 1_555
Mn1 O22 2.347888 1_555
Mn2 O19 2.078078 1_455
Mn2 O9 2.164307 1_555
Mn2 O7 2.168256 1_555
Mn2 O13 2.179117 1_454
Mn2 O21 2.272274 1_554
Mn3 O31 2.022246 1_565
Mn3 O9 2.183697 1_555
Mn3 O26 2.202364 1_565
Mn3 O11 2.226088 1_555
Mn3 O7 2.286012 1_555
Mn4 O29 2.095413 1_445
Mn4 O24 2.164768 1_545
Mn4 O34 2.165597 1_555
Mn4 O15 2.180927 1_455
Mn4 O3 2.263143 1_445
Mn5 O35 2.086075 1_555
Mn5 O1 2.160328 1_556
Mn5 O25 2.211335 1_556
Mn5 O15 2.231770 1_455
Mn5 O34 2.277445 1_555
Mn6 O4 2.047224 1_655
Mn6 O12 2.171960 1_555
Mn6 O16 2.225110 1_555
Mn6 O0 2.227581 1_545
Mn6 O17 2.235738 1_555
Mn7 O5 2.072339 1_555
Mn7 O12 2.135506 1_455
Mn7 O10 2.194637 1_555
Mn7 O17 2.205409 1_455
Mn7 O14 2.223440 1_555
Mn8 O20 2.047810 1_554
Mn8 O16 2.156250 1_555
Mn8 O0 2.195020 1_545
Mn8 O8 2.213609 1_544
Mn8 O18 2.227561 1_544
Mn9 O6 2.085307 1_555
Mn9 O14 2.144367 1_555
Mn9 O8 2.157609 1_555
Mn9 O18 2.203636 1_555
Mn9 O10 2.218920 1_555
Mn10 O13 1.946895 1_555
Mn10 O23 2.008593 1_555
Mn10 O30 2.014773 1_555
Mn10 O21 2.022282 1_655
Mn10 O33 2.151459 1_555
Mn11 O32 2.023635 1_555
Mn11 O26 2.140826 1_555
Mn11 O11 2.160611 1_545
Mn11 O30 2.234763 1_555
Mn11 O23 2.345770 1_555
B0 O32 1.379486 1_555
B0 O5 1.395032 1_555
B0 O28 1.402693 1_555
B1 O0 1.376919 1_555
B1 O7 1.377702 1_555
B1 O2 1.424379 1_555
B2 O1 1.366664 1_556
B2 O8 1.384952 1_555
B2 O21 1.425097 1_555
B3 O14 1.379007 1_555
B3 O11 1.381787 1_555
B3 O24 1.400843 1_555
B4 O10 1.379044 1_555
B4 O15 1.386190 1_455
B4 O23 1.416679 1_455
B5 O17 1.370320 1_555
B5 O9 1.386727 1_655
B5 O22 1.414267 1_555
B6 O16 1.380180 1_555
B6 O25 1.381800 1_555
B6 O13 1.406390 1_554
B7 O12 1.360148 1_555
B7 O26 1.392319 1_555
B7 O3 1.426833 1_545
B8 O31 1.377271 1_555
B8 O4 1.379857 1_555
B8 O27 1.410747 1_555
B9 O20 1.376029 1_565
B9 O19 1.396042 1_556
B9 O35 1.404936 1_665
B10 O29 1.394597 1_555
B10 O33 1.396103 1_555
B10 O6 1.400411 1_555
B11 O18 1.377653 1_545
B11 O34 1.377663 1_555
B11 O30 1.415525 1_555
