# generated using pymatgen
data_Ho2MgGe2
_symmetry_space_group_name_H-M   'P 1'
_cell_length_a   7.21494808
_cell_length_b   7.21494808
_cell_length_c   4.19754632
_cell_angle_alpha   90.00000000
_cell_angle_beta   90.00000000
_cell_angle_gamma   90.00000000
_symmetry_Int_Tables_number   1
_chemical_formula_structural   Ho2MgGe2
_chemical_formula_sum   'Ho4 Mg2 Ge4'
_cell_volume   218.50527087
_cell_formula_units_Z   2
loop_
 _symmetry_equiv_pos_site_id
 _symmetry_equiv_pos_as_xyz
  1  'x, y, z'
loop_
 _atom_site_type_symbol
 _atom_site_label
 _atom_site_symmetry_multiplicity
 _atom_site_fract_x
 _atom_site_fract_y
 _atom_site_fract_z
 _atom_site_occupancy
  Ho  Ho0  1  0.32245965  0.17754135  0.50000100  1
  Ho  Ho1  1  0.82245865  0.32245965  0.50000100  1
  Ho  Ho2  1  0.17754135  0.67754135  0.50000100  1
  Ho  Ho3  1  0.67754135  0.82245865  0.50000100  1
  Mg  Mg0  1  0.00000000  -0.00000000  -0.00000000  1
  Mg  Mg1  1  0.50000000  0.50000000  -0.00000000  1
  Ge  Ge0  1  0.62312976  0.12312876  -0.00000000  1
  Ge  Ge1  1  0.12312876  0.37687024  0.00000000  1
  Ge  Ge2  1  0.87687024  0.62312976  -0.00000000  1
  Ge  Ge3  1  0.37687024  0.87687024  -0.00000000  1
loop_
_geom_bond_atom_site_label_1
_geom_bond_atom_site_label_2
_geom_bond_distance
_geom_bond_site_symmetry_2
Ge0 Ge3 2.512698 1_545
Ge0 Mg0 2.860541 1_655
Ge0 Mg1 2.860551 1_555
Ge0 Ho1 2.922569 1_554
Ge0 Ho1 2.922575 1_555
Ge0 Ho3 3.043829 1_544
Ge0 Ho0 3.043830 1_554
Ge0 Ho3 3.043835 1_545
Ge0 Ho0 3.043835 1_555
Ge1 Ge2 2.512698 1_455
Ge1 Mg0 2.860541 1_555
Ge1 Mg1 2.860551 1_555
Ge1 Ho0 2.922569 1_554
Ge1 Ho0 2.922575 1_555
Ge1 Ho1 3.043828 1_454
Ge1 Ho1 3.043834 1_455
Ge1 Ho2 3.043835 1_554
Ge1 Ho2 3.043841 1_555
Ge2 Mg0 2.860544 1_665
Ge2 Mg1 2.860544 1_555
Ge2 Ho3 2.922562 1_554
Ge2 Ho3 2.922568 1_555
Ge2 Ho1 3.043829 1_554
Ge2 Ho2 3.043834 1_654
Ge2 Ho1 3.043835 1_555
Ge2 Ho2 3.043840 1_655
Ge3 Mg0 2.860544 1_565
Ge3 Mg1 2.860544 1_555
Ge3 Ho2 2.922562 1_554
Ge3 Ho2 2.922568 1_555
Ge3 Ho0 3.043833 1_564
Ge3 Ho3 3.043834 1_554
Ge3 Ho0 3.043839 1_565
Ge3 Ho3 3.043840 1_555
