# generated using pymatgen
data_U2Ni12As7
_symmetry_space_group_name_H-M   'P 1'
_cell_length_a   9.37988415
_cell_length_b   9.37988415
_cell_length_c   3.80553500
_cell_angle_alpha   90.00000000
_cell_angle_beta   90.00000000
_cell_angle_gamma   120.00000105
_symmetry_Int_Tables_number   1
_chemical_formula_structural   U2Ni12As7
_chemical_formula_sum   'U2 Ni12 As7'
_cell_volume   289.96214013
_cell_formula_units_Z   1
loop_
 _symmetry_equiv_pos_site_id
 _symmetry_equiv_pos_as_xyz
  1  'x, y, z'
loop_
 _atom_site_type_symbol
 _atom_site_label
 _atom_site_symmetry_multiplicity
 _atom_site_fract_x
 _atom_site_fract_y
 _atom_site_fract_z
 _atom_site_occupancy
  U  U0  1  0.33333300  0.66666700  0.00000000  1
  U  U1  1  0.66666700  0.33333300  0.50000000  1
  Ni  Ni0  1  0.42570800  0.38390700  0.00000000  1
  Ni  Ni1  1  0.61609300  0.04180100  0.00000000  1
  Ni  Ni2  1  0.95819900  0.57429200  0.00000000  1
  Ni  Ni3  1  0.38891500  0.94738100  0.50000000  1
  Ni  Ni4  1  0.05261900  0.44153300  0.50000000  1
  Ni  Ni5  1  0.55846700  0.61108500  0.50000000  1
  Ni  Ni6  1  0.11601500  0.90288800  0.00000000  1
  Ni  Ni7  1  0.09711200  0.21312700  0.00000000  1
  Ni  Ni8  1  0.78687300  0.88398500  0.00000000  1
  Ni  Ni9  1  0.28133700  0.15304000  0.50000000  1
  Ni  Ni10  1  0.84696000  0.12829700  0.50000000  1
  Ni  Ni11  1  0.87170300  0.71866300  0.50000000  1
  As  As0  1  0.00000000  0.00000000  0.50000000  1
  As  As1  1  0.28037000  0.40311300  0.50000000  1
  As  As2  1  0.59688700  0.87725700  0.50000000  1
  As  As3  1  0.12274300  0.71963000  0.50000000  1
  As  As4  1  0.40831300  0.11388900  0.00000000  1
  As  As5  1  0.88611100  0.29442400  0.00000000  1
  As  As6  1  0.70557600  0.59168700  0.00000000  1
loop_
_geom_bond_atom_site_label_1
_geom_bond_atom_site_label_2
_geom_bond_distance
_geom_bond_site_symmetry_2
Ni0 U1 3.166400 1_555
Ni0 U1 3.166400 1_554
Ni0 U0 3.175424 1_555
Ni1 U1 3.166393 1_554
Ni1 U1 3.166393 1_555
Ni1 U0 3.175418 1_545
Ni2 U1 3.166395 1_554
Ni2 U1 3.166395 1_555
Ni2 U0 3.175415 1_655
Ni3 U0 3.074509 1_555
Ni3 U0 3.074509 1_556
Ni3 U1 3.234444 1_565
Ni4 U0 3.074514 1_556
Ni4 U0 3.074514 1_555
Ni4 U1 3.234444 1_455
Ni5 U0 3.074524 1_556
Ni5 U0 3.074524 1_555
Ni5 U1 3.234444 1_555
Ni9 U1 3.132270 1_555
Ni10 U1 3.132262 1_555
Ni11 U1 3.132270 1_555
As0 Ni9 2.288306 1_555
As0 Ni11 2.288306 1_445
As0 Ni10 2.288306 1_455
As0 Ni8 2.574044 1_446
As0 Ni8 2.574044 1_445
As0 Ni7 2.574044 1_556
As0 Ni7 2.574044 1_555
As0 Ni6 2.574044 1_546
As0 Ni6 2.574044 1_545
As1 Ni4 2.337395 1_555
As1 Ni5 2.349729 1_555
As1 Ni9 2.350204 1_555
As1 Ni0 2.399381 1_555
As1 Ni0 2.399381 1_556
As1 Ni7 2.586066 1_555
As1 Ni7 2.586066 1_556
As1 U0 2.958128 1_555
As1 U0 2.958128 1_556
As2 Ni5 2.337404 1_555
As2 Ni3 2.349723 1_555
As2 Ni10 2.350204 1_565
As2 Ni1 2.399381 1_565
As2 Ni1 2.399381 1_566
As2 Ni8 2.586066 1_555
As2 Ni8 2.586066 1_556
As2 U0 2.958125 1_556
As2 U0 2.958125 1_555
As3 Ni3 2.337401 1_555
As3 Ni4 2.349732 1_555
As3 Ni11 2.350204 1_455
As3 Ni2 2.399381 1_455
As3 Ni2 2.399381 1_456
As3 Ni6 2.586066 1_555
As3 Ni6 2.586066 1_556
As3 U0 2.958121 1_555
As3 U0 2.958121 1_556
As4 Ni1 2.360819 1_555
As4 Ni9 2.368817 1_554
As4 Ni9 2.368817 1_555
As4 Ni3 2.410136 1_544
As4 Ni3 2.410136 1_545
As4 Ni6 2.451084 1_545
As4 Ni0 2.455226 1_555
As4 U1 2.956656 1_554
As4 U1 2.956656 1_555
As5 Ni2 2.360819 1_555
As5 Ni10 2.368817 1_554
As5 Ni10 2.368817 1_555
As5 Ni4 2.410133 1_654
As5 Ni4 2.410133 1_655
As5 Ni7 2.451084 1_655
As5 Ni1 2.455226 1_555
As5 U1 2.956651 1_554
As5 U1 2.956651 1_555
As6 Ni0 2.360819 1_555
As6 Ni11 2.368817 1_555
As6 Ni11 2.368817 1_554
As6 Ni5 2.410130 1_554
As6 Ni5 2.410130 1_555
As6 Ni8 2.451084 1_555
As6 Ni2 2.455226 1_555
As6 U1 2.956658 1_554
As6 U1 2.956658 1_555
