# generated using pymatgen
data_LiFeSiO4
_symmetry_space_group_name_H-M   'P 1'
_cell_length_a   5.37627000
_cell_length_b   5.92954800
_cell_length_c   11.29654700
_cell_angle_alpha   90.00000000
_cell_angle_beta   90.00000000
_cell_angle_gamma   90.00000000
_symmetry_Int_Tables_number   1
_chemical_formula_structural   LiFeSiO4
_chemical_formula_sum   'Li4 Fe4 Si4 O16'
_cell_volume   360.12093892
_cell_formula_units_Z   4
loop_
 _symmetry_equiv_pos_site_id
 _symmetry_equiv_pos_as_xyz
  1  'x, y, z'
loop_
 _atom_site_type_symbol
 _atom_site_label
 _atom_site_symmetry_multiplicity
 _atom_site_fract_x
 _atom_site_fract_y
 _atom_site_fract_z
 _atom_site_occupancy
  Li  Li0  1  0.17437800  0.52861500  0.16930000  1
  Li  Li1  1  0.32562200  0.52861500  0.66930000  1
  Li  Li2  1  0.67437800  0.02861500  0.33070000  1
  Li  Li3  1  0.82562200  0.02861500  0.83070000  1
  Fe  Fe0  1  0.82650200  0.75339100  0.57694000  1
  Fe  Fe1  1  0.67349800  0.75339100  0.07694000  1
  Fe  Fe2  1  0.17349800  0.25339100  0.42306000  1
  Fe  Fe3  1  0.32650200  0.25339100  0.92306000  1
  Si  Si0  1  0.32401400  0.74545200  0.41714100  1
  Si  Si1  1  0.17598600  0.74545200  0.91714100  1
  Si  Si2  1  0.67598600  0.24545200  0.58285900  1
  Si  Si3  1  0.82401400  0.24545200  0.08285900  1
  O  O0  1  0.23392100  0.98263500  0.84559400  1
  O  O1  1  0.26607900  0.98263500  0.34559400  1
  O  O2  1  0.87295400  0.75794100  0.93930500  1
  O  O3  1  0.17334300  0.72632900  0.54432400  1
  O  O4  1  0.62704600  0.75794100  0.43930500  1
  O  O5  1  0.32665700  0.72632900  0.04432400  1
  O  O6  1  0.25190200  0.52390900  0.83629500  1
  O  O7  1  0.24809800  0.52390900  0.33629500  1
  O  O8  1  0.76607900  0.48263500  0.15440600  1
  O  O9  1  0.73392100  0.48263500  0.65440600  1
  O  O10  1  0.82665700  0.22632900  0.45567600  1
  O  O11  1  0.37295400  0.25794100  0.56069500  1
  O  O12  1  0.67334300  0.22632900  0.95567600  1
  O  O13  1  0.12704600  0.25794100  0.06069500  1
  O  O14  1  0.75190200  0.02390900  0.66370500  1
  O  O15  1  0.74809800  0.02390900  0.16370500  1
loop_
_geom_bond_atom_site_label_1
_geom_bond_atom_site_label_2
_geom_bond_distance
_geom_bond_site_symmetry_2
Li0 O7 1.927854 1_555
Li0 O5 2.009439 1_555
Li0 O13 2.036145 1_555
Li0 O8 2.218382 1_455
Li1 O6 1.927854 1_555
Li1 O3 2.009439 1_555
Li1 O11 2.036145 1_555
Li1 O9 2.218382 1_555
Li2 O15 1.927854 1_555
Li2 O10 2.009439 1_555
Li2 O4 2.036145 1_545
Li2 O1 2.218382 1_545
Li3 O14 1.927854 1_555
Li3 O12 2.009439 1_555
Li3 O2 2.036145 1_545
Li3 O0 2.218382 1_645
Fe0 O4 1.888921 1_555
Fe0 O9 1.895006 1_555
Fe0 O3 1.907525 1_655
Fe0 O14 1.922112 1_565
Fe1 O2 1.888921 1_554
Fe1 O8 1.895006 1_555
Fe1 O5 1.907525 1_555
Fe1 O15 1.922112 1_565
Fe2 O11 1.888921 1_555
Fe2 O1 1.895006 1_545
Fe2 O10 1.907525 1_455
Fe2 O7 1.922112 1_555
Fe3 O13 1.888921 1_556
Fe3 O0 1.895006 1_545
Fe3 O12 1.907525 1_555
Fe3 O6 1.922112 1_555
O0 Si1 1.651722 1_555
O1 Si0 1.651722 1_555
O2 Si1 1.649972 1_655
O3 Si0 1.653247 1_555
O4 Si0 1.649972 1_555
O5 Si1 1.653247 1_554
O6 Si1 1.651163 1_555
O7 Si0 1.651163 1_555
O8 Si3 1.651722 1_555
O9 Si2 1.651722 1_555
O10 Si2 1.653247 1_555
O11 Si2 1.649972 1_555
O12 Si3 1.653247 1_556
O13 Si3 1.649972 1_455
O14 Si2 1.651163 1_555
O15 Si3 1.651163 1_555
