# generated using pymatgen
data_K2CrH2F8
_symmetry_space_group_name_H-M   'P 1'
_cell_length_a   8.10116400
_cell_length_b   5.34859500
_cell_length_c   8.42657027
_cell_angle_alpha   87.32804317
_cell_angle_beta   90.00000000
_cell_angle_gamma   90.00000000
_symmetry_Int_Tables_number   1
_chemical_formula_structural   K2CrH2F8
_chemical_formula_sum   'K4 Cr2 H4 F16'
_cell_volume   364.72502950
_cell_formula_units_Z   2
loop_
 _symmetry_equiv_pos_site_id
 _symmetry_equiv_pos_as_xyz
  1  'x, y, z'
loop_
 _atom_site_type_symbol
 _atom_site_label
 _atom_site_symmetry_multiplicity
 _atom_site_fract_x
 _atom_site_fract_y
 _atom_site_fract_z
 _atom_site_occupancy
  K  K0  1  0.31310100  0.06612500  0.71858200  1
  K  K1  1  0.81310100  0.93387500  0.78141800  1
  K  K2  1  0.18689900  0.06612500  0.21858200  1
  K  K3  1  0.68689900  0.93387500  0.28141800  1
  Cr  Cr0  1  0.00000000  0.50000000  0.50000000  1
  Cr  Cr1  1  0.50000000  0.50000000  0.00000000  1
  H  H0  1  0.65942300  0.37817500  0.55001000  1
  H  H1  1  0.15942300  0.62182500  0.94999000  1
  H  H2  1  0.84057700  0.37817500  0.05001000  1
  H  H3  1  0.34057700  0.62182500  0.44999000  1
  F  F0  1  0.77228400  0.59447100  0.53295800  1
  F  F1  1  0.59842600  0.21915100  0.55972800  1
  F  F2  1  0.07003900  0.79350400  0.58099500  1
  F  F3  1  0.00525100  0.34944400  0.70064700  1
  F  F4  1  0.50525100  0.65055600  0.79935300  1
  F  F5  1  0.57003900  0.20649600  0.91900500  1
  F  F6  1  0.09842600  0.78084900  0.94027200  1
  F  F7  1  0.27228400  0.40552900  0.96704200  1
  F  F8  1  0.72771600  0.59447100  0.03295800  1
  F  F9  1  0.90157400  0.21915100  0.05972800  1
  F  F10  1  0.42996100  0.79350400  0.08099500  1
  F  F11  1  0.49474900  0.34944400  0.20064700  1
  F  F12  1  0.99474900  0.65055600  0.29935300  1
  F  F13  1  0.92996100  0.20649600  0.41900500  1
  F  F14  1  0.40157400  0.78084900  0.44027200  1
  F  F15  1  0.22771600  0.40552900  0.46704200  1
loop_
_geom_bond_atom_site_label_1
_geom_bond_atom_site_label_2
_geom_bond_distance
_geom_bond_site_symmetry_2
Cr0 F13 1.830856 1_455
Cr0 F2 1.830856 1_555
Cr0 F12 1.839023 1_455
Cr0 F3 1.839023 1_555
Cr0 F15 1.936152 1_555
Cr0 F0 1.936152 1_455
Cr1 F5 1.830856 1_554
Cr1 F10 1.830856 1_555
Cr1 F11 1.839023 1_555
Cr1 F4 1.839023 1_554
Cr1 F7 1.936152 1_554
Cr1 F8 1.936152 1_555
F0 H0 1.476304 1_555
F0 K3 2.812107 1_555
F0 K1 2.853520 1_555
F1 H0 0.983787 1_555
F1 K0 2.775330 1_555
F1 K1 2.928594 1_545
F1 K3 2.945410 1_545
F2 K0 2.739573 1_565
F2 K1 2.804789 1_455
F3 K1 2.772321 1_445
F3 K0 2.918485 1_555
F4 K0 2.772321 1_565
F4 K1 2.918485 1_555
F5 K1 2.739573 1_545
F5 K0 2.804789 1_555
F6 H1 0.983787 1_555
F6 K1 2.775330 1_455
F6 K0 2.928594 1_565
F6 K2 2.945410 1_566
F7 H1 1.476304 1_555
F7 K2 2.812107 1_556
F7 K0 2.853520 1_555
F8 H2 1.476304 1_555
F8 K1 2.812107 1_554
F8 K3 2.853520 1_555
F9 H2 0.983787 1_555
F9 K2 2.775330 1_655
F9 K3 2.928594 1_545
F9 K1 2.945410 1_544
F10 K2 2.739573 1_565
F10 K3 2.804789 1_555
F11 K3 2.772321 1_545
F11 K2 2.918485 1_555
F12 K2 2.772321 1_665
F12 K3 2.918485 1_555
F13 K3 2.739573 1_545
F13 K2 2.804789 1_655
F14 H3 0.983787 1_555
F14 K3 2.775330 1_555
F14 K2 2.928594 1_565
F14 K0 2.945410 1_565
F15 H3 1.476304 1_555
F15 K0 2.812107 1_555
F15 K2 2.853520 1_555
