# generated using pymatgen
data_Pa3Al
_symmetry_space_group_name_H-M   'P 1'
_cell_length_a   5.50313863
_cell_length_b   5.50313863
_cell_length_c   5.50313863
_cell_angle_alpha   131.68189749
_cell_angle_beta   131.68189749
_cell_angle_gamma   70.73190159
_symmetry_Int_Tables_number   1
_chemical_formula_structural   Pa3Al
_chemical_formula_sum   'Pa3 Al1'
_cell_volume   91.05889876
_cell_formula_units_Z   1
loop_
 _symmetry_equiv_pos_site_id
 _symmetry_equiv_pos_as_xyz
  1  'x, y, z'
loop_
 _atom_site_type_symbol
 _atom_site_label
 _atom_site_symmetry_multiplicity
 _atom_site_fract_x
 _atom_site_fract_y
 _atom_site_fract_z
 _atom_site_occupancy
  Pa  Pa0  1  0.75000000  0.25000000  0.50000000  1
  Pa  Pa1  1  0.25000000  0.75000000  0.50000000  1
  Pa  Pa2  1  0.50000000  0.50000000  -0.00000000  1
  Al  Al0  1  -0.00000000  -0.00000000  -0.00000000  1
loop_
_geom_bond_atom_site_label_1
_geom_bond_atom_site_label_2
_geom_bond_distance
_geom_bond_site_symmetry_2
Pa0 Pa2 3.179230 1_545
Pa0 Pa2 3.179230 1_556
Pa0 Pa2 3.179230 1_656
Pa0 Pa2 3.179230 1_555
Pa0 Pa1 3.185198 1_544
Pa0 Pa1 3.185198 1_555
Pa0 Pa1 3.185198 1_645
Pa0 Pa1 3.185198 1_656
Pa1 Pa2 3.179230 1_556
Pa1 Pa2 3.179230 1_455
Pa1 Pa2 3.179230 1_555
Pa1 Pa2 3.179230 1_566
Al0 Pa0 3.179230 1_454
Al0 Pa0 3.179230 1_444
Al0 Pa1 3.179230 1_444
Al0 Pa1 3.179230 1_545
Al0 Pa0 3.179230 1_555
Al0 Pa1 3.179230 1_544
Al0 Pa1 3.179230 1_555
Al0 Pa0 3.179230 1_455
Al0 Pa2 3.185198 1_455
Al0 Pa2 3.185198 1_545
Al0 Pa2 3.185198 1_556
Al0 Pa2 3.185198 1_444
