# generated using pymatgen
data_Li5Fe2Co3O10
_symmetry_space_group_name_H-M   'P 1'
_cell_length_a   5.16593600
_cell_length_b   5.15702457
_cell_length_c   7.78243429
_cell_angle_alpha   108.44907332
_cell_angle_beta   103.92324734
_cell_angle_gamma   99.06327539
_symmetry_Int_Tables_number   1
_chemical_formula_structural   Li5Fe2Co3O10
_chemical_formula_sum   'Li5 Fe2 Co3 O10'
_cell_volume   184.64645832
_cell_formula_units_Z   1
loop_
 _symmetry_equiv_pos_site_id
 _symmetry_equiv_pos_as_xyz
  1  'x, y, z'
loop_
 _atom_site_type_symbol
 _atom_site_label
 _atom_site_symmetry_multiplicity
 _atom_site_fract_x
 _atom_site_fract_y
 _atom_site_fract_z
 _atom_site_occupancy
  Li  Li0  1  0.38383500  0.09476900  0.41253400  1
  Li  Li1  1  0.82230800  0.71990000  0.78815300  1
  Li  Li2  1  0.50000000  0.50000000  0.50000000  1
  Li  Li3  1  0.17769200  0.28010000  0.21184700  1
  Li  Li4  1  0.61616500  0.90523100  0.58746600  1
  Fe  Fe0  1  0.71553900  0.30922500  0.69163600  1
  Fe  Fe1  1  0.28446100  0.69077500  0.30836400  1
  Co  Co0  1  0.00000000  0.50000000  0.00000000  1
  Co  Co1  1  0.91188600  0.11832500  0.89041700  1
  Co  Co2  1  0.08811400  0.88167500  0.10958300  1
  O  O0  1  0.33258900  0.37217600  0.86004000  1
  O  O1  1  0.44164800  0.81136100  0.95036200  1
  O  O2  1  0.04719700  0.21799500  0.54790900  1
  O  O3  1  0.76592600  0.02535700  0.23017500  1
  O  O4  1  0.12418300  0.56314500  0.66708300  1
  O  O5  1  0.87581700  0.43685500  0.33291700  1
  O  O6  1  0.23407400  0.97464300  0.76982500  1
  O  O7  1  0.95280300  0.78200500  0.45209100  1
  O  O8  1  0.55835200  0.18863900  0.04963800  1
  O  O9  1  0.66741100  0.62782400  0.13996000  1
loop_
_geom_bond_atom_site_label_1
_geom_bond_atom_site_label_2
_geom_bond_distance
_geom_bond_site_symmetry_2
Li0 Li2 1.923189 1_555
Li0 O2 2.311761 1_555
Li0 O3 2.699545 1_555
Li1 O4 2.143691 1_655
Li1 O6 2.378067 1_655
Li1 O1 2.606352 1_555
Li2 Li4 1.923189 1_555
Li2 O4 2.590780 1_555
Li2 O5 2.590780 1_555
Li3 O5 2.143691 1_455
Li3 O3 2.378067 1_455
Li3 O8 2.606352 1_555
Li4 O7 2.311761 1_555
Li4 O6 2.699545 1_555
Fe0 Li4 1.911831 1_545
Fe0 Li1 1.944096 1_555
Fe0 Li2 2.215089 1_555
Fe0 Li0 2.229065 1_555
Fe0 O2 2.291533 1_655
Fe0 O4 2.385217 1_655
Fe0 O0 2.630111 1_555
Fe1 Li0 1.911831 1_565
Fe1 Li3 1.944096 1_555
Fe1 Li2 2.215089 1_555
Fe1 Li4 2.229065 1_555
Fe1 O7 2.291533 1_455
Fe1 O5 2.385217 1_455
Fe1 O9 2.630111 1_555
Co0 Co1 1.810308 1_454
Co0 Co2 1.810308 1_555
Co0 Fe1 2.289009 1_555
Co0 Fe0 2.289009 1_454
Co0 O0 2.318605 1_554
Co0 O9 2.318605 1_455
Co0 Li3 2.372721 1_555
Co0 Li1 2.372721 1_454
Co1 Li1 1.886134 1_545
Co1 O6 2.213636 1_645
Co1 Fe0 2.216896 1_555
Co1 Li4 2.279924 1_545
Co1 Li3 2.346112 1_656
Co1 O8 2.452704 1_556
Co1 O0 2.457599 1_655
Co2 Li3 1.886134 1_565
Co2 O3 2.213636 1_465
Co2 Fe1 2.216896 1_555
Co2 Li0 2.279924 1_565
Co2 Li1 2.346112 1_454
Co2 O1 2.452704 1_554
Co2 O9 2.457599 1_455
O0 O6 1.882323 1_545
O1 O8 1.789063 1_566
O1 O6 2.034995 1_555
O2 O4 1.655652 1_555
O3 O9 1.882323 1_545
O3 O5 1.947565 1_555
O3 O8 2.034995 1_555
O4 O6 1.947565 1_555
O5 O7 1.655652 1_555
