# generated using pymatgen
data_TbBS3
_symmetry_space_group_name_H-M   'P 1'
_cell_length_a   6.10527000
_cell_length_b   7.24764200
_cell_length_c   8.75519400
_cell_angle_alpha   90.00000000
_cell_angle_beta   90.00000000
_cell_angle_gamma   90.00000000
_symmetry_Int_Tables_number   1
_chemical_formula_structural   TbBS3
_chemical_formula_sum   'Tb4 B4 S12'
_cell_volume   387.40692697
_cell_formula_units_Z   4
loop_
 _symmetry_equiv_pos_site_id
 _symmetry_equiv_pos_as_xyz
  1  'x, y, z'
loop_
 _atom_site_type_symbol
 _atom_site_label
 _atom_site_symmetry_multiplicity
 _atom_site_fract_x
 _atom_site_fract_y
 _atom_site_fract_z
 _atom_site_occupancy
  Tb  Tb0  1  0.94372000  0.88024800  0.71618200  1
  Tb  Tb1  1  0.55628000  0.38024800  0.71618200  1
  Tb  Tb2  1  0.44372000  0.61975200  0.21618200  1
  Tb  Tb3  1  0.05628000  0.11975200  0.21618200  1
  B  B0  1  0.60227900  0.14382600  0.04815300  1
  B  B1  1  0.39772100  0.85617400  0.54815300  1
  B  B2  1  0.89772100  0.64382600  0.04815300  1
  B  B3  1  0.10227900  0.35617400  0.54815300  1
  S  S0  1  0.16970300  0.82411000  0.41579400  1
  S  S1  1  0.13486000  0.79420300  0.01958100  1
  S  S2  1  0.83029700  0.17589000  0.91579400  1
  S  S3  1  0.86514000  0.20579700  0.51958100  1
  S  S4  1  0.63486000  0.70579700  0.51958100  1
  S  S5  1  0.37762500  0.00711300  0.71119000  1
  S  S6  1  0.36514000  0.29420300  0.01958100  1
  S  S7  1  0.12237500  0.50711300  0.71119000  1
  S  S8  1  0.33029700  0.32411000  0.41579400  1
  S  S9  1  0.66970300  0.67589000  0.91579400  1
  S  S10  1  0.87762500  0.49288700  0.21119000  1
  S  S11  1  0.62237500  0.99288700  0.21119000  1
loop_
_geom_bond_atom_site_label_1
_geom_bond_atom_site_label_2
_geom_bond_distance
_geom_bond_site_symmetry_2
B0 S11 1.802585 1_545
B0 S2 1.826161 1_554
B0 S6 1.829352 1_555
B1 S5 1.802585 1_565
B1 S0 1.826161 1_555
B1 S4 1.829352 1_555
B2 S10 1.802585 1_555
B2 S9 1.826161 1_554
B2 S1 1.829352 1_655
B3 S7 1.802585 1_555
B3 S8 1.826161 1_555
B3 S3 1.829352 1_455
S0 Tb2 2.836671 1_555
S0 Tb3 2.850434 1_565
S0 Tb0 2.997623 1_455
S1 Tb2 2.849065 1_555
S1 Tb3 2.959735 1_565
S1 Tb0 2.967613 1_454
S2 Tb1 2.836671 1_555
S2 Tb0 2.850434 1_545
S2 Tb3 2.997623 1_656
S3 Tb1 2.849065 1_555
S3 Tb0 2.959735 1_545
S3 Tb3 2.967613 1_655
S4 Tb0 2.849065 1_555
S4 Tb1 2.959735 1_555
S4 Tb2 2.967613 1_555
S5 Tb0 2.804480 1_445
S5 Tb1 2.916354 1_555
S6 Tb3 2.849065 1_555
S6 Tb2 2.959735 1_555
S6 Tb1 2.967613 1_554
S7 Tb1 2.804480 1_555
S7 Tb0 2.916354 1_455
S8 Tb3 2.836671 1_555
S8 Tb2 2.850434 1_555
S8 Tb1 2.997623 1_555
S9 Tb0 2.836671 1_555
S9 Tb1 2.850434 1_555
S9 Tb2 2.997623 1_556
S10 Tb2 2.804480 1_555
S10 Tb3 2.916354 1_655
S11 Tb3 2.804480 1_665
S11 Tb2 2.916354 1_555
