# generated using pymatgen
data_V2S3O14
_symmetry_space_group_name_H-M   'P 1'
_cell_length_a   9.02278700
_cell_length_b   9.02278700
_cell_length_c   15.49321400
_cell_angle_alpha   90.00000000
_cell_angle_beta   90.00000000
_cell_angle_gamma   90.00000000
_symmetry_Int_Tables_number   1
_chemical_formula_structural   V2S3O14
_chemical_formula_sum   'V8 S12 O56'
_cell_volume   1261.31316842
_cell_formula_units_Z   4
loop_
 _symmetry_equiv_pos_site_id
 _symmetry_equiv_pos_as_xyz
  1  'x, y, z'
loop_
 _atom_site_type_symbol
 _atom_site_label
 _atom_site_symmetry_multiplicity
 _atom_site_fract_x
 _atom_site_fract_y
 _atom_site_fract_z
 _atom_site_occupancy
  V  V0  1  0.25414600  0.74585400  0.29729200  1
  V  V1  1  0.74585400  0.25414600  0.29729200  1
  V  V2  1  0.24585400  0.24585400  0.79729200  1
  V  V3  1  0.75414600  0.75414600  0.79729200  1
  V  V4  1  0.74585400  0.25414600  0.70270800  1
  V  V5  1  0.25414600  0.74585400  0.70270800  1
  V  V6  1  0.75414600  0.75414600  0.20270800  1
  V  V7  1  0.24585400  0.24585400  0.20270800  1
  S  S0  1  0.00000000  0.50000000  0.25000000  1
  S  S1  1  0.50000000  0.00000000  0.75000000  1
  S  S2  1  0.00000000  0.50000000  0.75000000  1
  S  S3  1  0.50000000  0.00000000  0.25000000  1
  S  S4  1  0.50000000  0.50000000  0.24937400  1
  S  S5  1  0.00000000  0.00000000  0.74937400  1
  S  S6  1  0.50000000  0.50000000  0.75062600  1
  S  S7  1  0.00000000  0.00000000  0.25062600  1
  S  S8  1  0.17845000  0.82155000  0.50000000  1
  S  S9  1  0.82155000  0.17845000  0.50000000  1
  S  S10  1  0.32155000  0.32155000  0.00000000  1
  S  S11  1  0.67845000  0.67845000  0.00000000  1
  O  O0  1  0.25127700  0.74872300  0.19275900  1
  O  O1  1  0.74872300  0.25127700  0.19275900  1
  O  O2  1  0.24872300  0.24872300  0.69275900  1
  O  O3  1  0.75127700  0.75127700  0.69275900  1
  O  O4  1  0.74872300  0.25127700  0.80724100  1
  O  O5  1  0.25127700  0.74872300  0.80724100  1
  O  O6  1  0.75127700  0.75127700  0.30724100  1
  O  O7  1  0.24872300  0.24872300  0.30724100  1
  O  O8  1  0.25460300  0.74539700  0.42155300  1
  O  O9  1  0.74539700  0.25460300  0.42155300  1
  O  O10  1  0.24539700  0.24539700  0.92155300  1
  O  O11  1  0.75460300  0.75460300  0.92155300  1
  O  O12  1  0.74539700  0.25460300  0.57844700  1
  O  O13  1  0.25460300  0.74539700  0.57844700  1
  O  O14  1  0.75460300  0.75460300  0.07844700  1
  O  O15  1  0.24539700  0.24539700  0.07844700  1
  O  O16  1  0.40494500  0.90966900  0.30834300  1
  O  O17  1  0.59505500  0.09033100  0.30834300  1
  O  O18  1  0.09505500  0.40966900  0.80834300  1
  O  O19  1  0.90494500  0.59033100  0.80834300  1
  O  O20  1  0.59505500  0.09033100  0.69165700  1
  O  O21  1  0.40494500  0.90966900  0.69165700  1
  O  O22  1  0.90494500  0.59033100  0.19165700  1
  O  O23  1  0.09505500  0.40966900  0.19165700  1
  O  O24  1  0.90966900  0.40494500  0.30834300  1
  O  O25  1  0.09033100  0.59505500  0.30834300  1
  O  O26  1  0.40966900  0.09505500  0.80834300  1
  O  O27  1  0.59033100  0.90494500  0.80834300  1
  O  O28  1  0.09033100  0.59505500  0.69165700  1
  O  O29  1  0.90966900  0.40494500  0.69165700  1
  O  O30  1  0.59033100  0.90494500  0.19165700  1
  O  O31  1  0.40966900  0.09505500  0.19165700  1
  O  O32  1  0.40782000  0.59218000  0.30958100  1
  O  O33  1  0.59218000  0.40782000  0.30958100  1
  O  O34  1  0.09218000  0.09218000  0.80958100  1
  O  O35  1  0.90782000  0.90782000  0.80958100  1
  O  O36  1  0.59218000  0.40782000  0.69041900  1
  O  O37  1  0.40782000  0.59218000  0.69041900  1
  O  O38  1  0.90782000  0.90782000  0.19041900  1
  O  O39  1  0.09218000  0.09218000  0.19041900  1
  O  O40  1  0.09314300  0.90685700  0.30686900  1
  O  O41  1  0.90685700  0.09314300  0.30686900  1
  O  O42  1  0.40685700  0.40685700  0.80686900  1
  O  O43  1  0.59314300  0.59314300  0.80686900  1
  O  O44  1  0.90685700  0.09314300  0.69313100  1
  O  O45  1  0.09314300  0.90685700  0.69313100  1
  O  O46  1  0.59314300  0.59314300  0.19313100  1
  O  O47  1  0.40685700  0.40685700  0.19313100  1
  O  O48  1  0.02506700  0.77901600  0.50000000  1
  O  O49  1  0.97493300  0.22098400  0.50000000  1
  O  O50  1  0.47493300  0.27901600  0.00000000  1
  O  O51  1  0.52506700  0.72098400  0.00000000  1
  O  O52  1  0.77901600  0.02506700  0.50000000  1
  O  O53  1  0.22098400  0.97493300  0.50000000  1
  O  O54  1  0.27901600  0.47493300  0.00000000  1
  O  O55  1  0.72098400  0.52506700  0.00000000  1
loop_
_geom_bond_atom_site_label_1
_geom_bond_atom_site_label_2
_geom_bond_distance
_geom_bond_site_symmetry_2
O0 V0 1.619966 1_555
O1 V1 1.619966 1_555
O2 V2 1.619966 1_555
O3 V3 1.619966 1_555
O4 V4 1.619966 1_555
O5 V5 1.619966 1_555
O6 V6 1.619966 1_555
O7 V7 1.619966 1_555
O8 S8 1.556096 1_555
O8 V0 1.925211 1_555
O9 S9 1.556096 1_555
O9 V1 1.925211 1_555
O10 S10 1.556096 1_556
O10 V2 1.925211 1_555
O11 S11 1.556096 1_556
O11 V3 1.925211 1_555
O12 S9 1.556096 1_555
O12 V4 1.925211 1_555
O13 S8 1.556096 1_555
O13 V5 1.925211 1_555
O14 S11 1.556096 1_555
O14 V6 1.925211 1_555
O15 S10 1.556096 1_555
O15 V7 1.925211 1_555
O16 S3 1.488939 1_565
O16 V0 2.016260 1_555
O17 S3 1.488939 1_555
O17 V1 2.016260 1_555
O18 S2 1.488939 1_555
O18 V2 2.016260 1_555
O19 S2 1.488939 1_655
O19 V3 2.016260 1_555
O20 S1 1.488939 1_555
O20 V4 2.016260 1_555
O21 S1 1.488939 1_565
O21 V5 2.016260 1_555
O22 S0 1.488939 1_655
O22 V6 2.016260 1_555
O23 S0 1.488939 1_555
O23 V7 2.016260 1_555
O24 S0 1.488939 1_655
O24 V1 2.016260 1_555
O25 S0 1.488939 1_555
O25 V0 2.016260 1_555
O26 S1 1.488939 1_555
O26 V2 2.016260 1_555
O27 S1 1.488939 1_565
O27 V3 2.016260 1_555
O28 S2 1.488939 1_555
O28 V5 2.016260 1_555
O29 S2 1.488939 1_655
O29 V4 2.016260 1_555
O30 S3 1.488939 1_565
O30 V6 2.016260 1_555
O31 S3 1.488939 1_555
O31 V7 2.016260 1_555
O32 S4 1.501211 1_555
O32 V0 1.970125 1_555
O33 S4 1.501211 1_555
O33 V1 1.970125 1_555
O34 S5 1.501211 1_555
O34 V2 1.970125 1_555
O35 S5 1.501211 1_665
O35 V3 1.970125 1_555
O36 S6 1.501211 1_555
O36 V4 1.970125 1_555
O37 S6 1.501211 1_555
O37 V5 1.970125 1_555
O38 S7 1.501211 1_665
O38 V6 1.970125 1_555
O39 S7 1.501211 1_555
O39 V7 1.970125 1_555
O40 S7 1.473733 1_565
O40 V0 2.059773 1_555
O41 S7 1.473733 1_655
O41 V1 2.059773 1_555
O42 S6 1.473733 1_555
O42 V2 2.059773 1_555
O43 S6 1.473733 1_555
O43 V3 2.059773 1_555
O44 S5 1.473733 1_655
O44 V4 2.059773 1_555
O45 S5 1.473733 1_565
O45 V5 2.059773 1_555
O46 S4 1.473733 1_555
O46 V6 2.059773 1_555
O47 S4 1.473733 1_555
O47 V7 2.059773 1_555
O48 S8 1.436168 1_555
O49 S9 1.436168 1_555
O50 S10 1.436168 1_555
O51 S11 1.436168 1_555
O52 S9 1.436168 1_555
O53 S8 1.436168 1_555
O54 S10 1.436168 1_555
O55 S11 1.436168 1_555
