# generated using pymatgen
data_LiTm2Co
_symmetry_space_group_name_H-M   'P 1'
_cell_length_a   4.75272583
_cell_length_b   4.75272602
_cell_length_c   4.75272588
_cell_angle_alpha   60.00068036
_cell_angle_beta   60.00067622
_cell_angle_gamma   60.00068036
_symmetry_Int_Tables_number   1
_chemical_formula_structural   LiTm2Co
_chemical_formula_sum   'Li1 Tm2 Co1'
_cell_volume   75.91367135
_cell_formula_units_Z   1
loop_
 _symmetry_equiv_pos_site_id
 _symmetry_equiv_pos_as_xyz
  1  'x, y, z'
loop_
 _atom_site_type_symbol
 _atom_site_label
 _atom_site_symmetry_multiplicity
 _atom_site_fract_x
 _atom_site_fract_y
 _atom_site_fract_z
 _atom_site_occupancy
  Li  Li0  1  0.75000065  0.75000064  0.75000064  1
  Tm  Tm0  1  0.49999931  0.49999929  0.49999931  1
  Tm  Tm1  1  0.00000021  0.00000013  0.00000016  1
  Co  Co0  1  0.25000082  0.25000094  0.25000089  1
loop_
_geom_bond_atom_site_label_1
_geom_bond_atom_site_label_2
_geom_bond_distance
_geom_bond_site_symmetry_2
Li0 Tm1 2.910418 1_666
Li0 Tm0 2.910439 1_555
Li0 Tm0 2.910458 1_655
Li0 Tm0 2.910458 1_556
Li0 Tm0 2.910458 1_565
Li0 Tm1 2.910465 1_566
Li0 Tm1 2.910465 1_665
Li0 Tm1 2.910465 1_656
Co0 Tm0 2.910405 1_555
Co0 Tm1 2.910432 1_555
Co0 Tm1 2.910460 1_565
Co0 Tm1 2.910460 1_556
Co0 Tm1 2.910461 1_655
Co0 Tm0 2.910469 1_455
Co0 Tm0 2.910469 1_554
Co0 Tm0 2.910470 1_545
