# generated using pymatgen
data_Ho2MgAl
_symmetry_space_group_name_H-M   'P 1'
_cell_length_a   5.15498227
_cell_length_b   5.15498216
_cell_length_c   5.15498223
_cell_angle_alpha   59.99954597
_cell_angle_beta   59.99954103
_cell_angle_gamma   59.99954139
_symmetry_Int_Tables_number   1
_chemical_formula_structural   Ho2MgAl
_chemical_formula_sum   'Ho2 Mg1 Al1'
_cell_volume   96.86391454
_cell_formula_units_Z   1
loop_
 _symmetry_equiv_pos_site_id
 _symmetry_equiv_pos_as_xyz
  1  'x, y, z'
loop_
 _atom_site_type_symbol
 _atom_site_label
 _atom_site_symmetry_multiplicity
 _atom_site_fract_x
 _atom_site_fract_y
 _atom_site_fract_z
 _atom_site_occupancy
  Ho  Ho0  1  -0.00000001  0.00000000  -0.00000002  1
  Ho  Ho1  1  0.49999929  0.49999928  0.49999929  1
  Mg  Mg0  1  0.75000099  0.75000098  0.75000101  1
  Al  Al0  1  0.25000073  0.25000073  0.25000072  1
loop_
_geom_bond_atom_site_label_1
_geom_bond_atom_site_label_2
_geom_bond_distance
_geom_bond_site_symmetry_2
Ho0 Mg0 3.156755 1_544
Ho0 Mg0 3.156755 1_454
Ho0 Mg0 3.156755 1_445
Ho0 Mg0 3.156767 1_444
Ho1 Mg0 3.156744 1_455
Ho1 Mg0 3.156744 1_554
Ho1 Mg0 3.156744 1_545
Ho1 Mg0 3.156801 1_555
Al0 Ho0 3.156748 1_655
Al0 Ho0 3.156748 1_556
Al0 Ho0 3.156748 1_565
Al0 Ho1 3.156757 1_455
Al0 Ho1 3.156757 1_554
Al0 Ho1 3.156757 1_545
Al0 Ho1 3.156762 1_555
Al0 Ho0 3.156789 1_555
