# generated using pymatgen
data_LiFe4(BO3)4
_symmetry_space_group_name_H-M   'P 1'
_cell_length_a   9.03237900
_cell_length_b   5.31760900
_cell_length_c   10.27883765
_cell_angle_alpha   89.63933341
_cell_angle_beta   90.00000000
_cell_angle_gamma   90.00000000
_symmetry_Int_Tables_number   1
_chemical_formula_structural   LiFe4(BO3)4
_chemical_formula_sum   'Li2 Fe8 B8 O24'
_cell_volume   493.68957350
_cell_formula_units_Z   2
loop_
 _symmetry_equiv_pos_site_id
 _symmetry_equiv_pos_as_xyz
  1  'x, y, z'
loop_
 _atom_site_type_symbol
 _atom_site_label
 _atom_site_symmetry_multiplicity
 _atom_site_fract_x
 _atom_site_fract_y
 _atom_site_fract_z
 _atom_site_occupancy
  Li  Li0  1  0.99277100  0.64382200  0.82883000  1
  Li  Li1  1  0.00722900  0.64382200  0.32883000  1
  Fe  Fe0  1  0.83180900  0.86202200  0.11750400  1
  Fe  Fe1  1  0.82758100  0.15688800  0.37131300  1
  Fe  Fe2  1  0.65974400  0.65979000  0.87288900  1
  Fe  Fe3  1  0.66787700  0.33694400  0.62521300  1
  Fe  Fe4  1  0.34025600  0.65979000  0.37288900  1
  Fe  Fe5  1  0.16819100  0.86202200  0.61750400  1
  Fe  Fe6  1  0.33212300  0.33694400  0.12521300  1
  Fe  Fe7  1  0.17241900  0.15688800  0.87131300  1
  B  B0  1  0.82606800  0.83095800  0.62807900  1
  B  B1  1  0.67602500  0.66472400  0.37628300  1
  B  B2  1  0.83547500  0.16514000  0.86691400  1
  B  B3  1  0.66552200  0.35105000  0.12366400  1
  B  B4  1  0.32397500  0.66472400  0.87628300  1
  B  B5  1  0.33447800  0.35105000  0.62366400  1
  B  B6  1  0.17393200  0.83095800  0.12807900  1
  B  B7  1  0.16452500  0.16514000  0.36691400  1
  O  O0  1  0.96442500  0.74023100  0.64439600  1
  O  O1  1  0.82209200  0.91324600  0.90452800  1
  O  O2  1  0.97171800  0.28187100  0.87023400  1
  O  O3  1  0.80298300  0.79616800  0.33461100  1
  O  O4  1  0.70341700  0.69399400  0.67480700  1
  O  O5  1  0.78419200  0.22439700  0.18307200  1
  O  O6  1  0.79907000  0.06384000  0.56792000  1
  O  O7  1  0.69213400  0.57713600  0.05936400  1
  O  O8  1  0.53885600  0.75803600  0.36291800  1
  O  O9  1  0.70085600  0.42806000  0.43284900  1
  O  O10  1  0.71078200  0.29829800  0.82472000  1
  O  O11  1  0.46114400  0.75803600  0.86291800  1
  O  O12  1  0.52882400  0.24521600  0.12773200  1
  O  O13  1  0.29658300  0.69399400  0.17480700  1
  O  O14  1  0.30786600  0.57713600  0.55936400  1
  O  O15  1  0.47117600  0.24521600  0.62773200  1
  O  O16  1  0.29914400  0.42806000  0.93284900  1
  O  O17  1  0.17790800  0.91324600  0.40452800  1
  O  O18  1  0.19701700  0.79616800  0.83461100  1
  O  O19  1  0.28921800  0.29829800  0.32472000  1
  O  O20  1  0.21580800  0.22439700  0.68307200  1
  O  O21  1  0.03557500  0.74023100  0.14439600  1
  O  O22  1  0.20093000  0.06384000  0.06792000  1
  O  O23  1  0.02828200  0.28187100  0.37023400  1
loop_
_geom_bond_atom_site_label_1
_geom_bond_atom_site_label_2
_geom_bond_distance
_geom_bond_site_symmetry_2
Li0 O0 1.977391 1_555
Li0 O2 1.977750 1_555
Li0 O18 2.015890 1_655
Li0 O1 2.246932 1_555
Li1 O21 1.977391 1_555
Li1 O23 1.977750 1_555
Li1 O3 2.015890 1_455
Li1 O17 2.246932 1_555
Fe0 O21 1.970025 1_655
Fe0 O7 2.062795 1_555
Fe0 O5 2.090159 1_565
Fe0 O1 2.206071 1_554
Fe0 O3 2.271708 1_555
Fe1 O23 1.930805 1_655
Fe1 O9 1.949631 1_555
Fe1 O3 1.969813 1_545
Fe1 O5 2.004383 1_555
Fe1 O6 2.093454 1_555
Fe2 O11 1.870988 1_555
Fe2 O7 1.985467 1_556
Fe2 O1 2.019428 1_555
Fe2 O10 2.040779 1_555
Fe2 O4 2.080754 1_555
Fe3 O15 1.842558 1_555
Fe3 O6 1.967441 1_555
Fe3 O4 1.994988 1_555
Fe3 O9 2.054522 1_555
Fe3 O10 2.095824 1_555
Fe4 O8 1.870988 1_555
Fe4 O14 1.985467 1_555
Fe4 O17 2.019428 1_555
Fe4 O19 2.040779 1_555
Fe4 O13 2.080754 1_555
Fe5 O0 1.970025 1_455
Fe5 O14 2.062795 1_555
Fe5 O20 2.090159 1_565
Fe5 O17 2.206071 1_555
Fe5 O18 2.271708 1_555
Fe6 O12 1.842558 1_555
Fe6 O22 1.967441 1_555
Fe6 O13 1.994988 1_555
Fe6 O16 2.054522 1_554
Fe6 O19 2.095824 1_555
Fe7 O2 1.930805 1_455
Fe7 O16 1.949631 1_555
Fe7 O18 1.969813 1_545
Fe7 O20 2.004383 1_555
Fe7 O22 2.093454 1_556
B0 O0 1.349667 1_555
B0 O6 1.402060 1_565
B0 O4 1.408557 1_555
B1 O8 1.341362 1_555
B1 O9 1.401051 1_555
B1 O3 1.408282 1_555
B2 O2 1.378807 1_555
B2 O1 1.397055 1_545
B2 O10 1.397894 1_555
B3 O12 1.357454 1_555
B3 O7 1.389235 1_555
B3 O5 1.403642 1_555
B4 O11 1.341362 1_555
B4 O16 1.401051 1_555
B4 O18 1.408282 1_555
B5 O15 1.357454 1_555
B5 O14 1.389235 1_555
B5 O20 1.403642 1_555
B6 O21 1.349667 1_555
B6 O22 1.402060 1_565
B6 O13 1.408557 1_555
B7 O23 1.378807 1_555
B7 O17 1.397055 1_545
B7 O19 1.397894 1_555
