# generated using pymatgen
data_MgH8(ClO6)2
_symmetry_space_group_name_H-M   'P 1'
_cell_length_a   6.91700767
_cell_length_b   6.91700767
_cell_length_c   6.00131726
_cell_angle_alpha   71.94743210
_cell_angle_beta   71.94743210
_cell_angle_gamma   69.71206704
_symmetry_Int_Tables_number   1
_chemical_formula_structural   MgH8(ClO6)2
_chemical_formula_sum   'Mg1 H8 Cl2 O12'
_cell_volume   249.37716076
_cell_formula_units_Z   1
loop_
 _symmetry_equiv_pos_site_id
 _symmetry_equiv_pos_as_xyz
  1  'x, y, z'
loop_
 _atom_site_type_symbol
 _atom_site_label
 _atom_site_symmetry_multiplicity
 _atom_site_fract_x
 _atom_site_fract_y
 _atom_site_fract_z
 _atom_site_occupancy
  Mg  Mg0  1  0.00000000  0.00000000  0.00000000  1
  H  H0  1  0.24133700  0.04243000  0.26329700  1
  H  H1  1  0.04243000  0.24133700  0.26329700  1
  H  H2  1  0.61948200  0.28188400  0.13472700  1
  H  H3  1  0.71811600  0.38051800  0.86527300  1
  H  H4  1  0.28188400  0.61948200  0.13472700  1
  H  H5  1  0.38051800  0.71811600  0.86527300  1
  H  H6  1  0.95757000  0.75866300  0.73670300  1
  H  H7  1  0.75866300  0.95757000  0.73670300  1
  Cl  Cl0  1  0.30192300  0.30192300  0.60274800  1
  Cl  Cl1  1  0.69807700  0.69807700  0.39725200  1
  O  O0  1  0.11618600  0.11618600  0.19616300  1
  O  O1  1  0.16312300  0.16312300  0.65876000  1
  O  O2  1  0.48791400  0.18665400  0.69931000  1
  O  O3  1  0.74273000  0.25727000  0.00000000  1
  O  O4  1  0.36390300  0.36390300  0.33809800  1
  O  O5  1  0.18665400  0.48791400  0.69931000  1
  O  O6  1  0.81334600  0.51208600  0.30069000  1
  O  O7  1  0.63609700  0.63609700  0.66190200  1
  O  O8  1  0.25727000  0.74273000  0.00000000  1
  O  O9  1  0.51208600  0.81334600  0.30069000  1
  O  O10  1  0.83687700  0.83687700  0.34124000  1
  O  O11  1  0.88381400  0.88381400  0.80383700  1
loop_
_geom_bond_atom_site_label_1
_geom_bond_atom_site_label_2
_geom_bond_distance
_geom_bond_site_symmetry_2
Mg0 O8 2.034071 1_545
Mg0 O3 2.034071 1_455
Mg0 O0 2.073224 1_555
Mg0 O11 2.073224 1_444
Mg0 O1 2.181451 1_554
Mg0 O10 2.181451 1_445
H0 O0 0.976977 1_555
H1 O0 0.976977 1_555
H2 O3 0.983336 1_555
H3 O3 0.983336 1_556
H4 O8 0.983336 1_555
H5 O8 0.983336 1_556
H6 O11 0.976977 1_555
H7 O11 0.976977 1_555
Cl0 O2 1.446023 1_555
Cl0 O5 1.446023 1_555
Cl0 O4 1.474301 1_555
Cl0 O1 1.481783 1_555
Cl1 O6 1.446023 1_555
Cl1 O9 1.446023 1_555
Cl1 O7 1.474301 1_555
Cl1 O10 1.481783 1_555
