# generated using pymatgen
data_Rb5Fe3(SO5)6
_symmetry_space_group_name_H-M   'P 1'
_cell_length_a   14.65820537
_cell_length_b   16.32366720
_cell_length_c   12.81945094
_cell_angle_alpha   90.00000000
_cell_angle_beta   93.69031976
_cell_angle_gamma   90.00000000
_symmetry_Int_Tables_number   1
_chemical_formula_structural   Rb5Fe3(SO5)6
_chemical_formula_sum   'Rb20 Fe12 S24 O120'
_cell_volume   3061.02246740
_cell_formula_units_Z   4
loop_
 _symmetry_equiv_pos_site_id
 _symmetry_equiv_pos_as_xyz
  1  'x, y, z'
loop_
 _atom_site_type_symbol
 _atom_site_label
 _atom_site_symmetry_multiplicity
 _atom_site_fract_x
 _atom_site_fract_y
 _atom_site_fract_z
 _atom_site_occupancy
  Rb  Rb0  1  0.47577945  0.74765279  0.74251728  1
  Rb  Rb1  1  0.97577945  0.75234721  0.24251728  1
  Rb  Rb2  1  0.52422055  0.25234721  0.25748272  1
  Rb  Rb3  1  0.02422055  0.24765279  0.75748272  1
  Rb  Rb4  1  0.69184904  0.90379053  0.92378119  1
  Rb  Rb5  1  0.19184904  0.59620947  0.42378119  1
  Rb  Rb6  1  0.30815096  0.09620947  0.07621881  1
  Rb  Rb7  1  0.80815096  0.40379053  0.57621881  1
  Rb  Rb8  1  0.68750933  0.60664322  0.93696118  1
  Rb  Rb9  1  0.18750933  0.89335678  0.43696118  1
  Rb  Rb10  1  0.31249067  0.39335678  0.06303882  1
  Rb  Rb11  1  0.81249067  0.10664322  0.56303882  1
  Rb  Rb12  1  0.62805855  0.56917543  0.33887609  1
  Rb  Rb13  1  0.12805855  0.93082457  0.83887609  1
  Rb  Rb14  1  0.37194145  0.43082457  0.66112391  1
  Rb  Rb15  1  0.87194145  0.06917543  0.16112391  1
  Rb  Rb16  1  0.62841603  0.93542622  0.34155419  1
  Rb  Rb17  1  0.12841603  0.56457378  0.84155419  1
  Rb  Rb18  1  0.37158397  0.06457378  0.65844581  1
  Rb  Rb19  1  0.87158397  0.43542622  0.15844581  1
  Fe  Fe0  1  0.27324493  0.75012396  0.98464874  1
  Fe  Fe1  1  0.77324493  0.74987604  0.48464874  1
  Fe  Fe2  1  0.72675507  0.24987604  0.01535126  1
  Fe  Fe3  1  0.22675507  0.25012396  0.51535126  1
  Fe  Fe4  1  0.40305296  0.85759518  0.16649577  1
  Fe  Fe5  1  0.90305296  0.64240482  0.66649577  1
  Fe  Fe6  1  0.59694704  0.14240482  0.83350423  1
  Fe  Fe7  1  0.09694704  0.35759518  0.33350423  1
  Fe  Fe8  1  0.40739752  0.64737774  0.16866225  1
  Fe  Fe9  1  0.90739752  0.85262226  0.66866225  1
  Fe  Fe10  1  0.59260248  0.35262226  0.83133775  1
  Fe  Fe11  1  0.09260248  0.14737774  0.33133775  1
  S  S0  1  0.18160103  0.89340802  0.12761342  1
  S  S1  1  0.68160103  0.60659198  0.62761342  1
  S  S2  1  0.81839897  0.10659198  0.87238658  1
  S  S3  1  0.31839897  0.39340802  0.37238658  1
  S  S4  1  0.39238189  0.91395169  0.91841583  1
  S  S5  1  0.89238189  0.58604831  0.41841583  1
  S  S6  1  0.60761811  0.08604831  0.08158417  1
  S  S7  1  0.10761811  0.41395169  0.58158417  1
  S  S8  1  0.41266785  0.75797975  0.38514458  1
  S  S9  1  0.91266785  0.74202025  0.88514458  1
  S  S10  1  0.58733215  0.24202025  0.61485542  1
  S  S11  1  0.08733215  0.25797975  0.11485542  1
  S  S12  1  0.58455713  0.75149091  0.11793088  1
  S  S13  1  0.08455713  0.74850909  0.61793088  1
  S  S14  1  0.41544287  0.24850909  0.88206912  1
  S  S15  1  0.91544287  0.25149091  0.38206912  1
  S  S16  1  0.19055648  0.60661237  0.13806072  1
  S  S17  1  0.69055648  0.89338763  0.63806072  1
  S  S18  1  0.80944352  0.39338763  0.86193928  1
  S  S19  1  0.30944352  0.10661237  0.36193928  1
  S  S20  1  0.38985858  0.58815892  0.92122585  1
  S  S21  1  0.88985858  0.91184108  0.42122585  1
  S  S22  1  0.61014142  0.41184108  0.07877415  1
  S  S23  1  0.11014142  0.08815892  0.57877415  1
  O  O0  1  0.18419275  0.83270914  0.03834100  1
  O  O1  1  0.68419275  0.66729086  0.53834100  1
  O  O2  1  0.81580725  0.16729086  0.96165900  1
  O  O3  1  0.31580725  0.33270914  0.46165900  1
  O  O4  1  0.27944702  0.91881633  0.15591383  1
  O  O5  1  0.77944702  0.58118367  0.65591383  1
  O  O6  1  0.72055298  0.08118367  0.84408617  1
  O  O7  1  0.22055298  0.41881633  0.34408617  1
  O  O8  1  0.13198224  0.96636642  0.08745965  1
  O  O9  1  0.63198224  0.53363358  0.58745965  1
  O  O10  1  0.86801776  0.03363358  0.91254035  1
  O  O11  1  0.36801776  0.46636642  0.41254035  1
  O  O12  1  0.14184273  0.85423399  0.21685877  1
  O  O13  1  0.64184273  0.64576601  0.71685877  1
  O  O14  1  0.85815727  0.14576601  0.78314123  1
  O  O15  1  0.35815727  0.35423399  0.28314123  1
  O  O16  1  0.33778037  0.83584431  0.90059639  1
  O  O17  1  0.83778037  0.66415569  0.40059639  1
  O  O18  1  0.66221963  0.16415569  0.09940361  1
  O  O19  1  0.16221963  0.33584431  0.59940361  1
  O  O20  1  0.43006239  0.91532120  0.03105284  1
  O  O21  1  0.93006239  0.58467880  0.53105284  1
  O  O22  1  0.56993761  0.08467880  0.96894716  1
  O  O23  1  0.06993761  0.41532120  0.46894716  1
  O  O24  1  0.33077503  0.98413057  0.89665059  1
  O  O25  1  0.83077503  0.51586943  0.39665059  1
  O  O26  1  0.66922497  0.01586943  0.10334941  1
  O  O27  1  0.16922497  0.48413057  0.60334941  1
  O  O28  1  0.46906957  0.91135960  0.85071194  1
  O  O29  1  0.96906957  0.58864040  0.35071194  1
  O  O30  1  0.53093043  0.08864040  0.14928806  1
  O  O31  1  0.03093043  0.41135960  0.64928806  1
  O  O32  1  0.36742222  0.82033568  0.30949165  1
  O  O33  1  0.86742222  0.67966432  0.80949165  1
  O  O34  1  0.63257778  0.17966432  0.69050835  1
  O  O35  1  0.13257778  0.32033568  0.19050835  1
  O  O36  1  0.43862570  0.68516135  0.32096831  1
  O  O37  1  0.93862570  0.81483865  0.82096831  1
  O  O38  1  0.56137430  0.31483865  0.67903169  1
  O  O39  1  0.06137430  0.18516135  0.17903169  1
  O  O40  1  0.49262724  0.79268275  0.44141409  1
  O  O41  1  0.99262724  0.70731725  0.94141409  1
  O  O42  1  0.50737276  0.20731725  0.55858591  1
  O  O43  1  0.00737276  0.29268275  0.05858591  1
  O  O44  1  0.33880814  0.73379240  0.45433057  1
  O  O45  1  0.83880814  0.76620760  0.95433057  1
  O  O46  1  0.66119186  0.26620760  0.54566943  1
  O  O47  1  0.16119186  0.23379240  0.04566943  1
  O  O48  1  0.53631933  0.81576338  0.17961628  1
  O  O49  1  0.03631933  0.68423662  0.67961628  1
  O  O50  1  0.46368067  0.18423662  0.82038372  1
  O  O51  1  0.96368067  0.31576338  0.32038372  1
  O  O52  1  0.54110068  0.66930365  0.13845628  1
  O  O53  1  0.04110068  0.83069635  0.63845628  1
  O  O54  1  0.45889932  0.33069635  0.86154372  1
  O  O55  1  0.95889932  0.16930365  0.36154372  1
  O  O56  1  0.68145601  0.74918085  0.15811958  1
  O  O57  1  0.18145601  0.75081915  0.65811958  1
  O  O58  1  0.31854399  0.25081915  0.84188042  1
  O  O59  1  0.81854399  0.24918085  0.34188042  1
  O  O60  1  0.57544132  0.76880106  0.00537388  1
  O  O61  1  0.07544132  0.73119894  0.50537388  1
  O  O62  1  0.42455868  0.23119894  0.99462612  1
  O  O63  1  0.92455868  0.26880106  0.49462612  1
  O  O64  1  0.27868116  0.61599442  0.20757519  1
  O  O65  1  0.77868116  0.88400558  0.70757519  1
  O  O66  1  0.72131884  0.38400558  0.79242481  1
  O  O67  1  0.22131884  0.11599442  0.29242481  1
  O  O68  1  0.20079811  0.65615025  0.03962794  1
  O  O69  1  0.70079811  0.84384975  0.53962794  1
  O  O70  1  0.79920189  0.34384975  0.96037206  1
  O  O71  1  0.29920189  0.15615025  0.46037206  1
  O  O72  1  0.17783269  0.52127552  0.10539685  1
  O  O73  1  0.67783269  0.97872448  0.60539685  1
  O  O74  1  0.82216731  0.47872448  0.89460315  1
  O  O75  1  0.32216731  0.02127552  0.39460315  1
  O  O76  1  0.11755858  0.63917707  0.19769735  1
  O  O77  1  0.61755858  0.86082293  0.69769735  1
  O  O78  1  0.88244142  0.36082293  0.80230265  1
  O  O79  1  0.38244142  0.13917707  0.30230265  1
  O  O80  1  0.38791435  0.57547758  0.03834130  1
  O  O81  1  0.88791435  0.92452242  0.53834130  1
  O  O82  1  0.61208565  0.42452242  0.96165870  1
  O  O83  1  0.11208565  0.07547758  0.46165870  1
  O  O84  1  0.34474632  0.67043127  0.89620972  1
  O  O85  1  0.84474632  0.82956873  0.39620972  1
  O  O86  1  0.65525368  0.32956873  0.10379028  1
  O  O87  1  0.15525368  0.17043127  0.60379028  1
  O  O88  1  0.33392603  0.52320823  0.86939706  1
  O  O89  1  0.83392603  0.97679177  0.36939706  1
  O  O90  1  0.66607397  0.47679177  0.13060294  1
  O  O91  1  0.16607397  0.02320823  0.63060294  1
  O  O92  1  0.48287995  0.59272248  0.88839425  1
  O  O93  1  0.98287995  0.90727752  0.38839425  1
  O  O94  1  0.51712005  0.40727752  0.11160575  1
  O  O95  1  0.01712005  0.09272248  0.61160575  1
  O  O96  1  0.36320628  0.75445907  0.10609987  1
  O  O97  1  0.86320628  0.74554093  0.60609987  1
  O  O98  1  0.63679372  0.24554093  0.89390013  1
  O  O99  1  0.13679372  0.25445907  0.39390013  1
  O  O100  1  0.17907231  0.74544798  0.86407638  1
  O  O101  1  0.67907231  0.75455202  0.36407638  1
  O  O102  1  0.82092769  0.25455202  0.13592362  1
  O  O103  1  0.32092769  0.24544798  0.63592362  1
  O  O104  1  0.44726444  0.95008566  0.23761655  1
  O  O105  1  0.94726444  0.54991434  0.73761655  1
  O  O106  1  0.55273556  0.04991434  0.76238345  1
  O  O107  1  0.05273556  0.45008566  0.26238345  1
  O  O108  1  0.44971063  0.53797732  0.23034461  1
  O  O109  1  0.94971063  0.96202268  0.73034461  1
  O  O110  1  0.55028937  0.46202268  0.76965539  1
  O  O111  1  0.05028937  0.03797732  0.26965539  1
  O  O112  1  0.83411525  0.64620799  0.11873741  1
  O  O113  1  0.33411525  0.85379201  0.61873741  1
  O  O114  1  0.16588475  0.35379201  0.88126259  1
  O  O115  1  0.66588475  0.14620799  0.38126259  1
  O  O116  1  0.34086192  0.63716586  0.61322741  1
  O  O117  1  0.84086192  0.86283414  0.11322741  1
  O  O118  1  0.65913808  0.36283414  0.38677259  1
  O  O119  1  0.15913808  0.13716586  0.88677259  1
loop_
_geom_bond_atom_site_label_1
_geom_bond_atom_site_label_2
_geom_bond_distance
_geom_bond_site_symmetry_2
Fe0 O96 1.975770 1_556
Fe0 O100 2.006434 1_555
Fe0 O68 2.018404 1_556
Fe0 O0 2.027487 1_556
Fe0 O16 2.035940 1_555
Fe0 O84 2.056473 1_555
Fe1 O97 1.975770 1_555
Fe1 O101 2.006434 1_555
Fe1 O69 2.018404 1_555
Fe1 O1 2.027487 1_555
Fe1 O17 2.035940 1_555
Fe1 O85 2.056473 1_555
Fe2 O98 1.975770 1_554
Fe2 O102 2.006434 1_555
Fe2 O70 2.018404 1_554
Fe2 O2 2.027487 1_554
Fe2 O18 2.035940 1_555
Fe2 O86 2.056473 1_555
Fe3 O99 1.975770 1_555
Fe3 O103 2.006434 1_555
Fe3 O71 2.018404 1_555
Fe3 O3 2.027487 1_555
Fe3 O19 2.035940 1_555
Fe3 O87 2.056473 1_555
Fe4 O104 1.858661 1_555
Fe4 O96 1.927890 1_555
Fe4 O32 2.031331 1_555
Fe4 O20 2.036643 1_555
Fe4 O48 2.065969 1_555
Fe4 O4 2.065972 1_555
Fe5 O105 1.858661 1_555
Fe5 O97 1.927890 1_555
Fe5 O33 2.031331 1_555
Fe5 O21 2.036643 1_555
Fe5 O49 2.065969 1_655
Fe5 O5 2.065972 1_555
Fe6 O106 1.858661 1_555
Fe6 O98 1.927890 1_555
Fe6 O34 2.031331 1_555
Fe6 O22 2.036643 1_555
Fe6 O50 2.065969 1_555
Fe6 O6 2.065972 1_555
Fe7 O107 1.858661 1_555
Fe7 O99 1.927890 1_555
Fe7 O35 2.031331 1_555
Fe7 O23 2.036643 1_555
Fe7 O51 2.065969 1_455
Fe7 O7 2.065972 1_555
Fe8 O96 2.012788 1_555
Fe8 O108 2.033705 1_555
Fe8 O80 2.046632 1_555
Fe8 O64 2.047504 1_555
Fe8 O52 2.053470 1_555
Fe8 O36 2.070523 1_555
Fe9 O97 2.012788 1_555
Fe9 O109 2.033705 1_555
Fe9 O81 2.046632 1_555
Fe9 O65 2.047504 1_555
Fe9 O53 2.053470 1_655
Fe9 O37 2.070523 1_555
Fe10 O98 2.012788 1_555
Fe10 O110 2.033705 1_555
Fe10 O82 2.046632 1_555
Fe10 O66 2.047504 1_555
Fe10 O54 2.053470 1_555
Fe10 O38 2.070523 1_555
Fe11 O99 2.012788 1_555
Fe11 O111 2.033705 1_555
Fe11 O83 2.046632 1_555
Fe11 O67 2.047504 1_555
Fe11 O55 2.053470 1_455
Fe11 O39 2.070523 1_555
O0 S0 1.516076 1_555
O0 Rb13 3.083787 1_554
O1 S1 1.516076 1_555
O1 Rb12 3.083787 1_555
O2 S2 1.516076 1_555
O2 Rb15 3.083787 1_556
O3 S3 1.516076 1_555
O3 Rb14 3.083787 1_555
O4 S0 1.514505 1_555
O4 Rb6 3.108254 1_565
O5 S1 1.514505 1_555
O5 Rb7 3.108254 1_555
O6 S2 1.514505 1_555
O6 Rb4 3.108254 1_545
O7 S3 1.514505 1_555
O7 Rb5 3.108254 1_555
O8 S0 1.471098 1_555
O8 Rb13 3.235955 1_554
O8 Rb6 3.351026 1_565
O9 S1 1.471098 1_555
O9 Rb12 3.235955 1_555
O9 Rb7 3.351026 1_555
O10 S2 1.471098 1_555
O10 Rb15 3.235955 1_556
O10 Rb4 3.351026 1_545
O11 S3 1.471098 1_555
O11 Rb14 3.235955 1_555
O11 Rb5 3.351026 1_555
O12 S0 1.463999 1_555
O12 Rb9 2.928170 1_555
O12 Rb1 2.983733 1_455
O13 S1 1.463999 1_555
O13 Rb8 2.928170 1_555
O13 Rb0 2.983733 1_555
O14 S2 1.463999 1_555
O14 Rb11 2.928170 1_555
O14 Rb3 2.983733 1_655
O15 S3 1.463999 1_555
O15 Rb10 2.928170 1_555
O15 Rb2 2.983733 1_555
O16 S4 1.514875 1_555
O16 Rb0 3.286123 1_555
O16 Rb13 3.488139 1_555
O17 S5 1.514875 1_555
O17 Rb1 3.286123 1_555
O17 Rb12 3.488139 1_555
O18 S6 1.514875 1_555
O18 Rb2 3.286123 1_555
O18 Rb15 3.488139 1_555
O19 S7 1.514875 1_555
O19 Rb3 3.286123 1_555
O19 Rb14 3.488139 1_555
O20 S4 1.512573 1_554
O21 S5 1.512573 1_555
O22 S6 1.512573 1_556
O23 S7 1.512573 1_555
O24 S4 1.474196 1_555
O24 Rb6 2.975652 1_566
O24 Rb13 3.138786 1_555
O24 Rb18 3.412049 1_565
O25 S5 1.474196 1_555
O25 Rb7 2.975652 1_555
O25 Rb12 3.138786 1_555
O25 Rb19 3.412049 1_555
O26 S6 1.474196 1_555
O26 Rb4 2.975652 1_544
O26 Rb15 3.138786 1_555
O26 Rb16 3.412049 1_545
O27 S7 1.474196 1_555
O27 Rb5 2.975652 1_555
O27 Rb14 3.138786 1_555
O27 Rb17 3.412049 1_555
O28 S4 1.464339 1_555
O28 Rb0 3.015320 1_555
O28 Rb4 3.341067 1_555
O29 S5 1.464339 1_555
O29 Rb1 3.015320 1_555
O29 Rb5 3.341067 1_655
O30 S6 1.464339 1_555
O30 Rb2 3.015320 1_555
O30 Rb6 3.341067 1_555
O31 S7 1.464339 1_555
O31 Rb3 3.015320 1_555
O31 Rb7 3.341067 1_455
O32 S8 1.527647 1_555
O32 Rb9 3.405967 1_555
O33 S9 1.527647 1_555
O33 Rb8 3.405967 1_555
O34 S10 1.527647 1_555
O34 Rb11 3.405967 1_555
O35 S11 1.527647 1_555
O35 Rb10 3.405967 1_555
O36 S8 1.508256 1_555
O36 Rb12 3.356427 1_555
O37 S9 1.508256 1_555
O37 Rb13 3.356427 1_655
O38 S10 1.508256 1_555
O38 Rb14 3.356427 1_555
O39 S11 1.508256 1_555
O39 Rb15 3.356427 1_455
O40 S8 1.451251 1_555
O40 Rb16 3.370149 1_555
O41 S9 1.451251 1_555
O41 Rb17 3.370149 1_655
O42 S10 1.451251 1_555
O42 Rb18 3.370149 1_555
O43 S11 1.451251 1_555
O43 Rb19 3.370149 1_455
O44 S8 1.496084 1_555
O44 Rb5 3.119141 1_555
O44 Rb9 3.418896 1_555
O45 S9 1.496084 1_555
O45 Rb4 3.119141 1_555
O45 Rb8 3.418896 1_555
O46 S10 1.496084 1_555
O46 Rb7 3.119141 1_555
O46 Rb11 3.418896 1_555
O47 S11 1.496084 1_555
O47 Rb6 3.119141 1_555
O47 Rb10 3.418896 1_555
O48 S12 1.515916 1_555
O48 Rb16 3.096253 1_555
O49 S13 1.515916 1_555
O49 Rb17 3.096253 1_555
O50 S14 1.515916 1_555
O50 Rb18 3.096253 1_555
O51 S15 1.515916 1_555
O51 Rb19 3.096253 1_555
O52 S12 1.515406 1_555
O52 Rb12 3.236629 1_555
O53 S13 1.515406 1_555
O53 Rb13 3.236629 1_555
O54 S14 1.515406 1_555
O54 Rb14 3.236629 1_555
O55 S15 1.515406 1_555
O55 Rb15 3.236629 1_555
O56 S12 1.479893 1_555
O57 S13 1.479893 1_555
O58 S14 1.479893 1_555
O59 S15 1.479893 1_555
O60 S12 1.467956 1_555
O60 Rb4 3.015109 1_554
O60 Rb8 3.264933 1_554
O60 Rb0 3.601992 1_554
O61 S13 1.467956 1_555
O61 Rb5 3.015109 1_555
O61 Rb9 3.264933 1_555
O61 Rb1 3.601992 1_455
O62 S14 1.467956 1_555
O62 Rb6 3.015109 1_556
O62 Rb10 3.264933 1_556
O62 Rb2 3.601992 1_556
O63 S15 1.467956 1_555
O63 Rb7 3.015109 1_555
O63 Rb11 3.264933 1_555
O63 Rb3 3.601992 1_655
O64 S16 1.529057 1_555
O64 Rb5 3.140136 1_555
O65 S17 1.529057 1_555
O65 Rb4 3.140136 1_555
O66 S18 1.529057 1_555
O66 Rb7 3.140136 1_555
O67 S19 1.529057 1_555
O67 Rb6 3.140136 1_555
O68 S16 1.514298 1_555
O68 Rb17 3.075880 1_554
O69 S17 1.514298 1_555
O69 Rb16 3.075880 1_555
O70 S18 1.514298 1_555
O70 Rb19 3.075880 1_556
O71 S19 1.514298 1_555
O71 Rb18 3.075880 1_555
O72 S16 1.463061 1_555
O72 Rb10 2.947722 1_555
O72 Rb17 3.485532 1_554
O73 S17 1.463061 1_555
O73 Rb11 2.947722 1_565
O73 Rb16 3.485532 1_555
O74 S18 1.463061 1_555
O74 Rb8 2.947722 1_555
O74 Rb19 3.485532 1_556
O75 S19 1.463061 1_555
O75 Rb9 2.947722 1_545
O75 Rb18 3.485532 1_555
O76 S16 1.455091 1_555
O76 Rb1 2.866283 1_455
O76 Rb5 3.109901 1_555
O77 S17 1.455091 1_555
O77 Rb0 2.866283 1_555
O77 Rb4 3.109901 1_555
O78 S18 1.455091 1_555
O78 Rb3 2.866283 1_655
O78 Rb7 3.109901 1_555
O79 S19 1.455091 1_555
O79 Rb2 2.866283 1_555
O79 Rb6 3.109901 1_555
O80 S20 1.517643 1_554
O80 Rb10 3.194622 1_555
O81 S21 1.517643 1_555
O81 Rb11 3.194622 1_565
O82 S22 1.517643 1_556
O82 Rb8 3.194622 1_555
O83 S23 1.517643 1_555
O83 Rb9 3.194622 1_545
O84 S20 1.521982 1_555
O84 Rb0 3.105982 1_555
O85 S21 1.521982 1_555
O85 Rb1 3.105982 1_555
O86 S22 1.521982 1_555
O86 Rb2 3.105982 1_555
O87 S23 1.521982 1_555
O87 Rb3 3.105982 1_555
O88 S20 1.472281 1_555
O88 Rb17 3.085374 1_555
O88 Rb14 3.147195 1_555
O88 Rb10 3.294582 1_556
O89 S21 1.472281 1_555
O89 Rb16 3.085374 1_555
O89 Rb15 3.147195 1_565
O89 Rb11 3.294582 1_565
O90 S22 1.472281 1_555
O90 Rb19 3.085374 1_555
O90 Rb12 3.147195 1_555
O90 Rb8 3.294582 1_554
O91 S23 1.472281 1_555
O91 Rb18 3.085374 1_555
O91 Rb13 3.147195 1_545
O91 Rb9 3.294582 1_545
O92 S20 1.454569 1_555
O92 Rb8 3.032469 1_555
O92 Rb0 3.143073 1_555
O93 S21 1.454569 1_555
O93 Rb9 3.032469 1_655
O93 Rb1 3.143073 1_555
O94 S22 1.454569 1_555
O94 Rb10 3.032469 1_555
O94 Rb2 3.143073 1_555
O95 S23 1.454569 1_555
O95 Rb11 3.032469 1_455
O95 Rb3 3.143073 1_555
O100 Rb17 3.053612 1_555
O100 Rb13 3.128779 1_555
O101 Rb16 3.053612 1_555
O101 Rb12 3.128779 1_555
O102 Rb19 3.053612 1_555
O102 Rb15 3.128779 1_555
O103 Rb18 3.053612 1_555
O103 Rb14 3.128779 1_555
O104 Rb16 2.903118 1_555
O105 Rb17 2.903118 1_655
O106 Rb18 2.903118 1_555
O107 Rb19 2.903118 1_455
O108 Rb12 2.925962 1_555
O109 Rb13 2.925962 1_655
O110 Rb14 2.925962 1_555
O111 Rb15 2.925962 1_455
O112 Rb1 3.067183 1_555
O112 Rb8 3.133809 1_554
O112 Rb19 3.516164 1_555
O113 Rb0 3.067183 1_555
O113 Rb9 3.133809 1_555
O113 Rb18 3.516164 1_565
O114 Rb3 3.067183 1_555
O114 Rb10 3.133809 1_556
O114 Rb17 3.516164 1_555
O115 Rb2 3.067183 1_555
O115 Rb11 3.133809 1_555
O115 Rb16 3.516164 1_545
O116 Rb0 3.080424 1_555
O116 Rb5 3.230045 1_555
O116 Rb14 3.448714 1_555
O117 Rb1 3.080424 1_555
O117 Rb4 3.230045 1_554
O117 Rb15 3.448714 1_565
O118 Rb2 3.080424 1_555
O118 Rb7 3.230045 1_555
O118 Rb12 3.448714 1_555
O119 Rb3 3.080424 1_555
O119 Rb6 3.230045 1_556
O119 Rb13 3.448714 1_545
