# generated using pymatgen
data_MnSO6
_symmetry_space_group_name_H-M   'P 1'
_cell_length_a   5.96120700
_cell_length_b   9.81480800
_cell_length_c   10.72917500
_cell_angle_alpha   90.00000000
_cell_angle_beta   90.00000000
_cell_angle_gamma   90.00000000
_symmetry_Int_Tables_number   1
_chemical_formula_structural   MnSO6
_chemical_formula_sum   'Mn4 S4 O24'
_cell_volume   627.74366692
_cell_formula_units_Z   4
loop_
 _symmetry_equiv_pos_site_id
 _symmetry_equiv_pos_as_xyz
  1  'x, y, z'
loop_
 _atom_site_type_symbol
 _atom_site_label
 _atom_site_symmetry_multiplicity
 _atom_site_fract_x
 _atom_site_fract_y
 _atom_site_fract_z
 _atom_site_occupancy
  Mn  Mn0  1  0.25000000  0.44356200  0.82024300  1
  Mn  Mn1  1  0.25000000  0.05643800  0.32024300  1
  Mn  Mn2  1  0.75000000  0.55643800  0.17975700  1
  Mn  Mn3  1  0.75000000  0.94356200  0.67975700  1
  S  S0  1  0.75000000  0.36130600  0.54488400  1
  S  S1  1  0.75000000  0.13869400  0.04488400  1
  S  S2  1  0.25000000  0.63869400  0.45511600  1
  S  S3  1  0.25000000  0.86130600  0.95511600  1
  O  O0  1  0.75000000  0.39656700  0.41507400  1
  O  O1  1  0.75000000  0.10343300  0.91507400  1
  O  O2  1  0.25000000  0.60343300  0.58492600  1
  O  O3  1  0.25000000  0.89656700  0.08492600  1
  O  O4  1  0.54092500  0.34401600  0.60948100  1
  O  O5  1  0.95907500  0.15598400  0.10948100  1
  O  O6  1  0.04092500  0.65598400  0.39051900  1
  O  O7  1  0.45907500  0.84401600  0.89051900  1
  O  O8  1  0.45907500  0.65598400  0.39051900  1
  O  O9  1  0.04092500  0.84401600  0.89051900  1
  O  O10  1  0.95907500  0.34401600  0.60948100  1
  O  O11  1  0.54092500  0.15598400  0.10948100  1
  O  O12  1  0.75000000  0.71553700  0.14458200  1
  O  O13  1  0.75000000  0.78446300  0.64458200  1
  O  O14  1  0.25000000  0.28446300  0.85541800  1
  O  O15  1  0.25000000  0.21553700  0.35541800  1
  O  O16  1  0.47799700  0.52547100  0.84844000  1
  O  O17  1  0.02200300  0.97452900  0.34844000  1
  O  O18  1  0.97799700  0.47452900  0.15156000  1
  O  O19  1  0.52200300  0.02547100  0.65156000  1
  O  O20  1  0.52200300  0.47452900  0.15156000  1
  O  O21  1  0.97799700  0.02547100  0.65156000  1
  O  O22  1  0.02200300  0.52547100  0.84844000  1
  O  O23  1  0.47799700  0.97452900  0.34844000  1
loop_
_geom_bond_atom_site_label_1
_geom_bond_atom_site_label_2
_geom_bond_distance
_geom_bond_site_symmetry_2
Mn0 O14 1.606485 1_555
Mn0 O16 1.607815 1_555
Mn0 O22 1.607815 1_555
Mn1 O15 1.606485 1_555
Mn1 O23 1.607815 1_545
Mn1 O17 1.607815 1_545
Mn2 O12 1.606485 1_555
Mn2 O18 1.607815 1_555
Mn2 O20 1.607815 1_555
Mn3 O13 1.606485 1_555
Mn3 O19 1.607815 1_565
Mn3 O21 1.607815 1_565
O0 S0 1.435108 1_555
O1 S1 1.435108 1_556
O2 S2 1.435108 1_555
O3 S3 1.435108 1_554
O4 S0 1.436144 1_555
O5 S1 1.436144 1_555
O6 S2 1.436144 1_555
O7 S3 1.436144 1_555
O8 S2 1.436144 1_555
O9 S3 1.436144 1_555
O10 S0 1.436144 1_555
O11 S1 1.436144 1_555
