# generated using pymatgen
data_Cs2NaAsO4
_symmetry_space_group_name_H-M   'P 1'
_cell_length_a   6.27763900
_cell_length_b   6.17929500
_cell_length_c   8.41885796
_cell_angle_alpha   87.49983260
_cell_angle_beta   90.00000000
_cell_angle_gamma   90.00000000
_symmetry_Int_Tables_number   1
_chemical_formula_structural   Cs2NaAsO4
_chemical_formula_sum   'Cs4 Na2 As2 O8'
_cell_volume   326.26827335
_cell_formula_units_Z   2
loop_
 _symmetry_equiv_pos_site_id
 _symmetry_equiv_pos_as_xyz
  1  'x, y, z'
loop_
 _atom_site_type_symbol
 _atom_site_label
 _atom_site_symmetry_multiplicity
 _atom_site_fract_x
 _atom_site_fract_y
 _atom_site_fract_z
 _atom_site_occupancy
  Cs  Cs0  1  0.25000000  0.16091900  0.81438100  1
  Cs  Cs1  1  0.75000000  0.83908100  0.18561900  1
  Cs  Cs2  1  0.25000000  0.70448000  0.50936000  1
  Cs  Cs3  1  0.75000000  0.29552000  0.49064000  1
  Na  Na0  1  0.75000000  0.36149300  0.97608700  1
  Na  Na1  1  0.25000000  0.63850700  0.02391300  1
  As  As0  1  0.25000000  0.21245600  0.23999100  1
  As  As1  1  0.75000000  0.78754400  0.76000900  1
  O  O0  1  0.97164800  0.64840300  0.83388200  1
  O  O1  1  0.47164800  0.35159700  0.16611800  1
  O  O2  1  0.02835200  0.35159700  0.16611800  1
  O  O3  1  0.52835200  0.64840300  0.83388200  1
  O  O4  1  0.75000000  0.04986800  0.82553200  1
  O  O5  1  0.75000000  0.79291600  0.55450100  1
  O  O6  1  0.25000000  0.95013200  0.17446800  1
  O  O7  1  0.25000000  0.20708400  0.44549900  1
loop_
_geom_bond_atom_site_label_1
_geom_bond_atom_site_label_2
_geom_bond_distance
_geom_bond_site_symmetry_2
Cs0 O7 3.106223 1_555
Cs0 O4 3.213452 1_455
Cs0 O4 3.213452 1_555
Cs0 O6 3.246871 1_546
Cs0 O0 3.492489 1_455
Cs0 O3 3.492489 1_555
Cs0 O1 3.521023 1_556
Cs0 O2 3.521023 1_556
Cs0 O0 3.614524 1_445
Cs0 O3 3.614524 1_545
Cs1 O5 3.106223 1_555
Cs1 O6 3.213452 1_655
Cs1 O6 3.213452 1_555
Cs1 O4 3.246871 1_564
Cs1 O2 3.492489 1_655
Cs1 O1 3.492489 1_555
Cs1 O0 3.521023 1_554
Cs1 O3 3.521023 1_554
Cs1 O2 3.614524 1_665
Cs1 O1 3.614524 1_565
Cs2 O7 3.128736 1_565
Cs2 O6 3.143226 1_555
Cs2 O7 3.143242 1_555
Cs2 O5 3.211443 1_455
Cs2 O5 3.211443 1_555
Cs2 O0 3.248885 1_455
Cs2 O3 3.248885 1_555
Cs3 O5 3.128736 1_545
Cs3 O4 3.143226 1_555
Cs3 O5 3.143242 1_555
Cs3 O7 3.211443 1_555
Cs3 O7 3.211443 1_655
Cs3 O2 3.248885 1_655
Cs3 O1 3.248885 1_555
Na0 O4 2.351068 1_555
Na0 O2 2.368140 1_656
Na0 O1 2.368140 1_556
Na0 O3 2.515425 1_555
Na0 O0 2.515425 1_555
Na1 O6 2.351068 1_555
Na1 O0 2.368140 1_454
Na1 O3 2.368140 1_554
Na1 O1 2.515425 1_555
Na1 O2 2.515425 1_555
As0 O7 1.729013 1_555
As0 O6 1.734899 1_545
As0 O2 1.736505 1_555
As0 O1 1.736505 1_555
As1 O5 1.729013 1_555
As1 O4 1.734899 1_565
As1 O3 1.736505 1_555
As1 O0 1.736505 1_555
