# generated using pymatgen
data_NdGa3
_symmetry_space_group_name_H-M   'P 1'
_cell_length_a   6.46655808
_cell_length_b   6.46663920
_cell_length_c   4.51853525
_cell_angle_alpha   89.99963653
_cell_angle_beta   90.00014849
_cell_angle_gamma   119.99169130
_symmetry_Int_Tables_number   1
_chemical_formula_structural   NdGa3
_chemical_formula_sum   'Nd2 Ga6'
_cell_volume   163.65017490
_cell_formula_units_Z   2
loop_
 _symmetry_equiv_pos_site_id
 _symmetry_equiv_pos_as_xyz
  1  'x, y, z'
loop_
 _atom_site_type_symbol
 _atom_site_label
 _atom_site_symmetry_multiplicity
 _atom_site_fract_x
 _atom_site_fract_y
 _atom_site_fract_z
 _atom_site_occupancy
  Nd  Nd0  1  0.66663835  0.33336414  0.24999962  1
  Nd  Nd1  1  0.33336018  0.66663502  0.74999916  1
  Ga  Ga0  1  0.85981746  0.14018139  0.74999950  1
  Ga  Ga1  1  0.28026384  0.14010590  0.74999957  1
  Ga  Ga2  1  0.85989242  0.71975030  0.75000005  1
  Ga  Ga3  1  0.14018165  0.85981766  0.25000022  1
  Ga  Ga4  1  0.71973534  0.85989311  0.25000023  1
  Ga  Ga5  1  0.14010676  0.28025448  0.24999365  1
loop_
_geom_bond_atom_site_label_1
_geom_bond_atom_site_label_2
_geom_bond_distance
_geom_bond_site_symmetry_2
Ga0 Ga2 2.719019 1_545
Ga0 Ga1 2.719085 1_655
Ga0 Ga5 2.751086 1_656
Ga0 Ga4 2.751110 1_546
Ga0 Ga4 2.751120 1_545
Ga0 Ga5 2.751128 1_655
Ga0 Nd0 3.128182 1_555
Ga0 Nd0 3.128199 1_556
Ga0 Nd1 3.247244 1_655
Ga0 Nd1 3.247259 1_545
Ga1 Ga2 2.718663 1_445
Ga1 Ga5 2.751037 1_556
Ga1 Ga5 2.751068 1_555
Ga1 Ga3 2.751110 1_546
Ga1 Ga3 2.751120 1_545
Ga1 Nd0 3.128417 1_555
Ga1 Nd0 3.128419 1_556
Ga1 Nd1 3.246888 1_555
Ga1 Nd1 3.247043 1_545
Ga2 Ga4 2.751027 1_555
Ga2 Ga4 2.751041 1_556
Ga2 Ga3 2.751105 1_655
Ga2 Ga3 2.751108 1_656
Ga2 Nd0 3.128472 1_556
Ga2 Nd0 3.128493 1_555
Ga2 Nd1 3.246813 1_555
Ga2 Nd1 3.247058 1_655
Ga3 Ga5 2.719055 1_565
Ga3 Ga4 2.719084 1_455
Ga3 Nd1 3.128176 1_555
Ga3 Nd1 3.128199 1_554
Ga3 Nd0 3.247246 1_455
Ga3 Nd0 3.247258 1_565
Ga4 Ga5 2.718682 1_665
Ga4 Nd1 3.128416 1_555
Ga4 Nd1 3.128425 1_554
Ga4 Nd0 3.246886 1_555
Ga4 Nd0 3.247047 1_565
Ga5 Nd1 3.128433 1_554
Ga5 Nd1 3.128487 1_555
Ga5 Nd0 3.246824 1_555
Ga5 Nd0 3.247042 1_455
