# generated using pymatgen
data_Tm2MgGe2
_symmetry_space_group_name_H-M   'P 1'
_cell_length_a   7.15293438
_cell_length_b   7.15293438
_cell_length_c   4.16291197
_cell_angle_alpha   90.00000000
_cell_angle_beta   90.00000000
_cell_angle_gamma   90.00000000
_symmetry_Int_Tables_number   1
_chemical_formula_structural   Tm2MgGe2
_chemical_formula_sum   'Tm4 Mg2 Ge4'
_cell_volume   212.99318562
_cell_formula_units_Z   2
loop_
 _symmetry_equiv_pos_site_id
 _symmetry_equiv_pos_as_xyz
  1  'x, y, z'
loop_
 _atom_site_type_symbol
 _atom_site_label
 _atom_site_symmetry_multiplicity
 _atom_site_fract_x
 _atom_site_fract_y
 _atom_site_fract_z
 _atom_site_occupancy
  Tm  Tm0  1  0.32288960  0.17711040  0.50000100  1
  Tm  Tm1  1  0.82288960  0.32288960  0.50000100  1
  Tm  Tm2  1  0.17711040  0.67711040  0.50000100  1
  Tm  Tm3  1  0.67711040  0.82288960  0.50000100  1
  Mg  Mg0  1  0.00000000  -0.00000000  -0.00000000  1
  Mg  Mg1  1  0.50000100  0.50000100  0.00000000  1
  Ge  Ge0  1  0.62408675  0.12408775  0.00000000  1
  Ge  Ge1  1  0.12408775  0.37591325  0.00000000  1
  Ge  Ge2  1  0.87591225  0.62408675  0.00000000  1
  Ge  Ge3  1  0.37591325  0.87591225  0.00000000  1
loop_
_geom_bond_atom_site_label_1
_geom_bond_atom_site_label_2
_geom_bond_distance
_geom_bond_site_symmetry_2
Ge0 Ge3 2.510478 1_545
Ge0 Mg1 2.831587 1_555
Ge0 Mg0 2.831591 1_655
Ge0 Tm1 2.894257 1_554
Ge0 Tm1 2.894263 1_555
Ge0 Tm0 3.019588 1_554
Ge0 Tm0 3.019594 1_555
Ge0 Tm3 3.019594 1_544
Ge0 Tm3 3.019600 1_545
Ge1 Ge2 2.510478 1_455
Ge1 Mg0 2.831591 1_555
Ge1 Mg1 2.831591 1_555
Ge1 Tm0 2.894257 1_554
Ge1 Tm0 2.894263 1_555
Ge1 Tm2 3.019588 1_554
Ge1 Tm2 3.019594 1_555
Ge1 Tm1 3.019594 1_454
Ge1 Tm1 3.019600 1_455
Ge2 Mg1 2.831573 1_555
Ge2 Mg0 2.831591 1_665
Ge2 Tm3 2.894257 1_554
Ge2 Tm3 2.894263 1_555
Ge2 Tm1 3.019588 1_554
Ge2 Tm1 3.019594 1_555
Ge2 Tm2 3.019594 1_654
Ge2 Tm2 3.019600 1_655
Ge3 Mg1 2.831578 1_555
Ge3 Mg0 2.831591 1_565
Ge3 Tm2 2.894257 1_554
Ge3 Tm2 2.894263 1_555
Ge3 Tm3 3.019588 1_554
Ge3 Tm3 3.019594 1_555
Ge3 Tm0 3.019594 1_564
Ge3 Tm0 3.019600 1_565
