# generated using pymatgen
data_NaBe4SbO7
_symmetry_space_group_name_H-M   'P 1'
_cell_length_a   5.48765197
_cell_length_b   5.48765197
_cell_length_c   8.94442900
_cell_angle_alpha   90.00000000
_cell_angle_beta   90.00000000
_cell_angle_gamma   119.99999959
_symmetry_Int_Tables_number   1
_chemical_formula_structural   NaBe4SbO7
_chemical_formula_sum   'Na2 Be8 Sb2 O14'
_cell_volume   233.26864928
_cell_formula_units_Z   2
loop_
 _symmetry_equiv_pos_site_id
 _symmetry_equiv_pos_as_xyz
  1  'x, y, z'
loop_
 _atom_site_type_symbol
 _atom_site_label
 _atom_site_symmetry_multiplicity
 _atom_site_fract_x
 _atom_site_fract_y
 _atom_site_fract_z
 _atom_site_occupancy
  Na  Na0  1  0.66666700  0.33333300  0.12521200  1
  Na  Na1  1  0.33333300  0.66666700  0.62521200  1
  Be  Be0  1  0.83438100  0.16561900  0.81340400  1
  Be  Be1  1  0.66876100  0.83438100  0.31340400  1
  Be  Be2  1  0.16561900  0.33123900  0.31340400  1
  Be  Be3  1  0.16561900  0.83438100  0.31340400  1
  Be  Be4  1  0.00000000  0.00000000  0.06080300  1
  Be  Be5  1  0.00000000  0.00000000  0.56080300  1
  Be  Be6  1  0.33123900  0.16561900  0.81340400  1
  Be  Be7  1  0.83438100  0.66876100  0.81340400  1
  Sb  Sb0  1  0.66666700  0.33333300  0.50042000  1
  Sb  Sb1  1  0.33333300  0.66666700  0.00042000  1
  O  O0  1  0.83927200  0.67854400  0.62898500  1
  O  O1  1  0.00000000  0.00000000  0.37535400  1
  O  O2  1  0.00000000  0.00000000  0.87535400  1
  O  O3  1  0.16072800  0.32145600  0.12898500  1
  O  O4  1  0.67854400  0.83927200  0.12898500  1
  O  O5  1  0.83927200  0.16072800  0.62898500  1
  O  O6  1  0.49490500  0.50509500  0.37101600  1
  O  O7  1  0.98981000  0.49490500  0.87101600  1
  O  O8  1  0.50509500  0.01019000  0.87101600  1
  O  O9  1  0.49490500  0.98981000  0.37101600  1
  O  O10  1  0.01019000  0.50509500  0.37101600  1
  O  O11  1  0.50509500  0.49490500  0.87101600  1
  O  O12  1  0.16072800  0.83927200  0.12898500  1
  O  O13  1  0.32145600  0.16072800  0.62898500  1
loop_
_geom_bond_atom_site_label_1
_geom_bond_atom_site_label_2
_geom_bond_distance
_geom_bond_site_symmetry_2
Na0 O10 2.738437 1_655
Na0 O9 2.738437 1_545
Na0 O6 2.738440 1_555
Na0 O8 2.743695 1_554
Na0 O7 2.743695 1_554
Na0 O11 2.743698 1_554
Na0 O3 2.744611 1_655
Na0 O4 2.744611 1_545
Na0 O12 2.744614 1_655
Na0 O12 2.744614 1_545
Na0 O4 2.744617 1_555
Na0 O3 2.744617 1_555
Na1 O8 2.738437 1_565
Na1 O7 2.738437 1_455
Na1 O11 2.738440 1_555
Na1 O9 2.743695 1_555
Na1 O10 2.743695 1_555
Na1 O6 2.743698 1_555
Na1 O13 2.744611 1_565
Na1 O0 2.744611 1_455
Na1 O5 2.744614 1_565
Na1 O5 2.744614 1_455
Na1 O0 2.744617 1_555
Na1 O13 2.744617 1_555
Be0 O7 1.648349 1_555
Be0 O8 1.648349 1_555
Be0 O5 1.650178 1_555
Be0 O2 1.668865 1_655
Be1 O9 1.648344 1_555
Be1 O6 1.648348 1_555
Be1 O4 1.650178 1_555
Be1 O1 1.668870 1_665
Be2 O10 1.648344 1_555
Be2 O6 1.648348 1_555
Be2 O3 1.650178 1_555
Be2 O1 1.668870 1_555
Be3 O9 1.648349 1_555
Be3 O10 1.648349 1_555
Be3 O12 1.650178 1_555
Be3 O1 1.668865 1_565
Be4 O12 1.644929 1_545
Be4 O4 1.644929 1_445
Be4 O3 1.644929 1_555
Be4 O2 1.658735 1_554
Be5 O5 1.644929 1_455
Be5 O0 1.644929 1_445
Be5 O13 1.644929 1_555
Be5 O1 1.658735 1_555
Be6 O8 1.648344 1_555
Be6 O11 1.648348 1_555
Be6 O13 1.650178 1_555
Be6 O2 1.668870 1_555
Be7 O7 1.648344 1_555
Be7 O11 1.648348 1_555
Be7 O0 1.650178 1_555
Be7 O2 1.668870 1_665
O0 Sb0 2.003477 1_555
O3 Sb1 2.003477 1_555
O4 Sb1 2.003477 1_555
O5 Sb0 2.003473 1_555
O6 Sb0 2.001248 1_555
O7 Sb1 2.001244 1_656
O8 Sb1 2.001244 1_546
O9 Sb0 2.001244 1_565
O10 Sb0 2.001244 1_455
O11 Sb1 2.001248 1_556
O12 Sb1 2.003473 1_555
O13 Sb0 2.003477 1_555
