# generated using pymatgen
data_VTc2Ge
_symmetry_space_group_name_H-M   'P 1'
_cell_length_a   4.26544720
_cell_length_b   4.26544720
_cell_length_c   4.26544720
_cell_angle_alpha   60.00000000
_cell_angle_beta   60.00000000
_cell_angle_gamma   60.00000000
_symmetry_Int_Tables_number   1
_chemical_formula_structural   VTc2Ge
_chemical_formula_sum   'V1 Tc2 Ge1'
_cell_volume   54.87552818
_cell_formula_units_Z   1
loop_
 _symmetry_equiv_pos_site_id
 _symmetry_equiv_pos_as_xyz
  1  'x, y, z'
loop_
 _atom_site_type_symbol
 _atom_site_label
 _atom_site_symmetry_multiplicity
 _atom_site_fract_x
 _atom_site_fract_y
 _atom_site_fract_z
 _atom_site_occupancy
  V  V0  1  0.75000000  0.75000000  0.75000000  1
  Tc  Tc0  1  0.00000000  0.00000000  0.00000000  1
  Tc  Tc1  1  0.50000000  0.50000000  0.50000000  1
  Ge  Ge0  1  0.25000000  0.25000000  0.25000000  1
loop_
_geom_bond_atom_site_label_1
_geom_bond_atom_site_label_2
_geom_bond_distance
_geom_bond_site_symmetry_2
Tc0 V0 2.612042 1_454
Tc0 V0 2.612042 1_445
Tc0 V0 2.612042 1_444
Tc0 V0 2.612042 1_544
Tc1 V0 2.612042 1_545
Tc1 V0 2.612042 1_555
Tc1 V0 2.612042 1_455
Tc1 V0 2.612042 1_554
Ge0 Tc1 2.612042 1_555
Ge0 Tc1 2.612042 1_545
Ge0 Tc0 2.612042 1_555
Ge0 Tc0 2.612042 1_556
Ge0 Tc1 2.612042 1_455
Ge0 Tc1 2.612042 1_554
Ge0 Tc0 2.612042 1_565
Ge0 Tc0 2.612042 1_655
Ge0 V0 3.016127 1_445
Ge0 V0 3.016127 1_455
Ge0 V0 3.016127 1_544
Ge0 V0 3.016127 1_545
Ge0 V0 3.016127 1_454
Ge0 V0 3.016127 1_554
