# generated using pymatgen
data_Na4CrO3
_symmetry_space_group_name_H-M   'P 1'
_cell_length_a   6.40568481
_cell_length_b   6.40568481
_cell_length_c   8.26074941
_cell_angle_alpha   69.51986268
_cell_angle_beta   69.51986268
_cell_angle_gamma   54.22738963
_symmetry_Int_Tables_number   1
_chemical_formula_structural   Na4CrO3
_chemical_formula_sum   'Na8 Cr2 O6'
_cell_volume   252.87673789
_cell_formula_units_Z   2
loop_
 _symmetry_equiv_pos_site_id
 _symmetry_equiv_pos_as_xyz
  1  'x, y, z'
loop_
 _atom_site_type_symbol
 _atom_site_label
 _atom_site_symmetry_multiplicity
 _atom_site_fract_x
 _atom_site_fract_y
 _atom_site_fract_z
 _atom_site_occupancy
  Na  Na0  1  0.02903100  0.74348200  0.93720500  1
  Na  Na1  1  0.74348200  0.02903100  0.43720500  1
  Na  Na2  1  0.12668300  0.44013600  0.63801200  1
  Na  Na3  1  0.48496700  0.90917700  0.84429300  1
  Na  Na4  1  0.44013600  0.12668300  0.13801200  1
  Na  Na5  1  0.90917700  0.48496700  0.34429300  1
  Na  Na6  1  0.27830200  0.96555400  0.53210900  1
  Na  Na7  1  0.96555400  0.27830200  0.03210900  1
  Cr  Cr0  1  0.65369900  0.37762200  0.75091600  1
  Cr  Cr1  1  0.37762200  0.65369900  0.25091600  1
  O  O0  1  0.34998700  0.34526500  0.84964400  1
  O  O1  1  0.34526500  0.34998700  0.34964400  1
  O  O2  1  0.69369400  0.67997600  0.60559400  1
  O  O3  1  0.01559000  0.12171700  0.79459500  1
  O  O4  1  0.67997600  0.69369400  0.10559400  1
  O  O5  1  0.12171700  0.01559000  0.29459500  1
loop_
_geom_bond_atom_site_label_1
_geom_bond_atom_site_label_2
_geom_bond_distance
_geom_bond_site_symmetry_2
Na0 O3 2.257263 1_565
Na0 O0 2.318620 1_555
Na0 O4 2.320108 1_456
Na1 O5 2.257263 1_655
Na1 O1 2.318620 1_555
Na1 O2 2.320108 1_545
Na2 O2 2.318362 1_455
Na2 O0 2.337068 1_555
Na2 O3 2.355112 1_555
Na2 O1 2.377353 1_555
Na3 O2 2.391085 1_555
Na3 O0 2.405970 1_565
Na3 O4 2.431257 1_556
Na3 O3 2.597892 1_565
Na4 O4 2.318362 1_545
Na4 O1 2.337068 1_555
Na4 O5 2.355112 1_555
Na4 O0 2.377353 1_554
Na5 O4 2.391085 1_555
Na5 O1 2.405970 1_655
Na5 O2 2.431257 1_555
Na5 O5 2.597892 1_655
Na6 O2 2.336127 1_555
Na6 O5 2.349391 1_565
Na6 O3 2.351716 1_565
Na6 O1 2.589452 1_565
Na7 O4 2.336127 1_555
Na7 O3 2.349391 1_654
Na7 O5 2.351716 1_655
Na7 O0 2.589452 1_654
Cr0 O0 1.932840 1_555
Cr0 O3 1.979857 1_655
Cr0 O2 1.998953 1_555
Cr1 O1 1.932840 1_555
Cr1 O5 1.979857 1_565
Cr1 O4 1.998953 1_555
