# generated using pymatgen
data_Ca2SbAu
_symmetry_space_group_name_H-M   'P 1'
_cell_length_a   5.30573104
_cell_length_b   5.30573104
_cell_length_c   5.30573104
_cell_angle_alpha   60.00000000
_cell_angle_beta   60.00000000
_cell_angle_gamma   60.00000000
_symmetry_Int_Tables_number   1
_chemical_formula_structural   Ca2SbAu
_chemical_formula_sum   'Ca2 Sb1 Au1'
_cell_volume   105.61380645
_cell_formula_units_Z   1
loop_
 _symmetry_equiv_pos_site_id
 _symmetry_equiv_pos_as_xyz
  1  'x, y, z'
loop_
 _atom_site_type_symbol
 _atom_site_label
 _atom_site_symmetry_multiplicity
 _atom_site_fract_x
 _atom_site_fract_y
 _atom_site_fract_z
 _atom_site_occupancy
  Ca  Ca0  1  0.49999900  0.49999900  0.49999900  1
  Ca  Ca1  1  -0.00000000  -0.00000000  -0.00000000  1
  Sb  Sb0  1  0.74999900  0.74999900  0.74999900  1
  Au  Au0  1  0.25000000  0.25000000  0.25000000  1
loop_
_geom_bond_atom_site_label_1
_geom_bond_atom_site_label_2
_geom_bond_distance
_geom_bond_site_symmetry_2
Ca0 Sb0 3.249083 1_455
Ca0 Sb0 3.249083 1_545
Ca0 Sb0 3.249083 1_554
Ca0 Sb0 3.249083 1_555
Ca1 Sb0 3.249079 1_454
Ca1 Sb0 3.249079 1_544
Ca1 Sb0 3.249079 1_445
Ca1 Sb0 3.249096 1_444
Au0 Ca0 3.249070 1_555
Au0 Ca1 3.249083 1_556
Au0 Ca1 3.249083 1_565
Au0 Ca1 3.249083 1_555
Au0 Ca1 3.249083 1_655
Au0 Ca0 3.249088 1_554
Au0 Ca0 3.249088 1_545
Au0 Ca0 3.249088 1_455
