# generated using pymatgen
data_LiV2O3F
_symmetry_space_group_name_H-M   'P 1'
_cell_length_a   5.96929800
_cell_length_b   6.14769500
_cell_length_c   8.68551600
_cell_angle_alpha   90.00000000
_cell_angle_beta   90.00000000
_cell_angle_gamma   90.00000000
_symmetry_Int_Tables_number   1
_chemical_formula_structural   LiV2O3F
_chemical_formula_sum   'Li4 V8 O12 F4'
_cell_volume   318.73605869
_cell_formula_units_Z   4
loop_
 _symmetry_equiv_pos_site_id
 _symmetry_equiv_pos_as_xyz
  1  'x, y, z'
loop_
 _atom_site_type_symbol
 _atom_site_label
 _atom_site_symmetry_multiplicity
 _atom_site_fract_x
 _atom_site_fract_y
 _atom_site_fract_z
 _atom_site_occupancy
  Li  Li0  1  0.02170600  0.75000000  0.64282800  1
  Li  Li1  1  0.52170600  0.75000000  0.85717200  1
  Li  Li2  1  0.47829400  0.25000000  0.14282800  1
  Li  Li3  1  0.97829400  0.25000000  0.35717200  1
  V  V0  1  0.74337400  0.25000000  0.74049600  1
  V  V1  1  0.24337400  0.25000000  0.75950400  1
  V  V2  1  0.00000000  0.00000000  0.00000000  1
  V  V3  1  0.00000000  0.50000000  0.00000000  1
  V  V4  1  0.75662600  0.75000000  0.24049600  1
  V  V5  1  0.25662600  0.75000000  0.25950400  1
  V  V6  1  0.50000000  0.00000000  0.50000000  1
  V  V7  1  0.50000000  0.50000000  0.50000000  1
  O  O0  1  0.49163500  0.47053000  0.73112800  1
  O  O1  1  0.49163500  0.02947000  0.73112800  1
  O  O2  1  0.99163500  0.47053000  0.76887200  1
  O  O3  1  0.99163500  0.02947000  0.76887200  1
  O  O4  1  0.21642600  0.25000000  0.99694600  1
  O  O5  1  0.78357400  0.75000000  0.00305400  1
  O  O6  1  0.00836500  0.97053000  0.23112800  1
  O  O7  1  0.00836500  0.52947000  0.23112800  1
  O  O8  1  0.50836500  0.97053000  0.26887200  1
  O  O9  1  0.50836500  0.52947000  0.26887200  1
  O  O10  1  0.28357400  0.75000000  0.49694600  1
  O  O11  1  0.71642600  0.25000000  0.50305400  1
  F  F0  1  0.75336400  0.25000000  0.99732600  1
  F  F1  1  0.24663600  0.75000000  0.00267400  1
  F  F2  1  0.74663600  0.75000000  0.49732600  1
  F  F3  1  0.25336400  0.25000000  0.50267400  1
loop_
_geom_bond_atom_site_label_1
_geom_bond_atom_site_label_2
_geom_bond_distance
_geom_bond_site_symmetry_2
Li0 O10 2.012197 1_555
Li0 O2 2.045133 1_455
Li0 O3 2.045133 1_465
Li1 O5 2.012197 1_556
Li1 O0 2.045133 1_555
Li1 O1 2.045133 1_565
Li2 O4 2.012197 1_554
Li2 O8 2.045133 1_545
Li2 O9 2.045133 1_555
Li3 O11 2.012197 1_555
Li3 O6 2.045133 1_645
Li3 O7 2.045133 1_655
O0 V7 2.016243 1_555
O0 V1 2.023601 1_555
O0 V0 2.025538 1_555
O1 V6 2.016243 1_555
O1 V1 2.023601 1_555
O1 V0 2.025538 1_555
O2 V3 2.016243 1_656
O2 V0 2.023601 1_555
O2 V1 2.025538 1_655
O3 V2 2.016243 1_656
O3 V0 2.023601 1_555
O3 V1 2.025538 1_655
O4 V3 2.007952 1_556
O4 V2 2.007952 1_556
O4 V1 2.068570 1_555
O5 V2 2.007952 1_665
O5 V3 2.007952 1_655
O5 V4 2.068570 1_555
O6 V2 2.016243 1_565
O6 V5 2.023601 1_555
O6 V4 2.025538 1_455
O7 V3 2.016243 1_555
O7 V5 2.023601 1_555
O7 V4 2.025538 1_455
O8 V6 2.016243 1_565
O8 V4 2.023601 1_555
O8 V5 2.025538 1_555
O9 V7 2.016243 1_555
O9 V4 2.023601 1_555
O9 V5 2.025538 1_555
O10 V7 2.007952 1_555
O10 V6 2.007952 1_565
O10 V5 2.068570 1_555
O11 V7 2.007952 1_555
O11 V6 2.007952 1_555
O11 V0 2.068570 1_555
F0 Li2 2.071997 1_556
F0 V2 2.128421 1_656
F0 V3 2.128421 1_656
F0 V0 2.231498 1_555
F1 Li1 2.071997 1_554
F1 V3 2.128421 1_555
F1 V2 2.128421 1_565
F1 V5 2.231498 1_555
F2 Li0 2.071997 1_655
F2 V6 2.128421 1_565
F2 V7 2.128421 1_555
F2 V4 2.231498 1_555
F3 Li3 2.071997 1_455
F3 V7 2.128421 1_555
F3 V6 2.128421 1_555
F3 V1 2.231498 1_555
