# generated using pymatgen
data_LiMnPO4
_symmetry_space_group_name_H-M   'P 1'
_cell_length_a   5.17653087
_cell_length_b   10.45531282
_cell_length_c   5.88233302
_cell_angle_alpha   90.00760070
_cell_angle_beta   90.00232897
_cell_angle_gamma   93.81483256
_symmetry_Int_Tables_number   1
_chemical_formula_structural   LiMnPO4
_chemical_formula_sum   'Li4 Mn4 P4 O16'
_cell_volume   317.65968375
_cell_formula_units_Z   4
loop_
 _symmetry_equiv_pos_site_id
 _symmetry_equiv_pos_as_xyz
  1  'x, y, z'
loop_
 _atom_site_type_symbol
 _atom_site_label
 _atom_site_symmetry_multiplicity
 _atom_site_fract_x
 _atom_site_fract_y
 _atom_site_fract_z
 _atom_site_occupancy
  Li  Li0  1  0.21747000  0.97510700  0.65624200  1
  Li  Li1  1  0.28270800  0.52481500  0.15650500  1
  Li  Li2  1  0.71762200  0.47509300  0.84370800  1
  Li  Li3  1  0.78252700  0.02490500  0.34350300  1
  Mn  Mn0  1  0.28480100  0.82875100  0.10034800  1
  Mn  Mn1  1  0.78459600  0.32885000  0.39968800  1
  Mn  Mn2  1  0.21543800  0.67112500  0.60038600  1
  Mn  Mn3  1  0.71540700  0.17114600  0.89960400  1
  P  P0  1  0.24533000  0.38743200  0.67357500  1
  P  P1  1  0.25463400  0.11260100  0.17333700  1
  P  P2  1  0.74538000  0.88739700  0.82646400  1
  P  P3  1  0.75462400  0.61259100  0.32662300  1
  O  O0  1  0.00071900  0.81854500  0.79502600  1
  O  O1  1  0.50065300  0.31857800  0.70502900  1
  O  O2  1  0.49928800  0.68144300  0.29507000  1
  O  O3  1  0.99931200  0.18146500  0.20491900  1
  O  O4  1  0.00384800  0.69633800  0.26512100  1
  O  O5  1  0.50387500  0.19632900  0.23499100  1
  O  O6  1  0.49612400  0.80363400  0.76497000  1
  O  O7  1  0.99604100  0.30370100  0.73503300  1
  O  O8  1  0.21084700  0.42817000  0.42405800  1
  O  O9  1  0.28911600  0.07202100  0.92373300  1
  O  O10  1  0.71083500  0.92812400  0.07599300  1
  O  O11  1  0.78900600  0.57191700  0.57617300  1
  O  O12  1  0.26846500  0.51033100  0.82752300  1
  O  O13  1  0.23142100  0.98964400  0.32710000  1
  O  O14  1  0.76853000  0.01028300  0.67254300  1
  O  O15  1  0.73138400  0.48966100  0.17273400  1
loop_
_geom_bond_atom_site_label_1
_geom_bond_atom_site_label_2
_geom_bond_distance
_geom_bond_site_symmetry_2
Li0 O9 1.894622 1_565
Li0 O13 1.943069 1_555
Li0 O0 2.088273 1_555
Li0 O14 2.378853 1_465
Li0 O6 2.459316 1_555
Li1 O8 1.893887 1_555
Li1 O12 1.942092 1_554
Li1 O2 2.087652 1_555
Li1 O15 2.377433 1_555
Li1 O4 2.460130 1_555
Li2 O11 1.894378 1_555
Li2 O15 1.942336 1_556
Li2 O1 2.088007 1_555
Li2 O12 2.380074 1_555
Li2 O7 2.457719 1_555
Li3 O10 1.894028 1_545
Li3 O14 1.942546 1_555
Li3 O3 2.087883 1_555
Li3 O13 2.378838 1_645
Li3 O5 2.458586 1_555
Mn0 O4 2.168821 1_555
Mn0 O13 2.178646 1_555
Mn0 O2 2.268198 1_555
Mn0 O6 2.279440 1_554
Mn0 O0 2.319142 1_554
Mn0 O10 2.378835 1_555
Mn1 O5 2.168321 1_555
Mn1 O15 2.178809 1_555
Mn1 O3 2.269384 1_555
Mn1 O7 2.279613 1_555
Mn1 O1 2.318892 1_555
Mn1 O8 2.379615 1_655
Mn2 O6 2.167835 1_555
Mn2 O12 2.179161 1_555
Mn2 O0 2.269270 1_555
Mn2 O4 2.279670 1_555
Mn2 O2 2.318477 1_555
Mn2 O11 2.379962 1_455
Mn3 O7 2.168135 1_555
Mn3 O14 2.179278 1_555
Mn3 O1 2.269424 1_555
Mn3 O5 2.280115 1_556
Mn3 O3 2.318537 1_556
Mn3 O9 2.378980 1_555
O0 P2 1.557589 1_455
O1 P0 1.557548 1_555
O2 P3 1.557665 1_555
O3 P1 1.557677 1_655
O4 P3 1.552986 1_455
O5 P1 1.553085 1_555
O6 P2 1.553113 1_555
O7 P0 1.553108 1_655
O8 P0 1.542014 1_555
O9 P1 1.541939 1_556
O10 P2 1.541998 1_554
O11 P3 1.541939 1_555
O12 P0 1.569937 1_555
O13 P1 1.570014 1_565
O14 P2 1.569939 1_545
O15 P3 1.570012 1_555
