# generated using pymatgen
data_AcAl3
_symmetry_space_group_name_H-M   'P 1'
_cell_length_a   6.98068341
_cell_length_b   6.98069108
_cell_length_c   4.65158360
_cell_angle_alpha   90.00000000
_cell_angle_beta   90.00000000
_cell_angle_gamma   120.00003833
_symmetry_Int_Tables_number   1
_chemical_formula_structural   AcAl3
_chemical_formula_sum   'Ac2 Al6'
_cell_volume   196.30332515
_cell_formula_units_Z   2
loop_
 _symmetry_equiv_pos_site_id
 _symmetry_equiv_pos_as_xyz
  1  'x, y, z'
loop_
 _atom_site_type_symbol
 _atom_site_label
 _atom_site_symmetry_multiplicity
 _atom_site_fract_x
 _atom_site_fract_y
 _atom_site_fract_z
 _atom_site_occupancy
  Ac  Ac0  1  0.33333400  0.66666600  0.75000100  1
  Ac  Ac1  1  0.66666700  0.33333300  0.25000000  1
  Al  Al0  1  0.12916554  0.25833007  0.25000000  1
  Al  Al1  1  0.74166893  0.87083346  0.25000000  1
  Al  Al2  1  0.12916554  0.87083346  0.25000000  1
  Al  Al3  1  0.87083446  0.74166793  0.75000100  1
  Al  Al4  1  0.25833107  0.12916454  0.75000100  1
  Al  Al5  1  0.87083446  0.12916454  0.75000100  1
loop_
_geom_bond_atom_site_label_1
_geom_bond_atom_site_label_2
_geom_bond_distance
_geom_bond_site_symmetry_2
Ac0 Al1 3.391623 1_556
Ac0 Al0 3.391630 1_556
Ac0 Al1 3.391630 1_555
Ac0 Al2 3.391630 1_556
Ac0 Al0 3.391636 1_555
Ac0 Al2 3.391636 1_555
Ac0 Al5 3.519666 1_565
Ac0 Al3 3.519666 1_555
Ac0 Al5 3.519674 1_455
Ac0 Al3 3.519674 1_455
Ac0 Al4 3.519674 1_555
Ac0 Al4 3.519674 1_565
Ac1 Al3 3.391625 1_554
Ac1 Al4 3.391628 1_554
Ac1 Al5 3.391630 1_554
Ac1 Al3 3.391632 1_555
Ac1 Al4 3.391634 1_555
Ac1 Al5 3.391636 1_555
Ac1 Al2 3.519667 1_655
Ac1 Al0 3.519670 1_555
Ac1 Al1 3.519670 1_555
Ac1 Al0 3.519671 1_655
Ac1 Al2 3.519673 1_545
Ac1 Al1 3.519677 1_545
Al0 Al1 2.704991 1_445
Al0 Al2 2.704994 1_545
Al0 Al5 2.801478 1_454
Al0 Al4 2.801478 1_554
Al0 Al5 2.801485 1_455
Al0 Al4 2.801486 1_555
Al1 Al2 2.704991 1_655
Al1 Al3 2.801478 1_554
Al1 Al5 2.801479 1_564
Al1 Al3 2.801486 1_555
Al1 Al5 2.801486 1_565
Al2 Al3 2.801478 1_454
Al2 Al4 2.801479 1_564
Al2 Al3 2.801485 1_455
Al2 Al4 2.801486 1_565
Al3 Al4 2.704991 1_665
Al3 Al5 2.704994 1_565
Al4 Al5 2.704991 1_455
