# generated using pymatgen
data_PmZn2Au
_symmetry_space_group_name_H-M   'P 1'
_cell_length_a   4.72913872
_cell_length_b   4.72913872
_cell_length_c   4.72913872
_cell_angle_alpha   60.00000000
_cell_angle_beta   60.00000000
_cell_angle_gamma   60.00000000
_symmetry_Int_Tables_number   1
_chemical_formula_structural   PmZn2Au
_chemical_formula_sum   'Pm1 Zn2 Au1'
_cell_volume   74.78786976
_cell_formula_units_Z   1
loop_
 _symmetry_equiv_pos_site_id
 _symmetry_equiv_pos_as_xyz
  1  'x, y, z'
loop_
 _atom_site_type_symbol
 _atom_site_label
 _atom_site_symmetry_multiplicity
 _atom_site_fract_x
 _atom_site_fract_y
 _atom_site_fract_z
 _atom_site_occupancy
  Pm  Pm0  1  0.75000000  0.75000000  0.75000000  1
  Zn  Zn0  1  -0.00000000  -0.00000000  0.00000000  1
  Zn  Zn1  1  0.50000000  0.50000000  0.50000000  1
  Au  Au0  1  0.24999900  0.24999900  0.24999900  1
loop_
_geom_bond_atom_site_label_1
_geom_bond_atom_site_label_2
_geom_bond_distance
_geom_bond_site_symmetry_2
Pm0 Zn0 2.895994 1_666
Pm0 Zn1 2.895994 1_565
Pm0 Zn1 2.895994 1_655
Pm0 Zn0 2.895994 1_665
Pm0 Zn0 2.895994 1_656
Pm0 Zn0 2.895994 1_566
Pm0 Zn1 2.895994 1_555
Pm0 Zn1 2.895994 1_556
Au0 Zn0 2.895983 1_555
Au0 Zn1 2.895990 1_455
Au0 Zn1 2.895990 1_545
Au0 Zn1 2.895990 1_554
Au0 Zn0 2.895998 1_556
Au0 Zn0 2.895998 1_655
Au0 Zn0 2.895998 1_565
Au0 Zn1 2.896006 1_555
Au0 Pm0 3.343999 1_544
Au0 Pm0 3.343999 1_445
Au0 Pm0 3.343999 1_454
Au0 Pm0 3.344013 1_554
Au0 Pm0 3.344013 1_545
Au0 Pm0 3.344013 1_455
