# generated using pymatgen
data_Li2Mn(Si2O5)2
_symmetry_space_group_name_H-M   'P 1'
_cell_length_a   6.97530200
_cell_length_b   7.63861504
_cell_length_c   9.76755277
_cell_angle_alpha   68.48045890
_cell_angle_beta   77.98108134
_cell_angle_gamma   62.87129938
_symmetry_Int_Tables_number   1
_chemical_formula_structural   Li2Mn(Si2O5)2
_chemical_formula_sum   'Li4 Mn2 Si8 O20'
_cell_volume   430.36112752
_cell_formula_units_Z   2
loop_
 _symmetry_equiv_pos_site_id
 _symmetry_equiv_pos_as_xyz
  1  'x, y, z'
loop_
 _atom_site_type_symbol
 _atom_site_label
 _atom_site_symmetry_multiplicity
 _atom_site_fract_x
 _atom_site_fract_y
 _atom_site_fract_z
 _atom_site_occupancy
  Li  Li0  1  0.86085300  0.75123500  0.05541800  1
  Li  Li1  1  0.46726100  0.31351900  0.57652500  1
  Li  Li2  1  0.53273900  0.68648100  0.42347500  1
  Li  Li3  1  0.13914700  0.24876500  0.94458200  1
  Mn  Mn0  1  0.06292800  0.69251000  0.42292500  1
  Mn  Mn1  1  0.93707200  0.30749000  0.57707500  1
  Si  Si0  1  0.70098000  0.05122800  0.18562400  1
  Si  Si1  1  0.25148600  0.35789200  0.25541400  1
  Si  Si2  1  0.80503100  0.38566200  0.23824100  1
  Si  Si3  1  0.38403100  0.72281300  0.14193900  1
  Si  Si4  1  0.61596900  0.27718700  0.85806100  1
  Si  Si5  1  0.19496900  0.61433800  0.76175900  1
  Si  Si6  1  0.74851400  0.64210800  0.74458600  1
  Si  Si7  1  0.29902000  0.94877200  0.81437600  1
  O  O0  1  0.69937600  0.07581600  0.00824400  1
  O  O1  1  0.30616600  0.55046600  0.13835000  1
  O  O2  1  0.45163000  0.13598800  0.25275400  1
  O  O3  1  0.04803500  0.37764100  0.18014100  1
  O  O4  1  0.80992900  0.19626500  0.19467400  1
  O  O5  1  0.65308200  0.61368100  0.12223500  1
  O  O6  1  0.19446300  0.37323100  0.42096700  1
  O  O7  1  0.83679000  0.80846900  0.25909700  1
  O  O8  1  0.69646300  0.21551200  0.71032300  1
  O  O9  1  0.26848300  0.61820700  0.59384800  1
  O  O10  1  0.73151700  0.38179300  0.40615200  1
  O  O11  1  0.30353700  0.78448800  0.28967700  1
  O  O12  1  0.16321000  0.19153100  0.74090300  1
  O  O13  1  0.80553700  0.62676900  0.57903300  1
  O  O14  1  0.34691800  0.38631900  0.87776500  1
  O  O15  1  0.19007100  0.80373500  0.80532600  1
  O  O16  1  0.95196500  0.62235900  0.81985900  1
  O  O17  1  0.54837000  0.86401200  0.74724600  1
  O  O18  1  0.69383400  0.44953400  0.86165000  1
  O  O19  1  0.30062400  0.92418400  0.99175600  1
loop_
_geom_bond_atom_site_label_1
_geom_bond_atom_site_label_2
_geom_bond_distance
_geom_bond_site_symmetry_2
Li0 O5 2.030287 1_555
Li0 O0 2.111720 1_565
Li0 O7 2.146928 1_555
Li0 O3 2.458973 1_655
Li0 O16 2.673761 1_554
Li1 O8 1.971104 1_555
Li1 O9 2.148511 1_555
Li1 O10 2.324096 1_555
Li1 O6 2.457979 1_555
Li2 O11 1.971104 1_555
Li2 O10 2.148511 1_555
Li2 O9 2.324096 1_555
Li2 O13 2.457979 1_555
Li3 O14 2.030287 1_555
Li3 O19 2.111720 1_545
Li3 O12 2.146928 1_555
Li3 O16 2.458973 1_455
Li3 O3 2.673761 1_556
Mn0 O11 2.121112 1_555
Mn0 O7 2.137872 1_455
Mn0 O9 2.173653 1_555
Mn0 O6 2.185493 1_555
Mn0 O13 2.218314 1_455
Mn1 O8 2.121112 1_555
Mn1 O12 2.137872 1_655
Mn1 O10 2.173653 1_555
Mn1 O13 2.185493 1_555
Mn1 O6 2.218314 1_655
O0 Si4 1.655381 1_554
O0 Si0 1.674700 1_555
O1 Si1 1.647063 1_555
O1 Si3 1.650228 1_555
O2 Si1 1.637661 1_555
O2 Si0 1.638221 1_555
O3 Si2 1.652000 1_455
O3 Si1 1.653842 1_555
O4 Si2 1.635791 1_555
O4 Si0 1.637192 1_555
O5 Si3 1.671684 1_555
O5 Si2 1.676206 1_555
O6 Si1 1.617223 1_555
O7 Si0 1.598692 1_565
O8 Si4 1.593625 1_555
O9 Si5 1.606763 1_555
O10 Si2 1.606763 1_555
O11 Si3 1.593625 1_555
O12 Si7 1.598692 1_545
O13 Si6 1.617223 1_555
O14 Si4 1.671684 1_555
O14 Si5 1.676206 1_555
O15 Si5 1.635791 1_555
O15 Si7 1.637192 1_555
O16 Si5 1.652000 1_655
O16 Si6 1.653842 1_555
O17 Si6 1.637661 1_555
O17 Si7 1.638221 1_555
O18 Si6 1.647063 1_555
O18 Si4 1.650228 1_555
O19 Si3 1.655381 1_556
O19 Si7 1.674700 1_555
