# generated using pymatgen
data_Zr(CuP)2
_symmetry_space_group_name_H-M   'P 1'
_cell_length_a   3.79715426
_cell_length_b   3.79715361
_cell_length_c   6.15259226
_cell_angle_alpha   90.00000000
_cell_angle_beta   90.00000000
_cell_angle_gamma   119.99999674
_symmetry_Int_Tables_number   1
_chemical_formula_structural   Zr(CuP)2
_chemical_formula_sum   'Zr1 Cu2 P2'
_cell_volume   76.82546339
_cell_formula_units_Z   1
loop_
 _symmetry_equiv_pos_site_id
 _symmetry_equiv_pos_as_xyz
  1  'x, y, z'
loop_
 _atom_site_type_symbol
 _atom_site_label
 _atom_site_symmetry_multiplicity
 _atom_site_fract_x
 _atom_site_fract_y
 _atom_site_fract_z
 _atom_site_occupancy
  Zr  Zr0  1  0.00000000  -0.00000000  -0.00000000  1
  Cu  Cu0  1  0.66666700  0.33333300  0.36111188  1
  Cu  Cu1  1  0.33333300  0.66666700  0.63888812  1
  P  P0  1  0.66666700  0.33333300  0.74782645  1
  P  P1  1  0.33333300  0.66666700  0.25217355  1
loop_
_geom_bond_atom_site_label_1
_geom_bond_atom_site_label_2
_geom_bond_distance
_geom_bond_site_symmetry_2
Cu0 P1 2.292456 1_545
Cu0 P1 2.292456 1_655
Cu0 P1 2.292463 1_555
Cu0 P0 2.379297 1_555
Cu1 P0 2.292456 1_565
Cu1 P0 2.292456 1_455
Cu1 P0 2.292463 1_555
Cu1 P1 2.379297 1_555
P0 Zr0 2.685765 1_656
P0 Zr0 2.685768 1_666
P0 Zr0 2.685768 1_556
P1 Zr0 2.685765 1_565
P1 Zr0 2.685768 1_555
P1 Zr0 2.685768 1_665
