# generated using pymatgen
data_Mn2CrFe3(PO4)6
_symmetry_space_group_name_H-M   'P 1'
_cell_length_a   8.60971525
_cell_length_b   8.60971525
_cell_length_c   8.60971563
_cell_angle_alpha   60.22904340
_cell_angle_beta   60.22904340
_cell_angle_gamma   60.22903739
_symmetry_Int_Tables_number   1
_chemical_formula_structural   Mn2CrFe3(PO4)6
_chemical_formula_sum   'Mn2 Cr1 Fe3 P6 O24'
_cell_volume   453.62559833
_cell_formula_units_Z   1
loop_
 _symmetry_equiv_pos_site_id
 _symmetry_equiv_pos_as_xyz
  1  'x, y, z'
loop_
 _atom_site_type_symbol
 _atom_site_label
 _atom_site_symmetry_multiplicity
 _atom_site_fract_x
 _atom_site_fract_y
 _atom_site_fract_z
 _atom_site_occupancy
  Mn  Mn0  1  0.99869100  0.99869100  0.99869100  1
  Mn  Mn1  1  0.49965500  0.49965500  0.49965500  1
  Cr  Cr0  1  0.14294600  0.14294600  0.14294600  1
  Fe  Fe0  1  0.85467400  0.85467400  0.85467400  1
  Fe  Fe1  1  0.64601500  0.64601500  0.64601500  1
  Fe  Fe2  1  0.35451000  0.35451000  0.35451000  1
  P  P0  1  0.95735000  0.25053600  0.54160900  1
  P  P1  1  0.54160900  0.95735000  0.25053600  1
  P  P2  1  0.25053600  0.54160900  0.95735000  1
  P  P3  1  0.75170900  0.45566600  0.04484400  1
  P  P4  1  0.45566600  0.04484400  0.75170900  1
  P  P5  1  0.04484400  0.75170900  0.45566600  1
  O  O0  1  0.88628300  0.69381000  0.48967800  1
  O  O1  1  0.69381000  0.48967800  0.88628300  1
  O  O2  1  0.94176100  0.08826900  0.73699000  1
  O  O3  1  0.48967800  0.88628300  0.69381000  1
  O  O4  1  0.99835400  0.18625300  0.38277900  1
  O  O5  1  0.76128300  0.41268700  0.55275100  1
  O  O6  1  0.73699000  0.94176100  0.08826900  1
  O  O7  1  0.55275100  0.76128300  0.41268700  1
  O  O8  1  0.81432800  0.61218100  0.00652900  1
  O  O9  1  0.41268700  0.55275100  0.76128300  1
  O  O10  1  0.91610800  0.25859700  0.06242700  1
  O  O11  1  0.61218100  0.00652900  0.81432800  1
  O  O12  1  0.38277900  0.99835400  0.18625300  1
  O  O13  1  0.08826900  0.73699000  0.94176100  1
  O  O14  1  0.59060500  0.43785700  0.24150200  1
  O  O15  1  0.18625300  0.38277900  0.99835400  1
  O  O16  1  0.43785700  0.24150200  0.59060500  1
  O  O17  1  0.25859700  0.06242700  0.91610800  1
  O  O18  1  0.24150200  0.59060500  0.43785700  1
  O  O19  1  0.00652900  0.81432800  0.61218100  1
  O  O20  1  0.50303100  0.11148900  0.31624200  1
  O  O21  1  0.06242700  0.91610800  0.25859700  1
  O  O22  1  0.31624200  0.50303100  0.11148900  1
  O  O23  1  0.11148900  0.31624200  0.50303100  1
loop_
_geom_bond_atom_site_label_1
_geom_bond_atom_site_label_2
_geom_bond_distance
_geom_bond_site_symmetry_2
Mn0 O13 2.215284 1_655
Mn0 O6 2.215284 1_556
Mn0 O2 2.215284 1_565
Mn0 O10 2.250775 1_566
Mn0 O17 2.250775 1_665
Mn0 O21 2.250775 1_656
Mn1 O5 2.202569 1_555
Mn1 O7 2.202569 1_555
Mn1 O9 2.202569 1_555
Mn1 O18 2.206487 1_555
Mn1 O16 2.206487 1_555
Mn1 O14 2.206487 1_555
Cr0 O12 1.924433 1_545
Cr0 O15 1.924434 1_554
Cr0 O4 1.924434 1_455
Cr0 O10 2.003537 1_455
Cr0 O17 2.003538 1_554
Cr0 O21 2.003538 1_545
Fe0 O11 1.935820 1_565
Fe0 O8 1.935820 1_556
Fe0 O19 1.935820 1_655
Fe0 O13 2.086410 1_655
Fe0 O6 2.086410 1_556
Fe0 O2 2.086410 1_565
Fe1 O3 1.946931 1_555
Fe1 O0 1.946931 1_555
Fe1 O1 1.946931 1_555
Fe1 O5 2.120376 1_555
Fe1 O7 2.120376 1_555
Fe1 O9 2.120376 1_555
Fe2 O20 1.931531 1_555
Fe2 O23 1.931531 1_555
Fe2 O22 1.931531 1_555
Fe2 O18 2.093958 1_555
Fe2 O16 2.093959 1_555
Fe2 O14 2.093959 1_555
O0 P5 1.527015 1_655
O1 P3 1.527015 1_556
O2 P0 1.558111 1_555
O3 P4 1.527015 1_565
O4 P0 1.542432 1_555
O5 P0 1.561946 1_555
O6 P1 1.558111 1_555
O7 P1 1.561946 1_555
O8 P3 1.522754 1_555
O9 P2 1.561946 1_555
O10 P3 1.574155 1_555
O11 P4 1.522754 1_555
O12 P1 1.542432 1_555
O13 P2 1.558110 1_555
O14 P3 1.560580 1_555
O15 P2 1.542432 1_555
O16 P4 1.560580 1_555
O17 P4 1.574156 1_555
O18 P5 1.560580 1_555
O19 P5 1.522754 1_555
O20 P1 1.520770 1_545
O21 P5 1.574156 1_555
O22 P2 1.520770 1_554
O23 P0 1.520770 1_455
