# generated using pymatgen
data_Li2VCr2O6
_symmetry_space_group_name_H-M   'P 1'
_cell_length_a   7.87141028
_cell_length_b   7.87141028
_cell_length_c   6.00303628
_cell_angle_alpha   78.09533910
_cell_angle_beta   78.09533910
_cell_angle_gamma   69.35986788
_symmetry_Int_Tables_number   1
_chemical_formula_structural   Li2VCr2O6
_chemical_formula_sum   'Li6 V3 Cr6 O18'
_cell_volume   336.93973841
_cell_formula_units_Z   3
loop_
 _symmetry_equiv_pos_site_id
 _symmetry_equiv_pos_as_xyz
  1  'x, y, z'
loop_
 _atom_site_type_symbol
 _atom_site_label
 _atom_site_symmetry_multiplicity
 _atom_site_fract_x
 _atom_site_fract_y
 _atom_site_fract_z
 _atom_site_occupancy
  Li  Li0  1  0.00086500  0.33302400  0.67305700  1
  Li  Li1  1  0.33302400  0.00086500  0.67305700  1
  Li  Li2  1  0.99913500  0.66697600  0.32694300  1
  Li  Li3  1  0.66697600  0.99913500  0.32694300  1
  Li  Li4  1  0.33075200  0.66924800  0.00000000  1
  Li  Li5  1  0.66924800  0.33075200  0.00000000  1
  V  V0  1  0.33600900  0.66399100  0.50000000  1
  V  V1  1  0.00000000  0.00000000  0.50000000  1
  V  V2  1  0.66399100  0.33600900  0.50000000  1
  Cr  Cr0  1  0.00165800  0.33110800  0.16401700  1
  Cr  Cr1  1  0.66478300  0.66478300  0.16375700  1
  Cr  Cr2  1  0.33110800  0.00165800  0.16401700  1
  Cr  Cr3  1  0.99834200  0.66889200  0.83598300  1
  Cr  Cr4  1  0.66889200  0.99834200  0.83598300  1
  Cr  Cr5  1  0.33521700  0.33521700  0.83624300  1
  O  O0  1  0.50475400  0.50475400  0.27069500  1
  O  O1  1  0.84430900  0.50102100  0.94035000  1
  O  O2  1  0.50102100  0.84430900  0.94035000  1
  O  O3  1  0.49524600  0.49524600  0.72930500  1
  O  O4  1  0.82478500  0.48334800  0.40214500  1
  O  O5  1  0.48334800  0.82478500  0.40214500  1
  O  O6  1  0.15569100  0.49897900  0.05965000  1
  O  O7  1  0.82174200  0.82174200  0.06946500  1
  O  O8  1  0.49897900  0.15569100  0.05965000  1
  O  O9  1  0.17521500  0.51665200  0.59785500  1
  O  O10  1  0.84980500  0.84980500  0.58761500  1
  O  O11  1  0.51665200  0.17521500  0.59785500  1
  O  O12  1  0.17462800  0.83167100  0.27787500  1
  O  O13  1  0.83167100  0.17462800  0.27787500  1
  O  O14  1  0.17825800  0.17825800  0.93053500  1
  O  O15  1  0.16832900  0.82537200  0.72212500  1
  O  O16  1  0.82537200  0.16832900  0.72212500  1
  O  O17  1  0.15019500  0.15019500  0.41238500  1
loop_
_geom_bond_atom_site_label_1
_geom_bond_atom_site_label_2
_geom_bond_distance
_geom_bond_site_symmetry_2
Li0 O16 2.147710 1_455
Li0 O14 2.176511 1_555
Li0 O1 2.180066 1_455
Li0 O17 2.208860 1_555
Li0 O4 2.223909 1_455
Li0 O9 2.247241 1_555
Li1 O15 2.147710 1_545
Li1 O14 2.176511 1_555
Li1 O2 2.180066 1_545
Li1 O17 2.208860 1_555
Li1 O5 2.223909 1_545
Li1 O11 2.247241 1_555
Li2 O12 2.147710 1_655
Li2 O7 2.176511 1_555
Li2 O6 2.180066 1_655
Li2 O10 2.208860 1_555
Li2 O9 2.223909 1_655
Li2 O4 2.247241 1_555
Li3 O13 2.147710 1_565
Li3 O7 2.176511 1_555
Li3 O8 2.180066 1_565
Li3 O10 2.208860 1_555
Li3 O11 2.223909 1_565
Li3 O5 2.247241 1_555
Li4 O6 2.173425 1_555
Li4 O2 2.173425 1_554
Li4 O15 2.203131 1_554
Li4 O12 2.203131 1_555
Li4 O3 2.234491 1_554
Li4 O0 2.234491 1_555
Li5 O8 2.173425 1_555
Li5 O1 2.173425 1_554
Li5 O16 2.203131 1_554
Li5 O13 2.203131 1_555
Li5 O3 2.234491 1_554
Li5 O0 2.234491 1_555
Cr0 O1 1.975598 1_454
Cr0 O14 2.014250 1_554
Cr0 O6 2.020683 1_555
Cr0 O4 2.031564 1_455
Cr0 O13 2.052289 1_455
Cr0 O17 2.070583 1_555
Cr1 O7 1.967828 1_555
Cr1 O0 2.009218 1_555
Cr1 O1 2.025904 1_554
Cr1 O2 2.025904 1_554
Cr1 O4 2.075103 1_555
Cr1 O5 2.075103 1_555
Cr2 O2 1.975598 1_544
Cr2 O14 2.014250 1_554
Cr2 O8 2.020683 1_555
Cr2 O5 2.031564 1_545
Cr2 O12 2.052289 1_545
Cr2 O17 2.070583 1_555
Cr3 O6 1.975598 1_656
Cr3 O7 2.014250 1_556
Cr3 O1 2.020683 1_555
Cr3 O9 2.031564 1_655
Cr3 O15 2.052289 1_655
Cr3 O10 2.070583 1_555
Cr4 O8 1.975598 1_566
Cr4 O7 2.014250 1_556
Cr4 O2 2.020683 1_555
Cr4 O11 2.031564 1_565
Cr4 O16 2.052289 1_565
Cr4 O10 2.070583 1_555
Cr5 O14 1.967828 1_555
Cr5 O3 2.009218 1_555
Cr5 O8 2.025904 1_556
Cr5 O6 2.025904 1_556
Cr5 O11 2.075103 1_555
Cr5 O9 2.075103 1_555
O0 V0 2.003481 1_555
O0 V2 2.003481 1_555
O3 V0 2.003481 1_555
O3 V2 2.003481 1_555
O4 V2 1.933675 1_555
O5 V0 1.933675 1_555
O9 V0 1.933675 1_555
O10 V1 1.882642 1_665
O11 V2 1.933675 1_555
O12 V0 1.981024 1_555
O12 V1 2.027752 1_565
O13 V2 1.981024 1_555
O13 V1 2.027752 1_655
O15 V0 1.981024 1_555
O15 V1 2.027752 1_565
O16 V2 1.981024 1_555
O16 V1 2.027752 1_655
O17 V1 1.882642 1_555
