# generated using pymatgen
data_Ba3Zr2S7
_symmetry_space_group_name_H-M   'P 1'
_cell_length_a   7.12790196
_cell_length_b   7.12790196
_cell_length_c   25.58530508
_cell_angle_alpha   90.00000000
_cell_angle_beta   90.00000000
_cell_angle_gamma   90.00000000
_symmetry_Int_Tables_number   1
_chemical_formula_structural   Ba3Zr2S7
_chemical_formula_sum   'Ba12 Zr8 S28'
_cell_volume   1299.91224600
_cell_formula_units_Z   4
loop_
 _symmetry_equiv_pos_site_id
 _symmetry_equiv_pos_as_xyz
  1  'x, y, z'
loop_
 _atom_site_type_symbol
 _atom_site_label
 _atom_site_symmetry_multiplicity
 _atom_site_fract_x
 _atom_site_fract_y
 _atom_site_fract_z
 _atom_site_occupancy
  Ba  Ba0  1  0.25340176  0.74659824  0.50000000  1
  Ba  Ba1  1  0.75340176  0.75340176  0.00000000  1
  Ba  Ba2  1  0.24659824  0.24659824  0.00000000  1
  Ba  Ba3  1  0.74659824  0.25340176  0.50000000  1
  Ba  Ba4  1  0.76227997  0.23772003  0.68162153  1
  Ba  Ba5  1  0.23772003  0.76227997  0.68162153  1
  Ba  Ba6  1  0.23772003  0.76227997  0.31837847  1
  Ba  Ba7  1  0.73772003  0.73772003  0.18162153  1
  Ba  Ba8  1  0.26227997  0.26227997  0.18162153  1
  Ba  Ba9  1  0.73772003  0.73772003  0.81837847  1
  Ba  Ba10  1  0.26227997  0.26227997  0.81837847  1
  Ba  Ba11  1  0.76227997  0.23772003  0.31837847  1
  Zr  Zr0  1  0.74925490  0.74925490  0.59954545  1
  Zr  Zr1  1  0.25074510  0.25074510  0.59954545  1
  Zr  Zr2  1  0.74925490  0.74925490  0.40045455  1
  Zr  Zr3  1  0.24925490  0.75074510  0.09954545  1
  Zr  Zr4  1  0.75074510  0.24925490  0.09954545  1
  Zr  Zr5  1  0.75074510  0.24925490  0.90045455  1
  Zr  Zr6  1  0.24925490  0.75074510  0.90045455  1
  Zr  Zr7  1  0.25074510  0.25074510  0.40045455  1
  S  S0  1  0.00000000  0.50000000  0.40439243  1
  S  S1  1  0.00000000  0.50000000  0.90439243  1
  S  S2  1  0.50000000  0.00000000  0.09560757  1
  S  S3  1  0.50000000  0.00000000  0.59560757  1
  S  S4  1  0.00000000  0.50000000  0.59560757  1
  S  S5  1  0.00000000  0.50000000  0.09560757  1
  S  S6  1  0.50000000  0.00000000  0.90439243  1
  S  S7  1  0.50000000  0.00000000  0.40439243  1
  S  S8  1  0.50000000  0.50000000  0.61048858  1
  S  S9  1  0.00000000  0.00000000  0.11048858  1
  S  S10  1  0.00000000  0.00000000  0.88951142  1
  S  S11  1  0.50000000  0.50000000  0.38951142  1
  S  S12  1  0.78140077  0.78140077  0.69743184  1
  S  S13  1  0.21859923  0.21859923  0.69743184  1
  S  S14  1  0.78140077  0.78140077  0.30256816  1
  S  S15  1  0.28140077  0.71859923  0.19743184  1
  S  S16  1  0.71859923  0.28140077  0.19743184  1
  S  S17  1  0.71859923  0.28140077  0.80256816  1
  S  S18  1  0.28140077  0.71859923  0.80256816  1
  S  S19  1  0.21859923  0.21859923  0.30256816  1
  S  S20  1  0.00000000  0.00000000  0.41700118  1
  S  S21  1  0.50000000  0.50000000  0.91700118  1
  S  S22  1  0.50000000  0.50000000  0.08299882  1
  S  S23  1  0.00000000  0.00000000  0.58299882  1
  S  S24  1  0.28952675  0.28952675  0.50000000  1
  S  S25  1  0.21047325  0.78952675  0.00000000  1
  S  S26  1  0.78952675  0.21047325  0.00000000  1
  S  S27  1  0.71047325  0.71047325  0.50000000  1
loop_
_geom_bond_atom_site_label_1
_geom_bond_atom_site_label_2
_geom_bond_distance
_geom_bond_site_symmetry_2
Ba0 S24 3.268121 1_555
Ba0 S27 3.268121 1_555
Ba0 S20 3.321799 1_565
Ba0 S23 3.321799 1_565
Ba0 S0 3.512221 1_555
Ba0 S4 3.512221 1_555
Ba0 S3 3.512221 1_565
Ba0 S7 3.512221 1_565
Ba0 S11 3.764371 1_555
Ba0 S8 3.764371 1_555
Ba0 S27 3.878498 1_455
Ba0 S24 3.878498 1_565
Ba1 S26 3.268121 1_565
Ba1 S25 3.268121 1_655
Ba1 S22 3.321799 1_555
Ba1 S21 3.321799 1_554
Ba1 S6 3.512221 1_564
Ba1 S2 3.512221 1_565
Ba1 S5 3.512221 1_655
Ba1 S1 3.512221 1_654
Ba1 S10 3.764371 1_664
Ba1 S9 3.764371 1_665
Ba1 S26 3.878498 1_555
Ba1 S25 3.878498 1_555
Ba2 S26 3.268121 1_455
Ba2 S25 3.268121 1_545
Ba2 S22 3.321799 1_555
Ba2 S21 3.321799 1_554
Ba2 S6 3.512221 1_554
Ba2 S5 3.512221 1_555
Ba2 S2 3.512221 1_555
Ba2 S1 3.512221 1_554
Ba2 S10 3.764371 1_554
Ba2 S9 3.764371 1_555
Ba2 S26 3.878498 1_555
Ba2 S25 3.878498 1_555
Ba3 S24 3.268121 1_555
Ba3 S27 3.268121 1_555
Ba3 S20 3.321799 1_655
Ba3 S23 3.321799 1_655
Ba3 S0 3.512221 1_655
Ba3 S4 3.512221 1_655
Ba3 S3 3.512221 1_555
Ba3 S7 3.512221 1_555
Ba3 S11 3.764371 1_555
Ba3 S8 3.764371 1_555
Ba3 S27 3.878498 1_545
Ba3 S24 3.878498 1_655
Ba4 S17 3.125626 1_555
Ba4 S8 3.209728 1_555
Ba4 S13 3.280489 1_655
Ba4 S12 3.280489 1_545
Ba4 S4 3.348021 1_655
Ba4 S3 3.348021 1_555
Ba4 S23 3.479841 1_655
Ba5 S18 3.125626 1_555
Ba5 S8 3.209728 1_555
Ba5 S13 3.280489 1_565
Ba5 S12 3.280489 1_455
Ba5 S3 3.348021 1_565
Ba5 S4 3.348021 1_555
Ba5 S23 3.479841 1_565
Ba6 S15 3.125626 1_555
Ba6 S11 3.209728 1_555
Ba6 S19 3.280489 1_565
Ba6 S14 3.280489 1_455
Ba6 S7 3.348021 1_565
Ba6 S0 3.348021 1_555
Ba6 S20 3.479841 1_565
Ba7 S14 3.125626 1_555
Ba7 S9 3.209728 1_665
Ba7 S16 3.280489 1_555
Ba7 S15 3.280489 1_555
Ba7 S5 3.348021 1_655
Ba7 S2 3.348021 1_565
Ba7 S22 3.479841 1_555
Ba8 S19 3.125626 1_555
Ba8 S9 3.209728 1_555
Ba8 S16 3.280489 1_555
Ba8 S15 3.280489 1_555
Ba8 S2 3.348021 1_555
Ba8 S5 3.348021 1_555
Ba8 S22 3.479841 1_555
Ba9 S12 3.125626 1_555
Ba9 S10 3.209728 1_665
Ba9 S18 3.280489 1_555
Ba9 S17 3.280489 1_555
Ba9 S1 3.348021 1_655
Ba9 S6 3.348021 1_565
Ba9 S21 3.479841 1_555
Ba10 S13 3.125626 1_555
Ba10 S10 3.209728 1_555
Ba10 S17 3.280489 1_555
Ba10 S18 3.280489 1_555
Ba10 S6 3.348021 1_555
Ba10 S1 3.348021 1_555
Ba10 S21 3.479841 1_555
Ba11 S16 3.125626 1_555
Ba11 S11 3.209728 1_555
Ba11 S19 3.280489 1_655
Ba11 S14 3.280489 1_545
Ba11 S0 3.348021 1_655
Ba11 S7 3.348021 1_555
Ba11 S20 3.479841 1_655
S0 Zr7 2.522118 1_555
S0 Zr2 2.522118 1_455
S1 Zr6 2.522118 1_555
S1 Zr5 2.522118 1_455
S2 Zr4 2.522118 1_555
S2 Zr3 2.522118 1_545
S3 Zr0 2.522118 1_545
S3 Zr1 2.522118 1_555
S4 Zr1 2.522118 1_555
S4 Zr0 2.522118 1_455
S5 Zr3 2.522118 1_555
S5 Zr4 2.522118 1_455
S6 Zr5 2.522118 1_555
S6 Zr6 2.522118 1_545
S7 Zr2 2.522118 1_545
S7 Zr7 2.522118 1_555
S8 Zr0 2.528135 1_555
S8 Zr1 2.528135 1_555
S9 Zr3 2.528135 1_545
S9 Zr4 2.528135 1_455
S10 Zr5 2.528135 1_455
S10 Zr6 2.528135 1_545
S11 Zr2 2.528135 1_555
S11 Zr7 2.528135 1_555
S12 Zr0 2.525330 1_555
S13 Zr1 2.525330 1_555
S14 Zr2 2.525330 1_555
S15 Zr3 2.525330 1_555
S16 Zr4 2.525330 1_555
S17 Zr5 2.525330 1_555
S18 Zr6 2.525330 1_555
S19 Zr7 2.525330 1_555
S20 Zr7 2.562813 1_555
S20 Zr2 2.562813 1_445
S21 Zr5 2.562813 1_555
S21 Zr6 2.562813 1_555
S22 Zr3 2.562813 1_555
S22 Zr4 2.562813 1_555
S23 Zr1 2.562813 1_555
S23 Zr0 2.562813 1_445
S24 Zr7 2.576729 1_555
S24 Zr1 2.576729 1_555
S25 Zr3 2.576729 1_555
S25 Zr6 2.576729 1_554
S26 Zr4 2.576729 1_555
S26 Zr5 2.576729 1_554
S27 Zr2 2.576729 1_555
S27 Zr0 2.576729 1_555
