# generated using pymatgen
data_Na6(WO3)7
_symmetry_space_group_name_H-M   'P 1'
_cell_length_a   8.84595635
_cell_length_b   8.84595635
_cell_length_c   8.84595664
_cell_angle_alpha   113.57167068
_cell_angle_beta   113.57167068
_cell_angle_gamma   113.57167293
_symmetry_Int_Tables_number   1
_chemical_formula_structural   Na6(WO3)7
_chemical_formula_sum   'Na6 W7 O21'
_cell_volume   433.58180161
_cell_formula_units_Z   1
loop_
 _symmetry_equiv_pos_site_id
 _symmetry_equiv_pos_as_xyz
  1  'x, y, z'
loop_
 _atom_site_type_symbol
 _atom_site_label
 _atom_site_symmetry_multiplicity
 _atom_site_fract_x
 _atom_site_fract_y
 _atom_site_fract_z
 _atom_site_occupancy
  Na  Na0  1  0.57054900  0.14273900  0.28550800  1
  Na  Na1  1  0.14273900  0.28550800  0.57054900  1
  Na  Na2  1  0.28550800  0.57054900  0.14273900  1
  Na  Na3  1  0.71449200  0.42945100  0.85726100  1
  Na  Na4  1  0.85726100  0.71449200  0.42945100  1
  Na  Na5  1  0.42945100  0.85726100  0.71449200  1
  W  W0  1  0.78588700  0.07059300  0.64506100  1
  W  W1  1  0.07059300  0.64506100  0.78588700  1
  W  W2  1  0.64506100  0.78588700  0.07059300  1
  W  W3  1  0.92940700  0.35493900  0.21411300  1
  W  W4  1  0.21411300  0.92940700  0.35493900  1
  W  W5  1  0.35493900  0.21411300  0.92940700  1
  W  W6  1  0.50000000  0.50000000  0.50000000  1
  O  O0  1  0.78428200  0.07359700  0.14439200  1
  O  O1  1  0.56669600  0.63880800  0.78266100  1
  O  O2  1  0.36119200  0.21733900  0.43330400  1
  O  O3  1  0.50000000  0.00000000  0.50000000  1
  O  O4  1  0.92870800  0.35767200  0.71459500  1
  O  O5  1  0.78266100  0.56669600  0.63880800  1
  O  O6  1  0.07359700  0.14439200  0.78428200  1
  O  O7  1  0.35767200  0.71459500  0.92870800  1
  O  O8  1  0.28540500  0.07129200  0.64232800  1
  O  O9  1  0.85560800  0.21571800  0.92640300  1
  O  O10  1  0.14439200  0.78428200  0.07359700  1
  O  O11  1  0.71459500  0.92870800  0.35767200  1
  O  O12  1  0.50000000  0.50000000  0.00000000  1
  O  O13  1  0.64232800  0.28540500  0.07129200  1
  O  O14  1  0.92640300  0.85560800  0.21571800  1
  O  O15  1  0.07129200  0.64232800  0.28540500  1
  O  O16  1  0.63880800  0.78266100  0.56669600  1
  O  O17  1  0.21733900  0.43330400  0.36119200  1
  O  O18  1  0.43330400  0.36119200  0.21733900  1
  O  O19  1  0.00000000  0.50000000  0.50000000  1
  O  O20  1  0.21571800  0.92640300  0.85560800  1
loop_
_geom_bond_atom_site_label_1
_geom_bond_atom_site_label_2
_geom_bond_distance
_geom_bond_site_symmetry_2
Na0 O5 2.767778 1_555
Na0 O0 2.776481 1_555
Na0 O18 2.791898 1_555
Na0 O2 2.792570 1_555
Na0 O20 2.793719 1_544
Na0 O10 2.795267 1_545
Na0 O3 2.795851 1_555
Na0 O13 2.796562 1_555
Na0 O7 2.798876 1_544
Na0 O4 2.802196 1_555
Na0 O19 2.802952 1_655
Na0 O11 2.803809 1_545
Na1 O1 2.767778 1_555
Na1 O6 2.776481 1_555
Na1 O2 2.791898 1_555
Na1 O17 2.792570 1_555
Na1 O14 2.793719 1_445
Na1 O0 2.795267 1_455
Na1 O19 2.795851 1_555
Na1 O8 2.796562 1_555
Na1 O11 2.798876 1_445
Na1 O7 2.802196 1_555
Na1 O12 2.802952 1_556
Na1 O4 2.803809 1_455
Na2 O16 2.767778 1_555
Na2 O10 2.776481 1_555
Na2 O17 2.791898 1_555
Na2 O18 2.792570 1_555
Na2 O9 2.793719 1_454
Na2 O6 2.795267 1_554
Na2 O12 2.795851 1_555
Na2 O15 2.796562 1_555
Na2 O4 2.798876 1_454
Na2 O11 2.802196 1_555
Na2 O3 2.802952 1_565
Na2 O7 2.803809 1_554
Na3 O2 2.767778 1_555
Na3 O9 2.776481 1_555
Na3 O5 2.791898 1_555
Na3 O1 2.792570 1_555
Na3 O10 2.793719 1_656
Na3 O14 2.795267 1_556
Na3 O12 2.795851 1_556
Na3 O4 2.796562 1_555
Na3 O15 2.798876 1_656
Na3 O8 2.802196 1_555
Na3 O3 2.802952 1_555
Na3 O13 2.803809 1_556
Na4 O18 2.767778 1_555
Na4 O14 2.776481 1_555
Na4 O16 2.791898 1_555
Na4 O5 2.792570 1_555
Na4 O6 2.793719 1_665
Na4 O20 2.795267 1_655
Na4 O19 2.795851 1_655
Na4 O11 2.796562 1_555
Na4 O8 2.798876 1_665
Na4 O13 2.802196 1_555
Na4 O12 2.802952 1_555
Na4 O15 2.803809 1_655
Na5 O17 2.767778 1_555
Na5 O20 2.776481 1_555
Na5 O1 2.791898 1_555
Na5 O16 2.792570 1_555
Na5 O0 2.793719 1_566
Na5 O9 2.795267 1_565
Na5 O3 2.795851 1_565
Na5 O7 2.796562 1_555
Na5 O13 2.798876 1_566
Na5 O15 2.802196 1_555
Na5 O19 2.802952 1_555
Na5 O8 2.803809 1_565
O0 W3 1.950920 1_555
O0 W2 1.985338 1_545
O1 W2 1.968963 1_556
O1 W6 1.973076 1_555
O2 W4 1.968963 1_545
O2 W6 1.973076 1_555
O3 W0 1.983113 1_555
O3 W4 1.983113 1_545
O4 W1 1.992152 1_655
O4 W0 1.996661 1_555
O5 W1 1.968963 1_655
O5 W6 1.973076 1_555
O6 W5 1.950920 1_555
O6 W0 1.985338 1_455
O7 W2 1.992152 1_556
O7 W1 1.996661 1_555
O8 W4 1.992152 1_545
O8 W5 1.996661 1_555
O9 W0 1.950920 1_555
O9 W3 1.985338 1_556
O10 W4 1.950920 1_555
O10 W1 1.985338 1_554
O11 W0 1.992152 1_565
O11 W2 1.996661 1_555
O12 W2 1.983113 1_555
O12 W5 1.983113 1_554
O13 W5 1.992152 1_554
O13 W3 1.996661 1_555
O14 W2 1.950920 1_555
O14 W4 1.985338 1_655
O15 W3 1.992152 1_455
O15 W4 1.996661 1_555
O16 W0 1.968963 1_565
O16 W6 1.973076 1_555
O17 W3 1.968963 1_455
O17 W6 1.973076 1_555
O18 W5 1.968963 1_554
O18 W6 1.973076 1_555
O19 W1 1.983113 1_555
O19 W3 1.983113 1_455
O20 W1 1.950920 1_555
O20 W5 1.985338 1_565
