# generated using pymatgen
data_Ti17(NO4)6
_symmetry_space_group_name_H-M   'P 1'
_cell_length_a   7.64343000
_cell_length_b   14.64910365
_cell_length_c   10.73889161
_cell_angle_alpha   92.67854710
_cell_angle_beta   69.15113501
_cell_angle_gamma   97.49356463
_symmetry_Int_Tables_number   1
_chemical_formula_structural   Ti17(NO4)6
_chemical_formula_sum   'Ti34 N12 O48'
_cell_volume   1114.09831453
_cell_formula_units_Z   2
loop_
 _symmetry_equiv_pos_site_id
 _symmetry_equiv_pos_as_xyz
  1  'x, y, z'
loop_
 _atom_site_type_symbol
 _atom_site_label
 _atom_site_symmetry_multiplicity
 _atom_site_fract_x
 _atom_site_fract_y
 _atom_site_fract_z
 _atom_site_occupancy
  Ti  Ti0  1  0.02580400  0.24268000  0.07018500  1
  Ti  Ti1  1  0.19840100  0.90733700  0.05684100  1
  Ti  Ti2  1  0.01339600  0.90495300  0.42567200  1
  Ti  Ti3  1  0.00937400  0.53619200  0.75001600  1
  Ti  Ti4  1  0.34950000  0.57321100  0.07612500  1
  Ti  Ti5  1  0.15613300  0.13056300  0.24964800  1
  Ti  Ti6  1  0.15830400  0.76009800  0.57619500  1
  Ti  Ti7  1  0.32396000  0.79714100  0.24998400  1
  Ti  Ti8  1  0.17502900  0.57323500  0.42380500  1
  Ti  Ti9  1  0.13493200  0.42599700  0.94315900  1
  Ti  Ti10  1  0.17720100  0.20277100  0.75035100  1
  Ti  Ti11  1  0.34676000  0.24156600  0.42788100  1
  Ti  Ti12  1  0.31993700  0.42838100  0.57432800  1
  Ti  Ti13  1  0.50532900  0.90736700  0.44290100  1
  Ti  Ti14  1  0.52404100  0.24155500  0.07216900  1
  Ti  Ti15  1  0.68895300  0.90496900  0.07449800  1
  Ti  Ti16  1  0.49164300  0.46672100  0.25004700  1
  Ti  Ti17  1  0.48778700  0.09062700  0.57021500  1
  Ti  Ti18  1  0.64561400  0.76011100  0.57618600  1
  Ti  Ti19  1  0.68771900  0.57322200  0.42381400  1
  Ti  Ti20  1  0.65920400  0.13058500  0.25038500  1
  Ti  Ti21  1  0.50877200  0.53619800  0.74998600  1
  Ti  Ti22  1  0.47234500  0.76013000  0.92383200  1
  Ti  Ti23  1  0.30752900  0.09065400  0.92981500  1
  Ti  Ti24  1  0.86098800  0.57320400  0.07616800  1
  Ti  Ti25  1  0.82456100  0.79713600  0.25001400  1
  Ti  Ti26  1  0.82800400  0.42596600  0.55709900  1
  Ti  Ti27  1  0.67413000  0.20274800  0.74961500  1
  Ti  Ti28  1  0.64438000  0.42836400  0.92550200  1
  Ti  Ti29  1  0.84169100  0.86661200  0.74995300  1
  Ti  Ti30  1  0.84554700  0.24270600  0.42978500  1
  Ti  Ti31  1  0.98657300  0.09176700  0.57211900  1
  Ti  Ti32  1  0.80929300  0.09177900  0.92783100  1
  Ti  Ti33  1  0.98383400  0.76012200  0.92387500  1
  N  N0  1  0.08654900  0.84582000  0.24975000  1
  N  N1  1  0.27375300  0.52176200  0.24997900  1
  N  N2  1  0.05958100  0.81157100  0.75002100  1
  N  N3  1  0.58638200  0.84568600  0.25005800  1
  N  N4  1  0.24678400  0.48751400  0.75025000  1
  N  N5  1  0.41994400  0.17956800  0.25001200  1
  N  N6  1  0.59619400  0.81161100  0.74996700  1
  N  N7  1  0.41384800  0.15555300  0.75003500  1
  N  N8  1  0.73713900  0.52172200  0.25003300  1
  N  N9  1  0.91948500  0.17778000  0.24996500  1
  N  N10  1  0.74695100  0.48764700  0.74994200  1
  N  N11  1  0.91339000  0.15376600  0.74998800  1
  O  O0  1  0.11250500  0.54860200  0.04931300  1
  O  O1  1  0.03553400  0.36233300  0.10897500  1
  O  O2  1  0.43568900  0.87480400  0.06448400  1
  O  O3  1  0.36780600  0.69856200  0.11971700  1
  O  O4  1  0.08440500  0.20737600  0.43562900  1
  O  O5  1  0.19656700  0.03256000  0.12288200  1
  O  O6  1  0.26922000  0.20888500  0.06677000  1
  O  O7  1  0.08167100  0.45853900  0.56455600  1
  O  O8  1  0.10383100  0.63474400  0.61974700  1
  O  O9  1  0.25166200  0.87479400  0.43544400  1
  O  O10  1  0.22950300  0.69858900  0.38025300  1
  O  O11  1  0.06680200  0.03189700  0.38243600  1
  O  O12  1  0.24892800  0.12595700  0.56437100  1
  O  O13  1  0.41442200  0.53864100  0.44040500  1
  O  O14  1  0.22082900  0.78473100  0.95068700  1
  O  O15  1  0.29780000  0.97100000  0.89102500  1
  O  O16  1  0.53212200  0.36452600  0.11892000  1
  O  O17  1  0.60496900  0.53843700  0.05936200  1
  O  O18  1  0.13676600  0.30077300  0.87711800  1
  O  O19  1  0.06411300  0.12444800  0.93323000  1
  O  O20  1  0.42186700  0.78502500  0.54882600  1
  O  O21  1  0.26653100  0.30143600  0.61756400  1
  O  O22  1  0.43784600  0.97099700  0.60890000  1
  O  O23  1  0.40003400  0.36456600  0.38114900  1
  O  O24  1  0.69908700  0.03192400  0.11758700  1
  O  O25  1  0.86182500  0.69856600  0.11972400  1
  O  O26  1  0.56964400  0.03264900  0.37715300  1
  O  O27  1  0.58522800  0.20894000  0.43329700  1
  O  O28  1  0.76931700  0.20736300  0.06435500  1
  O  O29  1  0.39611800  0.45848600  0.93556800  1
  O  O30  1  0.59383400  0.63475100  0.61977800  1
  O  O31  1  0.93721600  0.87484800  0.06443200  1
  O  O32  1  0.58307900  0.45849000  0.56449800  1
  O  O33  1  0.73949900  0.69858200  0.38022200  1
  O  O34  1  0.75025500  0.87484300  0.43550200  1
  O  O35  1  0.47150900  0.63476800  0.88027600  1
  O  O36  1  0.89548800  0.36233700  0.39110000  1
  O  O37  1  0.80121100  0.96880700  0.88108000  1
  O  O38  1  0.74810600  0.12439300  0.56670300  1
  O  O39  1  0.56401600  0.12597100  0.93564500  1
  O  O40  1  0.91146600  0.54830800  0.45117400  1
  O  O41  1  0.72836400  0.79489700  0.94063800  1
  O  O42  1  0.93329900  0.96876800  0.61885100  1
  O  O43  1  0.91891100  0.79469200  0.55959500  1
  O  O44  1  0.63424700  0.30140900  0.88241300  1
  O  O45  1  0.76369000  0.30068400  0.62284700  1
  O  O46  1  0.96552700  0.63477200  0.88028300  1
  O  O47  1  0.89764400  0.45852900  0.93551600  1
loop_
_geom_bond_atom_site_label_1
_geom_bond_atom_site_label_2
_geom_bond_distance
_geom_bond_site_symmetry_2
N0 Ti2 1.963057 1_555
N0 Ti25 2.035248 1_455
N0 Ti7 2.035277 1_555
N0 Ti1 2.132489 1_555
N1 Ti8 1.907024 1_555
N1 Ti4 1.907147 1_555
N1 Ti16 1.942921 1_555
N2 Ti6 1.907023 1_555
N2 Ti33 1.907147 1_455
N2 Ti29 1.942921 1_455
N3 Ti15 1.961276 1_555
N3 Ti25 2.038905 1_555
N3 Ti7 2.039118 1_555
N3 Ti13 2.132331 1_555
N4 Ti12 1.963057 1_555
N4 Ti21 2.035248 1_555
N4 Ti3 2.035263 1_555
N4 Ti9 2.132489 1_555
N5 Ti11 1.999029 1_555
N5 Ti14 1.999276 1_555
N5 Ti20 2.051109 1_555
N5 Ti5 2.051610 1_555
N6 Ti18 1.906716 1_555
N6 Ti22 1.907428 1_555
N6 Ti29 1.943108 1_555
N7 Ti27 2.017686 1_555
N7 Ti10 2.017907 1_555
N7 Ti17 2.035862 1_555
N7 Ti23 2.035896 1_555
N8 Ti19 1.906716 1_555
N8 Ti24 1.907433 1_555
N8 Ti16 1.943101 1_555
N9 Ti20 2.017679 1_555
N9 Ti5 2.017904 1_655
N9 Ti30 2.035862 1_555
N9 Ti0 2.035903 1_655
N10 Ti28 1.961276 1_555
N10 Ti21 2.038912 1_555
N10 Ti3 2.039126 1_655
N10 Ti26 2.132331 1_555
N11 Ti31 1.999036 1_555
N11 Ti32 1.999276 1_555
N11 Ti27 2.051102 1_555
N11 Ti10 2.051607 1_655
O0 Ti24 1.919698 1_455
O0 Ti4 1.919756 1_555
O0 Ti9 2.074748 1_554
O1 Ti0 1.780787 1_555
O1 Ti9 1.904007 1_554
O2 Ti1 1.964287 1_555
O2 Ti15 1.968450 1_555
O2 Ti7 2.177026 1_555
O2 Ti22 2.183184 1_554
O3 Ti4 1.873476 1_555
O3 Ti7 1.938662 1_555
O3 Ti22 2.160998 1_554
O4 Ti11 1.975383 1_555
O4 Ti30 1.983938 1_455
O4 Ti31 2.167322 1_455
O4 Ti5 2.174193 1_555
O5 Ti5 1.908774 1_555
O5 Ti1 1.935522 1_545
O5 Ti23 2.113580 1_554
O6 Ti14 1.964847 1_555
O6 Ti0 1.974336 1_555
O6 Ti5 2.159647 1_555
O6 Ti23 2.199143 1_554
O7 Ti26 1.964438 1_455
O7 Ti12 1.968012 1_555
O7 Ti3 2.175959 1_555
O7 Ti8 2.184905 1_555
O8 Ti6 1.872544 1_555
O8 Ti3 1.939209 1_555
O8 Ti8 2.161319 1_555
O9 Ti13 1.964438 1_555
O9 Ti2 1.968018 1_555
O9 Ti7 2.175959 1_555
O9 Ti6 2.184905 1_555
O10 Ti8 1.872544 1_555
O10 Ti7 1.939209 1_555
O10 Ti6 2.161319 1_555
O11 Ti2 1.894248 1_545
O11 Ti5 1.957277 1_555
O11 Ti31 2.092539 1_455
O12 Ti31 1.975383 1_455
O12 Ti17 1.983945 1_555
O12 Ti11 2.167322 1_555
O12 Ti10 2.174192 1_555
O13 Ti8 2.029579 1_555
O13 Ti19 2.029651 1_555
O13 Ti12 2.091025 1_555
O13 Ti16 2.176996 1_555
O14 Ti22 1.919686 1_555
O14 Ti33 1.919756 1_455
O14 Ti1 2.074760 1_556
O15 Ti23 1.780801 1_565
O15 Ti1 1.904000 1_556
O16 Ti14 1.846480 1_555
O16 Ti16 1.983305 1_555
O16 Ti28 2.151453 1_554
O17 Ti24 2.025864 1_555
O17 Ti4 2.026191 1_555
O17 Ti28 2.087834 1_554
O17 Ti16 2.179085 1_555
O18 Ti10 1.908770 1_555
O18 Ti9 1.935536 1_555
O18 Ti0 2.113574 1_556
O19 Ti32 1.964838 1_455
O19 Ti23 1.974330 1_555
O19 Ti10 2.159664 1_555
O19 Ti0 2.199155 1_556
O20 Ti6 1.916961 1_555
O20 Ti18 1.916974 1_555
O20 Ti13 2.070916 1_555
O21 Ti12 1.894262 1_555
O21 Ti10 1.957259 1_555
O21 Ti11 2.092539 1_555
O22 Ti17 1.780489 1_565
O22 Ti13 1.904816 1_555
O23 Ti11 1.847153 1_555
O23 Ti16 1.983379 1_555
O23 Ti12 2.148573 1_555
O24 Ti15 1.893777 1_545
O24 Ti20 1.956630 1_555
O24 Ti32 2.093656 1_554
O25 Ti24 1.873532 1_555
O25 Ti25 1.938711 1_555
O25 Ti33 2.160571 1_554
O26 Ti20 1.908719 1_555
O26 Ti13 1.935749 1_545
O26 Ti17 2.112333 1_555
O27 Ti11 1.964529 1_555
O27 Ti30 1.974015 1_555
O27 Ti20 2.159529 1_555
O27 Ti17 2.200576 1_555
O28 Ti14 1.975254 1_555
O28 Ti0 1.983608 1_655
O28 Ti32 2.166528 1_554
O28 Ti20 2.175012 1_555
O29 Ti9 1.964322 1_555
O29 Ti28 1.968530 1_555
O29 Ti21 2.178099 1_555
O29 Ti4 2.183133 1_556
O30 Ti18 1.872722 1_555
O30 Ti21 1.938806 1_555
O30 Ti19 2.161599 1_555
O31 Ti1 1.964315 1_655
O31 Ti15 1.968533 1_555
O31 Ti25 2.178099 1_555
O31 Ti33 2.183144 1_554
O32 Ti26 1.964988 1_555
O32 Ti12 1.967962 1_555
O32 Ti21 2.176612 1_555
O32 Ti19 2.184857 1_555
O33 Ti19 1.872722 1_555
O33 Ti25 1.938817 1_555
O33 Ti18 2.161599 1_555
O34 Ti13 1.964995 1_555
O34 Ti2 1.967956 1_655
O34 Ti25 2.176604 1_555
O34 Ti18 2.184857 1_555
O35 Ti22 1.873532 1_555
O35 Ti21 1.938711 1_555
O35 Ti4 2.160577 1_556
O36 Ti30 1.780503 1_555
O36 Ti26 1.904809 1_555
O37 Ti32 1.846495 1_565
O37 Ti29 1.983305 1_555
O37 Ti15 2.151453 1_556
O38 Ti31 1.964522 1_555
O38 Ti17 1.974015 1_555
O38 Ti27 2.159529 1_555
O38 Ti30 2.200576 1_555
O39 Ti32 1.975262 1_555
O39 Ti23 1.983608 1_555
O39 Ti14 2.166528 1_556
O39 Ti27 2.175005 1_555
O40 Ti8 1.916961 1_655
O40 Ti19 1.916974 1_555
O40 Ti26 2.070916 1_555
O41 Ti22 2.025864 1_555
O41 Ti33 2.026204 1_555
O41 Ti15 2.087822 1_556
O41 Ti29 2.179078 1_555
O42 Ti31 1.847139 1_565
O42 Ti29 1.983390 1_555
O42 Ti2 2.148573 1_655
O43 Ti6 2.029579 1_655
O43 Ti18 2.029651 1_555
O43 Ti2 2.091036 1_655
O43 Ti29 2.176996 1_555
O44 Ti28 1.893777 1_555
O44 Ti27 1.956630 1_555
O44 Ti14 2.093650 1_556
O45 Ti27 1.908719 1_555
O45 Ti26 1.935749 1_555
O45 Ti30 2.112333 1_555
O46 Ti33 1.873462 1_555
O46 Ti3 1.938673 1_655
O46 Ti24 2.160998 1_556
O47 Ti9 1.964281 1_655
O47 Ti28 1.968450 1_555
O47 Ti3 2.177026 1_655
O47 Ti24 2.183195 1_556
