# generated using pymatgen
data_Li5Mn6(BO3)6
_symmetry_space_group_name_H-M   'P 1'
_cell_length_a   5.22387700
_cell_length_b   5.93879420
_cell_length_c   13.45885944
_cell_angle_alpha   97.19129335
_cell_angle_beta   91.56257256
_cell_angle_gamma   112.77156502
_symmetry_Int_Tables_number   1
_chemical_formula_structural   Li5Mn6(BO3)6
_chemical_formula_sum   'Li5 Mn6 B6 O18'
_cell_volume   380.65697121
_cell_formula_units_Z   1
loop_
 _symmetry_equiv_pos_site_id
 _symmetry_equiv_pos_as_xyz
  1  'x, y, z'
loop_
 _atom_site_type_symbol
 _atom_site_label
 _atom_site_symmetry_multiplicity
 _atom_site_fract_x
 _atom_site_fract_y
 _atom_site_fract_z
 _atom_site_occupancy
  Li  Li0  1  0.47529000  0.77867000  0.45803200  1
  Li  Li1  1  0.14144900  0.11445100  0.79148600  1
  Li  Li2  1  0.85078100  0.86031600  0.20707100  1
  Li  Li3  1  0.52624500  0.21884600  0.54006000  1
  Li  Li4  1  0.19061400  0.55505100  0.87388600  1
  Mn  Mn0  1  0.33831200  0.48512100  0.24844400  1
  Mn  Mn1  1  0.01281200  0.82474900  0.58576900  1
  Mn  Mn2  1  0.67765800  0.16609800  0.92325800  1
  Mn  Mn3  1  0.30808500  0.82755100  0.07889600  1
  Mn  Mn4  1  0.99057600  0.17619700  0.41522600  1
  Mn  Mn5  1  0.65582200  0.50756200  0.74963200  1
  B  B0  1  0.24413700  0.28648500  0.02270700  1
  B  B1  1  0.90555200  0.62177300  0.36154500  1
  B  B2  1  0.57662000  0.95512100  0.69444600  1
  B  B3  1  0.42129700  0.04389500  0.30458800  1
  B  B4  1  0.09347800  0.38048600  0.64147800  1
  B  B5  1  0.76194100  0.71739600  0.97586800  1
  O  O0  1  0.42214600  0.16866600  0.04471200  1
  O  O1  1  0.13069300  0.55135100  0.37831500  1
  O  O2  1  0.75878000  0.55910000  0.27021600  1
  O  O3  1  0.44105400  0.89653300  0.59940000  1
  O  O4  1  0.23524400  0.47301800  0.09553100  1
  O  O5  1  0.84487800  0.76778500  0.44005600  1
  O  O6  1  0.50404500  0.09199800  0.77244900  1
  O  O7  1  0.79920000  0.88502700  0.71312300  1
  O  O8  1  0.91401900  0.80031100  0.06713200  1
  O  O9  1  0.10401500  0.23331900  0.92957100  1
  O  O10  1  0.19889500  0.11484200  0.28642900  1
  O  O11  1  0.48436100  0.89957600  0.22646200  1
  O  O12  1  0.17019600  0.24642100  0.56471300  1
  O  O13  1  0.82188200  0.56650500  0.90063100  1
  O  O14  1  0.55886100  0.10084800  0.39929800  1
  O  O15  1  0.22898100  0.44148000  0.73703300  1
  O  O16  1  0.86754000  0.44600100  0.62320100  1
  O  O17  1  0.53527700  0.78396600  0.95733900  1
loop_
_geom_bond_atom_site_label_1
_geom_bond_atom_site_label_2
_geom_bond_distance
_geom_bond_site_symmetry_2
Li0 O1 1.965932 1_555
Li0 O5 1.976972 1_555
Li0 O3 1.980922 1_555
Li0 O14 2.056027 1_565
Li1 O9 1.946457 1_555
Li1 O7 1.953685 1_445
Li1 O6 1.970963 1_555
Li1 O15 2.050692 1_555
Li2 O8 1.934015 1_555
Li2 O2 1.972468 1_555
Li2 O10 2.023503 1_665
Li2 O11 2.035650 1_555
Li3 O12 1.962699 1_555
Li3 O14 1.971514 1_555
Li3 O16 1.975363 1_555
Li3 O3 2.059747 1_545
Li4 O15 1.923896 1_555
Li4 O17 1.990991 1_555
Li4 O13 1.994391 1_455
Li4 O9 2.031009 1_555
Mn0 O2 2.070995 1_555
Mn0 O4 2.098366 1_555
Mn0 O1 2.155856 1_555
Mn0 O10 2.165507 1_555
Mn0 O11 2.338557 1_555
Mn1 O5 2.059224 1_455
Mn1 O3 2.107061 1_555
Mn1 O7 2.138035 1_455
Mn1 O16 2.207320 1_455
Mn1 O12 2.371491 1_565
Mn2 O9 2.102394 1_655
Mn2 O6 2.122017 1_555
Mn2 O0 2.140644 1_556
Mn2 O17 2.210512 1_545
Mn2 O13 2.263158 1_555
Mn3 O0 1.996122 1_565
Mn3 O8 2.001723 1_455
Mn3 O4 2.032366 1_555
Mn3 O11 2.087594 1_555
Mn3 O17 2.095181 1_554
Mn4 O12 2.118075 1_655
Mn4 O14 2.121471 1_555
Mn4 O10 2.138599 1_655
Mn4 O1 2.186526 1_655
Mn4 O5 2.315522 1_545
Mn5 O15 2.107116 1_555
Mn5 O13 2.120346 1_555
Mn5 O16 2.124210 1_555
Mn5 O7 2.196292 1_555
Mn5 O6 2.345631 1_555
B0 O9 1.370664 1_554
B0 O4 1.400168 1_555
B0 O0 1.408029 1_555
B1 O2 1.360306 1_555
B1 O5 1.403764 1_555
B1 O1 1.413863 1_655
B2 O3 1.381078 1_555
B2 O6 1.397597 1_565
B2 O7 1.404762 1_555
B3 O14 1.381878 1_555
B3 O11 1.400207 1_545
B3 O10 1.405800 1_555
B4 O15 1.386164 1_555
B4 O12 1.387661 1_555
B4 O16 1.403052 1_455
B5 O8 1.369259 1_556
B5 O13 1.390594 1_555
B5 O17 1.411188 1_555
