# generated using pymatgen
data_Yb2CdSe4
_symmetry_space_group_name_H-M   'P 1'
_cell_length_a   8.18799938
_cell_length_b   8.18799938
_cell_length_c   8.18799938
_cell_angle_alpha   60.00000000
_cell_angle_beta   60.00000000
_cell_angle_gamma   60.00000000
_symmetry_Int_Tables_number   1
_chemical_formula_structural   Yb2CdSe4
_chemical_formula_sum   'Yb4 Cd2 Se8'
_cell_volume   388.16681621
_cell_formula_units_Z   2
loop_
 _symmetry_equiv_pos_site_id
 _symmetry_equiv_pos_as_xyz
  1  'x, y, z'
loop_
 _atom_site_type_symbol
 _atom_site_label
 _atom_site_symmetry_multiplicity
 _atom_site_fract_x
 _atom_site_fract_y
 _atom_site_fract_z
 _atom_site_occupancy
  Yb  Yb0  1  0.12500000  0.12500000  0.62500000  1
  Yb  Yb1  1  0.12500000  0.62500000  0.12500000  1
  Yb  Yb2  1  0.62500000  0.12500000  0.12500000  1
  Yb  Yb3  1  0.12500000  0.12500000  0.12500000  1
  Cd  Cd0  1  0.75000000  0.75000000  0.75000000  1
  Cd  Cd1  1  0.50000000  0.50000000  0.50000000  1
  Se  Se0  1  0.88277917  0.35166350  0.88277917  1
  Se  Se1  1  0.36722083  0.36722083  0.89833650  1
  Se  Se2  1  0.36722083  0.36722083  0.36722083  1
  Se  Se3  1  0.89833650  0.36722083  0.36722083  1
  Se  Se4  1  0.88277917  0.88277917  0.88277917  1
  Se  Se5  1  0.35166350  0.88277917  0.88277917  1
  Se  Se6  1  0.36722083  0.89833650  0.36722083  1
  Se  Se7  1  0.88277917  0.88277917  0.35166350  1
loop_
_geom_bond_atom_site_label_1
_geom_bond_atom_site_label_2
_geom_bond_distance
_geom_bond_site_symmetry_2
Cd0 Se7 2.663068 1_555
Cd0 Se0 2.663068 1_555
Cd0 Se5 2.663068 1_555
Cd0 Se4 2.663075 1_555
Cd1 Se6 2.663068 1_555
Cd1 Se3 2.663068 1_555
Cd1 Se1 2.663068 1_555
Cd1 Se2 2.663075 1_555
Se0 Yb3 2.807707 1_656
Se0 Yb2 2.807713 1_556
Se0 Yb0 2.807713 1_655
Se1 Yb3 2.807707 1_556
Se1 Yb2 2.807713 1_556
Se1 Yb1 2.807713 1_556
Se2 Yb0 2.807707 1_555
Se2 Yb1 2.807707 1_555
Se2 Yb2 2.807707 1_555
Se3 Yb3 2.807707 1_655
Se3 Yb1 2.807713 1_655
Se3 Yb0 2.807713 1_655
Se4 Yb1 2.807707 1_656
Se4 Yb2 2.807707 1_566
Se4 Yb0 2.807707 1_665
Se5 Yb3 2.807707 1_566
Se5 Yb1 2.807713 1_556
Se5 Yb0 2.807713 1_565
Se6 Yb3 2.807707 1_565
Se6 Yb2 2.807713 1_565
Se6 Yb0 2.807713 1_565
Se7 Yb3 2.807707 1_665
Se7 Yb1 2.807713 1_655
Se7 Yb2 2.807713 1_565
