# generated using pymatgen
data_Li4Cr3Co3(WO8)2
_symmetry_space_group_name_H-M   'P 1'
_cell_length_a   5.94138069
_cell_length_b   5.94138069
_cell_length_c   9.67372075
_cell_angle_alpha   89.57649525
_cell_angle_beta   89.57649525
_cell_angle_gamma   60.11344966
_symmetry_Int_Tables_number   1
_chemical_formula_structural   Li4Cr3Co3(WO8)2
_chemical_formula_sum   'Li4 Cr3 Co3 W2 O16'
_cell_volume   296.05912444
_cell_formula_units_Z   1
loop_
 _symmetry_equiv_pos_site_id
 _symmetry_equiv_pos_as_xyz
  1  'x, y, z'
loop_
 _atom_site_type_symbol
 _atom_site_label
 _atom_site_symmetry_multiplicity
 _atom_site_fract_x
 _atom_site_fract_y
 _atom_site_fract_z
 _atom_site_occupancy
  Li  Li0  1  0.67084100  0.67084100  0.09093800  1
  Li  Li1  1  0.99716500  0.99716500  0.01344400  1
  Li  Li2  1  0.99732600  0.99732600  0.50669200  1
  Li  Li3  1  0.33512200  0.33512200  0.59659300  1
  Cr  Cr0  1  0.33627900  0.83124500  0.78693200  1
  Cr  Cr1  1  0.83124500  0.33627900  0.78693200  1
  Cr  Cr2  1  0.17201300  0.17201300  0.28601900  1
  Co  Co0  1  0.82792700  0.82792700  0.78624300  1
  Co  Co1  1  0.17541300  0.65789800  0.28556700  1
  Co  Co2  1  0.65789800  0.17541300  0.28556700  1
  W  W0  1  0.66940400  0.66940400  0.51281400  1
  W  W1  1  0.33307700  0.33307700  0.01339600  1
  O  O0  1  0.34896900  0.84133600  0.41628700  1
  O  O1  1  0.52081900  0.52081900  0.65802400  1
  O  O2  1  0.66864800  0.66864800  0.88772700  1
  O  O3  1  0.99481700  0.99481700  0.69451100  1
  O  O4  1  0.99978000  0.99978000  0.20111600  1
  O  O5  1  0.84133600  0.34896900  0.41628700  1
  O  O6  1  0.52698400  0.95786900  0.66272500  1
  O  O7  1  0.95786900  0.52698400  0.66272500  1
  O  O8  1  0.16740000  0.16740000  0.90250300  1
  O  O9  1  0.82841700  0.82841700  0.42110000  1
  O  O10  1  0.03816300  0.46629200  0.14536600  1
  O  O11  1  0.46629200  0.03816300  0.14536600  1
  O  O12  1  0.33429800  0.33429800  0.39108500  1
  O  O13  1  0.15737500  0.66014600  0.90342100  1
  O  O14  1  0.48296200  0.48296200  0.12935000  1
  O  O15  1  0.66014600  0.15737500  0.90342100  1
loop_
_geom_bond_atom_site_label_1
_geom_bond_atom_site_label_2
_geom_bond_distance
_geom_bond_site_symmetry_2
Li0 O14 1.964599 1_555
Li0 O2 1.966128 1_554
Li0 O10 1.970129 1_655
Li0 O11 1.970129 1_565
Li1 O4 1.815915 1_555
Li1 O15 2.040927 1_564
Li1 O13 2.040927 1_654
Li1 O8 2.045766 1_664
Li2 O3 1.816871 1_555
Li2 O9 1.930813 1_555
Li2 O0 2.010982 1_655
Li2 O5 2.010982 1_565
Li3 O12 1.988117 1_555
Li3 O1 2.005031 1_555
Li3 O7 2.043504 1_455
Li3 O6 2.043504 1_545
Cr0 O2 1.974072 1_555
Cr0 O3 1.977060 1_455
Cr0 O6 2.027191 1_555
Cr0 O1 2.038968 1_555
Cr0 O8 2.065171 1_565
Cr0 O13 2.115489 1_555
Cr1 O2 1.974072 1_555
Cr1 O3 1.977060 1_545
Cr1 O7 2.027191 1_555
Cr1 O1 2.038968 1_555
Cr1 O8 2.065171 1_655
Cr1 O15 2.115489 1_555
Cr2 O4 1.958896 1_445
Cr2 O12 1.961591 1_555
Cr2 O10 2.033693 1_555
Cr2 O11 2.033693 1_555
Cr2 O5 2.116094 1_455
Cr2 O0 2.116094 1_545
Co0 O2 1.902606 1_555
Co0 O3 1.925520 1_555
Co0 O7 1.965464 1_555
Co0 O6 1.965464 1_555
Co0 O15 2.044882 1_565
Co0 O13 2.044882 1_655
Co1 O4 1.938562 1_455
Co1 O12 1.950917 1_555
Co1 O10 2.182817 1_555
Co1 O14 2.189206 1_555
Co1 O9 2.212220 1_455
Co1 O0 2.238267 1_555
Co2 O4 1.938562 1_545
Co2 O12 1.950917 1_555
Co2 O11 2.182817 1_555
Co2 O14 2.189206 1_555
Co2 O9 2.212220 1_545
Co2 O5 2.238267 1_555
O0 W0 1.901065 1_555
O1 W0 2.066860 1_555
O5 W0 1.901065 1_555
O6 W0 2.080819 1_555
O7 W0 2.080819 1_555
O8 W1 2.021267 1_556
O9 W0 1.853915 1_555
O10 W1 1.981475 1_555
O11 W1 1.981475 1_555
O13 W1 1.990477 1_556
O14 W1 1.914193 1_555
O15 W1 1.990477 1_556
