# generated using pymatgen
data_Li2LaSn
_symmetry_space_group_name_H-M   'P 1'
_cell_length_a   4.96393009
_cell_length_b   4.96393009
_cell_length_c   4.96393009
_cell_angle_alpha   60.00000000
_cell_angle_beta   60.00000000
_cell_angle_gamma   60.00000000
_symmetry_Int_Tables_number   1
_chemical_formula_structural   Li2LaSn
_chemical_formula_sum   'Li2 La1 Sn1'
_cell_volume   86.48921836
_cell_formula_units_Z   1
loop_
 _symmetry_equiv_pos_site_id
 _symmetry_equiv_pos_as_xyz
  1  'x, y, z'
loop_
 _atom_site_type_symbol
 _atom_site_label
 _atom_site_symmetry_multiplicity
 _atom_site_fract_x
 _atom_site_fract_y
 _atom_site_fract_z
 _atom_site_occupancy
  Li  Li0  1  -0.00000000  0.00000000  -0.00000000  1
  Li  Li1  1  0.50000100  0.50000100  0.50000100  1
  La  La0  1  0.25000100  0.25000100  0.25000100  1
  Sn  Sn0  1  0.75000000  0.75000000  0.75000000  1
loop_
_geom_bond_atom_site_label_1
_geom_bond_atom_site_label_2
_geom_bond_distance
_geom_bond_site_symmetry_2
Li0 Sn0 3.039774 1_544
Li0 Sn0 3.039774 1_444
Li0 Sn0 3.039774 1_445
Li0 Sn0 3.039774 1_454
Li1 Sn0 3.039762 1_555
Li1 Sn0 3.039778 1_455
Li1 Sn0 3.039778 1_554
Li1 Sn0 3.039778 1_545
La0 Li0 3.039770 1_655
La0 Li0 3.039770 1_556
La0 Li0 3.039770 1_565
La0 Li1 3.039774 1_455
La0 Li1 3.039774 1_545
La0 Li1 3.039774 1_554
La0 Li1 3.039774 1_555
La0 Li0 3.039786 1_555
