# generated using pymatgen
data_Dy2IrRh
_symmetry_space_group_name_H-M   'P 1'
_cell_length_a   4.81504940
_cell_length_b   4.81504940
_cell_length_c   4.81504940
_cell_angle_alpha   60.00000000
_cell_angle_beta   60.00000000
_cell_angle_gamma   60.00000000
_symmetry_Int_Tables_number   1
_chemical_formula_structural   Dy2IrRh
_chemical_formula_sum   'Dy2 Ir1 Rh1'
_cell_volume   78.93820427
_cell_formula_units_Z   1
loop_
 _symmetry_equiv_pos_site_id
 _symmetry_equiv_pos_as_xyz
  1  'x, y, z'
loop_
 _atom_site_type_symbol
 _atom_site_label
 _atom_site_symmetry_multiplicity
 _atom_site_fract_x
 _atom_site_fract_y
 _atom_site_fract_z
 _atom_site_occupancy
  Dy  Dy0  1  0.00000000  -0.00000000  0.00000000  1
  Dy  Dy1  1  0.50000000  0.50000000  0.50000000  1
  Ir  Ir0  1  0.25000100  0.25000100  0.25000100  1
  Rh  Rh0  1  0.75000100  0.75000100  0.75000100  1
loop_
_geom_bond_atom_site_label_1
_geom_bond_atom_site_label_2
_geom_bond_distance
_geom_bond_site_symmetry_2
Dy0 Rh0 2.948592 1_444
Dy0 Ir0 2.948600 1_554
Dy0 Ir0 2.948600 1_455
Dy0 Ir0 2.948600 1_545
Dy0 Rh0 2.948607 1_454
Dy0 Rh0 2.948607 1_544
Dy0 Rh0 2.948607 1_445
Dy0 Ir0 2.948615 1_555
Dy1 Ir0 2.948592 1_555
Dy1 Rh0 2.948600 1_545
Dy1 Rh0 2.948600 1_554
Dy1 Rh0 2.948600 1_455
Dy1 Ir0 2.948607 1_556
Dy1 Ir0 2.948607 1_565
Dy1 Ir0 2.948607 1_655
Dy1 Rh0 2.948615 1_555
