# generated using pymatgen
data_CaAs
_symmetry_space_group_name_H-M   'P 1'
_cell_length_a   7.86585186
_cell_length_b   7.86585184
_cell_length_c   5.95347480
_cell_angle_alpha   90.00000000
_cell_angle_beta   90.00000000
_cell_angle_gamma   119.99999587
_symmetry_Int_Tables_number   1
_chemical_formula_structural   CaAs
_chemical_formula_sum   'Ca6 As6'
_cell_volume   319.00147730
_cell_formula_units_Z   6
loop_
 _symmetry_equiv_pos_site_id
 _symmetry_equiv_pos_as_xyz
  1  'x, y, z'
loop_
 _atom_site_type_symbol
 _atom_site_label
 _atom_site_symmetry_multiplicity
 _atom_site_fract_x
 _atom_site_fract_y
 _atom_site_fract_z
 _atom_site_occupancy
  Ca  Ca0  1  0.31387647  -0.00000000  0.00000000  1
  Ca  Ca1  1  0.68612353  0.68612353  0.00000000  1
  Ca  Ca2  1  -0.00000000  0.31387647  0.00000000  1
  Ca  Ca3  1  0.64835885  -0.00000000  0.50000000  1
  Ca  Ca4  1  0.35164115  0.35164115  0.50000000  1
  Ca  Ca5  1  -0.00000000  0.64835885  0.50000000  1
  As  As0  1  0.00000000  0.00000000  0.29073642  1
  As  As1  1  0.00000000  0.00000000  0.70926358  1
  As  As2  1  0.33333300  0.66666700  0.21359633  1
  As  As3  1  0.33333300  0.66666700  0.78640367  1
  As  As4  1  0.66666700  0.33333300  0.78640367  1
  As  As5  1  0.66666700  0.33333300  0.21359633  1
loop_
_geom_bond_atom_site_label_1
_geom_bond_atom_site_label_2
_geom_bond_distance
_geom_bond_site_symmetry_2
As0 As1 2.491691 1_555
As0 Ca2 3.015209 1_555
As0 Ca0 3.015209 1_555
As0 Ca1 3.015209 1_445
As0 Ca5 3.033587 1_545
As0 Ca3 3.033587 1_455
As0 Ca4 3.033587 1_555
As1 Ca2 3.015209 1_556
As1 Ca0 3.015209 1_556
As1 Ca1 3.015209 1_446
As1 Ca5 3.033587 1_545
As1 Ca3 3.033587 1_455
As1 Ca4 3.033587 1_555
As2 As3 2.543281 1_554
As2 Ca0 2.986029 1_565
As2 Ca2 2.986033 1_555
As2 Ca1 2.986036 1_555
As2 Ca5 3.070036 1_555
As2 Ca3 3.070039 1_565
As2 Ca4 3.070043 1_555
As3 Ca0 2.986029 1_566
As3 Ca2 2.986033 1_556
As3 Ca1 2.986036 1_556
As3 Ca5 3.070036 1_555
As3 Ca3 3.070039 1_565
As3 Ca4 3.070043 1_555
As4 As5 2.543281 1_556
As4 Ca2 2.986029 1_656
As4 Ca0 2.986033 1_556
As4 Ca1 2.986036 1_556
As4 Ca3 3.070036 1_555
As4 Ca5 3.070039 1_655
As4 Ca4 3.070043 1_555
As5 Ca2 2.986029 1_655
As5 Ca0 2.986033 1_555
As5 Ca1 2.986036 1_555
As5 Ca3 3.070036 1_555
As5 Ca5 3.070039 1_655
As5 Ca4 3.070043 1_555
