# generated using pymatgen
data_LiMn2(BO3)2
_symmetry_space_group_name_H-M   'P 1'
_cell_length_a   5.30948200
_cell_length_b   5.80472670
_cell_length_c   12.44055259
_cell_angle_alpha   92.59823652
_cell_angle_beta   102.29625389
_cell_angle_gamma   90.39607826
_symmetry_Int_Tables_number   1
_chemical_formula_structural   LiMn2(BO3)2
_chemical_formula_sum   'Li3 Mn6 B6 O18'
_cell_volume   374.18411313
_cell_formula_units_Z   3
loop_
 _symmetry_equiv_pos_site_id
 _symmetry_equiv_pos_as_xyz
  1  'x, y, z'
loop_
 _atom_site_type_symbol
 _atom_site_label
 _atom_site_symmetry_multiplicity
 _atom_site_fract_x
 _atom_site_fract_y
 _atom_site_fract_z
 _atom_site_occupancy
  Li  Li0  1  0.42730800  0.13978000  0.17444000  1
  Li  Li1  1  0.90546600  0.18667400  0.48520200  1
  Li  Li2  1  0.57754700  0.84989300  0.81975200  1
  Mn  Mn0  1  0.05136000  0.03520700  0.71660700  1
  Mn  Mn1  1  0.27637200  0.31705300  0.94536800  1
  Mn  Mn2  1  0.37876100  0.36715500  0.38037100  1
  Mn  Mn3  1  0.61483100  0.64212700  0.60987300  1
  Mn  Mn4  1  0.73196100  0.68327800  0.05672300  1
  Mn  Mn5  1  0.96757500  0.95124200  0.28663800  1
  B  B0  1  0.47475300  0.14513300  0.60537600  1
  B  B1  1  0.85909600  0.18582300  0.06650100  1
  B  B2  1  0.81394400  0.46150800  0.27624900  1
  B  B3  1  0.18459600  0.53708800  0.72694000  1
  B  B4  1  0.14588700  0.81045500  0.93643300  1
  B  B5  1  0.52252300  0.86391800  0.39064500  1
  O  O0  1  0.36040400  0.02562700  0.32769300  1
  O  O1  1  0.74395600  0.01247900  0.11984800  1
  O  O2  1  0.21141500  0.13357600  0.59364300  1
  O  O3  1  0.11552200  0.19332200  0.07188400  1
  O  O4  1  0.58197500  0.28901900  0.53732800  1
  O  O5  1  0.98132200  0.32560000  0.34798300  1
  O  O6  1  0.68704600  0.35046600  0.01629900  1
  O  O7  1  0.08016800  0.35469900  0.77569400  1
  O  O8  1  0.55120200  0.43150500  0.26068800  1
  O  O9  1  0.44144100  0.56426100  0.73619600  1
  O  O10  1  0.91130700  0.61759800  0.21356800  1
  O  O11  1  0.32487400  0.66788600  0.99602100  1
  O  O12  1  0.00905500  0.70009700  0.67670800  1
  O  O13  1  0.40670800  0.68888100  0.43861200  1
  O  O14  1  0.88484400  0.79341800  0.93219200  1
  O  O15  1  0.78110900  0.88844200  0.40888100  1
  O  O16  1  0.24357900  0.96931500  0.87158200  1
  O  O17  1  0.63984000  0.00774500  0.67630300  1
loop_
_geom_bond_atom_site_label_1
_geom_bond_atom_site_label_2
_geom_bond_distance
_geom_bond_site_symmetry_2
Li0 O3 1.899547 1_555
Li0 O8 1.992680 1_555
Li0 O1 2.071682 1_555
Li0 O0 2.144750 1_555
Li1 O2 1.914408 1_655
Li1 O15 1.975477 1_545
Li1 O5 2.034656 1_555
Li1 O4 2.043793 1_555
Li2 O14 1.950154 1_555
Li2 O9 1.964431 1_555
Li2 O16 2.122260 1_555
Li2 O17 2.128188 1_565
Mn0 O7 1.956458 1_555
Mn0 O12 1.984855 1_545
Mn0 O2 2.003627 1_555
Mn0 O16 2.034487 1_545
Mn0 O17 2.138263 1_455
Mn1 O3 2.094996 1_556
Mn1 O11 2.101899 1_555
Mn1 O7 2.167252 1_555
Mn1 O16 2.169433 1_545
Mn1 O6 2.174815 1_556
Mn2 O8 1.954745 1_555
Mn2 O13 1.965289 1_555
Mn2 O0 2.054634 1_555
Mn2 O5 2.072549 1_455
Mn2 O4 2.091015 1_555
Mn3 O9 2.048510 1_555
Mn3 O12 2.099847 1_655
Mn3 O4 2.192367 1_555
Mn3 O13 2.210857 1_555
Mn3 O17 2.234987 1_565
Mn4 O6 1.973933 1_555
Mn4 O14 2.021396 1_554
Mn4 O1 2.028139 1_565
Mn4 O10 2.034823 1_555
Mn4 O11 2.132133 1_554
Mn5 O15 2.027898 1_555
Mn5 O0 2.076377 1_665
Mn5 O10 2.093599 1_555
Mn5 O1 2.205646 1_565
Mn5 O5 2.265745 1_565
B0 O2 1.375364 1_555
B0 O17 1.388136 1_555
B0 O4 1.414618 1_555
B1 O3 1.349116 1_655
B1 O6 1.400389 1_555
B1 O1 1.432306 1_555
B2 O8 1.375666 1_555
B2 O10 1.387633 1_555
B2 O5 1.394371 1_555
B3 O9 1.351425 1_555
B3 O12 1.404372 1_555
B3 O7 1.410505 1_555
B4 O14 1.378424 1_455
B4 O11 1.379845 1_555
B4 O16 1.417519 1_555
B5 O15 1.348498 1_555
B5 O13 1.403276 1_555
B5 O0 1.423399 1_565
