# generated using pymatgen
data_Rb2Mo3(As2O11)2
_symmetry_space_group_name_H-M   'P 1'
_cell_length_a   11.89022554
_cell_length_b   11.89022554
_cell_length_c   9.64491051
_cell_angle_alpha   83.19366248
_cell_angle_beta   83.19366248
_cell_angle_gamma   50.22346972
_symmetry_Int_Tables_number   1
_chemical_formula_structural   Rb2Mo3(As2O11)2
_chemical_formula_sum   'Rb4 Mo6 As8 O44'
_cell_volume   1038.95304719
_cell_formula_units_Z   2
loop_
 _symmetry_equiv_pos_site_id
 _symmetry_equiv_pos_as_xyz
  1  'x, y, z'
loop_
 _atom_site_type_symbol
 _atom_site_label
 _atom_site_symmetry_multiplicity
 _atom_site_fract_x
 _atom_site_fract_y
 _atom_site_fract_z
 _atom_site_occupancy
  Rb  Rb0  1  0.64370200  0.10725200  0.62442300  1
  Rb  Rb1  1  0.89274800  0.35629800  0.87557700  1
  Rb  Rb2  1  0.35629800  0.89274800  0.37557700  1
  Rb  Rb3  1  0.10725200  0.64370200  0.12442300  1
  Mo  Mo0  1  0.66556500  0.97575600  0.22755900  1
  Mo  Mo1  1  0.02424400  0.33443500  0.27244100  1
  Mo  Mo2  1  0.33443500  0.02424400  0.77244100  1
  Mo  Mo3  1  0.97575600  0.66556500  0.72755900  1
  Mo  Mo4  1  0.55088900  0.44911100  0.25000000  1
  Mo  Mo5  1  0.44911100  0.55088900  0.75000000  1
  As  As0  1  0.31909200  0.19910800  0.05770300  1
  As  As1  1  0.80089200  0.68090800  0.44229700  1
  As  As2  1  0.68090800  0.80089200  0.94229700  1
  As  As3  1  0.19910800  0.31909200  0.55770300  1
  As  As4  1  0.52548700  0.28412500  0.01054000  1
  As  As5  1  0.71587500  0.47451300  0.48946000  1
  As  As6  1  0.47451300  0.71587500  0.98946000  1
  As  As7  1  0.28412500  0.52548700  0.51054000  1
  O  O0  1  0.24306200  0.17441400  0.94000300  1
  O  O1  1  0.82558600  0.75693800  0.55999700  1
  O  O2  1  0.75693800  0.82558600  0.05999700  1
  O  O3  1  0.17441400  0.24306200  0.44000300  1
  O  O4  1  0.17918100  0.33939900  0.16244900  1
  O  O5  1  0.66060100  0.82081900  0.33755100  1
  O  O6  1  0.82081900  0.66060100  0.83755100  1
  O  O7  1  0.33939900  0.17918100  0.66244900  1
  O  O8  1  0.45611000  0.04628800  0.14691900  1
  O  O9  1  0.95371200  0.54389000  0.35308100  1
  O  O10  1  0.54389000  0.95371200  0.85308100  1
  O  O11  1  0.04628800  0.45611000  0.64691900  1
  O  O12  1  0.38564600  0.28626900  0.95918600  1
  O  O13  1  0.71373100  0.61435400  0.54081400  1
  O  O14  1  0.61435400  0.71373100  0.04081400  1
  O  O15  1  0.28626900  0.38564600  0.45918600  1
  O  O16  1  0.66344900  0.10842400  0.06862000  1
  O  O17  1  0.89157600  0.33655100  0.43138000  1
  O  O18  1  0.33655100  0.89157600  0.93138000  1
  O  O19  1  0.10842400  0.66344900  0.56862000  1
  O  O20  1  0.58194500  0.33003300  0.86184100  1
  O  O21  1  0.66996700  0.41805500  0.63815900  1
  O  O22  1  0.41805500  0.66996700  0.13815900  1
  O  O23  1  0.33003300  0.58194500  0.36184100  1
  O  O24  1  0.44342500  0.40691000  0.14122400  1
  O  O25  1  0.59309000  0.55657500  0.35877600  1
  O  O26  1  0.55657500  0.59309000  0.85877600  1
  O  O27  1  0.40691000  0.44342500  0.64122400  1
  O  O28  1  0.55483400  0.10944400  0.34697300  1
  O  O29  1  0.89055600  0.44516600  0.15302700  1
  O  O30  1  0.44516600  0.89055600  0.65302700  1
  O  O31  1  0.10944400  0.55483400  0.84697300  1
  O  O32  1  0.84143200  0.89453700  0.27072100  1
  O  O33  1  0.10546300  0.15856800  0.22927900  1
  O  O34  1  0.15856800  0.10546300  0.72927900  1
  O  O35  1  0.89453700  0.84143200  0.77072100  1
  O  O36  1  0.69371300  0.37880300  0.12405000  1
  O  O37  1  0.62119700  0.30628700  0.37595000  1
  O  O38  1  0.30628700  0.62119700  0.87595000  1
  O  O39  1  0.37880300  0.69371300  0.62405000  1
  O  O40  1  0.96645700  0.03251300  0.55369100  1
  O  O41  1  0.96748700  0.03354300  0.94630900  1
  O  O42  1  0.03354300  0.96748700  0.44630900  1
  O  O43  1  0.03251300  0.96645700  0.05369100  1
loop_
_geom_bond_atom_site_label_1
_geom_bond_atom_site_label_2
_geom_bond_distance
_geom_bond_site_symmetry_2
Mo0 O28 1.727208 1_565
Mo0 O32 1.733677 1_555
Mo0 O5 2.045435 1_555
Mo0 O16 2.055266 1_565
Mo0 O2 2.183102 1_555
Mo0 O8 2.267735 1_565
Mo1 O29 1.727208 1_455
Mo1 O33 1.733677 1_555
Mo1 O4 2.045435 1_555
Mo1 O17 2.055266 1_455
Mo1 O3 2.183102 1_555
Mo1 O9 2.267735 1_455
Mo2 O30 1.727208 1_545
Mo2 O34 1.733677 1_555
Mo2 O7 2.045435 1_555
Mo2 O18 2.055266 1_545
Mo2 O0 2.183102 1_555
Mo2 O10 2.267735 1_545
Mo3 O31 1.727208 1_655
Mo3 O35 1.733677 1_555
Mo3 O6 2.045435 1_555
Mo3 O19 2.055266 1_655
Mo3 O1 2.183102 1_555
Mo3 O11 2.267735 1_655
Mo4 O37 1.730202 1_555
Mo4 O36 1.730202 1_555
Mo4 O24 2.061095 1_555
Mo4 O25 2.061095 1_555
Mo4 O23 2.231446 1_555
Mo4 O22 2.231446 1_555
Mo5 O38 1.730202 1_555
Mo5 O39 1.730202 1_555
Mo5 O27 2.061095 1_555
Mo5 O26 2.061095 1_555
Mo5 O20 2.231446 1_555
Mo5 O21 2.231446 1_555
As0 O0 1.689392 1_554
As0 O8 1.694122 1_555
As0 O4 1.738066 1_555
As0 O12 1.800252 1_554
As1 O1 1.689392 1_555
As1 O9 1.694122 1_555
As1 O5 1.738066 1_555
As1 O13 1.800252 1_555
As2 O2 1.689392 1_556
As2 O10 1.694122 1_555
As2 O6 1.738066 1_555
As2 O14 1.800252 1_556
As3 O3 1.689392 1_555
As3 O11 1.694122 1_555
As3 O7 1.738066 1_555
As3 O15 1.800252 1_555
As4 O20 1.691336 1_554
As4 O16 1.710092 1_555
As4 O24 1.730332 1_555
As4 O12 1.774446 1_554
As5 O21 1.691336 1_555
As5 O17 1.710092 1_555
As5 O25 1.730332 1_555
As5 O13 1.774446 1_555
As6 O22 1.691336 1_556
As6 O18 1.710092 1_555
As6 O26 1.730332 1_555
As6 O14 1.774446 1_556
As7 O23 1.691336 1_555
As7 O19 1.710092 1_555
As7 O27 1.730332 1_555
As7 O15 1.774446 1_555
O0 Rb1 3.343842 1_455
O1 Rb0 3.343842 1_565
O2 Rb3 3.343842 1_655
O3 Rb2 3.343842 1_545
O4 Rb3 3.123729 1_555
O5 Rb2 3.123729 1_555
O6 Rb1 3.123729 1_555
O7 Rb0 3.123729 1_555
O8 Rb2 3.286760 1_545
O9 Rb3 3.286760 1_655
O10 Rb0 3.286760 1_565
O11 Rb1 3.286760 1_455
O20 Rb0 3.368936 1_555
O21 Rb1 3.368936 1_555
O22 Rb2 3.368936 1_555
O23 Rb3 3.368936 1_555
O24 Rb3 3.094435 1_555
O25 Rb2 3.094435 1_555
O26 Rb1 3.094435 1_555
O27 Rb0 3.094435 1_555
O28 Rb0 2.982705 1_555
O29 Rb1 2.982705 1_554
O30 Rb2 2.982705 1_555
O31 Rb3 2.982705 1_556
O32 Rb3 2.958749 1_655
O33 Rb2 2.958749 1_545
O34 Rb1 2.958749 1_455
O35 Rb0 2.958749 1_565
O36 Rb1 3.068037 1_554
O37 Rb0 3.068037 1_555
O38 Rb3 3.068037 1_556
O39 Rb2 3.068037 1_555
O40 O42 1.229448 1_645
O40 Rb0 3.337935 1_555
O41 O43 1.229448 1_646
O41 Rb1 3.337935 1_555
O42 Rb2 3.337935 1_555
O43 Rb3 3.337935 1_555
