# generated using pymatgen
data_LiSiRh2
_symmetry_space_group_name_H-M   'P 1'
_cell_length_a   4.06544082
_cell_length_b   4.06544082
_cell_length_c   4.06544082
_cell_angle_alpha   60.00000000
_cell_angle_beta   60.00000000
_cell_angle_gamma   60.00000000
_symmetry_Int_Tables_number   1
_chemical_formula_structural   LiSiRh2
_chemical_formula_sum   'Li1 Si1 Rh2'
_cell_volume   47.51250536
_cell_formula_units_Z   1
loop_
 _symmetry_equiv_pos_site_id
 _symmetry_equiv_pos_as_xyz
  1  'x, y, z'
loop_
 _atom_site_type_symbol
 _atom_site_label
 _atom_site_symmetry_multiplicity
 _atom_site_fract_x
 _atom_site_fract_y
 _atom_site_fract_z
 _atom_site_occupancy
  Li  Li0  1  0.24999900  0.24999900  0.24999900  1
  Si  Si0  1  0.74999900  0.74999900  0.74999900  1
  Rh  Rh0  1  -0.00000000  -0.00000000  -0.00000000  1
  Rh  Rh1  1  0.50000000  0.50000000  0.50000000  1
loop_
_geom_bond_atom_site_label_1
_geom_bond_atom_site_label_2
_geom_bond_distance
_geom_bond_site_symmetry_2
Li0 Rh0 2.489554 1_555
Li0 Rh1 2.489561 1_455
Li0 Rh1 2.489561 1_554
Li0 Rh1 2.489561 1_545
Li0 Rh0 2.489567 1_565
Li0 Rh0 2.489567 1_556
Li0 Rh0 2.489567 1_655
Li0 Rh1 2.489574 1_555
Li0 Si0 2.874701 1_455
Li0 Si0 2.874701 1_544
Li0 Si0 2.874701 1_454
Li0 Si0 2.874701 1_545
Li0 Si0 2.874701 1_445
Li0 Si0 2.874701 1_554
Rh0 Si0 2.489561 1_544
Rh0 Si0 2.489561 1_454
Rh0 Si0 2.489561 1_445
Rh0 Si0 2.489574 1_444
Rh1 Si0 2.489554 1_555
Rh1 Si0 2.489567 1_554
Rh1 Si0 2.489567 1_545
Rh1 Si0 2.489567 1_455
