# generated using pymatgen
data_PmAgHg2
_symmetry_space_group_name_H-M   'P 1'
_cell_length_a   5.05507355
_cell_length_b   5.05507355
_cell_length_c   5.05507355
_cell_angle_alpha   60.00000000
_cell_angle_beta   60.00000000
_cell_angle_gamma   60.00000000
_symmetry_Int_Tables_number   1
_chemical_formula_structural   PmAgHg2
_chemical_formula_sum   'Pm1 Ag1 Hg2'
_cell_volume   91.34135292
_cell_formula_units_Z   1
loop_
 _symmetry_equiv_pos_site_id
 _symmetry_equiv_pos_as_xyz
  1  'x, y, z'
loop_
 _atom_site_type_symbol
 _atom_site_label
 _atom_site_symmetry_multiplicity
 _atom_site_fract_x
 _atom_site_fract_y
 _atom_site_fract_z
 _atom_site_occupancy
  Pm  Pm0  1  0.75000100  0.75000100  0.75000100  1
  Ag  Ag0  1  0.25000100  0.25000100  0.25000100  1
  Hg  Hg0  1  0.00000000  -0.00000000  -0.00000000  1
  Hg  Hg1  1  0.50000000  0.50000000  0.50000000  1
loop_
_geom_bond_atom_site_label_1
_geom_bond_atom_site_label_2
_geom_bond_distance
_geom_bond_site_symmetry_2
Ag0 Hg1 3.095575 1_555
Ag0 Hg0 3.095584 1_655
Ag0 Hg0 3.095584 1_556
Ag0 Hg0 3.095584 1_565
Ag0 Hg1 3.095592 1_545
Ag0 Hg1 3.095592 1_554
Ag0 Hg1 3.095592 1_455
Ag0 Hg0 3.095600 1_555
Ag0 Pm0 3.574477 1_554
Ag0 Pm0 3.574477 1_545
Ag0 Pm0 3.574477 1_455
Ag0 Pm0 3.574477 1_454
Ag0 Pm0 3.574477 1_544
Ag0 Pm0 3.574477 1_445
Hg0 Pm0 3.095575 1_444
Hg0 Pm0 3.095592 1_544
Hg0 Pm0 3.095592 1_445
Hg0 Pm0 3.095592 1_454
Hg1 Pm0 3.095584 1_554
Hg1 Pm0 3.095584 1_545
Hg1 Pm0 3.095584 1_455
Hg1 Pm0 3.095600 1_555
