# generated using pymatgen
data_Rb2MnTe2
_symmetry_space_group_name_H-M   'P 1'
_cell_length_a   7.12103337
_cell_length_b   7.68500995
_cell_length_c   9.04471991
_cell_angle_alpha   115.14016462
_cell_angle_beta   113.18224044
_cell_angle_gamma   89.99999430
_symmetry_Int_Tables_number   1
_chemical_formula_structural   Rb2MnTe2
_chemical_formula_sum   'Rb4 Mn2 Te4'
_cell_volume   403.50271760
_cell_formula_units_Z   2
loop_
 _symmetry_equiv_pos_site_id
 _symmetry_equiv_pos_as_xyz
  1  'x, y, z'
loop_
 _atom_site_type_symbol
 _atom_site_label
 _atom_site_symmetry_multiplicity
 _atom_site_fract_x
 _atom_site_fract_y
 _atom_site_fract_z
 _atom_site_occupancy
  Rb  Rb0  1  0.14396778  0.46839384  0.28793656  1
  Rb  Rb1  1  0.64396778  0.81954172  0.28793656  1
  Rb  Rb2  1  0.85603222  0.53160616  0.71206344  1
  Rb  Rb3  1  0.35603222  0.18045828  0.71206344  1
  Mn  Mn0  1  0.75000000  -0.00000000  0.00000000  1
  Mn  Mn1  1  0.25000000  -0.00000000  0.00000000  1
  Te  Te0  1  0.89554995  0.08700129  0.79109789  1
  Te  Te1  1  0.10445005  0.91299871  0.20890211  1
  Te  Te2  1  0.60445005  0.29590340  0.20890211  1
  Te  Te3  1  0.39554995  0.70409660  0.79109789  1
loop_
_geom_bond_atom_site_label_1
_geom_bond_atom_site_label_2
_geom_bond_distance
_geom_bond_site_symmetry_2
Rb0 Te3 3.711941 1_555
Rb0 Te2 3.749816 1_555
Rb0 Te2 3.749823 1_455
Rb0 Te1 3.765844 1_555
Rb0 Te0 3.803178 1_454
Rb0 Te1 4.007126 1_545
Rb1 Te0 3.711941 1_565
Rb1 Te1 3.749818 1_655
Rb1 Te1 3.749825 1_555
Rb1 Te2 3.765836 1_555
Rb1 Te3 3.803180 1_554
Rb1 Te2 4.007134 1_565
Rb2 Te2 3.711941 1_555
Rb2 Te3 3.749816 1_555
Rb2 Te3 3.749823 1_655
Rb2 Te0 3.765844 1_555
Rb2 Te1 3.803178 1_656
Rb2 Te0 4.007126 1_565
Rb3 Te1 3.711941 1_545
Rb3 Te0 3.749818 1_455
Rb3 Te0 3.749825 1_555
Rb3 Te3 3.765836 1_555
Rb3 Te2 3.803180 1_556
Rb3 Te3 4.007134 1_545
Mn0 Te1 2.776066 1_645
Mn0 Te3 2.776066 1_544
Mn0 Te2 2.776075 1_555
Mn0 Te0 2.776075 1_554
Mn0 Rb0 3.727287 1_655
Mn0 Rb2 3.727291 1_544
Mn0 Rb3 3.727292 1_554
Mn0 Rb1 3.727296 1_545
Mn1 Te0 2.776066 1_454
Mn1 Te2 2.776066 1_555
Mn1 Te3 2.776075 1_544
Mn1 Te1 2.776075 1_545
Mn1 Rb2 3.727287 1_444
Mn1 Rb0 3.727291 1_555
Mn1 Rb1 3.727292 1_545
Mn1 Rb3 3.727296 1_554
