# generated using pymatgen
data_Li2Fe2(PO4)3
_symmetry_space_group_name_H-M   'P 1'
_cell_length_a   8.66444900
_cell_length_b   8.79680800
_cell_length_c   12.22283900
_cell_angle_alpha   90.00000000
_cell_angle_beta   90.00000000
_cell_angle_gamma   90.00000000
_symmetry_Int_Tables_number   1
_chemical_formula_structural   Li2Fe2(PO4)3
_chemical_formula_sum   'Li8 Fe8 P12 O48'
_cell_volume   931.61860723
_cell_formula_units_Z   4
loop_
 _symmetry_equiv_pos_site_id
 _symmetry_equiv_pos_as_xyz
  1  'x, y, z'
loop_
 _atom_site_type_symbol
 _atom_site_label
 _atom_site_symmetry_multiplicity
 _atom_site_fract_x
 _atom_site_fract_y
 _atom_site_fract_z
 _atom_site_occupancy
  Li  Li0  1  0.71703200  0.22212800  0.18115300  1
  Li  Li1  1  0.71703200  0.27787200  0.81884700  1
  Li  Li2  1  0.78296800  0.72212800  0.31884700  1
  Li  Li3  1  0.78296800  0.77787200  0.68115300  1
  Li  Li4  1  0.21703200  0.22212800  0.31884700  1
  Li  Li5  1  0.21703200  0.27787200  0.68115300  1
  Li  Li6  1  0.28296800  0.72212800  0.18115300  1
  Li  Li7  1  0.28296800  0.77787200  0.81884700  1
  Fe  Fe0  1  0.74924300  0.45964300  0.61286200  1
  Fe  Fe1  1  0.74924300  0.04035700  0.38713800  1
  Fe  Fe2  1  0.75075700  0.54035700  0.11286200  1
  Fe  Fe3  1  0.75075700  0.95964300  0.88713800  1
  Fe  Fe4  1  0.24924300  0.04035700  0.11286200  1
  Fe  Fe5  1  0.24924300  0.45964300  0.88713800  1
  Fe  Fe6  1  0.25075700  0.54035700  0.38713800  1
  Fe  Fe7  1  0.25075700  0.95964300  0.61286200  1
  P  P0  1  0.53960400  0.75000000  0.50000000  1
  P  P1  1  0.96039600  0.25000000  0.00000000  1
  P  P2  1  0.03960400  0.75000000  0.00000000  1
  P  P3  1  0.46039600  0.25000000  0.50000000  1
  P  P4  1  0.60568400  0.89325200  0.14711300  1
  P  P5  1  0.60568400  0.60674800  0.85288700  1
  P  P6  1  0.89431600  0.10674800  0.64711300  1
  P  P7  1  0.89431600  0.39325200  0.35288700  1
  P  P8  1  0.10568400  0.60674800  0.64711300  1
  P  P9  1  0.10568400  0.89325200  0.35288700  1
  P  P10  1  0.39431600  0.10674800  0.85288700  1
  P  P11  1  0.39431600  0.39325200  0.14711300  1
  O  O0  1  0.55667800  0.14283600  0.42877700  1
  O  O1  1  0.55667800  0.35716400  0.57122300  1
  O  O2  1  0.57279700  0.39552000  0.15597000  1
  O  O3  1  0.57279700  0.10448000  0.84403000  1
  O  O4  1  0.64701100  0.66247100  0.57962000  1
  O  O5  1  0.64701100  0.83752900  0.42038000  1
  O  O6  1  0.65622300  0.93396000  0.03066700  1
  O  O7  1  0.65622300  0.56604000  0.96933300  1
  O  O8  1  0.66217300  0.73248300  0.17978800  1
  O  O9  1  0.66217300  0.76751700  0.82021200  1
  O  O10  1  0.67458400  0.01394900  0.22568500  1
  O  O11  1  0.67458400  0.48605100  0.77431500  1
  O  O12  1  0.82541600  0.51394900  0.27431500  1
  O  O13  1  0.82541600  0.98605100  0.72568500  1
  O  O14  1  0.83782700  0.26751700  0.67978800  1
  O  O15  1  0.83782700  0.23248300  0.32021200  1
  O  O16  1  0.84377700  0.06604000  0.53066700  1
  O  O17  1  0.84377700  0.43396000  0.46933300  1
  O  O18  1  0.85298900  0.33752900  0.07962000  1
  O  O19  1  0.85298900  0.16247100  0.92038000  1
  O  O20  1  0.92720300  0.60448000  0.65597000  1
  O  O21  1  0.92720300  0.89552000  0.34403000  1
  O  O22  1  0.94332200  0.64283600  0.07122300  1
  O  O23  1  0.94332200  0.85716400  0.92877700  1
  O  O24  1  0.05667800  0.14283600  0.07122300  1
  O  O25  1  0.05667800  0.35716400  0.92877700  1
  O  O26  1  0.07279700  0.10448000  0.65597000  1
  O  O27  1  0.07279700  0.39552000  0.34403000  1
  O  O28  1  0.14701100  0.83752900  0.07962000  1
  O  O29  1  0.14701100  0.66247100  0.92038000  1
  O  O30  1  0.15622300  0.56604000  0.53066700  1
  O  O31  1  0.15622300  0.93396000  0.46933300  1
  O  O32  1  0.16217300  0.73248300  0.32021200  1
  O  O33  1  0.16217300  0.76751700  0.67978800  1
  O  O34  1  0.17458400  0.01394900  0.27431500  1
  O  O35  1  0.17458400  0.48605100  0.72568500  1
  O  O36  1  0.32541600  0.51394900  0.22568500  1
  O  O37  1  0.32541600  0.98605100  0.77431500  1
  O  O38  1  0.33782700  0.23248300  0.17978800  1
  O  O39  1  0.33782700  0.26751700  0.82021200  1
  O  O40  1  0.34377700  0.06604000  0.96933300  1
  O  O41  1  0.34377700  0.43396000  0.03066700  1
  O  O42  1  0.35298900  0.16247100  0.57962000  1
  O  O43  1  0.35298900  0.33752900  0.42038000  1
  O  O44  1  0.42720300  0.60448000  0.84403000  1
  O  O45  1  0.42720300  0.89552000  0.15597000  1
  O  O46  1  0.44332200  0.64283600  0.42877700  1
  O  O47  1  0.44332200  0.85716400  0.57122300  1
loop_
_geom_bond_atom_site_label_1
_geom_bond_atom_site_label_2
_geom_bond_distance
_geom_bond_site_symmetry_2
Li0 O10 1.945569 1_555
Li0 O18 1.989561 1_555
Li0 O2 1.995762 1_555
Li0 O15 1.998169 1_555
Li1 O11 1.945569 1_555
Li1 O19 1.989561 1_555
Li1 O3 1.995762 1_555
Li1 O14 1.998169 1_555
Li2 O12 1.945569 1_555
Li2 O5 1.989561 1_555
Li2 O21 1.995762 1_555
Li2 O8 1.998169 1_555
Li3 O13 1.945569 1_555
Li3 O4 1.989561 1_555
Li3 O20 1.995762 1_555
Li3 O9 1.998169 1_555
Li4 O34 1.945569 1_555
Li4 O43 1.989561 1_555
Li4 O27 1.995762 1_555
Li4 O38 1.998169 1_555
Li5 O35 1.945569 1_555
Li5 O42 1.989561 1_555
Li5 O26 1.995762 1_555
Li5 O39 1.998169 1_555
Li6 O36 1.945569 1_555
Li6 O28 1.989561 1_555
Li6 O45 1.995762 1_555
Li6 O32 1.998169 1_555
Li7 O37 1.945569 1_555
Li7 O29 1.989561 1_555
Li7 O44 1.995762 1_555
Li7 O33 1.998169 1_555
Fe0 O17 1.949262 1_555
Fe0 O1 1.963542 1_555
Fe0 O14 2.028471 1_555
Fe0 O4 2.033030 1_555
Fe0 O20 2.068453 1_555
Fe0 O11 2.089685 1_555
Fe1 O16 1.949262 1_555
Fe1 O0 1.963542 1_555
Fe1 O15 2.028471 1_555
Fe1 O5 2.033030 1_545
Fe1 O21 2.068453 1_545
Fe1 O10 2.089685 1_555
Fe2 O7 1.949262 1_554
Fe2 O22 1.963542 1_555
Fe2 O8 2.028471 1_555
Fe2 O18 2.033030 1_555
Fe2 O2 2.068453 1_555
Fe2 O12 2.089685 1_555
Fe3 O6 1.949262 1_556
Fe3 O23 1.963542 1_555
Fe3 O9 2.028471 1_555
Fe3 O19 2.033030 1_565
Fe3 O3 2.068453 1_565
Fe3 O13 2.089685 1_555
Fe4 O40 1.949262 1_554
Fe4 O24 1.963542 1_555
Fe4 O38 2.028471 1_555
Fe4 O28 2.033030 1_545
Fe4 O45 2.068453 1_545
Fe4 O34 2.089685 1_555
Fe5 O41 1.949262 1_556
Fe5 O25 1.963542 1_555
Fe5 O39 2.028471 1_555
Fe5 O29 2.033030 1_555
Fe5 O44 2.068453 1_555
Fe5 O35 2.089685 1_555
Fe6 O30 1.949262 1_555
Fe6 O46 1.963542 1_555
Fe6 O32 2.028471 1_555
Fe6 O43 2.033030 1_555
Fe6 O27 2.068453 1_555
Fe6 O36 2.089685 1_555
Fe7 O31 1.949262 1_555
Fe7 O47 1.963542 1_555
Fe7 O33 2.028471 1_555
Fe7 O42 2.033030 1_565
Fe7 O26 2.068453 1_565
Fe7 O37 2.089685 1_555
O0 P3 1.530516 1_555
O1 P3 1.530516 1_555
O2 P11 1.550353 1_555
O3 P10 1.550353 1_555
O4 P0 1.551130 1_555
O5 P0 1.551130 1_555
O6 P4 1.531591 1_555
O7 P5 1.531591 1_555
O8 P4 1.548928 1_555
O9 P5 1.548928 1_555
O10 P4 1.551132 1_545
O11 P5 1.551132 1_555
O12 P7 1.551132 1_555
O13 P6 1.551132 1_565
O14 P6 1.548928 1_555
O15 P7 1.548928 1_555
O16 P6 1.531591 1_555
O17 P7 1.531591 1_555
O18 P1 1.551130 1_555
O19 P1 1.551130 1_556
O20 P8 1.550353 1_655
O21 P9 1.550353 1_655
O22 P2 1.530516 1_655
O23 P2 1.530516 1_656
O24 P1 1.530516 1_455
O25 P1 1.530516 1_456
O26 P6 1.550353 1_455
O27 P7 1.550353 1_455
O28 P2 1.551130 1_555
O29 P2 1.551130 1_556
O30 P8 1.531591 1_555
O31 P9 1.531591 1_555
O32 P9 1.548928 1_555
O33 P8 1.548928 1_555
O34 P9 1.551132 1_545
O35 P8 1.551132 1_555
O36 P11 1.551132 1_555
O37 P10 1.551132 1_565
O38 P11 1.548928 1_555
O39 P10 1.548928 1_555
O40 P10 1.531591 1_555
O41 P11 1.531591 1_555
O42 P3 1.551130 1_555
O43 P3 1.551130 1_555
O44 P5 1.550353 1_555
O45 P4 1.550353 1_555
O46 P0 1.530516 1_555
O47 P0 1.530516 1_555
