# generated using pymatgen
data_Cs4P2PdSe8
_symmetry_space_group_name_H-M   'P 1'
_cell_length_a   13.88428300
_cell_length_b   7.72958200
_cell_length_c   10.32185299
_cell_angle_alpha   86.54174242
_cell_angle_beta   90.00000000
_cell_angle_gamma   90.00000000
_symmetry_Int_Tables_number   1
_chemical_formula_structural   Cs4P2PdSe8
_chemical_formula_sum   'Cs8 P4 Pd2 Se16'
_cell_volume   1105.72102712
_cell_formula_units_Z   2
loop_
 _symmetry_equiv_pos_site_id
 _symmetry_equiv_pos_as_xyz
  1  'x, y, z'
loop_
 _atom_site_type_symbol
 _atom_site_label
 _atom_site_symmetry_multiplicity
 _atom_site_fract_x
 _atom_site_fract_y
 _atom_site_fract_z
 _atom_site_occupancy
  Cs  Cs0  1  0.13073600  0.82278300  0.67762800  1
  Cs  Cs1  1  0.63073600  0.17721700  0.82237200  1
  Cs  Cs2  1  0.86926400  0.17721700  0.32237200  1
  Cs  Cs3  1  0.36926400  0.82278300  0.17762800  1
  Cs  Cs4  1  0.34560700  0.27224000  0.53676100  1
  Cs  Cs5  1  0.84560700  0.72776000  0.96323900  1
  Cs  Cs6  1  0.65439300  0.72776000  0.46323900  1
  Cs  Cs7  1  0.15439300  0.27224000  0.03676100  1
  P  P0  1  0.42005500  0.76219000  0.75865800  1
  P  P1  1  0.92005500  0.23781000  0.74134200  1
  P  P2  1  0.57994500  0.23781000  0.24134200  1
  P  P3  1  0.07994500  0.76219000  0.25865800  1
  Pd  Pd0  1  0.00000000  0.50000000  0.50000000  1
  Pd  Pd1  1  0.50000000  0.50000000  0.00000000  1
  Se  Se0  1  0.07225700  0.31336600  0.67633900  1
  Se  Se1  1  0.57225700  0.68663400  0.82366100  1
  Se  Se2  1  0.92774300  0.68663400  0.32366100  1
  Se  Se3  1  0.42774300  0.31336600  0.17633900  1
  Se  Se4  1  0.39437500  0.76276300  0.54943000  1
  Se  Se5  1  0.89437500  0.23723700  0.95057000  1
  Se  Se6  1  0.60562500  0.23723700  0.45057000  1
  Se  Se7  1  0.10562500  0.76276300  0.04943000  1
  Se  Se8  1  0.14646300  0.52766400  0.36252900  1
  Se  Se9  1  0.64646300  0.47233600  0.13747100  1
  Se  Se10  1  0.85353700  0.47233600  0.63747100  1
  Se  Se11  1  0.35353700  0.52766400  0.86252900  1
  Se  Se12  1  0.37423600  0.00583300  0.83759000  1
  Se  Se13  1  0.87423600  0.99416700  0.66241000  1
  Se  Se14  1  0.62576400  0.99416700  0.16241000  1
  Se  Se15  1  0.12576400  0.00583300  0.33759000  1
loop_
_geom_bond_atom_site_label_1
_geom_bond_atom_site_label_2
_geom_bond_distance
_geom_bond_site_symmetry_2
Cs0 Pd0 3.665131 1_555
Cs0 Se15 3.704921 1_565
Cs0 Se13 3.799666 1_455
Cs0 Se7 3.853547 1_556
Cs0 Se0 3.877191 1_565
Cs0 Se4 3.929258 1_555
Cs0 Se0 4.021229 1_555
Cs0 Se12 4.054613 1_565
Cs0 Se8 4.089563 1_555
Cs0 Se11 4.229678 1_555
Cs1 Pd1 3.665131 1_556
Cs1 Se14 3.704921 1_546
Cs1 Se12 3.799666 1_555
Cs1 Se6 3.853547 1_555
Cs1 Se1 3.877191 1_545
Cs1 Se5 3.929258 1_555
Cs1 Se1 4.021229 1_555
Cs1 Se13 4.054613 1_545
Cs1 Se9 4.089563 1_556
Cs1 Se10 4.229678 1_555
Cs2 Pd0 3.665131 1_655
Cs2 Se13 3.704921 1_545
Cs2 Se15 3.799666 1_655
Cs2 Se5 3.853547 1_554
Cs2 Se2 3.877191 1_545
Cs2 Se6 3.929258 1_555
Cs2 Se2 4.021229 1_555
Cs2 Se14 4.054613 1_545
Cs2 Se10 4.089563 1_555
Cs2 Se9 4.229678 1_555
Cs3 Pd1 3.665131 1_555
Cs3 Se12 3.704921 1_564
Cs3 Se14 3.799666 1_555
Cs3 Se4 3.853547 1_555
Cs3 Se3 3.877191 1_565
Cs3 Se7 3.929258 1_555
Cs3 Se3 4.021229 1_555
Cs3 Se15 4.054613 1_565
Cs3 Se11 4.089563 1_554
Cs3 Se8 4.229678 1_555
Cs4 Se12 3.642621 1_555
Cs4 Se6 3.731890 1_555
Cs4 Se8 3.787993 1_555
Cs4 Se4 3.861496 1_555
Cs4 Se3 3.885737 1_555
Cs4 Se4 3.990193 1_545
Cs4 Se11 4.002197 1_555
Cs4 Se0 4.078725 1_555
Cs4 Se15 4.277193 1_555
Cs5 Se13 3.642621 1_555
Cs5 Se7 3.731890 1_656
Cs5 Se9 3.787993 1_556
Cs5 Se5 3.861496 1_555
Cs5 Se2 3.885737 1_556
Cs5 Se5 3.990193 1_565
Cs5 Se10 4.002197 1_555
Cs5 Se1 4.078725 1_555
Cs5 Se14 4.277193 1_556
Cs6 Se14 3.642621 1_555
Cs6 Se4 3.731890 1_555
Cs6 Se10 3.787993 1_555
Cs6 Se6 3.861496 1_555
Cs6 Se1 3.885737 1_555
Cs6 Se6 3.990193 1_565
Cs6 Se9 4.002197 1_555
Cs6 Se2 4.078725 1_555
Cs6 Se13 4.277193 1_555
Cs7 Se15 3.642621 1_555
Cs7 Se5 3.731890 1_454
Cs7 Se11 3.787993 1_554
Cs7 Se7 3.861496 1_555
Cs7 Se0 3.885737 1_554
Cs7 Se7 3.990193 1_545
Cs7 Se8 4.002197 1_555
Cs7 Se3 4.078725 1_555
Cs7 Se12 4.277193 1_554
P0 Se4 2.188596 1_555
P0 Se12 2.190947 1_565
P0 Se11 2.248147 1_555
P0 Se1 2.282467 1_555
P1 Se5 2.188596 1_555
P1 Se13 2.190947 1_545
P1 Se10 2.248147 1_555
P1 Se0 2.282467 1_655
P2 Se6 2.188596 1_555
P2 Se14 2.190947 1_545
P2 Se9 2.248147 1_555
P2 Se3 2.282467 1_555
P3 Se7 2.188596 1_555
P3 Se15 2.190947 1_565
P3 Se8 2.248147 1_555
P3 Se2 2.282467 1_455
Pd0 Se2 2.466523 1_455
Pd0 Se0 2.466523 1_555
Pd0 Se8 2.481494 1_555
Pd0 Se10 2.481494 1_455
Pd1 Se1 2.466523 1_554
Pd1 Se3 2.466523 1_555
Pd1 Se9 2.481494 1_555
Pd1 Se11 2.481494 1_554
