# generated using pymatgen
data_LaYbS3
_symmetry_space_group_name_H-M   'P 1'
_cell_length_a   6.61995565
_cell_length_b   6.61995565
_cell_length_c   9.54758564
_cell_angle_alpha   90.00000000
_cell_angle_beta   90.00000000
_cell_angle_gamma   145.52299412
_symmetry_Int_Tables_number   1
_chemical_formula_structural   LaYbS3
_chemical_formula_sum   'La2 Yb2 S6'
_cell_volume   236.85253844
_cell_formula_units_Z   2
loop_
 _symmetry_equiv_pos_site_id
 _symmetry_equiv_pos_as_xyz
  1  'x, y, z'
loop_
 _atom_site_type_symbol
 _atom_site_label
 _atom_site_symmetry_multiplicity
 _atom_site_fract_x
 _atom_site_fract_y
 _atom_site_fract_z
 _atom_site_occupancy
  La  La0  1  0.25394721  0.74605279  0.75000000  1
  La  La1  1  0.74605279  0.25394721  0.25000000  1
  Yb  Yb0  1  0.00000000  0.00000000  0.00000000  1
  Yb  Yb1  1  0.00000000  0.00000000  0.50000000  1
  S  S0  1  0.08347212  0.91652788  0.25000000  1
  S  S1  1  0.91652788  0.08347212  0.75000000  1
  S  S2  1  0.63996071  0.36003929  0.56149241  1
  S  S3  1  0.36003929  0.63996071  0.43850759  1
  S  S4  1  0.63996071  0.36003929  0.93850759  1
  S  S5  1  0.36003929  0.63996071  0.06149241  1
loop_
_geom_bond_atom_site_label_1
_geom_bond_atom_site_label_2
_geom_bond_distance
_geom_bond_site_symmetry_2
La0 S1 2.841709 1_455
La0 S1 2.841709 1_565
La0 S4 3.027470 1_565
La0 S4 3.027470 1_455
La0 S2 3.027470 1_565
La0 S2 3.027470 1_455
La0 S5 3.262582 1_556
La0 S3 3.262582 1_555
La1 S0 2.841709 1_545
La1 S0 2.841709 1_655
La1 S3 3.027470 1_545
La1 S3 3.027470 1_655
La1 S5 3.027470 1_545
La1 S5 3.027470 1_655
La1 S2 3.262582 1_555
La1 S4 3.262582 1_554
S0 Yb1 2.609865 1_565
S0 Yb0 2.609865 1_565
S1 Yb1 2.609865 1_655
S1 Yb0 2.609865 1_656
S2 Yb1 2.706608 1_555
S2 Yb1 2.706608 1_665
S3 Yb1 2.706608 1_555
S3 Yb1 2.706608 1_665
S4 Yb0 2.706608 1_556
S4 Yb0 2.706608 1_666
S5 Yb0 2.706608 1_555
S5 Yb0 2.706608 1_665
