# generated using pymatgen
data_CaSnS3
_symmetry_space_group_name_H-M   'P 1'
_cell_length_a   9.06442163
_cell_length_b   9.06442163
_cell_length_c   9.06442163
_cell_angle_alpha   60.00000000
_cell_angle_beta   60.00000000
_cell_angle_gamma   60.00000000
_symmetry_Int_Tables_number   1
_chemical_formula_structural   CaSnS3
_chemical_formula_sum   'Ca4 Sn4 S12'
_cell_volume   526.62963818
_cell_formula_units_Z   4
loop_
 _symmetry_equiv_pos_site_id
 _symmetry_equiv_pos_as_xyz
  1  'x, y, z'
loop_
 _atom_site_type_symbol
 _atom_site_label
 _atom_site_symmetry_multiplicity
 _atom_site_fract_x
 _atom_site_fract_y
 _atom_site_fract_z
 _atom_site_occupancy
  Ca  Ca0  1  0.62500000  0.12500000  0.12500000  1
  Ca  Ca1  1  0.12500000  0.62500000  0.12500000  1
  Ca  Ca2  1  0.12500000  0.12500000  0.62500000  1
  Ca  Ca3  1  0.12500000  0.12500000  0.12500000  1
  Sn  Sn0  1  0.12500000  0.62500000  0.62500000  1
  Sn  Sn1  1  0.62500000  0.12500000  0.62500000  1
  Sn  Sn2  1  0.62500000  0.62500000  0.12500000  1
  Sn  Sn3  1  0.62500000  0.62500000  0.62500000  1
  S  S0  1  0.97128400  0.97128400  0.52871600  1
  S  S1  1  0.52871600  0.52871600  0.97128400  1
  S  S2  1  0.97128400  0.52871600  0.97128400  1
  S  S3  1  0.52871600  0.97128400  0.52871600  1
  S  S4  1  0.52871600  0.97128400  0.97128400  1
  S  S5  1  0.97128400  0.52871600  0.52871600  1
  S  S6  1  0.27871600  0.27871600  0.72128400  1
  S  S7  1  0.72128400  0.72128400  0.27871600  1
  S  S8  1  0.27871600  0.72128400  0.27871600  1
  S  S9  1  0.72128400  0.27871600  0.72128400  1
  S  S10  1  0.72128400  0.27871600  0.27871600  1
  S  S11  1  0.27871600  0.72128400  0.72128400  1
loop_
_geom_bond_atom_site_label_1
_geom_bond_atom_site_label_2
_geom_bond_distance
_geom_bond_site_symmetry_2
Ca0 S1 3.003009 1_554
Ca0 S3 3.003009 1_545
Ca0 S4 3.003009 1_544
Ca0 S7 3.003009 1_545
Ca0 S9 3.003009 1_554
Ca0 S10 3.003009 1_555
Ca1 S7 3.003009 1_455
Ca1 S1 3.003009 1_554
Ca1 S5 3.003009 1_455
Ca1 S2 3.003009 1_454
Ca1 S11 3.003009 1_554
Ca1 S8 3.003009 1_555
Ca2 S0 3.003009 1_445
Ca2 S3 3.003009 1_545
Ca2 S5 3.003009 1_455
Ca2 S11 3.003009 1_545
Ca2 S9 3.003009 1_455
Ca2 S6 3.003009 1_555
Ca3 S0 3.003009 1_445
Ca3 S2 3.003009 1_454
Ca3 S4 3.003009 1_544
Ca3 S8 3.003009 1_545
Ca3 S6 3.003009 1_554
Ca3 S10 3.003009 1_455
S0 Sn0 2.580436 1_655
S0 Sn1 2.580436 1_565
S1 Sn3 2.580436 1_555
S1 Sn2 2.580436 1_556
S2 Sn2 2.580436 1_556
S2 Sn0 2.580436 1_655
S3 Sn3 2.580436 1_555
S3 Sn1 2.580436 1_565
S4 Sn2 2.580436 1_556
S4 Sn1 2.580436 1_565
S5 Sn3 2.580436 1_555
S5 Sn0 2.580436 1_655
S6 Sn0 2.580436 1_555
S6 Sn1 2.580436 1_555
S7 Sn3 2.580436 1_555
S7 Sn2 2.580436 1_555
S8 Sn2 2.580436 1_555
S8 Sn0 2.580436 1_555
S9 Sn3 2.580436 1_555
S9 Sn1 2.580436 1_555
S10 Sn1 2.580436 1_555
S10 Sn2 2.580436 1_555
S11 Sn3 2.580436 1_555
S11 Sn0 2.580436 1_555
