# generated using pymatgen
data_Li6CuS4
_symmetry_space_group_name_H-M   'P 1'
_cell_length_a   7.68758090
_cell_length_b   7.68758090
_cell_length_c   7.68758090
_cell_angle_alpha   152.90099286
_cell_angle_beta   124.24747916
_cell_angle_gamma   63.06436599
_symmetry_Int_Tables_number   1
_chemical_formula_structural   Li6CuS4
_chemical_formula_sum   'Li6 Cu1 S4'
_cell_volume   169.68022043
_cell_formula_units_Z   1
loop_
 _symmetry_equiv_pos_site_id
 _symmetry_equiv_pos_as_xyz
  1  'x, y, z'
loop_
 _atom_site_type_symbol
 _atom_site_label
 _atom_site_symmetry_multiplicity
 _atom_site_fract_x
 _atom_site_fract_y
 _atom_site_fract_z
 _atom_site_occupancy
  Li  Li0  1  0.40959200  0.11950800  0.29008500  1
  Li  Li1  1  0.82107700  0.35641700  0.46466000  1
  Li  Li2  1  0.39544200  0.31255900  0.08288200  1
  Li  Li3  1  0.77032300  0.68744100  0.08288200  1
  Li  Li4  1  0.10824300  0.64358300  0.46466000  1
  Li  Li5  1  0.17057700  0.88049200  0.29008500  1
  Cu  Cu0  1  0.71849600  0.00000000  0.71849600  1
  S  S0  1  0.02533000  0.00000000  0.02533000  1
  S  S1  1  0.51173400  0.74665800  0.76507600  1
  S  S2  1  0.01841700  0.25334200  0.76507600  1
  S  S3  1  0.53194800  0.50000000  0.03194800  1
loop_
_geom_bond_atom_site_label_1
_geom_bond_atom_site_label_2
_geom_bond_distance
_geom_bond_site_symmetry_2
Li0 S1 2.460244 1_555
Li0 S1 2.460246 1_544
Li0 S0 2.464811 1_555
Li0 S3 2.952943 1_556
Li0 S3 2.952945 1_545
Li1 S2 2.547300 1_655
Li1 S0 2.640975 1_655
Li1 S0 2.640975 1_666
Li1 S1 2.715047 1_555
Li1 S1 2.715047 1_544
Li2 S1 2.388569 1_544
Li2 S1 2.388572 1_555
Li2 S2 2.412878 1_554
Li2 S3 2.483542 1_555
Li3 S2 2.388565 1_654
Li3 S2 2.388567 1_665
Li3 S1 2.412867 1_554
Li3 S3 2.483548 1_555
Li4 S1 2.547300 1_555
Li4 S0 2.640975 1_566
Li4 S0 2.640975 1_555
Li4 S2 2.715044 1_554
Li4 S2 2.715046 1_565
Li5 S2 2.460244 1_554
Li5 S2 2.460247 1_565
Li5 S0 2.464818 1_565
Li5 S3 2.952946 1_566
Li5 S3 2.952946 1_555
Cu0 S0 2.205789 1_656
Cu0 S3 2.245525 1_545
Cu0 S3 2.245525 1_556
