# generated using pymatgen
data_Y2MgRu
_symmetry_space_group_name_H-M   'P 1'
_cell_length_a   5.02203869
_cell_length_b   5.02203869
_cell_length_c   5.02203869
_cell_angle_alpha   60.00000000
_cell_angle_beta   60.00000000
_cell_angle_gamma   60.00000000
_symmetry_Int_Tables_number   1
_chemical_formula_structural   Y2MgRu
_chemical_formula_sum   'Y2 Mg1 Ru1'
_cell_volume   89.56228469
_cell_formula_units_Z   1
loop_
 _symmetry_equiv_pos_site_id
 _symmetry_equiv_pos_as_xyz
  1  'x, y, z'
loop_
 _atom_site_type_symbol
 _atom_site_label
 _atom_site_symmetry_multiplicity
 _atom_site_fract_x
 _atom_site_fract_y
 _atom_site_fract_z
 _atom_site_occupancy
  Y  Y0  1  0.25000000  0.25000000  0.25000000  1
  Y  Y1  1  0.75000000  0.75000000  0.75000000  1
  Mg  Mg0  1  0.50000000  0.50000000  0.50000000  1
  Ru  Ru0  1  -0.00000000  0.00000000  0.00000000  1
loop_
_geom_bond_atom_site_label_1
_geom_bond_atom_site_label_2
_geom_bond_distance
_geom_bond_site_symmetry_2
Mg0 Y1 3.075358 1_455
Mg0 Y0 3.075358 1_655
Mg0 Y0 3.075358 1_565
Mg0 Y1 3.075358 1_545
Mg0 Y0 3.075358 1_556
Mg0 Y1 3.075358 1_555
Mg0 Y1 3.075358 1_554
Mg0 Y0 3.075358 1_555
Ru0 Y0 3.075358 1_455
Ru0 Y1 3.075358 1_544
Ru0 Y1 3.075358 1_444
Ru0 Y1 3.075358 1_445
Ru0 Y1 3.075358 1_454
Ru0 Y0 3.075358 1_545
Ru0 Y0 3.075358 1_554
Ru0 Y0 3.075358 1_555
