# generated using pymatgen
data_InH10C3O11
_symmetry_space_group_name_H-M   'P 1'
_cell_length_a   11.38423100
_cell_length_b   8.76029900
_cell_length_c   20.51102201
_cell_angle_alpha   87.11146737
_cell_angle_beta   90.00000000
_cell_angle_gamma   90.00000000
_symmetry_Int_Tables_number   1
_chemical_formula_structural   InH10C3O11
_chemical_formula_sum   'In8 H80 C24 O88'
_cell_volume   2042.95025390
_cell_formula_units_Z   8
loop_
 _symmetry_equiv_pos_site_id
 _symmetry_equiv_pos_as_xyz
  1  'x, y, z'
loop_
 _atom_site_type_symbol
 _atom_site_label
 _atom_site_symmetry_multiplicity
 _atom_site_fract_x
 _atom_site_fract_y
 _atom_site_fract_z
 _atom_site_occupancy
  In  In0  1  0.23740700  0.06073300  0.69927200  1
  In  In1  1  0.24758800  0.11291000  0.99018100  1
  In  In2  1  0.74758800  0.38709000  0.50981900  1
  In  In3  1  0.73740700  0.43926700  0.80072800  1
  In  In4  1  0.26259300  0.56073300  0.19927200  1
  In  In5  1  0.25241200  0.61291000  0.49018100  1
  In  In6  1  0.75241200  0.88709000  0.00981900  1
  In  In7  1  0.76259300  0.93926700  0.30072800  1
  H  H0  1  0.10439600  0.00205300  0.15364800  1
  H  H1  1  0.43699200  0.03169100  0.42756800  1
  H  H2  1  0.85115800  0.04374000  0.60674000  1
  H  H3  1  0.35327000  0.03723400  0.24193100  1
  H  H4  1  0.00193100  0.03109600  0.67687300  1
  H  H5  1  0.01329800  0.02053700  0.75815100  1
  H  H6  1  0.47754700  0.07059300  0.72638900  1
  H  H7  1  0.45164700  0.08509400  0.18832900  1
  H  H8  1  0.46092800  0.07767600  0.64564000  1
  H  H9  1  0.26738100  0.11832100  0.39008200  1
  H  H10  1  0.50747000  0.12949300  0.55409700  1
  H  H11  1  0.95725600  0.13492200  0.58041900  1
  H  H12  1  0.32467500  0.17960400  0.31063800  1
  H  H13  1  0.58511900  0.17008800  0.11196000  1
  H  H14  1  0.93842600  0.16524200  0.82452900  1
  H  H15  1  0.65003100  0.13494300  0.82003100  1
  H  H16  1  0.20719900  0.18584900  0.27572500  1
  H  H17  1  0.01188300  0.18248900  0.37712000  1
  H  H18  1  0.67861900  0.18728300  0.89184300  1
  H  H19  1  0.29823900  0.23023100  0.44509900  1
  H  H20  1  0.79823900  0.26976900  0.05490100  1
  H  H21  1  0.51188300  0.31751100  0.12288000  1
  H  H22  1  0.70719900  0.31415100  0.22427500  1
  H  H23  1  0.17861900  0.31271700  0.60815700  1
  H  H24  1  0.08511900  0.32991200  0.38804000  1
  H  H25  1  0.82467500  0.32039600  0.18936200  1
  H  H26  1  0.15003100  0.36505700  0.67996900  1
  H  H27  1  0.43842600  0.33475800  0.67547100  1
  H  H28  1  0.76738100  0.38167900  0.10991800  1
  H  H29  1  0.45725600  0.36507800  0.91958100  1
  H  H30  1  0.95164700  0.41490600  0.31167100  1
  H  H31  1  0.00747000  0.37050700  0.94590300  1
  H  H32  1  0.96092800  0.42232400  0.85436000  1
  H  H33  1  0.85327000  0.46276600  0.25806900  1
  H  H34  1  0.97754700  0.42940700  0.77361100  1
  H  H35  1  0.93699200  0.46830900  0.07243200  1
  H  H36  1  0.51329800  0.47946300  0.74184900  1
  H  H37  1  0.50193100  0.46890400  0.82312700  1
  H  H38  1  0.60439600  0.49794700  0.34635200  1
  H  H39  1  0.64884200  0.54374000  0.10674000  1
  H  H40  1  0.35115800  0.45626000  0.89326000  1
  H  H41  1  0.39560400  0.50205300  0.65364800  1
  H  H42  1  0.49806900  0.53109600  0.17687300  1
  H  H43  1  0.48670200  0.52053700  0.25815100  1
  H  H44  1  0.06300800  0.53169100  0.92756800  1
  H  H45  1  0.02245300  0.57059300  0.22638900  1
  H  H46  1  0.14673000  0.53723400  0.74193100  1
  H  H47  1  0.03907200  0.57767600  0.14564000  1
  H  H48  1  0.99253000  0.62949300  0.05409700  1
  H  H49  1  0.04835300  0.58509400  0.68832900  1
  H  H50  1  0.54274400  0.63492200  0.08041900  1
  H  H51  1  0.23261900  0.61832100  0.89008200  1
  H  H52  1  0.56157400  0.66524200  0.32452900  1
  H  H53  1  0.84996900  0.63494300  0.32003100  1
  H  H54  1  0.17532500  0.67960400  0.81063800  1
  H  H55  1  0.91488100  0.67008800  0.61196000  1
  H  H56  1  0.82138100  0.68728300  0.39184300  1
  H  H57  1  0.29280100  0.68584900  0.77572500  1
  H  H58  1  0.48811700  0.68248900  0.87712000  1
  H  H59  1  0.20176100  0.73023100  0.94509900  1
  H  H60  1  0.70176100  0.76976900  0.55490100  1
  H  H61  1  0.32138100  0.81271700  0.10815700  1
  H  H62  1  0.98811700  0.81751100  0.62288000  1
  H  H63  1  0.79280100  0.81415100  0.72427500  1
  H  H64  1  0.34996900  0.86505700  0.17996900  1
  H  H65  1  0.06157400  0.83475800  0.17547100  1
  H  H66  1  0.41488100  0.82991200  0.88804000  1
  H  H67  1  0.67532500  0.82039600  0.68936200  1
  H  H68  1  0.04274400  0.86507800  0.41958100  1
  H  H69  1  0.49253000  0.87050700  0.44590300  1
  H  H70  1  0.73261900  0.88167900  0.60991800  1
  H  H71  1  0.53907200  0.92232400  0.35436000  1
  H  H72  1  0.54835300  0.91490600  0.81167100  1
  H  H73  1  0.52245300  0.92940700  0.27361100  1
  H  H74  1  0.98670200  0.97946300  0.24184900  1
  H  H75  1  0.99806900  0.96890400  0.32312700  1
  H  H76  1  0.64673000  0.96276600  0.75806900  1
  H  H77  1  0.14884200  0.95626000  0.39326000  1
  H  H78  1  0.56300800  0.96830900  0.57243200  1
  H  H79  1  0.89560400  0.99794700  0.84635200  1
  C  C0  1  0.25968400  0.00320700  0.84798500  1
  C  C1  1  0.52039600  0.06663000  0.97646500  1
  C  C2  1  0.77013800  0.10890400  0.42784000  1
  C  C3  1  0.97606000  0.08121100  0.99169300  1
  C  C4  1  0.23187100  0.17553600  0.83983200  1
  C  C5  1  0.72528300  0.23256100  0.37717300  1
  C  C6  1  0.22528300  0.26743900  0.12282700  1
  C  C7  1  0.73187100  0.32446400  0.66016800  1
  C  C8  1  0.27013800  0.39109600  0.07216000  1
  C  C9  1  0.47606000  0.41878900  0.50830700  1
  C  C10  1  0.02039600  0.43337000  0.52353500  1
  C  C11  1  0.75968400  0.49679300  0.65201500  1
  C  C12  1  0.24031600  0.50320700  0.34798500  1
  C  C13  1  0.97960400  0.56663000  0.47646500  1
  C  C14  1  0.52394000  0.58121100  0.49169300  1
  C  C15  1  0.72986200  0.60890400  0.92784000  1
  C  C16  1  0.26812900  0.67553600  0.33983200  1
  C  C17  1  0.77471700  0.73256100  0.87717300  1
  C  C18  1  0.27471700  0.76743900  0.62282700  1
  C  C19  1  0.76812900  0.82446400  0.16016800  1
  C  C20  1  0.02394000  0.91878900  0.00830700  1
  C  C21  1  0.22986200  0.89109600  0.57216000  1
  C  C22  1  0.47960400  0.93337000  0.02353500  1
  C  C23  1  0.74031600  0.99679300  0.15201500  1
  O  O0  1  0.94703400  0.00415200  0.28490200  1
  O  O1  1  0.42179200  0.99845600  0.21742800  1
  O  O2  1  0.72357500  0.05428500  0.09458700  1
  O  O3  1  0.20964400  0.02282100  0.59247000  1
  O  O4  1  0.49186300  0.03292400  0.57962100  1
  O  O5  1  0.93694100  0.04119100  0.60672500  1
  O  O6  1  0.73139300  0.07013900  0.20322300  1
  O  O7  1  0.96154600  0.05659500  0.82633500  1
  O  O8  1  0.25938300  0.11317600  0.29965400  1
  O  O9  1  0.62835500  0.07002800  0.96101300  1
  O  O10  1  0.20581700  0.13500300  0.10259200  1
  O  O11  1  0.42693000  0.11675200  0.69012700  1
  O  O12  1  0.86575000  0.09780800  0.98782200  1
  O  O13  1  0.31416100  0.12864900  0.42968100  1
  O  O14  1  0.78551200  0.14766900  0.48567500  1
  O  O15  1  0.71183000  0.19274300  0.31918200  1
  O  O16  1  0.44359700  0.16218800  0.95672700  1
  O  O17  1  0.50982000  0.20586000  0.12887800  1
  O  O18  1  0.05102400  0.18708300  0.98324800  1
  O  O19  1  0.69822900  0.20843200  0.84528200  1
  O  O20  1  0.22110600  0.22984000  0.78203400  1
  O  O21  1  0.72521600  0.25101100  0.60859900  1
  O  O22  1  0.22521600  0.24898900  0.89140100  1
  O  O23  1  0.00982000  0.29414000  0.37112200  1
  O  O24  1  0.72110600  0.27016000  0.71796600  1
  O  O25  1  0.19822900  0.29156800  0.65471800  1
  O  O26  1  0.21183000  0.30725700  0.18081800  1
  O  O27  1  0.55102400  0.31291700  0.51675200  1
  O  O28  1  0.28551200  0.35233100  0.01432500  1
  O  O29  1  0.94359700  0.33781200  0.54327300  1
  O  O30  1  0.81416100  0.37135100  0.07031900  1
  O  O31  1  0.70581700  0.36499700  0.39740800  1
  O  O32  1  0.75938300  0.38682400  0.20034600  1
  O  O33  1  0.36575000  0.40219200  0.51217800  1
  O  O34  1  0.92693000  0.38324800  0.80987300  1
  O  O35  1  0.23139300  0.42986100  0.29677700  1
  O  O36  1  0.12835500  0.42997200  0.53898700  1
  O  O37  1  0.22357500  0.44571500  0.40541300  1
  O  O38  1  0.46154600  0.44340500  0.67366500  1
  O  O39  1  0.43694100  0.45880900  0.89327500  1
  O  O40  1  0.92179200  0.50154400  0.28257200  1
  O  O41  1  0.44703400  0.49584800  0.21509800  1
  O  O42  1  0.99186300  0.46707600  0.92037900  1
  O  O43  1  0.70964400  0.47717900  0.90753000  1
  O  O44  1  0.29035600  0.52282100  0.09247000  1
  O  O45  1  0.00813700  0.53292400  0.07962100  1
  O  O46  1  0.55296600  0.50415200  0.78490200  1
  O  O47  1  0.07820800  0.49845600  0.71742800  1
  O  O48  1  0.56305900  0.54119100  0.10672500  1
  O  O49  1  0.53845400  0.55659500  0.32633500  1
  O  O50  1  0.77642500  0.55428500  0.59458700  1
  O  O51  1  0.87164500  0.57002800  0.46101300  1
  O  O52  1  0.76860700  0.57013900  0.70322300  1
  O  O53  1  0.07307000  0.61675200  0.19012700  1
  O  O54  1  0.63425000  0.59780800  0.48782200  1
  O  O55  1  0.24061700  0.61317600  0.79965400  1
  O  O56  1  0.29418300  0.63500300  0.60259200  1
  O  O57  1  0.18583900  0.62864900  0.92968100  1
  O  O58  1  0.05640300  0.66218800  0.45672700  1
  O  O59  1  0.71448800  0.64766900  0.98567500  1
  O  O60  1  0.44897600  0.68708300  0.48324800  1
  O  O61  1  0.78817000  0.69274300  0.81918200  1
  O  O62  1  0.80177100  0.70843200  0.34528200  1
  O  O63  1  0.27889400  0.72984000  0.28203400  1
  O  O64  1  0.99018000  0.70586000  0.62887800  1
  O  O65  1  0.77478400  0.75101100  0.10859900  1
  O  O66  1  0.27478400  0.74898900  0.39140100  1
  O  O67  1  0.77889400  0.77016000  0.21796600  1
  O  O68  1  0.30177100  0.79156800  0.15471800  1
  O  O69  1  0.94897600  0.81291700  0.01675200  1
  O  O70  1  0.49018000  0.79414000  0.87112200  1
  O  O71  1  0.55640300  0.83781200  0.04327300  1
  O  O72  1  0.28817000  0.80725700  0.68081800  1
  O  O73  1  0.21448800  0.85233100  0.51432500  1
  O  O74  1  0.68583900  0.87135100  0.57031900  1
  O  O75  1  0.13425000  0.90219200  0.01217800  1
  O  O76  1  0.57307000  0.88324800  0.30987300  1
  O  O77  1  0.79418300  0.86499700  0.89740800  1
  O  O78  1  0.37164500  0.92997200  0.03898700  1
  O  O79  1  0.74061700  0.88682400  0.70034600  1
  O  O80  1  0.03845400  0.94340500  0.17366500  1
  O  O81  1  0.26860700  0.92986100  0.79677700  1
  O  O82  1  0.06305900  0.95880900  0.39327500  1
  O  O83  1  0.50813700  0.96707600  0.42037900  1
  O  O84  1  0.79035600  0.97717900  0.40753000  1
  O  O85  1  0.27642500  0.94571500  0.90541300  1
  O  O86  1  0.57820800  0.00154400  0.78257200  1
  O  O87  1  0.05296600  0.99584800  0.71509800  1
loop_
_geom_bond_atom_site_label_1
_geom_bond_atom_site_label_2
_geom_bond_distance
_geom_bond_site_symmetry_2
In0 O87 2.195151 1_545
In0 O11 2.218526 1_555
In0 O25 2.221941 1_555
In0 O3 2.254403 1_555
In0 O81 2.282365 1_545
In0 O20 2.316061 1_555
In0 O72 2.343647 1_545
In1 O28 2.221577 1_556
In1 O75 2.278585 1_546
In1 O22 2.312471 1_555
In1 O78 2.324501 1_546
In1 O18 2.332500 1_555
In1 O85 2.352173 1_545
In1 O16 2.367813 1_555
In1 O10 2.371635 1_556
In2 O14 2.221577 1_555
In2 O54 2.278585 1_555
In2 O21 2.312471 1_555
In2 O51 2.324501 1_555
In2 O27 2.332500 1_555
In2 O50 2.352173 1_555
In2 O29 2.367813 1_555
In2 O31 2.371635 1_555
In3 O46 2.195151 1_555
In3 O34 2.218526 1_555
In3 O19 2.221941 1_555
In3 O43 2.254403 1_555
In3 O52 2.282365 1_555
In3 O24 2.316061 1_555
In3 O61 2.343647 1_555
In4 O41 2.195151 1_555
In4 O53 2.218526 1_555
In4 O68 2.221941 1_555
In4 O44 2.254403 1_555
In4 O35 2.282365 1_555
In4 O63 2.316061 1_555
In4 O26 2.343647 1_555
In5 O73 2.221577 1_555
In5 O33 2.278585 1_555
In5 O66 2.312471 1_555
In5 O36 2.324501 1_555
In5 O60 2.332500 1_555
In5 O37 2.352173 1_555
In5 O58 2.367813 1_555
In5 O56 2.371635 1_555
In6 O59 2.221577 1_554
In6 O12 2.278585 1_564
In6 O65 2.312471 1_555
In6 O9 2.324501 1_564
In6 O69 2.332500 1_555
In6 O2 2.352173 1_565
In6 O71 2.367813 1_555
In6 O77 2.371635 1_554
In7 O0 2.195151 1_565
In7 O76 2.218526 1_555
In7 O62 2.221941 1_555
In7 O84 2.254403 1_555
In7 O6 2.282365 1_565
In7 O67 2.316061 1_555
In7 O15 2.343647 1_565
H0 O80 0.987330 1_545
H1 O83 1.003271 1_545
H1 O13 1.637798 1_555
H2 O5 0.976829 1_555
H3 O1 0.996848 1_545
H4 O87 1.011539 1_545
H4 O5 1.616341 1_455
H5 O87 1.024577 1_545
H5 O7 1.564377 1_455
H6 O11 1.009179 1_555
H7 O1 1.001066 1_545
H8 O11 1.063519 1_555
H8 O4 1.471346 1_555
H9 O13 0.979235 1_555
H10 O4 0.988271 1_555
H11 O5 0.987009 1_555
H12 O8 0.977295 1_555
H13 O17 0.982041 1_555
H14 O7 0.986398 1_555
H15 O19 1.008652 1_555
H16 O8 0.983683 1_555
H17 O23 0.979914 1_555
H18 O19 0.989132 1_555
H19 O13 0.976282 1_555
H20 O30 0.976282 1_555
H21 O17 0.979914 1_555
H22 O32 0.983683 1_555
H23 O25 0.989132 1_555
H24 O23 0.982041 1_555
H25 O32 0.977295 1_555
H26 O25 1.008652 1_555
H27 O38 0.986398 1_555
H28 O30 0.979235 1_555
H29 O39 0.987009 1_555
H30 O40 1.001066 1_555
H31 O42 0.988271 1_455
H32 O34 1.063519 1_555
H32 O42 1.471346 1_555
H33 O40 0.996848 1_555
H34 O34 1.009179 1_555
H35 O45 1.003271 1_655
H35 O30 1.637798 1_555
H36 O46 1.024577 1_555
H36 O38 1.564377 1_555
H37 O46 1.011539 1_555
H37 O39 1.616341 1_555
H38 O49 0.987330 1_555
H39 O48 0.976829 1_555
H40 O39 0.976829 1_555
H41 O38 0.987330 1_555
H42 O41 1.011539 1_555
H42 O48 1.616341 1_555
H43 O41 1.024577 1_555
H43 O49 1.564377 1_555
H44 O42 1.003271 1_455
H44 O57 1.637798 1_555
H45 O53 1.009179 1_555
H46 O47 0.996848 1_555
H47 O53 1.063519 1_555
H47 O45 1.471346 1_555
H48 O45 0.988271 1_655
H49 O47 1.001066 1_555
H50 O48 0.987009 1_555
H51 O57 0.979235 1_555
H52 O49 0.986398 1_555
H53 O62 1.008652 1_555
H54 O55 0.977295 1_555
H55 O64 0.982041 1_555
H56 O62 0.989132 1_555
H57 O55 0.983683 1_555
H58 O70 0.979914 1_555
H59 O57 0.976282 1_555
H60 O74 0.976282 1_555
H61 O68 0.989132 1_555
H62 O64 0.979914 1_555
H63 O79 0.983683 1_555
H64 O68 1.008652 1_555
H65 O80 0.986398 1_555
H66 O70 0.982041 1_555
H67 O79 0.977295 1_555
H68 O82 0.987009 1_555
H69 O83 0.988271 1_555
H70 O74 0.979235 1_555
H71 O76 1.063519 1_555
H71 O83 1.471346 1_555
H72 O86 1.001066 1_565
H73 O76 1.009179 1_555
H74 O0 1.024577 1_565
H74 O80 1.564377 1_655
H75 O0 1.011539 1_565
H75 O82 1.616341 1_655
H76 O86 0.996848 1_565
H77 O82 0.976829 1_555
H78 O4 1.003271 1_565
H78 O74 1.637798 1_555
H79 O7 0.987330 1_565
C0 O81 1.262685 1_545
C0 O85 1.271871 1_545
C1 O16 1.262895 1_555
C1 O9 1.269212 1_555
C2 O14 1.262441 1_555
C2 O84 1.267503 1_545
C3 O18 1.265827 1_655
C3 O12 1.266215 1_555
C4 O20 1.260908 1_555
C4 O22 1.267750 1_555
C5 O15 1.265602 1_555
C5 O31 1.271186 1_555
C6 O26 1.265602 1_555
C6 O10 1.271186 1_555
C7 O24 1.260908 1_555
C7 O21 1.267750 1_555
C8 O28 1.262441 1_555
C8 O44 1.267503 1_555
C9 O27 1.265827 1_555
C9 O33 1.266215 1_555
C10 O29 1.262895 1_455
C10 O36 1.269212 1_555
C11 O52 1.262685 1_555
C11 O50 1.271871 1_555
C12 O35 1.262685 1_555
C12 O37 1.271871 1_555
C13 O58 1.262895 1_655
C13 O51 1.269212 1_555
C14 O60 1.265827 1_555
C14 O54 1.266215 1_555
C15 O59 1.262441 1_555
C15 O43 1.267503 1_555
C16 O63 1.260908 1_555
C16 O66 1.267750 1_555
C17 O61 1.265602 1_555
C17 O77 1.271186 1_555
C18 O72 1.265602 1_555
C18 O56 1.271186 1_555
C19 O67 1.260908 1_555
C19 O65 1.267750 1_555
C20 O69 1.265827 1_455
C20 O75 1.266215 1_555
C21 O73 1.262441 1_555
C21 O3 1.267503 1_565
C22 O71 1.262895 1_555
C22 O78 1.269212 1_555
C23 O6 1.262685 1_565
C23 O2 1.271871 1_565
