# generated using pymatgen
data_Li3Sb3(PO4)4
_symmetry_space_group_name_H-M   'P 1'
_cell_length_a   9.11803000
_cell_length_b   9.65900825
_cell_length_c   10.48490063
_cell_angle_alpha   108.97279710
_cell_angle_beta   103.06419885
_cell_angle_gamma   111.24097528
_symmetry_Int_Tables_number   1
_chemical_formula_structural   Li3Sb3(PO4)4
_chemical_formula_sum   'Li6 Sb6 P8 O32'
_cell_volume   749.44670507
_cell_formula_units_Z   2
loop_
 _symmetry_equiv_pos_site_id
 _symmetry_equiv_pos_as_xyz
  1  'x, y, z'
loop_
 _atom_site_type_symbol
 _atom_site_label
 _atom_site_symmetry_multiplicity
 _atom_site_fract_x
 _atom_site_fract_y
 _atom_site_fract_z
 _atom_site_occupancy
  Li  Li0  1  0.78645400  0.20341200  0.23564000  1
  Li  Li1  1  0.32954900  0.28454100  0.14860400  1
  Li  Li2  1  0.59781500  0.64195100  0.70789000  1
  Li  Li3  1  0.40218500  0.35804900  0.29211000  1
  Li  Li4  1  0.67045100  0.71545900  0.85139600  1
  Li  Li5  1  0.21354600  0.79658800  0.76436000  1
  Sb  Sb0  1  0.34640700  0.58781400  0.44612400  1
  Sb  Sb1  1  0.02722200  0.27168700  0.84739100  1
  Sb  Sb2  1  0.73531500  0.32032200  0.74993100  1
  Sb  Sb3  1  0.26468500  0.67967800  0.25006900  1
  Sb  Sb4  1  0.97277800  0.72831300  0.15260900  1
  Sb  Sb5  1  0.65359300  0.41218600  0.55387600  1
  P  P0  1  0.15135000  0.86655900  0.41499200  1
  P  P1  1  0.90650700  0.09832300  0.07790400  1
  P  P2  1  0.65834700  0.32849900  0.94146500  1
  P  P3  1  0.56438400  0.74546200  0.50725600  1
  P  P4  1  0.43561600  0.25453800  0.49274400  1
  P  P5  1  0.34165300  0.67150100  0.05853500  1
  P  P6  1  0.09349300  0.90167700  0.92209600  1
  P  P7  1  0.84865000  0.13344100  0.58500800  1
  O  O0  1  0.66619400  0.92333500  0.11974000  1
  O  O1  1  0.42214300  0.02145900  0.08278600  1
  O  O2  1  0.27650200  0.53016300  0.58780100  1
  O  O3  1  0.06277500  0.72079200  0.39676100  1
  O  O4  1  0.33751100  0.88122200  0.40221300  1
  O  O5  1  0.91055200  0.92752700  0.15076800  1
  O  O6  1  0.86804100  0.66864800  0.57651700  1
  O  O7  1  0.93441000  0.45685300  0.86382100  1
  O  O8  1  0.71675600  0.70683900  0.45524200  1
  O  O9  1  0.66369100  0.38860200  0.84154800  1
  O  O10  1  0.28210100  0.12956800  0.30085800  1
  O  O11  1  0.87988000  0.19982700  0.11624000  1
  O  O12  1  0.73931800  0.02152700  0.37861700  1
  O  O13  1  0.54098300  0.35690900  0.36056600  1
  O  O14  1  0.16503400  0.32141300  0.90583300  1
  O  O15  1  0.40397700  0.56862600  0.02784200  1
  O  O16  1  0.59602300  0.43137400  0.97215800  1
  O  O17  1  0.83496600  0.67858700  0.09416700  1
  O  O18  1  0.45901700  0.64309100  0.63943400  1
  O  O19  1  0.26068200  0.97847300  0.62138300  1
  O  O20  1  0.12012000  0.80017300  0.88376000  1
  O  O21  1  0.71789900  0.87043200  0.69914200  1
  O  O22  1  0.33630900  0.61139800  0.15845200  1
  O  O23  1  0.28324400  0.29316100  0.54475800  1
  O  O24  1  0.06559000  0.54314700  0.13617900  1
  O  O25  1  0.13195900  0.33135200  0.42348300  1
  O  O26  1  0.08944800  0.07247300  0.84923200  1
  O  O27  1  0.66248900  0.11877800  0.59778700  1
  O  O28  1  0.93722500  0.27920800  0.60323900  1
  O  O29  1  0.72349800  0.46983700  0.41219900  1
  O  O30  1  0.57785700  0.97854100  0.91721400  1
  O  O31  1  0.33380600  0.07666500  0.88026000  1
loop_
_geom_bond_atom_site_label_1
_geom_bond_atom_site_label_2
_geom_bond_distance
_geom_bond_site_symmetry_2
Li0 O11 1.664158 1_555
Li0 O0 2.260116 1_545
Li1 Li3 1.311798 1_555
Li1 O10 2.524483 1_555
Li2 Li4 1.311798 1_555
Li2 O18 1.312069 1_555
Li2 O21 2.122224 1_555
Li2 Sb5 2.578842 1_555
Li3 O13 1.312069 1_555
Li3 O10 2.122224 1_555
Li3 Sb0 2.578842 1_555
Li4 O21 2.524483 1_555
Li5 O20 1.664158 1_555
Li5 O31 2.260116 1_565
P3 Sb0 1.810052 1_555
P4 Sb5 1.810052 1_555
O2 O25 1.838810 1_555
O2 Sb0 1.905705 1_555
O3 P0 1.265876 1_555
O4 P0 1.691217 1_555
O4 Sb3 1.827716 1_555
O5 P1 2.038985 1_565
O5 Sb4 2.198895 1_555
O6 O8 1.880553 1_555
O6 Sb5 2.431911 1_555
O7 Sb2 1.649825 1_555
O7 Sb1 2.215153 1_655
O8 P3 1.718324 1_555
O9 P2 1.354602 1_555
O9 Sb2 1.402838 1_555
O10 P4 1.840538 1_555
O11 P1 1.068687 1_555
O12 P7 1.888918 1_555
O13 O29 1.464852 1_555
O13 Sb5 1.845447 1_555
O13 P4 2.150825 1_555
O14 Sb1 1.099256 1_555
O15 P5 1.302988 1_555
O16 P2 1.302988 1_555
O17 Sb4 1.099256 1_555
O18 O2 1.464852 1_555
O18 Sb0 1.845447 1_555
O18 P3 2.150825 1_555
O19 P0 1.888918 1_555
O20 P6 1.068687 1_555
O21 P3 1.840538 1_555
O22 P5 1.354602 1_555
O22 Sb3 1.402838 1_555
O23 P4 1.718324 1_555
O23 O25 1.880553 1_555
O24 Sb3 1.649825 1_555
O24 Sb4 2.215153 1_455
O25 Sb0 2.431911 1_555
O26 P6 2.038985 1_545
O26 Sb1 2.198895 1_555
O27 P7 1.691217 1_555
O27 Sb2 1.827716 1_555
O28 P7 1.265876 1_555
O29 O6 1.838810 1_555
O29 Sb5 1.905705 1_555
