# generated using pymatgen
data_Na5TaO5
_symmetry_space_group_name_H-M   'P 1'
_cell_length_a   5.96991797
_cell_length_b   5.96991797
_cell_length_c   9.97645711
_cell_angle_alpha   81.33042602
_cell_angle_beta   81.33042602
_cell_angle_gamma   116.77986364
_symmetry_Int_Tables_number   1
_chemical_formula_structural   Na5TaO5
_chemical_formula_sum   'Na10 Ta2 O10'
_cell_volume   304.01428236
_cell_formula_units_Z   2
loop_
 _symmetry_equiv_pos_site_id
 _symmetry_equiv_pos_as_xyz
  1  'x, y, z'
loop_
 _atom_site_type_symbol
 _atom_site_label
 _atom_site_symmetry_multiplicity
 _atom_site_fract_x
 _atom_site_fract_y
 _atom_site_fract_z
 _atom_site_occupancy
  Na  Na0  1  0.32392871  0.00635977  0.92177272  1
  Na  Na1  1  0.99364023  0.67607129  0.57822728  1
  Na  Na2  1  0.44438209  0.21406049  0.54907711  1
  Na  Na3  1  0.78593951  0.55561791  0.95092289  1
  Na  Na4  1  0.55561791  0.78593951  0.45092289  1
  Na  Na5  1  0.21406049  0.44438209  0.04907711  1
  Na  Na6  1  0.66995861  0.33004139  0.25000000  1
  Na  Na7  1  0.33004139  0.66995861  0.75000000  1
  Na  Na8  1  0.00635977  0.32392871  0.42177272  1
  Na  Na9  1  0.67607129  0.99364023  0.07822728  1
  Ta  Ta0  1  0.09192078  0.90807922  0.25000000  1
  Ta  Ta1  1  0.90807922  0.09192078  0.75000000  1
  O  O0  1  0.90542367  0.09457633  0.25000000  1
  O  O1  1  0.09457633  0.90542367  0.75000000  1
  O  O2  1  0.30355198  0.96190128  0.38245818  1
  O  O3  1  0.03809872  0.69644802  0.11754182  1
  O  O4  1  0.40426585  0.19040813  0.10430039  1
  O  O5  1  0.80959187  0.59573415  0.39569961  1
  O  O6  1  0.59573415  0.80959187  0.89569961  1
  O  O7  1  0.19040813  0.40426585  0.60430039  1
  O  O8  1  0.69644802  0.03809872  0.61754182  1
  O  O9  1  0.96190128  0.30355198  0.88245818  1
loop_
_geom_bond_atom_site_label_1
_geom_bond_atom_site_label_2
_geom_bond_distance
_geom_bond_site_symmetry_2
Na0 O4 2.268228 1_556
Na0 O3 2.282613 1_546
Na0 O1 2.334472 1_545
Na0 O6 2.400644 1_545
Na1 O5 2.268228 1_555
Na1 O2 2.282613 1_655
Na1 O1 2.334472 1_655
Na1 O7 2.400644 1_655
Na2 O8 2.313554 1_555
Na2 O7 2.319482 1_555
Na2 O5 2.398597 1_555
Na2 O2 2.402358 1_545
Na2 O1 2.435414 1_545
Na3 O9 2.313554 1_555
Na3 O6 2.319482 1_555
Na3 O4 2.398597 1_556
Na3 O3 2.402358 1_656
Na3 O1 2.435414 1_655
Na4 O2 2.313554 1_555
Na4 O5 2.319482 1_555
Na4 O7 2.398597 1_555
Na4 O8 2.402358 1_565
Na4 O0 2.435414 1_565
Na5 O3 2.313554 1_555
Na5 O4 2.319482 1_555
Na5 O6 2.398597 1_554
Na5 O9 2.402358 1_454
Na5 O0 2.435414 1_455
Na6 O4 2.278712 1_555
Na6 O5 2.278712 1_555
Na6 O2 2.298291 1_545
Na6 O3 2.298291 1_655
Na6 O0 2.394298 1_555
Na7 O6 2.278712 1_555
Na7 O7 2.278712 1_555
Na7 O8 2.298291 1_565
Na7 O9 2.298291 1_455
Na7 O1 2.394298 1_555
Na8 O7 2.268228 1_555
Na8 O8 2.282613 1_455
Na8 O0 2.334472 1_455
Na8 O5 2.400644 1_455
Na9 O6 2.268228 1_554
Na9 O9 2.282613 1_564
Na9 O0 2.334472 1_565
Na9 O4 2.400644 1_565
O0 Ta0 1.896374 1_645
O1 Ta1 1.896374 1_465
O2 Ta0 1.926462 1_555
O3 Ta0 1.926462 1_555
O4 Ta0 2.010689 1_545
O5 Ta0 2.010689 1_655
O6 Ta1 2.010689 1_565
O7 Ta1 2.010689 1_455
O8 Ta1 1.926462 1_555
O9 Ta1 1.926462 1_555
