# generated using pymatgen
data_LuMgCd2
_symmetry_space_group_name_H-M   'P 1'
_cell_length_a   4.99609457
_cell_length_b   4.99609457
_cell_length_c   4.99609457
_cell_angle_alpha   60.00000000
_cell_angle_beta   60.00000000
_cell_angle_gamma   60.00000000
_symmetry_Int_Tables_number   1
_chemical_formula_structural   LuMgCd2
_chemical_formula_sum   'Lu1 Mg1 Cd2'
_cell_volume   88.18139269
_cell_formula_units_Z   1
loop_
 _symmetry_equiv_pos_site_id
 _symmetry_equiv_pos_as_xyz
  1  'x, y, z'
loop_
 _atom_site_type_symbol
 _atom_site_label
 _atom_site_symmetry_multiplicity
 _atom_site_fract_x
 _atom_site_fract_y
 _atom_site_fract_z
 _atom_site_occupancy
  Lu  Lu0  1  0.25000000  0.25000000  0.25000000  1
  Mg  Mg0  1  0.74999900  0.74999900  0.74999900  1
  Cd  Cd0  1  0.49999900  0.49999900  0.49999900  1
  Cd  Cd1  1  -0.00000000  0.00000000  0.00000000  1
loop_
_geom_bond_atom_site_label_1
_geom_bond_atom_site_label_2
_geom_bond_distance
_geom_bond_site_symmetry_2
Cd0 Lu0 3.059458 1_555
Cd0 Mg0 3.059471 1_545
Cd0 Mg0 3.059471 1_554
Cd0 Mg0 3.059471 1_455
Cd0 Mg0 3.059471 1_555
Cd0 Lu0 3.059475 1_556
Cd0 Lu0 3.059475 1_655
Cd0 Lu0 3.059475 1_565
Cd1 Mg0 3.059467 1_544
Cd1 Mg0 3.059467 1_445
Cd1 Mg0 3.059467 1_454
Cd1 Lu0 3.059471 1_554
Cd1 Lu0 3.059471 1_455
Cd1 Lu0 3.059471 1_555
Cd1 Lu0 3.059471 1_545
Cd1 Mg0 3.059483 1_444
