# generated using pymatgen
data_Na8Nb5O14
_symmetry_space_group_name_H-M   'P 1'
_cell_length_a   10.82558200
_cell_length_b   8.66597442
_cell_length_c   8.75468895
_cell_angle_alpha   112.85615936
_cell_angle_beta   104.23407506
_cell_angle_gamma   100.44776830
_symmetry_Int_Tables_number   1
_chemical_formula_structural   Na8Nb5O14
_chemical_formula_sum   'Na16 Nb10 O28'
_cell_volume   697.46462069
_cell_formula_units_Z   2
loop_
 _symmetry_equiv_pos_site_id
 _symmetry_equiv_pos_as_xyz
  1  'x, y, z'
loop_
 _atom_site_type_symbol
 _atom_site_label
 _atom_site_symmetry_multiplicity
 _atom_site_fract_x
 _atom_site_fract_y
 _atom_site_fract_z
 _atom_site_occupancy
  Na  Na0  1  0.68297600  0.02014600  0.45921400  1
  Na  Na1  1  0.00000000  0.00000000  0.00000000  1
  Na  Na2  1  0.68676900  0.19624100  0.20696200  1
  Na  Na3  1  0.36697900  0.17547500  0.30501100  1
  Na  Na4  1  0.01936000  0.11627000  0.37055100  1
  Na  Na5  1  0.42122700  0.29622900  0.70371100  1
  Na  Na6  1  0.48203900  0.38848500  0.10684400  1
  Na  Na7  1  0.13523700  0.42814300  0.56775600  1
  Na  Na8  1  0.50000000  0.50000000  0.50000000  1
  Na  Na9  1  0.86476300  0.57185700  0.43224400  1
  Na  Na10  1  0.51796100  0.61151500  0.89315600  1
  Na  Na11  1  0.57877300  0.70377100  0.29628900  1
  Na  Na12  1  0.98064000  0.88373000  0.62944900  1
  Na  Na13  1  0.63302100  0.82452500  0.69498900  1
  Na  Na14  1  0.31323100  0.80375900  0.79303800  1
  Na  Na15  1  0.31702400  0.97985400  0.54078600  1
  Nb  Nb0  1  0.70549600  0.14192100  0.85253200  1
  Nb  Nb1  1  0.08504600  0.20944700  0.78015300  1
  Nb  Nb2  1  0.77383200  0.35689000  0.62520800  1
  Nb  Nb3  1  0.09923500  0.34451400  0.16937300  1
  Nb  Nb4  1  0.85988000  0.47120300  0.03199800  1
  Nb  Nb5  1  0.14012000  0.52879700  0.96800200  1
  Nb  Nb6  1  0.90076500  0.65548600  0.83062700  1
  Nb  Nb7  1  0.22616800  0.64311000  0.37479200  1
  Nb  Nb8  1  0.91495400  0.79055300  0.21984700  1
  Nb  Nb9  1  0.29450400  0.85807900  0.14746800  1
  O  O0  1  0.53203600  0.98482900  0.80759900  1
  O  O1  1  0.85980100  0.05861700  0.75536400  1
  O  O2  1  0.59217400  0.17883500  0.61848300  1
  O  O3  1  0.91016000  0.23514600  0.55745100  1
  O  O4  1  0.17734300  0.10644200  0.67104200  1
  O  O5  1  0.88728500  0.16488200  0.09703000  1
  O  O6  1  0.64419900  0.28661500  0.96814700  1
  O  O7  1  0.93336300  0.32708300  0.88191000  1
  O  O8  1  0.63879900  0.35453500  0.39358700  1
  O  O9  1  0.19883000  0.22181100  0.03431400  1
  O  O10  1  0.23503600  0.31261500  0.39826600  1
  O  O11  1  0.99355900  0.52641400  0.69514400  1
  O  O12  1  0.67642000  0.47315000  0.76369200  1
  O  O13  1  0.25468400  0.39554200  0.84493100  1
  O  O14  1  0.74531600  0.60445800  0.15506900  1
  O  O15  1  0.32358000  0.52685000  0.23630800  1
  O  O16  1  0.00644100  0.47358600  0.30485600  1
  O  O17  1  0.76496400  0.68738500  0.60173400  1
  O  O18  1  0.80117000  0.77818900  0.96568600  1
  O  O19  1  0.36120100  0.64546500  0.60641300  1
  O  O20  1  0.06663700  0.67291700  0.11809000  1
  O  O21  1  0.35580100  0.71338500  0.03185300  1
  O  O22  1  0.11271500  0.83511800  0.90297000  1
  O  O23  1  0.82265700  0.89355800  0.32895800  1
  O  O24  1  0.08984000  0.76485400  0.44254900  1
  O  O25  1  0.40782600  0.82116500  0.38151700  1
  O  O26  1  0.14019900  0.94138300  0.24463600  1
  O  O27  1  0.46796400  0.01517100  0.19240100  1
loop_
_geom_bond_atom_site_label_1
_geom_bond_atom_site_label_2
_geom_bond_distance
_geom_bond_site_symmetry_2
Na0 O2 2.115736 1_555
Na0 O23 2.295246 1_545
Na0 O3 2.512544 1_555
Na0 O1 2.674685 1_555
Na0 O27 2.843871 1_555
Na1 O5 2.109811 1_455
Na1 O22 2.109811 1_544
Na1 O9 2.480129 1_555
Na1 O18 2.480129 1_444
Na1 O26 2.583551 1_545
Na1 O1 2.583551 1_454
Na2 O8 1.937882 1_555
Na2 O6 2.475092 1_554
Na2 O27 2.537180 1_555
Na2 O5 2.598112 1_555
Na3 O27 2.028251 1_555
Na3 O10 2.134140 1_555
Na3 O26 2.672922 1_545
Na3 O9 2.823819 1_555
Na4 O3 2.284626 1_455
Na4 O26 2.313810 1_545
Na4 O23 2.444217 1_445
Na4 Nb8 2.490413 1_445
Na4 O10 2.522952 1_555
Na4 O5 2.697080 1_455
Na4 O4 2.804848 1_555
Na5 O2 2.405949 1_555
Na5 O13 2.520338 1_555
Na5 O12 2.717251 1_555
Na5 O4 2.728695 1_555
Na6 O6 2.472451 1_554
Na6 O15 2.512250 1_555
Na6 O8 2.815690 1_555
Na6 O9 2.934843 1_555
Na6 O14 2.943497 1_555
Na6 O13 2.950829 1_554
Na7 O10 2.097121 1_555
Na7 O11 2.213248 1_455
Na7 O16 2.592615 1_555
Na7 O13 2.600420 1_555
Na7 O3 2.653126 1_455
Na8 O19 2.275477 1_555
Na8 O8 2.275477 1_555
Na8 O12 2.727873 1_555
Na8 O15 2.727873 1_555
Na9 O17 2.097121 1_555
Na9 O16 2.213248 1_655
Na9 O11 2.592615 1_555
Na9 O14 2.600420 1_555
Na9 O24 2.653126 1_655
Na10 Na5 2.429098 1_555
Na10 O21 2.472451 1_556
Na10 O12 2.512250 1_555
Na10 O19 2.815690 1_555
Na10 O18 2.934843 1_555
Na10 O13 2.943497 1_555
Na10 O14 2.950829 1_556
Na11 O25 2.405949 1_555
Na11 Na6 2.429098 1_555
Na11 O14 2.520338 1_555
Na11 O15 2.717251 1_555
Na11 O23 2.728695 1_555
Na12 O24 2.284626 1_655
Na12 O1 2.313810 1_565
Na12 O4 2.444217 1_665
Na12 Nb1 2.490413 1_665
Na12 O17 2.522952 1_555
Na12 O22 2.697080 1_655
Na12 O23 2.804848 1_555
Na13 O0 2.028251 1_555
Na13 O17 2.134140 1_555
Na13 O1 2.672922 1_565
Na13 O18 2.823819 1_555
Na14 O19 1.937882 1_555
Na14 O21 2.475092 1_556
Na14 O0 2.537180 1_555
Na14 O22 2.598112 1_555
Na15 O25 2.115736 1_555
Na15 O4 2.295246 1_565
Na15 O24 2.512544 1_555
Na15 O26 2.674685 1_555
Na15 O0 2.843871 1_555
Nb0 O6 1.638064 1_555
Nb0 O0 1.956470 1_545
Nb0 O1 2.166627 1_555
Nb0 O2 2.284993 1_555
Nb0 O5 2.439227 1_556
Nb1 O4 1.684652 1_555
Nb1 O13 1.999533 1_555
Nb1 O9 2.213347 1_556
Nb1 O1 2.462698 1_455
Nb1 O3 2.471891 1_455
Nb2 O12 1.913679 1_555
Nb2 O3 2.037668 1_555
Nb2 O8 2.179102 1_555
Nb2 O2 2.241356 1_555
Nb2 O11 2.347096 1_555
Nb2 O7 2.608442 1_555
Nb3 O16 1.905235 1_555
Nb3 O9 1.938357 1_555
Nb3 O5 2.305017 1_455
Nb3 O10 2.319964 1_555
Nb3 O15 2.434664 1_555
Nb4 O7 1.875820 1_554
Nb4 O14 2.059751 1_555
Nb4 O20 2.315482 1_655
Nb4 O6 2.373156 1_554
Nb4 O16 2.511974 1_655
Nb4 O12 2.685331 1_554
Nb5 O20 1.875820 1_556
Nb5 O13 2.059751 1_555
Nb5 O7 2.315482 1_455
Nb5 O21 2.373156 1_556
Nb5 O11 2.511974 1_455
Nb5 O15 2.685331 1_556
Nb6 O11 1.905235 1_555
Nb6 O18 1.938357 1_555
Nb6 O22 2.305017 1_655
Nb6 O17 2.319964 1_555
Nb6 O12 2.434664 1_555
Nb7 O15 1.913679 1_555
Nb7 O24 2.037668 1_555
Nb7 O19 2.179102 1_555
Nb7 O25 2.241356 1_555
Nb7 O16 2.347096 1_555
Nb7 O20 2.608442 1_555
Nb8 O23 1.684652 1_555
Nb8 O14 1.999533 1_555
Nb8 O18 2.213347 1_554
Nb8 O26 2.462698 1_655
Nb8 O24 2.471891 1_655
Nb9 O21 1.638064 1_555
Nb9 O27 1.956470 1_565
Nb9 O26 2.166627 1_555
Nb9 O25 2.284993 1_555
Nb9 O22 2.439227 1_554
