# generated using pymatgen
data_Cs2CoSe2
_symmetry_space_group_name_H-M   'P 1'
_cell_length_a   8.80683690
_cell_length_b   8.80683690
_cell_length_c   8.80683690
_cell_angle_alpha   135.66702945
_cell_angle_beta   129.17232484
_cell_angle_gamma   69.69939047
_symmetry_Int_Tables_number   1
_chemical_formula_structural   Cs2CoSe2
_chemical_formula_sum   'Cs4 Co2 Se4'
_cell_volume   363.05978489
_cell_formula_units_Z   2
loop_
 _symmetry_equiv_pos_site_id
 _symmetry_equiv_pos_as_xyz
  1  'x, y, z'
loop_
 _atom_site_type_symbol
 _atom_site_label
 _atom_site_symmetry_multiplicity
 _atom_site_fract_x
 _atom_site_fract_y
 _atom_site_fract_z
 _atom_site_occupancy
  Cs  Cs0  1  0.81897800  0.64584300  0.17313600  1
  Cs  Cs1  1  0.18102200  0.35415700  0.82686400  1
  Cs  Cs2  1  0.52729300  0.85415700  0.67313600  1
  Cs  Cs3  1  0.47270700  0.14584300  0.32686400  1
  Co  Co0  1  0.00000000  0.75000000  0.75000000  1
  Co  Co1  1  0.00000000  0.25000000  0.25000000  1
  Se  Se0  1  0.25523600  0.59129200  0.66394400  1
  Se  Se1  1  0.07265200  0.90870800  0.16394400  1
  Se  Se2  1  0.92734800  0.09129200  0.83605600  1
  Se  Se3  1  0.74476400  0.40870800  0.33605600  1
loop_
_geom_bond_atom_site_label_1
_geom_bond_atom_site_label_2
_geom_bond_distance
_geom_bond_site_symmetry_2
Cs0 Se2 3.630348 1_565
Cs0 Se2 3.630354 1_554
Cs0 Se3 3.642231 1_555
Cs0 Se0 3.792873 1_655
Cs0 Se1 3.800285 1_655
Cs0 Se0 3.928900 1_554
Cs1 Se1 3.630348 1_545
Cs1 Se1 3.630354 1_556
Cs1 Se0 3.642231 1_555
Cs1 Se3 3.792873 1_455
Cs1 Se2 3.800285 1_455
Cs1 Se3 3.928900 1_556
Cs2 Se3 3.630352 1_555
Cs2 Se3 3.630352 1_566
Cs2 Se2 3.642237 1_565
Cs2 Se1 3.792871 1_656
Cs2 Se0 3.800278 1_555
Cs2 Se1 3.928905 1_555
Cs3 Se0 3.630352 1_544
Cs3 Se0 3.630352 1_555
Cs3 Se1 3.642237 1_545
Cs3 Se2 3.792871 1_454
Cs3 Se3 3.800278 1_555
Cs3 Se2 3.928905 1_555
Co0 Se2 2.457102 1_465
Co0 Se0 2.457102 1_555
Co0 Se3 2.457102 1_455
Co0 Se1 2.457102 1_556
Co0 Cs0 3.648157 1_455
Co0 Cs1 3.648160 1_555
Co0 Cs2 3.648160 1_455
Co0 Cs3 3.648160 1_566
Co1 Se2 2.457102 1_454
Co1 Se0 2.457102 1_555
Co1 Se1 2.457102 1_545
Co1 Se3 2.457102 1_455
Co1 Cs1 3.648157 1_555
Co1 Cs0 3.648160 1_455
Co1 Cs2 3.648160 1_444
Co1 Cs3 3.648160 1_555
