# generated using pymatgen
data_TiV5(PO4)6
_symmetry_space_group_name_H-M   'P 1'
_cell_length_a   8.60476335
_cell_length_b   8.60476335
_cell_length_c   8.60476284
_cell_angle_alpha   60.24080932
_cell_angle_beta   60.24080932
_cell_angle_gamma   60.24080763
_symmetry_Int_Tables_number   1
_chemical_formula_structural   TiV5(PO4)6
_chemical_formula_sum   'Ti1 V5 P6 O24'
_cell_volume   452.96312326
_cell_formula_units_Z   1
loop_
 _symmetry_equiv_pos_site_id
 _symmetry_equiv_pos_as_xyz
  1  'x, y, z'
loop_
 _atom_site_type_symbol
 _atom_site_label
 _atom_site_symmetry_multiplicity
 _atom_site_fract_x
 _atom_site_fract_y
 _atom_site_fract_z
 _atom_site_occupancy
  Ti  Ti0  1  0.85485500  0.85485500  0.85485500  1
  V  V0  1  0.99974400  0.99974400  0.99974400  1
  V  V1  1  0.35663600  0.35663600  0.35663600  1
  V  V2  1  0.50054300  0.50054300  0.50054300  1
  V  V3  1  0.14446700  0.14446700  0.14446700  1
  V  V4  1  0.64307800  0.64307800  0.64307800  1
  P  P0  1  0.45535200  0.74991600  0.04325700  1
  P  P1  1  0.74991600  0.04325700  0.45535200  1
  P  P2  1  0.04325700  0.45535200  0.74991600  1
  P  P3  1  0.95707900  0.54326700  0.24997900  1
  P  P4  1  0.24997900  0.95707900  0.54326700  1
  P  P5  1  0.54326700  0.24997900  0.95707900  1
  O  O0  1  0.68766700  0.88652700  0.49453400  1
  O  O1  1  0.88652700  0.49453400  0.68766700  1
  O  O2  1  0.49453400  0.68766700  0.88652700  1
  O  O3  1  0.26157100  0.91358500  0.06010500  1
  O  O4  1  0.61850100  0.81437100  0.99577800  1
  O  O5  1  0.44400300  0.58930200  0.23884700  1
  O  O6  1  0.91358500  0.06010500  0.26157100  1
  O  O7  1  0.58930200  0.23884700  0.44400300  1
  O  O8  1  0.99582800  0.38572700  0.18746200  1
  O  O9  1  0.23884700  0.44400300  0.58930200  1
  O  O10  1  0.93909300  0.73953700  0.08571400  1
  O  O11  1  0.18746200  0.99582800  0.38572700  1
  O  O12  1  0.81437100  0.99577800  0.61850100  1
  O  O13  1  0.06010500  0.26157100  0.91358500  1
  O  O14  1  0.75932300  0.56184100  0.41053700  1
  O  O15  1  0.99577800  0.61850100  0.81437100  1
  O  O16  1  0.41053700  0.75932300  0.56184100  1
  O  O17  1  0.08571400  0.93909300  0.73953700  1
  O  O18  1  0.56184100  0.41053700  0.75932300  1
  O  O19  1  0.38572700  0.18746200  0.99582800  1
  O  O20  1  0.73953700  0.08571400  0.93909300  1
  O  O21  1  0.50674400  0.31135400  0.11389600  1
  O  O22  1  0.11389600  0.50674400  0.31135400  1
  O  O23  1  0.31135400  0.11389600  0.50674400  1
loop_
_geom_bond_atom_site_label_1
_geom_bond_atom_site_label_2
_geom_bond_distance
_geom_bond_site_symmetry_2
O0 P1 1.518494 1_565
O0 V4 1.955052 1_555
O1 P2 1.518494 1_655
O1 V4 1.955052 1_555
O2 P0 1.518494 1_556
O2 V4 1.955052 1_555
O3 P0 1.554442 1_555
O3 V3 2.051207 1_565
O3 V0 2.239754 1_454
O4 P0 1.556910 1_556
O4 Ti0 1.887795 1_555
O5 P0 1.553667 1_555
O5 V1 2.079404 1_555
O5 V2 2.214080 1_555
O6 P1 1.554442 1_555
O6 V3 2.051207 1_655
O6 V0 2.239753 1_544
O7 P1 1.553667 1_555
O7 V1 2.079404 1_555
O7 V2 2.214080 1_555
O8 P3 1.528188 1_555
O8 V3 1.933727 1_655
O9 P2 1.553667 1_555
O9 V1 2.079404 1_555
O9 V2 2.214080 1_555
O10 P3 1.569081 1_555
O10 Ti0 2.052989 1_554
O10 V0 2.228297 1_554
O11 P4 1.528188 1_555
O11 V3 1.933727 1_565
O12 P1 1.556910 1_565
O12 Ti0 1.887795 1_555
O13 P2 1.554442 1_555
O13 V3 2.051207 1_556
O13 V0 2.239754 1_445
O14 P3 1.563737 1_555
O14 V4 2.049517 1_555
O14 V2 2.210164 1_555
O15 P2 1.556910 1_655
O15 Ti0 1.887795 1_555
O16 P4 1.563737 1_555
O16 V4 2.049517 1_555
O16 V2 2.210164 1_555
O17 P4 1.569081 1_555
O17 Ti0 2.052989 1_455
O17 V0 2.228297 1_455
O18 P5 1.563737 1_555
O18 V4 2.049517 1_555
O18 V2 2.210164 1_555
O19 P5 1.528188 1_555
O19 V3 1.933727 1_556
O20 P5 1.569081 1_555
O20 Ti0 2.052989 1_545
O20 V0 2.228297 1_545
O21 P5 1.523212 1_554
O21 V1 1.952692 1_555
O22 P3 1.523212 1_455
O22 V1 1.952692 1_555
O23 P4 1.523212 1_545
O23 V1 1.952692 1_555
