# generated using pymatgen
data_Mn7(OF3)3
_symmetry_space_group_name_H-M   'P 1'
_cell_length_a   6.31961700
_cell_length_b   6.36859739
_cell_length_c   6.47183273
_cell_angle_alpha   89.80964627
_cell_angle_beta   89.10617252
_cell_angle_gamma   89.38792207
_symmetry_Int_Tables_number   1
_chemical_formula_structural   Mn7(OF3)3
_chemical_formula_sum   'Mn7 O3 F9'
_cell_volume   260.42462299
_cell_formula_units_Z   1
loop_
 _symmetry_equiv_pos_site_id
 _symmetry_equiv_pos_as_xyz
  1  'x, y, z'
loop_
 _atom_site_type_symbol
 _atom_site_label
 _atom_site_symmetry_multiplicity
 _atom_site_fract_x
 _atom_site_fract_y
 _atom_site_fract_z
 _atom_site_occupancy
  Mn  Mn0  1  0.93271000  0.75735700  0.43637200  1
  Mn  Mn1  1  0.75688000  0.45586700  0.08298800  1
  Mn  Mn2  1  0.56320600  0.93109800  0.73358600  1
  Mn  Mn3  1  0.42878000  0.05862800  0.23846700  1
  Mn  Mn4  1  0.25990400  0.57821600  0.94381100  1
  Mn  Mn5  1  0.04765900  0.24756400  0.57564800  1
  Mn  Mn6  1  0.01372900  0.96944000  0.97531200  1
  O  O0  1  0.97248300  0.70006700  0.10562500  1
  O  O1  1  0.88816600  0.97335800  0.68093300  1
  O  O2  1  0.31600200  0.91299100  0.95795100  1
  F  F0  1  0.82644200  0.42242000  0.40129100  1
  F  F1  1  0.71667600  0.10396400  0.05708100  1
  F  F2  1  0.59335400  0.59538700  0.83206000  1
  F  F3  1  0.58893000  0.82006900  0.40286500  1
  F  F4  1  0.42591900  0.39181400  0.16259500  1
  F  F5  1  0.38387300  0.15839400  0.56602700  1
  F  F6  1  0.15302800  0.57305200  0.62066000  1
  F  F7  1  0.09004800  0.06123400  0.30007100  1
  F  F8  1  0.05062700  0.29902300  0.91987200  1
loop_
_geom_bond_atom_site_label_1
_geom_bond_atom_site_label_2
_geom_bond_distance
_geom_bond_site_symmetry_2
Mn0 O1 2.114000 1_555
Mn0 O0 2.182808 1_555
Mn1 O0 2.085580 1_555
Mn2 O1 2.096494 1_555
Mn2 O2 2.119975 1_555
Mn3 O2 2.174804 1_544
Mn4 O2 2.167519 1_555
Mn4 O0 2.216781 1_456
Mn5 O1 2.130278 1_445
Mn6 O0 1.927518 1_456
Mn6 O2 1.941602 1_555
Mn6 O1 2.075184 1_455
F0 Mn5 2.115517 1_655
F0 Mn1 2.122635 1_555
F0 Mn0 2.256361 1_555
F1 Mn6 2.115608 1_644
F1 Mn3 2.171159 1_555
F1 Mn1 2.265240 1_555
F1 Mn2 2.576301 1_544
F2 Mn1 2.125532 1_556
F2 Mn4 2.220920 1_555
F2 Mn2 2.235972 1_555
F3 Mn3 2.110582 1_565
F3 Mn0 2.218587 1_555
F3 Mn2 2.259281 1_555
F4 Mn4 2.126830 1_554
F4 Mn3 2.176361 1_555
F4 Mn1 2.188520 1_555
F5 Mn2 2.132754 1_545
F5 Mn5 2.193453 1_555
F5 Mn3 2.228137 1_555
F6 Mn0 2.178617 1_455
F6 Mn5 2.205618 1_555
F6 Mn4 2.208198 1_555
F7 Mn5 2.157109 1_555
F7 Mn3 2.171243 1_555
F7 Mn6 2.244481 1_544
F7 Mn0 2.348291 1_445
F8 Mn6 2.142820 1_545
F8 Mn4 2.234532 1_555
F8 Mn5 2.253210 1_555
F8 Mn1 2.337632 1_456
