# generated using pymatgen
data_RhCl2
_symmetry_space_group_name_H-M   'P 1'
_cell_length_a   5.68997300
_cell_length_b   5.68997300
_cell_length_c   3.72836700
_cell_angle_alpha   90.00000000
_cell_angle_beta   90.00000000
_cell_angle_gamma   90.00000000
_symmetry_Int_Tables_number   1
_chemical_formula_structural   RhCl2
_chemical_formula_sum   'Rh2 Cl4'
_cell_volume   120.70883725
_cell_formula_units_Z   2
loop_
 _symmetry_equiv_pos_site_id
 _symmetry_equiv_pos_as_xyz
  1  'x, y, z'
loop_
 _atom_site_type_symbol
 _atom_site_label
 _atom_site_symmetry_multiplicity
 _atom_site_fract_x
 _atom_site_fract_y
 _atom_site_fract_z
 _atom_site_occupancy
  Rh  Rh0  1  0.00000000  0.00000000  0.00000000  1
  Rh  Rh1  1  0.50000000  0.50000000  0.50000000  1
  Cl  Cl0  1  0.30262000  0.30262000  0.00000000  1
  Cl  Cl1  1  0.69738000  0.69738000  0.00000000  1
  Cl  Cl2  1  0.19738000  0.80262000  0.50000000  1
  Cl  Cl3  1  0.80262000  0.19738000  0.50000000  1
loop_
_geom_bond_atom_site_label_1
_geom_bond_atom_site_label_2
_geom_bond_distance
_geom_bond_site_symmetry_2
Cl0 Rh0 2.435134 1_555
Cl0 Rh1 2.449046 1_555
Cl0 Rh1 2.449046 1_554
Cl1 Rh0 2.435134 1_665
Cl1 Rh1 2.449046 1_554
Cl1 Rh1 2.449046 1_555
Cl2 Rh1 2.435134 1_555
Cl2 Rh0 2.449046 1_565
Cl2 Rh0 2.449046 1_566
Cl3 Rh1 2.435134 1_555
Cl3 Rh0 2.449046 1_655
Cl3 Rh0 2.449046 1_656
