# generated using pymatgen
data_Li9Nb7V12O48
_symmetry_space_group_name_H-M   'P 1'
_cell_length_a   5.20825000
_cell_length_b   10.54542131
_cell_length_c   17.64956896
_cell_angle_alpha   90.49048089
_cell_angle_beta   90.38735460
_cell_angle_gamma   90.16229646
_symmetry_Int_Tables_number   1
_chemical_formula_structural   Li9Nb7V12O48
_chemical_formula_sum   'Li9 Nb7 V12 O48'
_cell_volume   969.30891793
_cell_formula_units_Z   1
loop_
 _symmetry_equiv_pos_site_id
 _symmetry_equiv_pos_as_xyz
  1  'x, y, z'
loop_
 _atom_site_type_symbol
 _atom_site_label
 _atom_site_symmetry_multiplicity
 _atom_site_fract_x
 _atom_site_fract_y
 _atom_site_fract_z
 _atom_site_occupancy
  Li  Li0  1  0.09172400  0.75410200  0.74980200  1
  Li  Li1  1  0.25186500  0.57562300  0.03375300  1
  Li  Li2  1  0.25578300  0.41687900  0.52754000  1
  Li  Li3  1  0.25597000  0.08311900  0.52859800  1
  Li  Li4  1  0.24624300  0.73763000  0.19953000  1
  Li  Li5  1  0.74985100  0.24648400  0.80874400  1
  Li  Li6  1  0.74437100  0.08067000  0.96997700  1
  Li  Li7  1  0.75641500  0.74583900  0.29430400  1
  Li  Li8  1  0.90923100  0.25198000  0.25279700  1
  Nb  Nb0  1  0.23535400  0.25316700  0.70024500  1
  Nb  Nb1  1  0.22924800  0.93255700  0.03147700  1
  Nb  Nb2  1  0.41208300  0.25224000  0.24633300  1
  Nb  Nb3  1  0.58419000  0.74942200  0.75134000  1
  Nb  Nb4  1  0.76487800  0.93003500  0.47574500  1
  Nb  Nb5  1  0.76327200  0.57056200  0.47705300  1
  Nb  Nb6  1  0.77379800  0.42183800  0.97090000  1
  V  V0  1  0.23272200  0.25156100  0.05652700  1
  V  V1  1  0.22956400  0.96898300  0.34097000  1
  V  V2  1  0.22541800  0.53166500  0.34419400  1
  V  V3  1  0.28290500  0.46961600  0.84030300  1
  V  V4  1  0.28234200  0.03055500  0.84310000  1
  V  V5  1  0.30132400  0.75174200  0.55778700  1
  V  V6  1  0.71208100  0.24978600  0.44270500  1
  V  V7  1  0.71826800  0.53157400  0.15763000  1
  V  V8  1  0.71527500  0.96512800  0.16464600  1
  V  V9  1  0.78460100  0.46955100  0.66053900  1
  V  V10  1  0.77762400  0.03074300  0.66113500  1
  V  V11  1  0.76883400  0.74971900  0.94393800  1
  O  O0  1  0.05482800  0.76418800  0.00155300  1
  O  O1  1  0.06360300  0.37500200  0.62861100  1
  O  O2  1  0.06841200  0.12484300  0.63259000  1
  O  O3  1  0.07272100  0.35946300  0.77766200  1
  O  O4  1  0.09082800  0.12414500  0.78199100  1
  O  O5  1  0.06287400  0.88228100  0.52993300  1
  O  O6  1  0.06161800  0.61916900  0.53144500  1
  O  O7  1  0.10185100  0.99596700  0.92416100  1
  O  O8  1  0.06564900  0.49900400  0.92600600  1
  O  O9  1  0.17435500  0.24829200  0.16015300  1
  O  O10  1  0.17512400  0.38268500  0.29704300  1
  O  O11  1  0.17603800  0.11795800  0.29711500  1
  O  O12  1  0.36482600  0.88559300  0.79613100  1
  O  O13  1  0.36743900  0.62564500  0.79483300  1
  O  O14  1  0.37353800  0.75277000  0.66136600  1
  O  O15  1  0.42165100  0.50724300  0.42485100  1
  O  O16  1  0.42567000  0.99104300  0.42224800  1
  O  O17  1  0.40130600  0.10525500  0.03384100  1
  O  O18  1  0.42790100  0.38019200  0.03166300  1
  O  O19  1  0.40849600  0.87959600  0.28331000  1
  O  O20  1  0.39872700  0.62741100  0.29136800  1
  O  O21  1  0.42504300  0.88484500  0.11811700  1
  O  O22  1  0.45276700  0.61237800  0.13155900  1
  O  O23  1  0.45361200  0.24990600  0.49967000  1
  O  O24  1  0.59459700  0.74973400  0.48578200  1
  O  O25  1  0.58134100  0.38496200  0.88010100  1
  O  O26  1  0.54882200  0.11038800  0.86934800  1
  O  O27  1  0.54129800  0.37186900  0.70718100  1
  O  O28  1  0.55145900  0.13550100  0.70476000  1
  O  O29  1  0.56840900  0.87382400  0.96589000  1
  O  O30  1  0.59908900  0.61356500  0.96514600  1
  O  O31  1  0.59851400  0.98598400  0.57090000  1
  O  O32  1  0.59870200  0.51452100  0.57275200  1
  O  O33  1  0.63182800  0.25014600  0.34568000  1
  O  O34  1  0.63845200  0.38319800  0.20852100  1
  O  O35  1  0.64178400  0.12409200  0.20669800  1
  O  O36  1  0.83671800  0.88303000  0.70635700  1
  O  O37  1  0.83663900  0.61934900  0.70720600  1
  O  O38  1  0.83098900  0.75263300  0.84527900  1
  O  O39  1  0.89873500  0.49338800  0.07407200  1
  O  O40  1  0.92710300  0.99713100  0.07637000  1
  O  O41  1  0.89602200  0.38850300  0.46375200  1
  O  O42  1  0.89708400  0.11235000  0.46377700  1
  O  O43  1  0.91878000  0.87530100  0.21336300  1
  O  O44  1  0.90767700  0.62232000  0.21340400  1
  O  O45  1  0.94011000  0.89219600  0.37509300  1
  O  O46  1  0.93421600  0.60790300  0.37697100  1
  O  O47  1  0.93752100  0.26046700  0.99276300  1
loop_
_geom_bond_atom_site_label_1
_geom_bond_atom_site_label_2
_geom_bond_distance
_geom_bond_site_symmetry_2
Li0 O36 2.052979 1_455
Li0 O37 2.075348 1_455
Li0 O13 2.131384 1_555
Li0 O12 2.137338 1_555
Li0 O14 2.149768 1_555
Li0 O38 2.171464 1_455
Li1 O22 2.046163 1_555
Li1 O39 2.158767 1_455
Li1 O30 2.220485 1_554
Li1 O18 2.258126 1_555
Li1 O8 2.270285 1_554
Li1 O0 2.313709 1_555
Li2 O23 2.099116 1_555
Li2 O1 2.100986 1_555
Li2 O41 2.197821 1_455
Li2 O32 2.200696 1_555
Li2 O15 2.232776 1_555
Li2 O6 2.364049 1_555
Li3 O23 2.103810 1_555
Li3 O2 2.128245 1_555
Li3 O31 2.189742 1_545
Li3 O42 2.208637 1_455
Li3 O16 2.289828 1_545
Li3 O5 2.342364 1_545
Li4 O22 2.083058 1_555
Li4 O20 2.151527 1_555
Li4 O44 2.155631 1_455
Li4 O19 2.253871 1_555
Li4 O43 2.256031 1_455
Li4 O21 2.321652 1_555
Li5 O26 2.081593 1_555
Li5 O25 2.116510 1_555
Li5 O3 2.135522 1_655
Li5 O4 2.248341 1_655
Li5 O28 2.395071 1_555
Li5 O27 2.482687 1_555
Li6 O26 2.068031 1_555
Li6 O17 2.134274 1_556
Li6 O47 2.177002 1_555
Li6 O7 2.221626 1_645
Li6 O40 2.284041 1_546
Li6 O29 2.363928 1_545
Li7 O44 2.084525 1_555
Li7 O43 2.159391 1_555
Li7 O20 2.239928 1_555
Li7 O46 2.264479 1_555
Li7 O45 2.294794 1_555
Li7 O19 2.307631 1_555
Li8 O35 2.091962 1_555
Li8 O10 2.093698 1_655
Li8 O34 2.128145 1_555
Li8 O11 2.134393 1_655
Li8 O9 2.147462 1_655
Li8 O33 2.192632 1_555
Nb0 O3 1.958508 1_555
Nb0 O2 1.991151 1_555
Nb0 O1 2.017026 1_555
Nb0 O27 2.025923 1_555
Nb0 O28 2.065914 1_555
Nb0 O4 2.131177 1_555
Nb1 O40 1.892503 1_455
Nb1 O21 1.904301 1_555
Nb1 O17 2.027411 1_565
Nb1 O0 2.055473 1_555
Nb1 O7 2.117107 1_554
Nb1 O29 2.205782 1_554
Nb2 O35 1.936773 1_555
Nb2 O34 1.939010 1_555
Nb2 O9 1.954856 1_555
Nb2 O10 2.054237 1_555
Nb2 O11 2.084872 1_555
Nb2 O33 2.087710 1_555
Nb3 O13 1.894186 1_555
Nb3 O14 1.924659 1_555
Nb3 O12 1.998594 1_555
Nb3 O37 2.054937 1_555
Nb3 O36 2.089993 1_555
Nb3 O38 2.090995 1_555
Nb4 O5 1.889369 1_655
Nb4 O31 1.981164 1_555
Nb4 O45 2.039567 1_555
Nb4 O42 2.053412 1_565
Nb4 O16 2.102584 1_555
Nb4 O24 2.105085 1_555
Nb5 O6 1.888308 1_655
Nb5 O32 1.992632 1_555
Nb5 O46 2.024623 1_555
Nb5 O41 2.054534 1_555
Nb5 O24 2.090873 1_555
Nb5 O15 2.102623 1_555
Nb6 O8 1.902850 1_655
Nb6 O25 1.920825 1_555
Nb6 O47 1.945995 1_555
Nb6 O39 2.065484 1_556
Nb6 O18 2.148994 1_556
Nb6 O30 2.222345 1_555
O0 V11 1.803218 1_454
O1 V9 1.852801 1_455
O2 V10 1.882177 1_455
O3 V3 1.929884 1_555
O4 V4 1.772426 1_555
O5 V5 1.921465 1_555
O6 V5 1.923649 1_555
O7 V4 1.757491 1_565
O8 V3 1.918727 1_555
O9 V0 1.856666 1_555
O10 V2 1.789335 1_555
O11 V1 1.779118 1_545
O12 V4 1.787592 1_565
O13 V3 1.889043 1_555
O14 V5 1.863855 1_555
O15 V2 1.767907 1_555
O16 V1 1.768699 1_555
O17 V0 1.820306 1_555
O18 V0 1.753383 1_555
O19 V1 1.671543 1_555
O20 V2 1.651009 1_555
O21 V8 1.907920 1_555
O22 V7 1.689596 1_555
O23 V6 1.685619 1_555
O24 V5 1.993631 1_555
O25 V3 1.926162 1_555
O26 V4 1.681554 1_555
O27 V9 1.834600 1_555
O28 V10 1.790480 1_555
O29 V11 1.719619 1_555
O30 V11 1.729077 1_555
O31 V10 1.895770 1_565
O32 V9 1.886231 1_555
O33 V6 1.760013 1_555
O34 V7 1.858292 1_555
O35 V8 1.869134 1_545
O36 V10 1.782937 1_565
O37 V9 1.794307 1_555
O38 V11 1.773783 1_555
O39 V7 1.797567 1_555
O40 V8 1.946450 1_555
O41 V6 1.781457 1_555
O42 V6 1.783131 1_555
O43 V8 1.663530 1_555
O44 V7 1.680278 1_555
O45 V1 1.817917 1_655
O46 V2 1.814404 1_655
O47 V0 1.902220 1_656
