# generated using pymatgen
data_VPO4
_symmetry_space_group_name_H-M   'P 1'
_cell_length_a   8.57129162
_cell_length_b   8.57129162
_cell_length_c   8.57129161
_cell_angle_alpha   60.42920505
_cell_angle_beta   60.42920505
_cell_angle_gamma   60.42921249
_symmetry_Int_Tables_number   1
_chemical_formula_structural   VPO4
_chemical_formula_sum   'V6 P6 O24'
_cell_volume   449.59152414
_cell_formula_units_Z   6
loop_
 _symmetry_equiv_pos_site_id
 _symmetry_equiv_pos_as_xyz
  1  'x, y, z'
loop_
 _atom_site_type_symbol
 _atom_site_label
 _atom_site_symmetry_multiplicity
 _atom_site_fract_x
 _atom_site_fract_y
 _atom_site_fract_z
 _atom_site_occupancy
  V  V0  1  0.00000000  0.00000000  0.00000000  1
  V  V1  1  0.64349900  0.64349900  0.64349900  1
  V  V2  1  0.14349900  0.14349900  0.14349900  1
  V  V3  1  0.50000000  0.50000000  0.50000000  1
  V  V4  1  0.85650100  0.85650100  0.85650100  1
  V  V5  1  0.35650100  0.35650100  0.35650100  1
  P  P0  1  0.95712400  0.25000000  0.54287600  1
  P  P1  1  0.54287600  0.95712400  0.25000000  1
  P  P2  1  0.25000000  0.54287600  0.95712400  1
  P  P3  1  0.75000000  0.45712400  0.04287600  1
  P  P4  1  0.45712400  0.04287600  0.75000000  1
  P  P5  1  0.04287600  0.75000000  0.45712400  1
  O  O0  1  0.50264800  0.11290300  0.31659600  1
  O  O1  1  0.31659600  0.50264800  0.11290300  1
  O  O2  1  0.11290300  0.31659600  0.50264800  1
  O  O3  1  0.94051400  0.08857800  0.74019400  1
  O  O4  1  0.99735200  0.18340400  0.38709700  1
  O  O5  1  0.75980600  0.41142200  0.55948600  1
  O  O6  1  0.74019400  0.94051400  0.08857800  1
  O  O7  1  0.55948600  0.75980600  0.41142200  1
  O  O8  1  0.81659600  0.61290300  0.00264800  1
  O  O9  1  0.41142200  0.55948600  0.75980600  1
  O  O10  1  0.91142200  0.25980600  0.05948600  1
  O  O11  1  0.61290300  0.00264800  0.81659600  1
  O  O12  1  0.38709700  0.99735200  0.18340400  1
  O  O13  1  0.08857800  0.74019400  0.94051400  1
  O  O14  1  0.58857800  0.44051400  0.24019400  1
  O  O15  1  0.18340400  0.38709700  0.99735200  1
  O  O16  1  0.44051400  0.24019400  0.58857800  1
  O  O17  1  0.25980600  0.05948600  0.91142200  1
  O  O18  1  0.24019400  0.58857800  0.44051400  1
  O  O19  1  0.00264800  0.81659600  0.61290300  1
  O  O20  1  0.05948600  0.91142200  0.25980600  1
  O  O21  1  0.88709700  0.68340400  0.49735200  1
  O  O22  1  0.68340400  0.49735200  0.88709700  1
  O  O23  1  0.49735200  0.88709700  0.68340400  1
loop_
_geom_bond_atom_site_label_1
_geom_bond_atom_site_label_2
_geom_bond_distance
_geom_bond_site_symmetry_2
O0 P1 1.526807 1_545
O0 V5 1.935506 1_555
O1 P2 1.526807 1_554
O1 V5 1.935506 1_555
O2 P0 1.526807 1_455
O2 V5 1.935506 1_555
O3 P0 1.562741 1_555
O3 V4 2.053602 1_545
O3 V0 2.205724 1_656
O4 P0 1.526807 1_555
O4 V2 1.935506 1_655
O5 P0 1.562741 1_555
O5 V1 2.053603 1_555
O5 V3 2.205725 1_555
O6 P1 1.562741 1_555
O6 V4 2.053603 1_554
O6 V0 2.205724 1_665
O7 P1 1.562741 1_555
O7 V1 2.053603 1_555
O7 V3 2.205724 1_555
O8 P3 1.526807 1_555
O8 V4 1.935506 1_554
O9 P2 1.562741 1_555
O9 V1 2.053602 1_555
O9 V3 2.205724 1_555
O10 P3 1.562741 1_555
O10 V2 2.053603 1_655
O10 V0 2.205725 1_655
O11 P4 1.526807 1_555
O11 V4 1.935506 1_545
O12 P1 1.526807 1_555
O12 V2 1.935506 1_565
O13 P2 1.562741 1_555
O13 V4 2.053603 1_455
O13 V0 2.205725 1_566
O14 P3 1.562741 1_555
O14 V5 2.053602 1_555
O14 V3 2.205724 1_555
O15 P2 1.526807 1_555
O15 V2 1.935506 1_556
O16 P4 1.562741 1_555
O16 V5 2.053603 1_555
O16 V3 2.205724 1_555
O17 P4 1.562741 1_555
O17 V2 2.053603 1_556
O17 V0 2.205724 1_556
O18 P5 1.562741 1_555
O18 V5 2.053603 1_555
O18 V3 2.205725 1_555
O19 P5 1.526807 1_555
O19 V4 1.935506 1_455
O20 P5 1.562741 1_555
O20 V2 2.053602 1_565
O20 V0 2.205724 1_565
O21 P5 1.526807 1_655
O21 V1 1.935506 1_555
O22 P3 1.526807 1_556
O22 V1 1.935506 1_555
O23 P4 1.526807 1_565
O23 V1 1.935506 1_555
