# generated using pymatgen
data_DyGa3
_symmetry_space_group_name_H-M   'P 1'
_cell_length_a   6.25339126
_cell_length_b   6.25339180
_cell_length_c   4.48051901
_cell_angle_alpha   90.00000000
_cell_angle_beta   90.00000000
_cell_angle_gamma   119.99886283
_symmetry_Int_Tables_number   1
_chemical_formula_structural   DyGa3
_chemical_formula_sum   'Dy2 Ga6'
_cell_volume   151.73828617
_cell_formula_units_Z   2
loop_
 _symmetry_equiv_pos_site_id
 _symmetry_equiv_pos_as_xyz
  1  'x, y, z'
loop_
 _atom_site_type_symbol
 _atom_site_label
 _atom_site_symmetry_multiplicity
 _atom_site_fract_x
 _atom_site_fract_y
 _atom_site_fract_z
 _atom_site_occupancy
  Dy  Dy0  1  0.33333420  0.66666558  0.75000100  1
  Dy  Dy1  1  0.66666548  0.33333281  0.25000100  1
  Ga  Ga0  1  0.14537610  0.29075089  0.25000100  1
  Ga  Ga1  1  0.70924891  0.85462351  0.25000100  1
  Ga  Ga2  1  0.14537475  0.85462495  0.25000100  1
  Ga  Ga3  1  0.85462215  0.70924617  0.75000100  1
  Ga  Ga4  1  0.29075104  0.14537571  0.75000100  1
  Ga  Ga5  1  0.85462537  0.14537437  0.75000100  1
loop_
_geom_bond_atom_site_label_1
_geom_bond_atom_site_label_2
_geom_bond_distance
_geom_bond_site_symmetry_2
Dy0 Ga2 3.027094 1_555
Dy0 Ga2 3.027094 1_556
Dy0 Ga1 3.027102 1_555
Dy0 Ga1 3.027102 1_556
Dy0 Ga0 3.027102 1_555
Dy0 Ga0 3.027102 1_556
Dy0 Ga3 3.135178 1_555
Dy0 Ga4 3.135183 1_555
Dy0 Ga4 3.135195 1_565
Dy0 Ga3 3.135198 1_455
Dy0 Ga5 3.135242 1_565
Dy0 Ga5 3.135242 1_455
Dy1 Ga5 3.027092 1_555
Dy1 Ga5 3.027092 1_554
Dy1 Ga3 3.027097 1_555
Dy1 Ga3 3.027097 1_554
Dy1 Ga4 3.027101 1_555
Dy1 Ga4 3.027101 1_554
Dy1 Ga0 3.135183 1_555
Dy1 Ga1 3.135187 1_555
Dy1 Ga1 3.135191 1_545
Dy1 Ga0 3.135194 1_655
Dy1 Ga2 3.135238 1_545
Dy1 Ga2 3.135247 1_655
Ga0 Ga2 2.727262 1_545
Ga0 Ga1 2.727322 1_445
Ga0 Ga4 2.738257 1_555
Ga0 Ga4 2.738257 1_554
Ga0 Ga5 2.738275 1_455
Ga0 Ga5 2.738275 1_454
Ga1 Ga2 2.727261 1_655
Ga1 Ga3 2.738259 1_555
Ga1 Ga3 2.738259 1_554
Ga1 Ga5 2.738275 1_565
Ga1 Ga5 2.738275 1_564
Ga2 Ga4 2.738275 1_565
Ga2 Ga4 2.738275 1_564
Ga2 Ga3 2.738280 1_455
Ga2 Ga3 2.738280 1_454
Ga3 Ga5 2.727270 1_565
Ga3 Ga4 2.727334 1_665
Ga4 Ga5 2.727260 1_455
