# generated using pymatgen
data_K2InP2S7
_symmetry_space_group_name_H-M   'P 1'
_cell_length_a   9.09261951
_cell_length_b   9.09261951
_cell_length_c   8.83522841
_cell_angle_alpha   74.43245109
_cell_angle_beta   74.43245109
_cell_angle_gamma   72.61745899
_symmetry_Int_Tables_number   1
_chemical_formula_structural   K2InP2S7
_chemical_formula_sum   'K4 In2 P4 S14'
_cell_volume   657.30499480
_cell_formula_units_Z   2
loop_
 _symmetry_equiv_pos_site_id
 _symmetry_equiv_pos_as_xyz
  1  'x, y, z'
loop_
 _atom_site_type_symbol
 _atom_site_label
 _atom_site_symmetry_multiplicity
 _atom_site_fract_x
 _atom_site_fract_y
 _atom_site_fract_z
 _atom_site_occupancy
  K  K0  1  0.61204600  0.04739300  0.15909800  1
  K  K1  1  0.95260700  0.38795400  0.84090200  1
  K  K2  1  0.38795400  0.95260700  0.84090200  1
  K  K3  1  0.04739300  0.61204600  0.15909800  1
  In  In0  1  0.68896000  0.31104000  0.50000000  1
  In  In1  1  0.31104000  0.68896000  0.50000000  1
  P  P0  1  0.94011900  0.94011900  0.44068300  1
  P  P1  1  0.05988100  0.05988100  0.55931700  1
  P  P2  1  0.38995100  0.38995100  0.81467200  1
  P  P3  1  0.61004900  0.61004900  0.18532800  1
  S  S0  1  0.69237200  0.36981400  0.19565000  1
  S  S1  1  0.63018600  0.30762800  0.80435000  1
  S  S2  1  0.30762800  0.63018600  0.80435000  1
  S  S3  1  0.36981400  0.69237200  0.19565000  1
  S  S4  1  0.99405300  0.99405300  0.20261900  1
  S  S5  1  0.00594700  0.00594700  0.79738100  1
  S  S6  1  0.70257500  0.01402400  0.53386400  1
  S  S7  1  0.98597600  0.29742500  0.46613600  1
  S  S8  1  0.29742500  0.98597600  0.46613600  1
  S  S9  1  0.01402400  0.70257500  0.53386400  1
  S  S10  1  0.27012500  0.27012500  0.00965700  1
  S  S11  1  0.72987500  0.72987500  0.99034300  1
  S  S12  1  0.36148200  0.36148200  0.59543400  1
  S  S13  1  0.63851800  0.63851800  0.40456600  1
loop_
_geom_bond_atom_site_label_1
_geom_bond_atom_site_label_2
_geom_bond_distance
_geom_bond_site_symmetry_2
K0 S0 3.338632 1_555
K0 S11 3.363182 1_544
K0 S1 3.380071 1_554
K0 S8 3.439571 1_545
K0 S4 3.472480 1_545
K0 S6 3.536632 1_555
K0 S10 3.537856 1_555
K0 S13 3.741773 1_545
K1 S1 3.338632 1_555
K1 S10 3.363182 1_656
K1 S0 3.380071 1_556
K1 S9 3.439571 1_655
K1 S5 3.472480 1_655
K1 S7 3.536632 1_555
K1 S11 3.537856 1_555
K1 S12 3.741773 1_655
K2 S2 3.338632 1_555
K2 S10 3.363182 1_566
K2 S3 3.380071 1_556
K2 S6 3.439571 1_565
K2 S5 3.472480 1_565
K2 S8 3.536632 1_555
K2 S11 3.537856 1_555
K2 S12 3.741773 1_565
K3 S3 3.338632 1_555
K3 S11 3.363182 1_454
K3 S2 3.380071 1_554
K3 S7 3.439571 1_455
K3 S4 3.472480 1_455
K3 S9 3.536632 1_555
K3 S10 3.537856 1_555
K3 S13 3.741773 1_455
In0 S0 2.590578 1_555
In0 S1 2.590578 1_555
In0 S7 2.604762 1_555
In0 S6 2.604762 1_555
In0 S13 2.798496 1_555
In0 S12 2.798496 1_555
In1 S2 2.590578 1_555
In1 S3 2.590578 1_555
In1 S8 2.604762 1_555
In1 S9 2.604762 1_555
In1 S13 2.798496 1_555
In1 S12 2.798496 1_555
P0 S4 1.985312 1_555
P0 S9 2.066346 1_655
P0 S6 2.066346 1_565
P0 P1 2.324665 1_665
P1 S5 1.985312 1_555
P1 S8 2.066346 1_545
P1 S7 2.066346 1_455
P2 S10 2.009063 1_556
P2 S2 2.071915 1_555
P2 S1 2.071915 1_555
P2 S12 2.112902 1_555
P3 S11 2.009063 1_554
P3 S3 2.071915 1_555
P3 S0 2.071915 1_555
P3 S13 2.112902 1_555
