# generated using pymatgen
data_Rb2S
_symmetry_space_group_name_H-M   'P 1'
_cell_length_a   5.49939703
_cell_length_b   5.49939650
_cell_length_c   5.49939553
_cell_angle_alpha   59.99999973
_cell_angle_beta   60.00000282
_cell_angle_gamma   59.99999883
_symmetry_Int_Tables_number   1
_chemical_formula_structural   Rb2S
_chemical_formula_sum   'Rb2 S1'
_cell_volume   117.60616017
_cell_formula_units_Z   1
loop_
 _symmetry_equiv_pos_site_id
 _symmetry_equiv_pos_as_xyz
  1  'x, y, z'
loop_
 _atom_site_type_symbol
 _atom_site_label
 _atom_site_symmetry_multiplicity
 _atom_site_fract_x
 _atom_site_fract_y
 _atom_site_fract_z
 _atom_site_occupancy
  Rb  Rb0  1  0.75000000  0.75000000  0.75000000  1
  Rb  Rb1  1  0.25000000  0.25000000  0.25000000  1
  S  S0  1  -0.00000000  0.00000000  0.00000000  1
loop_
_geom_bond_atom_site_label_1
_geom_bond_atom_site_label_2
_geom_bond_distance
_geom_bond_site_symmetry_2
Rb0 S0 3.367678 1_665
Rb0 S0 3.367679 1_666
Rb0 S0 3.367679 1_656
Rb0 S0 3.367679 1_566
Rb1 S0 3.367678 1_556
Rb1 S0 3.367679 1_555
Rb1 S0 3.367679 1_565
Rb1 S0 3.367679 1_655
