# generated using pymatgen
data_PmZnAu2
_symmetry_space_group_name_H-M   'P 1'
_cell_length_a   4.88214743
_cell_length_b   4.88214816
_cell_length_c   4.88214743
_cell_angle_alpha   59.99998510
_cell_angle_beta   59.99995056
_cell_angle_gamma   59.99992579
_symmetry_Int_Tables_number   1
_chemical_formula_structural   PmZnAu2
_chemical_formula_sum   'Pm1 Zn1 Au2'
_cell_volume   82.28435750
_cell_formula_units_Z   1
loop_
 _symmetry_equiv_pos_site_id
 _symmetry_equiv_pos_as_xyz
  1  'x, y, z'
loop_
 _atom_site_type_symbol
 _atom_site_label
 _atom_site_symmetry_multiplicity
 _atom_site_fract_x
 _atom_site_fract_y
 _atom_site_fract_z
 _atom_site_occupancy
  Pm  Pm0  1  0.25000100  0.25000100  0.25000100  1
  Zn  Zn0  1  0.75000100  0.75000100  0.75000100  1
  Au  Au0  1  0.00000000  0.00000000  0.00000000  1
  Au  Au1  1  0.50000000  0.50000000  0.50000000  1
loop_
_geom_bond_atom_site_label_1
_geom_bond_atom_site_label_2
_geom_bond_distance
_geom_bond_site_symmetry_2
Au0 Zn0 2.989682 1_444
Au0 Pm0 2.989686 1_455
Au0 Pm0 2.989687 1_545
Au0 Pm0 2.989688 1_554
Au0 Zn0 2.989694 1_544
Au0 Zn0 2.989695 1_454
Au0 Zn0 2.989696 1_445
Au0 Pm0 2.989706 1_555
Au1 Pm0 2.989682 1_555
Au1 Zn0 2.989686 1_455
Au1 Zn0 2.989687 1_545
Au1 Zn0 2.989688 1_554
Au1 Pm0 2.989694 1_655
Au1 Pm0 2.989695 1_565
Au1 Pm0 2.989696 1_556
Au1 Zn0 2.989706 1_555
