# generated using pymatgen
data_HoSbRh2
_symmetry_space_group_name_H-M   'P 1'
_cell_length_a   4.70779108
_cell_length_b   4.70779108
_cell_length_c   4.70779108
_cell_angle_alpha   60.00000000
_cell_angle_beta   60.00000000
_cell_angle_gamma   60.00000000
_symmetry_Int_Tables_number   1
_chemical_formula_structural   HoSbRh2
_chemical_formula_sum   'Ho1 Sb1 Rh2'
_cell_volume   73.77964282
_cell_formula_units_Z   1
loop_
 _symmetry_equiv_pos_site_id
 _symmetry_equiv_pos_as_xyz
  1  'x, y, z'
loop_
 _atom_site_type_symbol
 _atom_site_label
 _atom_site_symmetry_multiplicity
 _atom_site_fract_x
 _atom_site_fract_y
 _atom_site_fract_z
 _atom_site_occupancy
  Ho  Ho0  1  0.50000000  0.50000000  0.50000000  1
  Sb  Sb0  1  0.00000000  0.00000000  0.00000000  1
  Rh  Rh0  1  0.25000000  0.25000000  0.25000000  1
  Rh  Rh1  1  0.75000000  0.75000000  0.75000000  1
loop_
_geom_bond_atom_site_label_1
_geom_bond_atom_site_label_2
_geom_bond_distance
_geom_bond_site_symmetry_2
Ho0 Rh0 2.882921 1_555
Ho0 Rh0 2.882921 1_556
Ho0 Rh0 2.882921 1_565
Ho0 Rh1 2.882921 1_455
Ho0 Rh1 2.882921 1_554
Ho0 Rh0 2.882921 1_655
Ho0 Rh1 2.882921 1_555
Ho0 Rh1 2.882921 1_545
Ho0 Sb0 3.328911 1_556
Ho0 Sb0 3.328911 1_565
Ho0 Sb0 3.328911 1_656
Ho0 Sb0 3.328911 1_655
Ho0 Sb0 3.328911 1_665
Ho0 Sb0 3.328911 1_566
Rh0 Sb0 2.882921 1_555
Rh0 Sb0 2.882921 1_565
Rh0 Sb0 2.882921 1_655
Rh0 Sb0 2.882921 1_556
Rh1 Sb0 2.882921 1_566
Rh1 Sb0 2.882921 1_656
Rh1 Sb0 2.882921 1_665
Rh1 Sb0 2.882921 1_666
