# generated using pymatgen
data_LiMnP(H6O5)2
_symmetry_space_group_name_H-M   'P 1'
_cell_length_a   6.17572200
_cell_length_b   6.87508900
_cell_length_c   11.01049600
_cell_angle_alpha   90.00000000
_cell_angle_beta   90.00000000
_cell_angle_gamma   90.00000000
_symmetry_Int_Tables_number   1
_chemical_formula_structural   LiMnP(H6O5)2
_chemical_formula_sum   'Li2 Mn2 P2 H24 O20'
_cell_volume   467.49066815
_cell_formula_units_Z   2
loop_
 _symmetry_equiv_pos_site_id
 _symmetry_equiv_pos_as_xyz
  1  'x, y, z'
loop_
 _atom_site_type_symbol
 _atom_site_label
 _atom_site_symmetry_multiplicity
 _atom_site_fract_x
 _atom_site_fract_y
 _atom_site_fract_z
 _atom_site_occupancy
  Li  Li0  1  0.49933000  0.00000000  0.93566200  1
  Li  Li1  1  0.50067000  0.50000000  0.43566200  1
  Mn  Mn0  1  0.38418700  0.00000000  0.64353400  1
  Mn  Mn1  1  0.61581300  0.50000000  0.14353400  1
  P  P0  1  0.00656100  0.00000000  0.26739000  1
  P  P1  1  0.99343900  0.50000000  0.76739000  1
  H  H0  1  0.74096700  0.00000000  0.47190000  1
  H  H1  1  0.83829000  0.00000000  0.60893800  1
  H  H2  1  0.98771600  0.11948800  0.76447200  1
  H  H3  1  0.21646100  0.22023500  0.45246600  1
  H  H4  1  0.82866100  0.15403600  0.07199300  1
  H  H5  1  0.62700800  0.18394000  0.30603000  1
  H  H6  1  0.37542300  0.24492700  0.29222300  1
  H  H7  1  0.62457700  0.25507300  0.79222300  1
  H  H8  1  0.37299200  0.31606000  0.80603000  1
  H  H9  1  0.17133900  0.34596400  0.57199300  1
  H  H10  1  0.78353900  0.27976500  0.95246600  1
  H  H11  1  0.01228400  0.38051200  0.26447200  1
  H  H12  1  0.16171000  0.50000000  0.10893800  1
  H  H13  1  0.25903300  0.50000000  0.97190000  1
  H  H14  1  0.01228400  0.61948800  0.26447200  1
  H  H15  1  0.78353900  0.72023500  0.95246600  1
  H  H16  1  0.17133900  0.65403600  0.57199300  1
  H  H17  1  0.37299200  0.68394000  0.80603000  1
  H  H18  1  0.62457700  0.74492700  0.79222300  1
  H  H19  1  0.37542300  0.75507300  0.29222300  1
  H  H20  1  0.62700800  0.81606000  0.30603000  1
  H  H21  1  0.82866100  0.84596400  0.07199300  1
  H  H22  1  0.21646100  0.77976500  0.45246600  1
  H  H23  1  0.98771600  0.88051200  0.76447200  1
  O  O0  1  0.99270000  0.00000000  0.12766400  1
  O  O1  1  0.77206100  0.00000000  0.32318900  1
  O  O2  1  0.04592200  0.00000000  0.72115300  1
  O  O3  1  0.70204500  0.00000000  0.56043700  1
  O  O4  1  0.12530700  0.18521500  0.31426600  1
  O  O5  1  0.47319500  0.19890200  0.79733500  1
  O  O6  1  0.28731000  0.26243000  0.53075200  1
  O  O7  1  0.71269000  0.23757000  0.03075200  1
  O  O8  1  0.52680500  0.30109800  0.29733500  1
  O  O9  1  0.87469300  0.31478500  0.81426600  1
  O  O10  1  0.00730000  0.50000000  0.62766400  1
  O  O11  1  0.22793900  0.50000000  0.82318900  1
  O  O12  1  0.29795500  0.50000000  0.06043700  1
  O  O13  1  0.95407800  0.50000000  0.22115300  1
  O  O14  1  0.87469300  0.68521500  0.81426600  1
  O  O15  1  0.52680500  0.69890200  0.29733500  1
  O  O16  1  0.71269000  0.76243000  0.03075200  1
  O  O17  1  0.28731000  0.73757000  0.53075200  1
  O  O18  1  0.47319500  0.80109800  0.79733500  1
  O  O19  1  0.12530700  0.81478500  0.31426600  1
loop_
_geom_bond_atom_site_label_1
_geom_bond_atom_site_label_2
_geom_bond_distance
_geom_bond_site_symmetry_2
Li0 O18 2.053217 1_545
Li0 O5 2.053217 1_555
Li0 O16 2.345231 1_546
Li0 O7 2.345231 1_556
Li1 O8 2.053217 1_555
Li1 O15 2.053217 1_555
Li1 O6 2.345231 1_555
Li1 O17 2.345231 1_555
Mn0 O3 2.165755 1_555
Mn0 O5 2.244954 1_555
Mn0 O18 2.244954 1_545
Mn0 O2 2.257085 1_555
Mn0 O17 2.270511 1_545
Mn0 O6 2.270511 1_555
Mn1 O12 2.165755 1_555
Mn1 O8 2.244954 1_555
Mn1 O15 2.244954 1_555
Mn1 O13 2.257085 1_555
Mn1 O7 2.270511 1_555
Mn1 O16 2.270511 1_555
H0 O3 1.004034 1_555
H0 O1 1.648604 1_555
H1 O3 0.996569 1_555
H2 O2 1.015655 1_655
H2 O9 1.609531 1_555
H3 O6 1.009251 1_555
H3 O4 1.640211 1_555
H4 O7 1.024190 1_555
H4 O0 1.588559 1_555
H5 O8 1.020243 1_555
H5 O1 1.561213 1_555
H6 O8 1.013079 1_555
H6 O4 1.616592 1_555
H7 O5 1.013079 1_555
H7 O9 1.616592 1_555
H8 O5 1.020243 1_555
H8 O11 1.561213 1_555
H9 O6 1.024190 1_555
H9 O10 1.588559 1_555
H10 O7 1.009251 1_556
H10 O9 1.640211 1_555
H11 O13 1.015655 1_455
H11 O4 1.609531 1_555
H12 O12 0.996569 1_555
H13 O12 1.004034 1_556
H13 O11 1.648604 1_555
H14 O13 1.015655 1_455
H14 O19 1.609531 1_555
H15 O16 1.009251 1_556
H15 O14 1.640211 1_555
H16 O17 1.024190 1_555
H16 O10 1.588559 1_555
H17 O18 1.020243 1_555
H17 O11 1.561213 1_555
H18 O18 1.013079 1_555
H18 O14 1.616592 1_555
H19 O15 1.013079 1_555
H19 O19 1.616592 1_555
H20 O15 1.020243 1_555
H20 O1 1.561213 1_565
H21 O16 1.024190 1_555
H21 O0 1.588559 1_565
H22 O17 1.009251 1_555
H22 O19 1.640211 1_555
H23 O2 1.015655 1_665
H23 O14 1.609531 1_555
O0 P0 1.540832 1_655
O1 P0 1.573137 1_655
O4 P0 1.557450 1_555
O9 P1 1.557450 1_555
O10 P1 1.540832 1_455
O11 P1 1.573137 1_455
O14 P1 1.557450 1_555
O19 P0 1.557450 1_565
