# generated using pymatgen
data_PaGaTc2
_symmetry_space_group_name_H-M   'P 1'
_cell_length_a   4.58117369
_cell_length_b   4.58117362
_cell_length_c   4.58117420
_cell_angle_alpha   60.00010625
_cell_angle_beta   60.00011810
_cell_angle_gamma   60.00011202
_symmetry_Int_Tables_number   1
_chemical_formula_structural   PaGaTc2
_chemical_formula_sum   'Pa1 Ga1 Tc2'
_cell_volume   67.98551972
_cell_formula_units_Z   1
loop_
 _symmetry_equiv_pos_site_id
 _symmetry_equiv_pos_as_xyz
  1  'x, y, z'
loop_
 _atom_site_type_symbol
 _atom_site_label
 _atom_site_symmetry_multiplicity
 _atom_site_fract_x
 _atom_site_fract_y
 _atom_site_fract_z
 _atom_site_occupancy
  Pa  Pa0  1  0.75000086  0.75000087  0.75000088  1
  Ga  Ga0  1  0.25000088  0.25000088  0.25000088  1
  Tc  Tc0  1  0.00000020  0.00000019  0.00000022  1
  Tc  Tc1  1  0.49999906  0.49999906  0.49999902  1
loop_
_geom_bond_atom_site_label_1
_geom_bond_atom_site_label_2
_geom_bond_distance
_geom_bond_site_symmetry_2
Pa0 Tc0 2.805375 1_666
Pa0 Tc1 2.805381 1_565
Pa0 Tc1 2.805382 1_556
Pa0 Tc1 2.805382 1_655
Pa0 Tc0 2.805391 1_656
Pa0 Tc0 2.805391 1_566
Pa0 Tc0 2.805391 1_665
Pa0 Tc1 2.805403 1_555
Ga0 Tc1 2.805362 1_555
Ga0 Tc0 2.805386 1_565
Ga0 Tc0 2.805386 1_655
Ga0 Tc0 2.805386 1_556
Ga0 Tc0 2.805390 1_555
Ga0 Tc1 2.805395 1_545
Ga0 Tc1 2.805395 1_455
Ga0 Tc1 2.805396 1_554
Ga0 Pa0 3.239382 1_545
Ga0 Pa0 3.239382 1_554
Ga0 Pa0 3.239382 1_454
Ga0 Pa0 3.239382 1_445
Ga0 Pa0 3.239382 1_455
Ga0 Pa0 3.239382 1_544
