# generated using pymatgen
data_Eu2Al2O5
_symmetry_space_group_name_H-M   'P 1'
_cell_length_a   3.77648600
_cell_length_b   3.77648600
_cell_length_c   7.58310300
_cell_angle_alpha   90.00000000
_cell_angle_beta   90.00000000
_cell_angle_gamma   90.00000000
_symmetry_Int_Tables_number   1
_chemical_formula_structural   Eu2Al2O5
_chemical_formula_sum   'Eu2 Al2 O5'
_cell_volume   108.14905104
_cell_formula_units_Z   1
loop_
 _symmetry_equiv_pos_site_id
 _symmetry_equiv_pos_as_xyz
  1  'x, y, z'
loop_
 _atom_site_type_symbol
 _atom_site_label
 _atom_site_symmetry_multiplicity
 _atom_site_fract_x
 _atom_site_fract_y
 _atom_site_fract_z
 _atom_site_occupancy
  Eu  Eu0  1  0.50000000  0.50000000  0.00000000  1
  Eu  Eu1  1  0.50000000  0.50000000  0.50000000  1
  Al  Al0  1  0.00000000  0.00000000  0.73996500  1
  Al  Al1  1  0.00000000  0.00000000  0.26003500  1
  O  O0  1  0.50000000  0.00000000  0.77422800  1
  O  O1  1  0.50000000  0.00000000  0.22577200  1
  O  O2  1  0.00000000  0.00000000  0.50000000  1
  O  O3  1  0.00000000  0.50000000  0.77422800  1
  O  O4  1  0.00000000  0.50000000  0.22577200  1
loop_
_geom_bond_atom_site_label_1
_geom_bond_atom_site_label_2
_geom_bond_distance
_geom_bond_site_symmetry_2
Eu0 O4 2.548840 1_555
Eu0 O4 2.548840 1_655
Eu0 O1 2.548840 1_565
Eu0 O1 2.548840 1_555
Eu0 O0 2.548840 1_564
Eu0 O3 2.548840 1_654
Eu0 O0 2.548840 1_554
Eu0 O3 2.548840 1_554
Eu1 O2 2.670379 1_665
Eu1 O2 2.670379 1_655
Eu1 O2 2.670379 1_555
Eu1 O2 2.670379 1_565
Eu1 O3 2.808875 1_555
Eu1 O0 2.808875 1_555
Eu1 O0 2.808875 1_565
Eu1 O3 2.808875 1_655
Eu1 O4 2.808875 1_555
Eu1 O4 2.808875 1_655
Eu1 O1 2.808875 1_555
Eu1 O1 2.808875 1_565
Al0 O2 1.819679 1_555
Al0 O3 1.906035 1_555
Al0 O0 1.906035 1_555
Al0 O3 1.906035 1_545
Al0 O0 1.906035 1_455
Al1 O2 1.819679 1_555
Al1 O4 1.906035 1_545
Al1 O4 1.906035 1_555
Al1 O1 1.906035 1_555
Al1 O1 1.906035 1_455
