# generated using pymatgen
data_Li14Sn9(P2O7)8
_symmetry_space_group_name_H-M   'P 1'
_cell_length_a   11.49156540
_cell_length_b   10.25821441
_cell_length_c   13.50328714
_cell_angle_alpha   69.98241024
_cell_angle_beta   117.20147075
_cell_angle_gamma   103.10821770
_symmetry_Int_Tables_number   1
_chemical_formula_structural   Li14Sn9(P2O7)8
_chemical_formula_sum   'Li14 Sn9 P16 O56'
_cell_volume   1325.51396546
_cell_formula_units_Z   1
loop_
 _symmetry_equiv_pos_site_id
 _symmetry_equiv_pos_as_xyz
  1  'x, y, z'
loop_
 _atom_site_type_symbol
 _atom_site_label
 _atom_site_symmetry_multiplicity
 _atom_site_fract_x
 _atom_site_fract_y
 _atom_site_fract_z
 _atom_site_occupancy
  Li  Li0  1  0.02293904  0.17191618  0.87505313  1
  Li  Li1  1  0.20607359  0.93705822  0.63543162  1
  Li  Li2  1  0.38280551  0.04406241  0.91207952  1
  Li  Li3  1  0.20789495  0.43263787  0.13458527  1
  Li  Li4  1  0.37853271  0.54395960  0.41252439  1
  Li  Li5  1  0.46550306  0.34769703  0.82590166  1
  Li  Li6  1  0.45863032  0.84834725  0.32298444  1
  Li  Li7  1  0.54136968  0.15165275  0.67701556  1
  Li  Li8  1  0.53449694  0.65230297  0.17409834  1
  Li  Li9  1  0.62146729  0.45604040  0.58747561  1
  Li  Li10  1  0.79210505  0.56736213  0.86541473  1
  Li  Li11  1  0.61719449  0.95593759  0.08792048  1
  Li  Li12  1  0.79392641  0.06294178  0.36456838  1
  Li  Li13  1  0.97706096  0.82808382  0.12494687  1
  Sn  Sn0  1  0.18716907  0.69104327  0.89876229  1
  Sn  Sn1  1  0.00000000  0.50000000  0.50000000  1
  Sn  Sn2  1  0.28376595  0.57660621  0.72459439  1
  Sn  Sn3  1  0.19617678  0.17595861  0.40220694  1
  Sn  Sn4  1  0.75555723  0.94551534  0.80080228  1
  Sn  Sn5  1  0.24444277  0.05448466  0.19919772  1
  Sn  Sn6  1  0.80382322  0.82404139  0.59779306  1
  Sn  Sn7  1  0.71623405  0.42339379  0.27540561  1
  Sn  Sn8  1  0.81283093  0.30895673  0.10123771  1
  P  P0  1  0.08116894  0.99594838  0.77621546  1
  P  P1  1  0.30808993  0.34147970  0.98812023  1
  P  P2  1  0.07801991  0.47721944  0.27196944  1
  P  P3  1  0.48536208  0.85723543  0.85688636  1
  P  P4  1  0.22535404  0.22607942  0.66568153  1
  P  P5  1  0.29864326  0.83207257  0.48787869  1
  P  P6  1  0.21003793  0.72489091  0.16471400  1
  P  P7  1  0.52227513  0.65184258  0.64240546  1
  P  P8  1  0.47772487  0.34815742  0.35759454  1
  P  P9  1  0.78996207  0.27510909  0.83528600  1
  P  P10  1  0.70135674  0.16792743  0.51212131  1
  P  P11  1  0.77464596  0.77392058  0.33431847  1
  P  P12  1  0.51463792  0.14276457  0.14311364  1
  P  P13  1  0.92198009  0.52278056  0.72803056  1
  P  P14  1  0.69191007  0.65852030  0.01187977  1
  P  P15  1  0.91883106  0.00405162  0.22378454  1
  O  O0  1  0.95733495  0.59820430  0.82181708  1
  O  O1  1  0.20883279  0.93896979  0.87736212  1
  O  O2  1  0.03271707  0.53683899  0.69108495  1
  O  O3  1  0.11534540  0.15778697  0.71708222  1
  O  O4  1  0.34523719  0.82325079  0.77252568  1
  O  O5  1  0.48941622  0.87839030  0.96503425  1
  O  O6  1  0.20221588  0.70230828  0.49152257  1
  O  O7  1  0.26470817  0.94825154  0.51658591  1
  O  O8  1  0.35640656  0.40006843  0.88959028  1
  O  O9  1  0.19927976  0.37996391  0.61723783  1
  O  O10  1  0.09590373  0.64430801  0.21122376  1
  O  O11  1  0.96707856  0.08679057  0.31455259  1
  O  O12  1  0.19456619  0.14864754  0.57483606  1
  O  O13  1  0.32828742  0.88897075  0.37926109  1
  O  O14  1  0.20931490  0.43617839  0.37274441  1
  O  O15  1  0.16682500  0.87316763  0.11860658  1
  O  O16  1  0.55899128  0.97859103  0.79633961  1
  O  O17  1  0.56109628  0.71900276  0.89614517  1
  O  O18  1  0.36174298  0.19661159  0.76411072  1
  O  O19  1  0.02039555  0.99102203  0.18553201  1
  O  O20  1  0.18899710  0.65727144  0.07080268  1
  O  O21  1  0.44155234  0.78815211  0.59745403  1
  O  O22  1  0.45600759  0.53184246  0.71283816  1
  O  O23  1  0.34547619  0.70007856  0.26343304  1
  O  O24  1  0.72578535  0.54352827  0.98266965  1
  O  O25  1  0.79872583  0.77843653  0.02892304  1
  O  O26  1  0.33797094  0.31028923  0.27772554  1
  O  O27  1  0.48889850  0.38001984  0.46423072  1
  O  O28  1  0.51110150  0.61998016  0.53576928  1
  O  O29  1  0.66202906  0.68971077  0.72227446  1
  O  O30  1  0.20127417  0.22156347  0.97107696  1
  O  O31  1  0.27421465  0.45647173  0.01733035  1
  O  O32  1  0.65452381  0.29992144  0.73656696  1
  O  O33  1  0.54399241  0.46815754  0.28716184  1
  O  O34  1  0.55844766  0.21184789  0.40254597  1
  O  O35  1  0.81100290  0.34272856  0.92919732  1
  O  O36  1  0.97960445  0.00897797  0.81446799  1
  O  O37  1  0.63825702  0.80338841  0.23588928  1
  O  O38  1  0.43890372  0.28099724  0.10385483  1
  O  O39  1  0.44100872  0.02140897  0.20366039  1
  O  O40  1  0.83317500  0.12683237  0.88139342  1
  O  O41  1  0.79068510  0.56382161  0.62725559  1
  O  O42  1  0.67171258  0.11102925  0.62073891  1
  O  O43  1  0.80543381  0.85135246  0.42516394  1
  O  O44  1  0.03292144  0.91320943  0.68544741  1
  O  O45  1  0.90409627  0.35569199  0.78877624  1
  O  O46  1  0.80072024  0.62003609  0.38276217  1
  O  O47  1  0.64359344  0.59993157  0.11040972  1
  O  O48  1  0.73529183  0.05174846  0.48341409  1
  O  O49  1  0.79778412  0.29769172  0.50847743  1
  O  O50  1  0.51058378  0.12160970  0.03496575  1
  O  O51  1  0.65476281  0.17674921  0.22747432  1
  O  O52  1  0.88465460  0.84221303  0.28291778  1
  O  O53  1  0.96728293  0.46316101  0.30891505  1
  O  O54  1  0.79116721  0.06103021  0.12263788  1
  O  O55  1  0.04266505  0.40179570  0.17818292  1
loop_
_geom_bond_atom_site_label_1
_geom_bond_atom_site_label_2
_geom_bond_distance
_geom_bond_site_symmetry_2
Li0 O30 1.920882 1_555
Li0 O36 1.974130 1_455
Li0 O40 2.159338 1_455
Li0 O45 2.232926 1_455
Li1 O7 1.967218 1_555
Li1 O4 2.002018 1_555
Li1 O12 2.052700 1_565
Li1 O44 2.317313 1_555
Li2 O50 1.920601 1_556
Li2 O1 1.972414 1_545
Li2 O18 2.022065 1_555
Li2 O5 2.052329 1_545
Li3 O31 1.975141 1_555
Li3 O26 2.023426 1_555
Li3 O55 2.161917 1_555
Li3 O20 2.190018 1_555
Li4 O28 1.931405 1_555
Li4 O14 1.941338 1_555
Li4 O23 2.032637 1_555
Li4 O27 2.068386 1_555
Li5 O18 1.912474 1_555
Li5 O22 1.969237 1_555
Li5 O8 2.051219 1_555
Li6 O23 1.906600 1_555
Li6 O39 1.922320 1_565
Li6 O13 2.129607 1_555
Li7 O32 1.906600 1_555
Li7 O16 1.922320 1_545
Li7 O42 2.129607 1_555
Li8 O37 1.912474 1_555
Li8 O33 1.969237 1_555
Li8 O47 2.051219 1_555
Li9 O27 1.931405 1_555
Li9 O41 1.941338 1_555
Li9 O32 2.032637 1_555
Li9 O28 2.068386 1_555
Li10 O24 1.975141 1_555
Li10 O29 2.023426 1_555
Li10 O0 2.161917 1_555
Li10 O35 2.190018 1_555
Li11 O5 1.920601 1_554
Li11 O54 1.972414 1_565
Li11 O37 2.022065 1_555
Li11 O50 2.052329 1_565
Li12 O48 1.967218 1_555
Li12 O51 2.002018 1_555
Li12 O43 2.052700 1_545
Li12 O11 2.317313 1_555
Li13 O25 1.920882 1_555
Li13 O19 1.974130 1_655
Li13 O15 2.159338 1_655
Li13 O10 2.232926 1_655
O0 P13 1.557360 1_555
O0 Sn0 2.447429 1_655
O1 P0 1.539433 1_555
O1 Sn0 2.426768 1_555
O2 P13 1.528712 1_455
O2 Sn1 2.580347 1_555
O2 Sn2 2.663301 1_555
O3 P0 1.622167 1_545
O3 P4 1.624269 1_555
O4 P3 1.533740 1_555
O4 Sn2 2.685502 1_555
O5 P3 1.527112 1_555
O6 P5 1.529124 1_555
O6 Sn2 2.742145 1_555
O6 Sn1 2.759188 1_555
O7 P5 1.545314 1_555
O7 Sn3 2.390481 1_565
O8 P1 1.554427 1_555
O8 Sn2 2.272309 1_555
O9 P4 1.529052 1_555
O9 Sn1 2.428317 1_555
O9 Sn2 2.634419 1_555
O10 P2 1.638527 1_555
O10 P6 1.644348 1_555
O11 P15 1.551618 1_555
O11 Sn3 2.443108 1_655
O12 P4 1.550405 1_555
O12 Sn3 2.258907 1_555
O13 P5 1.545458 1_555
O13 Sn5 2.344563 1_565
O14 P2 1.524555 1_555
O14 Sn3 2.540033 1_555
O15 P6 1.536047 1_555
O15 Sn5 2.277113 1_565
O16 P3 1.546601 1_555
O16 Sn4 2.330311 1_555
O17 P3 1.634798 1_555
O17 P14 1.642703 1_556
O18 P4 1.532893 1_555
O19 P15 1.521863 1_465
O19 Sn5 2.444244 1_565
O20 P6 1.547107 1_555
O20 Sn0 2.219234 1_554
O21 P7 1.636048 1_555
O21 P5 1.657394 1_555
O22 P7 1.560515 1_555
O22 Sn2 2.214323 1_555
O23 P6 1.521423 1_555
O24 P14 1.538116 1_556
O24 Sn8 2.518770 1_556
O25 P14 1.524318 1_555
O26 P8 1.521050 1_555
O26 Sn3 2.698001 1_555
O27 P8 1.526723 1_555
O28 P7 1.526723 1_555
O29 P7 1.521050 1_555
O29 Sn6 2.698001 1_555
O30 P1 1.524318 1_555
O31 P1 1.538116 1_554
O31 Sn0 2.518770 1_554
O32 P9 1.521423 1_555
O33 P8 1.560515 1_555
O33 Sn7 2.214323 1_555
O34 P8 1.636048 1_555
O34 P10 1.657394 1_555
O35 P9 1.547107 1_555
O35 Sn8 2.219234 1_556
O36 P0 1.521863 1_645
O36 Sn4 2.444244 1_545
O37 P11 1.532893 1_555
O38 P12 1.634798 1_555
O38 P1 1.642703 1_554
O39 P12 1.546601 1_555
O39 Sn5 2.330311 1_555
O40 P9 1.536047 1_555
O40 Sn4 2.277113 1_545
O41 P13 1.524555 1_555
O41 Sn6 2.540033 1_555
O42 P10 1.545458 1_555
O42 Sn4 2.344563 1_545
O43 P11 1.550405 1_555
O43 Sn6 2.258907 1_555
O44 P0 1.551618 1_555
O44 Sn6 2.443108 1_455
O45 P13 1.638527 1_555
O45 P9 1.644348 1_555
O46 P11 1.529052 1_555
O46 Sn1 2.428317 1_655
O46 Sn7 2.634419 1_555
O47 P14 1.554427 1_555
O47 Sn7 2.272309 1_555
O48 P10 1.545314 1_555
O48 Sn6 2.390481 1_545
O49 P10 1.529124 1_555
O49 Sn7 2.742145 1_555
O49 Sn1 2.759188 1_655
O50 P12 1.527112 1_555
O51 P12 1.533740 1_555
O51 Sn7 2.685502 1_555
O52 P15 1.622167 1_565
O52 P11 1.624269 1_555
O53 P2 1.528712 1_655
O53 Sn1 2.580347 1_655
O53 Sn7 2.663301 1_555
O54 P15 1.539433 1_555
O54 Sn8 2.426768 1_555
O55 P2 1.557360 1_555
O55 Sn8 2.447429 1_455
