# generated using pymatgen
data_Rb2MnS2
_symmetry_space_group_name_H-M   'P 1'
_cell_length_a   6.38959885
_cell_length_b   7.08974038
_cell_length_c   8.16295359
_cell_angle_alpha   115.72858967
_cell_angle_beta   113.04025431
_cell_angle_gamma   90.00000952
_symmetry_Int_Tables_number   1
_chemical_formula_structural   Rb2MnS2
_chemical_formula_sum   'Rb4 Mn2 S4'
_cell_volume   300.04561454
_cell_formula_units_Z   2
loop_
 _symmetry_equiv_pos_site_id
 _symmetry_equiv_pos_as_xyz
  1  'x, y, z'
loop_
 _atom_site_type_symbol
 _atom_site_label
 _atom_site_symmetry_multiplicity
 _atom_site_fract_x
 _atom_site_fract_y
 _atom_site_fract_z
 _atom_site_occupancy
  Rb  Rb0  1  0.64791416  0.80869245  0.29583033  1
  Rb  Rb1  1  0.35208584  0.19130755  0.70416967  1
  Rb  Rb2  1  0.85208889  0.51286835  0.70417478  1
  Rb  Rb3  1  0.14791111  0.48713165  0.29582522  1
  Mn  Mn0  1  0.25001572  -0.00000000  0.00000000  1
  Mn  Mn1  1  0.74998428  -0.00000000  0.00000000  1
  S  S0  1  0.40053917  0.71576306  0.80107834  1
  S  S1  1  0.59946083  0.28423694  0.19892166  1
  S  S2  1  0.09946952  0.91471837  0.19894003  1
  S  S3  1  0.90053048  0.08528163  0.80105997  1
loop_
_geom_bond_atom_site_label_1
_geom_bond_atom_site_label_2
_geom_bond_distance
_geom_bond_site_symmetry_2
Rb0 S3 3.350703 1_565
Rb0 S1 3.435344 1_555
Rb0 S2 3.437684 1_555
Rb0 S2 3.437689 1_655
Rb0 S0 3.454864 1_554
Rb0 S1 3.769937 1_565
Rb1 S2 3.350703 1_545
Rb1 S0 3.435344 1_555
Rb1 S3 3.437684 1_555
Rb1 S3 3.437689 1_455
Rb1 S1 3.454864 1_556
Rb1 S0 3.769937 1_545
Rb2 S1 3.350801 1_555
Rb2 S3 3.435271 1_555
Rb2 S0 3.437708 1_655
Rb2 S0 3.437726 1_555
Rb2 S2 3.455389 1_656
Rb2 S3 3.769955 1_565
Rb3 S0 3.350801 1_555
Rb3 S2 3.435271 1_555
Rb3 S1 3.437708 1_455
Rb3 S1 3.437726 1_555
Rb3 S3 3.455389 1_454
Rb3 S2 3.769955 1_545
Mn0 S3 2.450157 1_454
Mn0 S2 2.450161 1_545
Mn0 S1 2.450323 1_555
Mn0 S0 2.450324 1_544
Mn1 S2 2.450157 1_645
Mn1 S3 2.450161 1_554
Mn1 S0 2.450323 1_544
Mn1 S1 2.450324 1_555
