# generated using pymatgen
data_Li5Mn6(BO3)6
_symmetry_space_group_name_H-M   'P 1'
_cell_length_a   10.42830135
_cell_length_b   10.42830135
_cell_length_c   8.28562301
_cell_angle_alpha   66.80119004
_cell_angle_beta   66.80119004
_cell_angle_gamma   75.36807128
_symmetry_Int_Tables_number   1
_chemical_formula_structural   Li5Mn6(BO3)6
_chemical_formula_sum   'Li10 Mn12 B12 O36'
_cell_volume   756.15587793
_cell_formula_units_Z   2
loop_
 _symmetry_equiv_pos_site_id
 _symmetry_equiv_pos_as_xyz
  1  'x, y, z'
loop_
 _atom_site_type_symbol
 _atom_site_label
 _atom_site_symmetry_multiplicity
 _atom_site_fract_x
 _atom_site_fract_y
 _atom_site_fract_z
 _atom_site_occupancy
  Li  Li0  1  0.26731600  0.26731600  0.01067400  1
  Li  Li1  1  0.01488300  0.51797600  0.01538900  1
  Li  Li2  1  0.47691000  0.47691000  0.28003000  1
  Li  Li3  1  0.22722500  0.72307900  0.28137100  1
  Li  Li4  1  0.51797600  0.01488300  0.01538900  1
  Li  Li5  1  0.76289700  0.76289700  0.03092400  1
  Li  Li6  1  0.72307900  0.22722500  0.28137100  1
  Li  Li7  1  0.13369500  0.13369500  0.69481400  1
  Li  Li8  1  0.88687500  0.38068100  0.70213300  1
  Li  Li9  1  0.38068100  0.88687500  0.70213300  1
  Mn  Mn0  1  0.18718200  0.43787700  0.63179000  1
  Mn  Mn1  1  0.23845800  0.99374200  0.36249700  1
  Mn  Mn2  1  0.74188400  0.49151700  0.38807000  1
  Mn  Mn3  1  0.49151700  0.74188400  0.38807000  1
  Mn  Mn4  1  0.57355500  0.32673700  0.98275700  1
  Mn  Mn5  1  0.32673700  0.57355500  0.98275700  1
  Mn  Mn6  1  0.06965100  0.82016100  0.99644600  1
  Mn  Mn7  1  0.93132400  0.68560200  0.64002800  1
  Mn  Mn8  1  0.68560200  0.93132400  0.64002800  1
  Mn  Mn9  1  0.43787700  0.18718200  0.63179000  1
  Mn  Mn10  1  0.99374200  0.23845800  0.36249700  1
  Mn  Mn11  1  0.82016100  0.06965100  0.99644600  1
  B  B0  1  0.04123900  0.54159400  0.33091800  1
  B  B1  1  0.29252500  0.29252500  0.32641500  1
  B  B2  1  0.75529800  0.49517000  0.00994900  1
  B  B3  1  0.49517000  0.75529800  0.00994900  1
  B  B4  1  0.78812000  0.78812000  0.33652200  1
  B  B5  1  0.54159400  0.04123900  0.33091800  1
  B  B6  1  0.45609700  0.45609700  0.66747500  1
  B  B7  1  0.20826400  0.70826900  0.66655200  1
  B  B8  1  0.99990700  0.25733800  0.98979600  1
  B  B9  1  0.25733800  0.99990700  0.98979600  1
  B  B10  1  0.70826900  0.20826400  0.66655200  1
  B  B11  1  0.95647500  0.95647500  0.67629400  1
  O  O0  1  0.05995400  0.31070100  0.07145400  1
  O  O1  1  0.34659900  0.34659900  0.13399300  1
  O  O2  1  0.09649200  0.59521900  0.13842800  1
  O  O3  1  0.17617100  0.89163400  0.09909800  1
  O  O4  1  0.65021600  0.40572400  0.11753800  1
  O  O5  1  0.40572400  0.65021600  0.11753800  1
  O  O6  1  0.31070100  0.05995400  0.07145400  1
  O  O7  1  0.80457700  0.55343400  0.09769100  1
  O  O8  1  0.55343400  0.80457700  0.09769100  1
  O  O9  1  0.33586400  0.33586400  0.43397500  1
  O  O10  1  0.08339300  0.58438000  0.43971800  1
  O  O11  1  0.04878600  0.28891000  0.79656600  1
  O  O12  1  0.59521900  0.09649200  0.13842800  1
  O  O13  1  0.84963500  0.84963500  0.14625200  1
  O  O14  1  0.51474100  0.51474100  0.47307600  1
  O  O15  1  0.75970300  0.27103000  0.47245900  1
  O  O16  1  0.27103000  0.75970300  0.47245900  1
  O  O17  1  0.01401900  0.01401900  0.48592800  1
  O  O18  1  0.69307900  0.69307900  0.39369100  1
  O  O19  1  0.35956900  0.35956900  0.74063900  1
  O  O20  1  0.10942200  0.61441900  0.74341200  1
  O  O21  1  0.94351900  0.44480200  0.41682600  1
  O  O22  1  0.44480200  0.94351900  0.41682600  1
  O  O23  1  0.19565300  0.19565300  0.41181700  1
  O  O24  1  0.89163400  0.17617100  0.09909800  1
  O  O25  1  0.58438000  0.08339300  0.43971800  1
  O  O26  1  0.81697900  0.81697900  0.46539600  1
  O  O27  1  0.49436100  0.49436100  0.78089800  1
  O  O28  1  0.24707500  0.75028400  0.77864100  1
  O  O29  1  0.28891000  0.04878600  0.79656600  1
  O  O30  1  0.81259200  0.52417200  0.82058900  1
  O  O31  1  0.52417200  0.81259200  0.82058900  1
  O  O32  1  0.61441900  0.10942200  0.74341200  1
  O  O33  1  0.85918000  0.85918000  0.75527200  1
  O  O34  1  0.75028400  0.24707500  0.77864100  1
  O  O35  1  0.99600200  0.99600200  0.79199600  1
loop_
_geom_bond_atom_site_label_1
_geom_bond_atom_site_label_2
_geom_bond_distance
_geom_bond_site_symmetry_2
Li0 O19 1.983177 1_554
Li0 O6 1.990398 1_555
Li0 O0 1.990398 1_555
Li0 O1 2.021796 1_555
Li1 O0 1.994133 1_555
Li1 O7 2.005561 1_455
Li1 O20 2.006671 1_554
Li1 O2 2.022191 1_555
Li2 O5 1.955149 1_555
Li2 O4 1.955149 1_555
Li2 O14 1.985607 1_555
Li2 O9 2.022547 1_555
Li3 O3 1.929560 1_555
Li3 O5 1.998075 1_555
Li3 O16 1.998925 1_555
Li3 O10 2.028241 1_555
Li4 O6 1.994133 1_555
Li4 O8 2.005561 1_545
Li4 O32 2.006671 1_554
Li4 O12 2.022191 1_555
Li5 O8 2.006006 1_555
Li5 O7 2.006006 1_555
Li5 O33 2.031902 1_554
Li5 O13 2.079600 1_555
Li6 O24 1.929560 1_555
Li6 O4 1.998075 1_555
Li6 O15 1.998925 1_555
Li6 O25 2.028241 1_555
Li7 O29 1.969180 1_555
Li7 O11 1.969180 1_555
Li7 O35 1.997961 1_445
Li7 O23 2.038814 1_555
Li8 O30 1.942923 1_555
Li8 O34 1.991849 1_555
Li8 O11 2.003370 1_655
Li8 O21 2.058727 1_555
Li9 O31 1.942923 1_555
Li9 O28 1.991849 1_555
Li9 O29 2.003370 1_565
Li9 O22 2.058727 1_555
Mn0 O11 2.066290 1_555
Mn0 O10 2.155072 1_555
Mn0 O19 2.160421 1_555
Mn0 O9 2.181829 1_555
Mn0 O20 2.213298 1_555
Mn1 O6 2.092657 1_565
Mn1 O17 2.145498 1_565
Mn1 O23 2.204333 1_565
Mn1 O16 2.230525 1_555
Mn1 O22 2.261697 1_555
Mn2 O18 2.048748 1_555
Mn2 O7 2.093591 1_555
Mn2 O15 2.104783 1_555
Mn2 O21 2.121609 1_555
Mn2 O14 2.166957 1_555
Mn3 O18 2.048748 1_555
Mn3 O8 2.093591 1_555
Mn3 O16 2.104783 1_555
Mn3 O22 2.121609 1_555
Mn3 O14 2.166957 1_555
Mn4 O4 2.079778 1_556
Mn4 O27 2.142551 1_555
Mn4 O34 2.196525 1_555
Mn4 O1 2.198854 1_556
Mn4 O12 2.235040 1_556
Mn5 O5 2.079778 1_556
Mn5 O27 2.142551 1_555
Mn5 O28 2.196525 1_555
Mn5 O1 2.198854 1_556
Mn5 O2 2.235040 1_556
Mn6 O3 2.043273 1_556
Mn6 O13 2.144755 1_456
Mn6 O35 2.165233 1_455
Mn6 O2 2.172204 1_556
Mn6 O28 2.221570 1_555
Mn7 O30 2.052976 1_555
Mn7 O26 2.089180 1_555
Mn7 O20 2.188635 1_655
Mn7 O10 2.201044 1_655
Mn7 O33 2.205012 1_555
Mn8 O31 2.052976 1_555
Mn8 O26 2.089180 1_555
Mn8 O32 2.188635 1_565
Mn8 O25 2.201044 1_565
Mn8 O33 2.205012 1_555
Mn9 O29 2.066290 1_555
Mn9 O25 2.155072 1_555
Mn9 O19 2.160421 1_555
Mn9 O9 2.181829 1_555
Mn9 O32 2.213298 1_555
Mn10 O0 2.092657 1_655
Mn10 O17 2.145498 1_655
Mn10 O23 2.204333 1_655
Mn10 O15 2.230525 1_555
Mn10 O21 2.261697 1_555
Mn11 O24 2.043273 1_556
Mn11 O13 2.144755 1_546
Mn11 O35 2.165233 1_545
Mn11 O12 2.172204 1_556
Mn11 O34 2.221570 1_555
B0 O2 1.387276 1_555
B0 O10 1.390388 1_555
B0 O21 1.395034 1_455
B1 O1 1.386328 1_555
B1 O23 1.389601 1_555
B1 O9 1.393060 1_555
B2 O30 1.374411 1_554
B2 O4 1.399019 1_555
B2 O7 1.400672 1_555
B3 O31 1.374411 1_554
B3 O5 1.399019 1_555
B3 O8 1.400672 1_555
B4 O26 1.368743 1_555
B4 O13 1.386643 1_555
B4 O18 1.394824 1_555
B5 O12 1.387276 1_555
B5 O25 1.390388 1_555
B5 O22 1.395034 1_545
B6 O27 1.368561 1_555
B6 O19 1.394445 1_555
B6 O14 1.406854 1_555
B7 O28 1.387312 1_555
B7 O20 1.388281 1_555
B7 O16 1.403870 1_555
B8 O24 1.372878 1_556
B8 O11 1.399308 1_655
B8 O0 1.402151 1_656
B9 O3 1.372878 1_556
B9 O29 1.399308 1_565
B9 O6 1.402151 1_566
B10 O34 1.387312 1_555
B10 O32 1.388281 1_555
B10 O15 1.403870 1_555
B11 O17 1.377896 1_665
B11 O33 1.400374 1_555
B11 O35 1.402620 1_555
