# generated using pymatgen
data_Li3FeOF3
_symmetry_space_group_name_H-M   'P 1'
_cell_length_a   5.16059511
_cell_length_b   5.16059511
_cell_length_c   10.36464221
_cell_angle_alpha   80.28443432
_cell_angle_beta   80.28443432
_cell_angle_gamma   33.58012055
_symmetry_Int_Tables_number   1
_chemical_formula_structural   Li3FeOF3
_chemical_formula_sum   'Li6 Fe2 O2 F6'
_cell_volume   150.28143935
_cell_formula_units_Z   2
loop_
 _symmetry_equiv_pos_site_id
 _symmetry_equiv_pos_as_xyz
  1  'x, y, z'
loop_
 _atom_site_type_symbol
 _atom_site_label
 _atom_site_symmetry_multiplicity
 _atom_site_fract_x
 _atom_site_fract_y
 _atom_site_fract_z
 _atom_site_occupancy
  Li  Li0  1  0.25285400  0.25285400  0.88465100  1
  Li  Li1  1  0.50000000  0.50000000  0.00000000  1
  Li  Li2  1  0.50000000  0.50000000  0.50000000  1
  Li  Li3  1  0.00111800  0.00111800  0.25096800  1
  Li  Li4  1  0.74714600  0.74714600  0.11534900  1
  Li  Li5  1  0.99888200  0.99888200  0.74903200  1
  Fe  Fe0  1  0.26077600  0.26077600  0.38207300  1
  Fe  Fe1  1  0.73922400  0.73922400  0.61792700  1
  O  O0  1  0.12333900  0.12333900  0.56780000  1
  O  O1  1  0.87666100  0.87666100  0.43220000  1
  F  F0  1  0.12898400  0.12898400  0.06108600  1
  F  F1  1  0.37907900  0.37907900  0.17590900  1
  F  F2  1  0.37335400  0.37335400  0.70478900  1
  F  F3  1  0.87101600  0.87101600  0.93891400  1
  F  F4  1  0.62092100  0.62092100  0.82409100  1
  F  F5  1  0.62664600  0.62664600  0.29521100  1
loop_
_geom_bond_atom_site_label_1
_geom_bond_atom_site_label_2
_geom_bond_distance
_geom_bond_site_symmetry_2
Li2 O0 2.122101 1_565
Li2 O0 2.122101 1_655
Li2 O1 2.122101 1_545
Li2 O1 2.122101 1_455
Li3 O1 2.055818 1_445
Li5 O0 2.055818 1_665
Fe0 O1 2.003278 1_545
Fe0 O1 2.003278 1_455
Fe0 O0 2.151337 1_555
Fe1 O0 2.003278 1_565
Fe1 O0 2.003278 1_655
Fe1 O1 2.151337 1_555
F0 Li0 2.013240 1_554
F0 Li4 2.033053 1_545
F0 Li4 2.033053 1_455
F0 Li1 2.128844 1_545
F0 Li1 2.128844 1_455
F0 Li3 2.143124 1_555
F1 Li1 1.995952 1_555
F1 Li4 2.145746 1_545
F1 Li4 2.145746 1_455
F1 Li3 2.147643 1_565
F1 Li3 2.147643 1_655
F1 Fe0 2.247637 1_555
F2 Li0 2.027426 1_555
F2 Li5 2.042438 1_545
F2 Li5 2.042438 1_455
F2 Li2 2.266029 1_555
F2 Fe1 2.282548 1_455
F2 Fe1 2.282548 1_545
F3 Li4 2.013240 1_556
F3 Li0 2.033053 1_565
F3 Li0 2.033053 1_655
F3 Li1 2.128844 1_566
F3 Li1 2.128844 1_656
F3 Li5 2.143124 1_555
F4 Li1 1.995952 1_556
F4 Li0 2.145746 1_655
F4 Li0 2.145746 1_565
F4 Li5 2.147643 1_545
F4 Li5 2.147643 1_455
F4 Fe1 2.247637 1_555
F5 Li4 2.027426 1_555
F5 Li3 2.042438 1_565
F5 Li3 2.042438 1_655
F5 Li2 2.266029 1_555
F5 Fe0 2.282548 1_655
F5 Fe0 2.282548 1_565
