# generated using pymatgen
data_NaHgPd2
_symmetry_space_group_name_H-M   'P 1'
_cell_length_a   4.61445320
_cell_length_b   4.61445320
_cell_length_c   4.61445320
_cell_angle_alpha   60.00000000
_cell_angle_beta   60.00000000
_cell_angle_gamma   60.00000000
_symmetry_Int_Tables_number   1
_chemical_formula_structural   NaHgPd2
_chemical_formula_sum   'Na1 Hg1 Pd2'
_cell_volume   69.47774904
_cell_formula_units_Z   1
loop_
 _symmetry_equiv_pos_site_id
 _symmetry_equiv_pos_as_xyz
  1  'x, y, z'
loop_
 _atom_site_type_symbol
 _atom_site_label
 _atom_site_symmetry_multiplicity
 _atom_site_fract_x
 _atom_site_fract_y
 _atom_site_fract_z
 _atom_site_occupancy
  Na  Na0  1  0.75000000  0.75000000  0.75000000  1
  Hg  Hg0  1  0.25000000  0.25000000  0.25000000  1
  Pd  Pd0  1  0.00000000  0.00000000  0.00000000  1
  Pd  Pd1  1  0.50000000  0.50000000  0.50000000  1
loop_
_geom_bond_atom_site_label_1
_geom_bond_atom_site_label_2
_geom_bond_distance
_geom_bond_site_symmetry_2
Na0 Pd0 2.825764 1_566
Na0 Pd1 2.825764 1_655
Na0 Pd0 2.825764 1_666
Na0 Pd0 2.825764 1_656
Na0 Pd1 2.825764 1_556
Na0 Pd0 2.825764 1_665
Na0 Pd1 2.825764 1_555
Na0 Pd1 2.825764 1_565
Hg0 Pd1 2.825764 1_455
Hg0 Pd0 2.825764 1_655
Hg0 Pd1 2.825764 1_554
Hg0 Pd0 2.825764 1_555
Hg0 Pd0 2.825764 1_565
Hg0 Pd1 2.825764 1_555
Hg0 Pd1 2.825764 1_545
Hg0 Pd0 2.825764 1_556
Hg0 Na0 3.262911 1_454
Hg0 Na0 3.262911 1_544
Hg0 Na0 3.262911 1_455
Hg0 Na0 3.262911 1_554
Hg0 Na0 3.262911 1_445
Hg0 Na0 3.262911 1_545
