# generated using pymatgen
data_Er2CuPt
_symmetry_space_group_name_H-M   'P 1'
_cell_length_a   4.83555182
_cell_length_b   4.83555223
_cell_length_c   4.83555175
_cell_angle_alpha   60.00064819
_cell_angle_beta   60.00065700
_cell_angle_gamma   60.00064752
_symmetry_Int_Tables_number   1
_chemical_formula_structural   Er2CuPt
_chemical_formula_sum   'Er2 Cu1 Pt1'
_cell_volume   79.95204306
_cell_formula_units_Z   1
loop_
 _symmetry_equiv_pos_site_id
 _symmetry_equiv_pos_as_xyz
  1  'x, y, z'
loop_
 _atom_site_type_symbol
 _atom_site_label
 _atom_site_symmetry_multiplicity
 _atom_site_fract_x
 _atom_site_fract_y
 _atom_site_fract_z
 _atom_site_occupancy
  Er  Er0  1  -0.00000005  -0.00000005  -0.00000006  1
  Er  Er1  1  0.49999920  0.49999921  0.49999923  1
  Cu  Cu0  1  0.25000091  0.25000093  0.25000091  1
  Pt  Pt0  1  0.74999994  0.74999992  0.74999992  1
loop_
_geom_bond_atom_site_label_1
_geom_bond_atom_site_label_2
_geom_bond_distance
_geom_bond_site_symmetry_2
Er0 Pt0 2.961144 1_444
Er0 Pt0 2.961183 1_454
Er0 Pt0 2.961183 1_445
Er0 Pt0 2.961183 1_544
Er1 Pt0 2.961153 1_555
Er1 Pt0 2.961180 1_455
Er1 Pt0 2.961180 1_545
Er1 Pt0 2.961180 1_554
Cu0 Er1 2.961124 1_555
Cu0 Er0 2.961156 1_555
Cu0 Er0 2.961179 1_565
Cu0 Er0 2.961179 1_556
Cu0 Er0 2.961179 1_655
Cu0 Er1 2.961190 1_554
Cu0 Er1 2.961190 1_455
Cu0 Er1 2.961190 1_545
