# generated using pymatgen
data_LiSi6BiO14
_symmetry_space_group_name_H-M   'P 1'
_cell_length_a   13.14930430
_cell_length_b   13.14930430
_cell_length_c   13.14930430
_cell_angle_alpha   146.13628063
_cell_angle_beta   107.23526541
_cell_angle_gamma   82.72329857
_symmetry_Int_Tables_number   1
_chemical_formula_structural   LiSi6BiO14
_chemical_formula_sum   'Li4 Si24 Bi4 O56'
_cell_volume   1179.15903812
_cell_formula_units_Z   4
loop_
 _symmetry_equiv_pos_site_id
 _symmetry_equiv_pos_as_xyz
  1  'x, y, z'
loop_
 _atom_site_type_symbol
 _atom_site_label
 _atom_site_symmetry_multiplicity
 _atom_site_fract_x
 _atom_site_fract_y
 _atom_site_fract_z
 _atom_site_occupancy
  Li  Li0  1  0.25000000  0.25000000  0.00000000  1
  Li  Li1  1  0.75000000  0.75000000  0.00000000  1
  Li  Li2  1  0.50000000  0.00000000  0.50000000  1
  Li  Li3  1  0.00000000  0.50000000  0.50000000  1
  Si  Si0  1  0.36758100  0.67571000  0.04329100  1
  Si  Si1  1  0.13241900  0.17571000  0.30812900  1
  Si  Si2  1  0.83375400  0.23910100  0.07285500  1
  Si  Si3  1  0.92516900  0.11029800  0.33241100  1
  Si  Si4  1  0.57483100  0.90724200  0.18512900  1
  Si  Si5  1  0.27788700  0.61029800  0.18512900  1
  Si  Si6  1  0.22211300  0.40724200  0.33241100  1
  Si  Si7  1  0.33375400  0.26089900  0.59465300  1
  Si  Si8  1  0.76984700  0.00227900  0.47596100  1
  Si  Si9  1  0.02631800  0.50227900  0.23243200  1
  Si  Si10  1  0.47368200  0.70611400  0.47596100  1
  Si  Si11  1  0.73015300  0.20611400  0.23243200  1
  Si  Si12  1  0.52631800  0.29388600  0.52403900  1
  Si  Si13  1  0.23015300  0.99772100  0.52403900  1
  Si  Si14  1  0.97368200  0.49772100  0.76756800  1
  Si  Si15  1  0.26984700  0.79388600  0.76756800  1
  Si  Si16  1  0.66624600  0.73910100  0.40534700  1
  Si  Si17  1  0.42516900  0.09275800  0.81487100  1
  Si  Si18  1  0.77788700  0.59275800  0.66758900  1
  Si  Si19  1  0.07483100  0.88970200  0.66758900  1
  Si  Si20  1  0.72211300  0.38970200  0.81487100  1
  Si  Si21  1  0.16624600  0.76089900  0.92714500  1
  Si  Si22  1  0.86758100  0.82429000  0.69187100  1
  Si  Si23  1  0.63241900  0.32429000  0.95670900  1
  Bi  Bi0  1  0.96550500  0.75000000  0.21550500  1
  Bi  Bi1  1  0.46550500  0.25000000  0.21550500  1
  Bi  Bi2  1  0.53449500  0.75000000  0.78449500  1
  Bi  Bi3  1  0.03449500  0.25000000  0.78449500  1
  O  O0  1  0.48695400  0.81459200  0.17313000  1
  O  O1  1  0.35853800  0.68617600  0.17313000  1
  O  O2  1  0.27052800  0.75484000  0.02536800  1
  O  O3  1  0.41840900  0.22741400  0.01896800  1
  O  O4  1  0.79155400  0.60055900  0.01896800  1
  O  O5  1  0.13632100  0.96413300  0.10045400  1
  O  O6  1  0.91840900  0.89944100  0.19099500  1
  O  O7  1  0.29155400  0.27258600  0.19099500  1
  O  O8  1  0.43976900  0.22039200  0.53211900  1
  O  O9  1  0.31172700  0.09235100  0.53211900  1
  O  O10  1  0.11443100  0.05529200  0.53951800  1
  O  O11  1  0.48422500  0.42508600  0.53951800  1
  O  O12  1  0.01304600  0.18617600  0.32763800  1
  O  O13  1  0.14146200  0.31459200  0.32763800  1
  O  O14  1  0.22947200  0.25484000  0.48431200  1
  O  O15  1  0.98422500  0.44470800  0.05913900  1
  O  O16  1  0.61443100  0.07491400  0.05913900  1
  O  O17  1  0.80330000  0.11437900  0.25701200  1
  O  O18  1  0.69670000  0.95371200  0.31107900  1
  O  O19  1  0.35736700  0.61437900  0.31107900  1
  O  O20  1  0.14263300  0.45371200  0.25701200  1
  O  O21  1  0.81172700  0.27960800  0.21937700  1
  O  O22  1  0.93976900  0.40764900  0.21937700  1
  O  O23  1  0.54086100  0.10477800  0.30913800  1
  O  O24  1  0.20436000  0.76827700  0.30913800  1
  O  O25  1  0.95913900  0.26827700  0.56391700  1
  O  O26  1  0.29564000  0.60477800  0.56391700  1
  O  O27  1  0.36367900  0.46413300  0.82781200  1
  O  O28  1  0.63632100  0.53586700  0.17218800  1
  O  O29  1  0.70436000  0.39522200  0.43608300  1
  O  O30  1  0.45913900  0.89522200  0.69086200  1
  O  O31  1  0.79564000  0.23172300  0.69086200  1
  O  O32  1  0.04086100  0.73172300  0.43608300  1
  O  O33  1  0.18827300  0.72039200  0.78062300  1
  O  O34  1  0.06023100  0.59235100  0.78062300  1
  O  O35  1  0.30330000  0.04628800  0.68892100  1
  O  O36  1  0.85736700  0.54628800  0.74298800  1
  O  O37  1  0.64263300  0.38562100  0.68892100  1
  O  O38  1  0.19670000  0.88562100  0.74298800  1
  O  O39  1  0.01577500  0.55529200  0.94086100  1
  O  O40  1  0.38556900  0.92508600  0.94086100  1
  O  O41  1  0.77052800  0.74516000  0.51568800  1
  O  O42  1  0.85853800  0.68540800  0.67236200  1
  O  O43  1  0.98695400  0.81382400  0.67236200  1
  O  O44  1  0.88556900  0.94470800  0.46048200  1
  O  O45  1  0.51577500  0.57491400  0.46048200  1
  O  O46  1  0.56023100  0.77960800  0.46788100  1
  O  O47  1  0.68827300  0.90764900  0.46788100  1
  O  O48  1  0.70844600  0.72741400  0.80900500  1
  O  O49  1  0.08159100  0.10055900  0.80900500  1
  O  O50  1  0.86367900  0.03586700  0.89954600  1
  O  O51  1  0.58159100  0.77258600  0.98103200  1
  O  O52  1  0.20844600  0.39944100  0.98103200  1
  O  O53  1  0.72947200  0.24516000  0.97463200  1
  O  O54  1  0.51304600  0.18540800  0.82687000  1
  O  O55  1  0.64146200  0.31382400  0.82687000  1
loop_
_geom_bond_atom_site_label_1
_geom_bond_atom_site_label_2
_geom_bond_distance
_geom_bond_site_symmetry_2
Li0 O3 2.164108 1_555
Li0 O52 2.164108 1_554
Li0 O7 2.164108 1_555
Li0 O49 2.164108 1_554
Li1 O4 2.164108 1_555
Li1 O6 2.164108 1_555
Li1 O51 2.164108 1_554
Li1 O48 2.164108 1_554
Li2 O1 2.591067 1_545
Li2 O54 2.591067 1_555
Li2 O0 2.591067 1_545
Li2 O55 2.591067 1_555
Li2 O8 2.605414 1_555
Li2 O46 2.605414 1_545
Li2 O47 2.605417 1_545
Li2 O9 2.605417 1_555
Li3 O13 2.591067 1_555
Li3 O42 2.591067 1_455
Li3 O12 2.591067 1_555
Li3 O43 2.591067 1_455
Li3 O34 2.605406 1_555
Li3 O22 2.605406 1_455
Li3 O21 2.605414 1_455
Li3 O33 2.605414 1_555
Bi0 O4 2.230246 1_555
Bi0 O6 2.230246 1_555
Bi0 O44 2.380032 1_555
Bi0 O39 2.380039 1_654
Bi0 O15 2.597181 1_555
Bi0 O10 2.597183 1_665
Bi1 O7 2.230246 1_555
Bi1 O3 2.230246 1_555
Bi1 O40 2.380039 1_544
Bi1 O45 2.380042 1_555
Bi1 O16 2.597181 1_555
Bi1 O11 2.597192 1_555
Bi2 O51 2.230246 1_555
Bi2 O48 2.230246 1_555
Bi2 O16 2.380039 1_566
Bi2 O11 2.380042 1_555
Bi2 O40 2.597181 1_555
Bi2 O45 2.597192 1_555
Bi3 O49 2.230246 1_555
Bi3 O52 2.230246 1_555
Bi3 O10 2.380032 1_555
Bi3 O15 2.380039 1_456
Bi3 O39 2.597181 1_555
Bi3 O44 2.597183 1_445
O0 Si0 1.635201 1_555
O0 Si4 1.665440 1_555
O1 Si0 1.635201 1_555
O1 Si5 1.665440 1_555
O2 Si21 1.627417 1_554
O2 Si0 1.630786 1_555
O3 Si17 1.598539 1_554
O4 Si20 1.598539 1_554
O5 Si1 1.621622 1_565
O5 Si21 1.625072 1_554
O6 Si3 1.598539 1_565
O7 Si6 1.598539 1_555
O8 Si7 1.633084 1_555
O8 Si12 1.661675 1_555
O9 Si7 1.633072 1_555
O9 Si13 1.661685 1_545
O10 Si13 1.601812 1_545
O11 Si12 1.601803 1_555
O12 Si1 1.635201 1_555
O12 Si3 1.665440 1_455
O13 Si1 1.635201 1_555
O13 Si6 1.665440 1_555
O14 Si7 1.627417 1_555
O14 Si1 1.630786 1_555
O15 Si9 1.601812 1_655
O16 Si11 1.601812 1_555
O17 Si11 1.629102 1_555
O17 Si3 1.636734 1_555
O18 Si8 1.629102 1_565
O18 Si4 1.636734 1_555
O19 Si10 1.629102 1_555
O19 Si5 1.636734 1_555
O20 Si9 1.629102 1_555
O20 Si6 1.636734 1_555
O21 Si2 1.633084 1_555
O21 Si11 1.661675 1_555
O22 Si2 1.633078 1_555
O22 Si9 1.661685 1_655
O23 Si4 1.645896 1_545
O23 Si12 1.653880 1_555
O24 Si5 1.645896 1_555
O24 Si13 1.653880 1_555
O25 Si3 1.645896 1_555
O25 Si14 1.653880 1_555
O26 Si6 1.645896 1_555
O26 Si15 1.653880 1_555
O27 Si0 1.621622 1_556
O27 Si7 1.625072 1_555
O28 Si23 1.621622 1_554
O28 Si16 1.625072 1_555
O29 Si18 1.645896 1_555
O29 Si11 1.653880 1_555
O30 Si17 1.645896 1_565
O30 Si10 1.653880 1_555
O31 Si20 1.645896 1_555
O31 Si8 1.653880 1_555
O32 Si19 1.645896 1_555
O32 Si9 1.653880 1_555
O33 Si21 1.633084 1_555
O33 Si15 1.661675 1_555
O34 Si21 1.633078 1_555
O34 Si14 1.661685 1_455
O35 Si13 1.629102 1_545
O35 Si17 1.636734 1_555
O36 Si14 1.629102 1_555
O36 Si18 1.636734 1_555
O37 Si12 1.629102 1_555
O37 Si20 1.636734 1_555
O38 Si15 1.629102 1_555
O38 Si19 1.636734 1_555
O39 Si14 1.601812 1_455
O40 Si15 1.601812 1_555
O41 Si16 1.627417 1_555
O41 Si22 1.630786 1_555
O42 Si22 1.635201 1_555
O42 Si18 1.665440 1_555
O43 Si22 1.635201 1_555
O43 Si19 1.665440 1_655
O44 Si8 1.601812 1_565
O45 Si10 1.601803 1_555
O46 Si16 1.633084 1_555
O46 Si10 1.661675 1_555
O47 Si16 1.633072 1_555
O47 Si8 1.661685 1_565
O48 Si18 1.598539 1_555
O49 Si19 1.598539 1_545
O50 Si22 1.621622 1_545
O50 Si2 1.625072 1_556
O51 Si4 1.598539 1_556
O52 Si5 1.598539 1_556
O53 Si2 1.627417 1_556
O53 Si23 1.630786 1_555
O54 Si23 1.635201 1_555
O54 Si17 1.665440 1_555
O55 Si23 1.635201 1_555
O55 Si20 1.665440 1_555
