# generated using pymatgen
data_LiMnPO4
_symmetry_space_group_name_H-M   'P 1'
_cell_length_a   5.31091722
_cell_length_b   26.89759300
_cell_length_c   5.31091672
_cell_angle_alpha   90.00000000
_cell_angle_beta   60.00000042
_cell_angle_gamma   90.00000000
_symmetry_Int_Tables_number   1
_chemical_formula_structural   LiMnPO4
_chemical_formula_sum   'Li6 Mn6 P6 O24'
_cell_volume   657.02678415
_cell_formula_units_Z   6
loop_
 _symmetry_equiv_pos_site_id
 _symmetry_equiv_pos_as_xyz
  1  'x, y, z'
loop_
 _atom_site_type_symbol
 _atom_site_label
 _atom_site_symmetry_multiplicity
 _atom_site_fract_x
 _atom_site_fract_y
 _atom_site_fract_z
 _atom_site_occupancy
  Li  Li0  1  0.00000000  0.08333400  0.00000000  1
  Li  Li1  1  0.00000000  0.58333400  0.00000000  1
  Li  Li2  1  0.00000000  0.25000000  0.00000000  1
  Li  Li3  1  0.00000000  0.75000000  0.00000000  1
  Li  Li4  1  0.00000000  0.41666600  0.00000000  1
  Li  Li5  1  0.00000000  0.91666600  0.00000000  1
  Mn  Mn0  1  0.50000000  0.83333400  0.00000000  1
  Mn  Mn1  1  0.00000000  0.16666600  0.50000000  1
  Mn  Mn2  1  0.50000000  0.50000000  0.50000000  1
  Mn  Mn3  1  0.50000000  0.33333400  0.00000000  1
  Mn  Mn4  1  0.00000000  0.66666700  0.50000000  1
  Mn  Mn5  1  0.50000000  0.00000000  0.50000000  1
  P  P0  1  0.50000000  0.08333400  0.00000000  1
  P  P1  1  0.50000000  0.58333400  0.00000000  1
  P  P2  1  0.00000000  0.41666600  0.50000000  1
  P  P3  1  0.00000000  0.91666600  0.50000000  1
  P  P4  1  0.50000000  0.25000000  0.50000000  1
  P  P5  1  0.50000000  0.75000000  0.50000000  1
  O  O0  1  0.59481300  0.05100800  0.18053500  1
  O  O1  1  0.59481300  0.55100800  0.18053500  1
  O  O2  1  0.59481300  0.28232500  0.22465200  1
  O  O3  1  0.59481300  0.78232500  0.22465200  1
  O  O4  1  0.22465200  0.11565800  0.18053500  1
  O  O5  1  0.22465200  0.61565800  0.18053500  1
  O  O6  1  0.18053500  0.38434200  0.22465200  1
  O  O7  1  0.18053500  0.88434200  0.22465200  1
  O  O8  1  0.22465200  0.21767500  0.59481300  1
  O  O9  1  0.22465200  0.71767500  0.59481300  1
  O  O10  1  0.18053500  0.44899200  0.59481300  1
  O  O11  1  0.18053500  0.94899200  0.59481300  1
  O  O12  1  0.77534800  0.21767500  0.40518700  1
  O  O13  1  0.77534800  0.71767500  0.40518700  1
  O  O14  1  0.81946500  0.44899200  0.40518700  1
  O  O15  1  0.81946500  0.94899200  0.40518700  1
  O  O16  1  0.77534800  0.11565800  0.81946500  1
  O  O17  1  0.77534800  0.61565800  0.81946500  1
  O  O18  1  0.81946500  0.38434200  0.77534800  1
  O  O19  1  0.81946500  0.88434200  0.77534800  1
  O  O20  1  0.40518700  0.05100800  0.81946500  1
  O  O21  1  0.40518700  0.55100800  0.81946500  1
  O  O22  1  0.40518700  0.28232500  0.77534800  1
  O  O23  1  0.40518700  0.78232500  0.77534800  1
loop_
_geom_bond_atom_site_label_1
_geom_bond_atom_site_label_2
_geom_bond_distance
_geom_bond_site_symmetry_2
Li0 O4 2.059781 1_555
Li0 O16 2.059781 1_454
Li0 O20 2.059804 1_554
Li0 O0 2.059804 1_455
Li1 O5 2.059781 1_555
Li1 O17 2.059781 1_454
Li1 O21 2.059804 1_554
Li1 O1 2.059804 1_455
Li2 O12 2.059792 1_455
Li2 O8 2.059792 1_554
Li2 O22 2.059793 1_554
Li2 O2 2.059793 1_455
Li3 O13 2.059792 1_455
Li3 O9 2.059792 1_554
Li3 O23 2.059793 1_554
Li3 O3 2.059793 1_455
Li4 O6 2.059781 1_555
Li4 O18 2.059781 1_454
Li4 O14 2.059804 1_455
Li4 O10 2.059804 1_554
Li5 O7 2.059781 1_555
Li5 O19 2.059781 1_454
Li5 O15 2.059804 1_455
Li5 O11 2.059804 1_554
Mn0 O7 2.039659 1_555
Mn0 O19 2.039659 1_554
Mn0 O3 2.039677 1_555
Mn0 O23 2.039677 1_554
Mn1 O4 2.039659 1_555
Mn1 O16 2.039659 1_455
Mn1 O8 2.039677 1_555
Mn1 O12 2.039677 1_455
Mn2 O21 2.039659 1_555
Mn2 O1 2.039659 1_555
Mn2 O14 2.039659 1_555
Mn2 O10 2.039659 1_555
Mn3 O6 2.039659 1_555
Mn3 O18 2.039659 1_554
Mn3 O2 2.039677 1_555
Mn3 O22 2.039677 1_554
Mn4 O9 2.039659 1_555
Mn4 O13 2.039659 1_455
Mn4 O5 2.039677 1_555
Mn4 O17 2.039677 1_455
Mn5 O20 2.039659 1_555
Mn5 O0 2.039659 1_555
Mn5 O15 2.039659 1_545
Mn5 O11 2.039659 1_545
O0 P0 1.552959 1_555
O1 P1 1.552959 1_555
O2 P4 1.552944 1_555
O3 P5 1.552944 1_555
O4 P0 1.552929 1_555
O5 P1 1.552929 1_555
O6 P2 1.552929 1_555
O7 P3 1.552929 1_555
O8 P4 1.552944 1_555
O9 P5 1.552944 1_555
O10 P2 1.552959 1_555
O11 P3 1.552959 1_555
O12 P4 1.552944 1_555
O13 P5 1.552944 1_555
O14 P2 1.552959 1_655
O15 P3 1.552959 1_655
O16 P0 1.552929 1_556
O17 P1 1.552929 1_556
O18 P2 1.552929 1_655
O19 P3 1.552929 1_655
O20 P0 1.552959 1_556
O21 P1 1.552959 1_556
O22 P4 1.552944 1_555
O23 P5 1.552944 1_555
