# generated using pymatgen
data_In2WO6
_symmetry_space_group_name_H-M   'P 1'
_cell_length_a   5.19357900
_cell_length_b   7.50396300
_cell_length_c   11.88246656
_cell_angle_alpha   82.63936096
_cell_angle_beta   90.00000000
_cell_angle_gamma   90.00000000
_symmetry_Int_Tables_number   1
_chemical_formula_structural   In2WO6
_chemical_formula_sum   'In8 W4 O24'
_cell_volume   459.27240901
_cell_formula_units_Z   4
loop_
 _symmetry_equiv_pos_site_id
 _symmetry_equiv_pos_as_xyz
  1  'x, y, z'
loop_
 _atom_site_type_symbol
 _atom_site_label
 _atom_site_symmetry_multiplicity
 _atom_site_fract_x
 _atom_site_fract_y
 _atom_site_fract_z
 _atom_site_occupancy
  In  In0  1  0.77972000  0.00000000  0.75000000  1
  In  In1  1  0.22028000  0.00000000  0.25000000  1
  In  In2  1  0.23608700  0.76775300  0.60357000  1
  In  In3  1  0.76391300  0.76775300  0.10357000  1
  In  In4  1  0.70634200  0.50000000  0.75000000  1
  In  In5  1  0.29365800  0.50000000  0.25000000  1
  In  In6  1  0.23608700  0.23224700  0.89643000  1
  In  In7  1  0.76391300  0.23224700  0.39643000  1
  W  W0  1  0.26774000  0.73637700  0.89329100  1
  W  W1  1  0.73226000  0.73637700  0.39329100  1
  W  W2  1  0.26774000  0.26362300  0.60670900  1
  W  W3  1  0.73226000  0.26362300  0.10670900  1
  O  O0  1  0.08814500  0.97147200  0.87383200  1
  O  O1  1  0.56289400  0.84113500  0.94680400  1
  O  O2  1  0.91185500  0.97147200  0.37383200  1
  O  O3  1  0.50588900  0.79170100  0.73709100  1
  O  O4  1  0.43710600  0.84113500  0.44680400  1
  O  O5  1  0.01069700  0.69149600  0.77279700  1
  O  O6  1  0.49411100  0.79170100  0.23709100  1
  O  O7  1  0.89549300  0.66522600  0.52939200  1
  O  O8  1  0.41014100  0.50056500  0.88225200  1
  O  O9  1  0.98930300  0.69149600  0.27279700  1
  O  O10  1  0.41014100  0.49943500  0.61774800  1
  O  O11  1  0.89549300  0.33477400  0.97060800  1
  O  O12  1  0.10450700  0.66522600  0.02939200  1
  O  O13  1  0.58985900  0.50056500  0.38225200  1
  O  O14  1  0.01069700  0.30850400  0.72720300  1
  O  O15  1  0.58985900  0.49943500  0.11774800  1
  O  O16  1  0.10450700  0.33477400  0.47060800  1
  O  O17  1  0.50588900  0.20829900  0.76290900  1
  O  O18  1  0.98930300  0.30850400  0.22720300  1
  O  O19  1  0.56289400  0.15886500  0.55319600  1
  O  O20  1  0.49411100  0.20829900  0.26290900  1
  O  O21  1  0.08814500  0.02852800  0.62616800  1
  O  O22  1  0.43710600  0.15886500  0.05319600  1
  O  O23  1  0.91185500  0.02852800  0.12616800  1
loop_
_geom_bond_atom_site_label_1
_geom_bond_atom_site_label_2
_geom_bond_distance
_geom_bond_site_symmetry_2
In0 O17 2.133235 1_555
In0 O3 2.133235 1_545
In0 O0 2.167044 1_645
In0 O21 2.167044 1_655
In0 O14 2.590554 1_655
In0 O5 2.590554 1_645
In0 O1 2.728297 1_545
In0 O19 2.728297 1_555
In1 O20 2.133235 1_555
In1 O6 2.133235 1_545
In1 O23 2.167044 1_455
In1 O2 2.167044 1_445
In1 O9 2.590554 1_445
In1 O18 2.590554 1_455
In1 O4 2.728297 1_545
In1 O22 2.728297 1_555
In2 O3 2.141491 1_555
In2 O4 2.144819 1_555
In2 O21 2.150894 1_565
In2 O7 2.161384 1_455
In2 O10 2.193762 1_555
In2 O5 2.333737 1_555
In3 O6 2.141491 1_555
In3 O1 2.144819 1_554
In3 O23 2.150894 1_565
In3 O12 2.161384 1_655
In3 O15 2.193762 1_555
In3 O9 2.333737 1_555
In4 O5 2.176376 1_655
In4 O14 2.176376 1_655
In4 O8 2.199494 1_555
In4 O10 2.199494 1_555
In4 O3 2.410947 1_555
In4 O17 2.410947 1_555
In5 O9 2.176376 1_455
In5 O18 2.176376 1_455
In5 O13 2.199494 1_555
In5 O15 2.199494 1_555
In5 O6 2.410947 1_555
In5 O20 2.410947 1_555
In6 O17 2.141491 1_555
In6 O22 2.144819 1_556
In6 O0 2.150894 1_545
In6 O11 2.161384 1_455
In6 O8 2.193762 1_555
In6 O14 2.333737 1_555
In7 O20 2.141491 1_555
In7 O19 2.144819 1_555
In7 O2 2.150894 1_545
In7 O16 2.161384 1_655
In7 O13 2.193762 1_555
In7 O18 2.333737 1_555
O0 W0 1.982714 1_555
O1 W0 1.870870 1_555
O2 W1 1.982714 1_555
O3 W0 2.224768 1_555
O4 W1 1.870870 1_555
O5 W0 2.017197 1_555
O6 W1 2.224768 1_555
O7 W1 1.843343 1_555
O8 W0 1.937746 1_555
O9 W1 2.017197 1_555
O10 W2 1.937746 1_555
O11 W3 1.843343 1_556
O12 W0 1.843343 1_554
O13 W1 1.937746 1_555
O14 W2 2.017197 1_555
O15 W3 1.937746 1_555
O16 W2 1.843343 1_555
O17 W2 2.224768 1_555
O18 W3 2.017197 1_555
O19 W2 1.870870 1_555
O20 W3 2.224768 1_555
O21 W2 1.982714 1_555
O22 W3 1.870870 1_555
O23 W3 1.982714 1_555
