# generated using pymatgen
data_SrCaI4
_symmetry_space_group_name_H-M   'P 1'
_cell_length_a   10.02407408
_cell_length_b   10.02407408
_cell_length_c   10.02407408
_cell_angle_alpha   133.04303007
_cell_angle_beta   133.04303007
_cell_angle_gamma   68.58657980
_symmetry_Int_Tables_number   1
_chemical_formula_structural   SrCaI4
_chemical_formula_sum   'Sr2 Ca2 I8'
_cell_volume   528.33340137
_cell_formula_units_Z   2
loop_
 _symmetry_equiv_pos_site_id
 _symmetry_equiv_pos_as_xyz
  1  'x, y, z'
loop_
 _atom_site_type_symbol
 _atom_site_label
 _atom_site_symmetry_multiplicity
 _atom_site_fract_x
 _atom_site_fract_y
 _atom_site_fract_z
 _atom_site_occupancy
  Sr  Sr0  1  0.75000000  0.25000000  0.50000000  1
  Sr  Sr1  1  0.00000000  0.00000000  0.00000000  1
  Ca  Ca0  1  0.50000000  0.50000000  0.00000000  1
  Ca  Ca1  1  0.25000000  0.75000000  0.50000000  1
  I  I0  1  0.40497700  0.86453500  0.09038400  1
  I  I1  1  0.68540600  0.59502300  0.45955800  1
  I  I2  1  0.13546500  0.22584800  0.54044200  1
  I  I3  1  0.97584800  0.93540600  0.59038400  1
  I  I4  1  0.77415200  0.31459400  0.90961600  1
  I  I5  1  0.61453500  0.02415200  0.95955800  1
  I  I6  1  0.06459400  0.65497700  0.04044200  1
  I  I7  1  0.34502300  0.38546500  0.40961600  1
loop_
_geom_bond_atom_site_label_1
_geom_bond_atom_site_label_2
_geom_bond_distance
_geom_bond_site_symmetry_2
Ca0 I0 3.032810 1_555
Ca0 I1 3.032813 1_555
Ca0 I2 3.032813 1_554
Ca0 I4 3.032818 1_554
Ca1 I7 3.032810 1_555
Ca1 I5 3.032813 1_565
Ca1 I6 3.032813 1_555
Ca1 I3 3.032818 1_455
I0 Sr1 3.431909 1_565
I0 Sr0 3.530657 1_565
I1 Sr1 3.431911 1_666
I1 Sr0 3.530655 1_555
I2 Sr1 3.431911 1_555
I2 Sr0 3.530655 1_455
I3 Sr0 3.431916 1_565
I3 Sr1 3.530645 1_666
I4 Sr1 3.431916 1_656
I4 Sr0 3.530645 1_555
I5 Sr0 3.431911 1_556
I5 Sr1 3.530655 1_656
I6 Sr0 3.431911 1_454
I6 Sr1 3.530655 1_565
I7 Sr0 3.431909 1_555
I7 Sr1 3.530657 1_555
