# generated using pymatgen
data_Ca2B4Rh5
_symmetry_space_group_name_H-M   'P 1'
_cell_length_a   5.47071587
_cell_length_b   5.60617611
_cell_length_c   6.23626019
_cell_angle_alpha   77.64244182
_cell_angle_beta   63.98403930
_cell_angle_gamma   60.79611670
_symmetry_Int_Tables_number   1
_chemical_formula_structural   Ca2B4Rh5
_chemical_formula_sum   'Ca2 B4 Rh5'
_cell_volume   150.03594167
_cell_formula_units_Z   1
loop_
 _symmetry_equiv_pos_site_id
 _symmetry_equiv_pos_as_xyz
  1  'x, y, z'
loop_
 _atom_site_type_symbol
 _atom_site_label
 _atom_site_symmetry_multiplicity
 _atom_site_fract_x
 _atom_site_fract_y
 _atom_site_fract_z
 _atom_site_occupancy
  Ca  Ca0  1  0.14254584  -0.00000000  0.71491032  1
  Ca  Ca1  1  0.85745416  0.00000000  0.28508968  1
  B  B0  1  0.20872831  0.32130131  0.26124407  1
  B  B1  1  0.79127169  0.67869869  0.73875593  1
  B  B2  1  0.46997138  0.32130131  0.73875593  1
  B  B3  1  0.53002862  0.67869869  0.26124407  1
  Rh  Rh0  1  0.50000000  0.00000000  0.00000000  1
  Rh  Rh1  1  0.50000000  0.50000000  0.00000000  1
  Rh  Rh2  1  0.00000000  0.50000000  0.00000000  1
  Rh  Rh3  1  0.25000000  0.50000000  0.50000000  1
  Rh  Rh4  1  0.75000000  0.50000000  0.50000000  1
loop_
_geom_bond_atom_site_label_1
_geom_bond_atom_site_label_2
_geom_bond_distance
_geom_bond_site_symmetry_2
Ca0 Rh4 3.050892 1_545
Ca0 Rh3 3.050893 1_555
Ca0 Rh4 3.050897 1_455
Ca0 Rh3 3.050898 1_545
Ca0 Rh0 3.167797 1_556
Ca0 Rh0 3.167806 1_456
Ca0 Rh1 3.226463 1_546
Ca0 Rh2 3.226464 1_556
Ca0 Rh1 3.226468 1_456
Ca0 Rh2 3.226468 1_546
Ca1 Rh3 3.050892 1_555
Ca1 Rh4 3.050893 1_545
Ca1 Rh3 3.050897 1_645
Ca1 Rh4 3.050898 1_555
Ca1 Rh0 3.167797 1_555
Ca1 Rh0 3.167806 1_655
Ca1 Rh1 3.226463 1_555
Ca1 Rh2 3.226464 1_645
Ca1 Rh1 3.226468 1_645
Ca1 Rh2 3.226468 1_655
B0 Rh3 2.103729 1_555
B0 Rh4 2.103736 1_455
B0 Rh0 2.148432 1_555
B0 Rh1 2.186055 1_555
B0 Rh2 2.186062 1_555
B0 Ca0 2.989397 1_555
B0 Ca1 3.157870 1_555
B0 Ca1 3.157889 1_455
B1 Rh4 2.103729 1_555
B1 Rh3 2.103736 1_655
B1 Rh0 2.148432 1_566
B1 Rh1 2.186055 1_556
B1 Rh2 2.186062 1_656
B1 Ca1 2.989397 1_565
B1 Ca0 3.157870 1_565
B1 Ca0 3.157889 1_665
B2 Rh3 2.103732 1_555
B2 Rh4 2.103732 1_555
B2 Rh0 2.148432 1_556
B2 Rh2 2.186058 1_556
B2 Rh1 2.186058 1_556
B2 Ca1 2.989397 1_555
B2 Ca0 3.157875 1_555
B2 Ca0 3.157884 1_655
B3 Rh4 2.103732 1_555
B3 Rh3 2.103732 1_555
B3 Rh0 2.148432 1_565
B3 Rh2 2.186058 1_655
B3 Rh1 2.186058 1_555
B3 Ca0 2.989397 1_565
B3 Ca1 3.157875 1_565
B3 Ca1 3.157884 1_465
