# generated using pymatgen
data_LiMnP3HO10
_symmetry_space_group_name_H-M   'P 1'
_cell_length_a   5.01687500
_cell_length_b   12.52170000
_cell_length_c   14.58133000
_cell_angle_alpha   90.00000000
_cell_angle_beta   90.00000000
_cell_angle_gamma   90.00000000
_symmetry_Int_Tables_number   1
_chemical_formula_structural   LiMnP3HO10
_chemical_formula_sum   'Li4 Mn4 P12 H4 O40'
_cell_volume   915.99628810
_cell_formula_units_Z   4
loop_
 _symmetry_equiv_pos_site_id
 _symmetry_equiv_pos_as_xyz
  1  'x, y, z'
loop_
 _atom_site_type_symbol
 _atom_site_label
 _atom_site_symmetry_multiplicity
 _atom_site_fract_x
 _atom_site_fract_y
 _atom_site_fract_z
 _atom_site_occupancy
  Li  Li0  1  0.14815500  0.20820600  0.04089900  1
  Li  Li1  1  0.14815500  0.29179400  0.54089900  1
  Li  Li2  1  0.85184500  0.70820600  0.04089900  1
  Li  Li3  1  0.85184500  0.79179400  0.54089900  1
  Mn  Mn0  1  0.98435400  0.16249600  0.73669500  1
  Mn  Mn1  1  0.98435400  0.33750400  0.23669500  1
  Mn  Mn2  1  0.01564600  0.66249600  0.73669500  1
  Mn  Mn3  1  0.01564600  0.83750400  0.23669500  1
  P  P0  1  0.25261700  0.08519500  0.22986200  1
  P  P1  1  0.48075200  0.08214500  0.61977800  1
  P  P2  1  0.48408600  0.25632700  0.35373200  1
  P  P3  1  0.48408600  0.24367300  0.85373200  1
  P  P4  1  0.48075200  0.41785500  0.11977800  1
  P  P5  1  0.25261700  0.41480500  0.72986200  1
  P  P6  1  0.74738300  0.58519500  0.22986200  1
  P  P7  1  0.51924800  0.58214500  0.61977800  1
  P  P8  1  0.51591400  0.75632700  0.35373200  1
  P  P9  1  0.51591400  0.74367300  0.85373200  1
  P  P10  1  0.51924800  0.91785500  0.11977800  1
  P  P11  1  0.74738300  0.91480500  0.72986200  1
  H  H0  1  0.50213000  0.12452300  0.48149600  1
  H  H1  1  0.50213000  0.37547700  0.98149600  1
  H  H2  1  0.49787000  0.62452300  0.48149600  1
  H  H3  1  0.49787000  0.87547700  0.98149600  1
  O  O0  1  0.48683400  0.03100700  0.16819700  1
  O  O1  1  0.91022100  0.00086800  0.77383400  1
  O  O2  1  0.54458000  0.05584600  0.51737600  1
  O  O3  1  0.43177600  0.14094600  0.30606900  1
  O  O4  1  0.18888700  0.11685900  0.62588300  1
  O  O5  1  0.11714700  0.16798600  0.17082300  1
  O  O6  1  0.30750200  0.16007800  0.80747200  1
  O  O7  1  0.67248100  0.16581100  0.65811900  1
  O  O8  1  0.41508400  0.24006700  0.45428300  1
  O  O9  1  0.78400100  0.22239300  0.84092000  1
  O  O10  1  0.78400100  0.27760700  0.34092000  1
  O  O11  1  0.41508400  0.25993300  0.95428300  1
  O  O12  1  0.67248100  0.33418900  0.15811900  1
  O  O13  1  0.30750200  0.33992200  0.30747200  1
  O  O14  1  0.11714700  0.33201400  0.67082300  1
  O  O15  1  0.18888700  0.38314100  0.12588300  1
  O  O16  1  0.43177600  0.35905400  0.80606900  1
  O  O17  1  0.54458000  0.44415400  0.01737600  1
  O  O18  1  0.91022100  0.49913200  0.27383400  1
  O  O19  1  0.48683400  0.46899300  0.66819700  1
  O  O20  1  0.51316600  0.53100700  0.16819700  1
  O  O21  1  0.08977900  0.50086800  0.77383400  1
  O  O22  1  0.45542000  0.55584600  0.51737600  1
  O  O23  1  0.56822400  0.64094600  0.30606900  1
  O  O24  1  0.81111300  0.61685900  0.62588300  1
  O  O25  1  0.88285300  0.66798600  0.17082300  1
  O  O26  1  0.69249800  0.66007800  0.80747200  1
  O  O27  1  0.32751900  0.66581100  0.65811900  1
  O  O28  1  0.58491600  0.74006700  0.45428300  1
  O  O29  1  0.21599900  0.72239300  0.84092000  1
  O  O30  1  0.21599900  0.77760700  0.34092000  1
  O  O31  1  0.58491600  0.75993300  0.95428300  1
  O  O32  1  0.32751900  0.83418900  0.15811900  1
  O  O33  1  0.69249800  0.83992200  0.30747200  1
  O  O34  1  0.88285300  0.83201400  0.67082300  1
  O  O35  1  0.81111300  0.88314100  0.12588300  1
  O  O36  1  0.56822400  0.85905400  0.80606900  1
  O  O37  1  0.45542000  0.94415400  0.01737600  1
  O  O38  1  0.08977900  0.99913200  0.27383400  1
  O  O39  1  0.51316600  0.96899300  0.66819700  1
loop_
_geom_bond_atom_site_label_1
_geom_bond_atom_site_label_2
_geom_bond_distance
_geom_bond_site_symmetry_2
Li0 O11 1.951399 1_554
Li0 O5 1.966426 1_555
Li0 O15 2.524984 1_555
Li1 O8 1.951399 1_555
Li1 O14 1.966426 1_555
Li1 O4 2.524984 1_555
Li2 O31 1.951399 1_554
Li2 O25 1.966426 1_555
Li2 O35 2.524984 1_555
Li3 O28 1.951399 1_555
Li3 O34 1.966426 1_555
Li3 O24 2.524984 1_555
Mn0 O6 1.922044 1_655
Mn0 O7 1.939719 1_555
Mn0 O9 1.970392 1_555
Mn0 O4 1.997558 1_655
Mn0 O1 2.127811 1_555
Mn0 O14 2.423232 1_655
Mn1 O13 1.922044 1_655
Mn1 O12 1.939719 1_555
Mn1 O10 1.970392 1_555
Mn1 O15 1.997558 1_655
Mn1 O18 2.127811 1_555
Mn1 O5 2.423232 1_655
Mn2 O26 1.922044 1_455
Mn2 O27 1.939719 1_555
Mn2 O29 1.970392 1_555
Mn2 O24 1.997558 1_455
Mn2 O21 2.127811 1_555
Mn2 O34 2.423232 1_455
Mn3 O33 1.922044 1_455
Mn3 O32 1.939719 1_555
Mn3 O30 1.970392 1_555
Mn3 O35 1.997558 1_455
Mn3 O38 2.127811 1_555
Mn3 O25 2.423232 1_455
H0 O2 1.028877 1_555
H0 O8 1.562501 1_555
H1 O17 1.028877 1_556
H1 O11 1.562501 1_555
H2 O22 1.028877 1_555
H2 O28 1.562501 1_555
H3 O37 1.028877 1_556
H3 O31 1.562501 1_555
O0 P10 1.591345 1_545
O0 P0 1.627758 1_555
O1 P11 1.496605 1_545
O2 P1 1.562211 1_555
O3 P0 1.590591 1_555
O3 P2 1.624571 1_555
O4 P1 1.529999 1_555
O5 P0 1.509209 1_555
O6 P3 1.528235 1_555
O7 P1 1.528174 1_555
O8 P2 1.520177 1_555
O9 P3 1.539426 1_555
O10 P2 1.539426 1_555
O11 P3 1.520177 1_555
O12 P4 1.528174 1_555
O13 P2 1.528235 1_555
O14 P5 1.509209 1_555
O15 P4 1.529999 1_555
O16 P5 1.590591 1_555
O16 P3 1.624571 1_555
O17 P4 1.562211 1_555
O18 P6 1.496605 1_555
O19 P7 1.591345 1_555
O19 P5 1.627758 1_555
O20 P4 1.591345 1_555
O20 P6 1.627758 1_555
O21 P5 1.496605 1_555
O22 P7 1.562211 1_555
O23 P6 1.590591 1_555
O23 P8 1.624571 1_555
O24 P7 1.529999 1_555
O25 P6 1.509209 1_555
O26 P9 1.528235 1_555
O27 P7 1.528174 1_555
O28 P8 1.520177 1_555
O29 P9 1.539426 1_555
O30 P8 1.539426 1_555
O31 P9 1.520177 1_555
O32 P10 1.528174 1_555
O33 P8 1.528235 1_555
O34 P11 1.509209 1_555
O35 P10 1.529999 1_555
O36 P11 1.590591 1_555
O36 P9 1.624571 1_555
O37 P10 1.562211 1_555
O38 P0 1.496605 1_565
O39 P1 1.591345 1_565
O39 P11 1.627758 1_555
