# generated using pymatgen
data_TcRh3
_symmetry_space_group_name_H-M   'P 1'
_cell_length_a   5.43463039
_cell_length_b   5.43462895
_cell_length_c   4.32067968
_cell_angle_alpha   90.00000000
_cell_angle_beta   90.00000000
_cell_angle_gamma   120.00000260
_symmetry_Int_Tables_number   1
_chemical_formula_structural   TcRh3
_chemical_formula_sum   'Tc2 Rh6'
_cell_volume   110.51534961
_cell_formula_units_Z   2
loop_
 _symmetry_equiv_pos_site_id
 _symmetry_equiv_pos_as_xyz
  1  'x, y, z'
loop_
 _atom_site_type_symbol
 _atom_site_label
 _atom_site_symmetry_multiplicity
 _atom_site_fract_x
 _atom_site_fract_y
 _atom_site_fract_z
 _atom_site_occupancy
  Tc  Tc0  1  0.33333300  0.66666600  0.75000000  1
  Tc  Tc1  1  0.66666600  0.33333300  0.25000100  1
  Rh  Rh0  1  0.16838757  0.33677814  0.25000100  1
  Rh  Rh1  1  0.66322386  0.83161243  0.25000100  1
  Rh  Rh2  1  0.16838657  0.83161243  0.25000100  1
  Rh  Rh3  1  0.83161043  0.66322186  0.75000000  1
  Rh  Rh4  1  0.33677814  0.16838857  0.75000000  1
  Rh  Rh5  1  0.83161243  0.16838857  0.75000000  1
loop_
_geom_bond_atom_site_label_1
_geom_bond_atom_site_label_2
_geom_bond_distance
_geom_bond_site_symmetry_2
Rh0 Tc0 2.660394 1_555
Rh0 Tc0 2.660401 1_554
Rh0 Rh5 2.679441 1_455
Rh0 Rh5 2.679448 1_454
Rh0 Rh4 2.679455 1_555
Rh0 Rh4 2.679462 1_554
Rh0 Rh2 2.689243 1_555
Rh0 Rh1 2.689246 1_555
Rh0 Tc1 2.717358 1_455
Rh0 Tc1 2.717369 1_555
Rh0 Rh1 2.745383 1_445
Rh0 Rh2 2.745385 1_545
Rh1 Tc0 2.660403 1_555
Rh1 Tc0 2.660410 1_554
Rh1 Rh5 2.679444 1_565
Rh1 Rh3 2.679447 1_555
Rh1 Rh5 2.679451 1_564
Rh1 Rh3 2.679454 1_554
Rh1 Rh2 2.689258 1_555
Rh1 Tc1 2.717360 1_565
Rh1 Tc1 2.717365 1_555
Rh1 Rh2 2.745373 1_655
Rh2 Tc0 2.660408 1_555
Rh2 Tc0 2.660415 1_554
Rh2 Rh4 2.679444 1_565
Rh2 Rh3 2.679444 1_455
Rh2 Rh4 2.679451 1_564
Rh2 Rh3 2.679451 1_454
Rh2 Tc1 2.717363 1_565
Rh2 Tc1 2.717363 1_455
Rh3 Tc1 2.660397 1_555
Rh3 Tc1 2.660404 1_556
Rh3 Rh4 2.689233 1_555
Rh3 Rh5 2.689241 1_555
Rh3 Tc0 2.717361 1_555
Rh3 Tc0 2.717366 1_655
Rh3 Rh5 2.745388 1_565
Rh3 Rh4 2.745397 1_665
Rh4 Tc1 2.660394 1_555
Rh4 Tc1 2.660401 1_556
Rh4 Rh5 2.689241 1_555
Rh4 Tc0 2.717363 1_545
Rh4 Tc0 2.717363 1_555
Rh4 Rh5 2.745389 1_455
Rh5 Tc1 2.660403 1_555
Rh5 Tc1 2.660410 1_556
Rh5 Tc0 2.717358 1_655
Rh5 Tc0 2.717368 1_545
