# generated using pymatgen
data_Ba2InBiS5
_symmetry_space_group_name_H-M   'P 1'
_cell_length_a   9.55251461
_cell_length_b   9.55251461
_cell_length_c   12.96383600
_cell_angle_alpha   90.00000000
_cell_angle_beta   90.00000000
_cell_angle_gamma   154.52573515
_symmetry_Int_Tables_number   1
_chemical_formula_structural   Ba2InBiS5
_chemical_formula_sum   'Ba4 In2 Bi2 S10'
_cell_volume   508.79647370
_cell_formula_units_Z   2
loop_
 _symmetry_equiv_pos_site_id
 _symmetry_equiv_pos_as_xyz
  1  'x, y, z'
loop_
 _atom_site_type_symbol
 _atom_site_label
 _atom_site_symmetry_multiplicity
 _atom_site_fract_x
 _atom_site_fract_y
 _atom_site_fract_z
 _atom_site_occupancy
  Ba  Ba0  1  0.12953500  0.87046500  0.18967500  1
  Ba  Ba1  1  0.88724100  0.11275900  0.31556800  1
  Ba  Ba2  1  0.87046500  0.12953500  0.68967500  1
  Ba  Ba3  1  0.11275900  0.88724100  0.81556800  1
  In  In0  1  0.44381900  0.55618100  0.05570200  1
  In  In1  1  0.55618100  0.44381900  0.55570200  1
  Bi  Bi0  1  0.21693000  0.78307000  0.47809700  1
  Bi  Bi1  1  0.78307000  0.21693000  0.97809700  1
  S  S0  1  0.64289900  0.35710100  0.99968200  1
  S  S1  1  0.31589400  0.68410600  0.13066100  1
  S  S2  1  0.50396700  0.49603300  0.22361400  1
  S  S3  1  0.71603600  0.28396400  0.33480500  1
  S  S4  1  0.04533500  0.95466500  0.44822600  1
  S  S5  1  0.35710100  0.64289900  0.49968100  1
  S  S6  1  0.68410600  0.31589400  0.63066100  1
  S  S7  1  0.49603300  0.50396700  0.72361400  1
  S  S8  1  0.28396400  0.71603600  0.83480500  1
  S  S9  1  0.95466500  0.04533500  0.94822600  1
loop_
_geom_bond_atom_site_label_1
_geom_bond_atom_site_label_2
_geom_bond_distance
_geom_bond_site_symmetry_2
Ba0 S2 3.178786 1_455
Ba0 S2 3.178786 1_565
Ba0 S0 3.250282 1_564
Ba0 S0 3.250282 1_454
Ba0 S3 3.251756 1_565
Ba0 S3 3.251756 1_455
Ba0 S1 3.556051 1_555
Ba0 S4 3.700891 1_555
Ba1 S3 3.200118 1_555
Ba1 S5 3.232348 1_545
Ba1 S5 3.232348 1_655
Ba1 S2 3.253950 1_655
Ba1 S2 3.253950 1_545
Ba1 S4 3.411284 1_645
Ba1 S1 3.456812 1_655
Ba1 S1 3.456812 1_545
Ba2 S7 3.178786 1_655
Ba2 S7 3.178786 1_545
Ba2 S5 3.250291 1_655
Ba2 S5 3.250291 1_545
Ba2 S8 3.251756 1_655
Ba2 S8 3.251756 1_545
Ba2 S6 3.556051 1_555
Ba2 S9 3.700891 1_555
Ba3 S8 3.200118 1_555
Ba3 S0 3.232358 1_565
Ba3 S0 3.232358 1_455
Ba3 S7 3.253950 1_565
Ba3 S7 3.253950 1_455
Ba3 S9 3.411284 1_465
Ba3 S6 3.456812 1_565
Ba3 S6 3.456812 1_455
In0 S2 2.448407 1_555
In0 S9 2.533356 1_564
In0 S9 2.533356 1_454
In0 S1 2.574323 1_555
In1 S7 2.448407 1_555
In1 S4 2.533356 1_655
In1 S4 2.533356 1_545
In1 S6 2.574323 1_555
Bi0 S5 2.627015 1_555
Bi0 S3 2.808338 1_455
Bi0 S3 2.808338 1_565
Bi0 S6 2.953243 1_565
Bi0 S6 2.953243 1_455
Bi0 S4 3.221017 1_555
Bi1 S0 2.627017 1_555
Bi1 S8 2.808338 1_545
Bi1 S8 2.808338 1_655
Bi1 S1 2.953243 1_546
Bi1 S1 2.953243 1_656
Bi1 S9 3.221017 1_555
