# generated using pymatgen
data_Ta5As4
_symmetry_space_group_name_H-M   'P 1'
_cell_length_a   3.44956624
_cell_length_b   7.16918436
_cell_length_c   7.16918527
_cell_angle_alpha   86.68186061
_cell_angle_beta   76.07905243
_cell_angle_gamma   76.07904993
_symmetry_Int_Tables_number   1
_chemical_formula_structural   Ta5As4
_chemical_formula_sum   'Ta5 As4'
_cell_volume   167.03604349
_cell_formula_units_Z   1
loop_
 _symmetry_equiv_pos_site_id
 _symmetry_equiv_pos_as_xyz
  1  'x, y, z'
loop_
 _atom_site_type_symbol
 _atom_site_label
 _atom_site_symmetry_multiplicity
 _atom_site_fract_x
 _atom_site_fract_y
 _atom_site_fract_z
 _atom_site_occupancy
  Ta  Ta0  1  0.69458293  0.93713064  0.67370150  1
  Ta  Ta1  1  0.36828343  0.32629850  0.93713064  1
  Ta  Ta2  1  0.63171657  0.67370150  0.06286936  1
  Ta  Ta3  1  0.30541707  0.06286936  0.32629850  1
  Ta  Ta4  1  -0.00000000  0.00000000  -0.00000000  1
  As  As0  1  0.94773210  0.76933665  0.33519916  1
  As  As1  1  0.28293126  0.66480084  0.76933665  1
  As  As2  1  0.71706874  0.33519916  0.23066335  1
  As  As3  1  0.05226790  0.23066335  0.66480084  1
loop_
_geom_bond_atom_site_label_1
_geom_bond_atom_site_label_2
_geom_bond_distance
_geom_bond_site_symmetry_2
As0 Ta0 2.629019 1_555
As0 Ta2 2.647433 1_555
As0 Ta2 2.647441 1_655
As0 Ta3 2.674105 1_565
As0 Ta3 2.674110 1_665
As0 Ta4 2.831431 1_665
As1 Ta1 2.629019 1_555
As1 Ta0 2.647435 1_555
As1 Ta0 2.647439 1_455
As1 Ta2 2.674103 1_456
As1 Ta2 2.674112 1_556
As1 Ta4 2.831430 1_566
As2 Ta2 2.629019 1_555
As2 Ta3 2.647435 1_555
As2 Ta3 2.647439 1_655
As2 Ta1 2.674103 1_654
As2 Ta1 2.674112 1_554
As2 Ta4 2.831430 1_655
As3 Ta3 2.629019 1_555
As3 Ta1 2.647433 1_555
As3 Ta1 2.647441 1_455
As3 Ta0 2.674105 1_545
As3 Ta0 2.674110 1_445
As3 Ta4 2.831431 1_556
