# generated using pymatgen
data_Ti6Al16Ni7
_symmetry_space_group_name_H-M   'P 1'
_cell_length_a   8.29211455
_cell_length_b   8.29211240
_cell_length_c   8.29211020
_cell_angle_alpha   60.00126555
_cell_angle_beta   60.00125596
_cell_angle_gamma   60.00122854
_symmetry_Int_Tables_number   1
_chemical_formula_structural   Ti6Al16Ni7
_chemical_formula_sum   'Ti6 Al16 Ni7'
_cell_volume   403.17430725
_cell_formula_units_Z   1
loop_
 _symmetry_equiv_pos_site_id
 _symmetry_equiv_pos_as_xyz
  1  'x, y, z'
loop_
 _atom_site_type_symbol
 _atom_site_label
 _atom_site_symmetry_multiplicity
 _atom_site_fract_x
 _atom_site_fract_y
 _atom_site_fract_z
 _atom_site_occupancy
  Ti  Ti0  1  0.18271068  0.81728969  0.81728957  1
  Ti  Ti1  1  0.81728914  0.18271036  0.18271036  1
  Ti  Ti2  1  0.81728883  0.18271159  0.81728856  1
  Ti  Ti3  1  0.81728572  0.81728604  0.18271421  1
  Ti  Ti4  1  0.18271131  0.81728840  0.18271134  1
  Ti  Ti5  1  0.18271451  0.18271424  0.81728528  1
  Al  Al0  1  0.83708742  0.83708769  0.83708834  1
  Al  Al1  1  0.83708642  0.83708676  0.48874326  1
  Al  Al2  1  0.48874280  0.83708760  0.83708680  1
  Al  Al3  1  0.83708683  0.48874355  0.83708667  1
  Al  Al4  1  0.16291263  0.16291231  0.16291174  1
  Al  Al5  1  0.16291372  0.16291324  0.51125642  1
  Al  Al6  1  0.16291307  0.51125671  0.16291319  1
  Al  Al7  1  0.51125708  0.16291263  0.16291305  1
  Al  Al8  1  0.61903601  0.61903563  0.61903479  1
  Al  Al9  1  0.61903652  0.61903688  0.14289129  1
  Al  Al10  1  0.14289094  0.61903569  0.61903630  1
  Al  Al11  1  0.61903617  0.14289117  0.61903675  1
  Al  Al12  1  0.38096401  0.38096425  0.38096523  1
  Al  Al13  1  0.38096308  0.38096315  0.85710865  1
  Al  Al14  1  0.38096411  0.85710872  0.38096311  1
  Al  Al15  1  0.85710892  0.38096451  0.38096349  1
  Ni  Ni0  1  0.00000008  0.49999980  0.50000006  1
  Ni  Ni1  1  0.50000026  0.00000018  -0.00000027  1
  Ni  Ni2  1  0.50000015  0.00000002  0.49999997  1
  Ni  Ni3  1  0.49999979  0.50000008  -0.00000015  1
  Ni  Ni4  1  -0.00000019  0.50000025  0.00000001  1
  Ni  Ni5  1  0.00000009  -0.00000018  0.50000000  1
  Ni  Ni6  1  0.49999987  0.50000005  0.49999998  1
loop_
_geom_bond_atom_site_label_1
_geom_bond_atom_site_label_2
_geom_bond_distance
_geom_bond_site_symmetry_2
Ti0 Ti4 3.030115 1_556
Ti0 Ti5 3.030140 1_565
Ti0 Ti2 3.030176 1_465
Ti0 Ti3 3.030201 1_456
Ti1 Ti2 3.030114 1_554
Ti1 Ti3 3.030138 1_545
Ti1 Ti4 3.030177 1_645
Ti1 Ti5 3.030205 1_654
Ti2 Ti5 3.030149 1_655
Ti2 Ti3 3.030208 1_546
Ti3 Ti4 3.030149 1_655
Ti4 Ti5 3.030211 1_564
Al0 Ni1 2.394982 1_566
Al0 Ni4 2.394983 1_656
Al0 Ni5 2.394990 1_665
Al0 Ti3 2.711737 1_556
Al0 Ti2 2.711740 1_565
Al0 Ti0 2.711741 1_655
Al1 Ni5 2.394909 1_665
Al1 Ni2 2.394976 1_565
Al1 Ni0 2.394980 1_655
Al1 Ti3 2.711770 1_555
Al1 Ti1 2.711810 1_565
Al1 Ti4 2.711812 1_655
Al2 Ni1 2.394902 1_566
Al2 Ni2 2.394978 1_565
Al2 Ni3 2.394984 1_556
Al2 Ti0 2.711767 1_555
Al2 Ti5 2.711806 1_565
Al2 Ti4 2.711809 1_556
Al3 Ni4 2.394905 1_656
Al3 Ni0 2.394978 1_655
Al3 Ni3 2.394982 1_556
Al3 Ti2 2.711770 1_555
Al3 Ti1 2.711811 1_556
Al3 Ti5 2.711815 1_655
Al4 Ni1 2.394985 1_555
Al4 Ni4 2.394987 1_555
Al4 Ni5 2.394990 1_555
Al4 Ti4 2.711740 1_545
Al4 Ti5 2.711740 1_554
Al4 Ti1 2.711743 1_455
Al5 Ni5 2.394909 1_555
Al5 Ni2 2.394977 1_555
Al5 Ni0 2.394978 1_555
Al5 Ti5 2.711770 1_555
Al5 Ti0 2.711811 1_545
Al5 Ti2 2.711813 1_455
Al6 Ni4 2.394905 1_555
Al6 Ni0 2.394979 1_555
Al6 Ni3 2.394980 1_555
Al6 Ti4 2.711769 1_555
Al6 Ti0 2.711810 1_554
Al6 Ti3 2.711814 1_455
Al7 Ni1 2.394901 1_555
Al7 Ni2 2.394979 1_555
Al7 Ni3 2.394983 1_555
Al7 Ti1 2.711766 1_555
Al7 Ti3 2.711807 1_545
Al7 Ti2 2.711810 1_554
Al8 Ni6 2.417760 1_555
Al8 Ni0 2.581877 1_655
Al8 Ni2 2.581878 1_565
Al8 Ni3 2.581883 1_556
Al8 Ti3 3.049974 1_555
Al8 Ti2 3.050004 1_555
Al8 Ti0 3.050015 1_555
Al9 Ni6 2.417836 1_555
Al9 Ni3 2.581819 1_555
Al9 Ni1 2.581874 1_565
Al9 Ni4 2.581874 1_655
Al9 Ti3 3.049894 1_555
Al9 Ti4 3.049992 1_555
Al9 Ti1 3.050002 1_555
Al10 Ni6 2.417838 1_555
Al10 Ni0 2.581806 1_555
Al10 Ni4 2.581876 1_556
Al10 Ni5 2.581879 1_565
Al10 Ti0 3.049940 1_555
Al10 Ti5 3.049959 1_555
Al10 Ti4 3.049989 1_555
Al11 Ni6 2.417837 1_555
Al11 Ni2 2.581812 1_555
Al11 Ni1 2.581871 1_556
Al11 Ni5 2.581878 1_655
Al11 Ti2 3.049924 1_555
Al11 Ti5 3.049962 1_555
Al11 Ti1 3.050001 1_555
Al12 Ni6 2.417759 1_555
Al12 Ni0 2.581876 1_555
Al12 Ni2 2.581877 1_555
Al12 Ni3 2.581885 1_555
Al12 Ti5 3.049970 1_555
Al12 Ti4 3.050004 1_555
Al12 Ti1 3.050013 1_555
Al13 Ni6 2.417836 1_555
Al13 Ni3 2.581818 1_556
Al13 Ni1 2.581871 1_556
Al13 Ni4 2.581874 1_556
Al13 Ti5 3.049891 1_555
Al13 Ti2 3.049995 1_555
Al13 Ti0 3.050002 1_555
Al14 Ni6 2.417836 1_555
Al14 Ni2 2.581814 1_565
Al14 Ni1 2.581874 1_565
Al14 Ni5 2.581879 1_565
Al14 Ti4 3.049924 1_555
Al14 Ti3 3.049962 1_555
Al14 Ti0 3.050002 1_555
Al15 Ni6 2.417839 1_555
Al15 Ni0 2.581806 1_655
Al15 Ni4 2.581875 1_655
Al15 Ni5 2.581883 1_655
Al15 Ti1 3.049940 1_555
Al15 Ti3 3.049960 1_555
Al15 Ti2 3.049990 1_555
Ni0 Ti5 3.036072 1_555
Ni0 Ti3 3.036076 1_455
Ni0 Ti2 3.036081 1_455
Ni0 Ti4 3.036084 1_555
Ni1 Ti3 3.036045 1_545
Ni1 Ti5 3.036047 1_554
Ni1 Ti2 3.036056 1_554
Ni1 Ti4 3.036060 1_545
Ni2 Ti5 3.036071 1_555
Ni2 Ti3 3.036072 1_545
Ni2 Ti1 3.036084 1_555
Ni2 Ti0 3.036087 1_545
Ni3 Ti4 3.036081 1_555
Ni3 Ti2 3.036082 1_554
Ni3 Ti0 3.036083 1_554
Ni3 Ti1 3.036085 1_555
Ni4 Ti3 3.036045 1_455
Ni4 Ti5 3.036049 1_554
Ni4 Ti0 3.036060 1_554
Ni4 Ti1 3.036062 1_455
Ni5 Ti4 3.036054 1_545
Ni5 Ti2 3.036055 1_455
Ni5 Ti0 3.036058 1_545
Ni5 Ti1 3.036060 1_455
