# generated using pymatgen
data_Sb2S2O
_symmetry_space_group_name_H-M   'P 1'
_cell_length_a   5.97354367
_cell_length_b   5.97354367
_cell_length_c   10.23815555
_cell_angle_alpha   78.89981856
_cell_angle_beta   78.89981856
_cell_angle_gamma   39.65482927
_symmetry_Int_Tables_number   1
_chemical_formula_structural   Sb2S2O
_chemical_formula_sum   'Sb4 S4 O2'
_cell_volume   228.20491369
_cell_formula_units_Z   2
loop_
 _symmetry_equiv_pos_site_id
 _symmetry_equiv_pos_as_xyz
  1  'x, y, z'
loop_
 _atom_site_type_symbol
 _atom_site_label
 _atom_site_symmetry_multiplicity
 _atom_site_fract_x
 _atom_site_fract_y
 _atom_site_fract_z
 _atom_site_occupancy
  Sb  Sb0  1  0.30357716  0.30357716  0.86910182  1
  Sb  Sb1  1  0.69642284  0.69642284  0.13089818  1
  Sb  Sb2  1  0.62124341  0.62124341  0.61651399  1
  Sb  Sb3  1  0.37875659  0.37875659  0.38348601  1
  S  S0  1  0.84194803  0.84194803  0.58368412  1
  S  S1  1  0.15805197  0.15805197  0.41631588  1
  S  S2  1  0.10503069  0.10503069  0.79675987  1
  S  S3  1  0.89496931  0.89496931  0.20324013  1
  O  O0  1  0.76033280  0.76033280  0.93084687  1
  O  O1  1  0.23966720  0.23966720  0.06915313  1
loop_
_geom_bond_atom_site_label_1
_geom_bond_atom_site_label_2
_geom_bond_distance
_geom_bond_site_symmetry_2
S0 Sb2 2.434015 1_555
S0 Sb3 2.851399 1_655
S0 Sb3 2.851399 1_565
S1 Sb3 2.434015 1_555
S1 Sb2 2.851399 1_545
S1 Sb2 2.851399 1_455
S2 Sb0 2.490850 1_555
S2 Sb2 2.721455 1_455
S2 Sb2 2.721455 1_545
S3 Sb1 2.490850 1_555
S3 Sb3 2.721455 1_565
S3 Sb3 2.721455 1_655
O0 Sb1 2.026994 1_556
O0 Sb0 2.148343 1_565
O0 Sb0 2.148343 1_655
O1 Sb0 2.026994 1_554
O1 Sb1 2.148343 1_455
O1 Sb1 2.148343 1_545
