# generated using pymatgen
data_Li7Fe5OF15
_symmetry_space_group_name_H-M   'P 1'
_cell_length_a   9.96243100
_cell_length_b   10.07084860
_cell_length_c   10.37461485
_cell_angle_alpha   107.71409983
_cell_angle_beta   107.58380006
_cell_angle_gamma   110.17436604
_symmetry_Int_Tables_number   1
_chemical_formula_structural   Li7Fe5OF15
_chemical_formula_sum   'Li14 Fe10 O2 F30'
_cell_volume   828.67488752
_cell_formula_units_Z   2
loop_
 _symmetry_equiv_pos_site_id
 _symmetry_equiv_pos_as_xyz
  1  'x, y, z'
loop_
 _atom_site_type_symbol
 _atom_site_label
 _atom_site_symmetry_multiplicity
 _atom_site_fract_x
 _atom_site_fract_y
 _atom_site_fract_z
 _atom_site_occupancy
  Li  Li0  1  0.88767000  0.14621400  0.25004100  1
  Li  Li1  1  0.51516900  0.00675500  0.04631800  1
  Li  Li2  1  0.48765300  0.46424100  0.97641100  1
  Li  Li3  1  0.48250000  0.00513400  0.53309800  1
  Li  Li4  1  0.00781900  0.05819900  0.01466900  1
  Li  Li5  1  0.25705700  0.63256500  0.89313100  1
  Li  Li6  1  0.96850300  0.98329000  0.47007400  1
  Li  Li7  1  0.64509700  0.39188700  0.74899300  1
  Li  Li8  1  0.98109000  0.52797200  0.98038000  1
  Li  Li9  1  0.73969400  0.85836900  0.61262400  1
  Li  Li10  1  0.04565200  0.48698900  0.48240700  1
  Li  Li11  1  0.37329200  0.25052900  0.10731500  1
  Li  Li12  1  0.13555700  0.74928700  0.38692100  1
  Li  Li13  1  0.54027700  0.49126500  0.51136800  1
  Fe  Fe0  1  0.24407600  0.37085500  0.64340300  1
  Fe  Fe1  1  0.64126600  0.26690100  0.35695000  1
  Fe  Fe2  1  0.09144600  0.23321000  0.83348700  1
  Fe  Fe3  1  0.73411000  0.10859400  0.85529700  1
  Fe  Fe4  1  0.63107000  0.92353600  0.27342100  1
  Fe  Fe5  1  0.34273100  0.13838500  0.73020000  1
  Fe  Fe6  1  0.23825900  0.87241300  0.13038500  1
  Fe  Fe7  1  0.38562300  0.74164000  0.64632800  1
  Fe  Fe8  1  0.88226000  0.75534200  0.13995400  1
  Fe  Fe9  1  0.74618200  0.61918400  0.36585500  1
  O  O0  1  0.69051000  0.11680400  0.25469500  1
  O  O1  1  0.14434800  0.16066500  0.66192800  1
  F  F0  1  0.06160100  0.29880400  0.44557000  1
  F  F1  1  0.37794800  0.07275600  0.12405300  1
  F  F2  1  0.43412000  0.93830900  0.32905000  1
  F  F3  1  0.89251300  0.01974900  0.80110600  1
  F  F4  1  0.28325100  0.46079200  0.90117800  1
  F  F5  1  0.21623700  0.59195500  0.69466800  1
  F  F6  1  0.17710200  0.23726100  0.03947400  1
  F  F7  1  0.66497500  0.62552700  0.16158400  1
  F  F8  1  0.58927300  0.18278600  0.74283700  1
  F  F9  1  0.85843500  0.12296400  0.05326400  1
  F  F10  1  0.92962600  0.31098400  0.87323200  1
  F  F11  1  0.50712500  0.94764000  0.84775200  1
  F  F12  1  0.59760100  0.33547900  0.54025000  1
  F  F13  1  0.86670700  0.94783100  0.25705200  1
  F  F14  1  0.43867000  0.80720800  0.05805900  1
  F  F15  1  0.10554300  0.67204200  0.93196000  1
  F  F16  1  0.74287500  0.87941800  0.44020700  1
  F  F17  1  0.79654800  0.55782100  0.94787100  1
  F  F18  1  0.42367400  0.54565900  0.61030600  1
  F  F19  1  0.46125800  0.38433700  0.77093000  1
  F  F20  1  0.08553200  0.70818200  0.18762300  1
  F  F21  1  0.04587700  0.92138200  0.09771400  1
  F  F22  1  0.19618600  0.61650500  0.44027000  1
  F  F23  1  0.44603400  0.25874600  0.96262100  1
  F  F24  1  0.57014200  0.89282800  0.61686900  1
  F  F25  1  0.29663900  0.93855300  0.56456400  1
  F  F26  1  0.84137000  0.47270900  0.40131400  1
  F  F27  1  0.52743900  0.41077800  0.30438600  1
  F  F28  1  0.96028400  0.77971900  0.38529200  1
  F  F29  1  0.73362100  0.66816600  0.56328800  1
loop_
_geom_bond_atom_site_label_1
_geom_bond_atom_site_label_2
_geom_bond_distance
_geom_bond_site_symmetry_2
Li0 O0 1.900747 1_555
Li1 O0 1.969309 1_555
Li6 O1 1.947486 1_665
Fe0 O1 2.101704 1_555
Fe1 O0 1.871139 1_555
Fe2 O1 2.005111 1_555
Fe4 O0 1.918695 1_565
Fe5 O1 2.003718 1_555
F0 Li10 1.888560 1_555
F0 Li0 1.903038 1_455
F0 Fe0 1.993312 1_555
F1 Li11 1.865254 1_555
F1 Li1 1.981847 1_555
F1 Fe6 2.052066 1_545
F1 Fe1 2.510027 1_555
F2 Li3 1.859946 1_565
F2 Fe6 2.083361 1_555
F2 Fe4 2.244625 1_555
F3 Li9 1.828544 1_545
F3 Li4 2.002963 1_656
F3 Fe3 2.193363 1_555
F3 Fe2 2.209421 1_655
F4 Li5 1.858418 1_555
F4 Li2 1.931708 1_555
F4 Fe2 2.141594 1_555
F4 Fe0 2.403371 1_555
F5 Li5 1.854446 1_555
F5 Li10 1.984452 1_555
F5 Fe7 2.142041 1_555
F5 Fe0 2.261027 1_555
F6 Li11 1.806896 1_555
F6 Li4 1.876164 1_555
F6 Fe2 2.029255 1_554
F7 Li2 1.876457 1_554
F7 Fe9 2.057150 1_555
F7 Fe8 2.228317 1_555
F8 Li7 1.958767 1_555
F8 Li3 1.996746 1_555
F8 Fe3 2.063621 1_555
F8 Fe5 2.293919 1_555
F9 Li0 1.900038 1_555
F9 Li4 1.916041 1_655
F9 Fe3 1.982864 1_554
F10 Li8 1.917944 1_555
F10 Fe2 2.111514 1_655
F10 Fe3 2.189713 1_555
F11 Li1 1.930198 1_566
F11 Fe7 2.058489 1_555
F11 Fe3 2.243818 1_565
F12 Li13 1.917825 1_555
F12 Li7 1.919209 1_555
F12 Fe1 2.047040 1_555
F13 Li0 1.962209 1_565
F13 Li6 1.988960 1_555
F13 Fe8 2.036063 1_555
F13 Fe4 2.338701 1_555
F14 Li5 1.843344 1_554
F14 Li1 1.944950 1_565
F14 Fe4 2.075875 1_555
F14 Fe6 2.547597 1_555
F15 Li5 1.811802 1_555
F15 Li8 1.863798 1_455
F15 Fe6 2.011263 1_556
F16 Li9 1.872422 1_555
F16 Li6 2.000740 1_555
F16 Fe4 2.019119 1_555
F16 Fe9 2.511827 1_555
F17 Li7 1.899460 1_555
F17 Li8 1.911125 1_555
F17 Fe8 2.011285 1_556
F18 Li13 1.876241 1_555
F18 Fe7 2.081261 1_555
F18 Fe0 2.232665 1_555
F19 Li7 1.891621 1_555
F19 Li2 1.932004 1_555
F19 Fe0 2.099706 1_555
F19 Fe5 2.179984 1_555
F20 Li12 1.846378 1_555
F20 Li8 1.992590 1_454
F20 Fe8 2.184569 1_455
F20 Fe6 2.193401 1_555
F21 Li4 1.915703 1_565
F21 Fe6 2.095849 1_555
F21 Fe8 2.154673 1_455
F22 Li12 1.806893 1_555
F22 Li10 1.880244 1_555
F22 Fe7 2.000593 1_555
F23 Li11 1.864663 1_556
F23 Li2 1.915039 1_555
F23 Fe5 2.050426 1_555
F24 Li9 1.848127 1_555
F24 Li3 1.902025 1_565
F24 Fe7 2.117296 1_555
F24 Fe3 2.312617 1_565
F25 Li12 1.889571 1_555
F25 Li3 1.904400 1_565
F25 Fe5 1.998803 1_565
F26 Li10 1.886874 1_655
F26 Fe9 2.072424 1_555
F26 Fe1 2.120612 1_555
F27 Li11 1.878439 1_555
F27 Li13 1.996967 1_555
F27 Fe9 2.179851 1_555
F27 Fe1 2.218868 1_555
F28 Li12 1.870209 1_655
F28 Li6 1.930483 1_555
F28 Fe9 2.089784 1_555
F28 Fe8 2.331458 1_555
F29 Li9 1.799869 1_555
F29 Li13 1.896418 1_555
F29 Fe9 2.009247 1_555
