# generated using pymatgen
data_BaNa2Mg(PO4)2
_symmetry_space_group_name_H-M   'P 1'
_cell_length_a   5.37288037
_cell_length_b   5.37288037
_cell_length_c   7.04243400
_cell_angle_alpha   90.00000000
_cell_angle_beta   90.00000000
_cell_angle_gamma   120.00000457
_symmetry_Int_Tables_number   1
_chemical_formula_structural   BaNa2Mg(PO4)2
_chemical_formula_sum   'Ba1 Na2 Mg1 P2 O8'
_cell_volume   176.06285468
_cell_formula_units_Z   1
loop_
 _symmetry_equiv_pos_site_id
 _symmetry_equiv_pos_as_xyz
  1  'x, y, z'
loop_
 _atom_site_type_symbol
 _atom_site_label
 _atom_site_symmetry_multiplicity
 _atom_site_fract_x
 _atom_site_fract_y
 _atom_site_fract_z
 _atom_site_occupancy
  Ba  Ba0  1  0.00000000  0.00000000  0.50000000  1
  Na  Na0  1  0.66666700  0.33333300  0.17856200  1
  Na  Na1  1  0.33333300  0.66666700  0.82143800  1
  Mg  Mg0  1  0.00000000  0.00000000  0.00000000  1
  P  P0  1  0.33333300  0.66666700  0.25739900  1
  P  P1  1  0.66666700  0.33333300  0.74260100  1
  O  O0  1  0.64218500  0.77100900  0.17883700  1
  O  O1  1  0.22899100  0.87117500  0.17883700  1
  O  O2  1  0.12882500  0.35781500  0.17883700  1
  O  O3  1  0.33333300  0.66666700  0.47556600  1
  O  O4  1  0.66666700  0.33333300  0.52443400  1
  O  O5  1  0.87117500  0.64218500  0.82116300  1
  O  O6  1  0.77100900  0.12882500  0.82116300  1
  O  O7  1  0.35781500  0.22899100  0.82116300  1
loop_
_geom_bond_atom_site_label_1
_geom_bond_atom_site_label_2
_geom_bond_distance
_geom_bond_site_symmetry_2
Ba0 O5 2.821348 1_445
Ba0 O2 2.821348 1_555
Ba0 O7 2.821348 1_555
Ba0 O0 2.821348 1_445
Ba0 O1 2.821351 1_545
Ba0 O6 2.821351 1_455
Ba0 O4 3.106800 1_455
Ba0 O3 3.106800 1_545
Ba0 O3 3.106804 1_555
Ba0 O4 3.106804 1_445
Ba0 O3 3.106804 1_445
Ba0 O4 3.106804 1_555
Na0 O1 2.420033 1_545
Na0 O2 2.420034 1_655
Na0 O0 2.420034 1_555
Na0 O4 2.435781 1_555
Na1 O6 2.420033 1_565
Na1 O5 2.420034 1_455
Na1 O7 2.420034 1_555
Na1 O3 2.435781 1_555
Mg0 O5 2.104902 1_444
Mg0 O2 2.104902 1_555
Mg0 O7 2.104903 1_554
Mg0 O0 2.104903 1_445
Mg0 O1 2.104906 1_545
Mg0 O6 2.104906 1_454
O0 P0 1.563261 1_555
O1 P0 1.563252 1_555
O2 P0 1.563259 1_555
O3 P0 1.536427 1_555
O4 P1 1.536427 1_555
O5 P1 1.563259 1_555
O6 P1 1.563252 1_555
O7 P1 1.563261 1_555
