# generated using pymatgen
data_NaAlPO4F
_symmetry_space_group_name_H-M   'P 1'
_cell_length_a   5.27894023
_cell_length_b   5.27894023
_cell_length_c   6.99412691
_cell_angle_alpha   74.49398091
_cell_angle_beta   74.49398091
_cell_angle_gamma   103.87802991
_symmetry_Int_Tables_number   1
_chemical_formula_structural   NaAlPO4F
_chemical_formula_sum   'Na2 Al2 P2 O8 F2'
_cell_volume   170.50090728
_cell_formula_units_Z   2
loop_
 _symmetry_equiv_pos_site_id
 _symmetry_equiv_pos_as_xyz
  1  'x, y, z'
loop_
 _atom_site_type_symbol
 _atom_site_label
 _atom_site_symmetry_multiplicity
 _atom_site_fract_x
 _atom_site_fract_y
 _atom_site_fract_z
 _atom_site_occupancy
  Na  Na0  1  0.33196400  0.66803600  0.25000000  1
  Na  Na1  1  0.66803600  0.33196400  0.75000000  1
  Al  Al0  1  0.00000000  0.00000000  0.00000000  1
  Al  Al1  1  0.00000000  0.00000000  0.50000000  1
  P  P0  1  0.68302000  0.31698000  0.25000000  1
  P  P1  1  0.31698000  0.68302000  0.75000000  1
  O  O0  1  0.11730700  0.69827300  0.62108800  1
  O  O1  1  0.30172700  0.88269300  0.87891200  1
  O  O2  1  0.62182000  0.76187500  0.60043400  1
  O  O3  1  0.23812500  0.37818000  0.89956600  1
  O  O4  1  0.37818000  0.23812500  0.39956600  1
  O  O5  1  0.76187500  0.62182000  0.10043400  1
  O  O6  1  0.88269300  0.30172700  0.37891200  1
  O  O7  1  0.69827300  0.11730700  0.12108800  1
  F  F0  1  0.93046800  0.06953200  0.75000000  1
  F  F1  1  0.06953200  0.93046800  0.25000000  1
loop_
_geom_bond_atom_site_label_1
_geom_bond_atom_site_label_2
_geom_bond_distance
_geom_bond_site_symmetry_2
Na0 O5 2.331745 1_555
Na0 O4 2.331745 1_555
Na0 O7 2.429294 1_565
Na0 O6 2.429294 1_455
Na0 O0 2.604147 1_555
Na0 O1 2.604147 1_554
Na1 O2 2.331745 1_555
Na1 O3 2.331745 1_555
Na1 O0 2.429294 1_655
Na1 O1 2.429294 1_545
Na1 O7 2.604147 1_556
Na1 O6 2.604147 1_555
Al0 F0 1.841590 1_454
Al0 F1 1.841590 1_545
Al0 O3 1.906140 1_554
Al0 O5 1.906140 1_445
Al0 O1 1.915739 1_544
Al0 O7 1.915739 1_455
Al1 F1 1.841590 1_545
Al1 F0 1.841590 1_455
Al1 O4 1.906140 1_555
Al1 O2 1.906140 1_445
Al1 O6 1.915739 1_455
Al1 O0 1.915739 1_545
O0 P1 1.562210 1_555
O1 P1 1.562210 1_555
O2 P1 1.550145 1_555
O3 P1 1.550145 1_555
O4 P0 1.550145 1_555
O5 P0 1.550145 1_555
O6 P0 1.562210 1_555
O7 P0 1.562210 1_555
F0 Na1 2.181545 1_555
F1 Na0 2.181545 1_555
