# generated using pymatgen
data_FeSb(PO4)2
_symmetry_space_group_name_H-M   'P 1'
_cell_length_a   8.10121786
_cell_length_b   8.07817970
_cell_length_c   10.22562361
_cell_angle_alpha   85.60440435
_cell_angle_beta   85.36130613
_cell_angle_gamma   105.73658086
_symmetry_Int_Tables_number   1
_chemical_formula_structural   FeSb(PO4)2
_chemical_formula_sum   'Fe4 Sb4 P8 O32'
_cell_volume   638.60626545
_cell_formula_units_Z   4
loop_
 _symmetry_equiv_pos_site_id
 _symmetry_equiv_pos_as_xyz
  1  'x, y, z'
loop_
 _atom_site_type_symbol
 _atom_site_label
 _atom_site_symmetry_multiplicity
 _atom_site_fract_x
 _atom_site_fract_y
 _atom_site_fract_z
 _atom_site_occupancy
  Fe  Fe0  1  0.08191000  0.32969500  0.21994500  1
  Fe  Fe1  1  0.91811100  0.67045000  0.78011500  1
  Fe  Fe2  1  0.58198200  0.82963100  0.21988700  1
  Fe  Fe3  1  0.41795700  0.17046900  0.78014700  1
  Sb  Sb0  1  0.57598000  0.32409400  0.29866100  1
  Sb  Sb1  1  0.07600600  0.82413600  0.29870400  1
  Sb  Sb2  1  0.42398900  0.67596800  0.70133200  1
  Sb  Sb3  1  0.92395300  0.17594400  0.70126300  1
  P  P0  1  0.32808400  0.07816000  0.10381200  1
  P  P1  1  0.82813300  0.57822400  0.10379200  1
  P  P2  1  0.67191800  0.92180200  0.89617900  1
  P  P3  1  0.17182800  0.42173600  0.89620300  1
  P  P4  1  0.77490100  0.02544500  0.39509600  1
  P  P5  1  0.27496200  0.52547300  0.39509900  1
  P  P6  1  0.22513200  0.97456600  0.60489300  1
  P  P7  1  0.72506900  0.47454100  0.60491000  1
  O  O0  1  0.67719300  0.92875400  0.04458900  1
  O  O1  1  0.17700400  0.42861100  0.04462400  1
  O  O2  1  0.32281100  0.07122800  0.95540500  1
  O  O3  1  0.82295700  0.57133900  0.95537700  1
  O  O4  1  0.48140600  0.23088300  0.12786500  1
  O  O5  1  0.98145600  0.73089900  0.12791200  1
  O  O6  1  0.51857200  0.76908300  0.87214000  1
  O  O7  1  0.01849900  0.26905800  0.87207500  1
  O  O8  1  0.43428400  0.68432900  0.36328500  1
  O  O9  1  0.93422700  0.18431800  0.36339200  1
  O  O10  1  0.56575100  0.31570300  0.63670000  1
  O  O11  1  0.06580400  0.81568800  0.63659600  1
  O  O12  1  0.26929800  0.01721200  0.45839000  1
  O  O13  1  0.76913800  0.51711200  0.45839100  1
  O  O14  1  0.73072000  0.98276900  0.54160000  1
  O  O15  1  0.23090400  0.48288800  0.54162000  1
  O  O16  1  0.15138600  0.09158700  0.17277600  1
  O  O17  1  0.65140900  0.59167200  0.17268800  1
  O  O18  1  0.33914300  0.90089800  0.17385200  1
  O  O19  1  0.83910700  0.40093300  0.17385500  1
  O  O20  1  0.66089500  0.09905700  0.82611400  1
  O  O21  1  0.16088600  0.59903100  0.82614100  1
  O  O22  1  0.84859800  0.90833600  0.82722900  1
  O  O23  1  0.34854700  0.40826600  0.82732100  1
  O  O24  1  0.80346000  0.87120000  0.31731500  1
  O  O25  1  0.30341800  0.37117000  0.31734200  1
  O  O26  1  0.62214000  0.05551700  0.31666900  1
  O  O27  1  0.12211700  0.55549400  0.31675400  1
  O  O28  1  0.19656900  0.12881600  0.68267000  1
  O  O29  1  0.69660700  0.62884400  0.68266400  1
  O  O30  1  0.37788400  0.94448300  0.68333600  1
  O  O31  1  0.87789100  0.44448800  0.68327400  1
loop_
_geom_bond_atom_site_label_1
_geom_bond_atom_site_label_2
_geom_bond_distance
_geom_bond_site_symmetry_2
Fe0 O9 1.911057 1_455
Fe0 O1 1.915493 1_555
Fe0 O25 2.082890 1_555
Fe0 O27 2.102347 1_555
Fe0 O16 2.221429 1_555
Fe0 O19 2.268206 1_455
Fe1 O11 1.911149 1_655
Fe1 O3 1.915444 1_555
Fe1 O29 2.083133 1_555
Fe1 O31 2.103657 1_555
Fe1 O22 2.219717 1_555
Fe1 O21 2.268513 1_655
Fe2 O8 1.910536 1_555
Fe2 O0 1.915886 1_555
Fe2 O24 2.082832 1_555
Fe2 O26 2.102817 1_565
Fe2 O17 2.220178 1_555
Fe2 O18 2.268449 1_555
Fe3 O10 1.910969 1_555
Fe3 O2 1.915644 1_555
Fe3 O28 2.082464 1_555
Fe3 O30 2.103706 1_545
Fe3 O23 2.218801 1_555
Fe3 O20 2.269589 1_555
O0 P2 1.526531 1_554
O1 P3 1.526499 1_554
O2 P0 1.526481 1_556
O3 P1 1.526446 1_556
O4 P0 1.545987 1_555
O4 Sb0 2.075887 1_555
O5 P1 1.545957 1_555
O5 Sb1 2.075853 1_655
O6 P2 1.546043 1_555
O6 Sb2 2.075769 1_555
O7 P3 1.546024 1_555
O7 Sb3 2.075701 1_455
O8 P5 1.545373 1_555
O9 P4 1.545384 1_555
O10 P7 1.545249 1_555
O11 P6 1.545417 1_555
O12 P6 1.502761 1_545
O12 Sb1 2.651453 1_545
O13 P7 1.502790 1_555
O13 Sb0 2.651028 1_555
O14 P4 1.502804 1_565
O14 Sb3 2.651437 1_565
O15 P5 1.502811 1_555
O15 Sb2 2.650851 1_555
O16 P0 1.578241 1_555
O16 Sb1 2.330151 1_545
O17 P1 1.578224 1_555
O17 Sb0 2.331184 1_555
O18 P0 1.579313 1_565
O18 Sb1 2.297859 1_555
O19 P1 1.579379 1_555
O19 Sb0 2.297562 1_555
O20 P2 1.579263 1_545
O20 Sb3 2.297312 1_555
O21 P3 1.579315 1_555
O21 Sb2 2.297400 1_555
O22 P2 1.578167 1_555
O22 Sb3 2.331369 1_565
O23 P3 1.578196 1_555
O23 Sb2 2.332071 1_555
O24 P4 1.586571 1_565
O24 Sb1 2.335443 1_655
O25 P5 1.586575 1_555
O25 Sb0 2.335624 1_555
O26 P4 1.589789 1_555
O26 Sb0 2.295857 1_555
O27 P5 1.589775 1_555
O27 Sb1 2.296213 1_555
O28 P6 1.586594 1_545
O28 Sb3 2.336217 1_455
O29 P7 1.586574 1_555
O29 Sb2 2.336233 1_555
O30 P6 1.589846 1_555
O30 Sb2 2.295172 1_555
O31 P7 1.589806 1_555
O31 Sb3 2.295253 1_555
