# generated using pymatgen
data_Pm2CuIr
_symmetry_space_group_name_H-M   'P 1'
_cell_length_a   4.97445287
_cell_length_b   4.97110091
_cell_length_c   4.96853494
_cell_angle_alpha   60.01139144
_cell_angle_beta   60.03204063
_cell_angle_gamma   60.05791080
_symmetry_Int_Tables_number   1
_chemical_formula_structural   Pm2CuIr
_chemical_formula_sum   'Pm2 Cu1 Ir1'
_cell_volume   86.94478423
_cell_formula_units_Z   1
loop_
 _symmetry_equiv_pos_site_id
 _symmetry_equiv_pos_as_xyz
  1  'x, y, z'
loop_
 _atom_site_type_symbol
 _atom_site_label
 _atom_site_symmetry_multiplicity
 _atom_site_fract_x
 _atom_site_fract_y
 _atom_site_fract_z
 _atom_site_occupancy
  Pm  Pm0  1  0.99989919  0.00002281  0.00005450  1
  Pm  Pm1  1  0.50010082  0.49997711  0.49994541  1
  Cu  Cu0  1  0.25000000  0.25000002  0.25000002  1
  Ir  Ir0  1  0.74999999  0.74999906  0.74999906  1
loop_
_geom_bond_atom_site_label_1
_geom_bond_atom_site_label_2
_geom_bond_distance
_geom_bond_site_symmetry_2
Cu0 Pm0 3.043371 1_456
Cu0 Pm1 3.043371 1_554
Cu0 Pm1 3.043643 1_555
Cu0 Pm0 3.043644 1_455
Cu0 Pm0 3.045608 1_465
Cu0 Pm1 3.045608 1_545
Cu0 Pm1 3.047790 1_455
Cu0 Pm0 3.047790 1_555
Ir0 Pm0 3.042924 1_565
Ir0 Pm1 3.042932 1_556
Ir0 Pm1 3.043445 1_555
Ir0 Pm0 3.043460 1_566
Ir0 Pm0 3.045418 1_556
Ir0 Pm1 3.045425 1_565
Ir0 Pm0 3.048610 1_466
Ir0 Pm1 3.048610 1_655
