# generated using pymatgen
data_Li2Mn3(BO3)3
_symmetry_space_group_name_H-M   'P 1'
_cell_length_a   6.34438800
_cell_length_b   8.85077894
_cell_length_c   14.26943679
_cell_angle_alpha   89.06306758
_cell_angle_beta   88.81226347
_cell_angle_gamma   69.72694921
_symmetry_Int_Tables_number   1
_chemical_formula_structural   Li2Mn3(BO3)3
_chemical_formula_sum   'Li8 Mn12 B12 O36'
_cell_volume   751.43410176
_cell_formula_units_Z   4
loop_
 _symmetry_equiv_pos_site_id
 _symmetry_equiv_pos_as_xyz
  1  'x, y, z'
loop_
 _atom_site_type_symbol
 _atom_site_label
 _atom_site_symmetry_multiplicity
 _atom_site_fract_x
 _atom_site_fract_y
 _atom_site_fract_z
 _atom_site_occupancy
  Li  Li0  1  0.82389000  0.86751800  0.14641600  1
  Li  Li1  1  0.85881200  0.79066800  0.49170900  1
  Li  Li2  1  0.83728900  0.84028100  0.85998700  1
  Li  Li3  1  0.30555900  0.87100400  0.15272400  1
  Li  Li4  1  0.57526600  0.34350500  0.36128900  1
  Li  Li5  1  0.56242500  0.37424500  0.65113200  1
  Li  Li6  1  0.06592500  0.36892200  0.64943600  1
  Li  Li7  1  0.09486100  0.28448400  0.99086800  1
  Mn  Mn0  1  0.92347000  0.13775400  0.50098600  1
  Mn  Mn1  1  0.66811500  0.67515800  0.32030100  1
  Mn  Mn2  1  0.90857700  0.17602700  0.81056600  1
  Mn  Mn3  1  0.89411900  0.20830000  0.18637300  1
  Mn  Mn4  1  0.69143100  0.62616200  0.00157100  1
  Mn  Mn5  1  0.66079000  0.69646000  0.67878700  1
  Mn  Mn6  1  0.16673000  0.69683400  0.67662900  1
  Mn  Mn7  1  0.19572100  0.63340300  0.99821700  1
  Mn  Mn8  1  0.40439600  0.19263000  0.16907900  1
  Mn  Mn9  1  0.41090700  0.16148000  0.82600700  1
  Mn  Mn10  1  0.16764400  0.66886300  0.31975200  1
  Mn  Mn11  1  0.41893900  0.13014300  0.50050000  1
  B  B0  1  0.75572400  0.99982600  0.33094500  1
  B  B1  1  0.98566900  0.50716300  0.16344000  1
  B  B2  1  0.00122400  0.49857000  0.83195900  1
  B  B3  1  0.50325200  0.98712200  0.00627300  1
  B  B4  1  0.75282600  0.49899900  0.50312300  1
  B  B5  1  0.50722900  0.50032600  0.17042600  1
  B  B6  1  0.51925800  0.49331800  0.83138300  1
  B  B7  1  0.23554700  0.00115100  0.32707300  1
  B  B8  1  0.75382700  0.00395000  0.66488800  1
  B  B9  1  0.99364500  0.00406300  0.99948800  1
  B  B10  1  0.25134700  0.49618300  0.50336500  1
  B  B11  1  0.23830800  0.01053200  0.66958400  1
  O  O0  1  0.83513600  0.85242500  0.28839900  1
  O  O1  1  0.93426400  0.63852600  0.77896300  1
  O  O2  1  0.99144700  0.52963700  0.25686700  1
  O  O3  1  0.91199000  0.63811900  0.10109200  1
  O  O4  1  0.84136900  0.85149000  0.62634100  1
  O  O5  1  0.00652900  0.50452200  0.92909000  1
  O  O6  1  0.58877900  0.85182500  0.95059900  1
  O  O7  1  0.69676100  0.64741600  0.46061000  1
  O  O8  1  0.93638900  0.14761600  0.94939600  1
  O  O9  1  0.76665900  0.48537300  0.60061700  1
  O  O10  1  0.51638500  0.97195300  0.10370400  1
  O  O11  1  0.79437200  0.36205000  0.45025900  1
  O  O12  1  0.60273800  0.34457100  0.13282800  1
  O  O13  1  0.69193300  0.14244500  0.27633900  1
  O  O14  1  0.45024200  0.60710700  0.76272200  1
  O  O15  1  0.42663900  0.63102100  0.10980900  1
  O  O16  1  0.34489500  0.85816800  0.63762400  1
  O  O17  1  0.33092800  0.84549200  0.29521900  1
  O  O18  1  0.59625000  0.33123000  0.80290600  1
  O  O19  1  0.51107800  0.53009600  0.92516900  1
  O  O20  1  0.49868400  0.51817300  0.26645300  1
  O  O21  1  0.74442800  0.02008600  0.76289800  1
  O  O22  1  0.67786700  0.13973800  0.60781100  1
  O  O23  1  0.73275200  0.01267700  0.42736000  1
  O  O24  1  0.33556200  0.35779900  0.45102900  1
  O  O25  1  0.00027500  0.00508200  0.09827300  1
  O  O26  1  0.25806400  0.48487900  0.60122600  1
  O  O27  1  0.16157600  0.64452900  0.46056900  1
  O  O28  1  0.40428900  0.13774600  0.96721200  1
  O  O29  1  0.04236600  0.86050900  0.95368300  1
  O  O30  1  0.21052200  0.03801600  0.42051100  1
  O  O31  1  0.16572600  0.14166100  0.60851800  1
  O  O32  1  0.06802500  0.34768700  0.78942700  1
  O  O33  1  0.16837100  0.12515300  0.25933300  1
  O  O34  1  0.05422900  0.34973200  0.12569000  1
  O  O35  1  0.20336100  0.03321800  0.76713100  1
loop_
_geom_bond_atom_site_label_1
_geom_bond_atom_site_label_2
_geom_bond_distance
_geom_bond_site_symmetry_2
Li0 O10 1.952737 1_555
Li0 O25 2.022774 1_665
Li0 O3 2.023506 1_555
Li0 O0 2.029340 1_555
Li1 O7 1.949910 1_555
Li1 O27 1.954939 1_655
Li1 O4 1.994110 1_555
Li1 O23 2.055774 1_565
Li2 O29 1.937470 1_655
Li2 O6 1.994047 1_555
Li2 O21 2.027571 1_565
Li2 O1 2.044656 1_555
Li3 O10 1.961022 1_555
Li3 O17 2.045645 1_555
Li3 O25 2.050059 1_565
Li3 O15 2.090205 1_555
Li4 O24 1.939015 1_555
Li4 O11 1.951706 1_555
Li4 O20 1.973738 1_555
Li4 O13 2.074749 1_555
Li5 O26 1.979532 1_555
Li5 O9 1.996799 1_555
Li5 O22 2.048481 1_555
Li5 O18 2.194782 1_555
Li5 O14 2.516672 1_555
Li6 O26 1.954906 1_555
Li6 O9 1.956457 1_455
Li6 O31 1.981968 1_555
Li6 O32 2.003239 1_555
Li7 O8 1.928897 1_455
Li7 O28 1.968396 1_555
Li7 O34 2.003422 1_556
Li7 O5 2.022859 1_555
Mn0 O11 1.996646 1_555
Mn0 O30 2.060814 1_655
Mn0 O22 2.152982 1_555
Mn0 O23 2.193705 1_555
Mn0 O31 2.203235 1_655
Mn1 O7 2.017406 1_555
Mn1 O17 2.180923 1_555
Mn1 O20 2.186462 1_555
Mn1 O2 2.194638 1_555
Mn1 O0 2.213695 1_555
Mn2 O35 1.954202 1_655
Mn2 O18 1.985732 1_555
Mn2 O8 1.996568 1_555
Mn2 O32 2.111900 1_655
Mn2 O21 2.123284 1_555
Mn3 O33 1.953360 1_655
Mn3 O12 1.984746 1_555
Mn3 O13 2.014600 1_555
Mn3 O34 2.039088 1_655
Mn3 O25 2.113875 1_655
Mn4 O19 1.994242 1_554
Mn4 O6 2.003263 1_554
Mn4 O3 2.043502 1_555
Mn4 O5 2.164351 1_654
Mn4 O15 2.248124 1_555
Mn5 O9 2.086461 1_555
Mn5 O16 2.107993 1_555
Mn5 O14 2.116380 1_555
Mn5 O4 2.185320 1_555
Mn5 O1 2.186071 1_555
Mn6 O26 2.073539 1_555
Mn6 O14 2.108328 1_555
Mn6 O16 2.166312 1_555
Mn6 O4 2.172741 1_455
Mn6 O1 2.233244 1_455
Mn7 O29 2.004845 1_555
Mn7 O19 2.145342 1_555
Mn7 O5 2.179365 1_555
Mn7 O15 2.180957 1_556
Mn7 O3 2.288540 1_456
Mn8 O10 2.064056 1_545
Mn8 O33 2.184546 1_555
Mn8 O12 2.186890 1_555
Mn8 O34 2.267248 1_555
Mn8 O13 2.323729 1_555
Mn9 O28 2.023497 1_555
Mn9 O35 2.200297 1_555
Mn9 O18 2.222760 1_555
Mn9 O21 2.230979 1_555
Mn9 O32 2.292449 1_555
Mn10 O27 2.018380 1_555
Mn10 O2 2.146071 1_455
Mn10 O17 2.174624 1_555
Mn10 O20 2.189537 1_555
Mn10 O0 2.220404 1_455
Mn11 O24 2.017037 1_555
Mn11 O30 2.134538 1_555
Mn11 O23 2.156140 1_555
Mn11 O31 2.180814 1_555
Mn11 O22 2.292553 1_555
B0 O0 1.371918 1_555
B0 O23 1.382855 1_565
B0 O13 1.411098 1_565
B1 O2 1.354235 1_555
B1 O3 1.400537 1_555
B1 O34 1.419760 1_655
B2 O1 1.380138 1_455
B2 O5 1.389413 1_555
B2 O32 1.398200 1_555
B3 O28 1.375608 1_564
B3 O6 1.386537 1_554
B3 O10 1.395997 1_555
B4 O7 1.370831 1_555
B4 O11 1.381289 1_555
B4 O9 1.396381 1_555
B5 O20 1.379690 1_555
B5 O15 1.386875 1_555
B5 O12 1.409699 1_555
B6 O14 1.358623 1_555
B6 O19 1.378147 1_555
B6 O18 1.409621 1_555
B7 O30 1.370741 1_555
B7 O17 1.379201 1_545
B7 O33 1.406681 1_555
B8 O22 1.386677 1_555
B8 O4 1.387126 1_545
B8 O21 1.406080 1_555
B9 O29 1.372483 1_645
B9 O8 1.385066 1_555
B9 O25 1.411374 1_656
B10 O27 1.375207 1_555
B10 O24 1.379570 1_555
B10 O26 1.398843 1_555
B11 O16 1.363527 1_545
B11 O31 1.389794 1_555
B11 O35 1.411548 1_555
