# generated using pymatgen
data_Na4Ni2C4SO16
_symmetry_space_group_name_H-M   'P 1'
_cell_length_a   9.93315164
_cell_length_b   9.90239257
_cell_length_c   9.81714355
_cell_angle_alpha   60.49118440
_cell_angle_beta   60.17920290
_cell_angle_gamma   59.32961270
_symmetry_Int_Tables_number   1
_chemical_formula_structural   Na4Ni2C4SO16
_chemical_formula_sum   'Na8 Ni4 C8 S2 O32'
_cell_volume   682.65642546
_cell_formula_units_Z   2
loop_
 _symmetry_equiv_pos_site_id
 _symmetry_equiv_pos_as_xyz
  1  'x, y, z'
loop_
 _atom_site_type_symbol
 _atom_site_label
 _atom_site_symmetry_multiplicity
 _atom_site_fract_x
 _atom_site_fract_y
 _atom_site_fract_z
 _atom_site_occupancy
  Na  Na0  1  0.28884500  0.71115500  0.71115500  1
  Na  Na1  1  0.71003300  0.28996700  0.71003300  1
  Na  Na2  1  0.96003300  0.53996700  0.96003300  1
  Na  Na3  1  0.53884500  0.96115500  0.96115500  1
  Na  Na4  1  0.71115500  0.28884500  0.28884500  1
  Na  Na5  1  0.28996700  0.71003300  0.28996700  1
  Na  Na6  1  0.53996700  0.96003300  0.53996700  1
  Na  Na7  1  0.96115500  0.53884500  0.53884500  1
  Ni  Ni0  1  0.12500000  0.12500000  0.62500000  1
  Ni  Ni1  1  0.12500000  0.12500000  0.12500000  1
  Ni  Ni2  1  0.12500000  0.62500000  0.12500000  1
  Ni  Ni3  1  0.62500000  0.12500000  0.12500000  1
  C  C0  1  0.33470400  0.33762800  0.98203700  1
  C  C1  1  0.91237200  0.91529600  0.90436900  1
  C  C2  1  0.34563100  0.98203700  0.33762800  1
  C  C3  1  0.98203700  0.34563100  0.33470400  1
  C  C4  1  0.26796300  0.90436900  0.91529600  1
  C  C5  1  0.90436900  0.26796300  0.91237200  1
  C  C6  1  0.33762800  0.33470400  0.34563100  1
  C  C7  1  0.91529600  0.91237200  0.26796300  1
  S  S0  1  0.75000000  0.75000000  0.75000000  1
  S  S1  1  0.50000000  0.50000000  0.50000000  1
  O  O0  1  0.31302200  0.48106400  0.97493300  1
  O  O1  1  0.93507000  0.68497600  0.68903100  1
  O  O2  1  0.21452000  0.31494000  0.98999400  1
  O  O3  1  0.93506000  0.03548000  0.76945300  1
  O  O4  1  0.48054700  0.98999400  0.31494000  1
  O  O5  1  0.02896700  0.77128200  0.92455500  1
  O  O6  1  0.69092300  0.68903100  0.68497600  1
  O  O7  1  0.68497600  0.93507000  0.69092300  1
  O  O8  1  0.92455500  0.27519700  0.02896700  1
  O  O9  1  0.98999400  0.48054700  0.21452000  1
  O  O10  1  0.76893600  0.93697800  0.01901900  1
  O  O11  1  0.68903100  0.69092300  0.93507000  1
  O  O12  1  0.23098100  0.97493300  0.48106400  1
  O  O13  1  0.97493300  0.23098100  0.31302200  1
  O  O14  1  0.47871800  0.22103300  0.97480300  1
  O  O15  1  0.27519700  0.92455500  0.77128200  1
  O  O16  1  0.97480300  0.32544500  0.47871800  1
  O  O17  1  0.77128200  0.02896700  0.27519700  1
  O  O18  1  0.27506700  0.01901900  0.93697800  1
  O  O19  1  0.01901900  0.27506700  0.76893600  1
  O  O20  1  0.56096900  0.55907700  0.31493000  1
  O  O21  1  0.48106400  0.31302200  0.23098100  1
  O  O22  1  0.26000600  0.76945300  0.03548000  1
  O  O23  1  0.32544500  0.97480300  0.22103300  1
  O  O24  1  0.56502400  0.31493000  0.55907700  1
  O  O25  1  0.55907700  0.56096900  0.56502400  1
  O  O26  1  0.22103300  0.47871800  0.32544500  1
  O  O27  1  0.76945300  0.26000600  0.93506000  1
  O  O28  1  0.31494000  0.21452000  0.48054700  1
  O  O29  1  0.03548000  0.93506000  0.26000600  1
  O  O30  1  0.31493000  0.56502400  0.56096900  1
  O  O31  1  0.93697800  0.76893600  0.27506700  1
loop_
_geom_bond_atom_site_label_1
_geom_bond_atom_site_label_2
_geom_bond_distance
_geom_bond_site_symmetry_2
Na0 O30 2.382063 1_555
Na0 O25 2.382063 1_555
Na0 O5 2.385205 1_555
Na0 O15 2.385210 1_555
Na0 O12 2.490526 1_555
Na0 O0 2.490526 1_555
Na1 O24 2.393940 1_555
Na1 O25 2.393940 1_555
Na1 O27 2.406059 1_555
Na1 O3 2.406064 1_555
Na1 O16 2.532558 1_555
Na1 O14 2.532560 1_555
Na2 O1 2.393940 1_555
Na2 O11 2.393940 1_555
Na2 O2 2.406066 1_655
Na2 O9 2.406069 1_556
Na2 O8 2.532555 1_556
Na2 O5 2.532564 1_655
Na3 O11 2.382063 1_555
Na3 O7 2.382063 1_555
Na3 O14 2.385200 1_565
Na3 O23 2.385204 1_556
Na3 O10 2.490526 1_556
Na3 O18 2.490526 1_565
Na4 O24 2.382063 1_555
Na4 O20 2.382063 1_555
Na4 O17 2.385200 1_555
Na4 O8 2.385204 1_555
Na4 O21 2.490526 1_555
Na4 O13 2.490526 1_555
Na5 O30 2.393940 1_555
Na5 O20 2.393940 1_555
Na5 O29 2.406066 1_555
Na5 O22 2.406069 1_555
Na5 O23 2.532555 1_555
Na5 O26 2.532564 1_555
Na6 O6 2.393940 1_555
Na6 O7 2.393940 1_555
Na6 O4 2.406059 1_555
Na6 O28 2.406064 1_565
Na6 O15 2.532558 1_555
Na6 O17 2.532560 1_565
Na7 O1 2.382063 1_555
Na7 O6 2.382063 1_555
Na7 O26 2.385205 1_655
Na7 O16 2.385210 1_555
Na7 O19 2.490526 1_655
Na7 O31 2.490526 1_555
Ni0 O3 2.040425 1_455
Ni0 O28 2.040425 1_555
Ni0 O19 2.075159 1_555
Ni0 O12 2.075159 1_545
Ni0 O15 2.128309 1_545
Ni0 O16 2.128309 1_455
Ni1 O29 2.040425 1_545
Ni1 O2 2.040425 1_554
Ni1 O13 2.075159 1_455
Ni1 O18 2.075159 1_554
Ni1 O23 2.128303 1_545
Ni1 O8 2.128303 1_455
Ni2 O22 2.040417 1_555
Ni2 O9 2.040417 1_455
Ni2 O31 2.075159 1_455
Ni2 O0 2.075159 1_554
Ni2 O26 2.128303 1_555
Ni2 O5 2.128303 1_554
Ni3 O27 2.040420 1_554
Ni3 O4 2.040420 1_545
Ni3 O21 2.075159 1_555
Ni3 O10 2.075159 1_545
Ni3 O17 2.128311 1_555
Ni3 O14 2.128311 1_554
C0 O2 1.282706 1_555
C0 O0 1.293810 1_555
C0 O14 1.295836 1_555
C1 O3 1.282711 1_565
C1 O10 1.293810 1_556
C1 O5 1.295836 1_655
C2 O4 1.282716 1_555
C2 O12 1.293810 1_555
C2 O23 1.295842 1_555
C3 O9 1.282713 1_555
C3 O13 1.293810 1_555
C3 O16 1.295832 1_555
C4 O22 1.282713 1_556
C4 O18 1.293810 1_565
C4 O15 1.295832 1_555
C5 O27 1.282716 1_555
C5 O19 1.293810 1_655
C5 O8 1.295842 1_556
C6 O28 1.282711 1_555
C6 O21 1.293810 1_555
C6 O26 1.295836 1_555
C7 O29 1.282706 1_655
C7 O31 1.293810 1_555
C7 O17 1.295836 1_565
O1 S0 1.493325 1_555
O6 S0 1.493325 1_555
O7 S0 1.493325 1_555
O11 S0 1.493325 1_555
O20 S1 1.493325 1_555
O24 S1 1.493325 1_555
O25 S1 1.493325 1_555
O30 S1 1.493325 1_555
