# generated using pymatgen
data_Fe10O9F11
_symmetry_space_group_name_H-M   'P 1'
_cell_length_a   15.49485300
_cell_length_b   4.76371400
_cell_length_c   4.77024653
_cell_angle_alpha   88.54240717
_cell_angle_beta   90.00000000
_cell_angle_gamma   90.00000000
_symmetry_Int_Tables_number   1
_chemical_formula_structural   Fe10O9F11
_chemical_formula_sum   'Fe10 O9 F11'
_cell_volume   351.99250422
_cell_formula_units_Z   1
loop_
 _symmetry_equiv_pos_site_id
 _symmetry_equiv_pos_as_xyz
  1  'x, y, z'
loop_
 _atom_site_type_symbol
 _atom_site_label
 _atom_site_symmetry_multiplicity
 _atom_site_fract_x
 _atom_site_fract_y
 _atom_site_fract_z
 _atom_site_occupancy
  Fe  Fe0  1  0.29402000  0.02498100  0.95702900  1
  Fe  Fe1  1  0.50000000  0.98793600  0.01460900  1
  Fe  Fe2  1  0.70598000  0.02498100  0.95702900  1
  Fe  Fe3  1  0.90125000  0.94961700  0.00283800  1
  Fe  Fe4  1  0.09875000  0.94961700  0.00283800  1
  Fe  Fe5  1  0.40661100  0.48337700  0.50965900  1
  Fe  Fe6  1  0.79796400  0.52706100  0.52043900  1
  Fe  Fe7  1  0.59338900  0.48337700  0.50965900  1
  Fe  Fe8  1  0.00000000  0.53678000  0.49872500  1
  Fe  Fe9  1  0.20203600  0.52706100  0.52043900  1
  O  O0  1  0.80089600  0.81151900  0.80735500  1
  O  O1  1  0.00000000  0.79580200  0.81177900  1
  O  O2  1  0.19910400  0.81151900  0.80735500  1
  O  O3  1  0.50000000  0.68333500  0.31566700  1
  O  O4  1  0.89792200  0.68407400  0.31572800  1
  O  O5  1  0.10207800  0.68407400  0.31572800  1
  O  O6  1  0.29927500  0.31984700  0.68008200  1
  O  O7  1  0.50000000  0.28937700  0.70098300  1
  O  O8  1  0.70072500  0.31984700  0.68008200  1
  F  F0  1  0.39122100  0.80262800  0.79809100  1
  F  F1  1  0.60877900  0.80262800  0.79809100  1
  F  F2  1  0.29966300  0.71224000  0.29261800  1
  F  F3  1  0.70033700  0.71224000  0.29261800  1
  F  F4  1  0.90087200  0.29855400  0.70618600  1
  F  F5  1  0.09912800  0.29855400  0.70618600  1
  F  F6  1  0.38854500  0.19731500  0.19428700  1
  F  F7  1  0.80228400  0.19922300  0.19384000  1
  F  F8  1  0.61145500  0.19731500  0.19428700  1
  F  F9  1  0.19771600  0.19922300  0.19384000  1
  F  F10  1  0.00000000  0.18589800  0.20193100  1
loop_
_geom_bond_atom_site_label_1
_geom_bond_atom_site_label_2
_geom_bond_distance
_geom_bond_site_symmetry_2
Fe0 O6 1.905415 1_555
Fe0 O2 1.934870 1_545
Fe1 O3 2.015421 1_555
Fe1 O7 2.047187 1_564
Fe2 O8 1.905415 1_555
Fe2 O0 1.934870 1_545
Fe3 O4 1.932486 1_555
Fe3 O1 1.934625 1_654
Fe3 O0 1.936874 1_554
Fe4 O5 1.932486 1_555
Fe4 O1 1.934625 1_554
Fe4 O2 1.936874 1_554
Fe5 O7 1.933408 1_555
Fe5 O3 1.952637 1_555
Fe5 O6 2.000407 1_555
Fe6 O8 1.945825 1_555
Fe6 O0 1.950866 1_555
Fe6 O4 1.968445 1_555
Fe7 O7 1.933408 1_555
Fe7 O3 1.952637 1_555
Fe7 O8 2.000407 1_555
Fe8 O5 1.930006 1_555
Fe8 O4 1.930006 1_455
Fe8 O1 1.961211 1_555
Fe9 O6 1.945825 1_555
Fe9 O2 1.950866 1_555
Fe9 O5 1.968445 1_555
F0 Fe0 2.001506 1_565
F0 Fe5 2.090285 1_555
F0 Fe1 2.175630 1_556
F1 Fe2 2.001506 1_565
F1 Fe7 2.090285 1_555
F1 Fe1 2.175630 1_556
F2 Fe9 2.049088 1_555
F2 Fe0 2.160680 1_564
F2 Fe5 2.224690 1_555
F3 Fe6 2.049088 1_555
F3 Fe2 2.160680 1_564
F3 Fe7 2.224690 1_555
F4 Fe6 2.112706 1_555
F4 Fe8 2.137599 1_655
F4 Fe3 2.155438 1_546
F5 Fe9 2.112706 1_555
F5 Fe8 2.137599 1_555
F5 Fe4 2.155438 1_546
F6 Fe0 2.036505 1_554
F6 Fe5 2.074339 1_555
F6 Fe1 2.180695 1_545
F7 Fe2 2.058999 1_554
F7 Fe3 2.156530 1_545
F7 Fe6 2.234834 1_555
F8 Fe2 2.036505 1_554
F8 Fe7 2.074339 1_555
F8 Fe1 2.180695 1_545
F9 Fe0 2.058999 1_554
F9 Fe4 2.156530 1_545
F9 Fe9 2.234834 1_555
F10 Fe3 2.136477 1_445
F10 Fe4 2.136477 1_545
F10 Fe8 2.217824 1_555
