# generated using pymatgen
data_Li3V3P8O29
_symmetry_space_group_name_H-M   'P 1'
_cell_length_a   9.70328700
_cell_length_b   9.75847466
_cell_length_c   14.35659435
_cell_angle_alpha   90.63454220
_cell_angle_beta   89.92589290
_cell_angle_gamma   119.73590627
_symmetry_Int_Tables_number   1
_chemical_formula_structural   Li3V3P8O29
_chemical_formula_sum   'Li6 V6 P16 O58'
_cell_volume   1180.32270008
_cell_formula_units_Z   2
loop_
 _symmetry_equiv_pos_site_id
 _symmetry_equiv_pos_as_xyz
  1  'x, y, z'
loop_
 _atom_site_type_symbol
 _atom_site_label
 _atom_site_symmetry_multiplicity
 _atom_site_fract_x
 _atom_site_fract_y
 _atom_site_fract_z
 _atom_site_occupancy
  Li  Li0  1  0.67908000  0.90992100  0.55241600  1
  Li  Li1  1  0.09479100  0.33100800  0.06326500  1
  Li  Li2  1  0.23236500  0.32378100  0.55618400  1
  Li  Li3  1  0.90630200  0.67436400  0.94455200  1
  Li  Li4  1  0.00089200  0.00026700  0.01604400  1
  Li  Li5  1  0.02417500  0.96949600  0.49348900  1
  V  V0  1  0.56325000  0.56557600  0.24886800  1
  V  V1  1  0.43885800  0.43637500  0.75306200  1
  V  V2  1  0.00403200  0.56710100  0.74241700  1
  V  V3  1  0.99631300  0.43652000  0.25567500  1
  V  V4  1  0.43693100  0.99861400  0.24376800  1
  V  V5  1  0.55873300  0.00079800  0.75519800  1
  P  P0  1  0.21401500  0.91696900  0.84180000  1
  P  P1  1  0.08935000  0.78621700  0.33568800  1
  P  P2  1  0.69158800  0.91479900  0.34077100  1
  P  P3  1  0.32793800  0.66021000  0.13230900  1
  P  P4  1  0.33871800  0.66595700  0.63293500  1
  P  P5  1  0.69442400  0.78055700  0.84091400  1
  P  P6  1  0.77557800  0.69314800  0.65795100  1
  P  P7  1  0.08863100  0.31862500  0.84433400  1
  P  P8  1  0.91069100  0.68668200  0.15703700  1
  P  P9  1  0.22526400  0.31242100  0.34436700  1
  P  P10  1  0.30149200  0.21680500  0.16335000  1
  P  P11  1  0.66029300  0.33103400  0.36519300  1
  P  P12  1  0.67367900  0.34001100  0.86545500  1
  P  P13  1  0.30280700  0.08361900  0.65858300  1
  P  P14  1  0.91224100  0.21737600  0.66523000  1
  P  P15  1  0.78717600  0.08492000  0.16028600  1
  O  O0  1  0.20825300  0.00780100  0.57405400  1
  O  O1  1  0.26538600  0.91668500  0.32774300  1
  O  O2  1  0.97636700  0.76556000  0.06655400  1
  O  O3  1  0.08127000  0.74047800  0.83201800  1
  O  O4  1  0.37890400  0.92214700  0.82863600  1
  O  O5  1  0.33161800  0.81082700  0.17527800  1
  O  O6  1  0.53563600  0.91822900  0.32432800  1
  O  O7  1  0.81837200  0.00901400  0.07953400  1
  O  O8  1  0.65184800  0.91408200  0.83313800  1
  O  O9  1  0.18806600  0.66723000  0.67642000  1
  O  O10  1  0.08058100  0.62173400  0.32731600  1
  O  O11  1  0.48643900  0.81463800  0.67593400  1
  O  O12  1  0.32546200  0.65086300  0.02930000  1
  O  O13  1  0.33772100  0.66076200  0.52970200  1
  O  O14  1  0.47518400  0.66087800  0.17914700  1
  O  O15  1  0.08886600  0.47422700  0.82367000  1
  O  O16  1  0.17979600  0.51293800  0.17477600  1
  O  O17  1  0.65573400  0.74131900  0.32780200  1
  O  O18  1  0.79808200  0.79966600  0.74942100  1
  O  O19  1  0.78886100  0.78912900  0.57531900  1
  O  O20  1  0.79257400  0.79274100  0.92327000  1
  O  O21  1  0.53743700  0.61940500  0.82836200  1
  O  O22  1  0.33193200  0.51534900  0.67555800  1
  O  O23  1  0.73640300  0.64949300  0.16894000  1
  O  O24  1  0.38257600  0.46751400  0.32972600  1
  O  O25  1  0.08674000  0.34838500  0.32981000  1
  O  O26  1  0.00846000  0.80422200  0.24115700  1
  O  O27  1  0.00813300  0.80403800  0.41747400  1
  O  O28  1  0.00969800  0.21193700  0.58707000  1
  O  O29  1  0.91201600  0.65296600  0.66565500  1
  O  O30  1  0.61664300  0.53761900  0.67138300  1
  O  O31  1  0.25987300  0.34727300  0.82699400  1
  O  O32  1  0.65897400  0.47542900  0.31955800  1
  O  O33  1  0.45437300  0.37895900  0.17028900  1
  O  O34  1  0.18988400  0.19662800  0.08611300  1
  O  O35  1  0.20791600  0.23284400  0.43486000  1
  O  O36  1  0.20775200  0.19411100  0.26109200  1
  O  O37  1  0.34670200  0.26097200  0.66542900  1
  O  O38  1  0.81984500  0.48870300  0.82411000  1
  O  O39  1  0.91583000  0.53295800  0.17324400  1
  O  O40  1  0.52383100  0.33669900  0.81896600  1
  O  O41  1  0.67255600  0.34346300  0.96838600  1
  O  O42  1  0.66063100  0.32973200  0.46783100  1
  O  O43  1  0.52105700  0.18358600  0.31556900  1
  O  O44  1  0.91392600  0.37876900  0.67410800  1
  O  O45  1  0.81396600  0.33555900  0.32187200  1
  O  O46  1  0.34536800  0.08384500  0.16362200  1
  O  O47  1  0.19819400  0.00157600  0.75003000  1
  O  O48  1  0.19372200  0.99101900  0.92686800  1
  O  O49  1  0.45826800  0.07520200  0.67398400  1
  O  O50  1  0.66971200  0.18925900  0.81979000  1
  O  O51  1  0.62061600  0.07142400  0.16725000  1
  O  O52  1  0.91657700  0.26362600  0.16582600  1
  O  O53  1  0.02843800  0.24926900  0.93700300  1
  O  O54  1  0.98132200  0.19649300  0.76357700  1
  O  O55  1  0.73815300  0.08007800  0.66277800  1
  O  O56  1  0.77033600  0.98036900  0.43202800  1
  O  O57  1  0.80836400  0.01156400  0.25698100  1
loop_
_geom_bond_atom_site_label_1
_geom_bond_atom_site_label_2
_geom_bond_distance
_geom_bond_site_symmetry_2
Li0 O56 1.913742 1_555
Li0 O19 1.971644 1_555
Li0 O55 2.143834 1_565
Li0 O11 2.409777 1_555
Li1 O53 1.948889 1_554
Li1 O34 1.972120 1_555
Li1 O52 2.116042 1_455
Li1 O16 2.209748 1_555
Li2 O35 1.906732 1_555
Li2 O28 1.930022 1_555
Li2 O37 2.183285 1_555
Li2 O22 2.346678 1_555
Li3 O2 1.921047 1_556
Li3 O20 1.979611 1_555
Li3 O3 2.199598 1_655
Li3 O38 2.324390 1_555
Li4 O7 2.029478 1_455
Li4 O34 2.126704 1_555
Li4 O48 2.303678 1_544
Li4 O2 2.307374 1_445
Li4 O20 2.418164 1_444
Li4 O53 2.584462 1_554
Li5 O27 1.879968 1_555
Li5 O0 2.000338 1_565
Li5 O19 2.396619 1_455
Li5 O35 2.447506 1_565
O0 P13 1.473596 1_555
O1 P1 1.548235 1_555
O1 V4 1.886631 1_555
O2 P8 1.489789 1_555
O3 P0 1.561897 1_555
O3 V2 1.943026 1_555
O4 P0 1.586628 1_555
O4 V5 1.852044 1_565
O5 P3 1.571632 1_555
O5 V4 1.863932 1_555
O6 P2 1.548583 1_555
O6 V4 1.907499 1_555
O7 P15 1.478796 1_555
O8 P5 1.555085 1_555
O8 V5 1.888528 1_565
O9 P4 1.594459 1_555
O9 V2 1.823884 1_555
O10 P1 1.567901 1_555
O10 V3 1.867648 1_455
O11 P4 1.568488 1_555
O11 V5 1.944049 1_565
O12 P3 1.480152 1_555
O13 P4 1.482260 1_555
O14 P3 1.576941 1_555
O14 V0 1.846139 1_555
O15 P7 1.549261 1_555
O15 V2 1.904139 1_555
O16 P3 1.572011 1_555
O16 V3 1.942057 1_455
O17 P2 1.559021 1_555
O17 V0 1.861062 1_555
O18 P5 1.608650 1_555
O18 P6 1.611824 1_555
O19 P6 1.485155 1_555
O20 P5 1.485458 1_555
O21 P5 1.563333 1_555
O21 V1 1.881188 1_555
O22 P4 1.569276 1_555
O22 V1 1.929681 1_555
O23 P8 1.553301 1_555
O23 V0 1.860431 1_555
O24 P9 1.542486 1_555
O24 V0 1.921425 1_555
O25 P9 1.563286 1_555
O25 V3 1.847623 1_455
O26 P8 1.602169 1_455
O26 P1 1.622842 1_555
O27 P1 1.469357 1_555
O28 P14 1.483893 1_455
O29 P6 1.560449 1_555
O29 V2 1.865191 1_655
O30 P6 1.550108 1_555
O30 V1 1.912284 1_555
O31 P7 1.562287 1_555
O31 V1 1.848391 1_555
O32 P11 1.566287 1_555
O32 V0 1.870652 1_555
O33 P10 1.543612 1_555
O33 V0 1.937580 1_555
O34 P10 1.492613 1_555
O35 P9 1.487050 1_555
O36 P9 1.602021 1_555
O36 P10 1.627647 1_555
O37 P13 1.565715 1_555
O37 V1 1.936263 1_555
O38 P12 1.563554 1_555
O38 V2 1.952707 1_655
O39 P8 1.545615 1_555
O39 V3 1.911062 1_555
O40 P12 1.586216 1_555
O40 V1 1.827333 1_555
O41 P12 1.477899 1_555
O42 P11 1.473750 1_555
O43 P11 1.566708 1_555
O43 V4 1.867191 1_545
O44 P14 1.570667 1_555
O44 V2 1.863356 1_655
O45 P11 1.595347 1_555
O45 V3 1.814281 1_555
O46 P10 1.553331 1_555
O46 V4 1.887314 1_545
O47 P0 1.609786 1_545
O47 P13 1.615131 1_555
O48 P0 1.474269 1_555
O49 P13 1.566950 1_555
O49 V5 1.887003 1_555
O50 P12 1.586814 1_555
O50 V5 1.844453 1_555
O51 P15 1.558236 1_555
O51 V4 1.909017 1_545
O52 P15 1.564960 1_555
O52 V3 1.941273 1_555
O53 P7 1.481551 1_555
O54 P7 1.609439 1_655
O54 P14 1.621332 1_555
O55 P14 1.550414 1_555
O55 V5 2.017577 1_555
O56 P2 1.486191 1_555
O57 P2 1.607134 1_545
O57 P15 1.628058 1_555
