# generated using pymatgen
data_La2PC
_symmetry_space_group_name_H-M   'P 1'
_cell_length_a   8.89336700
_cell_length_b   8.92310342
_cell_length_c   9.05397765
_cell_angle_alpha   90.19049554
_cell_angle_beta   90.11835723
_cell_angle_gamma   90.27046246
_symmetry_Int_Tables_number   1
_chemical_formula_structural   La2PC
_chemical_formula_sum   'La16 P8 C8'
_cell_volume   718.47784278
_cell_formula_units_Z   8
loop_
 _symmetry_equiv_pos_site_id
 _symmetry_equiv_pos_as_xyz
  1  'x, y, z'
loop_
 _atom_site_type_symbol
 _atom_site_label
 _atom_site_symmetry_multiplicity
 _atom_site_fract_x
 _atom_site_fract_y
 _atom_site_fract_z
 _atom_site_occupancy
  La  La0  1  0.82180300  0.80788900  0.20773500  1
  La  La1  1  0.06352700  0.43223600  0.04420800  1
  La  La2  1  0.82271000  0.69540000  0.79204800  1
  La  La3  1  0.93808500  0.04902900  0.56323800  1
  La  La4  1  0.45870500  0.93831400  0.92927400  1
  La  La5  1  0.94412600  0.44623500  0.44883000  1
  La  La6  1  0.31450100  0.20566400  0.32073000  1
  La  La7  1  0.70256000  0.30510200  0.81396200  1
  La  La8  1  0.57134900  0.94076700  0.56086200  1
  La  La9  1  0.29016400  0.32748400  0.69200700  1
  La  La10  1  0.68920900  0.17914800  0.18325800  1
  La  La11  1  0.43267700  0.56247400  0.06889600  1
  La  La12  1  0.18532300  0.69215500  0.68975500  1
  La  La13  1  0.18939900  0.79329800  0.32391900  1
  La  La14  1  0.04190400  0.06169800  0.92963900  1
  La  La15  1  0.54792500  0.57158500  0.44149100  1
  P  P0  1  0.25891700  0.00507100  0.62497300  1
  P  P1  1  0.37687200  0.24539200  0.99960700  1
  P  P2  1  0.50136100  0.62820100  0.75829800  1
  P  P3  1  0.49938000  0.87865700  0.24651900  1
  P  P4  1  0.12839100  0.75454300  0.00285000  1
  P  P5  1  0.75368300  0.50053200  0.12537300  1
  P  P6  1  0.00585500  0.12429300  0.25302900  1
  P  P7  1  0.62557500  0.25936600  0.50006400  1
  C  C0  1  0.74818500  0.99227100  0.80042600  1
  C  C1  1  0.97768500  0.44956700  0.74992200  1
  C  C2  1  0.94768500  0.75179100  0.48414100  1
  C  C3  1  0.99776200  0.29744300  0.75209000  1
  C  C4  1  0.74569400  0.02502500  0.94778000  1
  C  C5  1  0.79663300  0.72515600  0.49503100  1
  C  C6  1  0.24701600  0.47771300  0.44937200  1
  C  C7  1  0.25034000  0.50150100  0.30068100  1
loop_
_geom_bond_atom_site_label_1
_geom_bond_atom_site_label_2
_geom_bond_distance
_geom_bond_site_symmetry_2
La0 P5 2.900633 1_555
La0 P3 2.960401 1_555
La0 P6 3.280911 1_665
La0 P4 3.336064 1_655
La1 P5 2.919888 1_455
La1 P4 2.955779 1_555
La1 P1 3.279086 1_554
La1 P6 3.378365 1_555
La2 P2 2.932467 1_555
La2 P4 3.357081 1_656
La2 P5 3.541280 1_556
La3 P0 2.934774 1_655
La3 P6 2.952689 1_655
La3 P7 3.409383 1_555
La4 P1 2.907298 1_565
La4 P3 2.944859 1_556
La4 P2 3.190821 1_555
La4 P0 3.332155 1_565
La4 P4 3.425218 1_556
La5 P7 3.314722 1_555
La5 P5 3.417092 1_555
La5 P6 3.417849 1_655
La6 P6 2.899772 1_555
La6 P1 2.982988 1_554
La6 P7 3.237781 1_555
La6 P0 3.326571 1_555
La6 P3 3.421389 1_545
La7 P7 2.948563 1_555
La7 P5 3.339438 1_556
La7 P1 3.392646 1_555
La7 P2 3.438359 1_555
La8 P0 2.899334 1_565
La8 P7 2.935331 1_565
La8 P3 2.965717 1_555
La8 P2 3.373881 1_555
La9 P0 2.949986 1_555
La9 P1 2.982865 1_555
La9 P2 3.320448 1_555
La9 P7 3.509838 1_555
La10 P6 2.928565 1_655
La10 P5 2.970371 1_555
La10 P7 3.009479 1_555
La10 P3 3.215439 1_545
La10 P1 3.291343 1_554
La11 P1 2.935774 1_554
La11 P2 2.939377 1_554
La11 P5 2.954273 1_555
La11 P4 3.265257 1_555
La11 P3 3.293661 1_555
La12 P0 2.926413 1_565
La12 P4 2.932610 1_556
La12 P2 2.936118 1_555
La13 P3 2.943253 1_555
La13 P4 2.974788 1_555
La13 P0 3.366079 1_565
La13 P6 3.442878 1_565
La14 P4 2.927919 1_546
La14 P6 2.997070 1_556
La14 P0 3.407498 1_555
La14 P1 3.449873 1_555
La15 P7 2.923386 1_555
La15 P2 2.941337 1_555
La15 P3 3.294017 1_555
La15 P5 3.458717 1_555
C0 C4 1.365075 1_565
C0 La8 2.713216 1_555
C0 La2 2.734544 1_555
C0 La3 2.781113 1_565
C0 La7 2.824948 1_565
C0 La4 2.867922 1_555
C0 La14 2.922848 1_665
C1 C3 1.370146 1_555
C1 La2 2.623365 1_555
C1 La5 2.741804 1_555
C1 La1 2.775162 1_656
C1 La7 2.822362 1_555
C1 La12 2.892508 1_655
C1 La9 3.035663 1_655
C2 C5 1.366936 1_555
C2 La13 2.621353 1_655
C2 La5 2.744158 1_555
C2 La3 2.746730 1_565
C2 La0 2.787257 1_555
C2 La12 2.866398 1_655
C2 La2 3.045832 1_555
C3 La9 2.670261 1_655
C3 La14 2.681596 1_655
C3 La7 2.686709 1_555
C3 La3 2.842299 1_555
C3 La1 2.957985 1_656
C3 La5 3.090957 1_555
C4 La10 2.584686 1_556
C4 La14 2.658501 1_655
C4 La4 2.668275 1_545
C4 La7 2.808583 1_555
C4 La0 3.128552 1_546
C5 La15 2.639623 1_555
C5 La2 2.712702 1_555
C5 La0 2.715659 1_555
C5 La8 2.846852 1_555
C5 La5 2.848869 1_555
C6 C7 1.363932 1_555
C6 La9 2.605984 1_555
C6 La5 2.706990 1_455
C6 La6 2.758166 1_555
C6 La15 2.801467 1_555
C6 La12 2.947275 1_555
C7 La13 2.669754 1_555
C7 La11 2.709780 1_555
C7 La6 2.709978 1_555
C7 La1 2.915341 1_555
C7 La15 2.997615 1_555
C7 La5 3.076590 1_455
