# generated using pymatgen
data_VZnRu2
_symmetry_space_group_name_H-M   'P 1'
_cell_length_a   4.22241811
_cell_length_b   4.22241811
_cell_length_c   4.22241811
_cell_angle_alpha   60.00000000
_cell_angle_beta   60.00000000
_cell_angle_gamma   60.00000000
_symmetry_Int_Tables_number   1
_chemical_formula_structural   VZnRu2
_chemical_formula_sum   'V1 Zn1 Ru2'
_cell_volume   53.23150065
_cell_formula_units_Z   1
loop_
 _symmetry_equiv_pos_site_id
 _symmetry_equiv_pos_as_xyz
  1  'x, y, z'
loop_
 _atom_site_type_symbol
 _atom_site_label
 _atom_site_symmetry_multiplicity
 _atom_site_fract_x
 _atom_site_fract_y
 _atom_site_fract_z
 _atom_site_occupancy
  V  V0  1  0.25000000  0.25000000  0.25000000  1
  Zn  Zn0  1  0.75000100  0.75000100  0.75000100  1
  Ru  Ru0  1  0.00000000  -0.00000000  -0.00000000  1
  Ru  Ru1  1  0.49999900  0.49999900  0.49999900  1
loop_
_geom_bond_atom_site_label_1
_geom_bond_atom_site_label_2
_geom_bond_distance
_geom_bond_site_symmetry_2
Ru0 Zn0 2.585682 1_444
Ru0 V0 2.585692 1_555
Ru0 V0 2.585692 1_455
Ru0 V0 2.585692 1_545
Ru0 V0 2.585692 1_554
Ru0 Zn0 2.585696 1_454
Ru0 Zn0 2.585696 1_544
Ru0 Zn0 2.585696 1_445
Ru1 V0 2.585682 1_555
Ru1 Zn0 2.585686 1_554
Ru1 Zn0 2.585686 1_455
Ru1 Zn0 2.585686 1_545
Ru1 V0 2.585696 1_565
Ru1 V0 2.585696 1_556
Ru1 V0 2.585696 1_655
Ru1 Zn0 2.585713 1_555
