# generated using pymatgen
data_HfZnNi2
_symmetry_space_group_name_H-M   'P 1'
_cell_length_a   4.24246037
_cell_length_b   4.24246037
_cell_length_c   4.24246037
_cell_angle_alpha   60.00000000
_cell_angle_beta   60.00000000
_cell_angle_gamma   60.00000000
_symmetry_Int_Tables_number   1
_chemical_formula_structural   HfZnNi2
_chemical_formula_sum   'Hf1 Zn1 Ni2'
_cell_volume   53.99311529
_cell_formula_units_Z   1
loop_
 _symmetry_equiv_pos_site_id
 _symmetry_equiv_pos_as_xyz
  1  'x, y, z'
loop_
 _atom_site_type_symbol
 _atom_site_label
 _atom_site_symmetry_multiplicity
 _atom_site_fract_x
 _atom_site_fract_y
 _atom_site_fract_z
 _atom_site_occupancy
  Hf  Hf0  1  0.24999900  0.24999900  0.24999900  1
  Zn  Zn0  1  0.74999900  0.74999900  0.74999900  1
  Ni  Ni0  1  -0.00000000  -0.00000000  -0.00000000  1
  Ni  Ni1  1  0.50000000  0.50000000  0.50000000  1
loop_
_geom_bond_atom_site_label_1
_geom_bond_atom_site_label_2
_geom_bond_distance
_geom_bond_site_symmetry_2
Hf0 Ni0 2.597955 1_555
Hf0 Ni1 2.597962 1_545
Hf0 Ni1 2.597962 1_554
Hf0 Ni1 2.597962 1_455
Hf0 Ni0 2.597969 1_556
Hf0 Ni0 2.597969 1_655
Hf0 Ni0 2.597969 1_565
Hf0 Ni1 2.597976 1_555
Ni0 Zn0 2.597962 1_454
Ni0 Zn0 2.597962 1_544
Ni0 Zn0 2.597962 1_445
Ni0 Zn0 2.597976 1_444
Ni1 Zn0 2.597955 1_555
Ni1 Zn0 2.597969 1_554
Ni1 Zn0 2.597969 1_455
Ni1 Zn0 2.597969 1_545
