# generated using pymatgen
data_Li2PmTl
_symmetry_space_group_name_H-M   'P 1'
_cell_length_a   4.88994928
_cell_length_b   4.88994967
_cell_length_c   4.88994984
_cell_angle_alpha   60.00008414
_cell_angle_beta   60.00008170
_cell_angle_gamma   60.00008424
_symmetry_Int_Tables_number   1
_chemical_formula_structural   Li2PmTl
_chemical_formula_sum   'Li2 Pm1 Tl1'
_cell_volume   82.67971503
_cell_formula_units_Z   1
loop_
 _symmetry_equiv_pos_site_id
 _symmetry_equiv_pos_as_xyz
  1  'x, y, z'
loop_
 _atom_site_type_symbol
 _atom_site_label
 _atom_site_symmetry_multiplicity
 _atom_site_fract_x
 _atom_site_fract_y
 _atom_site_fract_z
 _atom_site_occupancy
  Li  Li0  1  -0.00000054  -0.00000063  -0.00000060  1
  Li  Li1  1  0.50000117  0.50000124  0.50000124  1
  Pm  Pm0  1  0.24999920  0.24999918  0.24999918  1
  Tl  Tl0  1  0.74999917  0.74999921  0.74999918  1
loop_
_geom_bond_atom_site_label_1
_geom_bond_atom_site_label_2
_geom_bond_distance
_geom_bond_site_symmetry_2
Li0 Pm0 2.994466 1_555
Li0 Tl0 2.994471 1_444
Li0 Tl0 2.994472 1_544
Li0 Tl0 2.994473 1_445
Li0 Tl0 2.994473 1_454
Li0 Pm0 2.994474 1_455
Li0 Pm0 2.994474 1_545
Li0 Pm0 2.994474 1_554
Li1 Tl0 2.994444 1_555
Li1 Pm0 2.994465 1_565
Li1 Pm0 2.994465 1_556
Li1 Pm0 2.994465 1_655
Li1 Tl0 2.994481 1_455
Li1 Tl0 2.994482 1_545
Li1 Tl0 2.994482 1_554
Li1 Pm0 2.994493 1_555
Pm0 Tl0 3.457719 1_445
Pm0 Tl0 3.457719 1_554
Pm0 Tl0 3.457719 1_545
Pm0 Tl0 3.457719 1_544
Pm0 Tl0 3.457719 1_454
Pm0 Tl0 3.457719 1_455
