# generated using pymatgen
data_HfFe2Sn
_symmetry_space_group_name_H-M   'P 1'
_cell_length_a   4.35132461
_cell_length_b   4.35135450
_cell_length_c   4.35140644
_cell_angle_alpha   60.00079901
_cell_angle_beta   60.00119309
_cell_angle_gamma   60.00237842
_symmetry_Int_Tables_number   1
_chemical_formula_structural   HfFe2Sn
_chemical_formula_sum   'Hf1 Fe2 Sn1'
_cell_volume   58.26059890
_cell_formula_units_Z   1
loop_
 _symmetry_equiv_pos_site_id
 _symmetry_equiv_pos_as_xyz
  1  'x, y, z'
loop_
 _atom_site_type_symbol
 _atom_site_label
 _atom_site_symmetry_multiplicity
 _atom_site_fract_x
 _atom_site_fract_y
 _atom_site_fract_z
 _atom_site_occupancy
  Hf  Hf0  1  0.25000566  0.24999363  0.24999436  1
  Fe  Fe0  1  0.00000003  0.00000928  0.00000936  1
  Fe  Fe1  1  0.49999007  0.50000037  0.50000054  1
  Sn  Sn0  1  0.75000423  0.74999572  0.74999574  1
loop_
_geom_bond_atom_site_label_1
_geom_bond_atom_site_label_2
_geom_bond_distance
_geom_bond_site_symmetry_2
Fe0 Hf0 2.664536 1_555
Fe0 Sn0 2.664657 1_445
Fe0 Sn0 2.664657 1_454
Fe0 Hf0 2.664678 1_455
Fe0 Sn0 2.664706 1_444
Fe0 Sn0 2.664713 1_544
Fe0 Hf0 2.664759 1_554
Fe0 Hf0 2.664761 1_545
Fe1 Hf0 2.664615 1_555
Fe1 Sn0 2.664641 1_555
Fe1 Sn0 2.664647 1_455
Fe1 Hf0 2.664682 1_565
Fe1 Hf0 2.664684 1_556
Fe1 Sn0 2.664722 1_545
Fe1 Sn0 2.664723 1_554
Fe1 Hf0 2.664753 1_655
