# generated using pymatgen
data_RbTe
_symmetry_space_group_name_H-M   'P 1'
_cell_length_a   4.89739134
_cell_length_b   5.88326355
_cell_length_c   11.19079497
_cell_angle_alpha   90.00000000
_cell_angle_beta   90.00000000
_cell_angle_gamma   90.00000000
_symmetry_Int_Tables_number   1
_chemical_formula_structural   RbTe
_chemical_formula_sum   'Rb4 Te4'
_cell_volume   322.43639111
_cell_formula_units_Z   4
loop_
 _symmetry_equiv_pos_site_id
 _symmetry_equiv_pos_as_xyz
  1  'x, y, z'
loop_
 _atom_site_type_symbol
 _atom_site_label
 _atom_site_symmetry_multiplicity
 _atom_site_fract_x
 _atom_site_fract_y
 _atom_site_fract_z
 _atom_site_occupancy
  Rb  Rb0  1  0.50000000  0.67150560  0.86596194  1
  Rb  Rb1  1  0.50000000  0.32849440  0.13403806  1
  Rb  Rb2  1  0.50000000  0.17150560  0.63403806  1
  Rb  Rb3  1  0.50000000  0.82849440  0.36596194  1
  Te  Te0  1  -0.00000000  0.14027223  0.89685779  1
  Te  Te1  1  -0.00000000  0.85972777  0.10314221  1
  Te  Te2  1  0.00000000  0.64027223  0.60314221  1
  Te  Te3  1  0.00000000  0.35972777  0.39685779  1
loop_
_geom_bond_atom_site_label_1
_geom_bond_atom_site_label_2
_geom_bond_distance
_geom_bond_site_symmetry_2
Rb0 Te0 3.704260 1_665
Rb0 Te0 3.704260 1_565
Rb0 Te1 3.777211 1_556
Rb0 Te1 3.777211 1_656
Rb0 Te2 3.831489 1_655
Rb0 Te2 3.831489 1_555
Rb0 Te0 3.985435 1_655
Rb0 Te0 3.985435 1_555
Rb1 Te1 3.704260 1_645
Rb1 Te1 3.704260 1_545
Rb1 Te0 3.777211 1_654
Rb1 Te0 3.777211 1_554
Rb1 Te3 3.831489 1_555
Rb1 Te3 3.831489 1_655
Rb1 Te1 3.985435 1_655
Rb1 Te1 3.985435 1_555
Rb2 Te2 3.704260 1_655
Rb2 Te2 3.704260 1_555
Rb2 Te3 3.777211 1_655
Rb2 Te3 3.777211 1_555
Rb2 Te0 3.831489 1_555
Rb2 Te0 3.831489 1_655
Rb2 Te2 3.985435 1_645
Rb2 Te2 3.985435 1_545
Rb3 Te3 3.704260 1_555
Rb3 Te3 3.704260 1_655
Rb3 Te2 3.777211 1_555
Rb3 Te2 3.777211 1_655
Rb3 Te1 3.831489 1_555
Rb3 Te1 3.831489 1_655
Rb3 Te3 3.985435 1_565
Rb3 Te3 3.985435 1_665
Te0 Te1 2.837837 1_546
Te2 Te3 2.837837 1_555
