# generated using pymatgen
data_Li4TiCo3O8
_symmetry_space_group_name_H-M   'P 1'
_cell_length_a   5.92636080
_cell_length_b   5.94381436
_cell_length_c   8.36155537
_cell_angle_alpha   89.42025034
_cell_angle_beta   89.73898296
_cell_angle_gamma   91.04032015
_symmetry_Int_Tables_number   1
_chemical_formula_structural   Li4TiCo3O8
_chemical_formula_sum   'Li8 Ti2 Co6 O16'
_cell_volume   294.47042904
_cell_formula_units_Z   2
loop_
 _symmetry_equiv_pos_site_id
 _symmetry_equiv_pos_as_xyz
  1  'x, y, z'
loop_
 _atom_site_type_symbol
 _atom_site_label
 _atom_site_symmetry_multiplicity
 _atom_site_fract_x
 _atom_site_fract_y
 _atom_site_fract_z
 _atom_site_occupancy
  Li  Li0  1  0.50000000  0.50000000  0.00000100  1
  Li  Li1  1  0.00000300  0.99999900  0.50000000  1
  Li  Li2  1  0.24986100  0.25032300  0.24861700  1
  Li  Li3  1  0.75014400  0.74968100  0.75137900  1
  Li  Li4  1  0.25282100  0.75274500  0.74938600  1
  Li  Li5  1  0.74718000  0.24725500  0.25061300  1
  Li  Li6  1  0.00000400  0.49999800  0.00000300  1
  Li  Li7  1  0.50000200  0.00000000  0.49999700  1
  Ti  Ti0  1  0.00002300  0.00003400  0.99998200  1
  Ti  Ti1  1  0.49996800  0.49996000  0.50002900  1
  Co  Co0  1  0.25240000  0.75074300  0.24967400  1
  Co  Co1  1  0.74759600  0.24925300  0.75032700  1
  Co  Co2  1  0.49999800  0.00001600  0.00001100  1
  Co  Co3  1  0.24725400  0.25106200  0.74874400  1
  Co  Co4  1  0.75274500  0.74894000  0.25125200  1
  Co  Co5  1  0.00002100  0.49999000  0.50000200  1
  O  O0  1  0.01758200  0.51964500  0.26529900  1
  O  O1  1  0.50823400  0.02141900  0.76801300  1
  O  O2  1  0.49178100  0.97857400  0.23198000  1
  O  O3  1  0.98239200  0.48037500  0.73470100  1
  O  O4  1  0.25427300  0.77491600  0.99991500  1
  O  O5  1  0.73686800  0.26330100  0.50149700  1
  O  O6  1  0.26313400  0.73669600  0.49847500  1
  O  O7  1  0.74572400  0.22507900  0.00010300  1
  O  O8  1  0.25494100  0.26659700  0.50072500  1
  O  O9  1  0.76955300  0.75820400  0.00353800  1
  O  O10  1  0.49684100  0.50419400  0.26309000  1
  O  O11  1  0.99318500  0.00501600  0.76282700  1
  O  O12  1  0.23044200  0.24178500  0.99647700  1
  O  O13  1  0.74505800  0.73341000  0.49925800  1
  O  O14  1  0.00680200  0.99499500  0.23717900  1
  O  O15  1  0.50316800  0.49579400  0.73690600  1
loop_
_geom_bond_atom_site_label_1
_geom_bond_atom_site_label_2
_geom_bond_distance
_geom_bond_site_symmetry_2
Li0 O9 2.195554 1_555
Li0 O12 2.195618 1_554
Li0 O10 2.200225 1_555
Li0 O15 2.200277 1_554
Li0 O4 2.208444 1_554
Li0 O7 2.208454 1_555
Li1 O13 2.169565 1_455
Li1 O8 2.169573 1_565
Li1 O14 2.198290 1_555
Li1 O11 2.198344 1_465
Li1 O6 2.229364 1_555
Li1 O5 2.229374 1_465
Li2 O14 2.076547 1_545
Li2 O10 2.087850 1_555
Li2 O8 2.111537 1_555
Li2 O12 2.113017 1_554
Li2 O0 2.135356 1_555
Li2 O2 2.184179 1_545
Li3 O11 2.076509 1_565
Li3 O15 2.087901 1_555
Li3 O13 2.111645 1_555
Li3 O9 2.113169 1_556
Li3 O3 2.135161 1_555
Li3 O1 2.184088 1_565
Li4 O4 2.100330 1_555
Li4 O6 2.101799 1_555
Li4 O15 2.151451 1_555
Li4 O11 2.171218 1_465
Li4 O1 2.187488 1_565
Li4 O3 2.261877 1_455
Li5 O7 2.100174 1_555
Li5 O5 2.101572 1_555
Li5 O10 2.151365 1_555
Li5 O14 2.171109 1_645
Li5 O2 2.187466 1_545
Li5 O0 2.261850 1_655
Li6 O12 2.073179 1_554
Li6 O9 2.073201 1_455
Li6 O4 2.202596 1_554
Li6 O7 2.202643 1_455
Li6 O0 2.225352 1_555
Li6 O3 2.225404 1_454
Li7 O5 2.083441 1_555
Li7 O6 2.083466 1_545
Li7 O13 2.168801 1_545
Li7 O8 2.168852 1_555
Li7 O1 2.246631 1_555
Li7 O2 2.246640 1_545
Co0 O0 1.940555 1_555
Co0 O2 1.947452 1_555
Co0 O14 2.076569 1_555
Co0 O10 2.081806 1_555
Co0 O6 2.082502 1_555
Co0 O4 2.091825 1_554
Co1 O3 1.940562 1_555
Co1 O1 1.947380 1_555
Co1 O11 2.076469 1_555
Co1 O15 2.081720 1_555
Co1 O5 2.082743 1_555
Co1 O7 2.091967 1_556
Co2 O2 1.942848 1_545
Co2 O1 1.943079 1_554
Co2 O7 1.959469 1_555
Co2 O4 1.959612 1_544
Co2 O12 2.168138 1_554
Co2 O9 2.168305 1_545
Co3 O12 2.073502 1_555
Co3 O8 2.075202 1_555
Co3 O11 2.081998 1_455
Co3 O15 2.083646 1_555
Co3 O1 2.087032 1_555
Co3 O3 2.100363 1_455
Co4 O9 2.073341 1_555
Co4 O13 2.075092 1_555
Co4 O14 2.081981 1_655
Co4 O10 2.083661 1_555
Co4 O2 2.086927 1_555
Co4 O0 2.100182 1_655
Co5 O3 1.966919 1_455
Co5 O0 1.966945 1_555
Co5 O8 2.069507 1_555
Co5 O13 2.069806 1_455
Co5 O6 2.081069 1_555
Co5 O5 2.081178 1_455
O4 Ti0 2.033224 1_565
O5 Ti1 2.005354 1_555
O6 Ti1 2.005404 1_555
O7 Ti0 2.033153 1_654
O8 Ti1 1.989788 1_555
O9 Ti0 1.964688 1_664
O10 Ti1 1.981259 1_555
O11 Ti0 1.983516 1_655
O12 Ti0 1.964142 1_555
O13 Ti1 1.990405 1_555
O14 Ti0 1.983860 1_564
O15 Ti1 1.980746 1_555
