# generated using pymatgen
data_Li5Fe(P2O7)2
_symmetry_space_group_name_H-M   'P 1'
_cell_length_a   7.01211200
_cell_length_b   8.71647817
_cell_length_c   9.19847623
_cell_angle_alpha   79.46107311
_cell_angle_beta   79.35164588
_cell_angle_gamma   70.05391703
_symmetry_Int_Tables_number   1
_chemical_formula_structural   Li5Fe(P2O7)2
_chemical_formula_sum   'Li10 Fe2 P8 O28'
_cell_volume   515.00259800
_cell_formula_units_Z   2
loop_
 _symmetry_equiv_pos_site_id
 _symmetry_equiv_pos_as_xyz
  1  'x, y, z'
loop_
 _atom_site_type_symbol
 _atom_site_label
 _atom_site_symmetry_multiplicity
 _atom_site_fract_x
 _atom_site_fract_y
 _atom_site_fract_z
 _atom_site_occupancy
  Li  Li0  1  0.30901600  0.17965400  0.27022500  1
  Li  Li1  1  0.26073200  0.25452300  0.57919400  1
  Li  Li2  1  0.75984700  0.27044200  0.10436500  1
  Li  Li3  1  0.04838300  0.51888300  0.14385800  1
  Li  Li4  1  0.42168900  0.48652500  0.34614800  1
  Li  Li5  1  0.57831100  0.51347500  0.65385200  1
  Li  Li6  1  0.95161700  0.48111700  0.85614200  1
  Li  Li7  1  0.24015300  0.72955800  0.89563500  1
  Li  Li8  1  0.73926800  0.74547700  0.42080600  1
  Li  Li9  1  0.69098400  0.82034600  0.72977500  1
  Fe  Fe0  1  0.85999600  0.13997200  0.75680200  1
  Fe  Fe1  1  0.14000400  0.86002800  0.24319800  1
  P  P0  1  0.17433100  0.10935800  0.97154300  1
  P  P1  1  0.70667800  0.09937800  0.45001000  1
  P  P2  1  0.40617700  0.34118700  0.94896800  1
  P  P3  1  0.87062600  0.37682900  0.43140600  1
  P  P4  1  0.12937400  0.62317100  0.56859400  1
  P  P5  1  0.59382300  0.65881300  0.05103200  1
  P  P6  1  0.29332200  0.90062200  0.54999000  1
  P  P7  1  0.82566900  0.89064200  0.02845700  1
  O  O0  1  0.17371500  0.05139000  0.62967300  1
  O  O1  1  0.11683100  0.11455400  0.14222300  1
  O  O2  1  0.76670600  0.06366000  0.05887000  1
  O  O3  1  0.72539700  0.06645700  0.61924100  1
  O  O4  1  0.00613000  0.23324200  0.87884000  1
  O  O5  1  0.48539300  0.18070100  0.42091400  1
  O  O6  1  0.36637100  0.17616100  0.91741900  1
  O  O7  1  0.07770200  0.37661800  0.34546800  1
  O  O8  1  0.44135300  0.32122000  0.11120000  1
  O  O9  1  0.82020400  0.23319900  0.37107200  1
  O  O10  1  0.59698500  0.33689900  0.83275300  1
  O  O11  1  0.87442000  0.32948500  0.60156100  1
  O  O12  1  0.21517300  0.49079900  0.91992900  1
  O  O13  1  0.30823100  0.46495400  0.59187200  1
  O  O14  1  0.69176900  0.53504600  0.40812800  1
  O  O15  1  0.78482700  0.50920100  0.08007100  1
  O  O16  1  0.12558000  0.67051500  0.39843900  1
  O  O17  1  0.40301500  0.66310100  0.16724700  1
  O  O18  1  0.17979600  0.76680100  0.62892800  1
  O  O19  1  0.55864700  0.67878000  0.88880000  1
  O  O20  1  0.92229800  0.62338200  0.65453200  1
  O  O21  1  0.63362900  0.82383900  0.08258100  1
  O  O22  1  0.51460700  0.81929900  0.57908600  1
  O  O23  1  0.99387000  0.76675800  0.12116000  1
  O  O24  1  0.27460300  0.93354300  0.38075900  1
  O  O25  1  0.23329400  0.93634000  0.94113000  1
  O  O26  1  0.88316900  0.88544600  0.85777700  1
  O  O27  1  0.82628500  0.94861000  0.37032700  1
loop_
_geom_bond_atom_site_label_1
_geom_bond_atom_site_label_2
_geom_bond_distance
_geom_bond_site_symmetry_2
Li0 O5 2.024071 1_555
Li0 O8 2.035392 1_555
Li0 O7 2.043845 1_555
Li0 O1 2.208377 1_555
Li0 O24 2.271257 1_545
Li1 O5 1.954223 1_555
Li1 O13 1.999575 1_555
Li1 O0 2.013606 1_555
Li1 O11 2.538268 1_455
Li2 O2 1.906690 1_555
Li2 O8 2.114575 1_555
Li2 O15 2.115627 1_555
Li2 O4 2.435379 1_654
Li2 O1 2.462128 1_655
Li2 O9 2.510344 1_555
Li3 O7 2.035903 1_555
Li3 O23 2.039334 1_455
Li3 O15 2.071730 1_455
Li3 O12 2.183895 1_554
Li4 O17 2.027241 1_555
Li4 O16 2.180770 1_555
Li4 O13 2.249273 1_555
Li4 O14 2.263671 1_555
Li4 O5 2.531598 1_555
Li5 O10 2.027241 1_555
Li5 O11 2.180770 1_555
Li5 O14 2.249273 1_555
Li5 O13 2.263671 1_555
Li5 O22 2.531598 1_555
Li6 O20 2.035903 1_555
Li6 O4 2.039334 1_655
Li6 O12 2.071730 1_655
Li6 O15 2.183895 1_556
Li7 O25 1.906690 1_555
Li7 O19 2.114575 1_555
Li7 O12 2.115627 1_555
Li7 O23 2.435379 1_456
Li7 O26 2.462128 1_455
Li7 O18 2.510344 1_555
Li8 O22 1.954223 1_555
Li8 O14 1.999575 1_555
Li8 O27 2.013606 1_555
Li8 O16 2.538268 1_655
Li9 O22 2.024071 1_555
Li9 O19 2.035392 1_555
Li9 O20 2.043845 1_555
Li9 O26 2.208377 1_555
Li9 O3 2.271257 1_565
Fe0 O11 1.993944 1_555
Fe0 O3 2.013238 1_555
Fe0 O4 2.073272 1_655
Fe0 O10 2.153706 1_555
Fe0 O26 2.206168 1_545
Fe0 O0 2.241352 1_655
Fe1 O16 1.993944 1_555
Fe1 O24 2.013238 1_555
Fe1 O23 2.073272 1_455
Fe1 O17 2.153706 1_555
Fe1 O1 2.206168 1_565
Fe1 O27 2.241352 1_455
O0 P6 1.529988 1_545
O1 P0 1.552134 1_554
O2 P7 1.486527 1_545
O3 P1 1.552158 1_555
O4 P0 1.565303 1_555
O5 P1 1.521656 1_555
O6 P0 1.606685 1_555
O6 P2 1.639459 1_555
O7 P3 1.519153 1_455
O8 P2 1.526363 1_554
O9 P3 1.621441 1_555
O9 P1 1.622230 1_555
O10 P2 1.544744 1_555
O11 P3 1.546731 1_555
O12 P2 1.542386 1_555
O13 P4 1.527036 1_555
O14 P3 1.527036 1_555
O15 P5 1.542386 1_555
O16 P4 1.546731 1_555
O17 P5 1.544744 1_555
O18 P4 1.621441 1_555
O18 P6 1.622230 1_555
O19 P5 1.526363 1_556
O20 P4 1.519153 1_655
O21 P7 1.606685 1_555
O21 P5 1.639459 1_555
O22 P6 1.521656 1_555
O23 P7 1.565303 1_555
O24 P6 1.552158 1_555
O25 P0 1.486527 1_565
O26 P7 1.552134 1_556
O27 P1 1.529988 1_565
