# generated using pymatgen
data_Tm2RuRh
_symmetry_space_group_name_H-M   'P 1'
_cell_length_a   4.72128929
_cell_length_b   4.72128929
_cell_length_c   4.72128929
_cell_angle_alpha   60.00000000
_cell_angle_beta   60.00000000
_cell_angle_gamma   60.00000000
_symmetry_Int_Tables_number   1
_chemical_formula_structural   Tm2RuRh
_chemical_formula_sum   'Tm2 Ru1 Rh1'
_cell_volume   74.41608822
_cell_formula_units_Z   1
loop_
 _symmetry_equiv_pos_site_id
 _symmetry_equiv_pos_as_xyz
  1  'x, y, z'
loop_
 _atom_site_type_symbol
 _atom_site_label
 _atom_site_symmetry_multiplicity
 _atom_site_fract_x
 _atom_site_fract_y
 _atom_site_fract_z
 _atom_site_occupancy
  Tm  Tm0  1  0.49999900  0.49999900  0.49999900  1
  Tm  Tm1  1  -0.00000000  -0.00000000  -0.00000000  1
  Ru  Ru0  1  0.75000000  0.75000000  0.75000000  1
  Rh  Rh0  1  0.25000100  0.25000100  0.25000100  1
loop_
_geom_bond_atom_site_label_1
_geom_bond_atom_site_label_2
_geom_bond_distance
_geom_bond_site_symmetry_2
Ru0 Tm0 2.891184 1_655
Ru0 Tm0 2.891184 1_556
Ru0 Tm0 2.891184 1_565
Ru0 Tm1 2.891187 1_656
Ru0 Tm1 2.891187 1_566
Ru0 Tm1 2.891187 1_665
Ru0 Tm1 2.891187 1_666
Ru0 Tm0 2.891199 1_555
Rh0 Tm0 2.891164 1_555
Rh0 Tm1 2.891184 1_565
Rh0 Tm1 2.891184 1_556
Rh0 Tm1 2.891184 1_655
Rh0 Tm0 2.891195 1_455
Rh0 Tm0 2.891195 1_554
Rh0 Tm0 2.891195 1_545
Rh0 Tm1 2.891199 1_555
