# generated using pymatgen
data_Yb3SiO
_symmetry_space_group_name_H-M   'P 1'
_cell_length_a   6.58355272
_cell_length_b   6.58355272
_cell_length_c   6.58355272
_cell_angle_alpha   120.01986346
_cell_angle_beta   119.93972294
_cell_angle_gamma   90.03501678
_symmetry_Int_Tables_number   1
_chemical_formula_structural   Yb3SiO
_chemical_formula_sum   'Yb6 Si2 O2'
_cell_volume   201.83581200
_cell_formula_units_Z   2
loop_
 _symmetry_equiv_pos_site_id
 _symmetry_equiv_pos_as_xyz
  1  'x, y, z'
loop_
 _atom_site_type_symbol
 _atom_site_label
 _atom_site_symmetry_multiplicity
 _atom_site_fract_x
 _atom_site_fract_y
 _atom_site_fract_z
 _atom_site_occupancy
  Yb  Yb0  1  0.76966000  0.25000000  0.51966000  1
  Yb  Yb1  1  0.23034000  0.75000000  0.48034000  1
  Yb  Yb2  1  0.25996900  0.25996900  0.50000000  1
  Yb  Yb3  1  0.74003100  0.24003100  0.00000000  1
  Yb  Yb4  1  0.74003100  0.74003100  0.50000000  1
  Yb  Yb5  1  0.25996900  0.75996900  0.00000000  1
  Si  Si0  1  0.74990400  0.75000000  0.99990400  1
  Si  Si1  1  0.25009600  0.25000000  0.00009600  1
  O  O0  1  0.00000000  0.50000000  0.50000000  1
  O  O1  1  0.50000000  0.00000000  0.50000000  1
loop_
_geom_bond_atom_site_label_1
_geom_bond_atom_site_label_2
_geom_bond_distance
_geom_bond_site_symmetry_2
Si0 Yb1 3.165857 1_656
Si0 Yb4 3.226530 1_555
Si0 Yb5 3.226530 1_556
Si0 Yb2 3.226530 1_555
Si0 Yb3 3.226530 1_566
Si0 Yb0 3.293362 1_555
Si0 Yb0 3.293362 1_566
Si0 Yb2 3.358320 1_666
Si0 Yb5 3.358320 1_656
Si0 Yb4 3.358320 1_556
Si0 Yb3 3.358320 1_556
Si0 Yb1 3.423693 1_555
Si1 Yb0 3.165857 1_454
Si1 Yb5 3.226530 1_545
Si1 Yb4 3.226530 1_555
Si1 Yb2 3.226530 1_555
Si1 Yb3 3.226530 1_555
Si1 Yb1 3.293362 1_544
Si1 Yb1 3.293362 1_555
Si1 Yb3 3.358320 1_455
Si1 Yb4 3.358320 1_444
Si1 Yb2 3.358320 1_554
Si1 Yb5 3.358320 1_555
Si1 Yb0 3.423693 1_555
O0 Yb3 2.330197 1_455
O0 Yb5 2.330197 1_556
O0 Yb2 2.330197 1_555
O0 Yb4 2.330197 1_455
O0 Yb1 2.330530 1_555
O0 Yb0 2.330530 1_455
O1 Yb4 2.330197 1_545
O1 Yb5 2.330197 1_545
O1 Yb2 2.330197 1_555
O1 Yb3 2.330197 1_556
O1 Yb0 2.330530 1_555
O1 Yb1 2.330530 1_545
