# generated using pymatgen
data_Mn6O5F7
_symmetry_space_group_name_H-M   'P 1'
_cell_length_a   4.67736060
_cell_length_b   5.74669305
_cell_length_c   15.67342346
_cell_angle_alpha   90.03078798
_cell_angle_beta   89.38467030
_cell_angle_gamma   88.34778563
_symmetry_Int_Tables_number   1
_chemical_formula_structural   Mn6O5F7
_chemical_formula_sum   'Mn12 O10 F14'
_cell_volume   421.09193751
_cell_formula_units_Z   2
loop_
 _symmetry_equiv_pos_site_id
 _symmetry_equiv_pos_as_xyz
  1  'x, y, z'
loop_
 _atom_site_type_symbol
 _atom_site_label
 _atom_site_symmetry_multiplicity
 _atom_site_fract_x
 _atom_site_fract_y
 _atom_site_fract_z
 _atom_site_occupancy
  Mn  Mn0  1  0.01486400  0.17633600  0.41937300  1
  Mn  Mn1  1  0.01998200  0.84501900  0.24303100  1
  Mn  Mn2  1  0.03428200  0.16678300  0.08133700  1
  Mn  Mn3  1  0.00446800  0.14975500  0.74079700  1
  Mn  Mn4  1  0.02416600  0.85712500  0.57694100  1
  Mn  Mn5  1  0.02075600  0.86059400  0.91127100  1
  Mn  Mn6  1  0.48469600  0.33932000  0.58873300  1
  Mn  Mn7  1  0.50360200  0.32689000  0.92839300  1
  Mn  Mn8  1  0.51074000  0.35230300  0.25281300  1
  Mn  Mn9  1  0.48994400  0.64081300  0.08503200  1
  Mn  Mn10  1  0.49609100  0.64126400  0.42239900  1
  Mn  Mn11  1  0.49734700  0.64723400  0.75218100  1
  O  O0  1  0.21292200  0.10677900  0.63393000  1
  O  O1  1  0.22013700  0.11660500  0.97244000  1
  O  O2  1  0.23550400  0.88693700  0.13404500  1
  O  O3  1  0.22450000  0.89102600  0.47030300  1
  O  O4  1  0.22716500  0.88734700  0.79843400  1
  O  O5  1  0.28865000  0.39431000  0.14815500  1
  O  O6  1  0.28271300  0.40104500  0.48303300  1
  O  O7  1  0.72499200  0.38184100  0.03061500  1
  O  O8  1  0.72226400  0.38782500  0.36230700  1
  O  O9  1  0.70543900  0.37284200  0.69452100  1
  F  F0  1  0.23472600  0.11582200  0.30461300  1
  F  F1  1  0.25908100  0.60894200  0.30961600  1
  F  F2  1  0.25204900  0.60762800  0.64649300  1
  F  F3  1  0.26761100  0.38504500  0.81747300  1
  F  F4  1  0.25434300  0.61317500  0.97295600  1
  F  F5  1  0.73743000  0.61790700  0.19786900  1
  F  F6  1  0.75157800  0.62137300  0.53453200  1
  F  F7  1  0.72885100  0.61509900  0.86382300  1
  F  F8  1  0.78278800  0.12699600  0.18950900  1
  F  F9  1  0.74801500  0.11988100  0.52368300  1
  F  F10  1  0.75762200  0.87885200  0.35711100  1
  F  F11  1  0.75189900  0.87161600  0.02198300  1
  F  F12  1  0.76707100  0.12007800  0.84882700  1
  F  F13  1  0.76171000  0.86759300  0.68142600  1
loop_
_geom_bond_atom_site_label_1
_geom_bond_atom_site_label_2
_geom_bond_distance
_geom_bond_site_symmetry_2
Mn0 O8 2.020319 1_455
Mn0 O3 2.052420 1_545
Mn0 O6 2.086005 1_555
Mn1 O2 1.992384 1_555
Mn2 O1 1.924871 1_554
Mn2 O2 2.021242 1_545
Mn2 O7 2.043250 1_455
Mn2 O5 2.082534 1_555
Mn3 O0 1.941075 1_555
Mn3 O9 2.011288 1_455
Mn3 O4 2.026369 1_545
Mn4 O3 1.920090 1_555
Mn4 O0 1.929826 1_565
Mn5 O1 2.012497 1_565
Mn5 O4 2.013864 1_555
Mn6 O6 1.943678 1_555
Mn6 O9 1.974896 1_555
Mn6 O0 1.995789 1_555
Mn7 O1 1.941262 1_555
Mn7 O7 1.947541 1_556
Mn8 O5 1.962315 1_555
Mn8 O8 2.003354 1_555
Mn9 O2 1.972091 1_555
Mn9 O5 1.982521 1_555
Mn9 O7 2.008759 1_555
Mn10 O6 1.966066 1_555
Mn10 O8 2.003920 1_555
Mn10 O3 2.027506 1_555
Mn11 O4 1.976176 1_555
Mn11 O9 2.035092 1_555
F0 Mn8 2.062174 1_555
F0 Mn0 2.086317 1_555
F0 Mn1 2.114634 1_545
F1 Mn1 2.029649 1_555
F1 Mn8 2.056520 1_555
F1 Mn10 2.107561 1_555
F2 Mn11 2.041483 1_555
F2 Mn6 2.064383 1_555
F2 Mn4 2.078154 1_555
F3 Mn7 2.091180 1_555
F3 Mn11 2.131554 1_555
F3 Mn3 2.216629 1_555
F4 Mn5 2.021054 1_555
F4 Mn9 2.092051 1_556
F4 Mn7 2.103432 1_555
F5 Mn1 2.017331 1_655
F5 Mn8 2.066570 1_555
F5 Mn9 2.126146 1_555
F6 Mn4 2.004928 1_655
F6 Mn10 2.137144 1_555
F6 Mn6 2.236636 1_555
F7 Mn11 2.073156 1_555
F7 Mn5 2.130560 1_655
F7 Mn7 2.226411 1_555
F8 Mn8 2.038759 1_555
F8 Mn2 2.069682 1_655
F8 Mn1 2.116167 1_645
F9 Mn6 2.007176 1_555
F9 Mn0 2.077523 1_655
F9 Mn4 2.134769 1_645
F10 Mn10 2.116273 1_555
F10 Mn1 2.163209 1_655
F10 Mn0 2.337653 1_665
F11 Mn9 2.075118 1_555
F11 Mn5 2.131874 1_654
F11 Mn2 2.375090 1_665
F12 Mn3 2.024803 1_655
F12 Mn7 2.089805 1_555
F12 Mn5 2.124599 1_645
F13 Mn4 2.035912 1_655
F13 Mn11 2.103512 1_555
F13 Mn3 2.216236 1_665
