# generated using pymatgen
data_Co2SbO6
_symmetry_space_group_name_H-M   'P 1'
_cell_length_a   5.10236855
_cell_length_b   5.10236855
_cell_length_c   9.78761700
_cell_angle_alpha   90.00000000
_cell_angle_beta   90.00000000
_cell_angle_gamma   120.14898738
_symmetry_Int_Tables_number   1
_chemical_formula_structural   Co2SbO6
_chemical_formula_sum   'Co4 Sb2 O12'
_cell_volume   220.34199893
_cell_formula_units_Z   2
loop_
 _symmetry_equiv_pos_site_id
 _symmetry_equiv_pos_as_xyz
  1  'x, y, z'
loop_
 _atom_site_type_symbol
 _atom_site_label
 _atom_site_symmetry_multiplicity
 _atom_site_fract_x
 _atom_site_fract_y
 _atom_site_fract_z
 _atom_site_occupancy
  Co  Co0  1  0.83337300  0.16662700  0.50000000  1
  Co  Co1  1  0.33337300  0.66662700  0.00000000  1
  Co  Co2  1  0.66662700  0.33337300  0.00000000  1
  Co  Co3  1  0.16662700  0.83337300  0.50000000  1
  Sb  Sb0  1  0.50000000  0.50000000  0.50000000  1
  Sb  Sb1  1  0.00000000  0.00000000  0.00000000  1
  O  O0  1  0.65069100  0.65069100  0.09977200  1
  O  O1  1  0.84930900  0.84930900  0.59977200  1
  O  O2  1  0.15069100  0.15069100  0.40022800  1
  O  O3  1  0.50052800  0.84927000  0.40117200  1
  O  O4  1  0.34930900  0.34930900  0.90022800  1
  O  O5  1  0.65073000  0.99947200  0.90117200  1
  O  O6  1  0.00052800  0.34927000  0.09882800  1
  O  O7  1  0.15073000  0.49947200  0.59882800  1
  O  O8  1  0.49947200  0.15073000  0.59882800  1
  O  O9  1  0.84927000  0.50052800  0.40117200  1
  O  O10  1  0.99947200  0.65073000  0.90117200  1
  O  O11  1  0.34927000  0.00052800  0.09882800  1
loop_
_geom_bond_atom_site_label_1
_geom_bond_atom_site_label_2
_geom_bond_distance
_geom_bond_site_symmetry_2
Co0 O3 1.918209 1_545
Co0 O7 1.918209 1_655
Co0 O8 1.925088 1_555
Co0 O9 1.925088 1_555
Co0 O2 1.927138 1_655
Co0 O1 1.927138 1_545
Co1 O6 1.918209 1_555
Co1 O5 1.918209 1_554
Co1 O10 1.925088 1_454
Co1 O11 1.925088 1_565
Co1 O4 1.927138 1_554
Co1 O0 1.927138 1_555
Co2 O11 1.918209 1_555
Co2 O10 1.918209 1_554
Co2 O5 1.925088 1_544
Co2 O6 1.925088 1_655
Co2 O4 1.927138 1_554
Co2 O0 1.927138 1_555
Co3 O8 1.918209 1_565
Co3 O9 1.918209 1_455
Co3 O7 1.925088 1_555
Co3 O3 1.925088 1_555
Co3 O1 1.927138 1_455
Co3 O2 1.927138 1_565
O0 Sb1 2.028773 1_665
O1 Sb0 2.028773 1_555
O2 Sb0 2.028773 1_555
O3 Sb0 2.026507 1_555
O4 Sb1 2.028773 1_556
O5 Sb1 2.026507 1_666
O6 Sb1 2.026507 1_555
O7 Sb0 2.026507 1_555
O8 Sb0 2.026507 1_555
O9 Sb0 2.026507 1_555
O10 Sb1 2.026507 1_666
O11 Sb1 2.026507 1_555
