# generated using pymatgen
data_Mn6O5F7
_symmetry_space_group_name_H-M   'P 1'
_cell_length_a   4.73055600
_cell_length_b   5.76206343
_cell_length_c   15.57362437
_cell_angle_alpha   89.97811937
_cell_angle_beta   89.87930208
_cell_angle_gamma   88.40467784
_symmetry_Int_Tables_number   1
_chemical_formula_structural   Mn6O5F7
_chemical_formula_sum   'Mn12 O10 F14'
_cell_volume   424.33666875
_cell_formula_units_Z   2
loop_
 _symmetry_equiv_pos_site_id
 _symmetry_equiv_pos_as_xyz
  1  'x, y, z'
loop_
 _atom_site_type_symbol
 _atom_site_label
 _atom_site_symmetry_multiplicity
 _atom_site_fract_x
 _atom_site_fract_y
 _atom_site_fract_z
 _atom_site_occupancy
  Mn  Mn0  1  0.04824500  0.84753500  0.58625300  1
  Mn  Mn1  1  0.98889200  0.15232200  0.75521300  1
  Mn  Mn2  1  0.00993800  0.86155600  0.92095000  1
  Mn  Mn3  1  0.00764100  0.81261200  0.25334300  1
  Mn  Mn4  1  0.01814800  0.13226500  0.41827700  1
  Mn  Mn5  1  0.04957400  0.16198100  0.07996700  1
  Mn  Mn6  1  0.48577000  0.66455700  0.41606500  1
  Mn  Mn7  1  0.47647900  0.65186600  0.07951000  1
  Mn  Mn8  1  0.49632300  0.65034400  0.74766700  1
  Mn  Mn9  1  0.47662500  0.32985600  0.91079400  1
  Mn  Mn10  1  0.47687100  0.33966200  0.57657200  1
  Mn  Mn11  1  0.51051500  0.37627600  0.25036000  1
  O  O0  1  0.22225700  0.89092400  0.69563100  1
  O  O1  1  0.21418400  0.87899800  0.36315200  1
  O  O2  1  0.22594200  0.89908700  0.02525600  1
  O  O3  1  0.20156100  0.10211500  0.86164300  1
  O  O4  1  0.21902200  0.10439400  0.52722300  1
  O  O5  1  0.28765200  0.61921700  0.52519300  1
  O  O6  1  0.29050100  0.61068200  0.18729500  1
  O  O7  1  0.28426300  0.38505300  0.02047300  1
  O  O8  1  0.69947400  0.37031400  0.80593500  1
  O  O9  1  0.70110000  0.61826000  0.30927200  1
  F  F0  1  0.26430500  0.12684400  0.19966500  1
  F  F1  1  0.24904700  0.60319800  0.85936400  1
  F  F2  1  0.25095800  0.39542300  0.69117200  1
  F  F3  1  0.25208800  0.38427300  0.36026100  1
  F  F4  1  0.73053500  0.63767500  0.97276500  1
  F  F5  1  0.75452100  0.61525900  0.63607700  1
  F  F6  1  0.73710300  0.37460500  0.46542500  1
  F  F7  1  0.77460800  0.39086600  0.13395700  1
  F  F8  1  0.75400800  0.86686700  0.81669400  1
  F  F9  1  0.77419800  0.87079800  0.48435600  1
  F  F10  1  0.76087600  0.11809700  0.64243100  1
  F  F11  1  0.75160800  0.13086500  0.97595200  1
  F  F12  1  0.78649700  0.89670700  0.13859800  1
  F  F13  1  0.76867400  0.12864900  0.30724200  1
loop_
_geom_bond_atom_site_label_1
_geom_bond_atom_site_label_2
_geom_bond_distance
_geom_bond_site_symmetry_2
Mn0 O0 1.912962 1_555
Mn0 O4 1.936674 1_565
Mn0 O5 1.957319 1_555
Mn1 O3 1.957952 1_655
Mn1 O8 1.994150 1_555
Mn1 O0 2.062157 1_645
Mn2 O3 1.913523 1_565
Mn2 O2 1.936284 1_556
Mn3 O1 2.013417 1_555
Mn3 O6 2.027496 1_555
Mn3 O9 2.049377 1_455
Mn4 O1 1.910218 1_545
Mn4 O4 1.950790 1_555
Mn5 O2 1.909018 1_545
Mn5 O7 1.953813 1_555
Mn6 O1 1.942086 1_555
Mn6 O5 1.959989 1_555
Mn6 O9 1.962887 1_555
Mn7 O6 1.911317 1_555
Mn7 O2 2.014215 1_555
Mn7 O7 2.029324 1_555
Mn8 O0 2.040283 1_555
Mn8 O8 2.065616 1_555
Mn9 O7 1.955651 1_556
Mn9 O8 1.959241 1_555
Mn9 O3 2.025123 1_555
Mn10 O5 1.989459 1_555
Mn10 O4 2.003257 1_555
Mn11 O9 1.916558 1_555
Mn11 O6 1.948633 1_555
F0 Mn11 2.035555 1_555
F0 Mn5 2.131680 1_555
F0 Mn3 2.359737 1_545
F1 Mn9 2.046816 1_555
F1 Mn2 2.078040 1_555
F1 Mn8 2.115853 1_555
F2 Mn8 2.092645 1_555
F2 Mn10 2.098550 1_555
F2 Mn1 2.141065 1_455
F3 Mn4 2.057638 1_555
F3 Mn11 2.100993 1_555
F3 Mn6 2.165662 1_555
F4 Mn2 2.037628 1_655
F4 Mn7 2.049605 1_556
F4 Mn9 2.375899 1_555
F5 Mn0 2.102909 1_655
F5 Mn8 2.128491 1_555
F5 Mn10 2.286496 1_555
F6 Mn4 2.037127 1_655
F6 Mn10 2.134664 1_555
F6 Mn6 2.165200 1_555
F7 Mn5 2.009725 1_655
F7 Mn11 2.202346 1_555
F7 Mn7 2.203558 1_555
F8 Mn2 2.027094 1_655
F8 Mn8 2.071075 1_555
F8 Mn1 2.225502 1_565
F9 Mn0 2.053218 1_655
F9 Mn6 2.121877 1_555
F9 Mn4 2.179729 1_665
F10 Mn1 2.075446 1_555
F10 Mn10 2.096706 1_555
F10 Mn0 2.218546 1_645
F11 Mn9 1.989513 1_555
F11 Mn2 2.127474 1_645
F11 Mn5 2.160306 1_656
F12 Mn3 2.121683 1_655
F12 Mn5 2.195218 1_665
F12 Mn7 2.260485 1_555
F13 Mn11 2.053926 1_555
F13 Mn4 2.096038 1_655
F13 Mn3 2.276222 1_645
