# generated using pymatgen
data_LiTm2Ir
_symmetry_space_group_name_H-M   'P 1'
_cell_length_a   4.81772592
_cell_length_b   4.81772592
_cell_length_c   4.81772592
_cell_angle_alpha   60.00000000
_cell_angle_beta   60.00000000
_cell_angle_gamma   60.00000000
_symmetry_Int_Tables_number   1
_chemical_formula_structural   LiTm2Ir
_chemical_formula_sum   'Li1 Tm2 Ir1'
_cell_volume   79.06991485
_cell_formula_units_Z   1
loop_
 _symmetry_equiv_pos_site_id
 _symmetry_equiv_pos_as_xyz
  1  'x, y, z'
loop_
 _atom_site_type_symbol
 _atom_site_label
 _atom_site_symmetry_multiplicity
 _atom_site_fract_x
 _atom_site_fract_y
 _atom_site_fract_z
 _atom_site_occupancy
  Li  Li0  1  0.75000000  0.75000000  0.75000000  1
  Tm  Tm0  1  0.00000000  -0.00000000  0.00000000  1
  Tm  Tm1  1  0.50000000  0.50000000  0.50000000  1
  Ir  Ir0  1  0.24999900  0.24999900  0.24999900  1
loop_
_geom_bond_atom_site_label_1
_geom_bond_atom_site_label_2
_geom_bond_distance
_geom_bond_site_symmetry_2
Li0 Tm1 2.950243 1_565
Li0 Tm1 2.950243 1_556
Li0 Tm0 2.950243 1_566
Li0 Tm1 2.950243 1_655
Li0 Tm0 2.950243 1_666
Li0 Tm1 2.950243 1_555
Li0 Tm0 2.950243 1_656
Li0 Tm0 2.950243 1_665
Ir0 Tm0 2.950231 1_555
Ir0 Tm1 2.950239 1_455
Ir0 Tm1 2.950239 1_554
Ir0 Tm1 2.950239 1_545
Ir0 Tm0 2.950246 1_565
Ir0 Tm0 2.950246 1_556
Ir0 Tm0 2.950246 1_655
Ir0 Tm1 2.950254 1_555
