# generated using pymatgen
data_Ta2NbIr
_symmetry_space_group_name_H-M   'P 1'
_cell_length_a   4.56119427
_cell_length_b   4.56119427
_cell_length_c   4.56119427
_cell_angle_alpha   60.00000000
_cell_angle_beta   60.00000000
_cell_angle_gamma   60.00000000
_symmetry_Int_Tables_number   1
_chemical_formula_structural   Ta2NbIr
_chemical_formula_sum   'Ta2 Nb1 Ir1'
_cell_volume   67.09972078
_cell_formula_units_Z   1
loop_
 _symmetry_equiv_pos_site_id
 _symmetry_equiv_pos_as_xyz
  1  'x, y, z'
loop_
 _atom_site_type_symbol
 _atom_site_label
 _atom_site_symmetry_multiplicity
 _atom_site_fract_x
 _atom_site_fract_y
 _atom_site_fract_z
 _atom_site_occupancy
  Ta  Ta0  1  0.00000000  0.00000000  -0.00000000  1
  Ta  Ta1  1  0.50000100  0.50000100  0.50000100  1
  Nb  Nb0  1  0.75000000  0.75000000  0.75000000  1
  Ir  Ir0  1  0.24999900  0.24999900  0.24999900  1
loop_
_geom_bond_atom_site_label_1
_geom_bond_atom_site_label_2
_geom_bond_distance
_geom_bond_site_symmetry_2
Nb0 Ta1 2.793138 1_555
Nb0 Ta0 2.793150 1_656
Nb0 Ta0 2.793150 1_665
Nb0 Ta0 2.793150 1_666
Nb0 Ta0 2.793150 1_566
Nb0 Ta1 2.793153 1_565
Nb0 Ta1 2.793153 1_655
Nb0 Ta1 2.793153 1_556
Ir0 Ta0 2.793138 1_555
Ir0 Ta1 2.793142 1_554
Ir0 Ta1 2.793142 1_455
Ir0 Ta1 2.793142 1_545
Ir0 Ta0 2.793153 1_565
Ir0 Ta0 2.793153 1_556
Ir0 Ta0 2.793153 1_655
Ir0 Ta1 2.793172 1_555
Ir0 Nb0 3.225245 1_454
Ir0 Nb0 3.225245 1_544
Ir0 Nb0 3.225245 1_445
Ir0 Nb0 3.225258 1_554
Ir0 Nb0 3.225258 1_455
Ir0 Nb0 3.225258 1_545
