# generated using pymatgen
data_Co3(OF2)2
_symmetry_space_group_name_H-M   'P 1'
_cell_length_a   5.50760100
_cell_length_b   5.57278103
_cell_length_c   7.13662475
_cell_angle_alpha   73.76559008
_cell_angle_beta   73.51580748
_cell_angle_gamma   72.03467705
_symmetry_Int_Tables_number   1
_chemical_formula_structural   Co3(OF2)2
_chemical_formula_sum   'Co6 O4 F8'
_cell_volume   195.31949255
_cell_formula_units_Z   2
loop_
 _symmetry_equiv_pos_site_id
 _symmetry_equiv_pos_as_xyz
  1  'x, y, z'
loop_
 _atom_site_type_symbol
 _atom_site_label
 _atom_site_symmetry_multiplicity
 _atom_site_fract_x
 _atom_site_fract_y
 _atom_site_fract_z
 _atom_site_occupancy
  Co  Co0  1  0.69426100  0.67808900  0.84058800  1
  Co  Co1  1  0.69178500  0.63231000  0.32218300  1
  Co  Co2  1  0.30821500  0.36769000  0.67781700  1
  Co  Co3  1  0.30573900  0.32191100  0.15941200  1
  Co  Co4  1  0.00000000  0.00000000  0.50000000  1
  Co  Co5  1  0.00000000  0.00000000  0.00000000  1
  O  O0  1  0.02230300  0.66671100  0.66827900  1
  O  O1  1  0.20985700  0.23545800  0.96788400  1
  O  O2  1  0.79014300  0.76454200  0.03211600  1
  O  O3  1  0.97769700  0.33328900  0.33172100  1
  F  F0  1  0.37725600  0.94202900  0.33668100  1
  F  F1  1  0.58184400  0.57420300  0.63408000  1
  F  F2  1  0.91001000  0.88922200  0.29732000  1
  F  F3  1  0.41815600  0.42579700  0.36592000  1
  F  F4  1  0.08999000  0.11077800  0.70268000  1
  F  F5  1  0.62274400  0.05797100  0.66331900  1
  F  F6  1  0.32102200  0.70380600  0.99369400  1
  F  F7  1  0.67897800  0.29619400  0.00630600  1
loop_
_geom_bond_atom_site_label_1
_geom_bond_atom_site_label_2
_geom_bond_distance
_geom_bond_site_symmetry_2
Co0 O2 1.820463 1_556
Co0 O0 1.868833 1_655
Co0 F6 2.017743 1_555
Co0 F1 2.026456 1_555
Co0 F5 2.123258 1_565
Co0 F7 2.140509 1_556
Co1 O3 1.907822 1_555
Co1 O2 1.969443 1_555
Co1 F0 2.035761 1_555
Co1 F3 2.072476 1_555
Co1 F2 2.079493 1_555
Co1 F1 2.092643 1_555
Co2 O0 1.907822 1_555
Co2 O1 1.969443 1_555
Co2 F5 2.035761 1_555
Co2 F1 2.072476 1_555
Co2 F4 2.079493 1_555
Co2 F3 2.092643 1_555
Co3 O1 1.820463 1_554
Co3 O3 1.868833 1_455
Co3 F7 2.017743 1_555
Co3 F3 2.026456 1_555
Co3 F0 2.123258 1_545
Co3 F6 2.140509 1_554
Co4 O0 1.898125 1_545
Co4 O3 1.898125 1_455
Co4 F4 1.952909 1_555
Co4 F2 1.952909 1_445
Co4 F0 2.049910 1_545
Co4 F5 2.049910 1_455
Co5 O2 1.930608 1_445
Co5 O1 1.930608 1_554
Co5 F2 1.997140 1_445
Co5 F4 1.997140 1_554
Co5 F6 2.012136 1_544
Co5 F7 2.012136 1_455
