# generated using pymatgen
data_Li9Cr19O48
_symmetry_space_group_name_H-M   'P 1'
_cell_length_a   5.05405400
_cell_length_b   10.18300069
_cell_length_c   17.29302586
_cell_angle_alpha   89.99226151
_cell_angle_beta   89.82386839
_cell_angle_gamma   89.96698305
_symmetry_Int_Tables_number   1
_chemical_formula_structural   Li9Cr19O48
_chemical_formula_sum   'Li9 Cr19 O48'
_cell_volume   889.98874407
_cell_formula_units_Z   1
loop_
 _symmetry_equiv_pos_site_id
 _symmetry_equiv_pos_as_xyz
  1  'x, y, z'
loop_
 _atom_site_type_symbol
 _atom_site_label
 _atom_site_symmetry_multiplicity
 _atom_site_fract_x
 _atom_site_fract_y
 _atom_site_fract_z
 _atom_site_occupancy
  Li  Li0  1  0.25398300  0.57911200  0.02964900  1
  Li  Li1  1  0.24560800  0.24874500  0.69851500  1
  Li  Li2  1  0.25389900  0.75378400  0.19670200  1
  Li  Li3  1  0.24870800  0.41980700  0.52868600  1
  Li  Li4  1  0.40177600  0.25018800  0.24837900  1
  Li  Li5  1  0.59689400  0.74985400  0.75144100  1
  Li  Li6  1  0.75121200  0.91972800  0.47120300  1
  Li  Li7  1  0.74597300  0.24719300  0.80172300  1
  Li  Li8  1  0.75665600  0.75286500  0.30015500  1
  Cr  Cr0  1  0.09609100  0.75118700  0.74777600  1
  Cr  Cr1  1  0.20642700  0.25215300  0.05835800  1
  Cr  Cr2  1  0.22165300  0.97398600  0.34388700  1
  Cr  Cr3  1  0.21996000  0.52710300  0.34666600  1
  Cr  Cr4  1  0.25444500  0.92963300  0.02671400  1
  Cr  Cr5  1  0.24847500  0.06908400  0.52377900  1
  Cr  Cr6  1  0.27308200  0.47292400  0.84639000  1
  Cr  Cr7  1  0.27802300  0.02761600  0.84436700  1
  Cr  Cr8  1  0.27973800  0.74857100  0.55626300  1
  Cr  Cr9  1  0.72009800  0.24887200  0.44394400  1
  Cr  Cr10  1  0.72129600  0.97417700  0.15593300  1
  Cr  Cr11  1  0.72860000  0.52509000  0.15546300  1
  Cr  Cr12  1  0.75127500  0.56918200  0.47593900  1
  Cr  Cr13  1  0.74179500  0.43095000  0.97506100  1
  Cr  Cr14  1  0.74694900  0.07238700  0.97356200  1
  Cr  Cr15  1  0.77843800  0.47375400  0.65606400  1
  Cr  Cr16  1  0.77992500  0.02673300  0.65346900  1
  Cr  Cr17  1  0.79888600  0.75172800  0.94192100  1
  Cr  Cr18  1  0.90273600  0.24894700  0.25257000  1
  O  O0  1  0.05653900  0.75787700  0.00735000  1
  O  O1  1  0.04618200  0.39195200  0.63148300  1
  O  O2  1  0.05705500  0.10899500  0.62489800  1
  O  O3  1  0.10159300  0.37588200  0.79194700  1
  O  O4  1  0.09371000  0.12708100  0.79083200  1
  O  O5  1  0.09824700  0.88863300  0.53374600  1
  O  O6  1  0.07297800  0.61912300  0.53322500  1
  O  O7  1  0.07976400  0.99332100  0.92689600  1
  O  O8  1  0.08039800  0.50255600  0.92390500  1
  O  O9  1  0.13780300  0.25063100  0.15574900  1
  O  O10  1  0.14499600  0.38707200  0.29885300  1
  O  O11  1  0.14445400  0.11465800  0.29579800  1
  O  O12  1  0.33371100  0.88266100  0.79546500  1
  O  O13  1  0.33023100  0.61490600  0.79797600  1
  O  O14  1  0.33070500  0.74911500  0.65598100  1
  O  O15  1  0.40574100  0.00966400  0.42372800  1
  O  O16  1  0.41630800  0.49484600  0.42286400  1
  O  O17  1  0.41321000  0.10908500  0.03383500  1
  O  O18  1  0.42040900  0.37909000  0.03128400  1
  O  O19  1  0.41198400  0.88182000  0.28975600  1
  O  O20  1  0.39432600  0.62303600  0.29146600  1
  O  O21  1  0.43077200  0.89250200  0.12618800  1
  O  O22  1  0.45526800  0.60303000  0.13236900  1
  O  O23  1  0.44619100  0.23969600  0.50589100  1
  O  O24  1  0.55345600  0.73984700  0.49433000  1
  O  O25  1  0.55835100  0.39575200  0.87315600  1
  O  O26  1  0.55979700  0.11119900  0.87355500  1
  O  O27  1  0.59106200  0.38007700  0.71024300  1
  O  O28  1  0.60507800  0.12121200  0.70972200  1
  O  O29  1  0.58375100  0.88753800  0.96548100  1
  O  O30  1  0.60218600  0.61574100  0.96504900  1
  O  O31  1  0.58350300  0.99487900  0.57743300  1
  O  O32  1  0.59427400  0.50941100  0.57634900  1
  O  O33  1  0.66875600  0.24991700  0.34446100  1
  O  O34  1  0.66377600  0.38406300  0.20488700  1
  O  O35  1  0.66472900  0.12001700  0.20311200  1
  O  O36  1  0.85519100  0.88653200  0.70121500  1
  O  O37  1  0.85467300  0.61420100  0.70448500  1
  O  O38  1  0.85915100  0.75070200  0.84404300  1
  O  O39  1  0.90879100  0.48702500  0.07440800  1
  O  O40  1  0.91917400  0.01110300  0.07109400  1
  O  O41  1  0.90173800  0.38873700  0.46642400  1
  O  O42  1  0.92704400  0.11902400  0.46664200  1
  O  O43  1  0.90792700  0.87041100  0.20437800  1
  O  O44  1  0.91318400  0.61919700  0.20894000  1
  O  O45  1  0.95493200  0.89166000  0.36850100  1
  O  O46  1  0.94130800  0.60917100  0.37484800  1
  O  O47  1  0.92299200  0.25000400  0.99118500  1
loop_
_geom_bond_atom_site_label_1
_geom_bond_atom_site_label_2
_geom_bond_distance
_geom_bond_site_symmetry_2
Li0 O22 2.064249 1_555
Li0 O0 2.111468 1_555
Li0 O30 2.114872 1_554
Li0 O39 2.124973 1_455
Li0 O8 2.175393 1_554
Li0 O18 2.203429 1_555
Li1 O1 2.119245 1_555
Li1 O2 2.136226 1_555
Li1 O4 2.160069 1_555
Li1 O3 2.192868 1_555
Li1 O27 2.209730 1_555
Li1 O28 2.241466 1_555
Li2 O21 2.067769 1_555
Li2 O43 2.117010 1_455
Li2 O22 2.149831 1_555
Li2 O44 2.211044 1_455
Li2 O19 2.222020 1_555
Li2 O20 2.228755 1_555
Li3 O1 2.068162 1_555
Li3 O41 2.084910 1_455
Li3 O23 2.123924 1_555
Li3 O32 2.138479 1_555
Li3 O16 2.154314 1_555
Li3 O6 2.216286 1_555
Li4 O35 2.031712 1_555
Li4 O34 2.042841 1_555
Li4 O11 2.064865 1_555
Li4 O9 2.087821 1_555
Li4 O10 2.092918 1_555
Li4 O33 2.143648 1_555
Li5 O12 2.041999 1_555
Li5 O37 2.063151 1_555
Li5 O38 2.081915 1_555
Li5 O13 2.085064 1_555
Li5 O36 2.095345 1_555
Li5 O14 2.132783 1_555
Li6 O45 2.069933 1_555
Li6 O5 2.087401 1_655
Li6 O24 2.124517 1_555
Li6 O15 2.137318 1_565
Li6 O31 2.160749 1_555
Li6 O42 2.217237 1_565
Li7 O26 2.083270 1_555
Li7 O4 2.148427 1_655
Li7 O28 2.166238 1_555
Li7 O25 2.169164 1_555
Li7 O27 2.225409 1_555
Li7 O3 2.230917 1_655
Li8 O45 2.099531 1_555
Li8 O46 2.164655 1_555
Li8 O43 2.180190 1_555
Li8 O19 2.188711 1_555
Li8 O44 2.226736 1_555
Li8 O20 2.264586 1_555
Cr0 O14 1.978571 1_555
Cr0 O12 1.980657 1_555
Cr0 O37 2.000719 1_455
Cr0 O36 2.008470 1_455
Cr0 O13 2.020864 1_555
Cr0 O38 2.047726 1_455
Cr1 O9 1.718551 1_555
Cr1 O18 1.748698 1_555
Cr1 O17 1.841247 1_555
Cr1 O47 1.847205 1_454
Cr2 O19 1.635876 1_555
Cr2 O45 1.642806 1_455
Cr2 O11 1.701992 1_565
Cr2 O15 1.706562 1_565
Cr3 O20 1.624099 1_555
Cr3 O16 1.684198 1_555
Cr3 O10 1.692145 1_555
Cr3 O46 1.706988 1_455
Cr4 O21 1.976136 1_555
Cr4 O17 2.000156 1_565
Cr4 O29 2.015808 1_554
Cr4 O40 2.034469 1_465
Cr4 O0 2.043476 1_555
Cr4 O7 2.046469 1_554
Cr5 O42 1.970476 1_455
Cr5 O15 1.995666 1_555
Cr5 O5 1.995853 1_545
Cr5 O23 2.027939 1_555
Cr5 O2 2.036726 1_555
Cr5 O31 2.075320 1_545
Cr6 O3 1.618746 1_555
Cr6 O8 1.681668 1_555
Cr6 O13 1.695106 1_555
Cr6 O25 1.706803 1_555
Cr7 O4 1.659713 1_555
Cr7 O12 1.723821 1_545
Cr7 O26 1.735852 1_555
Cr7 O7 1.776033 1_545
Cr8 O6 1.729900 1_555
Cr8 O5 1.740037 1_555
Cr8 O14 1.744352 1_555
Cr8 O24 1.749138 1_555
Cr9 O42 1.731221 1_555
Cr9 O41 1.739600 1_555
Cr9 O33 1.740640 1_555
Cr9 O23 1.750347 1_555
Cr10 O43 1.646672 1_555
Cr10 O35 1.717925 1_565
Cr10 O21 1.765913 1_555
Cr10 O40 1.812533 1_565
Cr11 O44 1.628008 1_555
Cr11 O22 1.643106 1_555
Cr11 O34 1.702540 1_555
Cr11 O39 1.713542 1_555
Cr12 O6 1.973465 1_655
Cr12 O41 1.994833 1_555
Cr12 O32 2.001735 1_555
Cr12 O24 2.029076 1_555
Cr12 O46 2.033295 1_555
Cr12 O16 2.071876 1_555
Cr13 O18 1.963079 1_556
Cr13 O39 1.999924 1_556
Cr13 O30 2.016895 1_555
Cr13 O25 2.025872 1_555
Cr13 O8 2.057872 1_655
Cr13 O47 2.076286 1_555
Cr14 O40 1.999979 1_556
Cr14 O26 2.012767 1_555
Cr14 O17 2.014867 1_556
Cr14 O7 2.029554 1_645
Cr14 O47 2.039478 1_555
Cr14 O29 2.060469 1_545
Cr15 O27 1.637051 1_555
Cr15 O1 1.643458 1_655
Cr15 O37 1.702332 1_555
Cr15 O32 1.704653 1_555
Cr16 O28 1.626898 1_555
Cr16 O31 1.681719 1_545
Cr16 O36 1.692825 1_545
Cr16 O2 1.704278 1_655
Cr17 O38 1.718903 1_555
Cr17 O0 1.728876 1_656
Cr17 O30 1.750658 1_555
Cr17 O29 1.804572 1_555
Cr18 O35 1.977526 1_555
Cr18 O33 1.977905 1_555
Cr18 O11 1.981070 1_655
Cr18 O34 2.008851 1_555
Cr18 O10 2.031347 1_655
Cr18 O9 2.050097 1_655
