# generated using pymatgen
data_LiVGeO5
_symmetry_space_group_name_H-M   'P 1'
_cell_length_a   6.46030400
_cell_length_b   4.76175800
_cell_length_c   6.57267140
_cell_angle_alpha   87.30817034
_cell_angle_beta   90.00000000
_cell_angle_gamma   90.00000000
_symmetry_Int_Tables_number   1
_chemical_formula_structural   LiVGeO5
_chemical_formula_sum   'Li2 V2 Ge2 O10'
_cell_volume   201.96807338
_cell_formula_units_Z   2
loop_
 _symmetry_equiv_pos_site_id
 _symmetry_equiv_pos_as_xyz
  1  'x, y, z'
loop_
 _atom_site_type_symbol
 _atom_site_label
 _atom_site_symmetry_multiplicity
 _atom_site_fract_x
 _atom_site_fract_y
 _atom_site_fract_z
 _atom_site_occupancy
  Li  Li0  1  0.00000000  0.00000000  0.50000000  1
  Li  Li1  1  0.50000000  0.00000000  0.50000000  1
  V  V0  1  0.75000000  0.38647400  0.75400200  1
  V  V1  1  0.25000000  0.61352600  0.24599800  1
  Ge  Ge0  1  0.25000000  0.49723700  0.74370800  1
  Ge  Ge1  1  0.75000000  0.50276300  0.25629200  1
  O  O0  1  0.25000000  0.67920500  0.97232700  1
  O  O1  1  0.75000000  0.72799200  0.71436200  1
  O  O2  1  0.47027900  0.27648600  0.72870500  1
  O  O3  1  0.02972100  0.27648600  0.72870500  1
  O  O4  1  0.25000000  0.75258800  0.54019900  1
  O  O5  1  0.75000000  0.24741200  0.45980100  1
  O  O6  1  0.97027900  0.72351400  0.27129500  1
  O  O7  1  0.52972100  0.72351400  0.27129500  1
  O  O8  1  0.25000000  0.27200800  0.28563800  1
  O  O9  1  0.75000000  0.32079500  0.02767300  1
loop_
_geom_bond_atom_site_label_1
_geom_bond_atom_site_label_2
_geom_bond_distance
_geom_bond_site_symmetry_2
Li0 O5 2.009229 1_455
Li0 O4 2.009229 1_545
Li0 O6 2.053218 1_445
Li0 O3 2.053218 1_555
Li0 O8 2.469774 1_555
Li0 O1 2.469774 1_445
Li1 O5 2.009229 1_555
Li1 O4 2.009229 1_545
Li1 O7 2.053218 1_545
Li1 O2 2.053218 1_555
Li1 O8 2.469774 1_555
Li1 O1 2.469774 1_545
Ge0 O4 1.764897 1_555
Ge0 O0 1.769468 1_555
Ge0 O3 1.774691 1_555
Ge0 O2 1.774691 1_555
Ge1 O5 1.764897 1_555
Ge1 O9 1.769468 1_555
Ge1 O7 1.774691 1_555
Ge1 O6 1.774691 1_555
O0 V1 1.811207 1_556
O1 V0 1.634838 1_555
O2 V0 1.890945 1_555
O3 V0 1.890945 1_455
O4 V1 2.073137 1_555
O5 V0 2.073137 1_555
O6 V1 1.890945 1_655
O7 V1 1.890945 1_555
O8 V1 1.634838 1_555
O9 V0 1.811207 1_554
