# generated using pymatgen
data_Li8TbO6
_symmetry_space_group_name_H-M   'P 1'
_cell_length_a   6.30715767
_cell_length_b   6.30715767
_cell_length_c   6.30715783
_cell_angle_alpha   53.15338660
_cell_angle_beta   53.15338660
_cell_angle_gamma   53.15338917
_symmetry_Int_Tables_number   1
_chemical_formula_structural   Li8TbO6
_chemical_formula_sum   'Li8 Tb1 O6'
_cell_volume   148.95706704
_cell_formula_units_Z   1
loop_
 _symmetry_equiv_pos_site_id
 _symmetry_equiv_pos_as_xyz
  1  'x, y, z'
loop_
 _atom_site_type_symbol
 _atom_site_label
 _atom_site_symmetry_multiplicity
 _atom_site_fract_x
 _atom_site_fract_y
 _atom_site_fract_z
 _atom_site_occupancy
  Li  Li0  1  0.35344000  0.35344000  0.35344000  1
  Li  Li1  1  0.89786800  0.50719800  0.22653600  1
  Li  Li2  1  0.50719800  0.22653600  0.89786800  1
  Li  Li3  1  0.22653600  0.89786800  0.50719800  1
  Li  Li4  1  0.10213200  0.49280200  0.77346400  1
  Li  Li5  1  0.49280200  0.77346400  0.10213200  1
  Li  Li6  1  0.64656000  0.64656000  0.64656000  1
  Li  Li7  1  0.77346400  0.10213200  0.49280200  1
  Tb  Tb0  1  0.00000000  0.00000000  0.00000000  1
  O  O0  1  0.89850500  0.24281700  0.60166400  1
  O  O1  1  0.39833600  0.10149500  0.75718300  1
  O  O2  1  0.10149500  0.75718300  0.39833600  1
  O  O3  1  0.24281700  0.60166400  0.89850500  1
  O  O4  1  0.60166400  0.89850500  0.24281700  1
  O  O5  1  0.75718300  0.39833600  0.10149500  1
loop_
_geom_bond_atom_site_label_1
_geom_bond_atom_site_label_2
_geom_bond_distance
_geom_bond_site_symmetry_2
Li0 O5 2.135837 1_555
Li0 O1 2.135837 1_555
Li0 O2 2.135837 1_555
Li1 O0 1.910515 1_555
Li1 O3 2.011613 1_654
Li1 O5 2.024891 1_555
Li1 O4 2.033679 1_555
Li2 O3 1.910515 1_555
Li2 O4 2.011613 1_546
Li2 O1 2.024891 1_555
Li2 O0 2.033679 1_555
Li3 O4 1.910515 1_555
Li3 O0 2.011613 1_465
Li3 O2 2.024891 1_555
Li3 O3 2.033679 1_555
Li4 O2 1.910515 1_555
Li4 O5 2.011613 1_456
Li4 O3 2.024891 1_555
Li4 O1 2.033679 1_555
Li5 O5 1.910515 1_555
Li5 O1 2.011613 1_564
Li5 O4 2.024891 1_555
Li5 O2 2.033679 1_555
Li6 O3 2.135837 1_555
Li6 O4 2.135837 1_555
Li6 O0 2.135837 1_555
Li7 O1 1.910515 1_555
Li7 O2 2.011613 1_645
Li7 O0 2.024891 1_555
Li7 O5 2.033679 1_555
O0 Tb0 2.281583 1_656
O1 Tb0 2.281583 1_556
O2 Tb0 2.281583 1_565
O3 Tb0 2.281583 1_566
O4 Tb0 2.281583 1_665
O5 Tb0 2.281583 1_655
