# generated using pymatgen
data_Tm2MgRu
_symmetry_space_group_name_H-M   'P 1'
_cell_length_a   4.92716666
_cell_length_b   4.92716666
_cell_length_c   4.92716666
_cell_angle_alpha   60.00000000
_cell_angle_beta   60.00000000
_cell_angle_gamma   60.00000000
_symmetry_Int_Tables_number   1
_chemical_formula_structural   Tm2MgRu
_chemical_formula_sum   'Tm2 Mg1 Ru1'
_cell_volume   84.58176829
_cell_formula_units_Z   1
loop_
 _symmetry_equiv_pos_site_id
 _symmetry_equiv_pos_as_xyz
  1  'x, y, z'
loop_
 _atom_site_type_symbol
 _atom_site_label
 _atom_site_symmetry_multiplicity
 _atom_site_fract_x
 _atom_site_fract_y
 _atom_site_fract_z
 _atom_site_occupancy
  Tm  Tm0  1  -0.00000000  -0.00000000  0.00000000  1
  Tm  Tm1  1  0.50000100  0.50000100  0.50000100  1
  Mg  Mg0  1  0.25000000  0.25000000  0.25000000  1
  Ru  Ru0  1  0.74999900  0.74999900  0.74999900  1
loop_
_geom_bond_atom_site_label_1
_geom_bond_atom_site_label_2
_geom_bond_distance
_geom_bond_site_symmetry_2
Mg0 Tm1 3.017257 1_545
Mg0 Tm1 3.017257 1_455
Mg0 Tm1 3.017257 1_554
Mg0 Tm0 3.017261 1_655
Mg0 Tm0 3.017261 1_556
Mg0 Tm0 3.017261 1_565
Mg0 Tm0 3.017261 1_555
Mg0 Tm1 3.017273 1_555
Ru0 Tm1 3.017237 1_555
Ru0 Tm0 3.017257 1_656
Ru0 Tm0 3.017257 1_566
Ru0 Tm0 3.017257 1_665
Ru0 Tm1 3.017269 1_556
Ru0 Tm1 3.017269 1_565
Ru0 Tm1 3.017269 1_655
Ru0 Tm0 3.017273 1_666
