# generated using pymatgen
data_Li6Co6O5F11
_symmetry_space_group_name_H-M   'P 1'
_cell_length_a   6.03312084
_cell_length_b   6.03312084
_cell_length_c   10.50870803
_cell_angle_alpha   72.80796019
_cell_angle_beta   72.80796019
_cell_angle_gamma   59.02780780
_symmetry_Int_Tables_number   1
_chemical_formula_structural   Li6Co6O5F11
_chemical_formula_sum   'Li6 Co6 O5 F11'
_cell_volume   308.46677175
_cell_formula_units_Z   1
loop_
 _symmetry_equiv_pos_site_id
 _symmetry_equiv_pos_as_xyz
  1  'x, y, z'
loop_
 _atom_site_type_symbol
 _atom_site_label
 _atom_site_symmetry_multiplicity
 _atom_site_fract_x
 _atom_site_fract_y
 _atom_site_fract_z
 _atom_site_occupancy
  Li  Li0  1  0.37625500  0.37625500  0.87381700  1
  Li  Li1  1  0.19472800  0.19472800  0.44532700  1
  Li  Li2  1  0.50236800  0.50236800  0.50623500  1
  Li  Li3  1  0.86831300  0.86831300  0.37541000  1
  Li  Li4  1  0.44051100  0.44051100  0.19053300  1
  Li  Li5  1  0.00884900  0.00884900  0.99326900  1
  Co  Co0  1  0.93035800  0.93035800  0.68789100  1
  Co  Co1  1  0.69404700  0.69404700  0.91714500  1
  Co  Co2  1  0.97016300  0.42489400  0.18349000  1
  Co  Co3  1  0.47559500  0.92100700  0.68898200  1
  Co  Co4  1  0.92100700  0.47559500  0.68898200  1
  Co  Co5  1  0.42489400  0.97016300  0.18349000  1
  O  O0  1  0.57521700  0.57521700  0.81273500  1
  O  O1  1  0.57111400  0.04293600  0.81213700  1
  O  O2  1  0.04293600  0.57111400  0.81213700  1
  O  O3  1  0.30685400  0.30685400  0.07769900  1
  O  O4  1  0.81220700  0.81220700  0.56883100  1
  F  F0  1  0.07253600  0.07253600  0.79624900  1
  F  F1  1  0.30417200  0.83998600  0.56952100  1
  F  F2  1  0.83998600  0.30417200  0.56952100  1
  F  F3  1  0.07007000  0.54232100  0.30836500  1
  F  F4  1  0.54232100  0.07007000  0.30836500  1
  F  F5  1  0.06812500  0.06812500  0.31610900  1
  F  F6  1  0.80575000  0.80575000  0.06633400  1
  F  F7  1  0.58580300  0.58580300  0.29010000  1
  F  F8  1  0.30285800  0.30285800  0.56980700  1
  F  F9  1  0.80457100  0.34061600  0.07129900  1
  F  F10  1  0.34061600  0.80457100  0.07129900  1
loop_
_geom_bond_atom_site_label_1
_geom_bond_atom_site_label_2
_geom_bond_distance
_geom_bond_site_symmetry_2
Li0 O1 1.932091 1_555
Li0 O2 1.932091 1_555
Li0 O0 1.966164 1_555
Li0 O3 2.015167 1_556
Li3 O4 1.914449 1_555
Li4 O3 2.122766 1_555
Co0 O4 2.039376 1_555
Co0 O2 2.049337 1_655
Co0 O1 2.049337 1_565
Co0 F1 2.099468 1_655
Co0 F2 2.099468 1_565
Co0 F0 2.163405 1_665
Co1 O0 1.921152 1_555
Co1 O1 1.924131 1_565
Co1 O2 1.924131 1_655
Co1 F10 2.179164 1_556
Co1 F9 2.179164 1_556
Co1 F6 2.254527 1_556
Co2 O3 1.874415 1_655
Co2 F3 2.010958 1_655
Co2 F9 2.054285 1_555
Co2 F5 2.080582 1_655
Co2 F7 2.089262 1_555
Co2 F6 2.117332 1_555
Co3 O4 1.936864 1_555
Co3 O0 1.993087 1_555
Co3 O1 1.997041 1_565
Co3 F1 2.129578 1_555
Co3 F8 2.134645 1_565
Co3 F0 2.172630 1_565
Co4 O4 1.936864 1_555
Co4 O0 1.993087 1_555
Co4 O2 1.997041 1_655
Co4 F2 2.129578 1_555
Co4 F8 2.134645 1_655
Co4 F0 2.172630 1_655
Co5 O3 1.874415 1_565
Co5 F4 2.010958 1_565
Co5 F10 2.054285 1_555
Co5 F5 2.080582 1_565
Co5 F7 2.089262 1_555
Co5 F6 2.117332 1_555
F0 Li5 1.947648 1_555
F1 Li2 1.960839 1_555
F1 Li1 2.030644 1_565
F2 Li2 1.960839 1_555
F2 Li1 2.030644 1_655
F3 Li3 1.922064 1_455
F3 Li1 2.065729 1_555
F3 Li4 2.075134 1_555
F4 Li3 1.922064 1_545
F4 Li1 2.065729 1_555
F4 Li4 2.075134 1_555
F5 Li3 1.975419 1_445
F5 Li1 2.199429 1_555
F6 Li5 2.006327 1_664
F7 Li4 2.122903 1_555
F7 Li2 2.138838 1_555
F8 Li2 1.970890 1_555
F8 Li1 2.002324 1_555
F9 Li5 2.007865 1_654
F9 Li4 2.052932 1_555
F10 Li5 2.007865 1_564
F10 Li4 2.052932 1_555
