# generated using pymatgen
data_Ca4Al6SO12
_symmetry_space_group_name_H-M   'P 1'
_cell_length_a   7.87792826
_cell_length_b   7.87792826
_cell_length_c   7.87792826
_cell_angle_alpha   109.47122063
_cell_angle_beta   109.47122063
_cell_angle_gamma   109.47122063
_symmetry_Int_Tables_number   1
_chemical_formula_structural   Ca4Al6SO12
_chemical_formula_sum   'Ca4 Al6 S1 O12'
_cell_volume   376.36928467
_cell_formula_units_Z   1
loop_
 _symmetry_equiv_pos_site_id
 _symmetry_equiv_pos_as_xyz
  1  'x, y, z'
loop_
 _atom_site_type_symbol
 _atom_site_label
 _atom_site_symmetry_multiplicity
 _atom_site_fract_x
 _atom_site_fract_y
 _atom_site_fract_z
 _atom_site_occupancy
  Ca  Ca0  1  0.64653900  0.00000000  0.00000000  1
  Ca  Ca1  1  0.00000000  0.00000000  0.64653900  1
  Ca  Ca2  1  0.00000000  0.64653900  0.00000000  1
  Ca  Ca3  1  0.35346100  0.35346100  0.35346100  1
  Al  Al0  1  0.25000000  0.75000000  0.50000000  1
  Al  Al1  1  0.75000000  0.25000000  0.50000000  1
  Al  Al2  1  0.75000000  0.50000000  0.25000000  1
  Al  Al3  1  0.25000000  0.50000000  0.75000000  1
  Al  Al4  1  0.50000000  0.75000000  0.25000000  1
  Al  Al5  1  0.50000000  0.25000000  0.75000000  1
  S  S0  1  0.00000000  0.00000000  0.00000000  1
  O  O0  1  0.70895800  0.27856900  0.27856900  1
  O  O1  1  0.27856900  0.70895800  0.27856900  1
  O  O2  1  0.29104200  0.56961000  0.56961000  1
  O  O3  1  0.56961000  0.56961000  0.29104200  1
  O  O4  1  0.43039000  0.72143100  0.00000000  1
  O  O5  1  0.00000000  0.72143100  0.43039000  1
  O  O6  1  0.56961000  0.29104200  0.56961000  1
  O  O7  1  0.72143100  0.00000000  0.43039000  1
  O  O8  1  0.43039000  0.00000000  0.72143100  1
  O  O9  1  0.72143100  0.43039000  0.00000000  1
  O  O10  1  0.27856900  0.27856900  0.70895800  1
  O  O11  1  0.00000000  0.43039000  0.72143100  1
loop_
_geom_bond_atom_site_label_1
_geom_bond_atom_site_label_2
_geom_bond_distance
_geom_bond_site_symmetry_2
Ca0 O8 2.285678 1_554
Ca0 O4 2.285678 1_545
Ca0 O0 2.285682 1_555
Ca0 S0 2.784540 1_655
Ca1 O7 2.285678 1_455
Ca1 O5 2.285678 1_545
Ca1 O10 2.285682 1_555
Ca1 S0 2.784540 1_556
Ca2 O9 2.285678 1_455
Ca2 O11 2.285678 1_554
Ca2 O1 2.285682 1_555
Ca2 S0 2.784540 1_565
Ca3 O3 2.285673 1_555
Ca3 O2 2.285673 1_555
Ca3 O6 2.285673 1_555
Ca3 S0 2.784540 1_555
Al0 O1 1.769866 1_555
Al0 O8 1.769867 1_565
Al0 O5 1.769867 1_555
Al0 O2 1.769870 1_555
Al1 O0 1.769866 1_555
Al1 O11 1.769867 1_655
Al1 O7 1.769867 1_555
Al1 O6 1.769870 1_555
Al2 O0 1.769866 1_555
Al2 O5 1.769867 1_655
Al2 O9 1.769867 1_555
Al2 O3 1.769870 1_555
Al3 O10 1.769866 1_555
Al3 O4 1.769867 1_556
Al3 O11 1.769867 1_555
Al3 O2 1.769870 1_555
Al4 O1 1.769866 1_555
Al4 O7 1.769867 1_565
Al4 O4 1.769867 1_555
Al4 O3 1.769870 1_555
Al5 O10 1.769866 1_555
Al5 O8 1.769867 1_555
Al5 O9 1.769867 1_556
Al5 O6 1.769870 1_555
