# generated using pymatgen
data_KSrCO3F
_symmetry_space_group_name_H-M   'P 1'
_cell_length_a   4.76639200
_cell_length_b   5.31426346
_cell_length_c   5.31426346
_cell_angle_alpha   119.99999325
_cell_angle_beta   90.00000000
_cell_angle_gamma   90.00000000
_symmetry_Int_Tables_number   1
_chemical_formula_structural   KSrCO3F
_chemical_formula_sum   'K1 Sr1 C1 O3 F1'
_cell_volume   116.57531031
_cell_formula_units_Z   1
loop_
 _symmetry_equiv_pos_site_id
 _symmetry_equiv_pos_as_xyz
  1  'x, y, z'
loop_
 _atom_site_type_symbol
 _atom_site_label
 _atom_site_symmetry_multiplicity
 _atom_site_fract_x
 _atom_site_fract_y
 _atom_site_fract_z
 _atom_site_occupancy
  K  K0  1  0.00000000  0.66666700  0.33333300  1
  Sr  Sr0  1  0.50000000  0.33333300  0.66666700  1
  C  C0  1  0.50000000  0.00000000  0.00000000  1
  O  O0  1  0.50000000  0.28321900  0.14161000  1
  O  O1  1  0.50000000  0.85839000  0.14161000  1
  O  O2  1  0.50000000  0.85839000  0.71678100  1
  F  F0  1  0.00000000  0.33333300  0.66666700  1
loop_
_geom_bond_atom_site_label_1
_geom_bond_atom_site_label_2
_geom_bond_distance
_geom_bond_site_symmetry_2
K0 O1 2.965449 1_455
K0 O1 2.965449 1_555
K0 O2 2.965455 1_555
K0 O2 2.965455 1_455
K0 O0 2.965455 1_555
K0 O0 2.965455 1_455
C0 O2 1.303455 1_544
C0 O0 1.303455 1_555
C0 O1 1.303460 1_545
O0 Sr0 2.667123 1_554
O0 Sr0 2.667123 1_555
O1 Sr0 2.667123 1_565
O1 Sr0 2.667123 1_554
O2 Sr0 2.667123 1_565
O2 Sr0 2.667123 1_555
F0 Sr0 2.383196 1_455
F0 Sr0 2.383196 1_555
F0 K0 3.068189 1_545
F0 K0 3.068189 1_556
F0 K0 3.068197 1_555
