# generated using pymatgen
data_V2CrRu
_symmetry_space_group_name_H-M   'P 1'
_cell_length_a   4.16779612
_cell_length_b   4.16779612
_cell_length_c   4.16779612
_cell_angle_alpha   60.00000000
_cell_angle_beta   60.00000000
_cell_angle_gamma   60.00000000
_symmetry_Int_Tables_number   1
_chemical_formula_structural   V2CrRu
_chemical_formula_sum   'V2 Cr1 Ru1'
_cell_volume   51.19227152
_cell_formula_units_Z   1
loop_
 _symmetry_equiv_pos_site_id
 _symmetry_equiv_pos_as_xyz
  1  'x, y, z'
loop_
 _atom_site_type_symbol
 _atom_site_label
 _atom_site_symmetry_multiplicity
 _atom_site_fract_x
 _atom_site_fract_y
 _atom_site_fract_z
 _atom_site_occupancy
  V  V0  1  0.49999900  0.49999900  0.49999900  1
  V  V1  1  0.00000000  -0.00000000  -0.00000000  1
  Cr  Cr0  1  0.25000000  0.25000000  0.25000000  1
  Ru  Ru0  1  0.75000000  0.75000000  0.75000000  1
loop_
_geom_bond_atom_site_label_1
_geom_bond_atom_site_label_2
_geom_bond_distance
_geom_bond_site_symmetry_2
Cr0 V0 2.552233 1_555
Cr0 V1 2.552243 1_565
Cr0 V1 2.552243 1_555
Cr0 V1 2.552243 1_556
Cr0 V1 2.552243 1_655
Cr0 V0 2.552247 1_554
Cr0 V0 2.552247 1_545
Cr0 V0 2.552247 1_455
Ru0 V0 2.552240 1_655
Ru0 V0 2.552240 1_565
Ru0 V0 2.552240 1_556
Ru0 V1 2.552243 1_666
Ru0 V1 2.552243 1_665
Ru0 V1 2.552243 1_656
Ru0 V1 2.552243 1_566
Ru0 V0 2.552254 1_555
