# generated using pymatgen
data_Rb4FeO4
_symmetry_space_group_name_H-M   'P 1'
_cell_length_a   6.60221948
_cell_length_b   10.61779766
_cell_length_c   11.16496798
_cell_angle_alpha   69.22225090
_cell_angle_beta   90.00000000
_cell_angle_gamma   90.00000000
_symmetry_Int_Tables_number   1
_chemical_formula_structural   Rb4FeO4
_chemical_formula_sum   'Rb16 Fe4 O16'
_cell_volume   731.77327880
_cell_formula_units_Z   4
loop_
 _symmetry_equiv_pos_site_id
 _symmetry_equiv_pos_as_xyz
  1  'x, y, z'
loop_
 _atom_site_type_symbol
 _atom_site_label
 _atom_site_symmetry_multiplicity
 _atom_site_fract_x
 _atom_site_fract_y
 _atom_site_fract_z
 _atom_site_occupancy
  Rb  Rb0  1  0.68963644  0.27423043  0.10036544  1
  Rb  Rb1  1  0.20045164  0.40192475  0.10798979  1
  Rb  Rb2  1  0.37180134  0.05914343  0.34424034  1
  Rb  Rb3  1  0.81036356  0.77423043  0.10036544  1
  Rb  Rb4  1  0.29954836  0.90192475  0.10798979  1
  Rb  Rb5  1  0.92943085  0.21452108  0.42838383  1
  Rb  Rb6  1  0.12819866  0.55914343  0.34424034  1
  Rb  Rb7  1  0.42943085  0.28547892  0.57161617  1
  Rb  Rb8  1  0.57056915  0.71452108  0.42838383  1
  Rb  Rb9  1  0.87180134  0.44085657  0.65575966  1
  Rb  Rb10  1  0.07056915  0.78547892  0.57161617  1
  Rb  Rb11  1  0.70045164  0.09807525  0.89201021  1
  Rb  Rb12  1  0.18963644  0.22576957  0.89963456  1
  Rb  Rb13  1  0.62819866  0.94085657  0.65575966  1
  Rb  Rb14  1  0.79954836  0.59807525  0.89201021  1
  Rb  Rb15  1  0.31036356  0.72576957  0.89963456  1
  Fe  Fe0  1  0.61922071  0.47868197  0.26262804  1
  Fe  Fe1  1  0.88077929  0.97868197  0.26262804  1
  Fe  Fe2  1  0.11922071  0.02131803  0.73737196  1
  Fe  Fe3  1  0.38077929  0.52131803  0.73737196  1
  O  O0  1  0.04120900  0.11095763  0.15629702  1
  O  O1  1  0.84737070  0.49333284  0.16893407  1
  O  O2  1  0.45962000  0.33152302  0.30926958  1
  O  O3  1  0.45879100  0.61095763  0.15629702  1
  O  O4  1  0.65262930  -0.00666716  0.16893407  1
  O  O5  1  0.72327881  0.47030108  0.41177373  1
  O  O6  1  0.22327881  0.02969892  0.58822627  1
  O  O7  1  0.04038000  0.83152302  0.30926958  1
  O  O8  1  0.95962000  0.16847698  0.69073042  1
  O  O9  1  0.77672119  0.97030108  0.41177373  1
  O  O10  1  0.27672119  0.52969892  0.58822627  1
  O  O11  1  0.34737070  0.00666716  0.83106593  1
  O  O12  1  0.54120900  0.38904237  0.84370298  1
  O  O13  1  0.54038000  0.66847698  0.69073042  1
  O  O14  1  0.15262930  0.50666716  0.83106593  1
  O  O15  1  0.95879100  0.88904237  0.84370298  1
loop_
_geom_bond_atom_site_label_1
_geom_bond_atom_site_label_2
_geom_bond_distance
_geom_bond_site_symmetry_2
Fe0 O5 1.774173 1_555
Fe0 O2 1.801563 1_555
Fe0 O1 1.808861 1_555
Fe0 O3 1.822324 1_555
Fe1 O9 1.774173 1_555
Fe1 O7 1.801563 1_655
Fe1 O4 1.808861 1_565
Fe1 O0 1.822324 1_665
Fe2 O6 1.774173 1_555
Fe2 O8 1.801563 1_455
Fe2 O11 1.808861 1_555
Fe2 O15 1.822324 1_445
Fe3 O10 1.774173 1_555
Fe3 O13 1.801563 1_555
Fe3 O14 1.808861 1_555
Fe3 O12 1.822324 1_555
O0 Rb0 2.831082 1_455
O0 Rb12 2.860022 1_554
O0 Rb2 2.941216 1_555
O0 Rb4 2.995891 1_545
O0 Rb1 3.123878 1_555
O1 Rb1 2.703263 1_655
O1 Rb3 2.814462 1_555
O1 Rb0 2.888990 1_555
O1 Rb14 2.907995 1_554
O1 Rb6 2.954191 1_655
O2 Rb1 2.710170 1_555
O2 Rb7 2.800416 1_555
O2 Rb2 2.837523 1_555
O2 Rb0 3.020438 1_555
O2 Rb6 3.383912 1_555
O3 Rb3 2.831082 1_555
O3 Rb15 2.860022 1_554
O3 Rb6 2.941216 1_555
O3 Rb1 2.995891 1_555
O3 Rb4 3.123878 1_555
O4 Rb4 2.703263 1_545
O4 Rb0 2.814462 1_555
O4 Rb3 2.888990 1_545
O4 Rb11 2.907995 1_554
O4 Rb2 2.954191 1_555
O5 Rb9 2.806374 1_555
O5 Rb6 2.846161 1_655
O5 Rb8 2.848885 1_555
O5 Rb7 2.883573 1_555
O5 Rb5 2.984162 1_555
O6 Rb2 2.806374 1_555
O6 Rb13 2.846161 1_545
O6 Rb10 2.848885 1_545
O6 Rb5 2.883573 1_455
O6 Rb7 2.984162 1_555
O7 Rb4 2.710170 1_555
O7 Rb10 2.800416 1_555
O7 Rb6 2.837523 1_555
O7 Rb3 3.020438 1_455
O7 Rb2 3.383912 1_565
O8 Rb11 2.710170 1_555
O8 Rb5 2.800416 1_555
O8 Rb9 2.837523 1_555
O8 Rb12 3.020438 1_655
O8 Rb13 3.383912 1_545
O9 Rb13 2.806374 1_555
O9 Rb2 2.846161 1_565
O9 Rb5 2.848885 1_565
O9 Rb10 2.883573 1_655
O9 Rb8 2.984162 1_555
O10 Rb6 2.806374 1_555
O10 Rb9 2.846161 1_455
O10 Rb7 2.848885 1_555
O10 Rb8 2.883573 1_555
O10 Rb10 2.984162 1_555
O11 Rb11 2.703263 1_555
O11 Rb15 2.814462 1_545
O11 Rb12 2.888990 1_555
O11 Rb4 2.907995 1_546
O11 Rb13 2.954191 1_545
O12 Rb12 2.831082 1_555
O12 Rb0 2.860022 1_556
O12 Rb9 2.941216 1_555
O12 Rb14 2.995891 1_555
O12 Rb11 3.123878 1_555
O13 Rb14 2.710170 1_555
O13 Rb8 2.800416 1_555
O13 Rb13 2.837523 1_555
O13 Rb15 3.020438 1_555
O13 Rb9 3.383912 1_555
O14 Rb14 2.703263 1_455
O14 Rb12 2.814462 1_555
O14 Rb15 2.888990 1_555
O14 Rb1 2.907995 1_556
O14 Rb9 2.954191 1_455
O15 Rb15 2.831082 1_655
O15 Rb3 2.860022 1_556
O15 Rb13 2.941216 1_555
O15 Rb11 2.995891 1_565
O15 Rb14 3.123878 1_555
