# generated using pymatgen
data_GdGaRh2
_symmetry_space_group_name_H-M   'P 1'
_cell_length_a   4.56540832
_cell_length_b   4.56695664
_cell_length_c   4.56220172
_cell_angle_alpha   59.96660447
_cell_angle_beta   60.05202821
_cell_angle_gamma   59.97858836
_symmetry_Int_Tables_number   1
_chemical_formula_structural   GdGaRh2
_chemical_formula_sum   'Gd1 Ga1 Rh2'
_cell_volume   67.25991482
_cell_formula_units_Z   1
loop_
 _symmetry_equiv_pos_site_id
 _symmetry_equiv_pos_as_xyz
  1  'x, y, z'
loop_
 _atom_site_type_symbol
 _atom_site_label
 _atom_site_symmetry_multiplicity
 _atom_site_fract_x
 _atom_site_fract_y
 _atom_site_fract_z
 _atom_site_occupancy
  Gd  Gd0  1  0.75000026  0.75000312  0.75000238  1
  Ga  Ga0  1  0.25000005  0.24999931  0.25000441  1
  Rh  Rh0  1  0.00009096  0.99995169  -0.00002177  1
  Rh  Rh1  1  0.49991073  0.50004989  0.50001997  1
loop_
_geom_bond_atom_site_label_1
_geom_bond_atom_site_label_2
_geom_bond_distance
_geom_bond_site_symmetry_2
Gd0 Rh1 2.794378 1_556
Gd0 Rh0 2.794402 1_655
Gd0 Rh1 2.795329 1_565
Gd0 Rh0 2.795346 1_646
Gd0 Rh0 2.795468 1_656
Gd0 Rh1 2.795505 1_555
Gd0 Rh0 2.796273 1_556
Gd0 Rh1 2.796278 1_655
Ga0 Rh0 2.794214 1_546
Ga0 Rh1 2.794253 1_554
Ga0 Rh1 2.794966 1_545
Ga0 Rh0 2.794977 1_555
Ga0 Rh1 2.795325 1_555
Ga0 Rh0 2.795348 1_545
Ga0 Rh1 2.796945 1_455
Ga0 Rh0 2.796950 1_645
