# generated using pymatgen
data_LiSb(MoO4)2
_symmetry_space_group_name_H-M   'P 1'
_cell_length_a   11.33204672
_cell_length_b   11.33204672
_cell_length_c   5.63388194
_cell_angle_alpha   79.87697160
_cell_angle_beta   79.87697160
_cell_angle_gamma   25.60374431
_symmetry_Int_Tables_number   1
_chemical_formula_structural   LiSb(MoO4)2
_chemical_formula_sum   'Li2 Sb2 Mo4 O16'
_cell_volume   307.52605944
_cell_formula_units_Z   2
loop_
 _symmetry_equiv_pos_site_id
 _symmetry_equiv_pos_as_xyz
  1  'x, y, z'
loop_
 _atom_site_type_symbol
 _atom_site_label
 _atom_site_symmetry_multiplicity
 _atom_site_fract_x
 _atom_site_fract_y
 _atom_site_fract_z
 _atom_site_occupancy
  Li  Li0  1  0.50000000  0.00000000  0.00000000  1
  Li  Li1  1  0.00000000  0.50000000  0.50000000  1
  Sb  Sb0  1  0.31214000  0.68786000  0.25000000  1
  Sb  Sb1  1  0.68786000  0.31214000  0.75000000  1
  Mo  Mo0  1  0.88944600  0.38598100  0.21774400  1
  Mo  Mo1  1  0.61401900  0.11055400  0.28225600  1
  Mo  Mo2  1  0.11055400  0.61401900  0.78225600  1
  Mo  Mo3  1  0.38598100  0.88944600  0.71774400  1
  O  O0  1  0.61378200  0.70735700  0.04145300  1
  O  O1  1  0.29264300  0.38621800  0.45854700  1
  O  O2  1  0.38621800  0.29264300  0.95854700  1
  O  O3  1  0.70735700  0.61378200  0.54145300  1
  O  O4  1  0.11553500  0.30378300  0.21303700  1
  O  O5  1  0.69621700  0.88446500  0.28696300  1
  O  O6  1  0.88446500  0.69621700  0.78696300  1
  O  O7  1  0.30378300  0.11553500  0.71303700  1
  O  O8  1  0.94289200  0.84837000  0.99219400  1
  O  O9  1  0.15163000  0.05710800  0.50780600  1
  O  O10  1  0.05710800  0.15163000  0.00780600  1
  O  O11  1  0.84837000  0.94289200  0.49219400  1
  O  O12  1  0.54045700  0.35551800  0.11773400  1
  O  O13  1  0.64448200  0.45954300  0.38226600  1
  O  O14  1  0.45954300  0.64448200  0.88226600  1
  O  O15  1  0.35551800  0.54045700  0.61773400  1
loop_
_geom_bond_atom_site_label_1
_geom_bond_atom_site_label_2
_geom_bond_distance
_geom_bond_site_symmetry_2
Li0 O5 2.130970 1_545
Li0 O7 2.130970 1_554
Li0 O2 2.199105 1_554
Li0 O0 2.199105 1_545
Li0 O6 2.199142 1_544
Li0 O4 2.199142 1_555
Li1 O6 2.130970 1_455
Li1 O4 2.130970 1_555
Li1 O1 2.199105 1_555
Li1 O3 2.199105 1_455
Li1 O7 2.199142 1_555
Li1 O5 2.199142 1_455
Mo0 O4 1.764363 1_655
Mo0 O10 1.809747 1_655
Mo0 O0 1.818842 1_555
Mo0 O13 2.110308 1_555
Mo0 O3 2.229924 1_555
Mo0 O9 2.232059 1_655
Mo1 O5 1.764363 1_545
Mo1 O11 1.809747 1_545
Mo1 O1 1.818842 1_555
Mo1 O12 2.110308 1_555
Mo1 O2 2.229924 1_554
Mo1 O8 2.232059 1_544
Mo2 O6 1.764363 1_455
Mo2 O8 1.809747 1_455
Mo2 O2 1.818842 1_555
Mo2 O15 2.110308 1_555
Mo2 O1 2.229924 1_555
Mo2 O11 2.232059 1_455
Mo3 O7 1.764363 1_565
Mo3 O9 1.809747 1_565
Mo3 O3 1.818842 1_555
Mo3 O14 2.110308 1_555
Mo3 O0 2.229924 1_556
Mo3 O10 2.232059 1_566
O12 Sb0 2.041403 1_555
O12 Sb1 2.232619 1_554
O13 Sb0 2.041403 1_555
O13 Sb1 2.232619 1_555
O14 Sb1 2.041403 1_555
O14 Sb0 2.232619 1_556
O15 Sb1 2.041403 1_555
O15 Sb0 2.232619 1_555
