# generated using pymatgen
data_Rb2TlAu3
_symmetry_space_group_name_H-M   'P 1'
_cell_length_a   5.74517942
_cell_length_b   6.82495021
_cell_length_c   9.09253262
_cell_angle_alpha   89.99994535
_cell_angle_beta   89.99894215
_cell_angle_gamma   89.99947394
_symmetry_Int_Tables_number   1
_chemical_formula_structural   Rb2TlAu3
_chemical_formula_sum   'Rb4 Tl2 Au6'
_cell_volume   356.52332753
_cell_formula_units_Z   2
loop_
 _symmetry_equiv_pos_site_id
 _symmetry_equiv_pos_as_xyz
  1  'x, y, z'
loop_
 _atom_site_type_symbol
 _atom_site_label
 _atom_site_symmetry_multiplicity
 _atom_site_fract_x
 _atom_site_fract_y
 _atom_site_fract_z
 _atom_site_occupancy
  Rb  Rb0  1  0.25001298  0.50000623  0.13214326  1
  Rb  Rb1  1  0.25001194  0.00000604  0.37123973  1
  Rb  Rb2  1  0.75000823  0.00000910  0.62876818  1
  Rb  Rb3  1  0.75001109  0.50000653  0.86786184  1
  Tl  Tl0  1  0.75000419  0.50001505  0.42805374  1
  Tl  Tl1  1  0.25000627  0.49998953  0.57192834  1
  Au  Au0  1  0.00000811  0.00000080  -0.00000571  1
  Au  Au1  1  0.49999343  0.00000615  -0.00001468  1
  Au  Au2  1  0.75000858  0.20895581  0.21531031  1
  Au  Au3  1  0.74996486  0.79103024  0.21533302  1
  Au  Au4  1  0.24998654  0.20895463  0.78468425  1
  Au  Au5  1  0.24998778  0.79101789  0.78469769  1
loop_
_geom_bond_atom_site_label_1
_geom_bond_atom_site_label_2
_geom_bond_distance
_geom_bond_site_symmetry_2
Rb0 Rb3 3.745104 1_554
Rb0 Rb3 3.745189 1_454
Rb0 Tl0 3.935856 1_555
Rb0 Tl0 3.935857 1_455
Rb0 Tl1 3.998760 1_555
Rb0 Rb1 4.046137 1_555
Rb0 Rb1 4.046138 1_565
Rb1 Rb2 3.706032 1_455
Rb1 Rb2 3.706066 1_555
Rb1 Tl1 3.869626 1_555
Rb1 Tl1 3.869822 1_545
Rb2 Tl0 3.869800 1_545
Rb2 Tl0 3.869869 1_555
Rb2 Rb3 4.046111 1_555
Rb2 Rb3 4.046137 1_545
Rb3 Tl1 3.935943 1_655
Rb3 Tl1 3.936056 1_555
Rb3 Tl0 3.998969 1_555
Tl0 Tl1 3.156408 1_555
Tl0 Tl1 3.156474 1_655
Au0 Au4 2.815833 1_554
Au0 Au5 2.815841 1_544
Au0 Au2 2.815926 1_455
Au0 Au3 2.816262 1_445
Au0 Au1 2.872505 1_555
Au0 Au1 2.872674 1_455
Au0 Rb2 3.668289 1_454
Au0 Rb1 3.668460 1_555
Au0 Rb3 3.892452 1_444
Au0 Rb0 3.892492 1_545
Au0 Rb3 3.892495 1_454
Au0 Rb0 3.892582 1_555
Au1 Au4 2.815865 1_554
Au1 Au5 2.815929 1_544
Au1 Au2 2.816060 1_555
Au1 Au3 2.816151 1_545
Au1 Rb2 3.668199 1_554
Au1 Rb1 3.668436 1_555
Au1 Rb3 3.892463 1_544
Au1 Rb0 3.892484 1_555
Au1 Rb3 3.892489 1_554
Au1 Rb0 3.892504 1_545
Au2 Tl0 2.772700 1_555
Au2 Au3 2.852321 1_545
Au2 Rb1 3.506480 1_555
Au2 Rb1 3.506533 1_655
Au2 Rb0 3.573407 1_555
Au2 Rb0 3.573455 1_655
Au2 Rb3 3.731790 1_554
Au2 Rb2 4.020764 1_555
Au3 Tl0 2.772337 1_555
Au3 Rb1 3.506242 1_565
Au3 Rb1 3.506750 1_665
Au3 Rb0 3.573179 1_555
Au3 Rb0 3.573572 1_655
Au3 Rb3 3.731870 1_554
Au3 Rb2 4.020651 1_565
Au4 Tl1 2.772657 1_555
Au4 Au5 2.852397 1_545
Au4 Rb2 3.506377 1_455
Au4 Rb2 3.506516 1_555
Au4 Rb3 3.573318 1_455
Au4 Rb3 3.573597 1_555
Au4 Rb0 3.731878 1_556
Au4 Rb1 4.020658 1_555
Au5 Tl1 2.772713 1_555
Au5 Rb2 3.506536 1_465
Au5 Rb2 3.506707 1_565
Au5 Rb3 3.573173 1_455
Au5 Rb3 3.573381 1_555
Au5 Rb0 3.731626 1_556
Au5 Rb1 4.020865 1_565
