# generated using pymatgen
data_Li2MnVP2(HO5)2
_symmetry_space_group_name_H-M   'P 1'
_cell_length_a   5.43588200
_cell_length_b   10.17675688
_cell_length_c   10.31921933
_cell_angle_alpha   79.30605148
_cell_angle_beta   83.13669541
_cell_angle_gamma   79.28686158
_symmetry_Int_Tables_number   1
_chemical_formula_structural   Li2MnVP2(HO5)2
_chemical_formula_sum   'Li6 Mn3 V3 P6 H6 O30'
_cell_volume   549.02374179
_cell_formula_units_Z   3
loop_
 _symmetry_equiv_pos_site_id
 _symmetry_equiv_pos_as_xyz
  1  'x, y, z'
loop_
 _atom_site_type_symbol
 _atom_site_label
 _atom_site_symmetry_multiplicity
 _atom_site_fract_x
 _atom_site_fract_y
 _atom_site_fract_z
 _atom_site_occupancy
  Li  Li0  1  0.20769700  0.19154000  0.36566200  1
  Li  Li1  1  0.12546500  0.47541600  0.30094600  1
  Li  Li2  1  0.45837000  0.14361100  0.96617400  1
  Li  Li3  1  0.54242700  0.85592400  0.03419800  1
  Li  Li4  1  0.87593500  0.52490300  0.69863900  1
  Li  Li5  1  0.79052100  0.80885500  0.63370300  1
  Mn  Mn0  1  0.16803600  0.83235600  0.33255900  1
  Mn  Mn1  1  0.33356300  0.66643200  0.66767400  1
  Mn  Mn2  1  0.66710500  0.33348600  0.33309000  1
  V  V0  1  0.50025900  0.49996500  0.00033400  1
  V  V1  1  0.82980500  0.16831800  0.66614100  1
  V  V2  1  0.99921500  0.00017800  0.00030100  1
  P  P0  1  0.06080500  0.30375400  0.07081900  1
  P  P1  1  0.27117300  0.36324400  0.59542200  1
  P  P2  1  0.60546000  0.02882300  0.26267500  1
  P  P3  1  0.39105300  0.97053100  0.73806900  1
  P  P4  1  0.73142300  0.63790300  0.40424100  1
  P  P5  1  0.93879000  0.69611800  0.92897700  1
  H  H0  1  0.17414900  0.76620700  0.10542500  1
  H  H1  1  0.16383800  0.89711900  0.56325600  1
  H  H2  1  0.49696800  0.56448000  0.23026900  1
  H  H3  1  0.50303400  0.43599000  0.77055700  1
  H  H4  1  0.83648800  0.10220800  0.43635700  1
  H  H5  1  0.82585600  0.23332000  0.89437900  1
  O  O0  1  0.10833600  0.14843800  0.07464000  1
  O  O1  1  0.01416700  0.33636500  0.21361400  1
  O  O2  1  0.02307000  0.31883900  0.66529800  1
  O  O3  1  0.16686300  0.03629300  0.65481500  1
  O  O4  1  0.16440500  0.63030300  0.01137900  1
  O  O5  1  0.31030200  0.34793500  0.00091500  1
  O  O6  1  0.19557600  0.85421600  0.12724700  1
  O  O7  1  0.33659200  0.00390600  0.88190100  1
  O  O8  1  0.32005300  0.32937000  0.45298200  1
  O  O9  1  0.22462200  0.51879200  0.59112500  1
  O  O10  1  0.14226400  0.80844300  0.54232300  1
  O  O11  1  0.55147100  0.18453000  0.25717500  1
  O  O12  1  0.47378800  0.47664000  0.20750200  1
  O  O13  1  0.49703400  0.29787200  0.67810700  1
  O  O14  1  0.35019800  0.98408900  0.32726800  1
  O  O15  1  0.64006400  0.01513100  0.67053300  1
  O  O16  1  0.51206300  0.70033900  0.31898000  1
  O  O17  1  0.52681600  0.52370600  0.79258700  1
  O  O18  1  0.44102600  0.81484500  0.74404800  1
  O  O19  1  0.86020400  0.19015200  0.45847500  1
  O  O20  1  0.78345300  0.48184200  0.40875300  1
  O  O21  1  0.68195100  0.67110500  0.54620700  1
  O  O22  1  0.66268200  0.99610000  0.11878700  1
  O  O23  1  0.80583900  0.14590100  0.87136100  1
  O  O24  1  0.68926800  0.65209000  0.99930600  1
  O  O25  1  0.83518500  0.36964100  0.98877900  1
  O  O26  1  0.82346800  0.96575000  0.34822300  1
  O  O27  1  0.98619400  0.68182400  0.33612800  1
  O  O28  1  0.98457300  0.66319800  0.78676300  1
  O  O29  1  0.89104100  0.85166600  0.92491600  1
loop_
_geom_bond_atom_site_label_1
_geom_bond_atom_site_label_2
_geom_bond_distance
_geom_bond_site_symmetry_2
Li0 O19 2.014465 1_455
Li0 O8 2.017800 1_555
Li0 O11 2.056829 1_555
Li0 O1 2.168083 1_555
Li0 O14 2.200717 1_545
Li1 O12 2.020653 1_555
Li1 O1 2.025476 1_555
Li1 O20 2.045915 1_455
Li1 O8 2.176243 1_555
Li1 O27 2.177939 1_455
Li2 O23 2.022770 1_555
Li2 O7 2.040139 1_555
Li2 O0 2.086215 1_556
Li2 O5 2.164610 1_556
Li2 O22 2.210870 1_546
Li3 O6 2.012577 1_555
Li3 O22 2.041926 1_555
Li3 O29 2.083643 1_554
Li3 O24 2.159328 1_554
Li3 O7 2.214771 1_564
Li4 O28 2.017124 1_555
Li4 O17 2.026336 1_555
Li4 O9 2.075230 1_655
Li4 O2 2.175814 1_655
Li4 O21 2.178180 1_555
Li5 O21 2.008327 1_555
Li5 O10 2.027967 1_655
Li5 O18 2.091713 1_555
Li5 O28 2.180050 1_555
Li5 O15 2.191705 1_565
Mn0 O27 1.964326 1_455
Mn0 O14 1.972855 1_555
Mn0 O6 2.079008 1_555
Mn0 O16 2.096430 1_555
Mn0 O26 2.107363 1_455
Mn0 O10 2.123451 1_555
Mn1 O10 1.977916 1_555
Mn1 O17 1.984014 1_555
Mn1 O9 2.028606 1_555
Mn1 O18 2.030613 1_555
Mn1 O28 2.135690 1_455
Mn1 O21 2.145664 1_555
Mn2 O19 1.989611 1_555
Mn2 O12 1.990436 1_555
Mn2 O20 2.049287 1_555
Mn2 O11 2.054111 1_555
Mn2 O1 2.128696 1_655
Mn2 O8 2.131601 1_555
H0 O6 0.993157 1_555
H1 O10 0.996267 1_555
H2 O12 0.998535 1_555
H3 O17 0.995230 1_555
H4 O19 0.997722 1_555
H5 O23 0.990107 1_555
O0 P0 1.547295 1_555
O0 V2 2.021847 1_455
O1 P0 1.551334 1_555
O2 P1 1.554433 1_555
O2 V1 2.010322 1_455
O3 P3 1.550726 1_545
O3 V1 2.065850 1_455
O4 P5 1.551850 1_454
O4 V0 2.052190 1_555
O5 P0 1.560258 1_555
O5 V0 2.012223 1_555
O6 V2 2.020993 1_465
O7 P3 1.565454 1_545
O7 V2 2.081033 1_456
O8 P1 1.552613 1_555
O9 P1 1.549036 1_555
O11 P2 1.548545 1_555
O12 V0 2.097174 1_555
O13 P1 1.553715 1_555
O13 V1 2.036178 1_555
O14 P2 1.574194 1_565
O15 P3 1.552251 1_545
O15 V1 2.014095 1_555
O16 P4 1.536640 1_555
O17 V0 2.102810 1_556
O18 P3 1.547762 1_555
O19 V1 2.102669 1_555
O20 P4 1.553456 1_555
O21 P4 1.545450 1_555
O22 P2 1.564267 1_565
O22 V2 2.077986 1_565
O23 V2 2.024107 1_556
O23 V1 2.078347 1_555
O24 P5 1.561154 1_555
O24 V0 2.008761 1_556
O25 P0 1.549908 1_656
O25 V0 2.048648 1_556
O26 P2 1.533832 1_565
O27 P4 1.578821 1_555
O28 P5 1.546615 1_555
O29 P5 1.549244 1_555
O29 V2 2.027618 1_566
