# generated using pymatgen
data_RbAgO
_symmetry_space_group_name_H-M   'P 1'
_cell_length_a   5.79861143
_cell_length_b   7.67377836
_cell_length_c   7.67378126
_cell_angle_alpha   81.80097331
_cell_angle_beta   67.80491821
_cell_angle_gamma   67.80491502
_symmetry_Int_Tables_number   1
_chemical_formula_structural   RbAgO
_chemical_formula_sum   'Rb4 Ag4 O4'
_cell_volume   292.73433117
_cell_formula_units_Z   4
loop_
 _symmetry_equiv_pos_site_id
 _symmetry_equiv_pos_as_xyz
  1  'x, y, z'
loop_
 _atom_site_type_symbol
 _atom_site_label
 _atom_site_symmetry_multiplicity
 _atom_site_fract_x
 _atom_site_fract_y
 _atom_site_fract_z
 _atom_site_occupancy
  Rb  Rb0  1  0.93573672  0.81425702  0.81425847  1
  Rb  Rb1  1  0.25000085  0.81425918  0.18574034  1
  Rb  Rb2  1  0.25000090  0.18574044  0.81425894  1
  Rb  Rb3  1  0.56426043  0.18574158  0.18574248  1
  Ag  Ag0  1  0.89487856  0.50004445  0.21016817  1
  Ag  Ag1  1  0.89487764  0.21016862  0.50004608  1
  Ag  Ag2  1  0.60512084  0.78983181  0.49995599  1
  Ag  Ag3  1  0.60512124  0.49995458  0.78983166  1
  O  O0  1  0.46140824  0.78864863  0.78864772  1
  O  O1  1  0.74999678  0.78867415  0.21132648  1
  O  O2  1  0.74999642  0.21132758  0.78867301  1
  O  O3  1  0.03860038  0.21135295  0.21135166  1
loop_
_geom_bond_atom_site_label_1
_geom_bond_atom_site_label_2
_geom_bond_distance
_geom_bond_site_symmetry_2
Ag0 O1 2.050780 1_555
Ag0 O3 2.051222 1_655
Ag1 O2 2.050761 1_555
Ag1 O3 2.051243 1_655
Ag2 O1 2.050779 1_555
Ag2 O0 2.051224 1_555
Ag3 O2 2.050761 1_555
Ag3 O0 2.051240 1_555
O0 Rb2 2.827249 1_565
O0 Rb1 2.827256 1_556
O0 Rb0 2.910321 1_555
O0 Rb0 2.911083 1_455
O1 Rb3 2.827103 1_565
O1 Rb0 2.827108 1_554
O1 Rb1 2.910663 1_555
O1 Rb1 2.910703 1_655
O2 Rb3 2.827119 1_556
O2 Rb0 2.827126 1_545
O2 Rb2 2.910662 1_555
O2 Rb2 2.910706 1_655
O3 Rb2 2.827258 1_554
O3 Rb1 2.827263 1_545
O3 Rb3 2.910392 1_455
O3 Rb3 2.911013 1_555
