# generated using pymatgen
data_Ca2SnS4
_symmetry_space_group_name_H-M   'P 1'
_cell_length_a   7.27493400
_cell_length_b   8.29137400
_cell_length_c   12.39611200
_cell_angle_alpha   90.00000000
_cell_angle_beta   90.00000000
_cell_angle_gamma   90.00000000
_symmetry_Int_Tables_number   1
_chemical_formula_structural   Ca2SnS4
_chemical_formula_sum   'Ca8 Sn4 S16'
_cell_volume   747.72354184
_cell_formula_units_Z   4
loop_
 _symmetry_equiv_pos_site_id
 _symmetry_equiv_pos_as_xyz
  1  'x, y, z'
loop_
 _atom_site_type_symbol
 _atom_site_label
 _atom_site_symmetry_multiplicity
 _atom_site_fract_x
 _atom_site_fract_y
 _atom_site_fract_z
 _atom_site_occupancy
  Ca  Ca0  1  0.25000000  0.43901400  0.82786800  1
  Ca  Ca1  1  0.25000000  0.93901400  0.67213200  1
  Ca  Ca2  1  0.75000000  0.56098600  0.17213200  1
  Ca  Ca3  1  0.75000000  0.06098600  0.32786800  1
  Ca  Ca4  1  0.25000000  0.09630100  0.03869500  1
  Ca  Ca5  1  0.25000000  0.59630100  0.46130500  1
  Ca  Ca6  1  0.75000000  0.90369900  0.96130500  1
  Ca  Ca7  1  0.75000000  0.40369900  0.53869500  1
  Sn  Sn0  1  0.25000000  0.20446500  0.43856400  1
  Sn  Sn1  1  0.25000000  0.70446500  0.06143600  1
  Sn  Sn2  1  0.75000000  0.79553500  0.56143600  1
  Sn  Sn3  1  0.75000000  0.29553500  0.93856400  1
  S  S0  1  0.49426000  0.14684300  0.86390800  1
  S  S1  1  0.00574000  0.64684300  0.63609200  1
  S  S2  1  0.99426000  0.85315700  0.13609200  1
  S  S3  1  0.50574000  0.35315700  0.36390800  1
  S  S4  1  0.50574000  0.85315700  0.13609200  1
  S  S5  1  0.99426000  0.35315700  0.36390800  1
  S  S6  1  0.00574000  0.14684300  0.86390800  1
  S  S7  1  0.49426000  0.64684300  0.63609200  1
  S  S8  1  0.25000000  0.42233900  0.06594400  1
  S  S9  1  0.25000000  0.92233900  0.43405600  1
  S  S10  1  0.75000000  0.57766100  0.93405600  1
  S  S11  1  0.75000000  0.07766100  0.56594400  1
  S  S12  1  0.25000000  0.27394500  0.62629300  1
  S  S13  1  0.25000000  0.77394500  0.87370700  1
  S  S14  1  0.75000000  0.72605500  0.37370700  1
  S  S15  1  0.75000000  0.22605500  0.12629300  1
loop_
_geom_bond_atom_site_label_1
_geom_bond_atom_site_label_2
_geom_bond_distance
_geom_bond_site_symmetry_2
Ca0 S13 2.834576 1_555
Ca0 S12 2.849023 1_555
Ca0 S8 2.954454 1_556
Ca0 S6 3.037389 1_555
Ca0 S0 3.037389 1_555
Ca0 S7 3.431977 1_555
Ca0 S1 3.431977 1_555
Ca1 S12 2.834576 1_565
Ca1 S13 2.849023 1_555
Ca1 S9 2.954454 1_555
Ca1 S7 3.037389 1_555
Ca1 S1 3.037389 1_555
Ca1 S6 3.431977 1_565
Ca1 S0 3.431977 1_565
Ca2 S15 2.834576 1_555
Ca2 S14 2.849023 1_555
Ca2 S10 2.954454 1_554
Ca2 S4 3.037389 1_555
Ca2 S2 3.037389 1_555
Ca2 S5 3.431977 1_555
Ca2 S3 3.431977 1_555
Ca3 S14 2.834576 1_545
Ca3 S15 2.849023 1_555
Ca3 S11 2.954454 1_555
Ca3 S5 3.037389 1_555
Ca3 S3 3.037389 1_555
Ca3 S2 3.431977 1_545
Ca3 S4 3.431977 1_545
Ca4 S8 2.724324 1_555
Ca4 S0 2.833329 1_554
Ca4 S6 2.833329 1_554
Ca4 S4 2.997225 1_545
Ca4 S2 2.997225 1_445
Ca5 S9 2.724324 1_555
Ca5 S1 2.833329 1_555
Ca5 S7 2.833329 1_555
Ca5 S3 2.997225 1_555
Ca5 S5 2.997225 1_455
Ca6 S10 2.724324 1_555
Ca6 S2 2.833329 1_556
Ca6 S4 2.833329 1_556
Ca6 S0 2.997225 1_565
Ca6 S6 2.997225 1_665
Ca7 S11 2.724324 1_555
Ca7 S3 2.833329 1_555
Ca7 S5 2.833329 1_555
Ca7 S7 2.997225 1_555
Ca7 S1 2.997225 1_655
S0 Sn3 2.416159 1_555
S1 Sn2 2.416159 1_455
S2 Sn1 2.416159 1_655
S3 Sn0 2.416159 1_555
S4 Sn1 2.416159 1_555
S5 Sn0 2.416159 1_655
S6 Sn3 2.416159 1_455
S7 Sn2 2.416159 1_555
S8 Sn1 2.339880 1_555
S9 Sn0 2.339880 1_565
S10 Sn3 2.339880 1_555
S11 Sn2 2.339880 1_545
S12 Sn0 2.397355 1_555
S13 Sn1 2.397355 1_556
S14 Sn2 2.397355 1_555
S15 Sn3 2.397355 1_554
