# generated using pymatgen
data_LiCo3OF5
_symmetry_space_group_name_H-M   'P 1'
_cell_length_a   8.40263600
_cell_length_b   8.44944400
_cell_length_c   8.44949181
_cell_angle_alpha   109.04752303
_cell_angle_beta   109.14774928
_cell_angle_gamma   109.24661240
_symmetry_Int_Tables_number   1
_chemical_formula_structural   LiCo3OF5
_chemical_formula_sum   'Li4 Co12 O4 F20'
_cell_volume   467.25358417
_cell_formula_units_Z   4
loop_
 _symmetry_equiv_pos_site_id
 _symmetry_equiv_pos_as_xyz
  1  'x, y, z'
loop_
 _atom_site_type_symbol
 _atom_site_label
 _atom_site_symmetry_multiplicity
 _atom_site_fract_x
 _atom_site_fract_y
 _atom_site_fract_z
 _atom_site_occupancy
  Li  Li0  1  0.48058400  0.48394000  0.47711400  1
  Li  Li1  1  0.51978900  0.00265200  0.00442900  1
  Li  Li2  1  0.03318600  0.02899700  0.52981300  1
  Li  Li3  1  0.99037000  0.49925400  0.97702900  1
  Co  Co0  1  0.28751600  0.04988100  0.24119600  1
  Co  Co1  1  0.25383300  0.22688500  0.97587300  1
  Co  Co2  1  0.76222100  0.29693700  0.54161400  1
  Co  Co3  1  0.03028100  0.23527400  0.25470500  1
  Co  Co4  1  0.51325100  0.25375000  0.78237900  1
  Co  Co5  1  0.78501100  0.53396300  0.24584000  1
  Co  Co6  1  0.20818600  0.45935600  0.74879100  1
  Co  Co7  1  0.46296500  0.75366900  0.21751300  1
  Co  Co8  1  0.96837400  0.73351100  0.72068900  1
  Co  Co9  1  0.76205800  0.80236800  0.04288600  1
  Co  Co10  1  0.24932800  0.71878100  0.46791300  1
  Co  Co11  1  0.72260400  0.96954300  0.77054800  1
  O  O0  1  0.27862000  0.25712700  0.76020900  1
  O  O1  1  0.77876800  0.03411700  0.03458900  1
  O  O2  1  0.00042400  0.52798700  0.75098000  1
  O  O3  1  0.25673800  0.25964800  0.21514100  1
  F  F0  1  0.04805400  0.97653400  0.28039200  1
  F  F1  1  0.54946300  0.04106300  0.28101900  1
  F  F2  1  0.50019100  0.27019700  0.54236000  1
  F  F3  1  0.76553200  0.54333200  0.99427900  1
  F  F4  1  0.94365800  0.20833400  0.46682100  1
  F  F5  1  0.75937800  0.22118200  0.76771700  1
  F  F6  1  0.55852700  0.27002700  0.05413200  1
  F  F7  1  0.26406300  0.51046700  0.53767000  1
  F  F8  1  0.71454200  0.49259900  0.43902700  1
  F  F9  1  0.45553000  0.72430400  0.95700300  1
  F  F10  1  0.24162500  0.79286000  0.25350200  1
  F  F11  1  0.72636200  0.70635700  0.76322100  1
  F  F12  1  0.03867700  0.76817000  0.50284500  1
  F  F13  1  0.23557200  0.48621500  0.03663500  1
  F  F14  1  0.99708400  0.46973300  0.22789100  1
  F  F15  1  0.71470300  0.75203700  0.26134900  1
  F  F16  1  0.51207600  0.74741100  0.47147300  1
  F  F17  1  0.23585700  0.94505400  0.95271100  1
  F  F18  1  0.44418300  0.96055700  0.72165600  1
  F  F19  1  0.95081300  0.98592400  0.72904800  1
loop_
_geom_bond_atom_site_label_1
_geom_bond_atom_site_label_2
_geom_bond_distance
_geom_bond_site_symmetry_2
Li0 O3 2.051766 1_555
Li1 O1 2.020305 1_555
Li2 O0 2.013616 1_555
Li3 O2 2.027108 1_655
Co0 O3 1.943278 1_555
Co0 F0 2.071564 1_545
Co0 F10 2.120690 1_545
Co0 F17 2.134905 1_544
Co0 F1 2.145227 1_555
Co0 F2 2.205911 1_555
Co1 O3 1.939678 1_556
Co1 O0 1.986727 1_555
Co1 F13 2.151168 1_556
Co1 F17 2.273998 1_545
Co1 F6 2.289480 1_556
Co1 F19 2.303278 1_445
Co2 O2 1.947776 1_655
Co2 F4 2.088010 1_555
Co2 F1 2.116817 1_555
Co2 F2 2.140288 1_555
Co2 F8 2.188434 1_555
Co2 F5 2.208653 1_555
Co3 O1 1.950485 1_455
Co3 O3 1.994700 1_555
Co3 F14 2.160903 1_455
Co3 F4 2.192413 1_455
Co3 F7 2.293670 1_555
Co3 F0 2.313571 1_545
Co4 O0 1.929013 1_555
Co4 F2 2.047512 1_555
Co4 F6 2.149975 1_556
Co4 F18 2.182740 1_545
Co4 F5 2.211153 1_555
Co4 F3 2.217534 1_555
Co5 F8 2.001817 1_555
Co5 F6 2.010188 1_555
Co5 F14 2.062546 1_555
Co5 F15 2.090984 1_555
Co5 F3 2.107419 1_554
Co5 F12 2.133736 1_655
Co6 O0 2.004034 1_555
Co6 O2 2.016395 1_555
Co6 F9 2.095122 1_555
Co6 F7 2.123138 1_555
Co6 F4 2.288036 1_455
Co6 F13 2.293010 1_556
Co7 F13 2.019115 1_555
Co7 F15 2.029855 1_555
Co7 F16 2.070080 1_555
Co7 F10 2.091038 1_555
Co7 F1 2.107848 1_565
Co7 F9 2.110389 1_554
Co8 O2 1.925328 1_655
Co8 F17 2.064843 1_655
Co8 F11 2.131363 1_555
Co8 F19 2.165958 1_555
Co8 F12 2.184922 1_655
Co8 F8 2.236601 1_555
Co9 O1 1.942622 1_565
Co9 F3 2.103151 1_554
Co9 F11 2.110776 1_554
Co9 F0 2.131936 1_655
Co9 F15 2.151555 1_555
Co9 F9 2.221944 1_554
Co10 F18 2.020905 1_555
Co10 F12 2.035570 1_555
Co10 F7 2.057611 1_555
Co10 F10 2.089983 1_555
Co10 F14 2.118419 1_455
Co10 F16 2.129150 1_555
Co11 O1 1.960320 1_566
Co11 F19 2.029025 1_555
Co11 F5 2.054684 1_565
Co11 F16 2.195612 1_555
Co11 F18 2.208610 1_555
Co11 F11 2.215338 1_555
F0 Li2 2.062292 1_565
F1 Li1 2.167624 1_555
F2 Li0 2.092649 1_555
F3 Li3 2.082842 1_555
F4 Li2 2.039754 1_655
F5 Li3 2.108295 1_555
F6 Li1 2.047541 1_555
F7 Li0 2.103980 1_555
F8 Li0 2.075839 1_555
F9 Li1 2.095042 1_566
F10 Li3 2.365974 1_454
F11 Li0 2.200390 1_555
F12 Li2 2.158039 1_565
F13 Li3 2.003983 1_454
F14 Li3 2.198698 1_554
F15 Li2 2.491520 1_665
F16 Li0 2.171947 1_555
F17 Li1 2.128739 1_566
F18 Li1 2.130586 1_566
F19 Li2 2.108003 1_665
