# generated using pymatgen
data_Mn2FeC6(N3O4)2
_symmetry_space_group_name_H-M   'P 1'
_cell_length_a   11.87024700
_cell_length_b   7.20798700
_cell_length_c   8.60924603
_cell_angle_alpha   81.11573406
_cell_angle_beta   90.00000000
_cell_angle_gamma   90.00000000
_symmetry_Int_Tables_number   1
_chemical_formula_structural   Mn2FeC6(N3O4)2
_chemical_formula_sum   'Mn4 Fe2 C12 N12 O16'
_cell_volume   727.77449482
_cell_formula_units_Z   2
loop_
 _symmetry_equiv_pos_site_id
 _symmetry_equiv_pos_as_xyz
  1  'x, y, z'
loop_
 _atom_site_type_symbol
 _atom_site_label
 _atom_site_symmetry_multiplicity
 _atom_site_fract_x
 _atom_site_fract_y
 _atom_site_fract_z
 _atom_site_occupancy
  Mn  Mn0  1  0.41911200  0.08928600  0.07973200  1
  Mn  Mn1  1  0.08088800  0.58928600  0.57973200  1
  Mn  Mn2  1  0.58088800  0.91071400  0.92026800  1
  Mn  Mn3  1  0.91911200  0.41071400  0.42026800  1
  Fe  Fe0  1  0.00000000  0.00000000  0.00000000  1
  Fe  Fe1  1  0.50000000  0.50000000  0.50000000  1
  C  C0  1  0.15442500  0.02005900  0.07463800  1
  C  C1  1  0.34557500  0.52005900  0.57463800  1
  C  C2  1  0.84557500  0.97994100  0.92536200  1
  C  C3  1  0.65442500  0.47994100  0.42536200  1
  C  C4  1  0.94970800  0.16915700  0.14161700  1
  C  C5  1  0.55029200  0.66915700  0.64161700  1
  C  C6  1  0.05029200  0.83084300  0.85838300  1
  C  C7  1  0.44970800  0.33084300  0.35838300  1
  C  C8  1  0.03562600  0.22085200  0.84671100  1
  C  C9  1  0.46437400  0.72085200  0.34671100  1
  C  C10  1  0.96437400  0.77914800  0.15328900  1
  C  C11  1  0.53562600  0.27914800  0.65328900  1
  N  N0  1  0.24866100  0.04265100  0.10745000  1
  N  N1  1  0.25133900  0.54265100  0.60745000  1
  N  N2  1  0.75133900  0.95734900  0.89255000  1
  N  N3  1  0.74866100  0.45734900  0.39255000  1
  N  N4  1  0.92673500  0.26765300  0.23268300  1
  N  N5  1  0.57326500  0.76765300  0.73268300  1
  N  N6  1  0.07326500  0.73234700  0.76731700  1
  N  N7  1  0.42673500  0.23234700  0.26731700  1
  N  N8  1  0.06013000  0.35355900  0.75726700  1
  N  N9  1  0.43987000  0.85355900  0.25726700  1
  N  N10  1  0.93987000  0.64644100  0.24273300  1
  N  N11  1  0.56013000  0.14644100  0.74273300  1
  O  O0  1  0.39271700  0.29644700  0.96182400  1
  O  O1  1  0.10728300  0.79644700  0.46182400  1
  O  O2  1  0.60728300  0.70355300  0.03817600  1
  O  O3  1  0.89271700  0.20355300  0.53817600  1
  O  O4  1  0.42620600  0.92303100  0.93877200  1
  O  O5  1  0.07379400  0.42303100  0.43877200  1
  O  O6  1  0.57379400  0.07696900  0.06122800  1
  O  O7  1  0.92620600  0.57696900  0.56122800  1
  O  O8  1  0.25539200  0.09515400  0.66607100  1
  O  O9  1  0.24460800  0.59515400  0.16607100  1
  O  O10  1  0.74460800  0.90484600  0.33392900  1
  O  O11  1  0.75539200  0.40484600  0.83392900  1
  O  O12  1  0.21743600  0.09827300  0.53418400  1
  O  O13  1  0.28256400  0.59827300  0.03418400  1
  O  O14  1  0.78256400  0.90172700  0.46581600  1
  O  O15  1  0.71743600  0.40172700  0.96581600  1
loop_
_geom_bond_atom_site_label_1
_geom_bond_atom_site_label_2
_geom_bond_distance
_geom_bond_site_symmetry_2
Mn0 O0 1.700028 1_554
Mn0 O4 1.834418 1_544
Mn0 O6 1.846332 1_555
Mn0 N7 2.047930 1_555
Mn0 N0 2.058855 1_555
Mn0 N9 2.117001 1_545
Mn1 O1 1.700028 1_555
Mn1 O5 1.834418 1_555
Mn1 O7 1.846332 1_455
Mn1 N6 2.047930 1_555
Mn1 N1 2.058855 1_555
Mn1 N8 2.117001 1_555
Mn2 O2 1.700028 1_556
Mn2 O6 1.834418 1_566
Mn2 O4 1.846332 1_555
Mn2 N5 2.047930 1_555
Mn2 N2 2.058855 1_555
Mn2 N11 2.117001 1_565
Mn3 O3 1.700028 1_555
Mn3 O7 1.834418 1_555
Mn3 O5 1.846332 1_655
Mn3 N4 2.047930 1_555
Mn3 N3 2.058855 1_555
Mn3 N10 2.117001 1_555
C0 N0 1.171239 1_555
C0 Fe0 1.955154 1_555
C1 N1 1.171239 1_555
C1 Fe1 1.955154 1_555
C2 N2 1.171239 1_555
C2 Fe0 1.955154 1_666
C3 N3 1.171239 1_555
C3 Fe1 1.955154 1_555
C4 N4 1.168332 1_555
C4 Fe0 1.946455 1_655
C5 N5 1.168332 1_555
C5 Fe1 1.946455 1_555
C6 N6 1.168332 1_555
C6 Fe0 1.946455 1_566
C7 N7 1.168332 1_555
C7 Fe1 1.946455 1_555
C8 N8 1.168352 1_555
C8 Fe0 1.950818 1_556
C9 N9 1.168352 1_555
C9 Fe1 1.950818 1_555
C10 N10 1.168352 1_555
C10 Fe0 1.950818 1_665
C11 N11 1.168352 1_555
C11 Fe1 1.950818 1_555
O10 O14 1.218546 1_555
O11 O15 1.218546 1_555
O12 O8 1.218546 1_555
O13 O9 1.218546 1_555
