# generated using pymatgen
data_WO3
_symmetry_space_group_name_H-M   'P 1'
_cell_length_a   3.88025707
_cell_length_b   7.67593300
_cell_length_c   7.78839198
_cell_angle_alpha   90.00000000
_cell_angle_beta   89.91663761
_cell_angle_gamma   90.00000000
_symmetry_Int_Tables_number   1
_chemical_formula_structural   WO3
_chemical_formula_sum   'W4 O12'
_cell_volume   231.97384187
_cell_formula_units_Z   4
loop_
 _symmetry_equiv_pos_site_id
 _symmetry_equiv_pos_as_xyz
  1  'x, y, z'
loop_
 _atom_site_type_symbol
 _atom_site_label
 _atom_site_symmetry_multiplicity
 _atom_site_fract_x
 _atom_site_fract_y
 _atom_site_fract_z
 _atom_site_occupancy
  W  W0  1  0.02998300  0.25000000  0.02086900  1
  W  W1  1  0.97001700  0.75000000  0.97913100  1
  W  W2  1  0.96766100  0.75000000  0.47896600  1
  W  W3  1  0.03233900  0.25000000  0.52103400  1
  O  O0  1  0.49217900  0.75000000  0.99198900  1
  O  O1  1  0.50782100  0.25000000  0.00801100  1
  O  O2  1  0.50952800  0.25000000  0.50775500  1
  O  O3  1  0.49047200  0.75000000  0.49224500  1
  O  O4  1  0.00000000  0.50000000  0.50000000  1
  O  O5  1  0.00000000  0.00000000  0.50000000  1
  O  O6  1  0.00000000  0.00000000  0.00000000  1
  O  O7  1  0.00000000  0.50000000  0.00000000  1
  O  O8  1  0.99395400  0.75000000  0.24284900  1
  O  O9  1  0.00604600  0.25000000  0.75715100  1
  O  O10  1  0.00362100  0.25000000  0.25742100  1
  O  O11  1  0.99637900  0.75000000  0.74257900  1
loop_
_geom_bond_atom_site_label_1
_geom_bond_atom_site_label_2
_geom_bond_distance
_geom_bond_site_symmetry_2
O0 W1 1.856691 1_555
O0 W1 2.028742 1_455
O1 W0 1.856691 1_555
O1 W0 2.028742 1_655
O2 W3 1.854352 1_555
O2 W3 2.031426 1_655
O3 W2 1.854352 1_555
O3 W2 2.031426 1_455
O4 W3 1.930062 1_555
O4 W2 1.930062 1_455
O5 W2 1.930062 1_445
O5 W3 1.930062 1_555
O6 W0 1.929379 1_555
O6 W1 1.929379 1_444
O7 W0 1.929379 1_555
O7 W1 1.929379 1_454
O8 W2 1.841651 1_555
O8 W1 2.056173 1_554
O9 W3 1.841651 1_555
O9 W0 2.056173 1_556
O10 W0 1.845049 1_555
O10 W3 2.056305 1_555
O11 W1 1.845049 1_555
O11 W2 2.056305 1_555
