# generated using pymatgen
data_LiFeOF2
_symmetry_space_group_name_H-M   'P 1'
_cell_length_a   3.32744600
_cell_length_b   5.74147200
_cell_length_c   11.95405700
_cell_angle_alpha   90.00070074
_cell_angle_beta   89.99944845
_cell_angle_gamma   89.99953665
_symmetry_Int_Tables_number   1
_chemical_formula_structural   LiFeOF2
_chemical_formula_sum   'Li4 Fe4 O4 F8'
_cell_volume   228.37554127
_cell_formula_units_Z   4
loop_
 _symmetry_equiv_pos_site_id
 _symmetry_equiv_pos_as_xyz
  1  'x, y, z'
loop_
 _atom_site_type_symbol
 _atom_site_label
 _atom_site_symmetry_multiplicity
 _atom_site_fract_x
 _atom_site_fract_y
 _atom_site_fract_z
 _atom_site_occupancy
  Li  Li0  1  0.49999700  0.49999600  0.00000600  1
  Li  Li1  1  0.99999700  0.99999600  0.00000600  1
  Li  Li2  1  0.99999600  0.00000200  0.49999400  1
  Li  Li3  1  0.49999600  0.50000100  0.49999400  1
  Fe  Fe0  1  0.49999900  0.83124100  0.75000300  1
  Fe  Fe1  1  0.50002900  0.16872100  0.24999700  1
  Fe  Fe2  1  0.99999800  0.33124100  0.75000100  1
  Fe  Fe3  1  0.00003200  0.66872000  0.24999800  1
  O  O0  1  0.00003100  0.99846200  0.24999700  1
  O  O1  1  0.50002900  0.49846700  0.24999700  1
  O  O2  1  0.49999900  0.50149600  0.75000200  1
  O  O3  1  0.99999900  0.00150300  0.75000200  1
  F  F0  1  0.00004300  0.33342300  0.58445100  1
  F  F1  1  0.50004400  0.83342600  0.58445000  1
  F  F2  1  0.99999500  0.33341900  0.91555400  1
  F  F3  1  0.49999700  0.83342200  0.91555300  1
  F  F4  1  0.50001300  0.16656300  0.41554700  1
  F  F5  1  0.00001000  0.66656500  0.41554600  1
  F  F6  1  0.49999700  0.16657100  0.08445000  1
  F  F7  1  0.99999800  0.66657200  0.08445000  1
loop_
_geom_bond_atom_site_label_1
_geom_bond_atom_site_label_2
_geom_bond_distance
_geom_bond_site_symmetry_2
Fe0 O2 1.893222 1_555
Fe0 O3 1.929653 1_465
Fe0 O3 1.929667 1_565
Fe1 O1 1.893227 1_555
Fe1 O0 1.929650 1_645
Fe1 O0 1.929652 1_545
Fe2 O3 1.893181 1_555
Fe2 O2 1.929630 1_555
Fe2 O2 1.929649 1_655
Fe3 O0 1.893204 1_555
Fe3 O1 1.929618 1_555
Fe3 O1 1.929649 1_455
F0 Fe2 1.979034 1_455
F0 Li2 2.164232 1_455
F0 Li3 2.168289 1_555
F0 Li3 2.168532 1_455
F1 Fe0 1.979070 1_555
F1 Li3 2.164247 1_555
F1 Li2 2.168276 1_565
F1 Li2 2.168524 1_465
F2 Fe2 1.979069 1_555
F2 Li1 2.164236 1_546
F2 Li0 2.168351 1_556
F2 Li0 2.168388 1_656
F3 Fe0 1.979034 1_555
F3 Li0 2.164257 1_556
F3 Li1 2.168354 1_456
F3 Li1 2.168381 1_556
F4 Fe1 1.979033 1_555
F4 Li3 2.164263 1_555
F4 Li2 2.168270 1_555
F4 Li2 2.168354 1_455
F5 Fe3 1.979009 1_555
F5 Li2 2.164263 1_465
F5 Li3 2.168291 1_555
F5 Li3 2.168359 1_455
F6 Fe1 1.978997 1_555
F6 Li0 2.164202 1_555
F6 Li1 2.168306 1_545
F6 Li1 2.168333 1_445
F7 Fe3 1.979009 1_655
F7 Li1 2.164197 1_555
F7 Li0 2.168306 1_655
F7 Li0 2.168338 1_555
