# generated using pymatgen
data_CaLaCd2
_symmetry_space_group_name_H-M   'P 1'
_cell_length_a   5.48495246
_cell_length_b   5.48495246
_cell_length_c   5.48495246
_cell_angle_alpha   60.00000000
_cell_angle_beta   60.00000000
_cell_angle_gamma   60.00000000
_symmetry_Int_Tables_number   1
_chemical_formula_structural   CaLaCd2
_chemical_formula_sum   'Ca1 La1 Cd2'
_cell_volume   116.68193046
_cell_formula_units_Z   1
loop_
 _symmetry_equiv_pos_site_id
 _symmetry_equiv_pos_as_xyz
  1  'x, y, z'
loop_
 _atom_site_type_symbol
 _atom_site_label
 _atom_site_symmetry_multiplicity
 _atom_site_fract_x
 _atom_site_fract_y
 _atom_site_fract_z
 _atom_site_occupancy
  Ca  Ca0  1  0.25000000  0.25000000  0.25000000  1
  La  La0  1  0.75000100  0.75000100  0.75000100  1
  Cd  Cd0  1  0.49999900  0.49999900  0.49999900  1
  Cd  Cd1  1  0.00000000  -0.00000000  0.00000000  1
loop_
_geom_bond_atom_site_label_1
_geom_bond_atom_site_label_2
_geom_bond_distance
_geom_bond_site_symmetry_2
Ca0 Cd0 3.358820 1_555
Ca0 Cd1 3.358834 1_556
Ca0 Cd1 3.358834 1_555
Ca0 Cd1 3.358834 1_655
Ca0 Cd1 3.358834 1_565
Ca0 Cd0 3.358838 1_554
Ca0 Cd0 3.358838 1_545
Ca0 Cd0 3.358838 1_455
Cd0 La0 3.358825 1_545
Cd0 La0 3.358825 1_554
Cd0 La0 3.358825 1_455
Cd0 La0 3.358861 1_555
Cd1 La0 3.358820 1_444
Cd1 La0 3.358838 1_454
Cd1 La0 3.358838 1_544
Cd1 La0 3.358838 1_445
