# generated using pymatgen
data_SrLaCl5
_symmetry_space_group_name_H-M   'P 1'
_cell_length_a   15.18477300
_cell_length_b   9.89780700
_cell_length_c   10.53988659
_cell_angle_alpha   78.57988550
_cell_angle_beta   90.00000000
_cell_angle_gamma   90.00000000
_symmetry_Int_Tables_number   1
_chemical_formula_structural   SrLaCl5
_chemical_formula_sum   'Sr8 La8 Cl40'
_cell_volume   1552.73979883
_cell_formula_units_Z   8
loop_
 _symmetry_equiv_pos_site_id
 _symmetry_equiv_pos_as_xyz
  1  'x, y, z'
loop_
 _atom_site_type_symbol
 _atom_site_label
 _atom_site_symmetry_multiplicity
 _atom_site_fract_x
 _atom_site_fract_y
 _atom_site_fract_z
 _atom_site_occupancy
  Sr  Sr0  1  0.97564100  0.78916500  0.71460600  1
  Sr  Sr1  1  0.51825500  0.68737300  0.66411500  1
  Sr  Sr2  1  0.52435900  0.78916500  0.21460600  1
  Sr  Sr3  1  0.98174500  0.68737300  0.16411500  1
  Sr  Sr4  1  0.01825500  0.31262700  0.83588500  1
  Sr  Sr5  1  0.47564100  0.21083500  0.78539400  1
  Sr  Sr6  1  0.48174500  0.31262700  0.33588500  1
  Sr  Sr7  1  0.02435900  0.21083500  0.28539400  1
  La  La0  1  0.23393400  0.99330100  0.61216400  1
  La  La1  1  0.26606600  0.99330100  0.11216400  1
  La  La2  1  0.26352300  0.56370000  0.95948600  1
  La  La3  1  0.23647700  0.56370000  0.45948600  1
  La  La4  1  0.76352300  0.43630000  0.54051400  1
  La  La5  1  0.73647700  0.43630000  0.04051400  1
  La  La6  1  0.73393400  0.00669900  0.88783600  1
  La  La7  1  0.76606600  0.00669900  0.38783600  1
  Cl  Cl0  1  0.91720500  0.90632900  0.94821500  1
  Cl  Cl1  1  0.55594400  0.92141800  0.85285100  1
  Cl  Cl2  1  0.58279500  0.90632900  0.44821500  1
  Cl  Cl3  1  0.80229100  0.92384900  0.66385000  1
  Cl  Cl4  1  0.94405600  0.92141800  0.35285100  1
  Cl  Cl5  1  0.14743000  0.80193700  0.86134800  1
  Cl  Cl6  1  0.69770900  0.92384900  0.16385000  1
  Cl  Cl7  1  0.73006000  0.71979200  0.96179900  1
  Cl  Cl8  1  0.35257000  0.80193700  0.36134800  1
  Cl  Cl9  1  0.12891300  0.77884600  0.53004600  1
  Cl  Cl10  1  0.33148000  0.74371000  0.69932000  1
  Cl  Cl11  1  0.76994000  0.71979200  0.46179900  1
  Cl  Cl12  1  0.37108700  0.77884600  0.03004600  1
  Cl  Cl13  1  0.16852000  0.74371000  0.19932000  1
  Cl  Cl14  1  0.67267300  0.52071300  0.75521700  1
  Cl  Cl15  1  0.90731100  0.53708200  0.93409900  1
  Cl  Cl16  1  0.43285700  0.47221300  0.88034200  1
  Cl  Cl17  1  0.93285700  0.52778700  0.61965800  1
  Cl  Cl18  1  0.40731100  0.46291800  0.56590100  1
  Cl  Cl19  1  0.17267300  0.47928700  0.74478300  1
  Cl  Cl20  1  0.82732700  0.52071300  0.25521700  1
  Cl  Cl21  1  0.59268900  0.53708200  0.43409900  1
  Cl  Cl22  1  0.06714300  0.47221300  0.38034200  1
  Cl  Cl23  1  0.56714300  0.52778700  0.11965800  1
  Cl  Cl24  1  0.09268900  0.46291800  0.06590100  1
  Cl  Cl25  1  0.32732700  0.47928700  0.24478300  1
  Cl  Cl26  1  0.83148000  0.25629000  0.80068000  1
  Cl  Cl27  1  0.62891300  0.22115400  0.96995400  1
  Cl  Cl28  1  0.23006000  0.28020800  0.53820100  1
  Cl  Cl29  1  0.66852000  0.25629000  0.30068000  1
  Cl  Cl30  1  0.87108700  0.22115400  0.46995400  1
  Cl  Cl31  1  0.64743000  0.19806300  0.63865200  1
  Cl  Cl32  1  0.26994000  0.28020800  0.03820100  1
  Cl  Cl33  1  0.30229100  0.07615100  0.83615000  1
  Cl  Cl34  1  0.85257000  0.19806300  0.13865200  1
  Cl  Cl35  1  0.05594400  0.07858200  0.64714900  1
  Cl  Cl36  1  0.19770900  0.07615100  0.33615000  1
  Cl  Cl37  1  0.41720500  0.09367100  0.55178500  1
  Cl  Cl38  1  0.44405600  0.07858200  0.14714900  1
  Cl  Cl39  1  0.08279500  0.09367100  0.05178500  1
loop_
_geom_bond_atom_site_label_1
_geom_bond_atom_site_label_2
_geom_bond_distance
_geom_bond_site_symmetry_2
Cl0 Sr3 2.980336 1_556
Cl0 La6 2.980981 1_565
Cl0 Sr0 3.053753 1_555
Cl1 La6 2.876893 1_565
Cl1 Sr5 3.064598 1_565
Cl1 Sr1 3.387601 1_555
Cl2 Sr1 2.980336 1_555
Cl2 La7 2.980981 1_565
Cl2 Sr2 3.053753 1_555
Cl3 La6 2.844260 1_565
Cl3 La7 2.914363 1_565
Cl3 Sr0 2.951232 1_555
Cl4 La7 2.876893 1_565
Cl4 Sr7 3.064598 1_665
Cl4 Sr3 3.387601 1_555
Cl5 La2 2.961746 1_555
Cl5 Sr0 3.047981 1_455
Cl5 La0 3.200130 1_555
Cl6 La7 2.844260 1_565
Cl6 La6 2.914363 1_564
Cl6 Sr2 2.951232 1_555
Cl7 La5 2.765734 1_556
Cl7 La6 2.792616 1_565
Cl8 La3 2.961746 1_555
Cl8 Sr2 3.047981 1_555
Cl8 La1 3.200130 1_555
Cl9 La3 2.895283 1_555
Cl9 La0 2.919820 1_555
Cl9 Sr0 3.047928 1_455
Cl10 La0 2.870901 1_555
Cl10 Sr1 2.928177 1_555
Cl10 La2 3.134295 1_555
Cl11 La4 2.765734 1_555
Cl11 La7 2.792616 1_565
Cl12 La2 2.895283 1_554
Cl12 La1 2.919820 1_555
Cl12 Sr2 3.047928 1_555
Cl13 La1 2.870901 1_555
Cl13 Sr3 2.928177 1_455
Cl13 La3 3.134295 1_555
Cl14 La4 2.910469 1_555
Cl14 Sr1 2.917864 1_555
Cl14 La5 3.111892 1_556
Cl15 La5 2.922193 1_556
Cl15 Sr4 3.123444 1_655
Cl15 Sr0 3.219953 1_555
Cl15 Sr3 3.285705 1_556
Cl16 La2 2.902844 1_555
Cl16 Sr5 3.023528 1_555
Cl16 Sr1 3.080377 1_555
Cl17 La4 2.902844 1_555
Cl17 Sr0 3.023528 1_555
Cl17 Sr4 3.080377 1_655
Cl18 La3 2.922193 1_555
Cl18 Sr1 3.123444 1_555
Cl18 Sr5 3.219953 1_555
Cl18 Sr6 3.285705 1_555
Cl19 La2 2.910469 1_555
Cl19 Sr4 2.917864 1_555
Cl19 La3 3.111892 1_555
Cl20 La5 2.910469 1_555
Cl20 Sr3 2.917864 1_555
Cl20 La4 3.111892 1_555
Cl21 La4 2.922193 1_555
Cl21 Sr6 3.123444 1_555
Cl21 Sr2 3.219953 1_555
Cl21 Sr1 3.285705 1_555
Cl22 La3 2.902844 1_555
Cl22 Sr7 3.023528 1_555
Cl22 Sr3 3.080377 1_455
Cl23 La5 2.902844 1_555
Cl23 Sr2 3.023528 1_555
Cl23 Sr6 3.080377 1_555
Cl24 La2 2.922193 1_554
Cl24 Sr3 3.123444 1_455
Cl24 Sr7 3.219953 1_555
Cl24 Sr4 3.285705 1_554
Cl25 La3 2.910469 1_555
Cl25 Sr6 2.917864 1_555
Cl25 La2 3.111892 1_554
Cl26 La6 2.870901 1_555
Cl26 Sr4 2.928177 1_655
Cl26 La4 3.134295 1_555
Cl27 La5 2.895283 1_556
Cl27 La6 2.919820 1_555
Cl27 Sr5 3.047928 1_555
Cl28 La3 2.765734 1_555
Cl28 La0 2.792616 1_545
Cl29 La7 2.870901 1_555
Cl29 Sr6 2.928177 1_555
Cl29 La5 3.134295 1_555
Cl30 La4 2.895283 1_555
Cl30 La7 2.919820 1_555
Cl30 Sr7 3.047928 1_655
Cl31 La4 2.961746 1_555
Cl31 Sr5 3.047981 1_555
Cl31 La6 3.200130 1_555
Cl32 La2 2.765734 1_554
Cl32 La1 2.792616 1_545
Cl33 La0 2.844260 1_545
Cl33 La1 2.914363 1_546
Cl33 Sr5 2.951232 1_555
Cl34 La5 2.961746 1_555
Cl34 Sr7 3.047981 1_655
Cl34 La7 3.200130 1_555
Cl35 La0 2.876893 1_545
Cl35 Sr0 3.064598 1_445
Cl35 Sr4 3.387601 1_555
Cl36 La1 2.844260 1_545
Cl36 La0 2.914363 1_545
Cl36 Sr7 2.951232 1_555
Cl37 Sr6 2.980336 1_555
Cl37 La0 2.980981 1_545
Cl37 Sr5 3.053753 1_555
Cl38 La1 2.876893 1_545
Cl38 Sr2 3.064598 1_545
Cl38 Sr6 3.387601 1_555
Cl39 Sr4 2.980336 1_554
Cl39 La1 2.980981 1_545
Cl39 Sr7 3.053753 1_555
