# generated using pymatgen
data_Ca3Sn2S7
_symmetry_space_group_name_H-M   'P 1'
_cell_length_a   12.71018717
_cell_length_b   12.71018717
_cell_length_c   6.99224600
_cell_angle_alpha   90.00000000
_cell_angle_beta   90.00000000
_cell_angle_gamma   147.73884268
_symmetry_Int_Tables_number   1
_chemical_formula_structural   Ca3Sn2S7
_chemical_formula_sum   'Ca6 Sn4 S14'
_cell_volume   602.95129783
_cell_formula_units_Z   2
loop_
 _symmetry_equiv_pos_site_id
 _symmetry_equiv_pos_as_xyz
  1  'x, y, z'
loop_
 _atom_site_type_symbol
 _atom_site_label
 _atom_site_symmetry_multiplicity
 _atom_site_fract_x
 _atom_site_fract_y
 _atom_site_fract_z
 _atom_site_occupancy
  Ca  Ca0  1  0.50000000  0.00000000  0.50000000  1
  Ca  Ca1  1  0.00000000  0.50000000  0.00000000  1
  Ca  Ca2  1  0.71000300  0.85094700  0.50000000  1
  Ca  Ca3  1  0.28999700  0.14905300  0.50000000  1
  Ca  Ca4  1  0.14905300  0.28999700  0.00000000  1
  Ca  Ca5  1  0.85094700  0.71000300  0.00000000  1
  Sn  Sn0  1  0.89895200  0.61499400  0.50000000  1
  Sn  Sn1  1  0.10104800  0.38500600  0.50000000  1
  Sn  Sn2  1  0.38500600  0.10104800  0.00000000  1
  Sn  Sn3  1  0.61499400  0.89895200  0.00000000  1
  S  S0  1  0.00000000  0.50000000  0.50000000  1
  S  S1  1  0.50000000  0.00000000  0.00000000  1
  S  S2  1  0.17406400  0.82593600  0.25000000  1
  S  S3  1  0.82593600  0.17406400  0.25000000  1
  S  S4  1  0.82593600  0.17406400  0.75000000  1
  S  S5  1  0.17406400  0.82593600  0.75000000  1
  S  S6  1  0.88008700  0.79280100  0.50000000  1
  S  S7  1  0.11991300  0.20719900  0.50000000  1
  S  S8  1  0.20719900  0.11991300  0.00000000  1
  S  S9  1  0.79280100  0.88008700  0.00000000  1
  S  S10  1  0.37747200  0.62252800  0.25000000  1
  S  S11  1  0.62252800  0.37747200  0.25000000  1
  S  S12  1  0.62252800  0.37747200  0.75000000  1
  S  S13  1  0.37747200  0.62252800  0.75000000  1
loop_
_geom_bond_atom_site_label_1
_geom_bond_atom_site_label_2
_geom_bond_distance
_geom_bond_site_symmetry_2
Ca0 S4 3.100267 1_555
Ca0 S3 3.100267 1_555
Ca0 S5 3.100267 1_545
Ca0 S2 3.100267 1_545
Ca1 S2 3.100267 1_555
Ca1 S4 3.100267 1_454
Ca1 S3 3.100267 1_455
Ca1 S5 3.100267 1_554
Ca2 S7 2.783695 1_665
Ca2 S6 2.814538 1_555
Ca2 S10 2.931790 1_555
Ca2 S13 2.931790 1_555
Ca2 S3 3.443644 1_565
Ca2 S4 3.443644 1_565
Ca3 S6 2.783695 1_445
Ca3 S7 2.814538 1_555
Ca3 S11 2.931790 1_555
Ca3 S12 2.931790 1_555
Ca3 S5 3.443644 1_545
Ca3 S2 3.443644 1_545
Ca4 S9 2.783695 1_445
Ca4 S8 2.814538 1_555
Ca4 S13 2.931790 1_554
Ca4 S10 2.931790 1_555
Ca4 S4 3.443644 1_454
Ca4 S3 3.443644 1_455
Ca5 S8 2.783695 1_665
Ca5 S9 2.814538 1_555
Ca5 S11 2.931790 1_555
Ca5 S12 2.931790 1_554
Ca5 S2 3.443644 1_655
Ca5 S5 3.443644 1_654
S0 Sn0 2.638289 1_455
S0 Sn1 2.638289 1_555
S1 Sn3 2.638289 1_545
S1 Sn2 2.638289 1_555
S2 Sn0 2.572067 1_455
S2 Sn2 2.572067 1_565
S3 Sn3 2.572067 1_545
S3 Sn1 2.572067 1_655
S4 Sn3 2.572067 1_546
S4 Sn1 2.572067 1_655
S5 Sn0 2.572067 1_455
S5 Sn2 2.572067 1_566
S6 Sn0 2.466046 1_555
S7 Sn1 2.466046 1_555
S8 Sn2 2.466046 1_555
S9 Sn3 2.466046 1_555
S10 Sn3 2.564189 1_555
S10 Sn1 2.564189 1_555
S11 Sn0 2.564189 1_555
S11 Sn2 2.564189 1_555
S12 Sn0 2.564189 1_555
S12 Sn2 2.564189 1_556
S13 Sn3 2.564189 1_556
S13 Sn1 2.564189 1_555
