# generated using pymatgen
data_Li5Mn3(FeO5)2
_symmetry_space_group_name_H-M   'P 1'
_cell_length_a   5.23426800
_cell_length_b   5.22235305
_cell_length_c   7.81613390
_cell_angle_alpha   108.37757914
_cell_angle_beta   103.63820108
_cell_angle_gamma   99.41812884
_symmetry_Int_Tables_number   1
_chemical_formula_structural   Li5Mn3(FeO5)2
_chemical_formula_sum   'Li5 Mn3 Fe2 O10'
_cell_volume   190.36889901
_cell_formula_units_Z   1
loop_
 _symmetry_equiv_pos_site_id
 _symmetry_equiv_pos_as_xyz
  1  'x, y, z'
loop_
 _atom_site_type_symbol
 _atom_site_label
 _atom_site_symmetry_multiplicity
 _atom_site_fract_x
 _atom_site_fract_y
 _atom_site_fract_z
 _atom_site_occupancy
  Li  Li0  1  0.38161300  0.09186900  0.41453400  1
  Li  Li1  1  0.83107700  0.71698300  0.78188400  1
  Li  Li2  1  0.50000000  0.50000000  0.50000000  1
  Li  Li3  1  0.16892300  0.28301700  0.21811600  1
  Li  Li4  1  0.61838700  0.90813100  0.58546600  1
  Mn  Mn0  1  0.00000000  0.50000000  0.00000000  1
  Mn  Mn1  1  0.90336900  0.10076100  0.89711800  1
  Mn  Mn2  1  0.09663100  0.89923900  0.10288200  1
  Fe  Fe0  1  0.72660900  0.32131000  0.68791500  1
  Fe  Fe1  1  0.27339100  0.67869000  0.31208500  1
  O  O0  1  0.36123000  0.37437500  0.85650200  1
  O  O1  1  0.40514500  0.79706900  0.95915400  1
  O  O2  1  0.03478300  0.21348800  0.55031600  1
  O  O3  1  0.77476300  0.01355300  0.22815300  1
  O  O4  1  0.12597200  0.55684200  0.66528500  1
  O  O5  1  0.87402800  0.44315800  0.33471500  1
  O  O6  1  0.22523700  0.98644700  0.77184700  1
  O  O7  1  0.96521700  0.78651200  0.44968400  1
  O  O8  1  0.59485500  0.20293100  0.04084600  1
  O  O9  1  0.63877000  0.62562500  0.14349800  1
loop_
_geom_bond_atom_site_label_1
_geom_bond_atom_site_label_2
_geom_bond_distance
_geom_bond_site_symmetry_2
Li0 Li2 1.961597 1_555
Li0 O2 2.384601 1_555
Li1 Mn1 1.850444 1_565
Li1 O4 2.125519 1_655
Li1 Li2 2.263616 1_555
Li1 O6 2.332115 1_655
Li1 Mn0 2.409866 1_656
Li2 Li4 1.961597 1_555
Li2 Li3 2.263616 1_555
Li2 O5 2.594426 1_555
Li2 O4 2.594426 1_555
Li3 Mn2 1.850444 1_545
Li3 O5 2.125519 1_455
Li3 O3 2.332115 1_455
Li3 Mn0 2.409866 1_555
Li4 O7 2.384601 1_555
Mn0 Mn2 1.911916 1_555
Mn0 Mn1 1.911916 1_454
Mn0 O0 2.491082 1_554
Mn0 O9 2.491082 1_455
Mn0 O8 2.561392 1_455
Mn0 O1 2.561392 1_554
Mn1 O6 2.211778 1_645
Mn1 O8 2.216748 1_556
Mn2 O3 2.211778 1_465
Mn2 O1 2.216748 1_554
Fe0 Li1 1.895275 1_555
Fe0 Li4 1.978537 1_545
Fe0 O2 2.192999 1_655
Fe0 Li2 2.199993 1_555
Fe0 Li0 2.262802 1_555
Fe0 Mn0 2.313066 1_656
Fe0 O4 2.320339 1_655
Fe0 Mn1 2.383116 1_555
Fe0 O0 2.569508 1_555
Fe1 Li3 1.895275 1_555
Fe1 Li0 1.978537 1_565
Fe1 O7 2.192999 1_455
Fe1 Li2 2.199993 1_555
Fe1 Li4 2.262802 1_555
Fe1 Mn0 2.313066 1_555
Fe1 O5 2.320339 1_455
Fe1 Mn2 2.383116 1_555
Fe1 O9 2.569508 1_555
O0 O6 1.873351 1_545
O2 O4 1.658974 1_555
O3 O9 1.873351 1_545
O5 O7 1.658974 1_555
