# generated using pymatgen
data_Li2Si6Ni2O15
_symmetry_space_group_name_H-M   'P 1'
_cell_length_a   11.36358655
_cell_length_b   11.36358655
_cell_length_c   10.20796600
_cell_angle_alpha   90.00000000
_cell_angle_beta   90.00000000
_cell_angle_gamma   100.67053898
_symmetry_Int_Tables_number   1
_chemical_formula_structural   Li2Si6Ni2O15
_chemical_formula_sum   'Li8 Si24 Ni8 O60'
_cell_volume   1295.37232370
_cell_formula_units_Z   4
loop_
 _symmetry_equiv_pos_site_id
 _symmetry_equiv_pos_as_xyz
  1  'x, y, z'
loop_
 _atom_site_type_symbol
 _atom_site_label
 _atom_site_symmetry_multiplicity
 _atom_site_fract_x
 _atom_site_fract_y
 _atom_site_fract_z
 _atom_site_occupancy
  Li  Li0  1  0.99414000  0.50586000  0.75000000  1
  Li  Li1  1  0.50586000  0.99414000  0.25000000  1
  Li  Li2  1  0.60918300  0.39081700  0.74443500  1
  Li  Li3  1  0.10918300  0.89081700  0.75556500  1
  Li  Li4  1  0.89081700  0.10918300  0.24443500  1
  Li  Li5  1  0.39081700  0.60918300  0.25556500  1
  Li  Li6  1  0.49414000  0.00586000  0.75000000  1
  Li  Li7  1  0.00586000  0.49414000  0.25000000  1
  Si  Si0  1  0.17930900  0.03637600  0.19110300  1
  Si  Si1  1  0.03637600  0.17930900  0.80889700  1
  Si  Si2  1  0.20003000  0.58113400  0.45634200  1
  Si  Si3  1  0.08113400  0.70003000  0.95634200  1
  Si  Si4  1  0.58113400  0.20003000  0.54365800  1
  Si  Si5  1  0.70003000  0.08113400  0.04365800  1
  Si  Si6  1  0.32069100  0.46362400  0.69110300  1
  Si  Si7  1  0.46362400  0.32069100  0.30889700  1
  Si  Si8  1  0.52312600  0.26296900  0.00962000  1
  Si  Si9  1  0.02312600  0.76296900  0.49038000  1
  Si  Si10  1  0.76296900  0.02312600  0.50962000  1
  Si  Si11  1  0.26296900  0.52312600  0.99038000  1
  Si  Si12  1  0.97687400  0.23703100  0.50962000  1
  Si  Si13  1  0.23703100  0.97687400  0.49038000  1
  Si  Si14  1  0.47687400  0.73703100  0.99038000  1
  Si  Si15  1  0.73703100  0.47687400  0.00962000  1
  Si  Si16  1  0.67930900  0.53637600  0.30889700  1
  Si  Si17  1  0.53637600  0.67930900  0.69110300  1
  Si  Si18  1  0.41886600  0.79997000  0.45634200  1
  Si  Si19  1  0.29997000  0.91886600  0.95634200  1
  Si  Si20  1  0.79997000  0.41886600  0.54365800  1
  Si  Si21  1  0.91886600  0.29997000  0.04365800  1
  Si  Si22  1  0.96362400  0.82069100  0.19110300  1
  Si  Si23  1  0.82069100  0.96362400  0.80889700  1
  Ni  Ni0  1  0.24390100  0.24390100  0.00000000  1
  Ni  Ni1  1  0.16128300  0.33871700  0.25000000  1
  Ni  Ni2  1  0.33871700  0.16128300  0.75000000  1
  Ni  Ni3  1  0.25609900  0.25609900  0.50000000  1
  Ni  Ni4  1  0.74390100  0.74390100  0.50000000  1
  Ni  Ni5  1  0.83871700  0.66128300  0.75000000  1
  Ni  Ni6  1  0.66128300  0.83871700  0.25000000  1
  Ni  Ni7  1  0.75609900  0.75609900  0.00000000  1
  O  O0  1  0.23176200  0.00805200  0.33438500  1
  O  O1  1  0.00805200  0.23176200  0.66561500  1
  O  O2  1  0.17172700  0.17396200  0.16412200  1
  O  O3  1  0.17396200  0.17172700  0.83587800  1
  O  O4  1  0.09657100  0.25559700  0.42351300  1
  O  O5  1  0.25559700  0.09657100  0.57648700  1
  O  O6  1  0.24440300  0.40342900  0.07648700  1
  O  O7  1  0.40342900  0.24440300  0.92351300  1
  O  O8  1  0.32827300  0.32603800  0.66412200  1
  O  O9  1  0.32603800  0.32827300  0.33587800  1
  O  O10  1  0.15853100  0.50757000  0.32572900  1
  O  O11  1  0.00757000  0.65853100  0.82572900  1
  O  O12  1  0.65853100  0.00757000  0.17427100  1
  O  O13  1  0.50757000  0.15853100  0.67427100  1
  O  O14  1  0.00395100  0.72746400  0.08466000  1
  O  O15  1  0.22746400  0.50395100  0.58466000  1
  O  O16  1  0.72746400  0.00395100  0.91534000  1
  O  O17  1  0.50395100  0.22746400  0.41534000  1
  O  O18  1  0.15587500  0.59958900  0.00981900  1
  O  O19  1  0.09958900  0.65587500  0.50981900  1
  O  O20  1  0.65587500  0.09958900  0.49018100  1
  O  O21  1  0.59958900  0.15587500  0.99018100  1
  O  O22  1  0.26823800  0.49194800  0.83438500  1
  O  O23  1  0.49194800  0.26823800  0.16561500  1
  O  O24  1  0.95681100  0.04318900  0.82356100  1
  O  O25  1  0.61144100  0.38855900  0.95743700  1
  O  O26  1  0.32721400  0.67278600  0.41666500  1
  O  O27  1  0.04318900  0.95681100  0.17643900  1
  O  O28  1  0.17278600  0.82721400  0.91666500  1
  O  O29  1  0.11144100  0.88855900  0.54256300  1
  O  O30  1  0.45681100  0.54318900  0.67643900  1
  O  O31  1  0.38855900  0.61144100  0.04256300  1
  O  O32  1  0.54318900  0.45681100  0.32356100  1
  O  O33  1  0.67278600  0.32721400  0.58333500  1
  O  O34  1  0.82721400  0.17278600  0.08333500  1
  O  O35  1  0.88855900  0.11144100  0.45743700  1
  O  O36  1  0.73176200  0.50805200  0.16561500  1
  O  O37  1  0.50805200  0.73176200  0.83438500  1
  O  O38  1  0.84412500  0.40041100  0.99018100  1
  O  O39  1  0.40041100  0.84412500  0.00981900  1
  O  O40  1  0.34412500  0.90041100  0.50981900  1
  O  O41  1  0.90041100  0.34412500  0.49018100  1
  O  O42  1  0.27253600  0.99604900  0.08466000  1
  O  O43  1  0.49604900  0.77253600  0.58466000  1
  O  O44  1  0.99604900  0.27253600  0.91534000  1
  O  O45  1  0.77253600  0.49604900  0.41534000  1
  O  O46  1  0.49243000  0.84146900  0.32572900  1
  O  O47  1  0.34146900  0.99243000  0.82572900  1
  O  O48  1  0.84146900  0.49243000  0.67427100  1
  O  O49  1  0.99243000  0.34146900  0.17427100  1
  O  O50  1  0.67172700  0.67396200  0.33587800  1
  O  O51  1  0.67396200  0.67172700  0.66412200  1
  O  O52  1  0.75559700  0.59657100  0.92351300  1
  O  O53  1  0.59657100  0.75559700  0.07648700  1
  O  O54  1  0.74440300  0.90342900  0.42351300  1
  O  O55  1  0.90342900  0.74440300  0.57648700  1
  O  O56  1  0.82603800  0.82827300  0.16412200  1
  O  O57  1  0.82827300  0.82603800  0.83587800  1
  O  O58  1  0.99194800  0.76823800  0.33438500  1
  O  O59  1  0.76823800  0.99194800  0.66561500  1
loop_
_geom_bond_atom_site_label_1
_geom_bond_atom_site_label_2
_geom_bond_distance
_geom_bond_site_symmetry_2
Li0 O11 1.879541 1_655
Li0 O48 1.879541 1_555
Li1 O12 1.879541 1_565
Li1 O46 1.879541 1_555
Li2 O33 1.985598 1_555
Li2 O25 2.174676 1_555
Li3 O28 1.985598 1_555
Li3 O29 2.174676 1_555
Li4 O34 1.985598 1_555
Li4 O35 2.174676 1_555
Li5 O26 1.985598 1_555
Li5 O31 2.174676 1_555
Li6 O13 1.879541 1_555
Li6 O47 1.879541 1_545
Li7 O10 1.879541 1_555
Li7 O49 1.879541 1_455
Ni0 O2 1.967159 1_555
Ni0 O3 1.967159 1_554
Ni0 O6 1.972840 1_555
Ni0 O7 1.972840 1_554
Ni1 O49 2.074244 1_455
Ni1 O10 2.074244 1_555
Ni1 O6 2.076752 1_555
Ni1 O4 2.076752 1_555
Ni1 O2 2.090461 1_555
Ni1 O9 2.090461 1_555
Ni2 O47 2.074244 1_545
Ni2 O13 2.074244 1_555
Ni2 O7 2.076752 1_555
Ni2 O5 2.076752 1_555
Ni2 O3 2.090461 1_555
Ni2 O8 2.090461 1_555
Ni3 O8 1.967159 1_555
Ni3 O9 1.967159 1_555
Ni3 O5 1.972840 1_555
Ni3 O4 1.972840 1_555
Ni4 O51 1.967159 1_555
Ni4 O50 1.967159 1_555
Ni4 O55 1.972840 1_555
Ni4 O54 1.972840 1_555
Ni5 O48 2.074244 1_555
Ni5 O11 2.074244 1_655
Ni5 O52 2.076752 1_555
Ni5 O55 2.076752 1_555
Ni5 O51 2.090461 1_555
Ni5 O57 2.090461 1_555
Ni6 O46 2.074244 1_555
Ni6 O12 2.074244 1_565
Ni6 O53 2.076752 1_555
Ni6 O54 2.076752 1_555
Ni6 O56 2.090461 1_555
Ni6 O50 2.090461 1_555
Ni7 O56 1.967159 1_555
Ni7 O57 1.967159 1_554
Ni7 O53 1.972840 1_555
Ni7 O52 1.972840 1_554
O0 Si0 1.633760 1_555
O0 Si13 1.634832 1_545
O1 Si1 1.633760 1_555
O1 Si12 1.634832 1_455
O2 Si0 1.605492 1_555
O3 Si1 1.605492 1_555
O4 Si12 1.600297 1_455
O5 Si13 1.600297 1_545
O6 Si11 1.600297 1_554
O7 Si8 1.600297 1_556
O8 Si6 1.605492 1_555
O9 Si7 1.605492 1_555
O10 Si2 1.597774 1_555
O11 Si3 1.597774 1_555
O12 Si5 1.597774 1_555
O13 Si4 1.597774 1_555
O14 Si3 1.638125 1_554
O14 Si22 1.640953 1_455
O15 Si2 1.638125 1_555
O15 Si6 1.640953 1_555
O16 Si5 1.638125 1_556
O16 Si23 1.640953 1_545
O17 Si4 1.638125 1_555
O17 Si7 1.640953 1_555
O18 Si11 1.633083 1_554
O18 Si3 1.637396 1_554
O19 Si9 1.633083 1_555
O19 Si2 1.637396 1_555
O20 Si10 1.633083 1_555
O20 Si4 1.637396 1_555
O21 Si8 1.633083 1_556
O21 Si5 1.637396 1_556
O22 Si6 1.633760 1_555
O22 Si11 1.634832 1_555
O23 Si7 1.633760 1_555
O23 Si8 1.634832 1_555
O24 Si1 1.647604 1_655
O24 Si23 1.647604 1_545
O25 Si15 1.672508 1_556
O25 Si8 1.672508 1_556
O26 Si18 1.667371 1_555
O26 Si2 1.667371 1_555
O27 Si0 1.647604 1_565
O27 Si22 1.647604 1_455
O28 Si3 1.667371 1_555
O28 Si19 1.667371 1_555
O29 Si13 1.672508 1_555
O29 Si9 1.672508 1_555
O30 Si6 1.647604 1_555
O30 Si17 1.647604 1_555
O31 Si14 1.672508 1_554
O31 Si11 1.672508 1_554
O32 Si7 1.647604 1_555
O32 Si16 1.647604 1_555
O33 Si20 1.667371 1_555
O33 Si4 1.667371 1_555
O34 Si5 1.667371 1_555
O34 Si21 1.667371 1_555
O35 Si12 1.672508 1_555
O35 Si10 1.672508 1_555
O36 Si16 1.633760 1_555
O36 Si15 1.634832 1_555
O37 Si17 1.633760 1_555
O37 Si14 1.634832 1_555
O38 Si15 1.633083 1_556
O38 Si21 1.637396 1_556
O39 Si14 1.633083 1_554
O39 Si19 1.637396 1_554
O40 Si13 1.633083 1_555
O40 Si18 1.637396 1_555
O41 Si12 1.633083 1_555
O41 Si20 1.637396 1_555
O42 Si19 1.638125 1_554
O42 Si0 1.640953 1_565
O43 Si18 1.638125 1_555
O43 Si17 1.640953 1_555
O44 Si21 1.638125 1_556
O44 Si1 1.640953 1_655
O45 Si20 1.638125 1_555
O45 Si16 1.640953 1_555
O46 Si18 1.597774 1_555
O47 Si19 1.597774 1_555
O48 Si20 1.597774 1_555
O49 Si21 1.597774 1_555
O50 Si16 1.605492 1_555
O51 Si17 1.605492 1_555
O52 Si15 1.600297 1_556
O53 Si14 1.600297 1_554
O54 Si10 1.600297 1_565
O55 Si9 1.600297 1_655
O56 Si22 1.605492 1_555
O57 Si23 1.605492 1_555
O58 Si22 1.633760 1_555
O58 Si9 1.634832 1_655
O59 Si23 1.633760 1_555
O59 Si10 1.634832 1_565
