# generated using pymatgen
data_Ba4(PtO3)3
_symmetry_space_group_name_H-M   'P 1'
_cell_length_a   8.65449908
_cell_length_b   10.12232027
_cell_length_c   10.19619853
_cell_angle_alpha   119.65290098
_cell_angle_beta   89.85661322
_cell_angle_gamma   90.25839181
_symmetry_Int_Tables_number   1
_chemical_formula_structural   Ba4(PtO3)3
_chemical_formula_sum   'Ba12 Pt9 O27'
_cell_volume   776.23795542
_cell_formula_units_Z   3
loop_
 _symmetry_equiv_pos_site_id
 _symmetry_equiv_pos_as_xyz
  1  'x, y, z'
loop_
 _atom_site_type_symbol
 _atom_site_label
 _atom_site_symmetry_multiplicity
 _atom_site_fract_x
 _atom_site_fract_y
 _atom_site_fract_z
 _atom_site_occupancy
  Ba  Ba0  1  0.74807613  0.30942824  0.33571754  1
  Ba  Ba1  1  0.00013796  0.65300804  0.66288527  1
  Ba  Ba2  1  0.50200709  0.66700694  0.67607657  1
  Ba  Ba3  1  0.75204692  0.01829282  0.69288847  1
  Ba  Ba4  1  0.74933367  0.67285270  0.98660019  1
  Ba  Ba5  1  0.50020207  0.35319171  0.00196939  1
  Ba  Ba6  1  0.99943608  0.37188270  0.00234189  1
  Ba  Ba7  1  0.25067147  0.68251541  0.00657161  1
  Ba  Ba8  1  0.25044565  0.33518810  0.31316353  1
  Ba  Ba9  1  0.49831303  0.99337388  0.33005906  1
  Ba  Ba10  1  0.99746605  0.99141057  0.35207369  1
  Ba  Ba11  1  0.24882751  0.96970241  0.66915070  1
  Pt  Pt0  1  0.66073801  0.00324434  0.99677174  1
  Pt  Pt1  1  0.24363011  0.25290047  0.59368750  1
  Pt  Pt2  1  0.90499812  0.33261127  0.66890918  1
  Pt  Pt3  1  0.58181975  0.33120336  0.66904984  1
  Pt  Pt4  1  0.99981673  0.07893926  0.07408053  1
  Pt  Pt5  1  0.41884256  0.66755232  0.33024916  1
  Pt  Pt6  1  0.09562966  0.66758394  0.33168429  1
  Pt  Pt7  1  0.75698263  0.66409349  0.40692205  1
  Pt  Pt8  1  0.33857060  0.00140326  0.99699723  1
  O  O0  1  0.49861541  0.15972766  0.15296867  1
  O  O1  1  0.18405067  0.00510450  0.14867397  1
  O  O2  1  0.05849444  0.32133455  0.51360752  1
  O  O3  1  0.42939734  0.32153615  0.51520860  1
  O  O4  1  0.74348199  0.16589365  0.51549291  1
  O  O5  1  0.74376260  0.47143978  0.65459496  1
  O  O6  1  0.05899447  0.18466090  0.67631160  1
  O  O7  1  0.42558469  0.18489049  0.67488799  1
  O  O8  1  0.74335000  0.33857145  0.82165694  1
  O  O9  1  0.46834519  0.50373321  0.83228675  1
  O  O10  1  0.01979463  0.51010885  0.83100406  1
  O  O11  1  0.22737093  0.82333558  0.82876604  1
  O  O12  1  0.18268093  0.15186718  0.99575208  1
  O  O13  1  0.50025217  0.86026074  0.00314360  1
  O  O14  1  0.81675695  0.15807671  0.00359307  1
  O  O15  1  0.81437923  0.00114299  0.14635699  1
  O  O16  1  0.97854495  0.68386337  0.17032636  1
  O  O17  1  0.53368846  0.68093341  0.16895634  1
  O  O18  1  0.25606552  0.52195246  0.17846391  1
  O  O19  1  0.57416776  0.51567641  0.32290959  1
  O  O20  1  0.94024446  0.51463489  0.32711547  1
  O  O21  1  0.25776352  0.82267130  0.34514450  1
  O  O22  1  0.25641128  0.65206450  0.48058121  1
  O  O23  1  0.57177886  0.81156227  0.48387970  1
  O  O24  1  0.94505509  0.81120759  0.49142618  1
  O  O25  1  0.77359552  0.83270174  0.82424375  1
  O  O26  1  0.49970312  0.00886844  0.85317082  1
loop_
_geom_bond_atom_site_label_1
_geom_bond_atom_site_label_2
_geom_bond_distance
_geom_bond_site_symmetry_2
Ba0 O19 2.634384 1_555
Ba0 O20 2.690106 1_555
Ba0 O0 2.761536 1_555
Ba0 O15 2.800694 1_555
Ba0 O5 2.825948 1_555
Ba0 O4 2.847248 1_555
Ba0 O14 3.005457 1_555
Ba0 O2 3.213554 1_655
Ba0 O3 3.275182 1_555
Ba1 O11 2.607937 1_555
Ba1 O25 2.629486 1_455
Ba1 O10 2.741665 1_555
Ba1 O5 2.849298 1_455
Ba1 O22 2.887284 1_555
Ba1 O24 2.937522 1_455
Ba1 O2 2.966205 1_555
Ba1 O20 3.034613 1_455
Ba2 O5 2.819645 1_555
Ba2 O9 2.819785 1_555
Ba2 O25 2.845184 1_555
Ba2 O11 2.855676 1_555
Ba2 O22 2.869483 1_555
Ba2 O13 2.914286 1_556
Ba2 O26 3.008846 1_565
Ba2 O23 3.028110 1_555
Ba2 O3 3.102227 1_555
Ba2 O19 3.200428 1_555
Ba3 O23 2.632313 1_545
Ba3 O24 2.675352 1_545
Ba3 O26 2.753892 1_555
Ba3 O25 2.802104 1_545
Ba3 O14 2.813941 1_556
Ba3 O8 2.833679 1_555
Ba3 O4 2.860944 1_555
Ba3 O6 3.187546 1_655
Ba3 O7 3.348433 1_555
Ba4 O17 2.603927 1_556
Ba4 O16 2.695704 1_556
Ba4 O13 2.827093 1_556
Ba4 O25 2.836925 1_555
Ba4 O10 2.853026 1_655
Ba4 O9 2.938759 1_555
Ba4 O15 2.940173 1_566
Ba4 O8 2.940839 1_555
Ba4 O5 2.964671 1_555
Ba5 O8 2.746705 1_554
Ba5 O18 2.755460 1_555
Ba5 O9 2.829531 1_554
Ba5 O17 2.897149 1_555
Ba5 O19 2.915255 1_555
Ba5 O7 2.969934 1_554
Ba5 O0 3.031266 1_555
Ba5 O26 3.035967 1_554
Ba5 O14 3.389379 1_555
Ba5 O12 3.395718 1_554
Ba6 O14 2.679531 1_555
Ba6 O12 2.713421 1_654
Ba6 O10 2.730493 1_654
Ba6 O16 2.755109 1_555
Ba6 O18 2.784869 1_655
Ba6 O8 2.796205 1_554
Ba6 O20 2.929100 1_555
Ba6 O6 2.945250 1_654
Ba7 O9 2.610302 1_554
Ba7 O10 2.671675 1_554
Ba7 O11 2.814380 1_554
Ba7 O13 2.816150 1_555
Ba7 O16 2.879697 1_455
Ba7 O1 2.902691 1_565
Ba7 O18 2.921495 1_555
Ba7 O17 2.964443 1_555
Ba7 O21 3.014637 1_555
Ba8 O3 2.638418 1_555
Ba8 O2 2.687166 1_555
Ba8 O0 2.753483 1_555
Ba8 O22 2.790338 1_555
Ba8 O18 2.833830 1_555
Ba8 O12 2.884233 1_554
Ba8 O1 2.957940 1_555
Ba8 O20 3.211428 1_455
Ba8 O19 3.312477 1_555
Ba9 O21 2.751780 1_555
Ba9 O17 2.767661 1_555
Ba9 O4 2.801086 1_565
Ba9 O13 2.912467 1_555
Ba9 O3 2.959893 1_565
Ba9 O0 3.017339 1_565
Ba9 O23 3.020362 1_555
Ba9 O7 3.125984 1_565
Ba9 O1 3.328232 1_565
Ba9 O15 3.333932 1_565
Ba10 O15 2.672556 1_565
Ba10 O1 2.682076 1_665
Ba10 O16 2.727790 1_555
Ba10 O4 2.798600 1_565
Ba10 O21 2.812779 1_655
Ba10 O24 2.847047 1_555
Ba10 O6 2.939394 1_665
Ba10 O2 2.947952 1_665
Ba11 O7 2.632949 1_565
Ba11 O11 2.694452 1_555
Ba11 O6 2.704325 1_565
Ba11 O26 2.769188 1_565
Ba11 O22 2.814804 1_555
Ba11 O21 2.875699 1_555
Ba11 O12 2.956582 1_565
Ba11 O24 3.142993 1_455
Ba11 O23 3.311294 1_555
O0 Pt8 2.117811 1_554
O0 Pt0 2.127622 1_554
O1 Pt8 2.028366 1_554
O1 Pt4 2.063637 1_455
O2 Pt2 2.024150 1_455
O2 Pt1 2.071228 1_555
O3 Pt3 2.016807 1_555
O3 Pt1 2.059448 1_555
O4 Pt2 2.150902 1_555
O4 Pt3 2.150971 1_555
O5 Pt2 2.040809 1_555
O5 Pt3 2.046727 1_555
O6 Pt2 2.038409 1_455
O6 Pt1 2.073484 1_555
O7 Pt3 2.023369 1_555
O7 Pt1 2.054127 1_555
O8 Pt3 2.067886 1_555
O8 Pt2 2.069617 1_555
O9 Pt3 1.978819 1_555
O10 Pt2 2.000145 1_455
O11 Pt8 2.012627 1_565
O12 Pt8 2.043960 1_555
O12 Pt4 2.062500 1_456
O13 Pt0 2.025474 1_564
O13 Pt8 2.027341 1_564
O14 Pt0 2.039091 1_554
O14 Pt4 2.062769 1_555
O15 Pt0 2.034027 1_554
O15 Pt4 2.072613 1_555
O16 Pt6 2.009694 1_655
O17 Pt5 1.980376 1_555
O18 Pt6 2.066511 1_555
O18 Pt5 2.070534 1_555
O19 Pt5 2.019986 1_555
O19 Pt7 2.050851 1_555
O20 Pt6 2.029211 1_655
O20 Pt7 2.064825 1_555
O21 Pt5 2.052949 1_555
O21 Pt6 2.054286 1_555
O22 Pt6 2.124693 1_555
O22 Pt5 2.138988 1_555
O23 Pt5 2.015965 1_555
O23 Pt7 2.066241 1_555
O24 Pt6 2.031762 1_655
O24 Pt7 2.079618 1_555
O25 Pt0 2.007576 1_565
O26 Pt0 2.045193 1_555
O26 Pt8 2.049252 1_555
