# generated using pymatgen
data_Hg3(AsO4)2
_symmetry_space_group_name_H-M   'P 1'
_cell_length_a   11.83894760
_cell_length_b   6.57509955
_cell_length_c   10.08902679
_cell_angle_alpha   80.09953930
_cell_angle_beta   90.00000000
_cell_angle_gamma   90.00000000
_symmetry_Int_Tables_number   1
_chemical_formula_structural   Hg3(AsO4)2
_chemical_formula_sum   'Hg12 As8 O32'
_cell_volume   773.65712093
_cell_formula_units_Z   4
loop_
 _symmetry_equiv_pos_site_id
 _symmetry_equiv_pos_as_xyz
  1  'x, y, z'
loop_
 _atom_site_type_symbol
 _atom_site_label
 _atom_site_symmetry_multiplicity
 _atom_site_fract_x
 _atom_site_fract_y
 _atom_site_fract_z
 _atom_site_occupancy
  Hg  Hg0  1  0.16620438  0.09015489  0.66043092  1
  Hg  Hg1  1  0.66620438  0.40984511  0.33956908  1
  Hg  Hg2  1  0.83379562  0.90984511  0.33956908  1
  Hg  Hg3  1  0.33379562  0.59015489  0.66043092  1
  Hg  Hg4  1  0.89022088  0.68044568  0.70303186  1
  Hg  Hg5  1  0.39022088  0.81955432  0.29696814  1
  Hg  Hg6  1  0.10977912  0.31955432  0.29696814  1
  Hg  Hg7  1  0.60977912  0.18044568  0.70303186  1
  Hg  Hg8  1  0.12051995  0.83282012  0.04562280  1
  Hg  Hg9  1  0.62051995  0.66717988  0.95437720  1
  Hg  Hg10  1  0.87948005  0.16717988  0.95437720  1
  Hg  Hg11  1  0.37948005  0.33282012  0.04562280  1
  As  As0  1  0.36838379  0.90966667  0.90231611  1
  As  As1  1  0.86838379  0.59033333  0.09768389  1
  As  As2  1  0.63161621  0.09033333  0.09768389  1
  As  As3  1  0.13161621  0.40966667  0.90231611  1
  As  As4  1  0.90182576  0.20442359  0.60530940  1
  As  As5  1  0.40182576  0.29557641  0.39469060  1
  As  As6  1  0.09817424  0.79557641  0.39469060  1
  As  As7  1  0.59817424  0.70442359  0.60530940  1
  O  O0  1  0.44789438  0.12267371  0.86813172  1
  O  O1  1  0.94789438  0.37732629  0.13186828  1
  O  O2  1  0.55210562  0.87732629  0.13186828  1
  O  O3  1  0.05210562  0.62267371  0.86813172  1
  O  O4  1  0.44251087  0.68341278  0.91343691  1
  O  O5  1  0.94251087  0.81658722  0.08656309  1
  O  O6  1  0.55748913  0.31658722  0.08656309  1
  O  O7  1  0.05748913  0.18341278  0.91343691  1
  O  O8  1  0.27101944  0.87262290  0.78303168  1
  O  O9  1  0.77101944  0.62737710  0.21696832  1
  O  O10  1  0.72898056  0.12737710  0.21696832  1
  O  O11  1  0.22898056  0.37262290  0.78303168  1
  O  O12  1  0.29369581  0.91966415  0.04772461  1
  O  O13  1  0.79369581  0.58033585  0.95227539  1
  O  O14  1  0.70630419  0.08033585  0.95227539  1
  O  O15  1  0.20630419  0.41966415  0.04772461  1
  O  O16  1  0.81066745  0.18248986  0.48191719  1
  O  O17  1  0.31066745  0.31751014  0.51808281  1
  O  O18  1  0.18933255  0.81751014  0.51808281  1
  O  O19  1  0.68933255  0.68248986  0.48191719  1
  O  O20  1  0.46433999  0.76966888  0.54739142  1
  O  O21  1  0.96433999  0.73033112  0.45260858  1
  O  O22  1  0.53566001  0.23033112  0.45260858  1
  O  O23  1  0.03566001  0.26966888  0.54739142  1
  O  O24  1  0.58393425  0.48531620  0.72442662  1
  O  O25  1  0.08393425  0.01468380  0.27557338  1
  O  O26  1  0.41606575  0.51468380  0.27557338  1
  O  O27  1  0.91606575  0.98531620  0.72442662  1
  O  O28  1  0.64980952  0.87070275  0.70517191  1
  O  O29  1  0.14980952  0.62929725  0.29482809  1
  O  O30  1  0.35019048  0.12929725  0.29482809  1
  O  O31  1  0.85019048  0.37070275  0.70517191  1
loop_
_geom_bond_atom_site_label_1
_geom_bond_atom_site_label_2
_geom_bond_distance
_geom_bond_site_symmetry_2
Hg0 O8 2.123013 1_545
Hg0 O23 2.149304 1_555
Hg0 O18 2.497295 1_545
Hg0 O11 2.514299 1_555
Hg0 O17 2.546380 1_555
Hg1 O9 2.123013 1_555
Hg1 O22 2.149304 1_555
Hg1 O19 2.497295 1_555
Hg1 O10 2.514299 1_555
Hg1 O16 2.546380 1_555
Hg2 O10 2.123013 1_565
Hg2 O21 2.149304 1_555
Hg2 O16 2.497295 1_565
Hg2 O9 2.514299 1_555
Hg2 O19 2.546380 1_555
Hg3 O11 2.123013 1_555
Hg3 O20 2.149304 1_555
Hg3 O17 2.497295 1_555
Hg3 O8 2.514299 1_555
Hg3 O18 2.546380 1_555
Hg4 O27 2.075389 1_555
Hg4 O31 2.087497 1_555
Hg4 O3 2.524758 1_655
Hg4 O21 2.641202 1_555
Hg4 O13 2.737392 1_555
Hg5 O26 2.075389 1_555
Hg5 O30 2.087497 1_565
Hg5 O2 2.524758 1_555
Hg5 O20 2.641202 1_555
Hg5 O12 2.737392 1_555
Hg6 O25 2.075389 1_555
Hg6 O29 2.087497 1_555
Hg6 O1 2.524758 1_455
Hg6 O23 2.641202 1_555
Hg6 O15 2.737392 1_555
Hg7 O24 2.075389 1_555
Hg7 O28 2.087497 1_545
Hg7 O0 2.524758 1_555
Hg7 O22 2.641202 1_555
Hg7 O14 2.737392 1_555
Hg8 O12 2.129335 1_555
Hg8 O5 2.146659 1_455
Hg8 O7 2.567510 1_564
Hg8 O3 2.573462 1_554
Hg8 O29 2.659963 1_555
Hg9 O13 2.129335 1_555
Hg9 O4 2.146659 1_555
Hg9 O6 2.567510 1_556
Hg9 O2 2.573462 1_556
Hg9 O28 2.659963 1_555
Hg10 O14 2.129335 1_555
Hg10 O7 2.146659 1_655
Hg10 O5 2.567510 1_546
Hg10 O1 2.573462 1_556
Hg10 O31 2.659963 1_555
Hg11 O15 2.129335 1_555
Hg11 O6 2.146659 1_555
Hg11 O4 2.567510 1_554
Hg11 O0 2.573462 1_554
Hg11 O30 2.659963 1_555
As0 O0 1.673455 1_565
As0 O8 1.713810 1_555
As0 O4 1.714185 1_555
As0 O12 1.723809 1_556
As1 O1 1.673455 1_555
As1 O9 1.713810 1_555
As1 O5 1.714185 1_555
As1 O13 1.723809 1_554
As2 O2 1.673455 1_545
As2 O10 1.713810 1_555
As2 O6 1.714185 1_555
As2 O14 1.723809 1_554
As3 O3 1.673455 1_555
As3 O11 1.713810 1_555
As3 O7 1.714185 1_555
As3 O15 1.723809 1_556
As4 O16 1.672436 1_555
As4 O23 1.717494 1_655
As4 O27 1.718373 1_545
As4 O31 1.721301 1_555
As5 O17 1.672436 1_555
As5 O22 1.717494 1_555
As5 O26 1.718373 1_555
As5 O30 1.721301 1_555
As6 O18 1.672436 1_555
As6 O21 1.717494 1_455
As6 O25 1.718373 1_565
As6 O29 1.721301 1_555
As7 O19 1.672436 1_555
As7 O20 1.717494 1_555
As7 O24 1.718373 1_555
As7 O28 1.721301 1_555
