# generated using pymatgen
data_Li5V4(PO4)6
_symmetry_space_group_name_H-M   'P 1'
_cell_length_a   8.72200100
_cell_length_b   8.69187700
_cell_length_c   14.91104564
_cell_angle_alpha   54.78495847
_cell_angle_beta   90.00000000
_cell_angle_gamma   90.00000000
_symmetry_Int_Tables_number   1
_chemical_formula_structural   Li5V4(PO4)6
_chemical_formula_sum   'Li10 V8 P12 O48'
_cell_volume   923.54152534
_cell_formula_units_Z   2
loop_
 _symmetry_equiv_pos_site_id
 _symmetry_equiv_pos_as_xyz
  1  'x, y, z'
loop_
 _atom_site_type_symbol
 _atom_site_label
 _atom_site_symmetry_multiplicity
 _atom_site_fract_x
 _atom_site_fract_y
 _atom_site_fract_z
 _atom_site_occupancy
  Li  Li0  1  0.17615900  0.37464200  0.69984100  1
  Li  Li1  1  0.47213400  0.02974700  0.17958200  1
  Li  Li2  1  0.97271000  0.97330000  0.32179300  1
  Li  Li3  1  0.05189200  0.67955200  0.73930500  1
  Li  Li4  1  0.66093000  0.61132900  0.80447500  1
  Li  Li5  1  0.82384100  0.37464200  0.19984100  1
  Li  Li6  1  0.52786600  0.02974700  0.67958200  1
  Li  Li7  1  0.02729000  0.97330000  0.82179300  1
  Li  Li8  1  0.94810800  0.67955200  0.23930500  1
  Li  Li9  1  0.33907000  0.61132900  0.30447500  1
  V  V0  1  0.22163700  0.36053400  0.88995600  1
  V  V1  1  0.71290700  0.63020300  0.61000500  1
  V  V2  1  0.28868400  0.86655500  0.38723900  1
  V  V3  1  0.78846700  0.13670700  0.11080400  1
  V  V4  1  0.71131600  0.86655500  0.88723900  1
  V  V5  1  0.21153300  0.13670700  0.61080400  1
  V  V6  1  0.77836300  0.36053400  0.38995600  1
  V  V7  1  0.28709300  0.63020300  0.11000500  1
  P  P0  1  0.99931300  0.54500800  0.49283400  1
  P  P1  1  0.86506200  0.25741600  0.84893000  1
  P  P2  1  0.14802500  0.95495700  0.14807100  1
  P  P3  1  0.36691200  0.74961800  0.64604500  1
  P  P4  1  0.64527900  0.03944200  0.35469100  1
  P  P5  1  0.50098500  0.46035900  0.00460600  1
  P  P6  1  0.00068700  0.54500800  0.99283400  1
  P  P7  1  0.85197500  0.95495700  0.64807100  1
  P  P8  1  0.13493800  0.25741600  0.34893000  1
  P  P9  1  0.35472100  0.03944200  0.85469100  1
  P  P10  1  0.63308800  0.74961800  0.14604500  1
  P  P11  1  0.49901500  0.46035900  0.50460600  1
  O  O0  1  0.37949600  0.61473600  0.43427500  1
  O  O1  1  0.35731300  0.21056900  0.85965000  1
  O  O2  1  0.57391600  0.48997600  0.58840200  1
  O  O3  1  0.65497100  0.90259700  0.16754700  1
  O  O4  1  0.88039400  0.53855900  0.57201900  1
  O  O5  1  0.83219400  0.18408300  0.96862900  1
  O  O6  1  0.03630000  0.32031200  0.81919800  1
  O  O7  1  0.26860300  0.90503600  0.23855900  1
  O  O8  1  0.98480500  0.96623400  0.18690200  1
  O  O9  1  0.07668600  0.74008300  0.43079600  1
  O  O10  1  0.19733900  0.13600600  0.04289000  1
  O  O11  1  0.75755300  0.42928300  0.77310900  1
  O  O12  1  0.25158300  0.58539300  0.71910000  1
  O  O13  1  0.69803500  0.85747100  0.46443800  1
  O  O14  1  0.57803000  0.26475600  0.07256900  1
  O  O15  1  0.49017900  0.00838600  0.31888300  1
  O  O16  1  0.53833100  0.68651200  0.67554100  1
  O  O17  1  0.33455500  0.82382600  0.52722700  1
  O  O18  1  0.76917900  0.08537300  0.26550500  1
  O  O19  1  0.38515200  0.46980000  0.92476200  1
  O  O20  1  0.06982400  0.52483000  0.90459100  1
  O  O21  1  0.85852700  0.77967500  0.64383500  1
  O  O22  1  0.15697900  0.10108200  0.33049400  1
  O  O23  1  0.88700200  0.38465700  0.06895900  1
  O  O24  1  0.62050400  0.61473600  0.93427500  1
  O  O25  1  0.34502900  0.90259700  0.66754700  1
  O  O26  1  0.64268700  0.21056900  0.35965000  1
  O  O27  1  0.42608400  0.48997600  0.08840200  1
  O  O28  1  0.11960600  0.53855900  0.07201900  1
  O  O29  1  0.73139700  0.90503600  0.73855900  1
  O  O30  1  0.16780600  0.18408300  0.46862900  1
  O  O31  1  0.96370000  0.32031200  0.31919800  1
  O  O32  1  0.01519500  0.96623400  0.68690200  1
  O  O33  1  0.92331400  0.74008300  0.93079600  1
  O  O34  1  0.80266100  0.13600600  0.54289000  1
  O  O35  1  0.24244700  0.42928300  0.27310900  1
  O  O36  1  0.74841700  0.58539300  0.21910000  1
  O  O37  1  0.30196500  0.85747100  0.96443800  1
  O  O38  1  0.42197000  0.26475600  0.57256900  1
  O  O39  1  0.50982100  0.00838600  0.81888300  1
  O  O40  1  0.23082100  0.08537300  0.76550500  1
  O  O41  1  0.46166900  0.68651200  0.17554100  1
  O  O42  1  0.66544500  0.82382600  0.02722700  1
  O  O43  1  0.61484800  0.46980000  0.42476200  1
  O  O44  1  0.84302100  0.10108200  0.83049400  1
  O  O45  1  0.93017600  0.52483000  0.40459100  1
  O  O46  1  0.14147300  0.77967500  0.14383500  1
  O  O47  1  0.11299800  0.38465700  0.56895900  1
loop_
_geom_bond_atom_site_label_1
_geom_bond_atom_site_label_2
_geom_bond_distance
_geom_bond_site_symmetry_2
Li0 O6 1.977175 1_555
Li0 O47 1.980865 1_555
Li0 O12 2.116008 1_555
Li0 O40 2.160664 1_555
Li0 O1 2.507854 1_555
Li1 O14 1.952607 1_555
Li1 O15 1.982149 1_555
Li1 O7 2.000075 1_545
Li1 O3 2.006346 1_545
Li2 O9 1.942550 1_655
Li2 O18 1.965137 1_565
Li2 O22 1.999918 1_665
Li2 O8 2.050113 1_555
Li3 O12 2.019525 1_555
Li3 O20 2.021060 1_555
Li3 O21 2.049262 1_455
Li3 O32 2.162538 1_555
Li4 O16 1.953890 1_555
Li4 O24 1.984259 1_555
Li4 O11 2.070314 1_555
Li4 O29 2.228705 1_555
Li5 O31 1.977175 1_555
Li5 O23 1.980865 1_555
Li5 O36 2.116008 1_555
Li5 O18 2.160664 1_555
Li5 O26 2.507854 1_555
Li6 O38 1.952607 1_555
Li6 O39 1.982149 1_555
Li6 O29 2.000075 1_545
Li6 O25 2.006346 1_545
Li7 O33 1.942550 1_455
Li7 O40 1.965137 1_565
Li7 O44 1.999918 1_465
Li7 O32 2.050113 1_555
Li8 O36 2.019525 1_555
Li8 O45 2.021060 1_555
Li8 O46 2.049262 1_655
Li8 O8 2.162538 1_555
Li9 O41 1.953890 1_555
Li9 O0 1.984259 1_555
Li9 O35 2.070314 1_555
Li9 O7 2.228705 1_555
O0 P11 1.537557 1_555
O0 V2 2.034597 1_555
O1 P9 1.531413 1_555
O1 V0 1.995732 1_555
O2 P11 1.557314 1_555
O2 V1 1.873966 1_555
O3 P10 1.548847 1_555
O3 V3 2.055875 1_565
O4 P0 1.548143 1_555
O4 V1 1.899913 1_555
O5 P1 1.536897 1_555
O5 V3 1.950008 1_556
O6 P1 1.564145 1_455
O6 V0 2.067345 1_555
O7 P2 1.561933 1_555
O7 V2 2.049960 1_555
O8 P2 1.561078 1_655
O8 V3 2.115782 1_565
O9 P0 1.541805 1_455
O9 V2 2.055677 1_555
O10 P2 1.508227 1_545
O10 V0 1.980203 1_554
O11 P1 1.562447 1_555
O11 V1 2.053772 1_555
O12 P3 1.562918 1_555
O12 V0 2.153148 1_555
O13 P4 1.551215 1_565
O13 V1 1.919721 1_555
O14 P5 1.543381 1_555
O14 V3 2.049580 1_555
O15 P4 1.534338 1_555
O15 V2 2.048924 1_545
O16 P3 1.565711 1_555
O16 V1 2.016072 1_555
O17 P3 1.522060 1_555
O17 V2 1.939337 1_555
O18 P4 1.575886 1_555
O18 V3 2.088414 1_555
O19 P5 1.527149 1_556
O19 V0 1.942622 1_555
O20 P6 1.546560 1_555
O20 V0 2.049292 1_555
O21 P7 1.561852 1_555
O21 V1 2.076376 1_555
O22 P8 1.545887 1_555
O22 V2 2.049804 1_545
O23 P6 1.545841 1_654
O23 V3 2.054690 1_555
O24 P5 1.537557 1_556
O24 V4 2.034597 1_555
O25 P3 1.548847 1_555
O25 V5 2.055875 1_565
O26 P4 1.531413 1_555
O26 V6 1.995732 1_555
O27 P5 1.557314 1_555
O27 V7 1.873966 1_555
O28 P6 1.548143 1_554
O28 V7 1.899913 1_555
O29 P7 1.561933 1_555
O29 V4 2.049960 1_555
O30 P8 1.536897 1_555
O30 V5 1.950008 1_555
O31 P8 1.564145 1_655
O31 V6 2.067345 1_555
O32 P7 1.561078 1_455
O32 V5 2.115782 1_565
O33 P6 1.541805 1_655
O33 V4 2.055677 1_555
O34 P7 1.508227 1_545
O34 V6 1.980203 1_555
O35 P8 1.562447 1_555
O35 V7 2.053772 1_555
O36 P10 1.562918 1_555
O36 V6 2.153148 1_555
O37 P9 1.551215 1_565
O37 V7 1.919721 1_556
O38 P11 1.543381 1_555
O38 V5 2.049580 1_555
O39 P9 1.534338 1_555
O39 V4 2.048924 1_545
O40 P9 1.575886 1_555
O40 V5 2.088414 1_555
O41 P10 1.565711 1_555
O41 V7 2.016072 1_555
O42 P10 1.522060 1_555
O42 V4 1.939337 1_554
O43 P11 1.527149 1_555
O43 V6 1.942622 1_555
O44 P1 1.545887 1_555
O44 V4 2.049804 1_545
O45 P0 1.546560 1_555
O45 V6 2.049292 1_555
O46 P2 1.561852 1_555
O46 V7 2.076376 1_555
O47 P0 1.545841 1_455
O47 V5 2.054690 1_555
