# generated using pymatgen
data_Rb3V2ZnP4O17
_symmetry_space_group_name_H-M   'P 1'
_cell_length_a   7.22911100
_cell_length_b   9.60343000
_cell_length_c   23.53568800
_cell_angle_alpha   90.00000000
_cell_angle_beta   90.00000000
_cell_angle_gamma   90.00000000
_symmetry_Int_Tables_number   1
_chemical_formula_structural   Rb3V2ZnP4O17
_chemical_formula_sum   'Rb12 V8 Zn4 P16 O68'
_cell_volume   1633.94775713
_cell_formula_units_Z   4
loop_
 _symmetry_equiv_pos_site_id
 _symmetry_equiv_pos_as_xyz
  1  'x, y, z'
loop_
 _atom_site_type_symbol
 _atom_site_label
 _atom_site_symmetry_multiplicity
 _atom_site_fract_x
 _atom_site_fract_y
 _atom_site_fract_z
 _atom_site_occupancy
  Rb  Rb0  1  0.73043300  0.61235600  0.55575300  1
  Rb  Rb1  1  0.76956700  0.38764400  0.05575300  1
  Rb  Rb2  1  0.23043300  0.88764400  0.44424700  1
  Rb  Rb3  1  0.26956700  0.11235600  0.94424700  1
  Rb  Rb4  1  0.73112700  0.15244400  0.65871500  1
  Rb  Rb5  1  0.76887300  0.84755600  0.15871500  1
  Rb  Rb6  1  0.23112700  0.34755600  0.34128500  1
  Rb  Rb7  1  0.26887300  0.65244400  0.84128500  1
  Rb  Rb8  1  0.21210400  0.42270000  0.66446500  1
  Rb  Rb9  1  0.28789600  0.57730000  0.16446500  1
  Rb  Rb10  1  0.71210400  0.07730000  0.33553500  1
  Rb  Rb11  1  0.78789600  0.92270000  0.83553500  1
  V  V0  1  0.95482200  0.24929500  0.50803200  1
  V  V1  1  0.54517800  0.75070500  0.00803200  1
  V  V2  1  0.45482200  0.25070500  0.49196800  1
  V  V3  1  0.04517800  0.74929500  0.99196800  1
  V  V4  1  0.22332000  0.02019600  0.74410800  1
  V  V5  1  0.27668000  0.97980400  0.24410800  1
  V  V6  1  0.72332000  0.47980400  0.25589200  1
  V  V7  1  0.77668000  0.52019600  0.75589200  1
  Zn  Zn0  1  0.22718400  0.77133900  0.59825600  1
  Zn  Zn1  1  0.27281600  0.22866100  0.09825600  1
  Zn  Zn2  1  0.72718400  0.72866100  0.40174400  1
  Zn  Zn3  1  0.77281600  0.27133900  0.90174400  1
  P  P0  1  0.25394000  0.10323200  0.59488200  1
  P  P1  1  0.24606000  0.89676800  0.09488200  1
  P  P2  1  0.75394000  0.39676800  0.40511800  1
  P  P3  1  0.74606000  0.60323200  0.90511800  1
  P  P4  1  0.22011500  0.52065300  0.49662200  1
  P  P5  1  0.27988500  0.47934700  0.99662200  1
  P  P6  1  0.72011500  0.97934700  0.50337800  1
  P  P7  1  0.77988500  0.02065300  0.00337800  1
  P  P8  1  0.49517200  0.24499800  0.80435400  1
  P  P9  1  0.00482800  0.75500200  0.30435400  1
  P  P10  1  0.99517200  0.25500200  0.19564600  1
  P  P11  1  0.50482800  0.74499800  0.69564600  1
  P  P12  1  0.08283500  0.29457000  0.80535900  1
  P  P13  1  0.41716500  0.70543000  0.30535900  1
  P  P14  1  0.58283500  0.20543000  0.19464100  1
  P  P15  1  0.91716500  0.79457000  0.69464100  1
  O  O0  1  0.07473200  0.19959800  0.75277100  1
  O  O1  1  0.42526800  0.80040200  0.25277100  1
  O  O2  1  0.57473200  0.30040200  0.24722900  1
  O  O3  1  0.92526800  0.69959800  0.74722900  1
  O  O4  1  0.00970600  0.44101000  0.79261900  1
  O  O5  1  0.49029400  0.55899000  0.29261900  1
  O  O6  1  0.50970600  0.05899000  0.20738100  1
  O  O7  1  0.99029400  0.94101000  0.70738100  1
  O  O8  1  0.06901200  0.17937300  0.57710000  1
  O  O9  1  0.43098800  0.82062700  0.07710000  1
  O  O10  1  0.56901200  0.32062700  0.42290000  1
  O  O11  1  0.93098800  0.67937300  0.92290000  1
  O  O12  1  0.91512500  0.30468000  0.43112200  1
  O  O13  1  0.58487500  0.69532000  0.93112200  1
  O  O14  1  0.41512500  0.19532000  0.56887800  1
  O  O15  1  0.08487500  0.80468000  0.06887800  1
  O  O16  1  0.06143700  0.42684800  0.52443600  1
  O  O17  1  0.43856300  0.57315200  0.02443600  1
  O  O18  1  0.56143700  0.07315200  0.47556400  1
  O  O19  1  0.93856300  0.92684800  0.97556400  1
  O  O20  1  0.27565200  0.11261200  0.65919900  1
  O  O21  1  0.22434800  0.88738800  0.15919900  1
  O  O22  1  0.77565200  0.38738800  0.34080100  1
  O  O23  1  0.72434800  0.61261200  0.84080100  1
  O  O24  1  0.90687700  0.06005600  0.48619900  1
  O  O25  1  0.59312300  0.93994400  0.98619900  1
  O  O26  1  0.40687700  0.43994400  0.51380100  1
  O  O27  1  0.09312300  0.56005600  0.01380100  1
  O  O28  1  0.62596500  0.35542200  0.78223800  1
  O  O29  1  0.87403500  0.64457800  0.28223800  1
  O  O30  1  0.12596500  0.14457800  0.21776200  1
  O  O31  1  0.37403500  0.85542200  0.71776200  1
  O  O32  1  0.74433000  0.28712600  0.53144300  1
  O  O33  1  0.75567000  0.71287400  0.03144300  1
  O  O34  1  0.24433000  0.21287400  0.46855700  1
  O  O35  1  0.25567000  0.78712600  0.96855700  1
  O  O36  1  0.25923800  0.95725300  0.56942100  1
  O  O37  1  0.24076200  0.04274700  0.06942100  1
  O  O38  1  0.75923800  0.54274700  0.43057900  1
  O  O39  1  0.74076200  0.45725300  0.93057900  1
  O  O40  1  0.43639200  0.68253100  0.63938100  1
  O  O41  1  0.06360800  0.31746900  0.13938100  1
  O  O42  1  0.93639200  0.81746900  0.36061900  1
  O  O43  1  0.56360800  0.18253100  0.86061900  1
  O  O44  1  0.45835800  0.12994300  0.76041500  1
  O  O45  1  0.04164200  0.87005700  0.26041500  1
  O  O46  1  0.95835800  0.37005700  0.23958500  1
  O  O47  1  0.54164200  0.62994300  0.73958500  1
  O  O48  1  0.21539400  0.65965500  0.52892400  1
  O  O49  1  0.28460600  0.34034500  0.02892400  1
  O  O50  1  0.71539400  0.84034500  0.47107600  1
  O  O51  1  0.78460600  0.15965500  0.97107600  1
  O  O52  1  0.99895100  0.72866700  0.64129600  1
  O  O53  1  0.50104900  0.27133300  0.14129600  1
  O  O54  1  0.49895100  0.77133300  0.35870400  1
  O  O55  1  0.00104900  0.22866700  0.85870400  1
  O  O56  1  0.30126600  0.32422300  0.81728500  1
  O  O57  1  0.19873400  0.67577700  0.31728500  1
  O  O58  1  0.80126600  0.17577700  0.18271500  1
  O  O59  1  0.69873400  0.82422300  0.68271500  1
  O  O60  1  0.18700400  0.96032800  0.80933900  1
  O  O61  1  0.31299600  0.03967200  0.30933900  1
  O  O62  1  0.68700400  0.53967200  0.19066100  1
  O  O63  1  0.81299600  0.46032800  0.69066100  1
  O  O64  1  0.20042000  0.53701200  0.43371200  1
  O  O65  1  0.29958000  0.46298800  0.93371200  1
  O  O66  1  0.70042000  0.96298800  0.56628800  1
  O  O67  1  0.79958000  0.03701200  0.06628800  1
loop_
_geom_bond_atom_site_label_1
_geom_bond_atom_site_label_2
_geom_bond_distance
_geom_bond_site_symmetry_2
O0 P12 1.538560 1_555
O0 V4 2.040511 1_555
O0 Rb8 3.145824 1_555
O0 Rb4 3.357895 1_455
O1 P13 1.538560 1_555
O1 V5 2.040511 1_555
O1 Rb9 3.145824 1_555
O1 Rb5 3.357895 1_555
O2 P14 1.538560 1_555
O2 V6 2.040511 1_555
O2 Rb10 3.145824 1_555
O2 Rb6 3.357895 1_555
O3 P15 1.538560 1_555
O3 V7 2.040511 1_555
O3 Rb11 3.145824 1_555
O3 Rb7 3.357895 1_655
O4 P12 1.532038 1_555
O4 V7 2.040405 1_455
O4 Rb7 2.990817 1_555
O4 Rb8 3.356958 1_555
O5 P13 1.532038 1_555
O5 V6 2.040405 1_555
O5 Rb6 2.990817 1_555
O5 Rb9 3.356958 1_555
O6 P14 1.532038 1_555
O6 V5 2.040405 1_545
O6 Rb5 2.990817 1_545
O6 Rb10 3.356958 1_555
O7 P15 1.532038 1_555
O7 V4 2.040405 1_665
O7 Rb4 2.990817 1_565
O7 Rb11 3.356958 1_555
O8 P0 1.580201 1_555
O8 V0 1.942882 1_455
O8 Rb4 3.118162 1_455
O8 Rb8 3.280014 1_555
O9 P1 1.580201 1_555
O9 V1 1.942882 1_555
O9 Rb5 3.118162 1_555
O9 Rb9 3.280014 1_555
O10 P2 1.580201 1_555
O10 V2 1.942882 1_555
O10 Rb6 3.118162 1_555
O10 Rb10 3.280014 1_555
O11 P3 1.580201 1_555
O11 V3 1.942882 1_655
O11 Rb7 3.118162 1_655
O11 Rb11 3.280014 1_555
O12 P2 1.585690 1_555
O12 V0 1.908357 1_555
O12 Rb6 3.139852 1_655
O12 Rb10 3.461710 1_555
O13 P3 1.585690 1_555
O13 V1 1.908357 1_556
O13 Rb7 3.139852 1_555
O13 Rb11 3.461710 1_555
O14 P0 1.585690 1_555
O14 V2 1.908357 1_555
O14 Rb4 3.139852 1_555
O14 Rb8 3.461710 1_555
O15 P1 1.585690 1_555
O15 V3 1.908357 1_554
O15 Rb5 3.139852 1_455
O15 Rb9 3.461710 1_555
O16 P4 1.598718 1_555
O16 V0 1.910631 1_455
O16 Rb0 3.072923 1_455
O16 Rb8 3.471227 1_555
O17 P5 1.598718 1_554
O17 V1 1.910631 1_555
O17 Rb1 3.072923 1_555
O17 Rb9 3.471227 1_555
O18 P6 1.598718 1_545
O18 V2 1.910631 1_555
O18 Rb2 3.072923 1_545
O18 Rb10 3.471227 1_555
O19 P7 1.598718 1_566
O19 V3 1.910631 1_655
O19 Rb3 3.072923 1_665
O19 Rb11 3.471227 1_555
O20 P0 1.524524 1_555
O20 V4 2.219091 1_555
O20 Rb8 3.015683 1_555
O20 Rb4 3.314844 1_555
O21 P1 1.524524 1_555
O21 V5 2.219091 1_555
O21 Rb9 3.015683 1_555
O21 Rb5 3.314844 1_455
O22 P2 1.524524 1_555
O22 V6 2.219091 1_555
O22 Rb10 3.015683 1_555
O22 Rb6 3.314844 1_655
O23 P3 1.524524 1_555
O23 V7 2.219091 1_555
O23 Rb11 3.015683 1_555
O23 Rb7 3.314844 1_555
O24 P6 1.608434 1_545
O24 V0 1.920134 1_555
O24 Rb2 3.031076 1_645
O25 P7 1.608434 1_566
O25 V1 1.920134 1_556
O25 Rb3 3.031076 1_565
O26 P4 1.608434 1_555
O26 V2 1.920134 1_555
O26 Rb0 3.031076 1_555
O27 P5 1.608434 1_554
O27 V3 1.920134 1_554
O27 Rb1 3.031076 1_455
O28 P8 1.513106 1_555
O28 V7 2.018800 1_555
O29 P9 1.513106 1_655
O29 V6 2.018800 1_555
O30 P10 1.513106 1_455
O30 V5 2.018800 1_545
O31 P11 1.513106 1_555
O31 V4 2.018800 1_565
O32 V0 1.658634 1_555
O32 V2 2.316394 1_555
O32 Rb0 3.176885 1_555
O32 Rb4 3.264145 1_555
O33 V1 1.658634 1_555
O33 V3 2.316394 1_654
O33 Rb1 3.176885 1_555
O33 Rb5 3.264145 1_555
O34 V2 1.658634 1_555
O34 V0 2.316394 1_455
O34 Rb2 3.176885 1_545
O34 Rb6 3.264145 1_555
O35 V3 1.658634 1_555
O35 V1 2.316394 1_556
O35 Rb3 3.176885 1_565
O35 Rb7 3.264145 1_555
O36 P0 1.525083 1_565
O36 Zn0 1.924048 1_555
O36 Rb2 3.028115 1_555
O37 P1 1.525083 1_545
O37 Zn1 1.924048 1_555
O37 Rb3 3.028115 1_554
O38 P2 1.525083 1_555
O38 Zn2 1.924048 1_555
O38 Rb0 3.028115 1_555
O39 P3 1.525083 1_555
O39 Zn3 1.924048 1_555
O39 Rb1 3.028115 1_556
O40 P11 1.535655 1_555
O40 Zn0 1.987846 1_555
O40 Rb0 2.974316 1_555
O40 Rb8 3.033785 1_555
O41 P10 1.535655 1_455
O41 Zn1 1.987846 1_555
O41 Rb1 2.974316 1_455
O41 Rb9 3.033785 1_555
O42 P9 1.535655 1_655
O42 Zn2 1.987846 1_555
O42 Rb2 2.974316 1_655
O42 Rb10 3.033785 1_565
O43 P8 1.535655 1_555
O43 Zn3 1.987846 1_555
O43 Rb3 2.974316 1_555
O43 Rb11 3.033785 1_545
O44 P8 1.536592 1_555
O44 V4 2.035952 1_555
O44 Rb4 3.108732 1_555
O44 Rb11 3.572407 1_545
O45 P9 1.536592 1_555
O45 V5 2.035952 1_555
O45 Rb5 3.108732 1_455
O45 Rb10 3.572407 1_465
O46 P10 1.536592 1_555
O46 V6 2.035952 1_555
O46 Rb6 3.108732 1_655
O46 Rb9 3.572407 1_655
O47 P11 1.536592 1_555
O47 V7 2.035952 1_555
O47 Rb7 3.108732 1_555
O47 Rb8 3.572407 1_555
O48 P4 1.536584 1_555
O48 Zn0 1.954564 1_555
O48 Rb2 2.962668 1_555
O49 P5 1.536584 1_554
O49 Zn1 1.954564 1_555
O49 Rb3 2.962668 1_554
O50 P6 1.536584 1_555
O50 Zn2 1.954564 1_555
O50 Rb0 2.962668 1_555
O51 P7 1.536584 1_556
O51 Zn3 1.954564 1_555
O51 Rb1 2.962668 1_556
O52 P15 1.525264 1_555
O52 Zn0 1.978963 1_655
O52 Rb0 3.011500 1_555
O52 Rb8 3.362372 1_655
O53 P14 1.525264 1_555
O53 Zn1 1.978963 1_555
O53 Rb1 3.011500 1_555
O53 Rb9 3.362372 1_555
O54 P13 1.525264 1_555
O54 Zn2 1.978963 1_555
O54 Rb2 3.011500 1_555
O54 Rb10 3.362372 1_565
O55 P12 1.525264 1_555
O55 Zn3 1.978963 1_455
O55 Rb3 3.011500 1_555
O55 Rb11 3.362372 1_445
O56 P8 1.623712 1_555
O56 P12 1.628900 1_555
O56 Rb7 3.210810 1_555
O57 P9 1.623712 1_555
O57 P13 1.628900 1_555
O57 Rb6 3.210810 1_555
O58 P10 1.623712 1_555
O58 P14 1.628900 1_555
O58 Rb5 3.210810 1_545
O59 P11 1.623712 1_555
O59 P15 1.628900 1_555
O59 Rb4 3.210810 1_565
O60 V4 1.660268 1_565
O60 Rb11 2.972383 1_455
O60 Rb7 3.107718 1_555
O60 Rb3 3.545336 1_565
O61 V5 1.660268 1_545
O61 Rb10 2.972383 1_555
O61 Rb6 3.107718 1_555
O61 Rb2 3.545336 1_545
O62 V6 1.660268 1_555
O62 Rb9 2.972383 1_555
O62 Rb5 3.107718 1_555
O62 Rb1 3.545336 1_555
O63 V7 1.660268 1_555
O63 Rb8 2.972383 1_655
O63 Rb4 3.107718 1_555
O63 Rb0 3.545336 1_555
O64 P4 1.495733 1_555
O64 Rb6 2.844586 1_555
O64 Rb2 3.383350 1_555
O65 P5 1.495733 1_555
O65 Rb7 2.844586 1_555
O65 Rb3 3.383350 1_555
O66 P6 1.495733 1_555
O66 Rb4 2.844586 1_565
O66 Rb0 3.383350 1_555
O67 P7 1.495733 1_555
O67 Rb5 2.844586 1_545
O67 Rb1 3.383350 1_555
