# generated using pymatgen
data_Li4CrP2O9
_symmetry_space_group_name_H-M   'P 1'
_cell_length_a   14.74933845
_cell_length_b   14.40646015
_cell_length_c   6.73252972
_cell_angle_alpha   90.00000000
_cell_angle_beta   90.00000000
_cell_angle_gamma   90.00000000
_symmetry_Int_Tables_number   1
_chemical_formula_structural   Li4CrP2O9
_chemical_formula_sum   'Li32 Cr8 P16 O72'
_cell_volume   1430.56667151
_cell_formula_units_Z   8
loop_
 _symmetry_equiv_pos_site_id
 _symmetry_equiv_pos_as_xyz
  1  'x, y, z'
loop_
 _atom_site_type_symbol
 _atom_site_label
 _atom_site_symmetry_multiplicity
 _atom_site_fract_x
 _atom_site_fract_y
 _atom_site_fract_z
 _atom_site_occupancy
  Li  Li0  1  0.00384093  0.00257776  0.77841520  1
  Li  Li1  1  0.00384093  0.49742224  0.27841520  1
  Li  Li2  1  0.02489064  0.24724060  0.24506991  1
  Li  Li3  1  0.02489064  0.25275940  0.74506991  1
  Li  Li4  1  0.12307663  0.62872961  0.00115369  1
  Li  Li5  1  0.12307663  0.87127039  0.50115369  1
  Li  Li6  1  0.22779567  0.01905349  0.19798383  1
  Li  Li7  1  0.22779567  0.48094651  0.69798383  1
  Li  Li8  1  0.27220433  0.51905349  0.19798383  1
  Li  Li9  1  0.27220433  0.98094651  0.69798383  1
  Li  Li10  1  0.37692337  0.12872961  0.00115369  1
  Li  Li11  1  0.37692337  0.37127039  0.50115369  1
  Li  Li12  1  0.47510936  0.74724060  0.24506991  1
  Li  Li13  1  0.47510936  0.75275940  0.74506991  1
  Li  Li14  1  0.49615907  0.50257776  0.77841520  1
  Li  Li15  1  0.49615907  0.99742224  0.27841520  1
  Li  Li16  1  0.50384093  0.00257776  0.72158480  1
  Li  Li17  1  0.50384093  0.49742224  0.22158480  1
  Li  Li18  1  0.52489064  0.24724060  0.25493009  1
  Li  Li19  1  0.52489064  0.25275940  0.75493009  1
  Li  Li20  1  0.62307663  0.62872961  0.49884631  1
  Li  Li21  1  0.62307663  0.87127039  0.99884631  1
  Li  Li22  1  0.72779567  0.01905349  0.30201617  1
  Li  Li23  1  0.72779567  0.48094651  0.80201617  1
  Li  Li24  1  0.77220433  0.51905349  0.30201617  1
  Li  Li25  1  0.77220433  0.98094651  0.80201617  1
  Li  Li26  1  0.87692337  0.12872961  0.49884631  1
  Li  Li27  1  0.87692337  0.37127039  0.99884631  1
  Li  Li28  1  0.97510936  0.74724060  0.25493009  1
  Li  Li29  1  0.97510936  0.75275940  0.75493009  1
  Li  Li30  1  0.99615907  0.50257776  0.72158480  1
  Li  Li31  1  0.99615907  0.99742224  0.22158480  1
  Cr  Cr0  1  0.23319151  0.24638921  0.75243636  1
  Cr  Cr1  1  0.23319151  0.25361079  0.25243636  1
  Cr  Cr2  1  0.26680849  0.74638921  0.75243636  1
  Cr  Cr3  1  0.26680849  0.75361079  0.25243636  1
  Cr  Cr4  1  0.73319151  0.24638921  0.74756364  1
  Cr  Cr5  1  0.73319151  0.25361079  0.24756364  1
  Cr  Cr6  1  0.76680849  0.74638921  0.74756364  1
  Cr  Cr7  1  0.76680849  0.75361079  0.24756364  1
  P  P0  1  0.11300077  0.10408166  0.49760218  1
  P  P1  1  0.11300077  0.39591834  0.99760218  1
  P  P2  1  0.11756085  0.63822639  0.50170970  1
  P  P3  1  0.11756085  0.86177361  0.00170970  1
  P  P4  1  0.38243915  0.13822639  0.50170970  1
  P  P5  1  0.38243915  0.36177361  0.00170970  1
  P  P6  1  0.38699923  0.60408166  0.49760218  1
  P  P7  1  0.38699923  0.89591834  0.99760218  1
  P  P8  1  0.61300077  0.10408166  0.00239782  1
  P  P9  1  0.61300077  0.39591834  0.50239782  1
  P  P10  1  0.61756085  0.63822639  0.99829030  1
  P  P11  1  0.61756085  0.86177361  0.49829030  1
  P  P12  1  0.88243915  0.13822639  0.99829030  1
  P  P13  1  0.88243915  0.36177361  0.49829030  1
  P  P14  1  0.88699923  0.60408166  0.00239782  1
  P  P15  1  0.88699923  0.89591834  0.50239782  1
  O  O0  1  0.00997894  0.08863322  0.49790690  1
  O  O1  1  0.00997894  0.41136678  0.99790690  1
  O  O2  1  0.04371511  0.78620644  0.00566743  1
  O  O3  1  0.04371511  0.71379356  0.50566743  1
  O  O4  1  0.08277374  0.53748514  0.50546152  1
  O  O5  1  0.08277374  0.96251486  0.00546152  1
  O  O6  1  0.13222882  0.16550212  0.68598075  1
  O  O7  1  0.13222882  0.33449788  0.18598075  1
  O  O8  1  0.13527762  0.16005520  0.30430614  1
  O  O9  1  0.13527762  0.33994480  0.80430614  1
  O  O10  1  0.16987937  0.01395674  0.49875719  1
  O  O11  1  0.16987937  0.48604326  0.99875719  1
  O  O12  1  0.17563374  0.64881180  0.30617280  1
  O  O13  1  0.17563374  0.85118820  0.80617280  1
  O  O14  1  0.17816012  0.64597047  0.69374502  1
  O  O15  1  0.17816012  0.85402953  0.19374502  1
  O  O16  1  0.24718381  0.20579408  0.00203708  1
  O  O17  1  0.24718381  0.29420592  0.50203708  1
  O  O18  1  0.25281619  0.70579408  0.00203708  1
  O  O19  1  0.25281619  0.79420592  0.50203708  1
  O  O20  1  0.32183988  0.14597047  0.69374502  1
  O  O21  1  0.32183988  0.35402953  0.19374502  1
  O  O22  1  0.32436626  0.14881180  0.30617280  1
  O  O23  1  0.32436626  0.35118820  0.80617280  1
  O  O24  1  0.33012063  0.51395674  0.49875719  1
  O  O25  1  0.33012063  0.98604326  0.99875719  1
  O  O26  1  0.36472238  0.66005520  0.30430614  1
  O  O27  1  0.36472238  0.83994480  0.80430614  1
  O  O28  1  0.36777118  0.66550212  0.68598075  1
  O  O29  1  0.36777118  0.83449788  0.18598075  1
  O  O30  1  0.41722626  0.03748514  0.50546152  1
  O  O31  1  0.41722626  0.46251486  0.00546152  1
  O  O32  1  0.45628489  0.21379356  0.50566743  1
  O  O33  1  0.45628489  0.28620644  0.00566743  1
  O  O34  1  0.49002106  0.58863322  0.49790690  1
  O  O35  1  0.49002106  0.91136678  0.99790690  1
  O  O36  1  0.50997894  0.08863322  0.00209310  1
  O  O37  1  0.50997894  0.41136678  0.50209310  1
  O  O38  1  0.54371511  0.71379356  0.99433257  1
  O  O39  1  0.54371511  0.78620644  0.49433257  1
  O  O40  1  0.58277374  0.53748514  0.99453848  1
  O  O41  1  0.58277374  0.96251486  0.49453848  1
  O  O42  1  0.63222882  0.16550212  0.81401925  1
  O  O43  1  0.63222882  0.33449788  0.31401925  1
  O  O44  1  0.63527762  0.16005520  0.19569386  1
  O  O45  1  0.63527762  0.33994480  0.69569386  1
  O  O46  1  0.66987937  0.01395674  0.00124281  1
  O  O47  1  0.66987937  0.48604326  0.50124281  1
  O  O48  1  0.67563374  0.64881180  0.19382720  1
  O  O49  1  0.67563374  0.85118820  0.69382720  1
  O  O50  1  0.67816012  0.64597047  0.80625498  1
  O  O51  1  0.67816012  0.85402953  0.30625498  1
  O  O52  1  0.74718381  0.20579408  0.49796292  1
  O  O53  1  0.74718381  0.29420592  0.99796292  1
  O  O54  1  0.75281619  0.70579408  0.49796292  1
  O  O55  1  0.75281619  0.79420592  0.99796292  1
  O  O56  1  0.82183988  0.14597047  0.80625498  1
  O  O57  1  0.82183988  0.35402953  0.30625498  1
  O  O58  1  0.82436626  0.14881180  0.19382720  1
  O  O59  1  0.82436626  0.35118820  0.69382720  1
  O  O60  1  0.83012063  0.51395674  0.00124281  1
  O  O61  1  0.83012063  0.98604326  0.50124281  1
  O  O62  1  0.86472238  0.66005520  0.19569386  1
  O  O63  1  0.86472238  0.83994480  0.69569386  1
  O  O64  1  0.86777118  0.66550212  0.81401925  1
  O  O65  1  0.86777118  0.83449788  0.31401925  1
  O  O66  1  0.91722626  0.03748514  0.99453848  1
  O  O67  1  0.91722626  0.46251486  0.49453848  1
  O  O68  1  0.95628489  0.21379356  0.99433257  1
  O  O69  1  0.95628489  0.28620644  0.49433257  1
  O  O70  1  0.99002106  0.58863322  0.00209310  1
  O  O71  1  0.99002106  0.91136678  0.50209310  1
loop_
_geom_bond_atom_site_label_1
_geom_bond_atom_site_label_2
_geom_bond_distance
_geom_bond_site_symmetry_2
Li0 O66 2.000530 1_455
Li0 O5 2.006266 1_546
Li0 O0 2.260915 1_555
Li0 O71 2.286724 1_445
Li1 O67 2.000530 1_455
Li1 O4 2.006266 1_555
Li1 O1 2.260915 1_554
Li1 O70 2.286724 1_455
Li2 O68 2.026271 1_454
Li2 O69 2.038454 1_455
Li2 O7 2.060315 1_555
Li2 O8 2.094634 1_555
Li3 O69 2.026271 1_455
Li3 O68 2.038454 1_455
Li3 O6 2.060315 1_555
Li3 O9 2.094634 1_555
Li4 O70 2.045740 1_455
Li4 O11 2.168479 1_554
Li4 O18 2.212329 1_555
Li4 O12 2.213974 1_555
Li4 O14 2.237222 1_554
Li4 O2 2.553035 1_555
Li5 O71 2.045740 1_455
Li5 O10 2.168479 1_565
Li5 O19 2.212329 1_555
Li5 O13 2.213974 1_555
Li5 O15 2.237222 1_555
Li5 O3 2.553035 1_555
Li6 O25 2.074368 1_544
Li6 O10 2.198995 1_555
Li6 O22 2.460452 1_555
Li6 O15 2.487741 1_545
Li6 O8 2.549666 1_555
Li6 O5 2.630343 1_545
Li7 O24 2.074368 1_555
Li7 O11 2.198995 1_555
Li7 O23 2.460452 1_555
Li7 O14 2.487741 1_555
Li7 O9 2.549666 1_555
Li7 O4 2.630343 1_555
Li8 O11 2.074368 1_554
Li8 O24 2.198995 1_555
Li8 O12 2.460452 1_555
Li8 O21 2.487741 1_555
Li8 O26 2.549666 1_555
Li8 O31 2.630343 1_555
Li9 O10 2.074368 1_565
Li9 O25 2.198995 1_555
Li9 O13 2.460452 1_555
Li9 O20 2.487741 1_565
Li9 O27 2.549666 1_555
Li9 O30 2.630343 1_565
Li10 O36 2.045740 1_555
Li10 O25 2.168479 1_544
Li10 O16 2.212329 1_555
Li10 O22 2.213974 1_555
Li10 O20 2.237222 1_554
Li10 O33 2.553035 1_555
Li11 O37 2.045740 1_555
Li11 O24 2.168479 1_555
Li11 O17 2.212329 1_555
Li11 O23 2.213974 1_555
Li11 O21 2.237222 1_555
Li11 O32 2.553035 1_555
Li12 O38 2.026271 1_554
Li12 O39 2.038454 1_555
Li12 O29 2.060315 1_555
Li12 O26 2.094634 1_555
Li13 O39 2.026271 1_555
Li13 O38 2.038454 1_555
Li13 O28 2.060315 1_555
Li13 O27 2.094634 1_555
Li14 O40 2.000530 1_555
Li14 O31 2.006266 1_556
Li14 O34 2.260915 1_555
Li14 O37 2.286724 1_555
Li15 O41 2.000530 1_555
Li15 O30 2.006266 1_565
Li15 O35 2.260915 1_554
Li15 O36 2.286724 1_565
Li16 O30 2.000530 1_555
Li16 O41 2.006266 1_545
Li16 O36 2.260915 1_556
Li16 O35 2.286724 1_545
Li17 O31 2.000530 1_555
Li17 O40 2.006266 1_554
Li17 O37 2.260915 1_555
Li17 O34 2.286724 1_555
Li18 O32 2.026271 1_555
Li18 O33 2.038454 1_555
Li18 O43 2.060315 1_555
Li18 O44 2.094634 1_555
Li19 O33 2.026271 1_556
Li19 O32 2.038454 1_555
Li19 O42 2.060315 1_555
Li19 O45 2.094634 1_555
Li20 O34 2.045740 1_555
Li20 O47 2.168479 1_555
Li20 O54 2.212329 1_555
Li20 O48 2.213974 1_555
Li20 O50 2.237222 1_555
Li20 O39 2.553035 1_555
Li21 O35 2.045740 1_555
Li21 O46 2.168479 1_566
Li21 O55 2.212329 1_555
Li21 O49 2.213974 1_555
Li21 O51 2.237222 1_556
Li21 O38 2.553035 1_555
Li22 O61 2.074368 1_545
Li22 O46 2.198995 1_555
Li22 O58 2.460452 1_555
Li22 O51 2.487741 1_545
Li22 O44 2.549666 1_555
Li22 O41 2.630343 1_545
Li23 O60 2.074368 1_556
Li23 O47 2.198995 1_555
Li23 O59 2.460452 1_555
Li23 O50 2.487741 1_555
Li23 O45 2.549666 1_555
Li23 O40 2.630343 1_555
Li24 O47 2.074368 1_555
Li24 O60 2.198995 1_555
Li24 O48 2.460452 1_555
Li24 O57 2.487741 1_555
Li24 O62 2.549666 1_555
Li24 O67 2.630343 1_555
Li25 O46 2.074368 1_566
Li25 O61 2.198995 1_555
Li25 O49 2.460452 1_555
Li25 O56 2.487741 1_565
Li25 O63 2.549666 1_555
Li25 O66 2.630343 1_565
Li26 O0 2.045740 1_655
Li26 O61 2.168479 1_545
Li26 O52 2.212329 1_555
Li26 O58 2.213974 1_555
Li26 O56 2.237222 1_555
Li26 O69 2.553035 1_555
Li27 O1 2.045740 1_655
Li27 O60 2.168479 1_556
Li27 O53 2.212329 1_555
Li27 O59 2.213974 1_555
Li27 O57 2.237222 1_556
Li27 O68 2.553035 1_555
Li28 O3 2.026271 1_655
Li28 O2 2.038454 1_655
Li28 O65 2.060315 1_555
Li28 O62 2.094634 1_555
Li29 O2 2.026271 1_656
Li29 O3 2.038454 1_655
Li29 O64 2.060315 1_555
Li29 O63 2.094634 1_555
Li30 O4 2.000530 1_655
Li30 O67 2.006266 1_555
Li30 O70 2.260915 1_556
Li30 O1 2.286724 1_655
Li31 O5 2.000530 1_655
Li31 O66 2.006266 1_564
Li31 O71 2.260915 1_555
Li31 O0 2.286724 1_665
Cr0 O16 1.791232 1_556
Cr0 O17 1.832791 1_555
Cr0 O6 1.943094 1_555
Cr0 O20 1.989619 1_555
Cr0 O9 2.006026 1_555
Cr0 O23 2.053954 1_555
Cr1 O17 1.791232 1_555
Cr1 O16 1.832791 1_555
Cr1 O7 1.943094 1_555
Cr1 O21 1.989619 1_555
Cr1 O8 2.006026 1_555
Cr1 O22 2.053954 1_555
Cr2 O18 1.791232 1_556
Cr2 O19 1.832791 1_555
Cr2 O28 1.943094 1_555
Cr2 O14 1.989619 1_555
Cr2 O27 2.006026 1_555
Cr2 O13 2.053954 1_555
Cr3 O19 1.791232 1_555
Cr3 O18 1.832791 1_555
Cr3 O29 1.943094 1_555
Cr3 O15 1.989619 1_555
Cr3 O26 2.006026 1_555
Cr3 O12 2.053954 1_555
Cr4 O52 1.791232 1_555
Cr4 O53 1.832791 1_555
Cr4 O42 1.943094 1_555
Cr4 O56 1.989619 1_555
Cr4 O45 2.006026 1_555
Cr4 O59 2.053954 1_555
Cr5 O53 1.791232 1_554
Cr5 O52 1.832791 1_555
Cr5 O43 1.943094 1_555
Cr5 O57 1.989619 1_555
Cr5 O44 2.006026 1_555
Cr5 O58 2.053954 1_555
Cr6 O54 1.791232 1_555
Cr6 O55 1.832791 1_555
Cr6 O64 1.943094 1_555
Cr6 O50 1.989619 1_555
Cr6 O63 2.006026 1_555
Cr6 O49 2.053954 1_555
Cr7 O55 1.791232 1_554
Cr7 O54 1.832791 1_555
Cr7 O65 1.943094 1_555
Cr7 O51 1.989619 1_555
Cr7 O62 2.006026 1_555
Cr7 O48 2.053954 1_555
O0 P0 1.535717 1_555
O1 P1 1.535717 1_555
O2 P3 1.540190 1_555
O3 P2 1.540190 1_555
O4 P2 1.539558 1_555
O5 P3 1.539558 1_555
O6 P0 1.572223 1_555
O7 P1 1.572223 1_554
O8 P0 1.565814 1_555
O9 P1 1.565814 1_555
O10 P0 1.545847 1_555
O11 P1 1.545847 1_555
O12 P2 1.577965 1_555
O13 P3 1.577965 1_556
O14 P2 1.575713 1_555
O15 P3 1.575713 1_555
O20 P4 1.575713 1_555
O21 P5 1.575713 1_555
O22 P4 1.577965 1_555
O23 P5 1.577965 1_556
O24 P6 1.545847 1_555
O25 P7 1.545847 1_555
O26 P6 1.565814 1_555
O27 P7 1.565814 1_555
O28 P6 1.572223 1_555
O29 P7 1.572223 1_554
O30 P4 1.539558 1_555
O31 P5 1.539558 1_555
O32 P4 1.540190 1_555
O33 P5 1.540190 1_555
O34 P6 1.535717 1_555
O35 P7 1.535717 1_555
O36 P8 1.535717 1_555
O37 P9 1.535717 1_555
O38 P10 1.540190 1_555
O39 P11 1.540190 1_555
O40 P10 1.539558 1_555
O41 P11 1.539558 1_555
O42 P8 1.572223 1_556
O43 P9 1.572223 1_555
O44 P8 1.565814 1_555
O45 P9 1.565814 1_555
O46 P8 1.545847 1_555
O47 P9 1.545847 1_555
O48 P10 1.577965 1_554
O49 P11 1.577965 1_555
O50 P10 1.575713 1_555
O51 P11 1.575713 1_555
O56 P12 1.575713 1_555
O57 P13 1.575713 1_555
O58 P12 1.577965 1_554
O59 P13 1.577965 1_555
O60 P14 1.545847 1_555
O61 P15 1.545847 1_555
O62 P14 1.565814 1_555
O63 P15 1.565814 1_555
O64 P14 1.572223 1_556
O65 P15 1.572223 1_555
O66 P12 1.539558 1_555
O67 P13 1.539558 1_555
O68 P12 1.540190 1_555
O69 P13 1.540190 1_555
O70 P14 1.535717 1_555
O71 P15 1.535717 1_555
