# generated using pymatgen
data_ErPPd
_symmetry_space_group_name_H-M   'P 1'
_cell_length_a   3.96670330
_cell_length_b   6.86526819
_cell_length_c   7.68813674
_cell_angle_alpha   90.00000000
_cell_angle_beta   90.00000000
_cell_angle_gamma   90.00000000
_symmetry_Int_Tables_number   1
_chemical_formula_structural   ErPPd
_chemical_formula_sum   'Er4 P4 Pd4'
_cell_volume   209.36704527
_cell_formula_units_Z   4
loop_
 _symmetry_equiv_pos_site_id
 _symmetry_equiv_pos_as_xyz
  1  'x, y, z'
loop_
 _atom_site_type_symbol
 _atom_site_label
 _atom_site_symmetry_multiplicity
 _atom_site_fract_x
 _atom_site_fract_y
 _atom_site_fract_z
 _atom_site_occupancy
  Er  Er0  1  0.25000000  0.03179883  0.81194963  1
  Er  Er1  1  0.75000000  0.96820117  0.18805037  1
  Er  Er2  1  0.25000000  0.53179883  0.68805037  1
  Er  Er3  1  0.75000000  0.46820117  0.31194963  1
  P  P0  1  0.25000000  0.74779649  0.37683598  1
  P  P1  1  0.75000000  0.25220351  0.62316402  1
  P  P2  1  0.25000000  0.24779649  0.12316402  1
  P  P3  1  0.75000000  0.75220351  0.87683598  1
  Pd  Pd0  1  0.75000000  0.35118240  0.93837845  1
  Pd  Pd1  1  0.25000000  0.64881760  0.06162155  1
  Pd  Pd2  1  0.75000000  0.85118240  0.56162155  1
  Pd  Pd3  1  0.25000000  0.14881760  0.43837845  1
loop_
_geom_bond_atom_site_label_1
_geom_bond_atom_site_label_2
_geom_bond_distance
_geom_bond_site_symmetry_2
Er0 P3 2.804819 1_545
Er0 P3 2.804819 1_445
Er0 P2 2.814916 1_556
Er0 P1 2.886149 1_555
Er0 P1 2.886149 1_455
Er0 Pd3 2.982308 1_555
Er0 Pd2 3.029051 1_545
Er0 Pd2 3.029051 1_445
Er0 Pd0 3.112266 1_455
Er0 Pd0 3.112266 1_555
Er0 Pd1 3.255393 1_546
Er1 P2 2.804819 1_665
Er1 P2 2.804819 1_565
Er1 P3 2.814916 1_554
Er1 P0 2.886149 1_655
Er1 P0 2.886149 1_555
Er1 Pd2 2.982308 1_555
Er1 Pd3 3.029051 1_565
Er1 Pd3 3.029051 1_665
Er1 Pd1 3.112266 1_555
Er1 Pd1 3.112266 1_655
Er1 Pd0 3.255393 1_564
Er2 P1 2.804819 1_555
Er2 P1 2.804819 1_455
Er2 P0 2.814916 1_555
Er2 P3 2.886149 1_555
Er2 P3 2.886149 1_455
Er2 Pd1 2.982308 1_556
Er2 Pd0 3.029051 1_555
Er2 Pd0 3.029051 1_455
Er2 Pd2 3.112266 1_455
Er2 Pd2 3.112266 1_555
Er2 Pd3 3.255393 1_555
Er3 P0 2.804819 1_655
Er3 P0 2.804819 1_555
Er3 P1 2.814916 1_555
Er3 P2 2.886149 1_555
Er3 P2 2.886149 1_655
Er3 Pd0 2.982308 1_554
Er3 Pd1 3.029051 1_555
Er3 Pd1 3.029051 1_655
Er3 Pd3 3.112266 1_555
Er3 Pd3 3.112266 1_655
Er3 Pd2 3.255393 1_555
P0 Pd1 2.516876 1_555
P0 Pd2 2.540812 1_455
P0 Pd2 2.540812 1_555
P0 Pd3 2.793479 1_565
P1 Pd0 2.516876 1_555
P1 Pd3 2.540812 1_555
P1 Pd3 2.540812 1_655
P1 Pd2 2.793479 1_545
P2 Pd3 2.516876 1_555
P2 Pd0 2.540812 1_454
P2 Pd0 2.540812 1_554
P2 Pd1 2.793479 1_555
P3 Pd2 2.516876 1_555
P3 Pd1 2.540812 1_556
P3 Pd1 2.540812 1_656
P3 Pd0 2.793479 1_555
Pd0 Pd1 3.001120 1_556
Pd0 Pd1 3.001120 1_656
Pd2 Pd3 3.001120 1_565
Pd2 Pd3 3.001120 1_665
