# generated using pymatgen
data_Na2P2PdO7
_symmetry_space_group_name_H-M   'P 1'
_cell_length_a   8.01374832
_cell_length_b   8.01374832
_cell_length_c   8.05775238
_cell_angle_alpha   67.63405237
_cell_angle_beta   67.63405237
_cell_angle_gamma   43.89724455
_symmetry_Int_Tables_number   1
_chemical_formula_structural   Na2P2PdO7
_chemical_formula_sum   'Na4 P4 Pd2 O14'
_cell_volume   327.21201124
_cell_formula_units_Z   2
loop_
 _symmetry_equiv_pos_site_id
 _symmetry_equiv_pos_as_xyz
  1  'x, y, z'
loop_
 _atom_site_type_symbol
 _atom_site_label
 _atom_site_symmetry_multiplicity
 _atom_site_fract_x
 _atom_site_fract_y
 _atom_site_fract_z
 _atom_site_occupancy
  Na  Na0  1  0.08932800  0.36420700  0.69730300  1
  Na  Na1  1  0.63579300  0.91067200  0.80269700  1
  Na  Na2  1  0.91067200  0.63579300  0.30269700  1
  Na  Na3  1  0.36420700  0.08932800  0.19730300  1
  P  P0  1  0.44761600  0.76401300  0.65852200  1
  P  P1  1  0.23598700  0.55238400  0.84147800  1
  P  P2  1  0.55238400  0.23598700  0.34147800  1
  P  P3  1  0.76401300  0.44761600  0.15852200  1
  Pd  Pd0  1  0.00000000  0.00000000  0.50000000  1
  Pd  Pd1  1  0.00000000  0.00000000  0.00000000  1
  O  O0  1  0.88703200  0.32654300  0.98839900  1
  O  O1  1  0.67345700  0.11296800  0.51160100  1
  O  O2  1  0.11296800  0.67345700  0.01160100  1
  O  O3  1  0.32654300  0.88703200  0.48839900  1
  O  O4  1  0.06481400  0.70886000  0.69686800  1
  O  O5  1  0.29114000  0.93518600  0.80313200  1
  O  O6  1  0.93518600  0.29114000  0.30313200  1
  O  O7  1  0.70886000  0.06481400  0.19686800  1
  O  O8  1  0.46766700  0.53233300  0.75000000  1
  O  O9  1  0.53233300  0.46766700  0.25000000  1
  O  O10  1  0.29903300  0.32773800  0.39358600  1
  O  O11  1  0.67226200  0.70096700  0.10641400  1
  O  O12  1  0.70096700  0.67226200  0.60641400  1
  O  O13  1  0.32773800  0.29903300  0.89358600  1
loop_
_geom_bond_atom_site_label_1
_geom_bond_atom_site_label_2
_geom_bond_distance
_geom_bond_site_symmetry_2
Na0 O0 2.343815 1_455
Na0 O12 2.367012 1_455
Na0 O10 2.367550 1_555
Na0 O5 2.442965 1_545
Na0 O13 2.580193 1_555
Na0 O4 2.622640 1_555
Na1 O1 2.343815 1_565
Na1 O13 2.367012 1_565
Na1 O11 2.367550 1_556
Na1 O4 2.442965 1_655
Na1 O12 2.580193 1_555
Na1 O5 2.622640 1_555
Na2 O2 2.343815 1_655
Na2 O10 2.367012 1_655
Na2 O12 2.367550 1_555
Na2 O7 2.442965 1_565
Na2 O11 2.580193 1_555
Na2 O6 2.622640 1_555
Na3 O3 2.343815 1_545
Na3 O11 2.367012 1_545
Na3 O13 2.367550 1_554
Na3 O6 2.442965 1_455
Na3 O10 2.580193 1_555
Na3 O7 2.622640 1_555
O0 P3 1.548425 1_556
O0 Pd1 2.034751 1_656
O1 P2 1.548425 1_555
O1 Pd0 2.034751 1_655
O2 P1 1.548425 1_554
O2 Pd1 2.034751 1_565
O3 P0 1.548425 1_555
O3 Pd0 2.034751 1_565
O4 P1 1.561194 1_555
O4 Pd0 2.072092 1_565
O5 P0 1.561194 1_555
O5 Pd1 2.072092 1_566
O6 P3 1.561194 1_555
O6 Pd0 2.072092 1_655
O7 P2 1.561194 1_555
O7 Pd1 2.072092 1_655
O8 P1 1.623234 1_555
O8 P0 1.623234 1_555
O9 P2 1.623234 1_555
O9 P3 1.623234 1_555
O10 P2 1.507910 1_555
O11 P3 1.507910 1_555
O12 P0 1.507910 1_555
O13 P1 1.507910 1_555
