# generated using pymatgen
data_LuCd2
_symmetry_space_group_name_H-M   'P 1'
_cell_length_a   9.73162807
_cell_length_b   9.73165270
_cell_length_c   6.76816887
_cell_angle_alpha   90.00171867
_cell_angle_beta   89.99883534
_cell_angle_gamma   120.00056805
_symmetry_Int_Tables_number   1
_chemical_formula_structural   LuCd2
_chemical_formula_sum   'Lu8 Cd16'
_cell_volume   555.10026600
_cell_formula_units_Z   8
loop_
 _symmetry_equiv_pos_site_id
 _symmetry_equiv_pos_as_xyz
  1  'x, y, z'
loop_
 _atom_site_type_symbol
 _atom_site_label
 _atom_site_symmetry_multiplicity
 _atom_site_fract_x
 _atom_site_fract_y
 _atom_site_fract_z
 _atom_site_occupancy
  Lu  Lu0_0  1  0.49998428  0.49999937  0.00000056  1
  Lu  Lu0_1  1  0.49998428  0.49999937  0.50000057  1
  Lu  Lu0_2  1  0.49998428  0.99999937  0.00000056  1
  Lu  Lu0_3  1  0.49998428  0.99999937  0.50000057  1
  Lu  Lu0_4  1  0.99998428  0.49999937  0.00000057  1
  Lu  Lu0_5  1  0.99998428  0.49999937  0.50000057  1
  Lu  Lu0_6  1  0.99998428  0.99999937  0.00000056  1
  Lu  Lu0_7  1  0.99998428  0.99999937  0.50000057  1
  Cd  Cd0_0  1  0.16664963  0.33333305  0.24916257  1
  Cd  Cd0_1  1  0.16664963  0.33333305  0.74916257  1
  Cd  Cd0_2  1  0.16664963  0.83333305  0.24916257  1
  Cd  Cd0_3  1  0.16664963  0.83333305  0.74916257  1
  Cd  Cd0_4  1  0.66664963  0.33333305  0.24916257  1
  Cd  Cd0_5  1  0.66664963  0.33333305  0.74916257  1
  Cd  Cd0_6  1  0.66664963  0.83333305  0.24916257  1
  Cd  Cd0_7  1  0.66664963  0.83333305  0.74916257  1
  Cd  Cd1_0  1  0.33331409  0.16666507  0.25083537  1
  Cd  Cd1_1  1  0.33331409  0.16666507  0.75083537  1
  Cd  Cd1_2  1  0.33331409  0.66666507  0.25083537  1
  Cd  Cd1_3  1  0.33331409  0.66666507  0.75083537  1
  Cd  Cd1_4  1  0.83331409  0.16666507  0.25083537  1
  Cd  Cd1_5  1  0.83331409  0.16666507  0.75083537  1
  Cd  Cd1_6  1  0.83331409  0.66666507  0.25083537  1
  Cd  Cd1_7  1  0.83331409  0.66666507  0.75083537  1
loop_
_geom_bond_atom_site_label_1
_geom_bond_atom_site_label_2
_geom_bond_distance
_geom_bond_site_symmetry_2
Lu0_0 Lu0_1 3.384084 1_555
Lu0_0 Lu0_1 3.384084 1_554
Lu0_2 Lu0_3 3.384084 1_554
Lu0_2 Lu0_3 3.384084 1_555
Lu0_4 Lu0_5 3.384084 1_554
Lu0_4 Lu0_5 3.384084 1_555
Lu0_6 Lu0_7 3.384084 1_555
Lu0_6 Lu0_7 3.384084 1_554
Cd0_0 Cd1_2 2.809282 1_555
Cd0_0 Cd1_4 2.809304 1_455
Cd0_0 Cd1_0 2.809306 1_555
Cd0_0 Lu0_6 3.276529 1_445
Cd0_0 Lu0_0 3.276554 1_555
Cd0_0 Lu0_4 3.276607 1_455
Cd0_0 Lu0_5 3.282376 1_455
Cd0_0 Lu0_1 3.282425 1_555
Cd0_0 Lu0_7 3.282448 1_445
Cd0_0 Cd0_1 3.384084 1_555
Cd0_0 Cd0_1 3.384084 1_554
Cd0_1 Cd1_3 2.809282 1_555
Cd0_1 Cd1_5 2.809304 1_455
Cd0_1 Cd1_1 2.809306 1_555
Cd0_1 Lu0_7 3.276529 1_445
Cd0_1 Lu0_1 3.276554 1_555
Cd0_1 Lu0_5 3.276607 1_455
Cd0_1 Lu0_4 3.282376 1_456
Cd0_1 Lu0_0 3.282425 1_556
Cd0_1 Lu0_6 3.282448 1_446
Cd0_2 Cd1_0 2.809282 1_565
Cd0_2 Cd1_6 2.809304 1_455
Cd0_2 Cd1_2 2.809306 1_555
Cd0_2 Lu0_4 3.276529 1_455
Cd0_2 Lu0_2 3.276554 1_555
Cd0_2 Lu0_6 3.276607 1_455
Cd0_2 Lu0_7 3.282376 1_455
Cd0_2 Lu0_3 3.282425 1_555
Cd0_2 Lu0_5 3.282448 1_455
Cd0_2 Cd0_3 3.384084 1_554
Cd0_2 Cd0_3 3.384084 1_555
Cd0_3 Cd1_1 2.809282 1_565
Cd0_3 Cd1_7 2.809304 1_455
Cd0_3 Cd1_3 2.809306 1_555
Cd0_3 Lu0_5 3.276529 1_455
Cd0_3 Lu0_3 3.276554 1_555
Cd0_3 Lu0_7 3.276607 1_455
Cd0_3 Lu0_6 3.282376 1_456
Cd0_3 Lu0_2 3.282425 1_556
Cd0_3 Lu0_4 3.282448 1_456
Cd0_4 Cd1_6 2.809282 1_555
Cd0_4 Cd1_0 2.809304 1_555
Cd0_4 Cd1_4 2.809306 1_555
Cd0_4 Lu0_2 3.276529 1_545
Cd0_4 Lu0_4 3.276554 1_555
Cd0_4 Lu0_0 3.276607 1_555
Cd0_4 Lu0_1 3.282376 1_555
Cd0_4 Lu0_5 3.282425 1_555
Cd0_4 Lu0_3 3.282448 1_545
Cd0_4 Cd0_5 3.384084 1_554
Cd0_4 Cd0_5 3.384084 1_555
Cd0_5 Cd1_7 2.809282 1_555
Cd0_5 Cd1_1 2.809304 1_555
Cd0_5 Cd1_5 2.809306 1_555
Cd0_5 Lu0_3 3.276529 1_545
Cd0_5 Lu0_5 3.276554 1_555
Cd0_5 Lu0_1 3.276607 1_555
Cd0_5 Lu0_0 3.282376 1_556
Cd0_5 Lu0_4 3.282425 1_556
Cd0_5 Lu0_2 3.282448 1_546
Cd0_6 Cd1_4 2.809282 1_565
Cd0_6 Cd1_2 2.809304 1_555
Cd0_6 Cd1_6 2.809306 1_555
Cd0_6 Lu0_0 3.276529 1_555
Cd0_6 Lu0_6 3.276554 1_555
Cd0_6 Lu0_2 3.276607 1_555
Cd0_6 Lu0_3 3.282376 1_555
Cd0_6 Lu0_7 3.282425 1_555
Cd0_6 Lu0_1 3.282448 1_555
Cd0_6 Cd0_7 3.384084 1_555
Cd0_6 Cd0_7 3.384084 1_554
Cd0_7 Cd1_5 2.809282 1_565
Cd0_7 Cd1_3 2.809304 1_555
Cd0_7 Cd1_7 2.809306 1_555
Cd0_7 Lu0_1 3.276529 1_555
Cd0_7 Lu0_7 3.276554 1_555
Cd0_7 Lu0_3 3.276607 1_555
Cd0_7 Lu0_2 3.282376 1_556
Cd0_7 Lu0_6 3.282425 1_556
Cd0_7 Lu0_0 3.282448 1_556
Cd1_0 Lu0_7 3.276530 1_445
Cd1_0 Lu0_1 3.276545 1_555
Cd1_0 Lu0_3 3.276649 1_545
Cd1_0 Lu0_6 3.282379 1_445
Cd1_0 Lu0_2 3.282395 1_545
Cd1_0 Lu0_0 3.282441 1_555
Cd1_0 Cd1_1 3.384084 1_555
Cd1_0 Cd1_1 3.384084 1_554
Cd1_1 Lu0_6 3.276530 1_446
Cd1_1 Lu0_0 3.276545 1_556
Cd1_1 Lu0_2 3.276649 1_546
Cd1_1 Lu0_7 3.282379 1_445
Cd1_1 Lu0_3 3.282395 1_545
Cd1_1 Lu0_1 3.282441 1_555
Cd1_2 Lu0_5 3.276530 1_455
Cd1_2 Lu0_3 3.276545 1_555
Cd1_2 Lu0_1 3.276649 1_555
Cd1_2 Lu0_4 3.282379 1_455
Cd1_2 Lu0_0 3.282395 1_555
Cd1_2 Lu0_2 3.282441 1_555
Cd1_2 Cd1_3 3.384084 1_554
Cd1_2 Cd1_3 3.384084 1_555
Cd1_3 Lu0_4 3.276530 1_456
Cd1_3 Lu0_2 3.276545 1_556
Cd1_3 Lu0_0 3.276649 1_556
Cd1_3 Lu0_5 3.282379 1_455
Cd1_3 Lu0_1 3.282395 1_555
Cd1_3 Lu0_3 3.282441 1_555
Cd1_4 Lu0_3 3.276530 1_545
Cd1_4 Lu0_5 3.276545 1_555
Cd1_4 Lu0_7 3.276649 1_545
Cd1_4 Lu0_2 3.282379 1_545
Cd1_4 Lu0_6 3.282395 1_545
Cd1_4 Lu0_4 3.282441 1_555
Cd1_4 Cd1_5 3.384084 1_555
Cd1_4 Cd1_5 3.384084 1_554
Cd1_5 Lu0_2 3.276530 1_546
Cd1_5 Lu0_4 3.276545 1_556
Cd1_5 Lu0_6 3.276649 1_546
Cd1_5 Lu0_3 3.282379 1_545
Cd1_5 Lu0_7 3.282395 1_545
Cd1_5 Lu0_5 3.282441 1_555
Cd1_6 Lu0_1 3.276530 1_555
Cd1_6 Lu0_7 3.276545 1_555
Cd1_6 Lu0_5 3.276649 1_555
Cd1_6 Lu0_0 3.282379 1_555
Cd1_6 Lu0_4 3.282395 1_555
Cd1_6 Lu0_6 3.282441 1_555
Cd1_6 Cd1_7 3.384084 1_555
Cd1_6 Cd1_7 3.384084 1_554
Cd1_7 Lu0_0 3.276530 1_556
Cd1_7 Lu0_6 3.276545 1_556
Cd1_7 Lu0_4 3.276649 1_556
Cd1_7 Lu0_1 3.282379 1_555
Cd1_7 Lu0_5 3.282395 1_555
Cd1_7 Lu0_7 3.282441 1_555
