# generated using pymatgen
data_Li2FeO3
_symmetry_space_group_name_H-M   'P 1'
_cell_length_a   6.38896497
_cell_length_b   6.38896497
_cell_length_c   5.86586085
_cell_angle_alpha   76.11238282
_cell_angle_beta   76.11238282
_cell_angle_gamma   26.19345782
_symmetry_Int_Tables_number   1
_chemical_formula_structural   Li2FeO3
_chemical_formula_sum   'Li4 Fe2 O6'
_cell_volume   102.42934741
_cell_formula_units_Z   2
loop_
 _symmetry_equiv_pos_site_id
 _symmetry_equiv_pos_as_xyz
  1  'x, y, z'
loop_
 _atom_site_type_symbol
 _atom_site_label
 _atom_site_symmetry_multiplicity
 _atom_site_fract_x
 _atom_site_fract_y
 _atom_site_fract_z
 _atom_site_occupancy
  Li  Li0  1  0.83991800  0.83991800  0.84040800  1
  Li  Li1  1  0.16008200  0.16008200  0.15959200  1
  Li  Li2  1  0.50000000  0.50000000  0.50000000  1
  Li  Li3  1  0.50000000  0.50000000  0.00000000  1
  Fe  Fe0  1  0.83888700  0.83888700  0.32701400  1
  Fe  Fe1  1  0.16111300  0.16111300  0.67298600  1
  O  O0  1  0.67423400  0.67423400  0.43627900  1
  O  O1  1  0.98558700  0.98558700  0.25968000  1
  O  O2  1  0.01441300  0.01441300  0.74032000  1
  O  O3  1  0.67005900  0.67005900  0.88510600  1
  O  O4  1  0.32576600  0.32576600  0.56372100  1
  O  O5  1  0.32994100  0.32994100  0.11489400  1
loop_
_geom_bond_atom_site_label_1
_geom_bond_atom_site_label_2
_geom_bond_distance
_geom_bond_site_symmetry_2
Li0 O3 2.065073 1_555
Li0 O2 2.105357 1_665
Li0 O5 2.145965 1_566
Li0 O5 2.145965 1_656
Li0 O4 2.214031 1_565
Li0 O4 2.214031 1_655
Li1 O5 2.065073 1_555
Li1 O1 2.105357 1_445
Li1 O3 2.145965 1_454
Li1 O3 2.145965 1_544
Li1 O0 2.214031 1_545
Li1 O0 2.214031 1_455
Li2 O2 2.059097 1_655
Li2 O2 2.059097 1_565
Li2 O1 2.059097 1_545
Li2 O1 2.059097 1_455
Li2 O0 2.107694 1_555
Li2 O4 2.107694 1_555
Li3 O3 2.056863 1_554
Li3 O5 2.056863 1_555
Li3 O1 2.076935 1_545
Li3 O1 2.076935 1_455
Li3 O2 2.076935 1_654
Li3 O2 2.076935 1_564
Fe0 O1 1.770312 1_555
Fe0 O5 1.929959 1_655
Fe0 O5 1.929959 1_565
Fe0 O4 1.984614 1_655
Fe0 O4 1.984614 1_565
Fe0 O0 1.990652 1_555
Fe1 O2 1.770312 1_555
Fe1 O3 1.929959 1_455
Fe1 O3 1.929959 1_545
Fe1 O0 1.984614 1_545
Fe1 O0 1.984614 1_455
Fe1 O4 1.990652 1_555
