# generated using pymatgen
data_Er2In
_symmetry_space_group_name_H-M   'P 1'
_cell_length_a   5.30839288
_cell_length_b   5.30839338
_cell_length_c   6.64542579
_cell_angle_alpha   90.00000000
_cell_angle_beta   90.00000000
_cell_angle_gamma   120.00000968
_symmetry_Int_Tables_number   1
_chemical_formula_structural   Er2In
_chemical_formula_sum   'Er4 In2'
_cell_volume   162.17337655
_cell_formula_units_Z   2
loop_
 _symmetry_equiv_pos_site_id
 _symmetry_equiv_pos_as_xyz
  1  'x, y, z'
loop_
 _atom_site_type_symbol
 _atom_site_label
 _atom_site_symmetry_multiplicity
 _atom_site_fract_x
 _atom_site_fract_y
 _atom_site_fract_z
 _atom_site_occupancy
  Er  Er0  1  0.33333300  0.66666700  0.75000043  1
  Er  Er1  1  0.66666700  0.33333300  0.24999957  1
  Er  Er2  1  0.00000000  -0.00000000  0.50000000  1
  Er  Er3  1  0.00000000  -0.00000000  0.00000000  1
  In  In0  1  0.66666700  0.33333300  0.75000353  1
  In  In1  1  0.33333300  0.66666700  0.24999647  1
loop_
_geom_bond_atom_site_label_1
_geom_bond_atom_site_label_2
_geom_bond_distance
_geom_bond_site_symmetry_2
Er0 In0 3.064799 1_455
Er0 In0 3.064799 1_565
Er0 In0 3.064808 1_555
Er0 In1 3.322687 1_556
Er0 In1 3.322739 1_555
Er0 Er3 3.486128 1_566
Er0 Er2 3.486131 1_565
Er0 Er3 3.486132 1_666
Er0 Er3 3.486132 1_556
Er0 Er2 3.486135 1_665
Er0 Er2 3.486135 1_555
Er1 In1 3.064799 1_655
Er1 In1 3.064799 1_545
Er1 In1 3.064808 1_555
Er1 In0 3.322687 1_554
Er1 In0 3.322739 1_555
Er1 Er3 3.486128 1_655
Er1 Er2 3.486131 1_655
Er1 Er3 3.486132 1_555
Er1 Er3 3.486132 1_665
Er1 Er2 3.486135 1_555
Er1 Er2 3.486135 1_665
Er2 Er3 3.322713 1_555
Er2 Er3 3.322713 1_556
Er2 In0 3.486141 1_455
Er2 In1 3.486141 1_545
Er2 In0 3.486144 1_555
Er2 In1 3.486144 1_445
Er2 In0 3.486145 1_445
Er2 In1 3.486145 1_555
Er3 In1 3.486118 1_545
Er3 In0 3.486118 1_454
Er3 In0 3.486122 1_554
Er3 In1 3.486122 1_445
Er3 In1 3.486122 1_555
Er3 In0 3.486122 1_444
