# generated using pymatgen
data_Li4V3P8O29
_symmetry_space_group_name_H-M   'P 1'
_cell_length_a   9.74752100
_cell_length_b   9.74983118
_cell_length_c   14.25744278
_cell_angle_alpha   90.71322090
_cell_angle_beta   89.71680807
_cell_angle_gamma   119.69921270
_symmetry_Int_Tables_number   1
_chemical_formula_structural   Li4V3P8O29
_chemical_formula_sum   'Li8 V6 P16 O58'
_cell_volume   1176.89527124
_cell_formula_units_Z   2
loop_
 _symmetry_equiv_pos_site_id
 _symmetry_equiv_pos_as_xyz
  1  'x, y, z'
loop_
 _atom_site_type_symbol
 _atom_site_label
 _atom_site_symmetry_multiplicity
 _atom_site_fract_x
 _atom_site_fract_y
 _atom_site_fract_z
 _atom_site_occupancy
  Li  Li0  1  0.66844800  0.76702400  0.04938500  1
  Li  Li1  1  0.09266300  0.32878200  0.06281900  1
  Li  Li2  1  0.76664700  0.66871600  0.44492800  1
  Li  Li3  1  0.23234900  0.32890000  0.56428400  1
  Li  Li4  1  0.90816600  0.67129800  0.93501700  1
  Li  Li5  1  0.32435200  0.09057800  0.44184000  1
  Li  Li6  1  0.04853600  0.03782200  0.99215600  1
  Li  Li7  1  0.94592900  0.98737700  0.51355400  1
  V  V0  1  0.56471100  0.56390300  0.24882500  1
  V  V1  1  0.43384500  0.43262800  0.75018500  1
  V  V2  1  0.00331700  0.56349600  0.74611300  1
  V  V3  1  0.99634000  0.43351300  0.25151200  1
  V  V4  1  0.43694200  0.99677000  0.24959300  1
  V  V5  1  0.56524900  0.00320400  0.75352900  1
  P  P0  1  0.21806600  0.91784600  0.83759200  1
  P  P1  1  0.08228300  0.78039300  0.33579700  1
  P  P2  1  0.69542400  0.91667200  0.34457300  1
  P  P3  1  0.33534300  0.66470500  0.13290100  1
  P  P4  1  0.33695400  0.66809100  0.63237300  1
  P  P5  1  0.68681500  0.77649400  0.83828400  1
  P  P6  1  0.77469100  0.68499200  0.65868700  1
  P  P7  1  0.08802100  0.31261200  0.84564900  1
  P  P8  1  0.91307200  0.68415700  0.15283900  1
  P  P9  1  0.22769600  0.31763900  0.34370300  1
  P  P10  1  0.30607700  0.21736400  0.16367800  1
  P  P11  1  0.66437300  0.33349400  0.36701200  1
  P  P12  1  0.66993300  0.33870400  0.86716700  1
  P  P13  1  0.31107300  0.08410300  0.65469300  1
  P  P14  1  0.91229300  0.21261500  0.66566600  1
  P  P15  1  0.77822300  0.08075600  0.16048000  1
  O  O0  1  0.23393700  0.01177700  0.56315600  1
  O  O1  1  0.25718000  0.92044000  0.33615400  1
  O  O2  1  0.97898300  0.75791400  0.06102500  1
  O  O3  1  0.08378600  0.74058800  0.83497000  1
  O  O4  1  0.38100800  0.92614200  0.82954300  1
  O  O5  1  0.33286900  0.81035300  0.18224500  1
  O  O6  1  0.53937600  0.92196400  0.32989300  1
  O  O7  1  0.78171400  0.98905200  0.07734900  1
  O  O8  1  0.65870800  0.91951100  0.83488400  1
  O  O9  1  0.18487800  0.66301300  0.68001000  1
  O  O10  1  0.08259600  0.62374400  0.32755100  1
  O  O11  1  0.47762700  0.81258000  0.68284000  1
  O  O12  1  0.35476400  0.67587500  0.02933200  1
  O  O13  1  0.33211700  0.67488300  0.52870300  1
  O  O14  1  0.48866500  0.67151300  0.17695100  1
  O  O15  1  0.08148200  0.46570500  0.82992800  1
  O  O16  1  0.18764900  0.51211900  0.16700900  1
  O  O17  1  0.65762600  0.74036000  0.33543000  1
  O  O18  1  0.79722900  0.79886900  0.74745500  1
  O  O19  1  0.78950700  0.76974200  0.56902200  1
  O  O20  1  0.77670000  0.78024600  0.92529300  1
  O  O21  1  0.53086000  0.62386700  0.82652000  1
  O  O22  1  0.32853800  0.51208200  0.66523700  1
  O  O23  1  0.74005000  0.65641800  0.16330100  1
  O  O24  1  0.38394700  0.47420300  0.32461300  1
  O  O25  1  0.08778900  0.34702600  0.33343900  1
  O  O26  1  0.01177200  0.80300200  0.23684600  1
  O  O27  1  0.98895600  0.79613600  0.41391500  1
  O  O28  1  0.00314900  0.19676700  0.58540300  1
  O  O29  1  0.91366000  0.65008400  0.66803300  1
  O  O30  1  0.61729200  0.53163200  0.67043100  1
  O  O31  1  0.25839200  0.34635200  0.82939300  1
  O  O32  1  0.66770000  0.48478800  0.32029000  1
  O  O33  1  0.46100000  0.37999800  0.17294000  1
  O  O34  1  0.20312700  0.20552300  0.08352100  1
  O  O35  1  0.23257800  0.24298200  0.43383900  1
  O  O36  1  0.21018600  0.19854500  0.25984200  1
  O  O37  1  0.33754800  0.25423000  0.66165900  1
  O  O38  1  0.82030600  0.48755200  0.82470000  1
  O  O39  1  0.91108900  0.52687700  0.17144700  1
  O  O40  1  0.52328300  0.33308800  0.82295700  1
  O  O41  1  0.68003000  0.34627300  0.97138600  1
  O  O42  1  0.65846200  0.35143100  0.47047900  1
  O  O43  1  0.50971300  0.18493400  0.32801100  1
  O  O44  1  0.92135300  0.37661500  0.67285900  1
  O  O45  1  0.80510000  0.32517200  0.32372500  1
  O  O46  1  0.34663200  0.08347400  0.16727000  1
  O  O47  1  0.19557300  0.98830000  0.74021500  1
  O  O48  1  0.19483700  0.99951300  0.91931400  1
  O  O49  1  0.46782900  0.08446200  0.67405800  1
  O  O50  1  0.67061800  0.18905000  0.82184200  1
  O  O51  1  0.61827000  0.08040300  0.17581500  1
  O  O52  1  0.91688100  0.25218700  0.16146800  1
  O  O53  1  0.02611600  0.23507000  0.93824500  1
  O  O54  1  0.98524900  0.19259900  0.76271900  1
  O  O55  1  0.73841700  0.08028300  0.66657100  1
  O  O56  1  0.78736600  0.99096400  0.43059700  1
  O  O57  1  0.80009400  0.00132900  0.25351900  1
loop_
_geom_bond_atom_site_label_1
_geom_bond_atom_site_label_2
_geom_bond_distance
_geom_bond_site_symmetry_2
Li0 O7 1.917972 1_555
Li0 O20 2.027971 1_554
Li0 O23 2.255775 1_555
Li0 O14 2.374812 1_555
Li1 O53 1.947779 1_554
Li1 O34 1.996222 1_555
Li1 O52 2.050893 1_455
Li1 O16 2.136968 1_555
Li2 O27 1.941971 1_555
Li2 O19 1.973112 1_555
Li2 O17 2.198532 1_555
Li2 O32 2.351088 1_555
Li3 O28 1.972993 1_555
Li3 O35 2.030677 1_555
Li3 O37 2.070729 1_555
Li3 O22 2.104896 1_555
Li4 O2 1.952977 1_556
Li4 O20 2.035666 1_555
Li4 O3 2.067709 1_655
Li4 O38 2.199907 1_555
Li5 O0 1.925041 1_555
Li5 O1 2.078980 1_545
Li5 O35 2.084126 1_555
Li5 O43 2.259614 1_555
Li6 O48 1.937848 1_545
Li6 O34 2.041060 1_556
Li6 O53 2.189045 1_555
Li7 O56 1.965111 1_555
Li7 O19 2.068014 1_555
Li7 O28 2.086512 1_665
Li7 O27 2.524612 1_555
O0 P13 1.492396 1_555
O1 P1 1.569753 1_555
O1 V4 1.963824 1_555
O2 P8 1.483503 1_555
O3 P0 1.568056 1_555
O3 V2 1.953152 1_555
O4 P0 1.553537 1_555
O4 V5 1.904805 1_565
O5 P3 1.587746 1_555
O5 V4 1.842205 1_555
O6 P2 1.562479 1_555
O6 V4 1.895608 1_555
O7 P15 1.486176 1_565
O8 P5 1.549871 1_555
O8 V5 1.900462 1_565
O9 P4 1.606021 1_555
O9 V2 1.807346 1_555
O10 P1 1.531869 1_555
O10 V3 1.932863 1_455
O11 P4 1.566183 1_555
O11 V5 1.894306 1_565
O12 P3 1.486251 1_555
O13 P4 1.482402 1_555
O14 P3 1.594472 1_555
O14 V0 1.872229 1_555
O15 P7 1.544342 1_555
O15 V2 1.916967 1_555
O16 P3 1.552782 1_555
O16 V3 2.025083 1_455
O17 P2 1.573232 1_555
O17 V0 1.928464 1_555
O18 P6 1.615182 1_555
O18 P5 1.625895 1_555
O19 P6 1.498046 1_555
O20 P5 1.511869 1_555
O21 P5 1.519283 1_555
O21 V1 1.941078 1_555
O22 P4 1.560007 1_555
O22 V1 1.986005 1_555
O23 P8 1.576814 1_555
O23 V0 1.923724 1_555
O24 P9 1.557696 1_555
O24 V0 1.874790 1_555
O25 P9 1.534115 1_555
O25 V3 1.910407 1_455
O26 P8 1.604676 1_455
O26 P1 1.636692 1_555
O27 P1 1.488517 1_655
O28 P14 1.496296 1_455
O29 P6 1.558298 1_555
O29 V2 1.865425 1_655
O30 P6 1.532386 1_555
O30 V1 1.928497 1_555
O31 P7 1.541624 1_555
O31 V1 1.867310 1_555
O32 P11 1.611685 1_555
O32 V0 1.854168 1_555
O33 P10 1.560842 1_555
O33 V0 1.890483 1_555
O34 P10 1.489859 1_555
O35 P9 1.497269 1_555
O36 P9 1.605625 1_555
O36 P10 1.615788 1_555
O37 P13 1.549120 1_555
O37 V1 1.959266 1_555
O38 P12 1.589484 1_555
O38 V2 1.917817 1_655
O39 P8 1.550144 1_555
O39 V3 1.899215 1_555
O40 P12 1.540840 1_555
O40 V1 1.910701 1_555
O41 P12 1.488133 1_555
O42 P11 1.487537 1_555
O43 P11 1.582530 1_555
O43 V4 1.945793 1_545
O44 P14 1.559203 1_555
O44 V2 1.888761 1_655
O45 P11 1.539420 1_555
O45 V3 1.925536 1_555
O46 P10 1.541487 1_555
O46 V4 1.907734 1_545
O47 P13 1.612295 1_565
O47 P0 1.619696 1_555
O48 P0 1.481815 1_555
O49 P13 1.552359 1_555
O49 V5 1.895172 1_555
O50 P12 1.591464 1_555
O50 V5 1.846240 1_555
O51 P15 1.571649 1_555
O51 V4 1.862866 1_545
O52 P15 1.543284 1_555
O52 V3 1.992486 1_555
O53 P7 1.497830 1_555
O54 P7 1.608246 1_655
O54 P14 1.616315 1_555
O55 P14 1.539724 1_555
O55 V5 1.922658 1_555
O56 P2 1.475674 1_555
O57 P2 1.608313 1_545
O57 P15 1.611428 1_555
