# generated using pymatgen
data_Ti2Co12P7
_symmetry_space_group_name_H-M   'P 1'
_cell_length_a   8.78426108
_cell_length_b   8.78410625
_cell_length_c   3.47532507
_cell_angle_alpha   89.99999945
_cell_angle_beta   90.00000042
_cell_angle_gamma   120.00178932
_symmetry_Int_Tables_number   1
_chemical_formula_structural   Ti2Co12P7
_chemical_formula_sum   'Ti2 Co12 P7'
_cell_volume   232.23145834
_cell_formula_units_Z   1
loop_
 _symmetry_equiv_pos_site_id
 _symmetry_equiv_pos_as_xyz
  1  'x, y, z'
loop_
 _atom_site_type_symbol
 _atom_site_label
 _atom_site_symmetry_multiplicity
 _atom_site_fract_x
 _atom_site_fract_y
 _atom_site_fract_z
 _atom_site_occupancy
  Ti  Ti0  1  0.00003089  0.00002374  -0.00000001  1
  Ti  Ti1  1  0.33330323  0.66665448  0.50000002  1
  Co  Co0  1  0.10417782  0.39778448  -0.00000001  1
  Co  Co1  1  0.60221684  0.70642698  0.00000001  1
  Co  Co2  1  0.29357062  0.89576937  0.00000000  1
  Co  Co3  1  0.05233808  0.77193937  0.49999999  1
  Co  Co4  1  0.22805904  0.28039800  0.50000000  1
  Co  Co5  1  0.71960621  0.94771646  0.50000001  1
  Co  Co6  1  0.82405351  0.60990300  -0.00000001  1
  Co  Co7  1  0.39011028  0.21411284  0.00000002  1
  Co  Co8  1  0.78585285  0.17596557  -0.00000001  1
  Co  Co9  1  0.89932816  0.43268283  0.49999997  1
  Co  Co10  1  0.56731743  0.46661899  0.50000001  1
  Co  Co11  1  0.53339307  0.10069370  0.50000001  1
  P  P0  1  0.78886351  0.74636446  0.50000000  1
  P  P1  1  0.25364181  0.04244254  0.50000001  1
  P  P2  1  0.95747300  0.21115085  0.49999999  1
  P  P3  1  0.66666009  0.33331255  -0.00000001  1
  P  P4  1  0.08215969  0.62836162  0.00000000  1
  P  P5  1  0.37165197  0.45380416  0.00000000  1
  P  P6  1  0.54619188  0.91787102  0.00000001  1
loop_
_geom_bond_atom_site_label_1
_geom_bond_atom_site_label_2
_geom_bond_distance
_geom_bond_site_symmetry_2
Co0 P4 2.128726 1_555
Co0 P5 2.146241 1_555
Co0 P2 2.292391 1_455
Co0 P2 2.292391 1_454
Co0 Ti1 2.809738 1_554
Co0 Ti1 2.809738 1_555
Co1 P5 2.128768 1_555
Co1 P6 2.146173 1_555
Co1 P0 2.292480 1_555
Co1 P0 2.292480 1_554
Co1 Ti1 2.810023 1_554
Co1 Ti1 2.810024 1_555
Co2 P6 2.128664 1_555
Co2 P4 2.145662 1_555
Co2 P1 2.292241 1_564
Co2 P1 2.292241 1_565
Co2 Ti1 2.809660 1_554
Co2 Ti1 2.809660 1_555
Co3 P1 2.137976 1_565
Co3 P0 2.210674 1_455
Co3 P4 2.238108 1_555
Co3 P4 2.238108 1_556
Co4 P2 2.138635 1_455
Co4 P1 2.211176 1_555
Co4 P5 2.238138 1_555
Co4 P5 2.238138 1_556
Co5 P0 2.138808 1_555
Co5 P2 2.210272 1_565
Co5 P6 2.238149 1_555
Co5 P6 2.238149 1_556
Co6 P3 2.110731 1_555
Co6 P4 2.190701 1_655
Co6 P0 2.218658 1_554
Co6 P0 2.218658 1_555
Co7 P3 2.110454 1_555
Co7 P5 2.191054 1_555
Co7 P1 2.218714 1_555
Co7 P1 2.218714 1_554
Co8 P3 2.110407 1_555
Co8 P6 2.190619 1_545
Co8 P2 2.218503 1_555
Co8 P2 2.218503 1_554
Co9 P2 2.245353 1_555
Co9 P4 2.406785 1_655
Co9 P4 2.406785 1_656
Co9 P3 2.484849 1_555
Co9 P3 2.484849 1_556
Co10 P0 2.245726 1_555
Co10 P5 2.406833 1_556
Co10 P5 2.406833 1_555
Co10 P3 2.484772 1_556
Co10 P3 2.484772 1_555
Co11 P1 2.245705 1_555
Co11 P6 2.406594 1_546
Co11 P6 2.406594 1_545
Co11 P3 2.484551 1_556
Co11 P3 2.484551 1_555
P0 Ti0 2.700312 1_666
P0 Ti0 2.700312 1_665
P1 Ti0 2.700221 1_556
P1 Ti0 2.700221 1_555
P2 Ti0 2.700366 1_656
P2 Ti0 2.700366 1_655
P4 Ti1 2.693962 1_554
P4 Ti1 2.693962 1_555
P5 Ti1 2.694178 1_554
P5 Ti1 2.694179 1_555
P6 Ti1 2.694306 1_554
P6 Ti1 2.694306 1_555
