# generated using pymatgen
data_Sc3GaC
_symmetry_space_group_name_H-M   'P 1'
_cell_length_a   4.47432370
_cell_length_b   4.47432370
_cell_length_c   4.47432370
_cell_angle_alpha   90.00000000
_cell_angle_beta   90.00000000
_cell_angle_gamma   90.00000000
_symmetry_Int_Tables_number   1
_chemical_formula_structural   Sc3GaC
_chemical_formula_sum   'Sc3 Ga1 C1'
_cell_volume   89.57404802
_cell_formula_units_Z   1
loop_
 _symmetry_equiv_pos_site_id
 _symmetry_equiv_pos_as_xyz
  1  'x, y, z'
loop_
 _atom_site_type_symbol
 _atom_site_label
 _atom_site_symmetry_multiplicity
 _atom_site_fract_x
 _atom_site_fract_y
 _atom_site_fract_z
 _atom_site_occupancy
  Sc  Sc0  1  0.50000000  -0.00000000  0.50000000  1
  Sc  Sc1  1  -0.00000000  0.50000000  0.50000000  1
  Sc  Sc2  1  0.50000000  0.50000000  -0.00000000  1
  Ga  Ga0  1  0.00000000  0.00000000  0.00000000  1
  C  C0  1  0.50000000  0.50000000  0.50000000  1
loop_
_geom_bond_atom_site_label_1
_geom_bond_atom_site_label_2
_geom_bond_distance
_geom_bond_site_symmetry_2
Ga0 Sc2 3.163825 1_545
Ga0 Sc2 3.163825 1_555
Ga0 Sc1 3.163825 1_554
Ga0 Sc0 3.163825 1_454
Ga0 Sc1 3.163825 1_555
Ga0 Sc0 3.163825 1_555
Ga0 Sc0 3.163825 1_455
Ga0 Sc1 3.163825 1_545
Ga0 Sc2 3.163825 1_445
Ga0 Sc1 3.163825 1_544
Ga0 Sc2 3.163825 1_455
Ga0 Sc0 3.163825 1_554
C0 Sc2 2.237162 1_555
C0 Sc1 2.237162 1_655
C0 Sc1 2.237162 1_555
C0 Sc0 2.237162 1_565
C0 Sc2 2.237162 1_556
C0 Sc0 2.237162 1_555
