# generated using pymatgen
data_Rb2SnAs2
_symmetry_space_group_name_H-M   'P 1'
_cell_length_a   6.95069341
_cell_length_b   7.51063823
_cell_length_c   8.72483470
_cell_angle_alpha   115.49404041
_cell_angle_beta   113.47369551
_cell_angle_gamma   89.99999392
_symmetry_Int_Tables_number   1
_chemical_formula_structural   Rb2SnAs2
_chemical_formula_sum   'Rb4 Sn2 As4'
_cell_volume   368.92595767
_cell_formula_units_Z   2
loop_
 _symmetry_equiv_pos_site_id
 _symmetry_equiv_pos_as_xyz
  1  'x, y, z'
loop_
 _atom_site_type_symbol
 _atom_site_label
 _atom_site_symmetry_multiplicity
 _atom_site_fract_x
 _atom_site_fract_y
 _atom_site_fract_z
 _atom_site_occupancy
  Rb  Rb0  1  0.85530477  0.01565147  0.71060953  1
  Rb  Rb1  1  0.64469523  0.30504094  0.28939047  1
  Rb  Rb2  1  0.14469523  0.98434853  0.28939047  1
  Rb  Rb3  1  0.35530477  0.69495906  0.71060953  1
  Sn  Sn0  1  0.25000000  0.50000000  -0.00000000  1
  Sn  Sn1  1  0.75000000  0.50000000  -0.00000000  1
  As  As0  1  0.39684172  0.21621386  0.79368244  1
  As  As1  1  0.10315828  0.42253142  0.20631756  1
  As  As2  1  0.60315828  0.78378614  0.20631756  1
  As  As3  1  0.89684172  0.57746858  0.79368244  1
loop_
_geom_bond_atom_site_label_1
_geom_bond_atom_site_label_2
_geom_bond_distance
_geom_bond_site_symmetry_2
Rb0 Sn1 3.702659 1_556
Rb0 Sn0 3.702660 1_656
Rb1 Sn1 3.702664 1_555
Rb1 Sn0 3.702664 1_555
Rb2 Sn0 3.702659 1_555
Rb2 Sn1 3.702660 1_455
Rb3 Sn0 3.702664 1_556
Rb3 Sn1 3.702664 1_556
As0 Sn1 2.643071 1_556
As0 Sn0 2.643075 1_556
As0 Rb2 3.567078 1_545
As0 Rb3 3.650507 1_545
As0 Rb1 3.701178 1_556
As0 Rb0 3.721455 1_555
As0 Rb0 3.721462 1_455
As0 Rb3 3.951502 1_555
As1 Sn1 2.643071 1_455
As1 Sn0 2.643075 1_555
As1 Rb3 3.567078 1_555
As1 Rb2 3.650514 1_545
As1 Rb0 3.701176 1_454
As1 Rb1 3.721457 1_455
As1 Rb1 3.721464 1_555
As1 Rb2 3.951494 1_555
As2 Sn0 2.643071 1_555
As2 Sn1 2.643075 1_555
As2 Rb0 3.567078 1_565
As2 Rb1 3.650507 1_565
As2 Rb3 3.701178 1_554
As2 Rb2 3.721455 1_555
As2 Rb2 3.721462 1_655
As2 Rb1 3.951502 1_555
As3 Sn0 2.643071 1_656
As3 Sn1 2.643075 1_556
As3 Rb1 3.567078 1_555
As3 Rb0 3.650514 1_565
As3 Rb2 3.701176 1_656
As3 Rb3 3.721457 1_655
As3 Rb3 3.721464 1_555
As3 Rb0 3.951494 1_555
