# generated using pymatgen
data_SmRhC2
_symmetry_space_group_name_H-M   'P 1'
_cell_length_a   4.05776417
_cell_length_b   4.05776417
_cell_length_c   3.63957200
_cell_angle_alpha   90.00000000
_cell_angle_beta   90.00000000
_cell_angle_gamma   108.95499101
_symmetry_Int_Tables_number   1
_chemical_formula_structural   SmRhC2
_chemical_formula_sum   'Sm1 Rh1 C2'
_cell_volume   56.67758120
_cell_formula_units_Z   1
loop_
 _symmetry_equiv_pos_site_id
 _symmetry_equiv_pos_as_xyz
  1  'x, y, z'
loop_
 _atom_site_type_symbol
 _atom_site_label
 _atom_site_symmetry_multiplicity
 _atom_site_fract_x
 _atom_site_fract_y
 _atom_site_fract_z
 _atom_site_occupancy
  Sm  Sm0  1  0.99931000  0.00069000  0.00000000  1
  Rh  Rh0  1  0.37494100  0.62505900  0.50000000  1
  C  C0  1  0.54257900  0.17112900  0.50000000  1
  C  C1  1  0.82887100  0.45742100  0.50000000  1
loop_
_geom_bond_atom_site_label_1
_geom_bond_atom_site_label_2
_geom_bond_distance
_geom_bond_site_symmetry_2
Rh0 Sm0 3.076919 1_465
Rh0 Sm0 3.076919 1_466
Rh0 Sm0 3.089493 1_456
Rh0 Sm0 3.089493 1_455
Rh0 Sm0 3.089493 1_566
Rh0 Sm0 3.089493 1_565
C0 C1 1.349954 1_555
C0 Rh0 2.096041 1_545
C0 Rh0 2.160891 1_555
C0 Sm0 2.767509 1_456
C0 Sm0 2.767509 1_455
C0 Sm0 2.838550 1_556
C0 Sm0 2.838550 1_555
C1 Rh0 2.096041 1_655
C1 Rh0 2.160891 1_555
C1 Sm0 2.767509 1_566
C1 Sm0 2.767509 1_565
C1 Sm0 2.838550 1_556
C1 Sm0 2.838550 1_555
