# generated using pymatgen
data_CrCo3O8
_symmetry_space_group_name_H-M   'P 1'
_cell_length_a   5.62932659
_cell_length_b   5.62932659
_cell_length_c   8.83765000
_cell_angle_alpha   90.00000000
_cell_angle_beta   90.00000000
_cell_angle_gamma   120.00000690
_symmetry_Int_Tables_number   1
_chemical_formula_structural   CrCo3O8
_chemical_formula_sum   'Cr2 Co6 O16'
_cell_volume   242.53827801
_cell_formula_units_Z   2
loop_
 _symmetry_equiv_pos_site_id
 _symmetry_equiv_pos_as_xyz
  1  'x, y, z'
loop_
 _atom_site_type_symbol
 _atom_site_label
 _atom_site_symmetry_multiplicity
 _atom_site_fract_x
 _atom_site_fract_y
 _atom_site_fract_z
 _atom_site_occupancy
  Cr  Cr0  1  0.33333300  0.66666700  0.49014300  1
  Cr  Cr1  1  0.66666700  0.33333300  0.99014300  1
  Co  Co0  1  0.16734400  0.83265600  0.20938000  1
  Co  Co1  1  0.16734400  0.33468900  0.20938000  1
  Co  Co2  1  0.66531100  0.83265600  0.20938000  1
  Co  Co3  1  0.33468900  0.16734400  0.70938000  1
  Co  Co4  1  0.83265600  0.66531100  0.70938000  1
  Co  Co5  1  0.83265600  0.16734400  0.70938000  1
  O  O0  1  0.16425700  0.83574300  0.60697300  1
  O  O1  1  0.04080400  0.52040200  0.33405600  1
  O  O2  1  0.33333300  0.66666700  0.10131100  1
  O  O3  1  0.00000000  0.00000000  0.31605500  1
  O  O4  1  0.00000000  0.00000000  0.81605500  1
  O  O5  1  0.16425700  0.32851500  0.60697300  1
  O  O6  1  0.47959800  0.95919600  0.33405600  1
  O  O7  1  0.47959800  0.52040200  0.33405600  1
  O  O8  1  0.32851500  0.16425700  0.10697300  1
  O  O9  1  0.67148500  0.83574300  0.60697300  1
  O  O10  1  0.52040200  0.47959800  0.83405600  1
  O  O11  1  0.52040200  0.04080400  0.83405600  1
  O  O12  1  0.66666700  0.33333300  0.60131100  1
  O  O13  1  0.83574300  0.67148500  0.10697300  1
  O  O14  1  0.95919600  0.47959800  0.83405600  1
  O  O15  1  0.83574300  0.16425700  0.10697300  1
loop_
_geom_bond_atom_site_label_1
_geom_bond_atom_site_label_2
_geom_bond_distance
_geom_bond_site_symmetry_2
Cr0 O9 1.945184 1_555
Cr0 O5 1.945184 1_555
Cr0 O0 1.945184 1_555
Cr0 O6 1.984106 1_555
Cr0 O1 1.984106 1_555
Cr0 O7 1.984110 1_555
Cr1 O13 1.945184 1_556
Cr1 O8 1.945184 1_556
Cr1 O15 1.945184 1_556
Cr1 O11 1.984106 1_555
Cr1 O14 1.984106 1_555
Cr1 O10 1.984110 1_555
Co0 O13 1.852882 1_455
Co0 O8 1.852882 1_565
Co0 O2 1.879233 1_555
Co0 O3 1.884429 1_565
Co0 O1 1.886568 1_555
Co0 O6 1.886568 1_555
Co1 O15 1.852882 1_455
Co1 O8 1.852890 1_555
Co1 O2 1.879233 1_555
Co1 O3 1.884433 1_555
Co1 O1 1.886564 1_555
Co1 O7 1.886568 1_555
Co2 O15 1.852882 1_565
Co2 O13 1.852890 1_555
Co2 O2 1.879233 1_555
Co2 O3 1.884433 1_665
Co2 O6 1.886564 1_555
Co2 O7 1.886568 1_555
Co3 O0 1.852882 1_545
Co3 O5 1.852890 1_555
Co3 O12 1.879233 1_555
Co3 O4 1.884433 1_555
Co3 O11 1.886564 1_555
Co3 O10 1.886568 1_555
Co4 O0 1.852882 1_655
Co4 O9 1.852890 1_555
Co4 O12 1.879233 1_555
Co4 O4 1.884433 1_665
Co4 O14 1.886564 1_555
Co4 O10 1.886568 1_555
Co5 O9 1.852882 1_545
Co5 O5 1.852882 1_655
Co5 O12 1.879233 1_555
Co5 O4 1.884429 1_655
Co5 O11 1.886568 1_555
Co5 O14 1.886568 1_555
