# generated using pymatgen
data_MnAlP2(HO)15
_symmetry_space_group_name_H-M   'P 1'
_cell_length_a   9.71147400
_cell_length_b   10.19269047
_cell_length_c   7.01071954
_cell_angle_alpha   109.53788970
_cell_angle_beta   99.52596611
_cell_angle_gamma   99.03570302
_symmetry_Int_Tables_number   1
_chemical_formula_structural   MnAlP2(HO)15
_chemical_formula_sum   'Mn2 Al2 P4 H30 O30'
_cell_volume   627.91959100
_cell_formula_units_Z   2
loop_
 _symmetry_equiv_pos_site_id
 _symmetry_equiv_pos_as_xyz
  1  'x, y, z'
loop_
 _atom_site_type_symbol
 _atom_site_label
 _atom_site_symmetry_multiplicity
 _atom_site_fract_x
 _atom_site_fract_y
 _atom_site_fract_z
 _atom_site_occupancy
  Mn  Mn0  1  0.94968900  0.67696700  0.30164800  1
  Mn  Mn1  1  0.05031100  0.32303300  0.69835200  1
  Al  Al0  1  0.50000000  0.50000000  0.50000000  1
  Al  Al1  1  0.50000000  0.00000000  0.50000000  1
  P  P0  1  0.64686400  0.25815200  0.29750900  1
  P  P1  1  0.25360400  0.09609700  0.29818200  1
  P  P2  1  0.74639600  0.90390300  0.70181800  1
  P  P3  1  0.35313600  0.74184800  0.70249100  1
  H  H0  1  0.94564200  0.66682000  0.01259700  1
  H  H1  1  0.78066100  0.53777500  0.00303100  1
  H  H2  1  0.99507300  0.17503800  0.14918200  1
  H  H3  1  0.46841100  0.68575700  0.06923400  1
  H  H4  1  0.85772900  0.22711800  0.14483700  1
  H  H5  1  0.44881200  0.48288100  0.13052000  1
  H  H6  1  0.46095500  0.08738500  0.12297700  1
  H  H7  1  0.19608200  0.02031800  0.05720700  1
  H  H8  1  0.69093500  0.72136100  0.26045400  1
  H  H9  1  0.21905600  0.71096400  0.30798200  1
  H  H10  1  0.44202600  0.68118200  0.31729600  1
  H  H11  1  0.75371900  0.79126000  0.42016300  1
  H  H12  1  0.91884700  0.26498100  0.40565300  1
  H  H13  1  0.16213000  0.51442100  0.37200100  1
  H  H14  1  0.97115000  0.85189800  0.59909800  1
  H  H15  1  0.02885000  0.14810200  0.40090200  1
  H  H16  1  0.83787000  0.48557900  0.62799900  1
  H  H17  1  0.08115300  0.73501900  0.59434700  1
  H  H18  1  0.24628100  0.20874000  0.57983700  1
  H  H19  1  0.55797400  0.31881800  0.68270400  1
  H  H20  1  0.78094400  0.28903600  0.69201800  1
  H  H21  1  0.30906500  0.27863900  0.73954600  1
  H  H22  1  0.80391800  0.97968200  0.94279300  1
  H  H23  1  0.53904500  0.91261500  0.87702300  1
  H  H24  1  0.55118800  0.51711900  0.86948000  1
  H  H25  1  0.14227100  0.77288200  0.85516300  1
  H  H26  1  0.53158900  0.31424300  0.93076600  1
  H  H27  1  0.00492700  0.82496200  0.85081800  1
  H  H28  1  0.21933900  0.46222500  0.99696900  1
  H  H29  1  0.05435800  0.33318000  0.98740300  1
  O  O0  1  0.87702100  0.60204800  0.06746700  1
  O  O1  1  0.91003000  0.16757200  0.08227400  1
  O  O2  1  0.40230000  0.57718400  0.10325600  1
  O  O3  1  0.56536900  0.13546100  0.13286300  1
  O  O4  1  0.27237200  0.12592800  0.13996900  1
  O  O5  1  0.78184400  0.80254100  0.32838300  1
  O  O6  1  0.80413600  0.35689500  0.28828200  1
  O  O7  1  0.09320600  0.98585200  0.28975000  1
  O  O8  1  0.34217800  0.96531700  0.34073900  1
  O  O9  1  0.13419800  0.58203700  0.29811200  1
  O  O10  1  0.57636300  0.41548800  0.33838300  1
  O  O11  1  0.48013000  0.72070700  0.42087400  1
  O  O12  1  0.63330800  0.10161800  0.39128400  1
  O  O13  1  0.00669500  0.25754300  0.46078100  1
  O  O14  1  0.30980400  0.31401300  0.39748400  1
  O  O15  1  0.69019600  0.68598700  0.60251600  1
  O  O16  1  0.99330500  0.74245700  0.53921900  1
  O  O17  1  0.36669200  0.89838200  0.60871600  1
  O  O18  1  0.51987000  0.27929300  0.57912600  1
  O  O19  1  0.42363700  0.58451200  0.66161700  1
  O  O20  1  0.86580200  0.41796300  0.70188800  1
  O  O21  1  0.65782200  0.03468300  0.65926100  1
  O  O22  1  0.90679400  0.01414800  0.71025000  1
  O  O23  1  0.19586400  0.64310500  0.71171800  1
  O  O24  1  0.21815600  0.19745900  0.67161700  1
  O  O25  1  0.72762800  0.87407200  0.86003100  1
  O  O26  1  0.43463100  0.86453900  0.86713700  1
  O  O27  1  0.59770000  0.42281600  0.89674400  1
  O  O28  1  0.08997000  0.83242800  0.91772600  1
  O  O29  1  0.12297900  0.39795200  0.93253300  1
loop_
_geom_bond_atom_site_label_1
_geom_bond_atom_site_label_2
_geom_bond_distance
_geom_bond_site_symmetry_2
Mn0 O16 1.527445 1_555
Mn0 O0 1.544434 1_555
Mn1 O13 1.527445 1_555
Mn1 O29 1.544434 1_555
Al0 O19 1.549756 1_555
Al0 O10 1.549756 1_555
Al0 O15 2.251987 1_555
Al0 O14 2.251987 1_555
Al1 O21 1.649281 1_555
Al1 O8 1.649281 1_545
Al1 O17 1.939893 1_545
Al1 O12 1.939893 1_555
H0 O0 1.069799 1_555
H1 O0 0.989210 1_555
H2 O1 0.857949 1_555
H3 O2 1.303013 1_555
H4 O1 0.900690 1_555
H4 O6 1.591130 1_555
H5 O2 1.181168 1_555
H6 O3 1.034940 1_555
H7 O4 1.110753 1_555
H8 O5 1.028939 1_555
H9 O9 1.411016 1_555
H10 O11 0.703634 1_555
H10 O2 1.462950 1_555
H11 O5 0.774362 1_555
H12 O13 0.902073 1_655
H13 O9 1.033395 1_555
H14 O16 1.122018 1_555
H15 O13 1.122018 1_555
H16 O20 1.033395 1_555
H17 O16 0.902073 1_455
H18 O24 0.774362 1_555
H19 O18 0.703634 1_555
H19 O27 1.462950 1_555
H20 O20 1.411016 1_555
H21 O24 1.028939 1_555
H22 O25 1.110753 1_555
H23 O26 1.034940 1_555
H24 O27 1.181168 1_555
H25 O28 0.900690 1_555
H25 O23 1.591130 1_555
H26 O27 1.303013 1_555
H27 O28 0.857949 1_555
H28 O29 0.989210 1_555
H29 O29 1.069799 1_555
O3 P0 1.394232 1_555
O4 P1 1.277127 1_555
O6 P0 1.715613 1_555
O7 P1 1.751545 1_565
O8 P1 1.773990 1_565
O10 P0 1.795860 1_555
O12 P0 1.912965 1_555
O14 P1 2.043342 1_555
O15 P2 2.043342 1_555
O17 P3 1.912965 1_555
O19 P3 1.795860 1_555
O21 P2 1.773990 1_545
O22 P2 1.751545 1_545
O23 P3 1.715613 1_555
O25 P2 1.277127 1_555
O26 P3 1.394232 1_555
