# generated using pymatgen
data_LiV2P4(HO8)2
_symmetry_space_group_name_H-M   'P 1'
_cell_length_a   7.74141800
_cell_length_b   7.89510837
_cell_length_c   13.61815843
_cell_angle_alpha   89.94902990
_cell_angle_beta   81.33771647
_cell_angle_gamma   89.88695571
_symmetry_Int_Tables_number   1
_chemical_formula_structural   LiV2P4(HO8)2
_chemical_formula_sum   'Li3 V6 P12 H6 O48'
_cell_volume   822.83680756
_cell_formula_units_Z   3
loop_
 _symmetry_equiv_pos_site_id
 _symmetry_equiv_pos_as_xyz
  1  'x, y, z'
loop_
 _atom_site_type_symbol
 _atom_site_label
 _atom_site_symmetry_multiplicity
 _atom_site_fract_x
 _atom_site_fract_y
 _atom_site_fract_z
 _atom_site_occupancy
  Li  Li0  1  0.70928100  0.13010900  0.14779000  1
  Li  Li1  1  0.12819200  0.63383200  0.51798300  1
  Li  Li2  1  0.78964300  0.63079200  0.85263500  1
  V  V0  1  0.83283300  0.50723200  0.16767000  1
  V  V1  1  0.32475900  0.99390300  0.16698900  1
  V  V2  1  0.50948400  0.49229400  0.49670900  1
  V  V3  1  0.00036700  0.00582800  0.50148500  1
  V  V4  1  0.66820900  0.00789600  0.82990300  1
  V  V5  1  0.17419800  0.49680900  0.83492700  1
  P  P0  1  0.72039800  0.84936600  0.04524200  1
  P  P1  1  0.22381600  0.64422900  0.04750800  1
  P  P2  1  0.94817000  0.15801700  0.28908600  1
  P  P3  1  0.88681700  0.65812700  0.37876200  1
  P  P4  1  0.44304600  0.35329900  0.28385700  1
  P  P5  1  0.38946900  0.85337200  0.38158100  1
  P  P6  1  0.61043600  0.14602700  0.61901400  1
  P  P7  1  0.55181300  0.65470600  0.71011100  1
  P  P8  1  0.11341200  0.35033200  0.62173700  1
  P  P9  1  0.05839600  0.85193600  0.71575400  1
  P  P10  1  0.77897800  0.34896800  0.95405700  1
  P  P11  1  0.27852500  0.14510000  0.95318500  1
  H  H0  1  0.49571600  0.50833400  0.00395900  1
  H  H1  1  0.66768400  0.99681500  0.33452800  1
  H  H2  1  0.16853600  0.49416700  0.33177800  1
  H  H3  1  0.82758800  0.50353000  0.66817000  1
  H  H4  1  0.33522300  0.00023800  0.66554900  1
  H  H5  1  0.00680700  0.00882000  0.99594200  1
  O  O0  1  0.87505200  0.95895900  0.06257200  1
  O  O1  1  0.79608000  0.32884200  0.06579900  1
  O  O2  1  0.72710000  0.67281100  0.09118700  1
  O  O3  1  0.55459000  0.94728300  0.09928300  1
  O  O4  1  0.38680200  0.54597000  0.06331200  1
  O  O5  1  0.94268600  0.33143000  0.23975100  1
  O  O6  1  0.29701900  0.16080400  0.06497800  1
  O  O7  1  0.86504000  0.67406800  0.26888000  1
  O  O8  1  0.23303300  0.82612200  0.09401700  1
  O  O9  1  0.78581400  0.05879700  0.27174600  1
  O  O10  1  0.05774900  0.55876700  0.10012700  1
  O  O11  1  0.60721300  0.44785200  0.23347500  1
  O  O12  1  0.44675600  0.17497000  0.23463000  1
  O  O13  1  0.97386800  0.17372100  0.39818400  1
  O  O14  1  0.36562200  0.83982100  0.26899000  1
  O  O15  1  0.27526400  0.44691300  0.27331500  1
  O  O16  1  0.88991500  0.83091200  0.42802300  1
  O  O17  1  0.11475200  0.05855700  0.23467200  1
  O  O18  1  0.71753800  0.55871500  0.43011900  1
  O  O19  1  0.55632000  0.94704400  0.39237600  1
  O  O20  1  0.46486700  0.33796700  0.39670400  1
  O  O21  1  0.38640000  0.67373300  0.42946000  1
  O  O22  1  0.95526800  0.45959700  0.60763000  1
  O  O23  1  0.22465200  0.94552300  0.43482100  1
  O  O24  1  0.77786000  0.05917700  0.56563100  1
  O  O25  1  0.04707000  0.55679000  0.39707000  1
  O  O26  1  0.60215900  0.32697900  0.56811100  1
  O  O27  1  0.53292200  0.66026900  0.59856700  1
  O  O28  1  0.44721100  0.05112100  0.60333800  1
  O  O29  1  0.27515600  0.44790000  0.56579200  1
  O  O30  1  0.88925900  0.94396700  0.76552800  1
  O  O31  1  0.10426800  0.17194300  0.58152500  1
  O  O32  1  0.71453500  0.55282700  0.72778200  1
  O  O33  1  0.63475100  0.17485600  0.72772200  1
  O  O34  1  0.03873200  0.82567300  0.60455200  1
  O  O35  1  0.56006500  0.82960000  0.75488600  1
  O  O36  1  0.38648900  0.55852800  0.76462800  1
  O  O37  1  0.94568200  0.44794200  0.90224100  1
  O  O38  1  0.22263400  0.94648500  0.72931000  1
  O  O39  1  0.77348100  0.17358000  0.90787700  1
  O  O40  1  0.13668600  0.34140800  0.73411900  1
  O  O41  1  0.70039700  0.82882700  0.93413200  1
  O  O42  1  0.05259500  0.67430300  0.76954500  1
  O  O43  1  0.62487800  0.46020000  0.93669900  1
  O  O44  1  0.44374500  0.05999300  0.89817300  1
  O  O45  1  0.26763100  0.32782900  0.90824800  1
  O  O46  1  0.20719200  0.66260400  0.93567900  1
  O  O47  1  0.11539200  0.04699300  0.93774400  1
loop_
_geom_bond_atom_site_label_1
_geom_bond_atom_site_label_2
_geom_bond_distance
_geom_bond_site_symmetry_2
Li0 O9 1.953403 1_555
Li0 O1 1.983708 1_555
Li0 O3 2.049567 1_545
Li0 O0 2.089705 1_545
Li0 O12 2.219965 1_555
Li1 O25 1.946911 1_555
Li1 O34 1.979037 1_555
Li1 O29 2.021879 1_555
Li1 O22 2.164892 1_455
Li1 O21 2.196374 1_555
Li2 O32 1.977104 1_555
Li2 O41 1.980274 1_555
Li2 O37 2.058339 1_555
Li2 O43 2.077420 1_555
Li2 O42 2.202357 1_655
H0 O4 1.116541 1_555
H0 O43 1.306305 1_554
H1 O19 1.146500 1_555
H1 O9 1.253896 1_565
H2 O15 1.121102 1_555
H2 O25 1.290870 1_555
H3 O32 1.166908 1_555
H3 O22 1.237211 1_555
H4 O28 1.187542 1_555
H4 O38 1.211025 1_545
H5 O47 1.107011 1_555
H5 O0 1.319398 1_446
O0 P0 1.525549 1_555
O1 P10 1.555179 1_554
O1 V0 2.028080 1_555
O2 P0 1.531382 1_555
O2 V0 1.927153 1_555
O3 P0 1.580945 1_555
O3 V1 1.911832 1_555
O4 P1 1.522421 1_555
O5 P2 1.527870 1_555
O5 V0 1.964082 1_555
O6 P11 1.555531 1_554
O6 V1 1.948801 1_545
O7 P3 1.535908 1_555
O7 V0 1.950611 1_555
O8 P1 1.576123 1_555
O8 V1 1.861467 1_555
O9 P2 1.530598 1_555
O10 P1 1.531850 1_555
O10 V0 1.887586 1_455
O11 P4 1.543809 1_555
O11 V0 1.898563 1_555
O12 P4 1.558273 1_555
O12 V1 2.013398 1_545
O13 P2 1.533542 1_555
O13 V3 1.964856 1_655
O14 P5 1.575472 1_555
O14 V1 1.907162 1_555
O15 P4 1.518593 1_555
O16 P3 1.522542 1_555
O16 V3 1.975815 1_665
O17 P2 1.593089 1_455
O17 V1 1.816420 1_545
O18 P3 1.596707 1_555
O18 V2 1.803888 1_555
O19 P5 1.515949 1_555
O20 P4 1.575636 1_555
O20 V2 1.898658 1_555
O21 P5 1.559169 1_555
O21 V2 2.013392 1_555
O22 P8 1.531757 1_655
O23 P5 1.549702 1_555
O23 V3 1.894266 1_565
O24 P6 1.546642 1_555
O24 V3 1.857987 1_655
O25 P3 1.526505 1_455
O26 P6 1.592763 1_555
O26 V2 1.835179 1_555
O27 P7 1.548393 1_555
O27 V2 1.948284 1_555
O28 P6 1.512929 1_555
O29 P8 1.567500 1_555
O29 V2 1.945889 1_555
O30 P9 1.559359 1_655
O30 V4 1.870062 1_565
O31 P8 1.517210 1_555
O31 V3 1.955984 1_555
O32 P7 1.542302 1_555
O33 P6 1.537380 1_555
O33 V4 1.960849 1_555
O34 P9 1.558716 1_555
O34 V3 2.049796 1_565
O35 P7 1.515285 1_555
O35 V4 1.997722 1_565
O36 P7 1.575561 1_555
O36 V5 1.839356 1_555
O37 P10 1.581985 1_555
O37 V5 1.905848 1_655
O38 P9 1.510809 1_555
O39 P10 1.524653 1_555
O39 V4 1.941689 1_555
O40 P8 1.569229 1_555
O40 V5 1.897038 1_555
O41 P0 1.552704 1_556
O41 V4 2.043802 1_565
O42 P9 1.579224 1_555
O42 V5 1.971742 1_555
O43 P10 1.526652 1_555
O44 P11 1.535429 1_555
O44 V4 1.887926 1_555
O45 P11 1.573653 1_555
O45 V5 1.873872 1_555
O46 P1 1.554161 1_556
O46 V5 1.941973 1_555
O47 P11 1.524197 1_555
