# generated using pymatgen
data_LiPdAu2
_symmetry_space_group_name_H-M   'P 1'
_cell_length_a   4.47736153
_cell_length_b   4.47736153
_cell_length_c   4.47736153
_cell_angle_alpha   60.00000000
_cell_angle_beta   60.00000000
_cell_angle_gamma   60.00000000
_symmetry_Int_Tables_number   1
_chemical_formula_structural   LiPdAu2
_chemical_formula_sum   'Li1 Pd1 Au2'
_cell_volume   63.46751475
_cell_formula_units_Z   1
loop_
 _symmetry_equiv_pos_site_id
 _symmetry_equiv_pos_as_xyz
  1  'x, y, z'
loop_
 _atom_site_type_symbol
 _atom_site_label
 _atom_site_symmetry_multiplicity
 _atom_site_fract_x
 _atom_site_fract_y
 _atom_site_fract_z
 _atom_site_occupancy
  Li  Li0  1  0.25000100  0.25000100  0.25000100  1
  Pd  Pd0  1  0.75000000  0.75000000  0.75000000  1
  Au  Au0  1  0.50000000  0.50000000  0.50000000  1
  Au  Au1  1  0.00000000  0.00000000  -0.00000000  1
loop_
_geom_bond_atom_site_label_1
_geom_bond_atom_site_label_2
_geom_bond_distance
_geom_bond_site_symmetry_2
Li0 Pd0 3.165966 1_545
Li0 Pd0 3.165966 1_554
Li0 Pd0 3.165966 1_455
Li0 Pd0 3.165979 1_544
Li0 Pd0 3.165979 1_445
Li0 Pd0 3.165979 1_454
Au0 Li0 2.741802 1_555
Au0 Pd0 2.741813 1_455
Au0 Pd0 2.741813 1_545
Au0 Pd0 2.741813 1_555
Au0 Pd0 2.741813 1_554
Au0 Li0 2.741816 1_565
Au0 Li0 2.741816 1_556
Au0 Li0 2.741816 1_655
Au1 Li0 2.741809 1_554
Au1 Li0 2.741809 1_545
Au1 Li0 2.741809 1_455
Au1 Pd0 2.741813 1_544
Au1 Pd0 2.741813 1_444
Au1 Pd0 2.741813 1_454
Au1 Pd0 2.741813 1_445
Au1 Li0 2.741824 1_555
