# generated using pymatgen
data_Sr2TlCd
_symmetry_space_group_name_H-M   'P 1'
_cell_length_a   5.72247486
_cell_length_b   5.72247486
_cell_length_c   5.72247486
_cell_angle_alpha   60.00000000
_cell_angle_beta   60.00000000
_cell_angle_gamma   60.00000000
_symmetry_Int_Tables_number   1
_chemical_formula_structural   Sr2TlCd
_chemical_formula_sum   'Sr2 Tl1 Cd1'
_cell_volume   132.50634746
_cell_formula_units_Z   1
loop_
 _symmetry_equiv_pos_site_id
 _symmetry_equiv_pos_as_xyz
  1  'x, y, z'
loop_
 _atom_site_type_symbol
 _atom_site_label
 _atom_site_symmetry_multiplicity
 _atom_site_fract_x
 _atom_site_fract_y
 _atom_site_fract_z
 _atom_site_occupancy
  Sr  Sr0  1  0.50000000  0.50000000  0.50000000  1
  Sr  Sr1  1  -0.00000000  -0.00000000  0.00000000  1
  Tl  Tl0  1  0.75000000  0.75000000  0.75000000  1
  Cd  Cd0  1  0.25000100  0.25000100  0.25000100  1
loop_
_geom_bond_atom_site_label_1
_geom_bond_atom_site_label_2
_geom_bond_distance
_geom_bond_site_symmetry_2
Sr0 Tl0 3.504286 1_555
Sr0 Tl0 3.504286 1_554
Sr0 Tl0 3.504286 1_545
Sr0 Tl0 3.504286 1_455
Sr1 Tl0 3.504286 1_445
Sr1 Tl0 3.504286 1_444
Sr1 Tl0 3.504286 1_454
Sr1 Tl0 3.504286 1_544
Cd0 Sr0 3.504272 1_555
Cd0 Sr1 3.504281 1_556
Cd0 Sr1 3.504281 1_565
Cd0 Sr1 3.504281 1_655
Cd0 Sr0 3.504291 1_545
Cd0 Sr0 3.504291 1_455
Cd0 Sr0 3.504291 1_554
Cd0 Sr1 3.504300 1_555
