# generated using pymatgen
data_Ba3MoN4
_symmetry_space_group_name_H-M   'P 1'
_cell_length_a   10.45032896
_cell_length_b   10.93170283
_cell_length_c   12.22966963
_cell_angle_alpha   90.00000000
_cell_angle_beta   90.00000000
_cell_angle_gamma   90.00000000
_symmetry_Int_Tables_number   1
_chemical_formula_structural   Ba3MoN4
_chemical_formula_sum   'Ba24 Mo8 N32'
_cell_volume   1397.11612142
_cell_formula_units_Z   8
loop_
 _symmetry_equiv_pos_site_id
 _symmetry_equiv_pos_as_xyz
  1  'x, y, z'
loop_
 _atom_site_type_symbol
 _atom_site_label
 _atom_site_symmetry_multiplicity
 _atom_site_fract_x
 _atom_site_fract_y
 _atom_site_fract_z
 _atom_site_occupancy
  Ba  Ba0  1  0.53153929  0.37421522  0.39438686  1
  Ba  Ba1  1  0.20015816  0.72222495  0.38126594  1
  Ba  Ba2  1  0.79984184  0.77777505  0.88126594  1
  Ba  Ba3  1  0.29984184  0.22222495  0.61873406  1
  Ba  Ba4  1  0.29984184  0.72222495  0.88126594  1
  Ba  Ba5  1  0.79984184  0.27777505  0.61873406  1
  Ba  Ba6  1  0.20015816  0.22222495  0.11873406  1
  Ba  Ba7  1  0.70015816  0.77777505  0.38126594  1
  Ba  Ba8  1  0.70015816  0.27777505  0.11873406  1
  Ba  Ba9  1  0.03153929  0.62578478  0.10561314  1
  Ba  Ba10  1  0.96846071  0.87421522  0.60561314  1
  Ba  Ba11  1  0.46846071  0.12578478  0.89438686  1
  Ba  Ba12  1  0.46846071  0.62578478  0.60561314  1
  Ba  Ba13  1  0.96846071  0.37421522  0.89438686  1
  Ba  Ba14  1  0.03153929  0.12578478  0.39438686  1
  Ba  Ba15  1  0.53153929  0.87421522  0.10561314  1
  Ba  Ba16  1  0.87558149  0.47070360  0.35668014  1
  Ba  Ba17  1  0.37558149  0.52929640  0.14331986  1
  Ba  Ba18  1  0.62441851  0.97070360  0.64331986  1
  Ba  Ba19  1  0.12441851  0.02929640  0.85668014  1
  Ba  Ba20  1  0.12441851  0.52929640  0.64331986  1
  Ba  Ba21  1  0.62441851  0.47070360  0.85668014  1
  Ba  Ba22  1  0.37558149  0.02929640  0.35668014  1
  Ba  Ba23  1  0.87558149  0.97070360  0.14331986  1
  Mo  Mo0  1  0.69893903  0.09575405  0.38615206  1
  Mo  Mo1  1  0.19893903  0.90424595  0.11384794  1
  Mo  Mo2  1  0.80106097  0.59575405  0.61384794  1
  Mo  Mo3  1  0.30106097  0.40424595  0.88615206  1
  Mo  Mo4  1  0.30106097  0.90424595  0.61384794  1
  Mo  Mo5  1  0.80106097  0.09575405  0.88615206  1
  Mo  Mo6  1  0.19893903  0.40424595  0.38615206  1
  Mo  Mo7  1  0.69893903  0.59575405  0.11384794  1
  N  N0  1  0.78958214  0.22623609  0.32336563  1
  N  N1  1  0.28958214  0.77376391  0.17663437  1
  N  N2  1  0.71041786  0.72623609  0.67663437  1
  N  N3  1  0.21041786  0.27376391  0.82336563  1
  N  N4  1  0.21041786  0.77376391  0.67663437  1
  N  N5  1  0.71041786  0.22623609  0.82336563  1
  N  N6  1  0.28958214  0.27376391  0.32336563  1
  N  N7  1  0.78958214  0.72623609  0.17663437  1
  N  N8  1  0.81130229  0.49421555  0.03710341  1
  N  N9  1  0.31130229  0.50578445  0.46289659  1
  N  N10  1  0.68869771  0.99421555  0.96289659  1
  N  N11  1  0.18869771  0.00578445  0.53710341  1
  N  N12  1  0.18869771  0.50578445  0.96289659  1
  N  N13  1  0.68869771  0.49421555  0.53710341  1
  N  N14  1  0.31130229  0.00578445  0.03710341  1
  N  N15  1  0.62202253  0.99756125  0.28129267  1
  N  N16  1  0.57459514  0.15205944  0.48416811  1
  N  N17  1  0.07459514  0.84794056  0.01583189  1
  N  N18  1  0.92540486  0.65205944  0.51583189  1
  N  N19  1  0.42540486  0.34794056  0.98416811  1
  N  N20  1  0.42540486  0.84794056  0.51583189  1
  N  N21  1  0.92540486  0.15205944  0.98416811  1
  N  N22  1  0.07459514  0.34794056  0.48416811  1
  N  N23  1  0.57459514  0.65205944  0.01583189  1
  N  N24  1  0.62202253  0.49756125  0.21870733  1
  N  N25  1  0.12202253  0.50243875  0.28129267  1
  N  N26  1  0.87797747  0.99756125  0.78129267  1
  N  N27  1  0.37797747  0.00243875  0.71870733  1
  N  N28  1  0.37797747  0.50243875  0.78129267  1
  N  N29  1  0.87797747  0.49756125  0.71870733  1
  N  N30  1  0.12202253  0.00243875  0.21870733  1
  N  N31  1  0.81130229  0.99421555  0.46289659  1
loop_
_geom_bond_atom_site_label_1
_geom_bond_atom_site_label_2
_geom_bond_distance
_geom_bond_site_symmetry_2
Ba0 N16 2.702935 1_555
Ba0 N24 2.707087 1_555
Ba0 N13 2.732127 1_555
Ba0 N9 2.840380 1_555
Ba0 N6 2.890279 1_555
Ba0 N0 3.262372 1_555
Ba1 N1 2.730133 1_555
Ba1 N25 2.816781 1_555
Ba1 N9 2.818502 1_555
Ba1 N20 3.183997 1_555
Ba1 N18 3.397175 1_455
Ba2 N2 2.730133 1_555
Ba2 N26 2.816781 1_555
Ba2 N10 2.818502 1_555
Ba2 N23 3.183997 1_556
Ba2 N17 3.397175 1_656
Ba3 N3 2.730133 1_555
Ba3 N27 2.816781 1_555
Ba3 N11 2.818502 1_555
Ba3 N22 3.183997 1_555
Ba3 N16 3.397175 1_555
Ba4 N4 2.730133 1_555
Ba4 N28 2.816781 1_555
Ba4 N12 2.818502 1_555
Ba4 N17 3.183997 1_556
Ba4 N23 3.397175 1_556
Ba5 N5 2.730133 1_555
Ba5 N29 2.816781 1_555
Ba5 N13 2.818502 1_555
Ba5 N16 3.183997 1_555
Ba5 N22 3.397175 1_655
Ba6 N6 2.730133 1_555
Ba6 N30 2.816781 1_555
Ba6 N14 2.818502 1_555
Ba6 N19 3.183997 1_554
Ba6 N21 3.397175 1_454
Ba7 N7 2.730133 1_555
Ba7 N15 2.816781 1_555
Ba7 N31 2.818502 1_555
Ba7 N18 3.183997 1_555
Ba7 N20 3.397175 1_555
Ba8 N0 2.730133 1_555
Ba8 N24 2.816781 1_555
Ba8 N8 2.818502 1_555
Ba8 N21 3.183997 1_554
Ba8 N19 3.397175 1_554
Ba9 N17 2.702935 1_555
Ba9 N25 2.707087 1_555
Ba9 N12 2.732127 1_554
Ba9 N8 2.840380 1_455
Ba9 N7 2.890279 1_455
Ba9 N1 3.262372 1_555
Ba10 N18 2.702935 1_555
Ba10 N26 2.707087 1_555
Ba10 N31 2.732127 1_555
Ba10 N11 2.840380 1_665
Ba10 N4 2.890279 1_655
Ba10 N2 3.262372 1_555
Ba11 N19 2.702935 1_555
Ba11 N27 2.707087 1_555
Ba11 N14 2.732127 1_556
Ba11 N10 2.840380 1_545
Ba11 N5 2.890279 1_555
Ba11 N3 3.262372 1_555
Ba12 N20 2.702935 1_555
Ba12 N28 2.707087 1_555
Ba12 N9 2.732127 1_555
Ba12 N13 2.840380 1_555
Ba12 N2 2.890279 1_555
Ba12 N4 3.262372 1_555
Ba13 N21 2.702935 1_555
Ba13 N29 2.707087 1_555
Ba13 N8 2.732127 1_556
Ba13 N12 2.840380 1_655
Ba13 N3 2.890279 1_655
Ba13 N5 3.262372 1_555
Ba14 N22 2.702935 1_555
Ba14 N30 2.707087 1_555
Ba14 N11 2.732127 1_555
Ba14 N31 2.840380 1_445
Ba14 N0 2.890279 1_455
Ba14 N6 3.262372 1_555
Ba15 N23 2.702935 1_555
Ba15 N15 2.707087 1_555
Ba15 N10 2.732127 1_554
Ba15 N14 2.840380 1_565
Ba15 N1 2.890279 1_555
Ba15 N7 3.262372 1_555
Ba16 N25 2.757354 1_655
Ba16 N18 2.826638 1_555
Ba16 N0 2.848801 1_555
Ba16 N22 2.925284 1_655
Ba16 N13 2.957867 1_555
Ba16 N24 3.155106 1_555
Ba17 N24 2.757354 1_555
Ba17 N19 2.826638 1_554
Ba17 N1 2.848801 1_555
Ba17 N23 2.925284 1_555
Ba17 N12 2.957867 1_554
Ba17 N25 3.155106 1_555
Ba18 N27 2.757354 1_565
Ba18 N16 2.826638 1_565
Ba18 N2 2.848801 1_555
Ba18 N20 2.925284 1_555
Ba18 N31 2.957867 1_555
Ba18 N26 3.155106 1_555
Ba19 N26 2.757354 1_445
Ba19 N17 2.826638 1_546
Ba19 N3 2.848801 1_555
Ba19 N21 2.925284 1_455
Ba19 N14 2.957867 1_556
Ba19 N27 3.155106 1_555
Ba20 N29 2.757354 1_455
Ba20 N22 2.826638 1_555
Ba20 N4 2.848801 1_555
Ba20 N18 2.925284 1_455
Ba20 N9 2.957867 1_555
Ba20 N28 3.155106 1_555
Ba21 N28 2.757354 1_555
Ba21 N23 2.826638 1_556
Ba21 N5 2.848801 1_555
Ba21 N19 2.925284 1_555
Ba21 N8 2.957867 1_556
Ba21 N29 3.155106 1_555
Ba22 N15 2.757354 1_545
Ba22 N20 2.826638 1_545
Ba22 N6 2.848801 1_555
Ba22 N16 2.925284 1_555
Ba22 N11 2.957867 1_555
Ba22 N30 3.155106 1_555
Ba23 N30 2.757354 1_665
Ba23 N21 2.826638 1_564
Ba23 N7 2.848801 1_555
Ba23 N17 2.925284 1_655
Ba23 N10 2.957867 1_554
Ba23 N15 3.155106 1_555
Mo0 N15 1.855494 1_545
Mo0 N31 1.868634 1_545
Mo0 N16 1.871972 1_555
Mo0 N0 1.876560 1_555
Mo1 N30 1.855494 1_565
Mo1 N14 1.868634 1_565
Mo1 N17 1.871972 1_555
Mo1 N1 1.876560 1_555
Mo2 N29 1.855494 1_555
Mo2 N13 1.868634 1_555
Mo2 N18 1.871972 1_555
Mo2 N2 1.876560 1_555
Mo3 N28 1.855494 1_555
Mo3 N12 1.868634 1_555
Mo3 N19 1.871972 1_555
Mo3 N3 1.876560 1_555
Mo4 N27 1.855494 1_565
Mo4 N11 1.868634 1_565
Mo4 N20 1.871972 1_555
Mo4 N4 1.876560 1_555
Mo5 N26 1.855494 1_545
Mo5 N10 1.868634 1_545
Mo5 N21 1.871972 1_555
Mo5 N5 1.876560 1_555
Mo6 N25 1.855494 1_555
Mo6 N9 1.868634 1_555
Mo6 N22 1.871972 1_555
Mo6 N6 1.876560 1_555
Mo7 N24 1.855494 1_555
Mo7 N8 1.868634 1_555
Mo7 N23 1.871972 1_555
Mo7 N7 1.876560 1_555
