# generated using pymatgen
data_LiFe4(BO3)4
_symmetry_space_group_name_H-M   'P 1'
_cell_length_a   5.23343500
_cell_length_b   9.15704940
_cell_length_c   10.08004710
_cell_angle_alpha   89.90292244
_cell_angle_beta   89.40948199
_cell_angle_gamma   89.06188163
_symmetry_Int_Tables_number   1
_chemical_formula_structural   LiFe4(BO3)4
_chemical_formula_sum   'Li2 Fe8 B8 O24'
_cell_volume   482.97334683
_cell_formula_units_Z   2
loop_
 _symmetry_equiv_pos_site_id
 _symmetry_equiv_pos_as_xyz
  1  'x, y, z'
loop_
 _atom_site_type_symbol
 _atom_site_label
 _atom_site_symmetry_multiplicity
 _atom_site_fract_x
 _atom_site_fract_y
 _atom_site_fract_z
 _atom_site_occupancy
  Li  Li0  1  0.33541700  0.32317300  0.89814500  1
  Li  Li1  1  0.65805100  0.67736400  0.65282400  1
  Fe  Fe0  1  0.14895200  0.84725200  0.62779200  1
  Fe  Fe1  1  0.17070700  0.50201400  0.13077400  1
  Fe  Fe2  1  0.32139200  0.98756500  0.87666900  1
  Fe  Fe3  1  0.33476600  0.66565200  0.38016600  1
  Fe  Fe4  1  0.67577100  0.33345200  0.62903800  1
  Fe  Fe5  1  0.67218600  0.99942200  0.12684600  1
  Fe  Fe6  1  0.83522500  0.16007400  0.37704900  1
  Fe  Fe7  1  0.82310800  0.50735100  0.88298700  1
  B  B0  1  0.17337300  0.50416600  0.62795400  1
  B  B1  1  0.17122800  0.82872200  0.12815000  1
  B  B2  1  0.33988700  0.99869900  0.37314400  1
  B  B3  1  0.32474400  0.66586300  0.87333000  1
  B  B4  1  0.64866200  0.99882000  0.62793600  1
  B  B5  1  0.66858800  0.33032500  0.12717800  1
  B  B6  1  0.84139000  0.49725300  0.38116400  1
  B  B7  1  0.82804200  0.16738100  0.88000000  1
  O  O0  1  0.09526200  0.50433800  0.33486700  1
  O  O1  1  0.08808500  0.15560900  0.88265600  1
  O  O2  1  0.18473700  0.79273100  0.84261800  1
  O  O3  1  0.25501100  0.86673700  0.42211500  1
  O  O4  1  0.18380400  0.11865200  0.37074600  1
  O  O5  1  0.19857400  0.54401500  0.92880700  1
  O  O6  1  0.32650800  0.38472600  0.65081300  1
  O  O7  1  0.33088000  0.93667800  0.07617000  1
  O  O8  1  0.27829900  0.63393700  0.58041000  1
  O  O9  1  0.28719400  0.69963500  0.17567100  1
  O  O10  1  0.41035400  0.34426600  0.10806800  1
  O  O11  1  0.40550100  0.00575600  0.68633100  1
  O  O12  1  0.59428800  0.00503400  0.32754600  1
  O  O13  1  0.57676800  0.65905100  0.84392600  1
  O  O14  1  0.70488300  0.29314800  0.82939500  1
  O  O15  1  0.75350100  0.36224000  0.42911500  1
  O  O16  1  0.68479300  0.61575900  0.38283100  1
  O  O17  1  0.66940700  0.05874800  0.93022500  1
  O  O18  1  0.82648900  0.44429100  0.08976200  1
  O  O19  1  0.77945100  0.87175900  0.62045200  1
  O  O20  1  0.74711300  0.13015300  0.57561000  1
  O  O21  1  0.78034200  0.20148300  0.17499200  1
  O  O22  1  0.91525900  0.84896000  0.13105200  1
  O  O23  1  0.91065400  0.50144800  0.65860200  1
loop_
_geom_bond_atom_site_label_1
_geom_bond_atom_site_label_2
_geom_bond_distance
_geom_bond_site_symmetry_2
Li0 O1 2.030815 1_555
Li0 O14 2.061597 1_555
Li0 O5 2.155941 1_555
Li0 O10 2.165567 1_556
Li0 O6 2.555833 1_555
Li1 O19 1.926039 1_555
Li1 O13 1.975886 1_555
Li1 O23 2.068205 1_555
Li1 O8 2.167371 1_555
Fe0 O19 1.945236 1_455
Fe0 O11 2.083397 1_565
Fe0 O8 2.110703 1_555
Fe0 O3 2.148601 1_555
Fe0 O2 2.230507 1_555
Fe1 O10 1.909928 1_555
Fe1 O18 1.934621 1_455
Fe1 O9 1.973775 1_555
Fe1 O5 2.075304 1_554
Fe1 O0 2.090891 1_555
Fe2 O1 1.949260 1_565
Fe2 O2 1.965002 1_555
Fe2 O11 1.971421 1_565
Fe2 O17 2.023322 1_565
Fe2 O7 2.064403 1_556
Fe3 O16 1.881136 1_555
Fe3 O3 1.928057 1_555
Fe3 O0 2.009053 1_555
Fe3 O8 2.057770 1_555
Fe3 O9 2.100886 1_555
Fe4 O6 1.890402 1_555
Fe4 O20 1.967629 1_555
Fe4 O23 2.009326 1_555
Fe4 O14 2.059178 1_555
Fe4 O15 2.069046 1_555
Fe5 O22 1.860611 1_555
Fe5 O7 1.958308 1_555
Fe5 O21 2.005608 1_565
Fe5 O17 2.054298 1_564
Fe5 O12 2.060170 1_565
Fe6 O4 1.857656 1_655
Fe6 O15 1.964233 1_555
Fe6 O12 1.982043 1_555
Fe6 O20 2.068087 1_555
Fe6 O21 2.092960 1_555
Fe7 O13 1.922683 1_555
Fe7 O5 2.056212 1_655
Fe7 O14 2.138275 1_555
Fe7 O18 2.162040 1_556
Fe7 O23 2.303665 1_555
B0 O6 1.365958 1_555
B0 O8 1.399046 1_555
B0 O23 1.406702 1_455
B1 O22 1.349371 1_455
B1 O7 1.402197 1_555
B1 O9 1.405568 1_555
B2 O4 1.358412 1_565
B2 O3 1.382824 1_555
B2 O12 1.406077 1_565
B3 O13 1.349327 1_555
B3 O2 1.399260 1_555
B3 O5 1.417058 1_555
B4 O19 1.342049 1_555
B4 O11 1.397133 1_565
B4 O20 1.415101 1_565
B5 O10 1.370932 1_555
B5 O18 1.390931 1_555
B5 O21 1.395563 1_555
B6 O16 1.349136 1_555
B6 O0 1.406120 1_655
B6 O15 1.409146 1_555
B7 O1 1.363955 1_655
B7 O17 1.397057 1_555
B7 O14 1.407988 1_555
