# generated using pymatgen
data_CsMgF3
_symmetry_space_group_name_H-M   'P 1'
_cell_length_a   4.25230700
_cell_length_b   4.25230700
_cell_length_c   4.25230700
_cell_angle_alpha   90.00000000
_cell_angle_beta   90.00000000
_cell_angle_gamma   90.00000000
_symmetry_Int_Tables_number   1
_chemical_formula_structural   CsMgF3
_chemical_formula_sum   'Cs1 Mg1 F3'
_cell_volume   76.89070343
_cell_formula_units_Z   1
loop_
 _symmetry_equiv_pos_site_id
 _symmetry_equiv_pos_as_xyz
  1  'x, y, z'
loop_
 _atom_site_type_symbol
 _atom_site_label
 _atom_site_symmetry_multiplicity
 _atom_site_fract_x
 _atom_site_fract_y
 _atom_site_fract_z
 _atom_site_occupancy
  Cs  Cs0  1  0.00000000  0.00000000  0.00000000  1
  Mg  Mg0  1  0.50000000  0.50000000  0.50000000  1
  F  F0  1  0.00000000  0.50000000  0.50000000  1
  F  F1  1  0.50000000  0.00000000  0.50000000  1
  F  F2  1  0.50000000  0.50000000  0.00000000  1
loop_
_geom_bond_atom_site_label_1
_geom_bond_atom_site_label_2
_geom_bond_distance
_geom_bond_site_symmetry_2
Cs0 F2 3.006835 1_455
Cs0 F2 3.006835 1_555
Cs0 F2 3.006835 1_445
Cs0 F1 3.006835 1_554
Cs0 F0 3.006835 1_544
Cs0 F0 3.006835 1_545
Cs0 F0 3.006835 1_555
Cs0 F0 3.006835 1_554
Cs0 F2 3.006835 1_545
Cs0 F1 3.006835 1_455
Cs0 F1 3.006835 1_555
Cs0 F1 3.006835 1_454
F0 Mg0 2.126154 1_455
F0 Mg0 2.126154 1_555
F1 Mg0 2.126154 1_545
F1 Mg0 2.126154 1_555
F2 Mg0 2.126154 1_554
F2 Mg0 2.126154 1_555
