# generated using pymatgen
data_K2TeO3
_symmetry_space_group_name_H-M   'P 1'
_cell_length_a   6.29135701
_cell_length_b   6.29135811
_cell_length_c   7.02773718
_cell_angle_alpha   90.00000000
_cell_angle_beta   90.00000000
_cell_angle_gamma   119.99999031
_symmetry_Int_Tables_number   1
_chemical_formula_structural   K2TeO3
_chemical_formula_sum   'K4 Te2 O6'
_cell_volume   240.89895855
_cell_formula_units_Z   2
loop_
 _symmetry_equiv_pos_site_id
 _symmetry_equiv_pos_as_xyz
  1  'x, y, z'
loop_
 _atom_site_type_symbol
 _atom_site_label
 _atom_site_symmetry_multiplicity
 _atom_site_fract_x
 _atom_site_fract_y
 _atom_site_fract_z
 _atom_site_occupancy
  K  K0  1  0.00000000  0.00000000  -0.00000000  1
  K  K1  1  0.33333300  0.66666700  0.62217139  1
  K  K2  1  0.00000000  0.00000000  0.50000000  1
  K  K3  1  0.66666700  0.33333300  0.37782861  1
  Te  Te0  1  0.66666700  0.33333300  0.85856473  1
  Te  Te1  1  0.33333300  0.66666700  0.14143527  1
  O  O0  1  0.89460576  0.27411053  0.73634741  1
  O  O1  1  0.37950478  0.10539424  0.73634741  1
  O  O2  1  0.72588947  0.62049522  0.73634741  1
  O  O3  1  0.10539424  0.72588947  0.26365259  1
  O  O4  1  0.27411053  0.37950478  0.26365259  1
  O  O5  1  0.62049522  0.89460576  0.26365259  1
loop_
_geom_bond_atom_site_label_1
_geom_bond_atom_site_label_2
_geom_bond_distance
_geom_bond_site_symmetry_2
K0 O1 2.826715 1_554
K0 O5 2.826715 1_445
K0 O0 2.826715 1_454
K0 O3 2.826715 1_545
K0 O2 2.826715 1_444
K0 O4 2.826715 1_555
K1 O1 2.746832 1_565
K1 O0 2.746835 1_455
K1 O2 2.746838 1_555
K1 O3 3.012952 1_555
K1 O5 3.012954 1_555
K1 O4 3.012955 1_555
K2 O5 2.704815 1_445
K2 O1 2.704815 1_555
K2 O3 2.704816 1_545
K2 O0 2.704816 1_455
K2 O4 2.704816 1_555
K2 O2 2.704816 1_445
K3 O5 2.746832 1_545
K3 O3 2.746835 1_655
K3 O4 2.746838 1_555
K3 O0 3.012952 1_555
K3 O1 3.012954 1_555
K3 O2 3.012955 1_555
O0 Te0 1.862081 1_555
O1 Te0 1.862085 1_555
O2 Te0 1.862086 1_555
O3 Te1 1.862081 1_555
O4 Te1 1.862086 1_555
O5 Te1 1.862085 1_555
