# generated using pymatgen
data_Li3Co13O16
_symmetry_space_group_name_H-M   'P 1'
_cell_length_a   5.15519900
_cell_length_b   5.98102959
_cell_length_c   9.90461387
_cell_angle_alpha   98.73530551
_cell_angle_beta   94.61456461
_cell_angle_gamma   89.84604631
_symmetry_Int_Tables_number   1
_chemical_formula_structural   Li3Co13O16
_chemical_formula_sum   'Li3 Co13 O16'
_cell_volume   300.85795097
_cell_formula_units_Z   1
loop_
 _symmetry_equiv_pos_site_id
 _symmetry_equiv_pos_as_xyz
  1  'x, y, z'
loop_
 _atom_site_type_symbol
 _atom_site_label
 _atom_site_symmetry_multiplicity
 _atom_site_fract_x
 _atom_site_fract_y
 _atom_site_fract_z
 _atom_site_occupancy
  Li  Li0  1  0.62683600  0.93835600  0.25277000  1
  Li  Li1  1  0.00000000  0.50000000  0.50000000  1
  Li  Li2  1  0.37316400  0.06164400  0.74723000  1
  Co  Co0  1  0.50042800  0.25031900  0.49961800  1
  Co  Co1  1  0.49957200  0.74968100  0.50038200  1
  Co  Co2  1  0.63026300  0.44041700  0.25426100  1
  Co  Co3  1  0.00000000  0.00000000  0.50000000  1
  Co  Co4  1  0.74375100  0.12193700  0.99895200  1
  Co  Co5  1  0.74653800  0.62780400  0.00094300  1
  Co  Co6  1  0.12077700  0.18591500  0.25322700  1
  Co  Co7  1  0.12014100  0.69021700  0.25341000  1
  Co  Co8  1  0.25346200  0.37219600  0.99905700  1
  Co  Co9  1  0.25624900  0.87806300  0.00104800  1
  Co  Co10  1  0.87985900  0.30978300  0.74659000  1
  Co  Co11  1  0.87922300  0.81408500  0.74677300  1
  Co  Co12  1  0.36973700  0.55958300  0.74573900  1
  O  O0  1  0.67902800  0.53265100  0.62690700  1
  O  O1  1  0.71136700  0.02930300  0.61616400  1
  O  O2  1  0.42981400  0.65272400  0.12605500  1
  O  O3  1  0.43295200  0.16114300  0.12643700  1
  O  O4  1  0.81729400  0.73581000  0.38368100  1
  O  O5  1  0.18270600  0.26419000  0.61631900  1
  O  O6  1  0.81719100  0.20599400  0.38388600  1
  O  O7  1  0.18280900  0.79400600  0.61611400  1
  O  O8  1  0.94388100  0.90511800  0.12376900  1
  O  O9  1  0.93415200  0.40752100  0.12989800  1
  O  O10  1  0.57018600  0.34727600  0.87394500  1
  O  O11  1  0.28863300  0.97069700  0.38383600  1
  O  O12  1  0.56704800  0.83885700  0.87356300  1
  O  O13  1  0.32097200  0.46734900  0.37309300  1
  O  O14  1  0.06584800  0.59247900  0.87010200  1
  O  O15  1  0.05611900  0.09488200  0.87623100  1
loop_
_geom_bond_atom_site_label_1
_geom_bond_atom_site_label_2
_geom_bond_distance
_geom_bond_site_symmetry_2
Li0 O4 2.092534 1_555
Li0 O6 2.093766 1_565
Li0 O8 2.144886 1_555
Li0 O3 2.153672 1_565
Li0 O2 2.162938 1_555
Li0 O11 2.246895 1_555
Li1 O5 2.124962 1_555
Li1 O4 2.124962 1_455
Li1 O6 2.126786 1_455
Li1 O7 2.126786 1_555
Li1 O13 2.148118 1_555
Li1 O0 2.148118 1_455
Li2 O5 2.092534 1_555
Li2 O7 2.093766 1_545
Li2 O15 2.144886 1_555
Li2 O12 2.153672 1_545
Li2 O10 2.162938 1_555
Li2 O1 2.246895 1_555
Co0 O6 2.063350 1_555
Co0 O5 2.073763 1_555
Co0 O13 2.100570 1_555
Co0 O0 2.112731 1_555
Co0 O1 2.125142 1_555
Co0 O11 2.128388 1_545
Co1 O7 2.063350 1_555
Co1 O4 2.073763 1_555
Co1 O0 2.100570 1_555
Co1 O13 2.112731 1_555
Co1 O11 2.125142 1_555
Co1 O1 2.128388 1_565
Co2 O13 2.048543 1_555
Co2 O9 2.060450 1_555
Co2 O2 2.136422 1_555
Co2 O3 2.141768 1_555
Co2 O4 2.194680 1_555
Co2 O6 2.209814 1_555
Co3 O11 1.944569 1_545
Co3 O1 1.944569 1_455
Co3 O6 1.994620 1_455
Co3 O7 1.994620 1_545
Co3 O5 1.997930 1_555
Co3 O4 1.997930 1_445
Co4 O15 2.085801 1_655
Co4 O12 2.103899 1_545
Co4 O3 2.109524 1_556
Co4 O10 2.114753 1_555
Co4 O8 2.132839 1_546
Co4 O9 2.166662 1_556
Co5 O12 2.081107 1_554
Co5 O10 2.099300 1_554
Co5 O8 2.112591 1_555
Co5 O2 2.119411 1_555
Co5 O9 2.146669 1_555
Co5 O14 2.166092 1_654
Co6 O11 2.097358 1_545
Co6 O6 2.101483 1_455
Co6 O3 2.110999 1_555
Co6 O8 2.112417 1_445
Co6 O9 2.114316 1_455
Co6 O13 2.124427 1_555
Co7 O4 2.095621 1_455
Co7 O11 2.099174 1_555
Co7 O2 2.103848 1_555
Co7 O8 2.105654 1_455
Co7 O9 2.113394 1_455
Co7 O13 2.128143 1_555
Co8 O3 2.081107 1_556
Co8 O2 2.099300 1_556
Co8 O15 2.112591 1_555
Co8 O10 2.119411 1_555
Co8 O14 2.146669 1_555
Co8 O9 2.166092 1_456
Co9 O8 2.085801 1_455
Co9 O3 2.103899 1_565
Co9 O12 2.109524 1_554
Co9 O2 2.114753 1_555
Co9 O15 2.132839 1_564
Co9 O14 2.166662 1_554
Co10 O5 2.095621 1_655
Co10 O1 2.099174 1_555
Co10 O10 2.103848 1_555
Co10 O15 2.105654 1_655
Co10 O14 2.113394 1_655
Co10 O0 2.128143 1_555
Co11 O1 2.097358 1_565
Co11 O7 2.101483 1_655
Co11 O12 2.110999 1_555
Co11 O15 2.112417 1_665
Co11 O14 2.114316 1_655
Co11 O0 2.124427 1_555
Co12 O0 2.048543 1_555
Co12 O14 2.060450 1_555
Co12 O10 2.136422 1_555
Co12 O12 2.141768 1_555
Co12 O5 2.194680 1_555
Co12 O7 2.209814 1_555
