# generated using pymatgen
data_Yb2TiO5
_symmetry_space_group_name_H-M   'P 1'
_cell_length_a   5.20723700
_cell_length_b   6.56161283
_cell_length_c   7.55869458
_cell_angle_alpha   66.83813407
_cell_angle_beta   90.00000000
_cell_angle_gamma   66.62199276
_symmetry_Int_Tables_number   1
_chemical_formula_structural   Yb2TiO5
_chemical_formula_sum   'Yb4 Ti2 O10'
_cell_volume   214.19530372
_cell_formula_units_Z   2
loop_
 _symmetry_equiv_pos_site_id
 _symmetry_equiv_pos_as_xyz
  1  'x, y, z'
loop_
 _atom_site_type_symbol
 _atom_site_label
 _atom_site_symmetry_multiplicity
 _atom_site_fract_x
 _atom_site_fract_y
 _atom_site_fract_z
 _atom_site_occupancy
  Yb  Yb0  1  0.62966500  0.72284100  0.77033600  1
  Yb  Yb1  1  0.64749300  0.72284100  0.27033600  1
  Yb  Yb2  1  0.35250700  0.27715900  0.72966400  1
  Yb  Yb3  1  0.37033500  0.27715900  0.22966400  1
  Ti  Ti0  1  0.00000000  0.00000000  0.50000000  1
  Ti  Ti1  1  0.00000000  0.00000000  0.00000000  1
  O  O0  1  0.72823900  0.87687700  0.96576600  1
  O  O1  1  0.39488500  0.87687700  0.46576600  1
  O  O2  1  0.02599800  0.67123100  0.62077700  1
  O  O3  1  0.69722900  0.32876900  0.87922300  1
  O  O4  1  0.30277100  0.67123100  0.12077700  1
  O  O5  1  0.97400200  0.32876900  0.37922300  1
  O  O6  1  0.60511500  0.12312300  0.53423400  1
  O  O7  1  0.14183300  0.00000000  0.75000000  1
  O  O8  1  0.27176100  0.12312300  0.03423400  1
  O  O9  1  0.85816700  0.00000000  0.25000000  1
loop_
_geom_bond_atom_site_label_1
_geom_bond_atom_site_label_2
_geom_bond_distance
_geom_bond_site_symmetry_2
O0 Ti1 1.947805 1_666
O0 Yb1 2.237203 1_556
O0 Yb0 2.247972 1_555
O0 Yb2 2.479097 1_565
O1 Ti0 1.947810 1_565
O1 Yb0 2.237199 1_555
O1 Yb1 2.247968 1_555
O1 Yb3 2.479098 1_565
O2 Ti0 1.929893 1_565
O2 Yb2 2.256363 1_555
O2 Yb0 2.323453 1_455
O3 Ti1 1.929892 1_656
O3 Yb0 2.256361 1_555
O3 Yb2 2.323449 1_555
O4 Ti1 1.929892 1_565
O4 Yb3 2.256361 1_555
O4 Yb1 2.323449 1_555
O5 Ti0 1.929893 1_655
O5 Yb1 2.256363 1_555
O5 Yb3 2.323453 1_655
O6 Ti0 1.947810 1_655
O6 Yb3 2.237199 1_555
O6 Yb2 2.247968 1_555
O6 Yb0 2.479098 1_545
O7 Ti0 2.028875 1_555
O7 Ti1 2.028875 1_556
O7 Yb0 2.428536 1_545
O7 Yb2 2.428540 1_555
O8 Ti1 1.947805 1_555
O8 Yb2 2.237203 1_554
O8 Yb3 2.247972 1_555
O8 Yb1 2.479097 1_545
O9 Ti0 2.028875 1_655
O9 Ti1 2.028875 1_655
O9 Yb3 2.428536 1_555
O9 Yb1 2.428540 1_545
