# generated using pymatgen
data_LiFeCoO4
_symmetry_space_group_name_H-M   'P 1'
_cell_length_a   5.84719739
_cell_length_b   5.84719739
_cell_length_c   5.84719739
_cell_angle_alpha   120.71606000
_cell_angle_beta   118.54552450
_cell_angle_gamma   90.65084878
_symmetry_Int_Tables_number   1
_chemical_formula_structural   LiFeCoO4
_chemical_formula_sum   'Li2 Fe2 Co2 O8'
_cell_volume   142.07663754
_cell_formula_units_Z   2
loop_
 _symmetry_equiv_pos_site_id
 _symmetry_equiv_pos_as_xyz
  1  'x, y, z'
loop_
 _atom_site_type_symbol
 _atom_site_label
 _atom_site_symmetry_multiplicity
 _atom_site_fract_x
 _atom_site_fract_y
 _atom_site_fract_z
 _atom_site_occupancy
  Li  Li0  1  0.00000000  0.50000000  0.50000000  1
  Li  Li1  1  0.50000000  0.50000000  0.00000000  1
  Fe  Fe0  1  0.00000000  0.00000000  0.00000000  1
  Fe  Fe1  1  0.50000000  0.00000000  0.50000000  1
  Co  Co0  1  0.00000000  0.00000000  0.50000000  1
  Co  Co1  1  0.00000000  0.50000000  0.00000000  1
  O  O0  1  0.21173200  0.75296100  0.45877100  1
  O  O1  1  0.22919100  0.21774000  0.48855000  1
  O  O2  1  0.20581000  0.24703900  0.95877100  1
  O  O3  1  0.22919100  0.74064100  0.01145000  1
  O  O4  1  0.77080900  0.25935900  0.98855000  1
  O  O5  1  0.79419000  0.75296100  0.04122900  1
  O  O6  1  0.77080900  0.78226000  0.51145000  1
  O  O7  1  0.78826800  0.24703900  0.54122900  1
loop_
_geom_bond_atom_site_label_1
_geom_bond_atom_site_label_2
_geom_bond_distance
_geom_bond_site_symmetry_2
Li0 O0 2.094406 1_555
Li0 O7 2.094406 1_455
Li0 O3 2.132471 1_556
Li0 O4 2.132471 1_454
Li0 O1 2.132476 1_555
Li0 O6 2.132476 1_455
Li1 O5 2.094406 1_555
Li1 O2 2.094406 1_554
Li1 O3 2.132471 1_555
Li1 O4 2.132471 1_554
Li1 O6 2.132472 1_555
Li1 O1 2.132472 1_554
Fe0 O3 2.040687 1_545
Fe0 O4 2.040687 1_454
Fe0 O1 2.040688 1_555
Fe0 O6 2.040688 1_444
Fe0 O2 2.046061 1_554
Fe0 O5 2.046061 1_445
Fe1 O1 2.040684 1_555
Fe1 O6 2.040684 1_545
Fe1 O3 2.040687 1_545
Fe1 O4 2.040687 1_555
Fe1 O7 2.046061 1_555
Fe1 O0 2.046061 1_545
Co0 O1 1.885587 1_555
Co0 O6 1.885587 1_445
Co0 O5 1.909850 1_445
Co0 O0 1.909850 1_545
Co0 O2 1.909850 1_555
Co0 O7 1.909850 1_455
Co1 O3 1.885591 1_555
Co1 O4 1.885591 1_454
Co1 O0 1.909850 1_555
Co1 O5 1.909850 1_455
Co1 O2 1.909850 1_554
Co1 O7 1.909850 1_454
