# generated using pymatgen
data_LiAlPt2
_symmetry_space_group_name_H-M   'P 1'
_cell_length_a   4.21560343
_cell_length_b   4.21560201
_cell_length_c   4.21560201
_cell_angle_alpha   60.00002242
_cell_angle_beta   60.00003362
_cell_angle_gamma   60.00003362
_symmetry_Int_Tables_number   1
_chemical_formula_structural   LiAlPt2
_chemical_formula_sum   'Li1 Al1 Pt2'
_cell_volume   52.97418108
_cell_formula_units_Z   1
loop_
 _symmetry_equiv_pos_site_id
 _symmetry_equiv_pos_as_xyz
  1  'x, y, z'
loop_
 _atom_site_type_symbol
 _atom_site_label
 _atom_site_symmetry_multiplicity
 _atom_site_fract_x
 _atom_site_fract_y
 _atom_site_fract_z
 _atom_site_occupancy
  Li  Li0  1  0.75000000  0.75000000  0.75000000  1
  Al  Al0  1  0.24999900  0.24999900  0.24999900  1
  Pt  Pt0  1  -0.00000000  -0.00000000  -0.00000000  1
  Pt  Pt1  1  0.50000000  0.50000000  0.50000000  1
loop_
_geom_bond_atom_site_label_1
_geom_bond_atom_site_label_2
_geom_bond_distance
_geom_bond_site_symmetry_2
Li0 Pt1 2.581518 1_555
Li0 Pt0 2.581518 1_666
Li0 Pt1 2.581519 1_556
Li0 Pt1 2.581519 1_565
Li0 Pt0 2.581519 1_656
Li0 Pt0 2.581519 1_665
Li0 Pt0 2.581521 1_566
Li0 Pt1 2.581521 1_655
Al0 Pt0 2.581508 1_555
Al0 Pt1 2.581516 1_545
Al0 Pt1 2.581516 1_554
Al0 Pt1 2.581517 1_455
Al0 Pt0 2.581523 1_556
Al0 Pt0 2.581523 1_565
Al0 Pt0 2.581524 1_655
Al0 Pt1 2.581529 1_555
