# generated using pymatgen
data_LiCo2Si
_symmetry_space_group_name_H-M   'P 1'
_cell_length_a   3.82529099
_cell_length_b   3.82529099
_cell_length_c   3.82529099
_cell_angle_alpha   60.00000000
_cell_angle_beta   60.00000000
_cell_angle_gamma   60.00000000
_symmetry_Int_Tables_number   1
_chemical_formula_structural   LiCo2Si
_chemical_formula_sum   'Li1 Co2 Si1'
_cell_volume   39.58024109
_cell_formula_units_Z   1
loop_
 _symmetry_equiv_pos_site_id
 _symmetry_equiv_pos_as_xyz
  1  'x, y, z'
loop_
 _atom_site_type_symbol
 _atom_site_label
 _atom_site_symmetry_multiplicity
 _atom_site_fract_x
 _atom_site_fract_y
 _atom_site_fract_z
 _atom_site_occupancy
  Li  Li0  1  0.25000100  0.25000100  0.25000100  1
  Co  Co0  1  0.00000000  0.00000000  0.00000000  1
  Co  Co1  1  0.50000100  0.50000100  0.50000100  1
  Si  Si0  1  0.75000000  0.75000000  0.75000000  1
loop_
_geom_bond_atom_site_label_1
_geom_bond_atom_site_label_2
_geom_bond_distance
_geom_bond_site_symmetry_2
Li0 Si0 2.704884 1_554
Li0 Si0 2.704884 1_455
Li0 Si0 2.704884 1_545
Li0 Si0 2.704895 1_454
Li0 Si0 2.704895 1_544
Li0 Si0 2.704895 1_445
Co0 Li0 2.342500 1_455
Co0 Li0 2.342500 1_554
Co0 Li0 2.342500 1_545
Co0 Si0 2.342503 1_544
Co0 Si0 2.342503 1_444
Co0 Si0 2.342503 1_445
Co0 Si0 2.342503 1_454
Co0 Li0 2.342512 1_555
Co1 Si0 2.342493 1_555
Co1 Li0 2.342503 1_655
Co1 Li0 2.342503 1_565
Co1 Li0 2.342503 1_556
Co1 Li0 2.342503 1_555
Co1 Si0 2.342506 1_554
Co1 Si0 2.342506 1_545
Co1 Si0 2.342506 1_455
