# generated using pymatgen
data_LiV3(OF3)2
_symmetry_space_group_name_H-M   'P 1'
_cell_length_a   10.50468010
_cell_length_b   4.68979300
_cell_length_c   5.61016172
_cell_angle_alpha   90.00012051
_cell_angle_beta   96.86932156
_cell_angle_gamma   90.00002299
_symmetry_Int_Tables_number   1
_chemical_formula_structural   LiV3(OF3)2
_chemical_formula_sum   'Li2 V6 O4 F12'
_cell_volume   274.39934526
_cell_formula_units_Z   2
loop_
 _symmetry_equiv_pos_site_id
 _symmetry_equiv_pos_as_xyz
  1  'x, y, z'
loop_
 _atom_site_type_symbol
 _atom_site_label
 _atom_site_symmetry_multiplicity
 _atom_site_fract_x
 _atom_site_fract_y
 _atom_site_fract_z
 _atom_site_occupancy
  Li  Li0  1  0.00000000  0.00000000  0.00000100  1
  Li  Li1  1  0.50000100  0.50000200  0.99999900  1
  V  V0  1  0.99999900  0.49999900  0.50000500  1
  V  V1  1  0.24732000  0.98342500  0.73088200  1
  V  V2  1  0.25268200  0.48342400  0.26910900  1
  V  V3  1  0.49999600  0.99999800  0.49999800  1
  V  V4  1  0.74732100  0.51657500  0.73088500  1
  V  V5  1  0.75268200  0.01657600  0.26912500  1
  O  O0  1  0.17173100  0.68554900  0.51798900  1
  O  O1  1  0.32827100  0.18556100  0.48201000  1
  O  O2  1  0.67172700  0.81444900  0.51798900  1
  O  O3  1  0.82827200  0.31445200  0.48201200  1
  F  F0  1  0.07600200  0.19604800  0.72169600  1
  F  F1  1  0.07522600  0.29596800  0.22557500  1
  F  F2  1  0.18138400  0.78643800  0.01934500  1
  F  F3  1  0.31861800  0.28643300  0.98065200  1
  F  F4  1  0.42477400  0.79597200  0.77441500  1
  F  F5  1  0.42400200  0.69605500  0.27830700  1
  F  F6  1  0.57600000  0.30394800  0.72168700  1
  F  F7  1  0.57522500  0.20402900  0.22558000  1
  F  F8  1  0.68138000  0.71357000  0.01935200  1
  F  F9  1  0.81861600  0.21355400  0.98065700  1
  F  F10  1  0.92477300  0.70402900  0.77441800  1
  F  F11  1  0.92400000  0.80394500  0.27831400  1
loop_
_geom_bond_atom_site_label_1
_geom_bond_atom_site_label_2
_geom_bond_distance
_geom_bond_site_symmetry_2
O0 V1 1.944654 1_555
O0 V2 1.963474 1_555
O0 V0 1.994555 1_455
O1 V2 1.944639 1_555
O1 V1 1.963467 1_545
O1 V3 1.994515 1_545
O2 V4 1.944678 1_555
O2 V5 1.963434 1_565
O2 V3 1.994542 1_555
O3 V5 1.944638 1_555
O3 V4 1.963440 1_555
O3 V0 1.994499 1_555
F0 V0 1.994669 1_455
F0 V1 2.052682 1_545
F0 Li0 2.053949 1_556
F1 Li0 1.978221 1_555
F1 V2 2.049036 1_555
F1 V0 2.049743 1_455
F2 V1 2.054341 1_554
F2 V2 2.071900 1_555
F2 Li0 2.143809 1_565
F3 V2 2.054319 1_556
F3 V1 2.071897 1_545
F3 Li1 2.143813 1_555
F4 Li1 1.978269 1_555
F4 V1 2.049012 1_555
F4 V3 2.049652 1_555
F5 V3 1.994607 1_555
F5 V2 2.052712 1_555
F5 Li1 2.053955 1_554
F6 V3 1.994658 1_545
F6 V4 2.052712 1_555
F6 Li1 2.053976 1_555
F7 Li1 1.978258 1_554
F7 V5 2.049041 1_555
F7 V3 2.049702 1_545
F8 V4 2.054396 1_554
F8 V5 2.071913 1_565
F8 Li1 2.143772 1_554
F9 V5 2.054336 1_556
F9 V4 2.071942 1_555
F9 Li0 2.143792 1_656
F10 Li0 1.978264 1_666
F10 V4 2.048994 1_555
F10 V0 2.049660 1_555
F11 V0 1.994638 1_555
F11 V5 2.052699 1_565
F11 Li0 2.053990 1_665
