# generated using pymatgen
data_DyCdAu2
_symmetry_space_group_name_H-M   'P 1'
_cell_length_a   4.88997427
_cell_length_b   4.88997429
_cell_length_c   4.88997429
_cell_angle_alpha   59.99583987
_cell_angle_beta   59.99583963
_cell_angle_gamma   59.99583987
_symmetry_Int_Tables_number   1
_chemical_formula_structural   DyCdAu2
_chemical_formula_sum   'Dy1 Cd1 Au2'
_cell_volume   82.67301218
_cell_formula_units_Z   1
loop_
 _symmetry_equiv_pos_site_id
 _symmetry_equiv_pos_as_xyz
  1  'x, y, z'
loop_
 _atom_site_type_symbol
 _atom_site_label
 _atom_site_symmetry_multiplicity
 _atom_site_fract_x
 _atom_site_fract_y
 _atom_site_fract_z
 _atom_site_occupancy
  Dy  Dy0  1  0.74998858  0.74998858  0.74998859  1
  Cd  Cd0  1  0.24998934  0.24998934  0.24998934  1
  Au  Au0  1  0.50003120  0.50003120  0.50003119  1
  Au  Au1  1  -0.00000911  -0.00000911  -0.00000912  1
loop_
_geom_bond_atom_site_label_1
_geom_bond_atom_site_label_2
_geom_bond_distance
_geom_bond_site_symmetry_2
Au0 Dy0 2.994069 1_555
Au0 Cd0 2.994161 1_655
Au0 Cd0 2.994161 1_565
Au0 Cd0 2.994161 1_556
Au0 Dy0 2.994499 1_554
Au0 Dy0 2.994499 1_455
Au0 Dy0 2.994499 1_545
Au0 Cd0 2.995081 1_555
Au1 Dy0 2.994319 1_544
Au1 Dy0 2.994319 1_454
Au1 Dy0 2.994319 1_445
Au1 Cd0 2.994335 1_554
Au1 Cd0 2.994335 1_455
Au1 Cd0 2.994335 1_545
Au1 Cd0 2.994561 1_555
Au1 Dy0 2.994607 1_444
