# generated using pymatgen
data_CoOF
_symmetry_space_group_name_H-M   'P 1'
_cell_length_a   2.89137300
_cell_length_b   4.73957800
_cell_length_c   18.70189334
_cell_angle_alpha   84.56415660
_cell_angle_beta   90.00000000
_cell_angle_gamma   90.00000000
_symmetry_Int_Tables_number   1
_chemical_formula_structural   CoOF
_chemical_formula_sum   'Co8 O8 F8'
_cell_volume   255.13609267
_cell_formula_units_Z   8
loop_
 _symmetry_equiv_pos_site_id
 _symmetry_equiv_pos_as_xyz
  1  'x, y, z'
loop_
 _atom_site_type_symbol
 _atom_site_label
 _atom_site_symmetry_multiplicity
 _atom_site_fract_x
 _atom_site_fract_y
 _atom_site_fract_z
 _atom_site_occupancy
  Co  Co0  1  0.00000000  0.08890900  0.87695000  1
  Co  Co1  1  0.00000000  0.91109100  0.12305000  1
  Co  Co2  1  0.00000000  0.97844600  0.37379200  1
  Co  Co3  1  0.00000000  0.02155400  0.62620800  1
  Co  Co4  1  0.50000000  0.50000000  0.00000000  1
  Co  Co5  1  0.50000000  0.45274400  0.24541300  1
  Co  Co6  1  0.50000000  0.50000000  0.50000000  1
  Co  Co7  1  0.50000000  0.54725600  0.75458700  1
  O  O0  1  0.50000000  0.75927000  0.07798600  1
  O  O1  1  0.00000000  0.68162400  0.45189600  1
  O  O2  1  0.00000000  0.72793100  0.70481900  1
  O  O3  1  0.00000000  0.63012300  0.19766200  1
  O  O4  1  0.00000000  0.27206900  0.29518100  1
  O  O5  1  0.00000000  0.36987700  0.80233800  1
  O  O6  1  0.00000000  0.31837600  0.54810400  1
  O  O7  1  0.50000000  0.24073000  0.92201400  1
  F  F0  1  0.50000000  0.77854700  0.32561400  1
  F  F1  1  0.50000000  0.82389100  0.57743800  1
  F  F2  1  0.50000000  0.90033600  0.82953600  1
  F  F3  1  0.00000000  0.74834600  0.94833400  1
  F  F4  1  0.00000000  0.25165400  0.05166600  1
  F  F5  1  0.50000000  0.09966400  0.17046400  1
  F  F6  1  0.50000000  0.17610900  0.42256200  1
  F  F7  1  0.50000000  0.22145300  0.67438600  1
loop_
_geom_bond_atom_site_label_1
_geom_bond_atom_site_label_2
_geom_bond_distance
_geom_bond_site_symmetry_2
Co0 O5 1.835317 1_555
Co0 O7 1.852826 1_455
Co0 O7 1.852826 1_555
Co0 F2 1.955826 1_445
Co0 F2 1.955826 1_545
Co0 F3 1.994843 1_545
Co1 O3 1.835317 1_555
Co1 O0 1.852826 1_555
Co1 O0 1.852826 1_455
Co1 F5 1.955826 1_565
Co1 F5 1.955826 1_465
Co1 F4 1.994843 1_565
Co2 O4 1.926257 1_565
Co2 O1 1.929614 1_555
Co2 F0 1.990281 1_555
Co2 F0 1.990281 1_455
Co2 F6 1.990347 1_465
Co2 F6 1.990347 1_565
Co3 O2 1.926257 1_545
Co3 O6 1.929614 1_555
Co3 F7 1.990281 1_455
Co3 F7 1.990281 1_555
Co3 F1 1.990347 1_445
Co3 F1 1.990347 1_545
Co4 O0 1.994183 1_555
Co4 O7 1.994183 1_554
Co4 F3 2.047835 1_654
Co4 F4 2.047835 1_655
Co4 F4 2.047835 1_555
Co4 F3 2.047835 1_554
Co5 O3 1.857971 1_555
Co5 O3 1.857971 1_655
Co5 O4 1.881116 1_655
Co5 O4 1.881116 1_555
Co5 F0 2.252333 1_555
Co5 F5 2.282450 1_555
Co6 O1 1.869129 1_555
Co6 O1 1.869129 1_655
Co6 O6 1.869129 1_555
Co6 O6 1.869129 1_655
Co6 F6 2.207975 1_555
Co6 F1 2.207975 1_555
Co7 O5 1.857971 1_655
Co7 O5 1.857971 1_555
Co7 O2 1.881116 1_655
Co7 O2 1.881116 1_555
Co7 F7 2.252333 1_555
Co7 F2 2.282450 1_555
