# generated using pymatgen
data_Ca2SnS4
_symmetry_space_group_name_H-M   'P 1'
_cell_length_a   11.80361127
_cell_length_b   11.80361127
_cell_length_c   3.92899500
_cell_angle_alpha   90.00000000
_cell_angle_beta   90.00000000
_cell_angle_gamma   119.99999588
_symmetry_Int_Tables_number   1
_chemical_formula_structural   Ca2SnS4
_chemical_formula_sum   'Ca6 Sn3 S12'
_cell_volume   474.06939855
_cell_formula_units_Z   3
loop_
 _symmetry_equiv_pos_site_id
 _symmetry_equiv_pos_as_xyz
  1  'x, y, z'
loop_
 _atom_site_type_symbol
 _atom_site_label
 _atom_site_symmetry_multiplicity
 _atom_site_fract_x
 _atom_site_fract_y
 _atom_site_fract_z
 _atom_site_occupancy
  Ca  Ca0  1  0.00000000  0.00000000  0.00000000  1
  Ca  Ca1  1  0.33333300  0.66666700  0.50000000  1
  Ca  Ca2  1  0.66666700  0.33333300  0.50000000  1
  Ca  Ca3  1  0.00000000  0.29232300  0.50000000  1
  Ca  Ca4  1  0.70767700  0.70767700  0.50000000  1
  Ca  Ca5  1  0.29232300  0.00000000  0.50000000  1
  Sn  Sn0  1  0.00000000  0.66114400  0.00000000  1
  Sn  Sn1  1  0.33885600  0.33885600  0.00000000  1
  Sn  Sn2  1  0.66114400  0.00000000  0.00000000  1
  S  S0  1  0.00000000  0.82756400  0.50000000  1
  S  S1  1  0.17243600  0.17243600  0.50000000  1
  S  S2  1  0.82756400  0.00000000  0.50000000  1
  S  S3  1  0.00000000  0.52534500  0.50000000  1
  S  S4  1  0.47465500  0.47465500  0.50000000  1
  S  S5  1  0.52534500  0.00000000  0.50000000  1
  S  S6  1  0.75543900  0.55657100  0.00000000  1
  S  S7  1  0.44342900  0.19886800  0.00000000  1
  S  S8  1  0.80113200  0.24456100  0.00000000  1
  S  S9  1  0.24456100  0.80113200  0.00000000  1
  S  S10  1  0.55657100  0.75543900  0.00000000  1
  S  S11  1  0.19886800  0.44342900  0.00000000  1
loop_
_geom_bond_atom_site_label_1
_geom_bond_atom_site_label_2
_geom_bond_distance
_geom_bond_site_symmetry_2
Ca0 S0 2.828776 1_544
Ca0 S0 2.828776 1_545
Ca0 S2 2.828776 1_455
Ca0 S2 2.828776 1_454
Ca0 S1 2.828776 1_554
Ca0 S1 2.828776 1_555
Ca1 S9 3.023144 1_556
Ca1 S9 3.023144 1_555
Ca1 S11 3.023152 1_556
Ca1 S11 3.023152 1_555
Ca1 S10 3.023153 1_556
Ca1 S10 3.023153 1_555
Ca1 S3 3.420513 1_555
Ca1 S5 3.420514 1_565
Ca1 S4 3.420523 1_555
Ca2 S8 3.023144 1_555
Ca2 S8 3.023144 1_556
Ca2 S7 3.023152 1_555
Ca2 S7 3.023152 1_556
Ca2 S6 3.023153 1_556
Ca2 S6 3.023153 1_555
Ca2 S5 3.420513 1_555
Ca2 S3 3.420514 1_655
Ca2 S4 3.420523 1_555
Ca3 S3 2.750501 1_555
Ca3 S8 2.892028 1_455
Ca3 S8 2.892028 1_456
Ca3 S11 2.892028 1_556
Ca3 S11 2.892028 1_555
Ca3 S1 3.004243 1_555
Ca3 S2 3.004243 1_455
Ca4 S4 2.750501 1_555
Ca4 S10 2.892028 1_555
Ca4 S6 2.892028 1_556
Ca4 S6 2.892028 1_555
Ca4 S10 2.892028 1_556
Ca4 S2 3.004243 1_565
Ca4 S0 3.004243 1_655
Ca5 S5 2.750501 1_555
Ca5 S9 2.892028 1_546
Ca5 S9 2.892028 1_545
Ca5 S7 2.892028 1_555
Ca5 S7 2.892028 1_556
Ca5 S1 3.004243 1_555
Ca5 S0 3.004243 1_545
S0 Sn0 2.778120 1_555
S0 Sn0 2.778120 1_556
S1 Sn1 2.778120 1_555
S1 Sn1 2.778120 1_556
S2 Sn2 2.778120 1_556
S2 Sn2 2.778120 1_555
S3 Sn0 2.535468 1_555
S3 Sn0 2.535468 1_556
S4 Sn1 2.535468 1_556
S4 Sn1 2.535468 1_555
S5 Sn2 2.535468 1_555
S5 Sn2 2.535468 1_556
S6 Sn0 2.508680 1_655
S7 Sn1 2.508680 1_555
S8 Sn2 2.508680 1_555
S9 Sn0 2.508680 1_555
S10 Sn2 2.508680 1_565
S11 Sn1 2.508680 1_555
