# generated using pymatgen
data_Li4V5(FeO6)2
_symmetry_space_group_name_H-M   'P 1'
_cell_length_a   9.00639400
_cell_length_b   5.20542400
_cell_length_c   9.90617088
_cell_angle_alpha   79.64678434
_cell_angle_beta   90.00000000
_cell_angle_gamma   90.00000000
_symmetry_Int_Tables_number   1
_chemical_formula_structural   Li4V5(FeO6)2
_chemical_formula_sum   'Li8 V10 Fe4 O24'
_cell_volume   456.86062112
_cell_formula_units_Z   2
loop_
 _symmetry_equiv_pos_site_id
 _symmetry_equiv_pos_as_xyz
  1  'x, y, z'
loop_
 _atom_site_type_symbol
 _atom_site_label
 _atom_site_symmetry_multiplicity
 _atom_site_fract_x
 _atom_site_fract_y
 _atom_site_fract_z
 _atom_site_occupancy
  Li  Li0  1  0.91558900  0.01103000  0.74166500  1
  Li  Li1  1  0.91947600  0.48371800  0.25954500  1
  Li  Li2  1  0.58220400  0.75818300  0.50317500  1
  Li  Li3  1  0.58351300  0.49935000  0.25727100  1
  Li  Li4  1  0.41558900  0.98897000  0.25833500  1
  Li  Li5  1  0.41947600  0.51628200  0.74045500  1
  Li  Li6  1  0.08220400  0.24181700  0.49682500  1
  Li  Li7  1  0.08351300  0.50065000  0.74272900  1
  V  V0  1  0.91878600  0.25352200  0.00229600  1
  V  V1  1  0.92773500  0.74891300  0.49485300  1
  V  V2  1  0.74879100  0.98809400  0.25523900  1
  V  V3  1  0.57336000  0.24547600  0.99772600  1
  V  V4  1  0.74379600  0.51360800  0.74242200  1
  V  V5  1  0.42773500  0.25108700  0.50514700  1
  V  V6  1  0.41878600  0.74647800  0.99770400  1
  V  V7  1  0.24879100  0.01190600  0.74476100  1
  V  V8  1  0.24379600  0.48639200  0.25757800  1
  V  V9  1  0.07336000  0.75452400  0.00227400  1
  Fe  Fe0  1  0.75332200  0.23809700  0.50565900  1
  Fe  Fe1  1  0.74387600  0.75738800  0.99121800  1
  Fe  Fe2  1  0.24387600  0.24261200  0.00878200  1
  Fe  Fe3  1  0.25332200  0.76190300  0.49434100  1
  O  O0  1  0.90256100  0.11242800  0.38434300  1
  O  O1  1  0.90746200  0.88290400  0.11750800  1
  O  O2  1  0.75155500  0.15356500  0.88218400  1
  O  O3  1  0.77048300  0.86232300  0.61969900  1
  O  O4  1  0.90634900  0.38724100  0.62058800  1
  O  O5  1  0.91491800  0.61587800  0.87476700  1
  O  O6  1  0.76225500  0.63580900  0.37155700  1
  O  O7  1  0.59818300  0.12881900  0.37950500  1
  O  O8  1  0.57567300  0.88209500  0.12081900  1
  O  O9  1  0.74591500  0.35160200  0.11896100  1
  O  O10  1  0.40256100  0.88757200  0.61565700  1
  O  O11  1  0.40746200  0.11709600  0.88249200  1
  O  O12  1  0.57483800  0.60034000  0.87972800  1
  O  O13  1  0.59506200  0.38800700  0.61363900  1
  O  O14  1  0.27048300  0.13767700  0.38030100  1
  O  O15  1  0.40634900  0.61275900  0.37941200  1
  O  O16  1  0.41491800  0.38412200  0.12523300  1
  O  O17  1  0.25155500  0.84643500  0.11781600  1
  O  O18  1  0.24591500  0.64839800  0.88103900  1
  O  O19  1  0.07567300  0.11790500  0.87918100  1
  O  O20  1  0.09818300  0.87118100  0.62049500  1
  O  O21  1  0.26225500  0.36419100  0.62844300  1
  O  O22  1  0.09506200  0.61199300  0.38636100  1
  O  O23  1  0.07483800  0.39966000  0.12027200  1
loop_
_geom_bond_atom_site_label_1
_geom_bond_atom_site_label_2
_geom_bond_distance
_geom_bond_site_symmetry_2
Li0 O3 2.025609 1_545
Li0 O4 2.106263 1_555
Li0 O19 2.125177 1_655
Li0 O20 2.233660 1_645
Li0 O5 2.234885 1_545
Li0 O2 2.245435 1_555
Li1 O6 2.044214 1_555
Li1 O23 2.066352 1_655
Li1 O0 2.104322 1_555
Li1 O22 2.196900 1_655
Li1 O9 2.280382 1_555
Li1 O1 2.293119 1_555
Li2 O13 2.041075 1_555
Li2 O7 2.096255 1_565
Li2 O10 2.140721 1_555
Li2 O3 2.174086 1_555
Li2 O15 2.217707 1_555
Li2 O6 2.243635 1_555
Li3 O7 2.089108 1_555
Li3 O15 2.148298 1_555
Li3 O16 2.158296 1_555
Li3 O6 2.160294 1_555
Li3 O8 2.198545 1_555
Li3 O9 2.233126 1_555
Li4 O14 2.025609 1_565
Li4 O15 2.106263 1_555
Li4 O8 2.125177 1_555
Li4 O7 2.233660 1_565
Li4 O16 2.234885 1_565
Li4 O17 2.245435 1_555
Li5 O21 2.044214 1_555
Li5 O12 2.066352 1_555
Li5 O10 2.104322 1_555
Li5 O13 2.196900 1_555
Li5 O18 2.280382 1_555
Li5 O11 2.293119 1_555
Li6 O22 2.041075 1_555
Li6 O20 2.096255 1_545
Li6 O0 2.140721 1_455
Li6 O14 2.174086 1_555
Li6 O4 2.217707 1_455
Li6 O21 2.243635 1_555
Li7 O20 2.089108 1_555
Li7 O4 2.148298 1_455
Li7 O5 2.158296 1_455
Li7 O21 2.160294 1_555
Li7 O19 2.198545 1_555
Li7 O18 2.233126 1_555
Fe0 O0 1.990322 1_555
Fe0 O13 2.021083 1_555
Fe0 O7 2.023150 1_555
Fe0 O4 2.028822 1_555
Fe0 O3 2.081354 1_545
Fe0 O6 2.251373 1_555
Fe1 O1 2.111038 1_556
Fe1 O12 2.128471 1_555
Fe1 O5 2.133505 1_555
Fe1 O2 2.150290 1_565
Fe1 O8 2.159665 1_556
Fe1 O9 2.258914 1_556
Fe2 O11 2.111038 1_554
Fe2 O23 2.128471 1_555
Fe2 O16 2.133505 1_555
Fe2 O17 2.150290 1_545
Fe2 O19 2.159665 1_554
Fe2 O18 2.258914 1_554
Fe3 O10 1.990322 1_555
Fe3 O22 2.021083 1_555
Fe3 O20 2.023150 1_555
Fe3 O15 2.028822 1_555
Fe3 O14 2.081354 1_565
Fe3 O21 2.251373 1_555
O0 V1 2.021357 1_545
O0 V2 2.066406 1_545
O1 V0 2.059971 1_565
O1 V9 2.063087 1_655
O1 V2 2.114732 1_555
O2 V0 2.043889 1_556
O2 V3 2.076409 1_555
O2 V4 2.121702 1_555
O3 V4 2.009361 1_555
O3 V1 2.036248 1_555
O4 V1 2.071242 1_555
O4 V4 2.077984 1_555
O5 V0 2.073288 1_556
O5 V9 2.116664 1_656
O5 V4 2.151359 1_555
O6 V2 1.986387 1_555
O6 V1 2.078009 1_555
O7 V2 2.053290 1_545
O7 V5 2.143714 1_555
O8 V3 2.058216 1_564
O8 V6 2.071658 1_554
O8 V2 2.184644 1_555
O9 V0 2.057296 1_555
O9 V3 2.097906 1_554
O9 V2 2.117891 1_545
O10 V5 2.021357 1_565
O10 V7 2.066406 1_565
O11 V6 2.059971 1_545
O11 V3 2.063087 1_555
O11 V7 2.114732 1_555
O12 V3 2.000660 1_555
O12 V6 2.058980 1_555
O12 V4 2.142478 1_555
O13 V4 2.036959 1_555
O13 V5 2.051696 1_555
O14 V8 2.009361 1_555
O14 V5 2.036248 1_555
O15 V5 2.071242 1_555
O15 V8 2.077984 1_555
O16 V6 2.073288 1_554
O16 V3 2.116664 1_554
O16 V8 2.151359 1_555
O17 V6 2.043889 1_554
O17 V9 2.076409 1_555
O17 V8 2.121702 1_555
O18 V6 2.057296 1_555
O18 V9 2.097906 1_556
O18 V7 2.117891 1_565
O19 V9 2.058216 1_546
O19 V0 2.071658 1_456
O19 V7 2.184644 1_555
O20 V7 2.053290 1_565
O20 V1 2.143714 1_455
O21 V7 1.986387 1_555
O21 V5 2.078009 1_555
O22 V8 2.036959 1_555
O22 V1 2.051696 1_455
O23 V9 2.000660 1_555
O23 V0 2.058980 1_455
O23 V8 2.142478 1_555
