# generated using pymatgen
data_Li2V2(PO4)3
_symmetry_space_group_name_H-M   'P 1'
_cell_length_a   8.68955800
_cell_length_b   8.57019700
_cell_length_c   14.92535575
_cell_angle_alpha   55.00753228
_cell_angle_beta   90.00000000
_cell_angle_gamma   90.00000000
_symmetry_Int_Tables_number   1
_chemical_formula_structural   Li2V2(PO4)3
_chemical_formula_sum   'Li8 V8 P12 O48'
_cell_volume   910.57909165
_cell_formula_units_Z   4
loop_
 _symmetry_equiv_pos_site_id
 _symmetry_equiv_pos_as_xyz
  1  'x, y, z'
loop_
 _atom_site_type_symbol
 _atom_site_label
 _atom_site_symmetry_multiplicity
 _atom_site_fract_x
 _atom_site_fract_y
 _atom_site_fract_z
 _atom_site_occupancy
  Li  Li0  1  0.92131600  0.38259000  0.69754000  1
  Li  Li1  1  0.22270100  0.02755500  0.18135900  1
  Li  Li2  1  0.72270100  0.97244500  0.31864100  1
  Li  Li3  1  0.42131600  0.61741000  0.80246000  1
  Li  Li4  1  0.57868400  0.38259000  0.19754000  1
  Li  Li5  1  0.27729900  0.02755500  0.68135900  1
  Li  Li6  1  0.77729900  0.97244500  0.81864100  1
  Li  Li7  1  0.07868400  0.61741000  0.30246000  1
  V  V0  1  0.96774600  0.36703100  0.88734000  1
  V  V1  1  0.46774600  0.63296900  0.61266000  1
  V  V2  1  0.03877300  0.86725000  0.38745400  1
  V  V3  1  0.53877300  0.13275000  0.11254600  1
  V  V4  1  0.46122700  0.86725000  0.88745400  1
  V  V5  1  0.96122700  0.13275000  0.61254600  1
  V  V6  1  0.53225400  0.36703100  0.38734000  1
  V  V7  1  0.03225400  0.63296900  0.11266000  1
  P  P0  1  0.74856900  0.54044000  0.49470100  1
  P  P1  1  0.61625700  0.25627300  0.85049700  1
  P  P2  1  0.89644200  0.95965300  0.14415800  1
  P  P3  1  0.11625700  0.74372700  0.64950300  1
  P  P4  1  0.39644200  0.04034700  0.35584200  1
  P  P5  1  0.24856900  0.45956000  0.00529900  1
  P  P6  1  0.75143100  0.54044000  0.99470100  1
  P  P7  1  0.60355800  0.95965300  0.64415800  1
  P  P8  1  0.88374300  0.25627300  0.35049700  1
  P  P9  1  0.10355800  0.04034700  0.85584200  1
  P  P10  1  0.38374300  0.74372700  0.14950300  1
  P  P11  1  0.25143100  0.45956000  0.50529900  1
  O  O0  1  0.13282600  0.61743500  0.43104900  1
  O  O1  1  0.10284900  0.21200500  0.86556700  1
  O  O2  1  0.32585500  0.49323400  0.58761200  1
  O  O3  1  0.40761400  0.90035700  0.17009500  1
  O  O4  1  0.63168300  0.53268000  0.57444800  1
  O  O5  1  0.58101400  0.18342700  0.96802000  1
  O  O6  1  0.79047600  0.31183500  0.82355200  1
  O  O7  1  0.01898400  0.90924600  0.23375100  1
  O  O8  1  0.73783200  0.98241000  0.18112200  1
  O  O9  1  0.82553200  0.73669900  0.42735900  1
  O  O10  1  0.94596000  0.14346500  0.03651200  1
  O  O11  1  0.51046400  0.43084800  0.77286000  1
  O  O12  1  0.01046400  0.56915200  0.72714000  1
  O  O13  1  0.44596000  0.85653500  0.46348800  1
  O  O14  1  0.32553200  0.26330100  0.07264100  1
  O  O15  1  0.23783200  0.01759000  0.31887800  1
  O  O16  1  0.29047600  0.68816500  0.67644800  1
  O  O17  1  0.08101400  0.81657300  0.53198000  1
  O  O18  1  0.51898400  0.09075400  0.26624900  1
  O  O19  1  0.13168300  0.46732000  0.92555200  1
  O  O20  1  0.82585500  0.50676600  0.91238800  1
  O  O21  1  0.60284900  0.78799500  0.63443300  1
  O  O22  1  0.90761400  0.09964300  0.32990500  1
  O  O23  1  0.63282600  0.38256500  0.06895100  1
  O  O24  1  0.36717400  0.61743500  0.93104900  1
  O  O25  1  0.09238600  0.90035700  0.67009500  1
  O  O26  1  0.39715100  0.21200500  0.36556700  1
  O  O27  1  0.17414500  0.49323400  0.08761200  1
  O  O28  1  0.86831700  0.53268000  0.07444800  1
  O  O29  1  0.48101600  0.90924600  0.73375100  1
  O  O30  1  0.91898600  0.18342700  0.46802000  1
  O  O31  1  0.70952400  0.31183500  0.32355200  1
  O  O32  1  0.76216800  0.98241000  0.68112200  1
  O  O33  1  0.67446800  0.73669900  0.92735900  1
  O  O34  1  0.55404000  0.14346500  0.53651200  1
  O  O35  1  0.98953600  0.43084800  0.27286000  1
  O  O36  1  0.48953600  0.56915200  0.22714000  1
  O  O37  1  0.05404000  0.85653500  0.96348800  1
  O  O38  1  0.17446800  0.26330100  0.57264100  1
  O  O39  1  0.26216800  0.01759000  0.81887800  1
  O  O40  1  0.98101600  0.09075400  0.76624900  1
  O  O41  1  0.20952400  0.68816500  0.17644800  1
  O  O42  1  0.41898600  0.81657300  0.03198000  1
  O  O43  1  0.36831700  0.46732000  0.42555200  1
  O  O44  1  0.59238600  0.09964300  0.82990500  1
  O  O45  1  0.67414500  0.50676600  0.41238800  1
  O  O46  1  0.89715100  0.78799500  0.13443300  1
  O  O47  1  0.86717400  0.38256500  0.56895100  1
loop_
_geom_bond_atom_site_label_1
_geom_bond_atom_site_label_2
_geom_bond_distance
_geom_bond_site_symmetry_2
Li0 O6 1.972207 1_555
Li0 O47 1.976179 1_555
Li0 O12 2.040055 1_655
Li0 O40 2.152784 1_555
Li1 O14 1.937346 1_555
Li1 O7 1.965659 1_545
Li1 O3 2.002162 1_545
Li1 O15 2.009073 1_555
Li2 O9 1.937346 1_555
Li2 O18 1.965659 1_565
Li2 O22 2.002162 1_565
Li2 O8 2.009073 1_555
Li3 O16 1.972207 1_555
Li3 O24 1.976179 1_555
Li3 O11 2.040055 1_555
Li3 O29 2.152784 1_555
Li4 O31 1.972207 1_555
Li4 O23 1.976179 1_555
Li4 O36 2.040055 1_555
Li4 O18 2.152784 1_555
Li5 O38 1.937346 1_555
Li5 O29 1.965659 1_545
Li5 O25 2.002162 1_545
Li5 O39 2.009073 1_555
Li6 O33 1.937346 1_555
Li6 O40 1.965659 1_565
Li6 O44 2.002162 1_565
Li6 O32 2.009073 1_555
Li7 O41 1.972207 1_555
Li7 O0 1.976179 1_555
Li7 O35 2.040055 1_455
Li7 O7 2.152784 1_555
O0 P11 1.549589 1_555
O0 V2 2.019229 1_555
O1 P9 1.558935 1_555
O1 V0 1.935002 1_455
O2 P11 1.554833 1_555
O2 V1 1.899372 1_555
O3 P10 1.553246 1_555
O3 V3 2.010306 1_565
O4 P0 1.536866 1_555
O4 V1 1.911948 1_555
O5 P1 1.518002 1_555
O5 V3 1.975331 1_556
O6 P1 1.568659 1_555
O6 V0 2.004881 1_555
O7 P2 1.563991 1_455
O7 V2 2.115392 1_555
O8 P2 1.537984 1_555
O8 V3 2.046251 1_565
O9 P0 1.532180 1_555
O9 V2 2.067790 1_655
O10 P2 1.531407 1_545
O10 V0 1.941977 1_554
O11 P1 1.561364 1_555
O11 V1 2.026094 1_555
O12 P3 1.561364 1_555
O12 V0 2.026094 1_455
O13 P4 1.531407 1_565
O13 V1 1.941977 1_555
O14 P5 1.532180 1_555
O14 V3 2.067790 1_555
O15 P4 1.537984 1_555
O15 V2 2.046251 1_545
O16 P3 1.568659 1_555
O16 V1 2.004881 1_555
O17 P3 1.518002 1_555
O17 V2 1.975331 1_555
O18 P4 1.563991 1_555
O18 V3 2.115392 1_555
O19 P5 1.536866 1_556
O19 V0 1.911948 1_455
O20 P6 1.554833 1_555
O20 V0 1.899372 1_555
O21 P7 1.558935 1_555
O21 V1 1.935002 1_555
O22 P8 1.553246 1_555
O22 V2 2.010306 1_645
O23 P6 1.549589 1_554
O23 V3 2.019229 1_555
O24 P5 1.549589 1_556
O24 V4 2.019229 1_555
O25 P3 1.553246 1_555
O25 V5 2.010306 1_465
O26 P4 1.558935 1_555
O26 V6 1.935002 1_555
O27 P5 1.554833 1_555
O27 V7 1.899372 1_555
O28 P6 1.536866 1_554
O28 V7 1.911948 1_655
O29 P7 1.563991 1_555
O29 V4 2.115392 1_555
O30 P8 1.518002 1_555
O30 V5 1.975331 1_555
O31 P8 1.568659 1_555
O31 V6 2.004881 1_555
O32 P7 1.537984 1_555
O32 V5 2.046251 1_565
O33 P6 1.532180 1_555
O33 V4 2.067790 1_555
O34 P7 1.531407 1_545
O34 V6 1.941977 1_555
O35 P8 1.561364 1_555
O35 V7 2.026094 1_655
O36 P10 1.561364 1_555
O36 V6 2.026094 1_555
O37 P9 1.531407 1_565
O37 V7 1.941977 1_556
O38 P11 1.532180 1_555
O38 V5 2.067790 1_455
O39 P9 1.537984 1_555
O39 V4 2.046251 1_545
O40 P9 1.563991 1_655
O40 V5 2.115392 1_555
O41 P10 1.568659 1_555
O41 V7 2.004881 1_555
O42 P10 1.518002 1_555
O42 V4 1.975331 1_554
O43 P11 1.536866 1_555
O43 V6 1.911948 1_555
O44 P1 1.553246 1_555
O44 V4 2.010306 1_545
O45 P0 1.554833 1_555
O45 V6 1.899372 1_555
O46 P2 1.558935 1_555
O46 V7 1.935002 1_655
O47 P0 1.549589 1_555
O47 V5 2.019229 1_555
