# generated using pymatgen
data_Li3V3P8O29
_symmetry_space_group_name_H-M   'P 1'
_cell_length_a   9.75491200
_cell_length_b   9.76363028
_cell_length_c   14.32613063
_cell_angle_alpha   89.75248170
_cell_angle_beta   90.78780461
_cell_angle_gamma   119.91932831
_symmetry_Int_Tables_number   1
_chemical_formula_structural   Li3V3P8O29
_chemical_formula_sum   'Li6 V6 P16 O58'
_cell_volume   1182.50713048
_cell_formula_units_Z   2
loop_
 _symmetry_equiv_pos_site_id
 _symmetry_equiv_pos_as_xyz
  1  'x, y, z'
loop_
 _atom_site_type_symbol
 _atom_site_label
 _atom_site_symmetry_multiplicity
 _atom_site_fract_x
 _atom_site_fract_y
 _atom_site_fract_z
 _atom_site_occupancy
  Li  Li0  1  0.77514600  0.08975500  0.05425600  1
  Li  Li1  1  0.29600600  0.21637500  0.05322500  1
  Li  Li2  1  0.32364400  0.08959400  0.56219400  1
  Li  Li3  1  0.69197800  0.77450100  0.93690700  1
  Li  Li4  1  0.22640600  0.32406800  0.45032700  1
  Li  Li5  1  0.91937500  0.92954400  0.51048400  1
  V  V0  1  0.56500700  0.99772200  0.25820300  1
  V  V1  1  0.43286400  0.99645100  0.75099500  1
  V  V2  1  0.57344900  0.56407800  0.74522500  1
  V  V3  1  0.43743500  0.43901600  0.24965500  1
  V  V4  1  0.00291800  0.56758900  0.24848200  1
  V  V5  1  0.99742600  0.43751700  0.74816300  1
  P  P0  1  0.92014000  0.69190200  0.84373000  1
  P  P1  1  0.78131400  0.69327200  0.33572200  1
  P  P2  1  0.92196400  0.22752600  0.34040400  1
  P  P3  1  0.66404700  0.32856400  0.13458100  1
  P  P4  1  0.66256400  0.32814000  0.62972300  1
  P  P5  1  0.77469300  0.09297400  0.83930000  1
  P  P6  1  0.69228600  0.91625400  0.66007600  1
  P  P7  1  0.32163400  0.23004700  0.83993700  1
  P  P8  1  0.68009200  0.77359700  0.15639300  1
  P  P9  1  0.31592400  0.09072800  0.34455900  1
  P  P10  1  0.22708000  0.91342700  0.16452300  1
  P  P11  1  0.33217300  0.66324000  0.36767500  1
  P  P12  1  0.33856500  0.66400400  0.86692300  1
  P  P13  1  0.07993300  0.77928100  0.65836700  1
  P  P14  1  0.22525300  0.31699600  0.66260300  1
  P  P15  1  0.08507500  0.31347200  0.15717400  1
  O  O0  1  0.00251800  0.80376600  0.57564400  1
  O  O1  1  0.91615900  0.65408400  0.32942300  1
  O  O2  1  0.74038000  0.76223400  0.06451800  1
  O  O3  1  0.74615400  0.66180300  0.83504100  1
  O  O4  1  0.91102100  0.52994800  0.82091100  1
  O  O5  1  0.81449500  0.47296000  0.17921000  1
  O  O6  1  0.92461000  0.38643300  0.32847100  1
  O  O7  1  0.99496000  0.22834100  0.07238600  1
  O  O8  1  0.91779800  0.26132200  0.83287500  1
  O  O9  1  0.66802700  0.48129800  0.67506700  1
  O  O10  1  0.61895300  0.53524200  0.32382900  1
  O  O11  1  0.80956800  0.32855600  0.67589000  1
  O  O12  1  0.65642400  0.32536600  0.03125700  1
  O  O13  1  0.65791200  0.33351200  0.52649700  1
  O  O14  1  0.66111600  0.17833300  0.17625900  1
  O  O15  1  0.48123700  0.38102100  0.81920400  1
  O  O16  1  0.51788000  0.33628300  0.17776700  1
  O  O17  1  0.74675600  0.09001400  0.33277100  1
  O  O18  1  0.79306000  0.99589800  0.75539700  1
  O  O19  1  0.79085800  0.99080500  0.57772300  1
  O  O20  1  0.76169000  0.00749200  0.92876400  1
  O  O21  1  0.62117600  0.10032700  0.81921400  1
  O  O22  1  0.50860600  0.18313900  0.66894800  1
  O  O23  1  0.66029100  0.92136900  0.16570300  1
  O  O24  1  0.47544300  0.09314500  0.32777100  1
  O  O25  1  0.34174800  0.26137500  0.33414500  1
  O  O26  1  0.79783100  0.78971900  0.24022300  1
  O  O27  1  0.78986800  0.78667500  0.41783300  1
  O  O28  1  0.22865300  0.23352200  0.57541700  1
  O  O29  1  0.65158100  0.74053600  0.67100200  1
  O  O30  1  0.53808700  0.92325400  0.66912000  1
  O  O31  1  0.34473600  0.08417500  0.82850600  1
  O  O32  1  0.48479000  0.81257600  0.32705200  1
  O  O33  1  0.38095800  0.90600900  0.18406400  1
  O  O34  1  0.23484100  0.00683000  0.08186200  1
  O  O35  1  0.24499600  0.02371600  0.43622400  1
  O  O36  1  0.20289200  0.99282700  0.25888800  1
  O  O37  1  0.25829400  0.91400500  0.66362200  1
  O  O38  1  0.48765200  0.66215700  0.83001800  1
  O  O39  1  0.51945900  0.62164100  0.18042700  1
  O  O40  1  0.34826900  0.81790200  0.81818700  1
  O  O41  1  0.33798300  0.67373200  0.96983600  1
  O  O42  1  0.33020800  0.65298800  0.47078100  1
  O  O43  1  0.18996900  0.67041300  0.32129000  1
  O  O44  1  0.38293200  0.47525800  0.67611700  1
  O  O45  1  0.32704500  0.51047600  0.32472500  1
  O  O46  1  0.08478700  0.74238000  0.16736500  1
  O  O47  1  0.00458600  0.79955600  0.75302800  1
  O  O48  1  0.99958300  0.76880300  0.93153700  1
  O  O49  1  0.07398600  0.61728700  0.66892600  1
  O  O50  1  0.18703100  0.52662600  0.81857800  1
  O  O51  1  0.09236500  0.47383100  0.17540900  1
  O  O52  1  0.25692600  0.33980500  0.16026300  1
  O  O53  1  0.25128500  0.23577700  0.92916500  1
  O  O54  1  0.20563600  0.21002100  0.75259500  1
  O  O55  1  0.08460600  0.34661100  0.66570200  1
  O  O56  1  0.00574700  0.21275100  0.42365000  1
  O  O57  1  0.00277600  0.20631300  0.24799600  1
loop_
_geom_bond_atom_site_label_1
_geom_bond_atom_site_label_2
_geom_bond_distance
_geom_bond_site_symmetry_2
Li0 O7 1.894627 1_555
Li0 O20 1.948151 1_554
Li0 O23 2.167112 1_545
Li0 O14 2.463002 1_555
Li1 O53 1.855587 1_554
Li1 O34 1.868647 1_555
Li1 O52 2.106997 1_555
Li1 O16 2.573444 1_555
Li2 O35 1.933601 1_555
Li2 O28 2.043376 1_555
Li2 O37 2.090608 1_545
Li2 O22 2.172764 1_555
Li3 O2 1.900072 1_556
Li3 O20 2.026731 1_565
Li3 O3 2.057889 1_555
Li3 O38 2.295747 1_555
Li4 O56 1.899426 1_555
Li4 O28 1.999516 1_555
Li4 O25 2.271198 1_555
Li4 O45 2.398321 1_555
Li5 O27 1.874980 1_555
Li5 O19 1.908813 1_555
Li5 O0 2.000044 1_655
O0 P13 1.478155 1_555
O1 P1 1.546108 1_555
O1 V4 1.876831 1_655
O2 P8 1.475882 1_555
O3 P0 1.574598 1_555
O3 V2 1.936948 1_555
O4 P0 1.574329 1_555
O4 V5 1.844488 1_555
O5 P3 1.571060 1_555
O5 V4 1.865638 1_655
O6 P2 1.547564 1_555
O6 V4 1.919340 1_655
O7 P15 1.479716 1_655
O8 P5 1.540197 1_555
O8 V5 1.926264 1_555
O9 P4 1.609014 1_555
O9 V2 1.814116 1_555
O10 P1 1.573295 1_555
O10 V3 1.855954 1_555
O11 P4 1.569069 1_555
O11 V5 1.890652 1_555
O12 P3 1.480760 1_555
O13 P4 1.480407 1_555
O14 P3 1.568406 1_555
O14 V0 1.931295 1_545
O15 P7 1.550676 1_555
O15 V2 1.879597 1_555
O16 P3 1.597921 1_555
O16 V3 1.870538 1_555
O17 P2 1.562927 1_555
O17 V0 1.859852 1_545
O18 P5 1.600137 1_565
O18 P6 1.626519 1_555
O19 P6 1.473745 1_555
O20 P5 1.498325 1_555
O21 P5 1.557504 1_555
O21 V1 1.859807 1_545
O22 P4 1.571921 1_555
O22 V1 1.977838 1_545
O23 P8 1.554709 1_555
O23 V0 1.977218 1_555
O24 P9 1.566346 1_555
O24 V0 1.862423 1_545
O25 P9 1.562662 1_555
O25 V3 1.934562 1_555
O26 P8 1.602986 1_555
O26 P1 1.621132 1_555
O27 P1 1.467323 1_555
O28 P14 1.504106 1_555
O29 P6 1.563784 1_555
O29 V2 1.837497 1_555
O30 P6 1.546628 1_555
O30 V1 1.926726 1_555
O31 P7 1.558613 1_555
O31 V1 1.864056 1_545
O32 P11 1.591268 1_555
O32 V0 1.856794 1_555
O33 P10 1.559980 1_555
O33 V0 1.872262 1_555
O34 P10 1.471057 1_545
O35 P9 1.482323 1_555
O36 P9 1.599167 1_565
O36 P10 1.638460 1_555
O37 P13 1.573962 1_555
O37 V1 1.922844 1_555
O38 P12 1.562793 1_555
O38 V2 1.982581 1_555
O39 P8 1.570477 1_555
O39 V3 1.840251 1_555
O40 P12 1.614038 1_555
O40 V1 1.794129 1_555
O41 P12 1.478082 1_555
O42 P11 1.479807 1_555
O43 P11 1.562671 1_555
O43 V4 1.885363 1_555
O44 P14 1.553862 1_555
O44 V2 1.880227 1_555
O45 P11 1.593243 1_555
O45 V3 1.894949 1_555
O46 P10 1.551097 1_555
O46 V4 1.884014 1_555
O47 P13 1.610394 1_555
O47 P0 1.620414 1_455
O48 P0 1.465476 1_555
O49 P13 1.560290 1_555
O49 V5 1.904088 1_455
O50 P12 1.570307 1_555
O50 V5 1.883225 1_455
O51 P15 1.554551 1_555
O51 V4 1.877612 1_555
O52 P15 1.564113 1_555
O52 V3 1.981449 1_555
O53 P7 1.473478 1_555
O54 P14 1.607925 1_555
O54 P7 1.620738 1_555
O55 P14 1.538016 1_555
O55 V5 1.922568 1_455
O56 P2 1.483369 1_455
O57 P2 1.615813 1_455
O57 P15 1.615911 1_555
