# generated using pymatgen
data_GdMgZn2
_symmetry_space_group_name_H-M   'P 1'
_cell_length_a   4.83298192
_cell_length_b   4.83371330
_cell_length_c   4.83379029
_cell_angle_alpha   59.98638064
_cell_angle_beta   60.00194195
_cell_angle_gamma   60.00382380
_symmetry_Int_Tables_number   1
_chemical_formula_structural   GdMgZn2
_chemical_formula_sum   'Gd1 Mg1 Zn2'
_cell_volume   79.84414290
_cell_formula_units_Z   1
loop_
 _symmetry_equiv_pos_site_id
 _symmetry_equiv_pos_as_xyz
  1  'x, y, z'
loop_
 _atom_site_type_symbol
 _atom_site_label
 _atom_site_symmetry_multiplicity
 _atom_site_fract_x
 _atom_site_fract_y
 _atom_site_fract_z
 _atom_site_occupancy
  Gd  Gd0  1  0.25000100  0.25000100  0.25000000  1
  Mg  Mg0  1  0.75000000  0.75000000  0.75000100  1
  Zn  Zn0  1  0.00000673  0.00000773  0.00001169  1
  Zn  Zn1  1  0.49999427  0.49999327  0.49998931  1
loop_
_geom_bond_atom_site_label_1
_geom_bond_atom_site_label_2
_geom_bond_distance
_geom_bond_site_symmetry_2
Gd0 Zn0 2.959826 1_565
Gd0 Zn1 2.959830 1_545
Gd0 Zn1 2.959832 1_554
Gd0 Zn0 2.959836 1_556
Gd0 Zn0 2.959838 1_655
Gd0 Zn1 2.959842 1_455
Gd0 Zn1 2.959859 1_555
Gd0 Zn0 2.959862 1_555
Mg0 Zn1 2.959744 1_556
Mg0 Zn0 2.959748 1_665
Mg0 Zn0 2.959769 1_656
Mg0 Zn1 2.959773 1_565
Mg0 Zn0 2.959789 1_566
Mg0 Zn1 2.959793 1_655
Mg0 Zn1 2.960053 1_555
Mg0 Zn0 2.960057 1_666
