# generated using pymatgen
data_LiNiPO4
_symmetry_space_group_name_H-M   'P 1'
_cell_length_a   4.92084900
_cell_length_b   11.33804106
_cell_length_c   5.98041604
_cell_angle_alpha   90.01226115
_cell_angle_beta   90.00336510
_cell_angle_gamma   89.99966858
_symmetry_Int_Tables_number   1
_chemical_formula_structural   LiNiPO4
_chemical_formula_sum   'Li4 Ni4 P4 O16'
_cell_volume   333.66407627
_cell_formula_units_Z   4
loop_
 _symmetry_equiv_pos_site_id
 _symmetry_equiv_pos_as_xyz
  1  'x, y, z'
loop_
 _atom_site_type_symbol
 _atom_site_label
 _atom_site_symmetry_multiplicity
 _atom_site_fract_x
 _atom_site_fract_y
 _atom_site_fract_z
 _atom_site_occupancy
  Li  Li0  1  0.98833200  0.06190700  0.21483000  1
  Li  Li1  1  0.48841200  0.43810900  0.71471100  1
  Li  Li2  1  0.98840500  0.56183900  0.28530900  1
  Li  Li3  1  0.48830500  0.93817200  0.78519900  1
  Ni  Ni0  1  0.48515700  0.66815000  0.04738300  1
  Ni  Ni1  1  0.98509000  0.83188300  0.54734800  1
  Ni  Ni2  1  0.48520600  0.16811000  0.45268900  1
  Ni  Ni3  1  0.98521200  0.33186200  0.95263700  1
  P  P0  1  0.99802400  0.08980100  0.72916300  1
  P  P1  1  0.49813500  0.41020500  0.22903200  1
  P  P2  1  0.99814200  0.58978500  0.77091900  1
  P  P3  1  0.49807100  0.91023000  0.27086700  1
  O  O0  1  0.39184900  0.03853700  0.24027800  1
  O  O1  1  0.89185900  0.46148700  0.74025000  1
  O  O2  1  0.39181300  0.53848900  0.25976000  1
  O  O3  1  0.89186100  0.96147600  0.75970200  1
  O  O4  1  0.31237300  0.08902700  0.70855400  1
  O  O5  1  0.81243700  0.41100100  0.20850800  1
  O  O6  1  0.31244800  0.58897300  0.79144700  1
  O  O7  1  0.81237400  0.91099600  0.29141500  1
  O  O8  1  0.91454700  0.16008200  0.94264500  1
  O  O9  1  0.41505000  0.33978500  0.44227600  1
  O  O10  1  0.91506000  0.66020500  0.55764300  1
  O  O11  1  0.41472000  0.83985600  0.05748800  1
  O  O12  1  0.88018600  0.14684400  0.51230700  1
  O  O13  1  0.38015100  0.35314700  0.01222400  1
  O  O14  1  0.88017700  0.64681400  0.98772800  1
  O  O15  1  0.38016100  0.85322400  0.48768900  1
loop_
_geom_bond_atom_site_label_1
_geom_bond_atom_site_label_2
_geom_bond_distance
_geom_bond_site_symmetry_2
Li0 O7 1.971683 1_545
Li0 O8 2.005297 1_554
Li0 O0 2.009014 1_655
Li0 O12 2.091639 1_555
Li1 O6 1.971264 1_555
Li1 O9 2.006689 1_555
Li1 O1 2.008721 1_555
Li1 O13 2.092450 1_556
Li2 O5 1.971092 1_555
Li2 O10 2.006480 1_555
Li2 O2 2.008509 1_655
Li2 O14 2.092766 1_554
Li3 O4 1.971126 1_565
Li3 O11 2.006549 1_556
Li3 O3 2.009148 1_555
Li3 O15 2.091811 1_555
Ni0 O6 1.967280 1_554
Ni0 O11 1.978333 1_555
Ni0 O14 1.991062 1_554
Ni0 O2 1.996552 1_555
Ni1 O7 1.967244 1_555
Ni1 O10 1.977736 1_555
Ni1 O15 1.991339 1_655
Ni1 O3 1.995363 1_555
Ni2 O4 1.967104 1_555
Ni2 O9 1.977827 1_555
Ni2 O12 1.990711 1_555
Ni2 O0 1.995527 1_555
Ni3 O5 1.966995 1_556
Ni3 O8 1.979338 1_555
Ni3 O13 1.990492 1_656
Ni3 O1 1.996262 1_555
O0 P3 1.556623 1_545
O1 P2 1.556617 1_555
O2 P1 1.556576 1_555
O3 P0 1.556694 1_565
O4 P0 1.551798 1_455
O5 P1 1.551529 1_555
O6 P2 1.551537 1_455
O7 P3 1.551529 1_555
O8 P0 1.559910 1_555
O9 P1 1.559327 1_555
O10 P2 1.559438 1_555
O11 P3 1.559745 1_555
O12 P0 1.561000 1_555
O13 P1 1.560872 1_555
O14 P2 1.560760 1_555
O15 P3 1.560849 1_555
