# generated using pymatgen
data_Fe4As3O16
_symmetry_space_group_name_H-M   'P 1'
_cell_length_a   7.91160700
_cell_length_b   7.91160700
_cell_length_c   7.91160700
_cell_angle_alpha   90.00000000
_cell_angle_beta   90.00000000
_cell_angle_gamma   90.00000000
_symmetry_Int_Tables_number   1
_chemical_formula_structural   Fe4As3O16
_chemical_formula_sum   'Fe4 As3 O16'
_cell_volume   495.21537310
_cell_formula_units_Z   1
loop_
 _symmetry_equiv_pos_site_id
 _symmetry_equiv_pos_as_xyz
  1  'x, y, z'
loop_
 _atom_site_type_symbol
 _atom_site_label
 _atom_site_symmetry_multiplicity
 _atom_site_fract_x
 _atom_site_fract_y
 _atom_site_fract_z
 _atom_site_occupancy
  Fe  Fe0  1  0.86358300  0.86358300  0.13641700  1
  Fe  Fe1  1  0.86358300  0.13641700  0.86358300  1
  Fe  Fe2  1  0.13641700  0.86358300  0.86358300  1
  Fe  Fe3  1  0.13641700  0.13641700  0.13641700  1
  As  As0  1  0.00000000  0.00000000  0.50000000  1
  As  As1  1  0.00000000  0.50000000  0.00000000  1
  As  As2  1  0.50000000  0.00000000  0.00000000  1
  O  O0  1  0.62147600  0.87193100  0.12806900  1
  O  O1  1  0.87193100  0.87193100  0.37852400  1
  O  O2  1  0.87193100  0.62147600  0.12806900  1
  O  O3  1  0.62147600  0.12806900  0.87193100  1
  O  O4  1  0.87193100  0.12806900  0.62147600  1
  O  O5  1  0.87193100  0.37852400  0.87193100  1
  O  O6  1  0.37852400  0.87193100  0.87193100  1
  O  O7  1  0.12806900  0.87193100  0.62147600  1
  O  O8  1  0.12806900  0.62147600  0.87193100  1
  O  O9  1  0.37852400  0.12806900  0.12806900  1
  O  O10  1  0.12806900  0.12806900  0.37852400  1
  O  O11  1  0.12806900  0.37852400  0.12806900  1
  O  O12  1  0.11560800  0.11560800  0.88439200  1
  O  O13  1  0.11560800  0.88439200  0.11560800  1
  O  O14  1  0.88439200  0.11560800  0.11560800  1
  O  O15  1  0.88439200  0.88439200  0.88439200  1
loop_
_geom_bond_atom_site_label_1
_geom_bond_atom_site_label_2
_geom_bond_distance
_geom_bond_site_symmetry_2
Fe0 O2 1.917731 1_555
Fe0 O0 1.917731 1_555
Fe0 O1 1.917731 1_555
Fe0 O14 2.007470 1_565
Fe0 O13 2.007470 1_655
Fe0 O15 2.007470 1_554
Fe1 O3 1.917731 1_555
Fe1 O4 1.917731 1_555
Fe1 O5 1.917731 1_555
Fe1 O14 2.007470 1_556
Fe1 O12 2.007470 1_655
Fe1 O15 2.007470 1_545
Fe2 O7 1.917731 1_555
Fe2 O8 1.917731 1_555
Fe2 O6 1.917731 1_555
Fe2 O13 2.007470 1_556
Fe2 O12 2.007470 1_565
Fe2 O15 2.007470 1_455
Fe3 O10 1.917731 1_555
Fe3 O9 1.917731 1_555
Fe3 O11 1.917731 1_555
Fe3 O13 2.007470 1_545
Fe3 O14 2.007470 1_455
Fe3 O12 2.007470 1_554
As0 O1 1.725379 1_445
As0 O10 1.725379 1_555
As0 O7 1.725379 1_545
As0 O4 1.725379 1_455
As1 O8 1.725379 1_554
As1 O5 1.725379 1_454
As1 O2 1.725379 1_455
As1 O11 1.725379 1_555
As2 O0 1.725379 1_545
As2 O9 1.725379 1_555
As2 O6 1.725379 1_544
As2 O3 1.725379 1_554
