# generated using pymatgen
data_Pr11In9Ni4
_symmetry_space_group_name_H-M   'P 1'
_cell_length_a   26.84305265
_cell_length_b   26.84305265
_cell_length_c   7.59191806
_cell_angle_alpha   90.00000000
_cell_angle_beta   90.00000000
_cell_angle_gamma   112.53898438
_symmetry_Int_Tables_number   1
_chemical_formula_structural   Pr11In9Ni4
_chemical_formula_sum   'Pr88 In72 Ni32'
_cell_volume   5052.52123963
_cell_formula_units_Z   8
loop_
 _symmetry_equiv_pos_site_id
 _symmetry_equiv_pos_as_xyz
  1  'x, y, z'
loop_
 _atom_site_type_symbol
 _atom_site_label
 _atom_site_symmetry_multiplicity
 _atom_site_fract_x
 _atom_site_fract_y
 _atom_site_fract_z
 _atom_site_occupancy
  Pr  Pr0_0  1  0.25000000  0.25000000  0.25000000  1
  Pr  Pr0_1  1  0.25000000  0.25000000  0.75000000  1
  Pr  Pr0_2  1  0.25000000  0.75000000  0.25000000  1
  Pr  Pr0_3  1  0.25000000  0.75000000  0.75000000  1
  Pr  Pr0_4  1  0.75000000  0.25000000  0.25000000  1
  Pr  Pr0_5  1  0.75000000  0.25000000  0.75000000  1
  Pr  Pr0_6  1  0.75000000  0.75000000  0.25000000  1
  Pr  Pr0_7  1  0.75000000  0.75000000  0.75000000  1
  Pr  Pr1_0  1  0.40682246  0.40682246  0.25000000  1
  Pr  Pr1_1  1  0.40682246  0.40682246  0.75000000  1
  Pr  Pr1_2  1  0.40682246  0.90682246  0.25000000  1
  Pr  Pr1_3  1  0.40682246  0.90682246  0.75000000  1
  Pr  Pr1_4  1  0.90682246  0.40682246  0.25000000  1
  Pr  Pr1_5  1  0.90682246  0.40682246  0.75000000  1
  Pr  Pr1_6  1  0.90682246  0.90682246  0.25000000  1
  Pr  Pr1_7  1  0.90682246  0.90682246  0.75000000  1
  Pr  Pr2_0  1  0.09317755  0.09317755  0.25000000  1
  Pr  Pr2_1  1  0.09317755  0.09317755  0.75000000  1
  Pr  Pr2_2  1  0.09317755  0.59317754  0.25000000  1
  Pr  Pr2_3  1  0.09317755  0.59317754  0.75000000  1
  Pr  Pr2_4  1  0.59317754  0.09317755  0.25000000  1
  Pr  Pr2_5  1  0.59317754  0.09317755  0.75000000  1
  Pr  Pr2_6  1  0.59317755  0.59317755  0.25000000  1
  Pr  Pr2_7  1  0.59317755  0.59317755  0.75000000  1
  Pr  Pr3_0  1  0.28927673  0.45840429  0.25000000  1
  Pr  Pr3_1  1  0.28927673  0.45840429  0.75000000  1
  Pr  Pr3_2  1  0.28927673  0.95840429  0.25000000  1
  Pr  Pr3_3  1  0.28927673  0.95840429  0.75000000  1
  Pr  Pr3_4  1  0.78927673  0.45840429  0.25000000  1
  Pr  Pr3_5  1  0.78927673  0.45840429  0.75000000  1
  Pr  Pr3_6  1  0.78927673  0.95840429  0.25000000  1
  Pr  Pr3_7  1  0.78927673  0.95840429  0.75000000  1
  Pr  Pr4_0  1  0.21072327  0.04159571  0.25000000  1
  Pr  Pr4_1  1  0.21072327  0.04159571  0.75000000  1
  Pr  Pr4_2  1  0.21072327  0.54159571  0.25000000  1
  Pr  Pr4_3  1  0.21072327  0.54159571  0.75000000  1
  Pr  Pr4_4  1  0.71072327  0.04159571  0.25000000  1
  Pr  Pr4_5  1  0.71072327  0.04159571  0.75000000  1
  Pr  Pr4_6  1  0.71072327  0.54159571  0.25000000  1
  Pr  Pr4_7  1  0.71072327  0.54159571  0.75000000  1
  Pr  Pr5_0  1  0.45840429  0.28927673  0.25000000  1
  Pr  Pr5_1  1  0.45840429  0.28927673  0.75000000  1
  Pr  Pr5_2  1  0.45840429  0.78927673  0.25000000  1
  Pr  Pr5_3  1  0.45840429  0.78927673  0.75000000  1
  Pr  Pr5_4  1  0.95840429  0.28927673  0.25000000  1
  Pr  Pr5_5  1  0.95840429  0.28927673  0.75000000  1
  Pr  Pr5_6  1  0.95840429  0.78927673  0.25000000  1
  Pr  Pr5_7  1  0.95840429  0.78927673  0.75000000  1
  Pr  Pr6_0  1  0.04159571  0.21072327  0.25000000  1
  Pr  Pr6_1  1  0.04159571  0.21072327  0.75000000  1
  Pr  Pr6_2  1  0.04159571  0.71072327  0.25000000  1
  Pr  Pr6_3  1  0.04159571  0.71072327  0.75000000  1
  Pr  Pr6_4  1  0.54159571  0.21072327  0.25000000  1
  Pr  Pr6_5  1  0.54159571  0.21072327  0.75000000  1
  Pr  Pr6_6  1  0.54159571  0.71072327  0.25000000  1
  Pr  Pr6_7  1  0.54159571  0.71072327  0.75000000  1
  Pr  Pr7_0  1  0.06246599  0.43753401  0.25000000  1
  Pr  Pr7_1  1  0.06246599  0.43753401  0.75000000  1
  Pr  Pr7_2  1  0.06246599  0.93753401  0.25000000  1
  Pr  Pr7_3  1  0.06246599  0.93753401  0.75000000  1
  Pr  Pr7_4  1  0.56246599  0.43753401  0.25000000  1
  Pr  Pr7_5  1  0.56246599  0.43753401  0.75000000  1
  Pr  Pr7_6  1  0.56246600  0.93753401  0.25000000  1
  Pr  Pr7_7  1  0.56246600  0.93753401  0.75000000  1
  Pr  Pr8_0  1  0.43753400  0.06246600  0.25000000  1
  Pr  Pr8_1  1  0.43753400  0.06246600  0.75000000  1
  Pr  Pr8_2  1  0.43753401  0.56246600  0.25000000  1
  Pr  Pr8_3  1  0.43753401  0.56246600  0.75000000  1
  Pr  Pr8_4  1  0.93753400  0.06246600  0.25000000  1
  Pr  Pr8_5  1  0.93753400  0.06246600  0.75000000  1
  Pr  Pr8_6  1  0.93753401  0.56246600  0.25000000  1
  Pr  Pr8_7  1  0.93753401  0.56246600  0.75000000  1
  Pr  Pr9_0  1  0.16888584  0.33111416  0.25000000  1
  Pr  Pr9_1  1  0.16888584  0.33111416  0.75000000  1
  Pr  Pr9_2  1  0.16888584  0.83111416  0.25000000  1
  Pr  Pr9_3  1  0.16888584  0.83111416  0.75000000  1
  Pr  Pr9_4  1  0.66888584  0.33111416  0.25000000  1
  Pr  Pr9_5  1  0.66888584  0.33111416  0.75000000  1
  Pr  Pr9_6  1  0.66888584  0.83111416  0.25000000  1
  Pr  Pr9_7  1  0.66888584  0.83111416  0.75000000  1
  Pr  Pr10_0  1  0.33111416  0.16888584  0.25000000  1
  Pr  Pr10_1  1  0.33111416  0.16888584  0.75000000  1
  Pr  Pr10_2  1  0.33111416  0.66888584  0.25000000  1
  Pr  Pr10_3  1  0.33111416  0.66888584  0.75000000  1
  Pr  Pr10_4  1  0.83111416  0.16888584  0.25000000  1
  Pr  Pr10_5  1  0.83111416  0.16888584  0.75000000  1
  Pr  Pr10_6  1  0.83111416  0.66888584  0.25000000  1
  Pr  Pr10_7  1  0.83111416  0.66888584  0.75000000  1
  In  In0_0  1  0.16800671  0.43354401  0.00000000  1
  In  In0_1  1  0.16800671  0.43354401  0.50000000  1
  In  In0_2  1  0.16800671  0.93354401  0.00000000  1
  In  In0_3  1  0.16800671  0.93354401  0.50000000  1
  In  In0_4  1  0.66800671  0.43354401  0.00000000  1
  In  In0_5  1  0.66800671  0.43354401  0.50000000  1
  In  In0_6  1  0.66800671  0.93354401  0.00000000  1
  In  In0_7  1  0.66800671  0.93354401  0.50000000  1
  In  In1_0  1  0.33199330  0.06645599  0.00000000  1
  In  In1_1  1  0.33199330  0.06645599  0.50000000  1
  In  In1_2  1  0.33199330  0.56645599  0.00000000  1
  In  In1_3  1  0.33199330  0.56645599  0.50000000  1
  In  In1_4  1  0.83199329  0.06645599  0.00000000  1
  In  In1_5  1  0.83199329  0.06645599  0.50000000  1
  In  In1_6  1  0.83199330  0.56645599  0.00000000  1
  In  In1_7  1  0.83199330  0.56645599  0.50000000  1
  In  In2_0  1  0.43354401  0.16800671  0.00000000  1
  In  In2_1  1  0.43354401  0.16800671  0.50000000  1
  In  In2_2  1  0.43354401  0.66800671  0.00000000  1
  In  In2_3  1  0.43354401  0.66800671  0.50000000  1
  In  In2_4  1  0.93354401  0.16800671  0.00000000  1
  In  In2_5  1  0.93354401  0.16800671  0.50000000  1
  In  In2_6  1  0.93354401  0.66800671  0.00000000  1
  In  In2_7  1  0.93354401  0.66800671  0.50000000  1
  In  In3_0  1  0.06645599  0.33199330  0.00000000  1
  In  In3_1  1  0.06645599  0.33199330  0.50000000  1
  In  In3_2  1  0.06645599  0.83199329  0.00000000  1
  In  In3_3  1  0.06645599  0.83199329  0.50000000  1
  In  In3_4  1  0.56645599  0.33199330  0.00000000  1
  In  In3_5  1  0.56645599  0.33199330  0.50000000  1
  In  In3_6  1  0.56645599  0.83199330  0.00000000  1
  In  In3_7  1  0.56645599  0.83199330  0.50000000  1
  In  In4_0  1  0.29121597  0.36038056  0.00000000  1
  In  In4_1  1  0.29121597  0.36038056  0.50000000  1
  In  In4_2  1  0.29121597  0.86038057  0.00000000  1
  In  In4_3  1  0.29121597  0.86038057  0.50000000  1
  In  In4_4  1  0.79121597  0.36038057  0.00000000  1
  In  In4_5  1  0.79121597  0.36038057  0.50000000  1
  In  In4_6  1  0.79121597  0.86038057  0.00000000  1
  In  In4_7  1  0.79121597  0.86038057  0.50000000  1
  In  In5_0  1  0.20878404  0.13961944  0.00000000  1
  In  In5_1  1  0.20878404  0.13961944  0.50000000  1
  In  In5_2  1  0.20878404  0.63961943  0.00000000  1
  In  In5_3  1  0.20878404  0.63961943  0.50000000  1
  In  In5_4  1  0.70878403  0.13961944  0.00000000  1
  In  In5_5  1  0.70878403  0.13961944  0.50000000  1
  In  In5_6  1  0.70878403  0.63961944  0.00000000  1
  In  In5_7  1  0.70878403  0.63961944  0.50000000  1
  In  In6_0  1  0.36038056  0.29121597  0.00000000  1
  In  In6_1  1  0.36038056  0.29121597  0.50000000  1
  In  In6_2  1  0.36038056  0.79121597  0.00000000  1
  In  In6_3  1  0.36038056  0.79121597  0.50000000  1
  In  In6_4  1  0.86038056  0.29121597  0.00000000  1
  In  In6_5  1  0.86038056  0.29121597  0.50000000  1
  In  In6_6  1  0.86038057  0.79121597  0.00000000  1
  In  In6_7  1  0.86038057  0.79121597  0.50000000  1
  In  In7_0  1  0.13961944  0.20878404  0.00000000  1
  In  In7_1  1  0.13961944  0.20878404  0.50000000  1
  In  In7_2  1  0.13961944  0.70878403  0.00000000  1
  In  In7_3  1  0.13961944  0.70878403  0.50000000  1
  In  In7_4  1  0.63961943  0.20878404  0.00000000  1
  In  In7_5  1  0.63961943  0.20878404  0.50000000  1
  In  In7_6  1  0.63961944  0.70878403  0.00000000  1
  In  In7_7  1  0.63961944  0.70878403  0.50000000  1
  In  In8_0  1  0.00000000  0.00000000  0.00000000  1
  In  In8_1  1  0.00000000  0.00000000  0.50000000  1
  In  In8_2  1  0.00000000  0.50000000  0.00000000  1
  In  In8_3  1  0.00000000  0.50000000  0.50000000  1
  In  In8_4  1  0.50000000  0.00000000  0.00000000  1
  In  In8_5  1  0.50000000  0.00000000  0.50000000  1
  In  In8_6  1  0.50000000  0.50000000  0.00000000  1
  In  In8_7  1  0.50000000  0.50000000  0.50000000  1
  Ni  Ni0_0  1  0.37212600  0.47401162  0.00000000  1
  Ni  Ni0_1  1  0.37212600  0.47401162  0.50000000  1
  Ni  Ni0_2  1  0.37212600  0.97401163  0.00000000  1
  Ni  Ni0_3  1  0.37212600  0.97401163  0.50000000  1
  Ni  Ni0_4  1  0.87212600  0.47401163  0.00000000  1
  Ni  Ni0_5  1  0.87212600  0.47401163  0.50000000  1
  Ni  Ni0_6  1  0.87212600  0.97401163  0.00000000  1
  Ni  Ni0_7  1  0.87212600  0.97401163  0.50000000  1
  Ni  Ni1_0  1  0.12787400  0.02598838  0.00000000  1
  Ni  Ni1_1  1  0.12787400  0.02598838  0.50000000  1
  Ni  Ni1_2  1  0.12787400  0.52598838  0.00000000  1
  Ni  Ni1_3  1  0.12787400  0.52598838  0.50000000  1
  Ni  Ni1_4  1  0.62787400  0.02598838  0.00000000  1
  Ni  Ni1_5  1  0.62787400  0.02598838  0.50000000  1
  Ni  Ni1_6  1  0.62787400  0.52598838  0.00000000  1
  Ni  Ni1_7  1  0.62787400  0.52598838  0.50000000  1
  Ni  Ni2_0  1  0.47401162  0.37212600  0.00000000  1
  Ni  Ni2_1  1  0.47401162  0.37212600  0.50000000  1
  Ni  Ni2_2  1  0.47401163  0.87212600  0.00000000  1
  Ni  Ni2_3  1  0.47401163  0.87212600  0.50000000  1
  Ni  Ni2_4  1  0.97401163  0.37212600  0.00000000  1
  Ni  Ni2_5  1  0.97401163  0.37212600  0.50000000  1
  Ni  Ni2_6  1  0.97401162  0.87212600  0.00000000  1
  Ni  Ni2_7  1  0.97401162  0.87212600  0.50000000  1
  Ni  Ni3_0  1  0.02598838  0.12787400  0.00000000  1
  Ni  Ni3_1  1  0.02598838  0.12787400  0.50000000  1
  Ni  Ni3_2  1  0.02598838  0.62787400  0.00000000  1
  Ni  Ni3_3  1  0.02598838  0.62787400  0.50000000  1
  Ni  Ni3_4  1  0.52598838  0.12787400  0.00000000  1
  Ni  Ni3_5  1  0.52598838  0.12787400  0.50000000  1
  Ni  Ni3_6  1  0.52598838  0.62787400  0.00000000  1
  Ni  Ni3_7  1  0.52598838  0.62787400  0.50000000  1
loop_
_geom_bond_atom_site_label_1
_geom_bond_atom_site_label_2
_geom_bond_distance
_geom_bond_site_symmetry_2
Pr0_0 Pr9_0 3.621626 1_555
Pr0_0 Pr10_0 3.621626 1_555
Pr0_0 Pr0_1 3.795959 1_555
Pr0_0 Pr0_1 3.795959 1_554
Pr0_1 Pr10_1 3.621626 1_555
Pr0_1 Pr9_1 3.621626 1_555
Pr0_2 Pr9_2 3.621626 1_555
Pr0_2 Pr10_2 3.621626 1_555
Pr0_2 Pr0_3 3.795959 1_554
Pr0_2 Pr0_3 3.795959 1_555
Pr0_3 Pr9_3 3.621626 1_555
Pr0_3 Pr10_3 3.621626 1_555
Pr0_4 Pr10_4 3.621626 1_555
Pr0_4 Pr9_4 3.621626 1_555
Pr0_4 Pr0_5 3.795959 1_555
Pr0_4 Pr0_5 3.795959 1_554
Pr0_5 Pr10_5 3.621626 1_555
Pr0_5 Pr9_5 3.621626 1_555
Pr0_6 Pr10_6 3.621626 1_555
Pr0_6 Pr9_6 3.621626 1_555
Pr0_6 Pr0_7 3.795959 1_555
Pr0_6 Pr0_7 3.795959 1_554
Pr0_7 Pr10_7 3.621626 1_555
Pr0_7 Pr9_7 3.621626 1_555
Pr3_0 Pr9_0 3.695047 1_555
Pr3_1 Pr9_1 3.695047 1_555
Pr3_2 Pr9_2 3.695047 1_555
Pr3_3 Pr9_3 3.695047 1_555
Pr3_4 Pr9_4 3.695047 1_555
Pr3_5 Pr9_5 3.695047 1_555
Pr3_6 Pr9_6 3.695047 1_555
Pr3_7 Pr9_7 3.695047 1_555
Pr6_0 Pr9_0 3.695047 1_555
Pr6_1 Pr9_1 3.695047 1_555
Pr6_2 Pr9_2 3.695047 1_555
Pr6_3 Pr9_3 3.695047 1_555
Pr6_4 Pr9_4 3.695047 1_555
Pr6_5 Pr9_5 3.695047 1_555
Pr6_6 Pr9_6 3.695047 1_555
Pr6_7 Pr9_7 3.695047 1_555
Pr9_0 Pr9_1 3.795959 1_554
Pr9_0 Pr9_1 3.795959 1_555
Pr9_2 Pr9_3 3.795959 1_555
Pr9_2 Pr9_3 3.795959 1_554
Pr9_4 Pr9_5 3.795959 1_555
Pr9_4 Pr9_5 3.795959 1_554
Pr9_6 Pr9_7 3.795959 1_555
Pr9_6 Pr9_7 3.795959 1_554
Pr10_0 Pr4_0 3.695047 1_555
Pr10_0 Pr5_0 3.695047 1_555
Pr10_0 Pr10_1 3.795959 1_555
Pr10_0 Pr10_1 3.795959 1_554
Pr10_1 Pr4_1 3.695047 1_555
Pr10_1 Pr5_1 3.695047 1_555
Pr10_2 Pr4_2 3.695047 1_555
Pr10_2 Pr5_2 3.695047 1_555
Pr10_2 Pr10_3 3.795959 1_554
Pr10_2 Pr10_3 3.795959 1_555
Pr10_3 Pr4_3 3.695047 1_555
Pr10_3 Pr5_3 3.695047 1_555
Pr10_4 Pr4_4 3.695047 1_555
Pr10_4 Pr5_4 3.695047 1_555
Pr10_4 Pr10_5 3.795959 1_554
Pr10_4 Pr10_5 3.795959 1_555
Pr10_5 Pr4_5 3.695047 1_555
Pr10_5 Pr5_5 3.695047 1_555
Pr10_6 Pr5_6 3.695047 1_555
Pr10_6 Pr4_6 3.695047 1_555
Pr10_6 Pr10_7 3.795959 1_555
Pr10_6 Pr10_7 3.795959 1_554
Pr10_7 Pr5_7 3.695047 1_555
Pr10_7 Pr4_7 3.695047 1_555
In0_0 In3_0 3.027350 1_555
In0_0 Ni1_2 3.060673 1_555
In0_0 Pr4_2 3.283297 1_555
In0_0 Pr4_3 3.283297 1_554
In0_0 Pr9_1 3.348513 1_554
In0_0 Pr9_0 3.348513 1_555
In0_0 Pr7_1 3.445649 1_554
In0_0 Pr7_0 3.445649 1_555
In0_0 Pr3_0 3.602638 1_555
In0_0 Pr3_1 3.602638 1_554
In0_1 In3_1 3.027350 1_555
In0_1 Ni1_3 3.060673 1_555
In0_1 Pr4_2 3.283297 1_555
In0_1 Pr4_3 3.283297 1_555
In0_1 Pr9_0 3.348513 1_555
In0_1 Pr9_1 3.348513 1_555
In0_1 Pr7_1 3.445649 1_555
In0_1 Pr7_0 3.445649 1_555
In0_1 Pr3_0 3.602638 1_555
In0_1 Pr3_1 3.602638 1_555
In0_2 In3_2 3.027350 1_555
In0_2 Ni1_0 3.060673 1_565
In0_2 Pr4_1 3.283297 1_564
In0_2 Pr4_0 3.283297 1_565
In0_2 Pr9_3 3.348513 1_554
In0_2 Pr9_2 3.348513 1_555
In0_2 Pr7_2 3.445649 1_555
In0_2 Pr7_3 3.445649 1_554
In0_2 Pr3_3 3.602638 1_554
In0_2 Pr3_2 3.602638 1_555
In0_3 In3_3 3.027350 1_555
In0_3 Ni1_1 3.060673 1_565
In0_3 Pr4_1 3.283297 1_565
In0_3 Pr4_0 3.283297 1_565
In0_3 Pr9_3 3.348513 1_555
In0_3 Pr9_2 3.348513 1_555
In0_3 Pr7_2 3.445649 1_555
In0_3 Pr7_3 3.445649 1_555
In0_3 Pr3_3 3.602638 1_555
In0_3 Pr3_2 3.602638 1_555
In0_4 In3_4 3.027350 1_555
In0_4 Ni1_6 3.060673 1_555
In0_4 Pr4_6 3.283297 1_555
In0_4 Pr4_7 3.283297 1_554
In0_4 Pr9_4 3.348513 1_555
In0_4 Pr9_5 3.348513 1_554
In0_4 Pr7_4 3.445649 1_555
In0_4 Pr7_5 3.445649 1_554
In0_4 Pr3_5 3.602638 1_554
In0_4 Pr3_4 3.602638 1_555
In0_5 In3_5 3.027350 1_555
In0_5 Ni1_7 3.060673 1_555
In0_5 Pr4_7 3.283297 1_555
In0_5 Pr4_6 3.283297 1_555
In0_5 Pr9_5 3.348513 1_555
In0_5 Pr9_4 3.348513 1_555
In0_5 Pr7_4 3.445649 1_555
In0_5 Pr7_5 3.445649 1_555
In0_5 Pr3_5 3.602638 1_555
In0_5 Pr3_4 3.602638 1_555
In0_6 In3_6 3.027350 1_555
In0_6 Ni1_4 3.060673 1_565
In0_6 Pr4_5 3.283297 1_564
In0_6 Pr4_4 3.283297 1_565
In0_6 Pr9_6 3.348513 1_555
In0_6 Pr9_7 3.348513 1_554
In0_6 Pr7_7 3.445649 1_554
In0_6 Pr7_6 3.445649 1_555
In0_6 Pr3_7 3.602638 1_554
In0_6 Pr3_6 3.602638 1_555
In0_7 In3_7 3.027350 1_555
In0_7 Ni1_5 3.060673 1_565
In0_7 Pr4_5 3.283297 1_565
In0_7 Pr4_4 3.283297 1_565
In0_7 Pr9_6 3.348513 1_555
In0_7 Pr9_7 3.348513 1_555
In0_7 Pr7_6 3.445649 1_555
In0_7 Pr7_7 3.445649 1_555
In0_7 Pr3_7 3.602638 1_555
In0_7 Pr3_6 3.602638 1_555
In1_0 In2_0 3.027350 1_555
In1_0 Ni0_2 3.060673 1_545
In1_0 Pr3_2 3.283297 1_545
In1_0 Pr3_3 3.283297 1_544
In1_0 Pr10_1 3.348513 1_554
In1_0 Pr10_0 3.348513 1_555
In1_0 Pr8_1 3.445649 1_554
In1_0 Pr8_0 3.445649 1_555
In1_0 Pr4_1 3.602638 1_554
In1_0 Pr4_0 3.602638 1_555
In1_1 In2_1 3.027350 1_555
In1_1 Ni0_3 3.060673 1_545
In1_1 Pr3_2 3.283297 1_545
In1_1 Pr3_3 3.283297 1_545
In1_1 Pr10_1 3.348513 1_555
In1_1 Pr10_0 3.348513 1_555
In1_1 Pr8_1 3.445649 1_555
In1_1 Pr8_0 3.445649 1_555
In1_1 Pr4_1 3.602638 1_555
In1_1 Pr4_0 3.602638 1_555
In1_2 In2_2 3.027350 1_555
In1_2 Ni0_0 3.060673 1_555
In1_2 Pr3_1 3.283297 1_554
In1_2 Pr3_0 3.283297 1_555
In1_2 Pr10_2 3.348513 1_555
In1_2 Pr10_3 3.348513 1_554
In1_2 Pr8_2 3.445649 1_555
In1_2 Pr8_3 3.445649 1_554
In1_2 Pr4_2 3.602638 1_555
In1_2 Pr4_3 3.602638 1_554
In1_3 In2_3 3.027350 1_555
In1_3 Ni0_1 3.060673 1_555
In1_3 Pr3_0 3.283297 1_555
In1_3 Pr3_1 3.283297 1_555
In1_3 Pr10_2 3.348513 1_555
In1_3 Pr10_3 3.348513 1_555
In1_3 Pr8_2 3.445649 1_555
In1_3 Pr8_3 3.445649 1_555
In1_3 Pr4_2 3.602638 1_555
In1_3 Pr4_3 3.602638 1_555
In1_4 In2_4 3.027350 1_555
In1_4 Ni0_6 3.060673 1_545
In1_4 Pr3_6 3.283297 1_545
In1_4 Pr3_7 3.283297 1_544
In1_4 Pr10_4 3.348513 1_555
In1_4 Pr10_5 3.348513 1_554
In1_4 Pr8_4 3.445649 1_555
In1_4 Pr8_5 3.445649 1_554
In1_4 Pr4_4 3.602638 1_555
In1_4 Pr4_5 3.602638 1_554
In1_5 In2_5 3.027350 1_555
In1_5 Ni0_7 3.060673 1_545
In1_5 Pr3_7 3.283297 1_545
In1_5 Pr3_6 3.283297 1_545
In1_5 Pr10_5 3.348513 1_555
In1_5 Pr10_4 3.348513 1_555
In1_5 Pr8_4 3.445649 1_555
In1_5 Pr8_5 3.445649 1_555
In1_5 Pr4_5 3.602638 1_555
In1_5 Pr4_4 3.602638 1_555
In1_6 In2_6 3.027350 1_555
In1_6 Ni0_4 3.060673 1_555
In1_6 Pr3_4 3.283297 1_555
In1_6 Pr3_5 3.283297 1_554
In1_6 Pr10_7 3.348513 1_554
In1_6 Pr10_6 3.348513 1_555
In1_6 Pr8_7 3.445649 1_554
In1_6 Pr8_6 3.445649 1_555
In1_6 Pr4_7 3.602638 1_554
In1_6 Pr4_6 3.602638 1_555
In1_7 In2_7 3.027350 1_555
In1_7 Ni0_5 3.060673 1_555
In1_7 Pr3_4 3.283297 1_555
In1_7 Pr3_5 3.283297 1_555
In1_7 Pr10_7 3.348513 1_555
In1_7 Pr10_6 3.348513 1_555
In1_7 Pr8_6 3.445649 1_555
In1_7 Pr8_7 3.445649 1_555
In1_7 Pr4_7 3.602638 1_555
In1_7 Pr4_6 3.602638 1_555
In2_0 Ni3_4 3.060673 1_555
In2_0 Pr6_4 3.283297 1_555
In2_0 Pr6_5 3.283297 1_554
In2_0 Pr10_0 3.348513 1_555
In2_0 Pr10_1 3.348513 1_554
In2_0 Pr8_0 3.445649 1_555
In2_0 Pr8_1 3.445649 1_554
In2_0 Pr5_0 3.602638 1_555
In2_0 Pr5_1 3.602638 1_554
In2_1 Ni3_5 3.060673 1_555
In2_1 Pr6_5 3.283297 1_555
In2_1 Pr6_4 3.283297 1_555
In2_1 Pr10_0 3.348513 1_555
In2_1 Pr10_1 3.348513 1_555
In2_1 Pr8_0 3.445649 1_555
In2_1 Pr8_1 3.445649 1_555
In2_1 Pr5_1 3.602638 1_555
In2_1 Pr5_0 3.602638 1_555
In2_2 Ni3_6 3.060673 1_555
In2_2 Pr6_6 3.283297 1_555
In2_2 Pr6_7 3.283297 1_554
In2_2 Pr10_2 3.348513 1_555
In2_2 Pr10_3 3.348513 1_554
In2_2 Pr8_3 3.445649 1_554
In2_2 Pr8_2 3.445649 1_555
In2_2 Pr5_2 3.602638 1_555
In2_2 Pr5_3 3.602638 1_554
In2_3 Ni3_7 3.060673 1_555
In2_3 Pr6_6 3.283297 1_555
In2_3 Pr6_7 3.283297 1_555
In2_3 Pr10_2 3.348513 1_555
In2_3 Pr10_3 3.348513 1_555
In2_3 Pr8_2 3.445649 1_555
In2_3 Pr8_3 3.445649 1_555
In2_3 Pr5_2 3.602638 1_555
In2_3 Pr5_3 3.602638 1_555
In2_4 Ni3_0 3.060673 1_655
In2_4 Pr6_1 3.283297 1_654
In2_4 Pr6_0 3.283297 1_655
In2_4 Pr10_5 3.348513 1_554
In2_4 Pr10_4 3.348513 1_555
In2_4 Pr8_4 3.445649 1_555
In2_4 Pr8_5 3.445649 1_554
In2_4 Pr5_4 3.602638 1_555
In2_4 Pr5_5 3.602638 1_554
In2_5 Ni3_1 3.060673 1_655
In2_5 Pr6_1 3.283297 1_655
In2_5 Pr6_0 3.283297 1_655
In2_5 Pr10_5 3.348513 1_555
In2_5 Pr10_4 3.348513 1_555
In2_5 Pr8_4 3.445649 1_555
In2_5 Pr8_5 3.445649 1_555
In2_5 Pr5_4 3.602638 1_555
In2_5 Pr5_5 3.602638 1_555
In2_6 Ni3_2 3.060673 1_655
In2_6 Pr6_2 3.283297 1_655
In2_6 Pr6_3 3.283297 1_654
In2_6 Pr10_7 3.348513 1_554
In2_6 Pr10_6 3.348513 1_555
In2_6 Pr8_6 3.445649 1_555
In2_6 Pr8_7 3.445649 1_554
In2_6 Pr5_7 3.602638 1_554
In2_6 Pr5_6 3.602638 1_555
In2_7 Ni3_3 3.060673 1_655
In2_7 Pr6_2 3.283297 1_655
In2_7 Pr6_3 3.283297 1_655
In2_7 Pr10_7 3.348513 1_555
In2_7 Pr10_6 3.348513 1_555
In2_7 Pr8_6 3.445649 1_555
In2_7 Pr8_7 3.445649 1_555
In2_7 Pr5_7 3.602638 1_555
In2_7 Pr5_6 3.602638 1_555
In3_0 Ni2_4 3.060673 1_455
In3_0 Pr5_4 3.283297 1_455
In3_0 Pr5_5 3.283297 1_454
In3_0 Pr9_1 3.348513 1_554
In3_0 Pr9_0 3.348513 1_555
In3_0 Pr7_0 3.445649 1_555
In3_0 Pr7_1 3.445649 1_554
In3_0 Pr6_0 3.602638 1_555
In3_0 Pr6_1 3.602638 1_554
In3_1 Ni2_5 3.060673 1_455
In3_1 Pr5_4 3.283297 1_455
In3_1 Pr5_5 3.283297 1_455
In3_1 Pr9_0 3.348513 1_555
In3_1 Pr9_1 3.348513 1_555
In3_1 Pr7_0 3.445649 1_555
In3_1 Pr7_1 3.445649 1_555
In3_1 Pr6_1 3.602638 1_555
In3_1 Pr6_0 3.602638 1_555
In3_2 Ni2_6 3.060673 1_455
In3_2 Pr5_6 3.283297 1_455
In3_2 Pr5_7 3.283297 1_454
In3_2 Pr9_3 3.348513 1_554
In3_2 Pr9_2 3.348513 1_555
In3_2 Pr7_2 3.445649 1_555
In3_2 Pr7_3 3.445649 1_554
In3_2 Pr6_2 3.602638 1_555
In3_2 Pr6_3 3.602638 1_554
In3_3 Ni2_7 3.060673 1_455
In3_3 Pr5_6 3.283297 1_455
In3_3 Pr5_7 3.283297 1_455
In3_3 Pr9_2 3.348513 1_555
In3_3 Pr9_3 3.348513 1_555
In3_3 Pr7_2 3.445649 1_555
In3_3 Pr7_3 3.445649 1_555
In3_3 Pr6_2 3.602638 1_555
In3_3 Pr6_3 3.602638 1_555
In3_4 Ni2_0 3.060673 1_555
In3_4 Pr5_1 3.283297 1_554
In3_4 Pr5_0 3.283297 1_555
In3_4 Pr9_4 3.348513 1_555
In3_4 Pr9_5 3.348513 1_554
In3_4 Pr7_4 3.445649 1_555
In3_4 Pr7_5 3.445649 1_554
In3_4 Pr6_4 3.602638 1_555
In3_4 Pr6_5 3.602638 1_554
In3_5 Ni2_1 3.060673 1_555
In3_5 Pr5_0 3.283297 1_555
In3_5 Pr5_1 3.283297 1_555
In3_5 Pr9_4 3.348513 1_555
In3_5 Pr9_5 3.348513 1_555
In3_5 Pr7_4 3.445649 1_555
In3_5 Pr7_5 3.445649 1_555
In3_5 Pr6_4 3.602638 1_555
In3_5 Pr6_5 3.602638 1_555
In3_6 Ni2_2 3.060673 1_555
In3_6 Pr5_2 3.283297 1_555
In3_6 Pr5_3 3.283297 1_554
In3_6 Pr9_6 3.348513 1_555
In3_6 Pr9_7 3.348513 1_554
In3_6 Pr7_7 3.445649 1_554
In3_6 Pr7_6 3.445649 1_555
In3_6 Pr6_6 3.602638 1_555
In3_6 Pr6_7 3.602638 1_554
In3_7 Ni2_3 3.060673 1_555
In3_7 Pr5_2 3.283297 1_555
In3_7 Pr5_3 3.283297 1_555
In3_7 Pr9_6 3.348513 1_555
In3_7 Pr9_7 3.348513 1_555
In3_7 Pr7_6 3.445649 1_555
In3_7 Pr7_7 3.445649 1_555
In3_7 Pr6_6 3.602638 1_555
In3_7 Pr6_7 3.602638 1_555
In4_0 Ni0_0 2.990344 1_555
In4_0 In6_0 3.088096 1_555
In4_0 Pr3_1 3.260912 1_554
In4_0 Pr3_0 3.260912 1_555
In4_0 Pr0_1 3.330522 1_554
In4_0 Pr0_0 3.330522 1_555
In4_0 Pr1_1 3.438126 1_554
In4_0 Pr1_0 3.438126 1_555
In4_0 Pr9_1 3.608964 1_554
In4_0 Pr9_0 3.608964 1_555
In4_1 Ni0_1 2.990344 1_555
In4_1 In6_1 3.088096 1_555
In4_1 Pr3_0 3.260912 1_555
In4_1 Pr3_1 3.260912 1_555
In4_1 Pr0_1 3.330522 1_555
In4_1 Pr0_0 3.330522 1_555
In4_1 Pr1_1 3.438126 1_555
In4_1 Pr1_0 3.438126 1_555
In4_1 Pr9_1 3.608964 1_555
In4_1 Pr9_0 3.608964 1_555
In4_2 Ni0_2 2.990344 1_555
In4_2 In6_2 3.088096 1_555
In4_2 Pr3_3 3.260912 1_554
In4_2 Pr3_2 3.260912 1_555
In4_2 Pr0_3 3.330522 1_554
In4_2 Pr0_2 3.330522 1_555
In4_2 Pr1_3 3.438126 1_554
In4_2 Pr1_2 3.438126 1_555
In4_2 Pr9_3 3.608964 1_554
In4_2 Pr9_2 3.608964 1_555
In4_3 Ni0_3 2.990344 1_555
In4_3 In6_3 3.088096 1_555
In4_3 Pr3_3 3.260912 1_555
In4_3 Pr3_2 3.260912 1_555
In4_3 Pr0_3 3.330522 1_555
In4_3 Pr0_2 3.330522 1_555
In4_3 Pr1_2 3.438126 1_555
In4_3 Pr1_3 3.438126 1_555
In4_3 Pr9_3 3.608964 1_555
In4_3 Pr9_2 3.608964 1_555
In4_4 Ni0_4 2.990344 1_555
In4_4 In6_4 3.088096 1_555
In4_4 Pr3_5 3.260912 1_554
In4_4 Pr3_4 3.260912 1_555
In4_4 Pr0_5 3.330522 1_554
In4_4 Pr0_4 3.330522 1_555
In4_4 Pr1_4 3.438126 1_555
In4_4 Pr1_5 3.438126 1_554
In4_4 Pr9_4 3.608964 1_555
In4_4 Pr9_5 3.608964 1_554
In4_5 Ni0_5 2.990344 1_555
In4_5 In6_5 3.088096 1_555
In4_5 Pr3_5 3.260912 1_555
In4_5 Pr3_4 3.260912 1_555
In4_5 Pr0_5 3.330522 1_555
In4_5 Pr0_4 3.330522 1_555
In4_5 Pr1_4 3.438126 1_555
In4_5 Pr1_5 3.438126 1_555
In4_5 Pr9_4 3.608964 1_555
In4_5 Pr9_5 3.608964 1_555
In4_6 Ni0_6 2.990344 1_555
In4_6 In6_6 3.088096 1_555
In4_6 Pr3_6 3.260912 1_555
In4_6 Pr3_7 3.260912 1_554
In4_6 Pr0_7 3.330522 1_554
In4_6 Pr0_6 3.330522 1_555
In4_6 Pr1_6 3.438126 1_555
In4_6 Pr1_7 3.438126 1_554
In4_6 Pr9_6 3.608964 1_555
In4_6 Pr9_7 3.608964 1_554
In4_7 Ni0_7 2.990344 1_555
In4_7 In6_7 3.088096 1_555
In4_7 Pr3_7 3.260912 1_555
In4_7 Pr3_6 3.260912 1_555
In4_7 Pr0_7 3.330522 1_555
In4_7 Pr0_6 3.330522 1_555
In4_7 Pr1_6 3.438126 1_555
In4_7 Pr1_7 3.438126 1_555
In4_7 Pr9_6 3.608964 1_555
In4_7 Pr9_7 3.608964 1_555
In5_0 Ni1_0 2.990344 1_555
In5_0 In7_0 3.088096 1_555
In5_0 Pr4_0 3.260912 1_555
In5_0 Pr4_1 3.260912 1_554
In5_0 Pr0_1 3.330522 1_554
In5_0 Pr0_0 3.330522 1_555
In5_0 Pr2_0 3.438126 1_555
In5_0 Pr2_1 3.438126 1_554
In5_0 Pr10_0 3.608964 1_555
In5_0 Pr10_1 3.608964 1_554
In5_1 Ni1_1 2.990344 1_555
In5_1 In7_1 3.088096 1_555
In5_1 Pr4_1 3.260912 1_555
In5_1 Pr4_0 3.260912 1_555
In5_1 Pr0_1 3.330522 1_555
In5_1 Pr0_0 3.330522 1_555
In5_1 Pr2_0 3.438126 1_555
In5_1 Pr2_1 3.438126 1_555
In5_1 Pr10_0 3.608964 1_555
In5_1 Pr10_1 3.608964 1_555
In5_2 Ni1_2 2.990344 1_555
In5_2 In7_2 3.088096 1_555
In5_2 Pr4_2 3.260912 1_555
In5_2 Pr4_3 3.260912 1_554
In5_2 Pr0_3 3.330522 1_554
In5_2 Pr0_2 3.330522 1_555
In5_2 Pr2_3 3.438126 1_554
In5_2 Pr2_2 3.438126 1_555
In5_2 Pr10_3 3.608964 1_554
In5_2 Pr10_2 3.608964 1_555
In5_3 Ni1_3 2.990344 1_555
In5_3 In7_3 3.088096 1_555
In5_3 Pr4_2 3.260912 1_555
In5_3 Pr4_3 3.260912 1_555
In5_3 Pr0_3 3.330522 1_555
In5_3 Pr0_2 3.330522 1_555
In5_3 Pr2_2 3.438126 1_555
In5_3 Pr2_3 3.438126 1_555
In5_3 Pr10_3 3.608964 1_555
In5_3 Pr10_2 3.608964 1_555
In5_4 Ni1_4 2.990344 1_555
In5_4 In7_4 3.088096 1_555
In5_4 Pr4_4 3.260912 1_555
In5_4 Pr4_5 3.260912 1_554
In5_4 Pr0_5 3.330522 1_554
In5_4 Pr0_4 3.330522 1_555
In5_4 Pr2_4 3.438126 1_555
In5_4 Pr2_5 3.438126 1_554
In5_4 Pr10_5 3.608964 1_554
In5_4 Pr10_4 3.608964 1_555
In5_5 Ni1_5 2.990344 1_555
In5_5 In7_5 3.088096 1_555
In5_5 Pr4_4 3.260912 1_555
In5_5 Pr4_5 3.260912 1_555
In5_5 Pr0_5 3.330522 1_555
In5_5 Pr0_4 3.330522 1_555
In5_5 Pr2_4 3.438126 1_555
In5_5 Pr2_5 3.438126 1_555
In5_5 Pr10_5 3.608964 1_555
In5_5 Pr10_4 3.608964 1_555
In5_6 Ni1_6 2.990344 1_555
In5_6 In7_6 3.088096 1_555
In5_6 Pr4_7 3.260912 1_554
In5_6 Pr4_6 3.260912 1_555
In5_6 Pr0_7 3.330522 1_554
In5_6 Pr0_6 3.330522 1_555
In5_6 Pr2_6 3.438126 1_555
In5_6 Pr2_7 3.438126 1_554
In5_6 Pr10_6 3.608964 1_555
In5_6 Pr10_7 3.608964 1_554
In5_7 Ni1_7 2.990344 1_555
In5_7 In7_7 3.088096 1_555
In5_7 Pr4_7 3.260912 1_555
In5_7 Pr4_6 3.260912 1_555
In5_7 Pr0_6 3.330522 1_555
In5_7 Pr0_7 3.330522 1_555
In5_7 Pr2_6 3.438126 1_555
In5_7 Pr2_7 3.438126 1_555
In5_7 Pr10_6 3.608964 1_555
In5_7 Pr10_7 3.608964 1_555
In6_0 Ni2_0 2.990344 1_555
In6_0 Pr5_0 3.260912 1_555
In6_0 Pr5_1 3.260912 1_554
In6_0 Pr0_0 3.330522 1_555
In6_0 Pr0_1 3.330522 1_554
In6_0 Pr1_0 3.438126 1_555
In6_0 Pr1_1 3.438126 1_554
In6_0 Pr10_0 3.608964 1_555
In6_0 Pr10_1 3.608964 1_554
In6_1 Ni2_1 2.990344 1_555
In6_1 Pr5_0 3.260912 1_555
In6_1 Pr5_1 3.260912 1_555
In6_1 Pr0_1 3.330522 1_555
In6_1 Pr0_0 3.330522 1_555
In6_1 Pr1_1 3.438126 1_555
In6_1 Pr1_0 3.438126 1_555
In6_1 Pr10_0 3.608964 1_555
In6_1 Pr10_1 3.608964 1_555
In6_2 Ni2_2 2.990344 1_555
In6_2 Pr5_3 3.260912 1_554
In6_2 Pr5_2 3.260912 1_555
In6_2 Pr0_3 3.330522 1_554
In6_2 Pr0_2 3.330522 1_555
In6_2 Pr1_2 3.438126 1_555
In6_2 Pr1_3 3.438126 1_554
In6_2 Pr10_2 3.608964 1_555
In6_2 Pr10_3 3.608964 1_554
In6_3 Ni2_3 2.990344 1_555
In6_3 Pr5_3 3.260912 1_555
In6_3 Pr5_2 3.260912 1_555
In6_3 Pr0_3 3.330522 1_555
In6_3 Pr0_2 3.330522 1_555
In6_3 Pr1_2 3.438126 1_555
In6_3 Pr1_3 3.438126 1_555
In6_3 Pr10_2 3.608964 1_555
In6_3 Pr10_3 3.608964 1_555
In6_4 Ni2_4 2.990344 1_555
In6_4 Pr5_5 3.260912 1_554
In6_4 Pr5_4 3.260912 1_555
In6_4 Pr0_4 3.330522 1_555
In6_4 Pr0_5 3.330522 1_554
In6_4 Pr1_4 3.438126 1_555
In6_4 Pr1_5 3.438126 1_554
In6_4 Pr10_5 3.608964 1_554
In6_4 Pr10_4 3.608964 1_555
In6_5 Ni2_5 2.990344 1_555
In6_5 Pr5_5 3.260912 1_555
In6_5 Pr5_4 3.260912 1_555
In6_5 Pr0_4 3.330522 1_555
In6_5 Pr0_5 3.330522 1_555
In6_5 Pr1_4 3.438126 1_555
In6_5 Pr1_5 3.438126 1_555
In6_5 Pr10_5 3.608964 1_555
In6_5 Pr10_4 3.608964 1_555
In6_6 Ni2_6 2.990344 1_555
In6_6 Pr5_6 3.260912 1_555
In6_6 Pr5_7 3.260912 1_554
In6_6 Pr0_7 3.330522 1_554
In6_6 Pr0_6 3.330522 1_555
In6_6 Pr1_6 3.438126 1_555
In6_6 Pr1_7 3.438126 1_554
In6_6 Pr10_7 3.608964 1_554
In6_6 Pr10_6 3.608964 1_555
In6_7 Ni2_7 2.990344 1_555
In6_7 Pr5_6 3.260912 1_555
In6_7 Pr5_7 3.260912 1_555
In6_7 Pr0_7 3.330522 1_555
In6_7 Pr0_6 3.330522 1_555
In6_7 Pr1_6 3.438126 1_555
In6_7 Pr1_7 3.438126 1_555
In6_7 Pr10_6 3.608964 1_555
In6_7 Pr10_7 3.608964 1_555
In7_0 Ni3_0 2.990344 1_555
In7_0 Pr6_0 3.260912 1_555
In7_0 Pr6_1 3.260912 1_554
In7_0 Pr0_1 3.330522 1_554
In7_0 Pr0_0 3.330522 1_555
In7_0 Pr2_0 3.438126 1_555
In7_0 Pr2_1 3.438126 1_554
In7_0 Pr9_1 3.608964 1_554
In7_0 Pr9_0 3.608964 1_555
In7_1 Ni3_1 2.990344 1_555
In7_1 Pr6_1 3.260912 1_555
In7_1 Pr6_0 3.260912 1_555
In7_1 Pr0_1 3.330522 1_555
In7_1 Pr0_0 3.330522 1_555
In7_1 Pr2_0 3.438126 1_555
In7_1 Pr2_1 3.438126 1_555
In7_1 Pr9_1 3.608964 1_555
In7_1 Pr9_0 3.608964 1_555
In7_2 Ni3_2 2.990344 1_555
In7_2 Pr6_3 3.260912 1_554
In7_2 Pr6_2 3.260912 1_555
In7_2 Pr0_2 3.330522 1_555
In7_2 Pr0_3 3.330522 1_554
In7_2 Pr2_3 3.438126 1_554
In7_2 Pr2_2 3.438126 1_555
In7_2 Pr9_3 3.608964 1_554
In7_2 Pr9_2 3.608964 1_555
In7_3 Ni3_3 2.990344 1_555
In7_3 Pr6_2 3.260912 1_555
In7_3 Pr6_3 3.260912 1_555
In7_3 Pr0_3 3.330522 1_555
In7_3 Pr0_2 3.330522 1_555
In7_3 Pr2_3 3.438126 1_555
In7_3 Pr2_2 3.438126 1_555
In7_3 Pr9_2 3.608964 1_555
In7_3 Pr9_3 3.608964 1_555
In7_4 Ni3_4 2.990344 1_555
In7_4 Pr6_5 3.260912 1_554
In7_4 Pr6_4 3.260912 1_555
In7_4 Pr0_5 3.330522 1_554
In7_4 Pr0_4 3.330522 1_555
In7_4 Pr2_4 3.438126 1_555
In7_4 Pr2_5 3.438126 1_554
In7_4 Pr9_4 3.608964 1_555
In7_4 Pr9_5 3.608964 1_554
In7_5 Ni3_5 2.990344 1_555
In7_5 Pr6_5 3.260912 1_555
In7_5 Pr6_4 3.260912 1_555
In7_5 Pr0_4 3.330522 1_555
In7_5 Pr0_5 3.330522 1_555
In7_5 Pr2_4 3.438126 1_555
In7_5 Pr2_5 3.438126 1_555
In7_5 Pr9_4 3.608964 1_555
In7_5 Pr9_5 3.608964 1_555
In7_6 Ni3_6 2.990344 1_555
In7_6 Pr6_6 3.260912 1_555
In7_6 Pr6_7 3.260912 1_554
In7_6 Pr0_7 3.330522 1_554
In7_6 Pr0_6 3.330522 1_555
In7_6 Pr2_6 3.438126 1_555
In7_6 Pr2_7 3.438126 1_554
In7_6 Pr9_6 3.608964 1_555
In7_6 Pr9_7 3.608964 1_554
In7_7 Ni3_7 2.990344 1_555
In7_7 Pr6_6 3.260912 1_555
In7_7 Pr6_7 3.260912 1_555
In7_7 Pr0_6 3.330522 1_555
In7_7 Pr0_7 3.330522 1_555
In7_7 Pr2_6 3.438126 1_555
In7_7 Pr2_7 3.438126 1_555
In7_7 Pr9_6 3.608964 1_555
In7_7 Pr9_7 3.608964 1_555
In8_0 Ni1_0 3.230044 1_555
In8_0 Ni3_0 3.230044 1_555
In8_0 Ni0_6 3.230044 1_445
In8_0 Ni2_6 3.230044 1_445
In8_0 Pr1_6 3.364245 1_445
In8_0 Pr1_7 3.364245 1_444
In8_0 Pr2_1 3.364245 1_554
In8_0 Pr2_0 3.364245 1_555
In8_0 Pr7_3 3.373562 1_544
In8_0 Pr7_2 3.373562 1_545
In8_0 Pr8_4 3.373562 1_455
In8_0 Pr8_5 3.373562 1_454
In8_1 Ni1_1 3.230044 1_555
In8_1 Ni3_1 3.230044 1_555
In8_1 Ni0_7 3.230044 1_445
In8_1 Ni2_7 3.230044 1_445
In8_1 Pr1_6 3.364245 1_445
In8_1 Pr1_7 3.364245 1_445
In8_1 Pr2_0 3.364245 1_555
In8_1 Pr2_1 3.364245 1_555
In8_1 Pr7_3 3.373562 1_545
In8_1 Pr7_2 3.373562 1_545
In8_1 Pr8_4 3.373562 1_455
In8_1 Pr8_5 3.373562 1_455
In8_2 Ni3_2 3.230044 1_555
In8_2 Ni1_2 3.230044 1_555
In8_2 Ni0_4 3.230044 1_455
In8_2 Ni2_4 3.230044 1_455
In8_2 Pr1_5 3.364245 1_454
In8_2 Pr1_4 3.364245 1_455
In8_2 Pr2_3 3.364245 1_554
In8_2 Pr2_2 3.364245 1_555
In8_2 Pr7_1 3.373562 1_554
In8_2 Pr7_0 3.373562 1_555
In8_2 Pr8_7 3.373562 1_454
In8_2 Pr8_6 3.373562 1_455
In8_3 Ni3_3 3.230044 1_555
In8_3 Ni1_3 3.230044 1_555
In8_3 Ni0_5 3.230044 1_455
In8_3 Ni2_5 3.230044 1_455
In8_3 Pr1_4 3.364245 1_455
In8_3 Pr1_5 3.364245 1_455
In8_3 Pr2_2 3.364245 1_555
In8_3 Pr2_3 3.364245 1_555
In8_3 Pr7_1 3.373562 1_555
In8_3 Pr7_0 3.373562 1_555
In8_3 Pr8_6 3.373562 1_455
In8_3 Pr8_7 3.373562 1_455
In8_4 Ni1_4 3.230044 1_555
In8_4 Ni3_4 3.230044 1_555
In8_4 Ni2_2 3.230044 1_545
In8_4 Ni0_2 3.230044 1_545
In8_4 Pr1_3 3.364245 1_544
In8_4 Pr1_2 3.364245 1_545
In8_4 Pr2_4 3.364245 1_555
In8_4 Pr2_5 3.364245 1_554
In8_4 Pr7_6 3.373562 1_545
In8_4 Pr7_7 3.373562 1_544
In8_4 Pr8_1 3.373562 1_554
In8_4 Pr8_0 3.373562 1_555
In8_5 Ni1_5 3.230044 1_555
In8_5 Ni3_5 3.230044 1_555
In8_5 Ni2_3 3.230044 1_545
In8_5 Ni0_3 3.230044 1_545
In8_5 Pr1_3 3.364245 1_545
In8_5 Pr1_2 3.364245 1_545
In8_5 Pr2_4 3.364245 1_555
In8_5 Pr2_5 3.364245 1_555
In8_5 Pr7_7 3.373562 1_545
In8_5 Pr7_6 3.373562 1_545
In8_5 Pr8_1 3.373562 1_555
In8_5 Pr8_0 3.373562 1_555
In8_6 Ni1_6 3.230044 1_555
In8_6 Ni3_6 3.230044 1_555
In8_6 Ni0_0 3.230044 1_555
In8_6 Ni2_0 3.230044 1_555
In8_6 Pr1_1 3.364245 1_554
In8_6 Pr1_0 3.364245 1_555
In8_6 Pr2_6 3.364245 1_555
In8_6 Pr2_7 3.364245 1_554
In8_6 Pr7_4 3.373562 1_555
In8_6 Pr7_5 3.373562 1_554
In8_6 Pr8_3 3.373562 1_554
In8_6 Pr8_2 3.373562 1_555
In8_7 Ni1_7 3.230044 1_555
In8_7 Ni3_7 3.230044 1_555
In8_7 Ni0_1 3.230044 1_555
In8_7 Ni2_1 3.230044 1_555
In8_7 Pr1_1 3.364245 1_555
In8_7 Pr1_0 3.364245 1_555
In8_7 Pr2_6 3.364245 1_555
In8_7 Pr2_7 3.364245 1_555
In8_7 Pr7_4 3.373562 1_555
In8_7 Pr7_5 3.373562 1_555
In8_7 Pr8_2 3.373562 1_555
In8_7 Pr8_3 3.373562 1_555
Ni0_0 Pr3_1 2.830093 1_554
Ni0_0 Pr3_0 2.830093 1_555
Ni0_0 Pr1_1 3.001723 1_554
Ni0_0 Pr1_0 3.001723 1_555
Ni0_0 Pr8_3 3.021054 1_554
Ni0_0 Pr8_2 3.021054 1_555
Ni0_1 Pr3_1 2.830093 1_555
Ni0_1 Pr3_0 2.830093 1_555
Ni0_1 Pr1_0 3.001723 1_555
Ni0_1 Pr1_1 3.001723 1_555
Ni0_1 Pr8_2 3.021054 1_555
Ni0_1 Pr8_3 3.021054 1_555
Ni0_2 Pr3_3 2.830093 1_554
Ni0_2 Pr3_2 2.830093 1_555
Ni0_2 Pr1_2 3.001723 1_555
Ni0_2 Pr1_3 3.001723 1_554
Ni0_2 Pr8_1 3.021054 1_564
Ni0_2 Pr8_0 3.021054 1_565
Ni0_3 Pr3_3 2.830093 1_555
Ni0_3 Pr3_2 2.830093 1_555
Ni0_3 Pr1_3 3.001723 1_555
Ni0_3 Pr1_2 3.001723 1_555
Ni0_3 Pr8_0 3.021054 1_565
Ni0_3 Pr8_1 3.021054 1_565
Ni0_4 Pr3_5 2.830093 1_554
Ni0_4 Pr3_4 2.830093 1_555
Ni0_4 Pr1_4 3.001723 1_555
Ni0_4 Pr1_5 3.001723 1_554
Ni0_4 Pr8_7 3.021054 1_554
Ni0_4 Pr8_6 3.021054 1_555
Ni0_5 Pr3_4 2.830093 1_555
Ni0_5 Pr3_5 2.830093 1_555
Ni0_5 Pr1_4 3.001723 1_555
Ni0_5 Pr1_5 3.001723 1_555
Ni0_5 Pr8_6 3.021054 1_555
Ni0_5 Pr8_7 3.021054 1_555
Ni0_6 Pr3_6 2.830093 1_555
Ni0_6 Pr3_7 2.830093 1_554
Ni0_6 Pr1_6 3.001723 1_555
Ni0_6 Pr1_7 3.001723 1_554
Ni0_6 Pr8_4 3.021054 1_565
Ni0_6 Pr8_5 3.021054 1_564
Ni0_7 Pr3_6 2.830093 1_555
Ni0_7 Pr3_7 2.830093 1_555
Ni0_7 Pr1_7 3.001723 1_555
Ni0_7 Pr1_6 3.001723 1_555
Ni0_7 Pr8_4 3.021054 1_565
Ni0_7 Pr8_5 3.021054 1_565
Ni1_0 Pr4_1 2.830093 1_554
Ni1_0 Pr4_0 2.830093 1_555
Ni1_0 Pr2_0 3.001723 1_555
Ni1_0 Pr2_1 3.001723 1_554
Ni1_0 Pr7_2 3.021054 1_545
Ni1_0 Pr7_3 3.021054 1_544
Ni1_1 Pr4_1 2.830093 1_555
Ni1_1 Pr4_0 2.830093 1_555
Ni1_1 Pr2_0 3.001723 1_555
Ni1_1 Pr2_1 3.001723 1_555
Ni1_1 Pr7_2 3.021054 1_545
Ni1_1 Pr7_3 3.021054 1_545
Ni1_2 Pr4_2 2.830093 1_555
Ni1_2 Pr4_3 2.830093 1_554
Ni1_2 Pr2_3 3.001723 1_554
Ni1_2 Pr2_2 3.001723 1_555
Ni1_2 Pr7_0 3.021054 1_555
Ni1_2 Pr7_1 3.021054 1_554
Ni1_3 Pr4_2 2.830093 1_555
Ni1_3 Pr4_3 2.830093 1_555
Ni1_3 Pr2_2 3.001723 1_555
Ni1_3 Pr2_3 3.001723 1_555
Ni1_3 Pr7_0 3.021054 1_555
Ni1_3 Pr7_1 3.021054 1_555
Ni1_4 Pr4_5 2.830093 1_554
Ni1_4 Pr4_4 2.830093 1_555
Ni1_4 Pr2_5 3.001723 1_554
Ni1_4 Pr2_4 3.001723 1_555
Ni1_4 Pr7_7 3.021054 1_544
Ni1_4 Pr7_6 3.021054 1_545
Ni1_5 Pr4_5 2.830093 1_555
Ni1_5 Pr4_4 2.830093 1_555
Ni1_5 Pr2_5 3.001723 1_555
Ni1_5 Pr2_4 3.001723 1_555
Ni1_5 Pr7_7 3.021054 1_545
Ni1_5 Pr7_6 3.021054 1_545
Ni1_6 Pr4_6 2.830093 1_555
Ni1_6 Pr4_7 2.830093 1_554
Ni1_6 Pr2_7 3.001723 1_554
Ni1_6 Pr2_6 3.001723 1_555
Ni1_6 Pr7_4 3.021054 1_555
Ni1_6 Pr7_5 3.021054 1_554
Ni1_7 Pr4_6 2.830093 1_555
Ni1_7 Pr4_7 2.830093 1_555
Ni1_7 Pr2_7 3.001723 1_555
Ni1_7 Pr2_6 3.001723 1_555
Ni1_7 Pr7_4 3.021054 1_555
Ni1_7 Pr7_5 3.021054 1_555
Ni2_0 Pr5_1 2.830093 1_554
Ni2_0 Pr5_0 2.830093 1_555
Ni2_0 Pr1_0 3.001723 1_555
Ni2_0 Pr1_1 3.001723 1_554
Ni2_0 Pr7_4 3.021054 1_555
Ni2_0 Pr7_5 3.021054 1_554
Ni2_1 Pr5_1 2.830093 1_555
Ni2_1 Pr5_0 2.830093 1_555
Ni2_1 Pr1_0 3.001723 1_555
Ni2_1 Pr1_1 3.001723 1_555
Ni2_1 Pr7_4 3.021054 1_555
Ni2_1 Pr7_5 3.021054 1_555
Ni2_2 Pr5_2 2.830093 1_555
Ni2_2 Pr5_3 2.830093 1_554
Ni2_2 Pr1_3 3.001723 1_554
Ni2_2 Pr1_2 3.001723 1_555
Ni2_2 Pr7_7 3.021054 1_554
Ni2_2 Pr7_6 3.021054 1_555
Ni2_3 Pr5_2 2.830093 1_555
Ni2_3 Pr5_3 2.830093 1_555
Ni2_3 Pr1_3 3.001723 1_555
Ni2_3 Pr1_2 3.001723 1_555
Ni2_3 Pr7_6 3.021054 1_555
Ni2_3 Pr7_7 3.021054 1_555
Ni2_4 Pr5_4 2.830093 1_555
Ni2_4 Pr5_5 2.830093 1_554
Ni2_4 Pr1_4 3.001723 1_555
Ni2_4 Pr1_5 3.001723 1_554
Ni2_4 Pr7_1 3.021054 1_654
Ni2_4 Pr7_0 3.021054 1_655
Ni2_5 Pr5_5 2.830093 1_555
Ni2_5 Pr5_4 2.830093 1_555
Ni2_5 Pr1_4 3.001723 1_555
Ni2_5 Pr1_5 3.001723 1_555
Ni2_5 Pr7_1 3.021054 1_655
Ni2_5 Pr7_0 3.021054 1_655
Ni2_6 Pr5_6 2.830093 1_555
Ni2_6 Pr5_7 2.830093 1_554
Ni2_6 Pr1_6 3.001723 1_555
Ni2_6 Pr1_7 3.001723 1_554
Ni2_6 Pr7_3 3.021054 1_654
Ni2_6 Pr7_2 3.021054 1_655
Ni2_7 Pr5_6 2.830093 1_555
Ni2_7 Pr5_7 2.830093 1_555
Ni2_7 Pr1_7 3.001723 1_555
Ni2_7 Pr1_6 3.001723 1_555
Ni2_7 Pr7_3 3.021054 1_655
Ni2_7 Pr7_2 3.021054 1_655
Ni3_0 Pr6_1 2.830093 1_554
Ni3_0 Pr6_0 2.830093 1_555
Ni3_0 Pr2_0 3.001723 1_555
Ni3_0 Pr2_1 3.001723 1_554
Ni3_0 Pr8_4 3.021054 1_455
Ni3_0 Pr8_5 3.021054 1_454
Ni3_1 Pr6_1 2.830093 1_555
Ni3_1 Pr6_0 2.830093 1_555
Ni3_1 Pr2_0 3.001723 1_555
Ni3_1 Pr2_1 3.001723 1_555
Ni3_1 Pr8_4 3.021054 1_455
Ni3_1 Pr8_5 3.021054 1_455
Ni3_2 Pr6_2 2.830093 1_555
Ni3_2 Pr6_3 2.830093 1_554
Ni3_2 Pr2_3 3.001723 1_554
Ni3_2 Pr2_2 3.001723 1_555
Ni3_2 Pr8_6 3.021054 1_455
Ni3_2 Pr8_7 3.021054 1_454
Ni3_3 Pr6_2 2.830093 1_555
Ni3_3 Pr6_3 2.830093 1_555
Ni3_3 Pr2_2 3.001723 1_555
Ni3_3 Pr2_3 3.001723 1_555
Ni3_3 Pr8_6 3.021054 1_455
Ni3_3 Pr8_7 3.021054 1_455
Ni3_4 Pr6_5 2.830093 1_554
Ni3_4 Pr6_4 2.830093 1_555
Ni3_4 Pr2_4 3.001723 1_555
Ni3_4 Pr2_5 3.001723 1_554
Ni3_4 Pr8_0 3.021054 1_555
Ni3_4 Pr8_1 3.021054 1_554
Ni3_5 Pr6_5 2.830093 1_555
Ni3_5 Pr6_4 2.830093 1_555
Ni3_5 Pr2_5 3.001723 1_555
Ni3_5 Pr2_4 3.001723 1_555
Ni3_5 Pr8_0 3.021054 1_555
Ni3_5 Pr8_1 3.021054 1_555
Ni3_6 Pr6_6 2.830093 1_555
Ni3_6 Pr6_7 2.830093 1_554
Ni3_6 Pr2_7 3.001723 1_554
Ni3_6 Pr2_6 3.001723 1_555
Ni3_6 Pr8_3 3.021054 1_554
Ni3_6 Pr8_2 3.021054 1_555
Ni3_7 Pr6_6 2.830093 1_555
Ni3_7 Pr6_7 2.830093 1_555
Ni3_7 Pr2_7 3.001723 1_555
Ni3_7 Pr2_6 3.001723 1_555
Ni3_7 Pr8_2 3.021054 1_555
Ni3_7 Pr8_3 3.021054 1_555
