# generated using pymatgen
data_TlBS2
_symmetry_space_group_name_H-M   'P 1'
_cell_length_a   8.26783612
_cell_length_b   8.26783612
_cell_length_c   8.26783514
_cell_angle_alpha   74.48566790
_cell_angle_beta   74.48566790
_cell_angle_gamma   74.48567294
_symmetry_Int_Tables_number   1
_chemical_formula_structural   TlBS2
_chemical_formula_sum   'Tl6 B6 S12'
_cell_volume   512.91303569
_cell_formula_units_Z   6
loop_
 _symmetry_equiv_pos_site_id
 _symmetry_equiv_pos_as_xyz
  1  'x, y, z'
loop_
 _atom_site_type_symbol
 _atom_site_label
 _atom_site_symmetry_multiplicity
 _atom_site_fract_x
 _atom_site_fract_y
 _atom_site_fract_z
 _atom_site_occupancy
  Tl  Tl0  1  0.32444427  0.72541800  0.72541800  1
  Tl  Tl1  1  0.72541800  0.32444427  0.72541800  1
  Tl  Tl2  1  0.72541800  0.72541800  0.32444427  1
  Tl  Tl3  1  0.67555573  0.27458200  0.27458200  1
  Tl  Tl4  1  0.27458200  0.67555573  0.27458200  1
  Tl  Tl5  1  0.27458200  0.27458200  0.67555573  1
  B  B0  1  0.10180310  0.40867000  0.10180310  1
  B  B1  1  0.10180310  0.10180310  0.40867000  1
  B  B2  1  0.40867000  0.10180310  0.10180310  1
  B  B3  1  0.89819690  0.89819690  0.59133000  1
  B  B4  1  0.59133000  0.89819690  0.89819690  1
  B  B5  1  0.89819690  0.59133000  0.89819690  1
  S  S0  1  0.96883625  0.34552710  0.96883625  1
  S  S1  1  0.34552710  0.96883625  0.96883625  1
  S  S2  1  0.96883625  0.96883625  0.34552710  1
  S  S3  1  0.65447290  0.03116375  0.03116375  1
  S  S4  1  0.03116375  0.03116375  0.65447290  1
  S  S5  1  0.03116375  0.65447290  0.03116375  1
  S  S6  1  0.97479752  0.65630229  0.65630229  1
  S  S7  1  0.65630229  0.65630229  0.97479752  1
  S  S8  1  0.65630229  0.97479752  0.65630229  1
  S  S9  1  0.34369771  0.02520248  0.34369771  1
  S  S10  1  0.02520248  0.34369771  0.34369771  1
  S  S11  1  0.34369771  0.34369771  0.02520248  1
loop_
_geom_bond_atom_site_label_1
_geom_bond_atom_site_label_2
_geom_bond_distance
_geom_bond_site_symmetry_2
B0 S10 1.902401 1_555
B0 S11 1.902401 1_555
B0 S5 1.929985 1_555
B0 S0 1.987525 1_454
B1 S9 1.902401 1_555
B1 S10 1.902401 1_555
B1 S4 1.929985 1_555
B1 S2 1.987525 1_445
B2 S9 1.902401 1_555
B2 S11 1.902401 1_555
B2 S3 1.929985 1_555
B2 S1 1.987525 1_544
B3 S6 1.902401 1_555
B3 S8 1.902401 1_555
B3 S2 1.929985 1_555
B3 S4 1.987525 1_665
B4 S8 1.902401 1_555
B4 S7 1.902401 1_555
B4 S1 1.929985 1_555
B4 S3 1.987525 1_566
B5 S6 1.902401 1_555
B5 S7 1.902401 1_555
B5 S0 1.929985 1_555
B5 S5 1.987525 1_656
S0 Tl3 3.049976 1_556
S0 Tl5 3.049976 1_655
S1 Tl4 3.049976 1_556
S1 Tl5 3.049976 1_565
S2 Tl3 3.049977 1_565
S2 Tl4 3.049977 1_655
S3 Tl1 3.049976 1_554
S3 Tl2 3.049976 1_545
S4 Tl0 3.049977 1_545
S4 Tl1 3.049977 1_455
S5 Tl0 3.049976 1_554
S5 Tl2 3.049976 1_455
