# generated using pymatgen
data_Rb2Te(MoO5)3
_symmetry_space_group_name_H-M   'P 1'
_cell_length_a   9.92681300
_cell_length_b   10.64095800
_cell_length_c   17.17778381
_cell_angle_alpha   67.51168333
_cell_angle_beta   90.00000000
_cell_angle_gamma   90.00000000
_symmetry_Int_Tables_number   1
_chemical_formula_structural   Rb2Te(MoO5)3
_chemical_formula_sum   'Rb8 Te4 Mo12 O60'
_cell_volume   1676.52378761
_cell_formula_units_Z   4
loop_
 _symmetry_equiv_pos_site_id
 _symmetry_equiv_pos_as_xyz
  1  'x, y, z'
loop_
 _atom_site_type_symbol
 _atom_site_label
 _atom_site_symmetry_multiplicity
 _atom_site_fract_x
 _atom_site_fract_y
 _atom_site_fract_z
 _atom_site_occupancy
  Rb  Rb0  1  0.13144500  0.72612000  0.24444600  1
  Rb  Rb1  1  0.63144500  0.27388000  0.25555400  1
  Rb  Rb2  1  0.86855500  0.27388000  0.75555400  1
  Rb  Rb3  1  0.36855500  0.72612000  0.74444600  1
  Rb  Rb4  1  0.13750400  0.08853000  0.58877900  1
  Rb  Rb5  1  0.63750400  0.91147000  0.91122100  1
  Rb  Rb6  1  0.86249600  0.91147000  0.41122100  1
  Rb  Rb7  1  0.36249600  0.08853000  0.08877900  1
  Te  Te0  1  0.14054500  0.43732900  0.93883400  1
  Te  Te1  1  0.64054500  0.56267100  0.56116600  1
  Te  Te2  1  0.85945500  0.56267100  0.06116600  1
  Te  Te3  1  0.35945500  0.43732900  0.43883400  1
  Mo  Mo0  1  0.24439800  0.73982900  0.99166200  1
  Mo  Mo1  1  0.74439800  0.26017100  0.50833800  1
  Mo  Mo2  1  0.75560200  0.26017100  0.00833800  1
  Mo  Mo3  1  0.25560200  0.73982900  0.49166200  1
  Mo  Mo4  1  0.99588400  0.18812000  0.16038600  1
  Mo  Mo5  1  0.49588400  0.81188000  0.33961400  1
  Mo  Mo6  1  0.00411600  0.81188000  0.83961400  1
  Mo  Mo7  1  0.50411600  0.18812000  0.66038600  1
  Mo  Mo8  1  0.24287900  0.41049800  0.15757400  1
  Mo  Mo9  1  0.74287900  0.58950200  0.34242600  1
  Mo  Mo10  1  0.75712100  0.58950200  0.84242600  1
  Mo  Mo11  1  0.25712100  0.41049800  0.65757400  1
  O  O0  1  0.02338600  0.59998700  0.09805300  1
  O  O1  1  0.52338600  0.40001300  0.40194700  1
  O  O2  1  0.97661400  0.40001300  0.90194700  1
  O  O3  1  0.47661400  0.59998700  0.59805300  1
  O  O4  1  0.14019000  0.62653900  0.91406400  1
  O  O5  1  0.64019000  0.37346100  0.58593600  1
  O  O6  1  0.85981000  0.37346100  0.08593600  1
  O  O7  1  0.35981000  0.62653900  0.41406400  1
  O  O8  1  0.13990000  0.34211400  0.05723200  1
  O  O9  1  0.63990000  0.65788600  0.44276800  1
  O  O10  1  0.86010000  0.65788600  0.94276800  1
  O  O11  1  0.36010000  0.34211400  0.55723200  1
  O  O12  1  0.09064400  0.84191000  0.93378600  1
  O  O13  1  0.59064400  0.15809000  0.56621400  1
  O  O14  1  0.90935600  0.15809000  0.06621400  1
  O  O15  1  0.40935600  0.84191000  0.43378600  1
  O  O16  1  0.08601300  0.30564000  0.20772300  1
  O  O17  1  0.58601300  0.69436000  0.29227700  1
  O  O18  1  0.91398700  0.69436000  0.79227700  1
  O  O19  1  0.41398700  0.30564000  0.70772300  1
  O  O20  1  0.20374000  0.55512400  0.55428200  1
  O  O21  1  0.70374000  0.44487600  0.94571800  1
  O  O22  1  0.79626000  0.44487600  0.44571800  1
  O  O23  1  0.29626000  0.55512400  0.05428200  1
  O  O24  1  0.22847400  0.81359000  0.56517000  1
  O  O25  1  0.72847400  0.18641000  0.93483000  1
  O  O26  1  0.77152600  0.18641000  0.43483000  1
  O  O27  1  0.27152600  0.81359000  0.06517000  1
  O  O28  1  0.12446200  0.80042200  0.41956100  1
  O  O29  1  0.62446200  0.19957800  0.08043900  1
  O  O30  1  0.87553800  0.19957800  0.58043900  1
  O  O31  1  0.37553800  0.80042200  0.91956100  1
  O  O32  1  0.12295600  0.87774100  0.75990600  1
  O  O33  1  0.62295600  0.12225900  0.74009400  1
  O  O34  1  0.87704400  0.12225900  0.24009400  1
  O  O35  1  0.37704400  0.87774100  0.25990600  1
  O  O36  1  0.11408300  0.05864300  0.18049900  1
  O  O37  1  0.61408300  0.94135700  0.31950100  1
  O  O38  1  0.88591700  0.94135700  0.81950100  1
  O  O39  1  0.38591700  0.05864300  0.68049900  1
  O  O40  1  0.12905500  0.28983700  0.67655600  1
  O  O41  1  0.62905500  0.71016300  0.82344400  1
  O  O42  1  0.87094500  0.71016300  0.32344400  1
  O  O43  1  0.37094500  0.28983700  0.17655600  1
  O  O44  1  0.22608100  0.49033300  0.72661500  1
  O  O45  1  0.72608100  0.50966700  0.77338500  1
  O  O46  1  0.77391900  0.50966700  0.27338500  1
  O  O47  1  0.27391900  0.49033300  0.22661500  1
  O  O48  1  0.15624600  0.15421300  0.89281100  1
  O  O49  1  0.65624600  0.84578700  0.60718900  1
  O  O50  1  0.84375400  0.84578700  0.10718900  1
  O  O51  1  0.34375400  0.15421300  0.39281100  1
  O  O52  1  0.19882900  0.39803900  0.40337100  1
  O  O53  1  0.69882900  0.60196100  0.09662900  1
  O  O54  1  0.80117100  0.60196100  0.59662900  1
  O  O55  1  0.30117100  0.39803900  0.90337100  1
  O  O56  1  0.22556500  0.13106500  0.38055700  1
  O  O57  1  0.72556500  0.86893500  0.11944300  1
  O  O58  1  0.77443500  0.86893500  0.61944300  1
  O  O59  1  0.27443500  0.13106500  0.88055700  1
loop_
_geom_bond_atom_site_label_1
_geom_bond_atom_site_label_2
_geom_bond_distance
_geom_bond_site_symmetry_2
Mo0 O31 1.741691 1_555
Mo0 O27 1.743892 1_556
Mo0 O23 1.915136 1_556
Mo0 O12 1.916178 1_555
Mo0 O4 2.351470 1_555
Mo1 O30 1.741691 1_555
Mo1 O26 1.743892 1_555
Mo1 O22 1.915136 1_555
Mo1 O13 1.916178 1_555
Mo1 O5 2.351470 1_555
Mo2 O29 1.741691 1_555
Mo2 O25 1.743892 1_554
Mo2 O21 1.915136 1_554
Mo2 O14 1.916178 1_555
Mo2 O6 2.351470 1_555
Mo3 O28 1.741691 1_555
Mo3 O24 1.743892 1_555
Mo3 O20 1.915136 1_555
Mo3 O15 1.916178 1_555
Mo3 O7 2.351470 1_555
Mo4 O34 1.738826 1_555
Mo4 O36 1.740738 1_655
Mo4 O16 1.950226 1_655
Mo4 O14 1.962699 1_555
Mo4 O6 2.328149 1_555
Mo4 O8 2.376461 1_655
Mo5 O35 1.738826 1_555
Mo5 O37 1.740738 1_555
Mo5 O17 1.950226 1_555
Mo5 O15 1.962699 1_555
Mo5 O7 2.328149 1_555
Mo5 O9 2.376461 1_555
Mo6 O32 1.738826 1_555
Mo6 O38 1.740738 1_455
Mo6 O18 1.950226 1_455
Mo6 O12 1.962699 1_555
Mo6 O4 2.328149 1_555
Mo6 O10 2.376461 1_455
Mo7 O33 1.738826 1_555
Mo7 O39 1.740738 1_555
Mo7 O19 1.950226 1_555
Mo7 O13 1.962699 1_555
Mo7 O5 2.328149 1_555
Mo7 O11 2.376461 1_555
Mo8 O47 1.730286 1_555
Mo8 O43 1.746639 1_555
Mo8 O16 1.917442 1_555
Mo8 O23 1.925756 1_555
Mo8 O8 2.346269 1_555
Mo9 O46 1.730286 1_555
Mo9 O42 1.746639 1_555
Mo9 O17 1.917442 1_555
Mo9 O22 1.925756 1_555
Mo9 O9 2.346269 1_555
Mo10 O45 1.730286 1_555
Mo10 O41 1.746639 1_555
Mo10 O18 1.917442 1_555
Mo10 O21 1.925756 1_555
Mo10 O10 2.346269 1_555
Mo11 O44 1.730286 1_555
Mo11 O40 1.746639 1_555
Mo11 O19 1.917442 1_555
Mo11 O20 1.925756 1_555
Mo11 O11 2.346269 1_555
O0 Te2 1.843851 1_455
O0 Rb0 3.443518 1_555
O1 Te3 1.843851 1_555
O1 Rb1 3.443518 1_555
O2 Te0 1.843851 1_655
O2 Rb2 3.443518 1_555
O3 Te1 1.843851 1_555
O3 Rb3 3.443518 1_555
O4 Te0 1.891927 1_555
O4 Rb3 3.519859 1_555
O5 Te1 1.891927 1_555
O5 Rb2 3.519859 1_555
O6 Te2 1.891927 1_555
O6 Rb1 3.519859 1_555
O7 Te3 1.891927 1_555
O7 Rb0 3.519859 1_555
O8 Te0 1.893838 1_554
O9 Te1 1.893838 1_555
O10 Te2 1.893838 1_556
O11 Te3 1.893838 1_555
O24 Rb3 3.176627 1_555
O24 Rb4 3.232165 1_565
O25 Rb2 3.176627 1_555
O25 Rb5 3.232165 1_545
O26 Rb1 3.176627 1_555
O26 Rb6 3.232165 1_545
O27 Rb0 3.176627 1_555
O27 Rb7 3.232165 1_565
O28 Rb6 2.837229 1_455
O28 Rb0 3.390857 1_555
O29 Rb7 2.837229 1_555
O29 Rb1 3.390857 1_555
O30 Rb4 2.837229 1_655
O30 Rb2 3.390857 1_555
O31 Rb5 2.837229 1_555
O31 Rb3 3.390857 1_555
O32 Rb4 2.940934 1_565
O32 Rb3 2.990862 1_555
O33 Rb5 2.940934 1_545
O33 Rb2 2.990862 1_555
O34 Rb6 2.940934 1_545
O34 Rb1 2.990862 1_555
O35 Rb7 2.940934 1_565
O35 Rb0 2.990862 1_555
O36 Rb7 2.877687 1_555
O36 Rb0 3.283748 1_545
O37 Rb6 2.877687 1_555
O37 Rb1 3.283748 1_565
O38 Rb5 2.877687 1_555
O38 Rb2 3.283748 1_565
O39 Rb4 2.877687 1_555
O39 Rb3 3.283748 1_545
O40 Rb2 2.895013 1_455
O40 Rb4 3.056135 1_555
O41 Rb3 2.895013 1_555
O41 Rb5 3.056135 1_555
O42 Rb0 2.895013 1_655
O42 Rb6 3.056135 1_555
O43 Rb1 2.895013 1_555
O43 Rb7 3.056135 1_555
O44 Rb3 2.996176 1_555
O45 Rb2 2.996176 1_555
O46 Rb1 2.996176 1_555
O47 Rb0 2.996176 1_555
O48 O59 1.233344 1_555
O48 Rb2 3.611056 1_455
O49 O58 1.233344 1_555
O49 Rb3 3.611056 1_555
O50 O57 1.233344 1_555
O50 Rb0 3.611056 1_655
O51 O56 1.233344 1_555
O51 Rb1 3.611056 1_555
O52 Te3 1.811951 1_555
O52 Rb0 3.577310 1_555
O53 Te2 1.811951 1_555
O53 Rb1 3.577310 1_555
O54 Te1 1.811951 1_555
O54 Rb2 3.577310 1_555
O55 Te0 1.811951 1_555
O55 Rb3 3.577310 1_555
