# generated using pymatgen
data_CdGaRh2
_symmetry_space_group_name_H-M   'P 1'
_cell_length_a   4.39106749
_cell_length_b   4.39106749
_cell_length_c   4.39106749
_cell_angle_alpha   60.00000000
_cell_angle_beta   60.00000000
_cell_angle_gamma   60.00000000
_symmetry_Int_Tables_number   1
_chemical_formula_structural   CdGaRh2
_chemical_formula_sum   'Cd1 Ga1 Rh2'
_cell_volume   59.86808123
_cell_formula_units_Z   1
loop_
 _symmetry_equiv_pos_site_id
 _symmetry_equiv_pos_as_xyz
  1  'x, y, z'
loop_
 _atom_site_type_symbol
 _atom_site_label
 _atom_site_symmetry_multiplicity
 _atom_site_fract_x
 _atom_site_fract_y
 _atom_site_fract_z
 _atom_site_occupancy
  Cd  Cd0  1  0.24999900  0.24999900  0.24999900  1
  Ga  Ga0  1  0.75000000  0.75000000  0.75000000  1
  Rh  Rh0  1  0.00000000  0.00000000  0.00000000  1
  Rh  Rh1  1  0.49999900  0.49999900  0.49999900  1
loop_
_geom_bond_atom_site_label_1
_geom_bond_atom_site_label_2
_geom_bond_distance
_geom_bond_site_symmetry_2
Cd0 Rh0 2.688958 1_555
Cd0 Rh1 2.688969 1_545
Cd0 Rh1 2.688969 1_554
Cd0 Rh1 2.688969 1_455
Cd0 Rh1 2.688969 1_555
Cd0 Rh0 2.688972 1_556
Cd0 Rh0 2.688972 1_565
Cd0 Rh0 2.688972 1_655
Ga0 Rh1 2.688965 1_655
Ga0 Rh1 2.688965 1_556
Ga0 Rh1 2.688965 1_565
Ga0 Rh0 2.688969 1_665
Ga0 Rh0 2.688969 1_666
Ga0 Rh0 2.688969 1_566
Ga0 Rh0 2.688969 1_656
Ga0 Rh1 2.688979 1_555
