# generated using pymatgen
data_Ba3Er2Cu2PtO10
_symmetry_space_group_name_H-M   'P 1'
_cell_length_a   6.92003685
_cell_length_b   6.92003685
_cell_length_c   7.49914075
_cell_angle_alpha   75.75347272
_cell_angle_beta   75.75347272
_cell_angle_gamma   50.08144949
_symmetry_Int_Tables_number   1
_chemical_formula_structural   Ba3Er2Cu2PtO10
_chemical_formula_sum   'Ba3 Er2 Cu2 Pt1 O10'
_cell_volume   265.06755625
_cell_formula_units_Z   1
loop_
 _symmetry_equiv_pos_site_id
 _symmetry_equiv_pos_as_xyz
  1  'x, y, z'
loop_
 _atom_site_type_symbol
 _atom_site_label
 _atom_site_symmetry_multiplicity
 _atom_site_fract_x
 _atom_site_fract_y
 _atom_site_fract_z
 _atom_site_occupancy
  Ba  Ba0  1  0.00000000  0.00000000  0.00000000  1
  Ba  Ba1  1  0.15403700  0.15403700  0.45493700  1
  Ba  Ba2  1  0.84596300  0.84596300  0.54506300  1
  Er  Er0  1  0.31076100  0.31076100  0.87440900  1
  Er  Er1  1  0.68923900  0.68923900  0.12559100  1
  Cu  Cu0  1  0.41109900  0.41109900  0.19728100  1
  Cu  Cu1  1  0.58890100  0.58890100  0.80271900  1
  Pt  Pt0  1  0.50000000  0.50000000  0.50000000  1
  O  O0  1  0.33157500  0.33157500  0.55552700  1
  O  O1  1  0.66842500  0.66842500  0.44447300  1
  O  O2  1  0.91232700  0.45569100  0.87706900  1
  O  O3  1  0.54430900  0.08767300  0.12293100  1
  O  O4  1  0.08767300  0.54430900  0.12293100  1
  O  O5  1  0.45569100  0.91232700  0.87706900  1
  O  O6  1  0.73764200  0.29843100  0.28037600  1
  O  O7  1  0.70156900  0.26235800  0.71962400  1
  O  O8  1  0.29843100  0.73764200  0.28037600  1
  O  O9  1  0.26235800  0.70156900  0.71962400  1
loop_
_geom_bond_atom_site_label_1
_geom_bond_atom_site_label_2
_geom_bond_distance
_geom_bond_site_symmetry_2
Ba0 O8 2.725486 1_545
Ba0 O6 2.725486 1_455
Ba0 O9 2.725486 1_544
Ba0 O7 2.725486 1_454
Ba0 O5 2.747905 1_544
Ba0 O2 2.747905 1_454
Ba0 O4 2.747905 1_545
Ba0 O3 2.747905 1_455
Ba1 O0 2.537165 1_555
Ba1 O8 2.921047 1_545
Ba1 O6 2.921047 1_455
Ba1 O1 2.934281 1_455
Ba1 O1 2.934281 1_545
Ba1 O7 2.994456 1_455
Ba1 O9 2.994456 1_545
Ba1 O4 3.060238 1_555
Ba1 O3 3.060238 1_555
Ba2 O1 2.537165 1_555
Ba2 O7 2.921047 1_565
Ba2 O9 2.921047 1_655
Ba2 O0 2.934281 1_655
Ba2 O0 2.934281 1_565
Ba2 O6 2.994456 1_565
Ba2 O8 2.994456 1_655
Ba2 O2 3.060238 1_555
Ba2 O5 3.060238 1_555
Er0 O2 2.245477 1_455
Er0 O5 2.245477 1_545
Er0 O3 2.309316 1_556
Er0 O4 2.309316 1_556
Er0 O0 2.334004 1_555
Er0 O9 2.501420 1_555
Er0 O7 2.501420 1_555
Er1 O3 2.245477 1_565
Er1 O4 2.245477 1_655
Er1 O2 2.309316 1_554
Er1 O5 2.309316 1_554
Er1 O1 2.334004 1_555
Er1 O6 2.501420 1_555
Er1 O8 2.501420 1_555
Cu0 O3 1.970585 1_555
Cu0 O4 1.970585 1_555
Cu0 O6 2.072490 1_555
Cu0 O8 2.072490 1_555
Cu0 O0 2.599326 1_555
Cu1 O2 1.970585 1_555
Cu1 O5 1.970585 1_555
Cu1 O7 2.072490 1_555
Cu1 O9 2.072490 1_555
Cu1 O1 2.599326 1_555
O0 Pt0 2.038588 1_555
O1 Pt0 2.038588 1_555
O6 Pt0 2.053367 1_555
O7 Pt0 2.053367 1_555
O8 Pt0 2.053367 1_555
O9 Pt0 2.053367 1_555
