# generated using pymatgen
data_ReOs3
_symmetry_space_group_name_H-M   'P 1'
_cell_length_a   5.50999456
_cell_length_b   5.50999436
_cell_length_c   4.34133602
_cell_angle_alpha   90.00000000
_cell_angle_beta   90.00000000
_cell_angle_gamma   120.00002984
_symmetry_Int_Tables_number   1
_chemical_formula_structural   ReOs3
_chemical_formula_sum   'Re2 Os6'
_cell_volume   114.14482511
_cell_formula_units_Z   2
loop_
 _symmetry_equiv_pos_site_id
 _symmetry_equiv_pos_as_xyz
  1  'x, y, z'
loop_
 _atom_site_type_symbol
 _atom_site_label
 _atom_site_symmetry_multiplicity
 _atom_site_fract_x
 _atom_site_fract_y
 _atom_site_fract_z
 _atom_site_occupancy
  Re  Re0  1  0.33333300  0.66666700  0.75000100  1
  Re  Re1  1  0.66666700  0.33333300  0.25000100  1
  Os  Os0  1  0.16721854  0.33443508  0.25000100  1
  Os  Os1  1  0.66556292  0.83278046  0.25000100  1
  Os  Os2  1  0.16721854  0.83278046  0.25000100  1
  Os  Os3  1  0.83278046  0.66556392  0.75000100  1
  Os  Os4  1  0.33443508  0.16721854  0.75000100  1
  Os  Os5  1  0.83278146  0.16721854  0.75000100  1
loop_
_geom_bond_atom_site_label_1
_geom_bond_atom_site_label_2
_geom_bond_distance
_geom_bond_site_symmetry_2
Os0 Re0 2.687956 1_555
Os0 Re0 2.687956 1_554
Os0 Os4 2.694165 1_555
Os0 Os4 2.694165 1_554
Os0 Os5 2.694176 1_455
Os0 Os5 2.694176 1_454
Os0 Os1 2.745876 1_555
Os0 Os2 2.745880 1_555
Os0 Re1 2.755000 1_555
Os0 Re1 2.755005 1_455
Os0 Os2 2.764114 1_545
Os0 Os1 2.764116 1_445
Os1 Re0 2.687951 1_555
Os1 Re0 2.687951 1_554
Os1 Os3 2.694168 1_555
Os1 Os3 2.694168 1_554
Os1 Os5 2.694179 1_565
Os1 Os5 2.694179 1_564
Os1 Os2 2.745875 1_555
Os1 Re1 2.754999 1_555
Os1 Re1 2.755005 1_565
Os1 Os2 2.764120 1_655
Os2 Re0 2.687946 1_555
Os2 Re0 2.687946 1_554
Os2 Os4 2.694179 1_565
Os2 Os4 2.694179 1_564
Os2 Os3 2.694179 1_455
Os2 Os3 2.694179 1_454
Os2 Re1 2.754998 1_455
Os2 Re1 2.755004 1_565
Os3 Re1 2.687954 1_555
Os3 Re1 2.687954 1_556
Os3 Os4 2.745879 1_555
Os3 Os5 2.745883 1_555
Os3 Re0 2.754997 1_555
Os3 Re0 2.755008 1_655
Os3 Os5 2.764111 1_565
Os3 Os4 2.764113 1_665
Os4 Re1 2.687956 1_555
Os4 Re1 2.687956 1_556
Os4 Os5 2.745886 1_555
Os4 Re0 2.754999 1_555
Os4 Re0 2.755005 1_545
Os4 Os5 2.764109 1_455
Os5 Re1 2.687948 1_555
Os5 Re1 2.687948 1_556
Os5 Re0 2.755001 1_545
Os5 Re0 2.755001 1_655
