# generated using pymatgen
data_Li4V3P8O29
_symmetry_space_group_name_H-M   'P 1'
_cell_length_a   9.75417100
_cell_length_b   9.77415308
_cell_length_c   14.20400330
_cell_angle_alpha   90.14555696
_cell_angle_beta   90.01221831
_cell_angle_gamma   119.75062747
_symmetry_Int_Tables_number   1
_chemical_formula_structural   Li4V3P8O29
_chemical_formula_sum   'Li8 V6 P16 O58'
_cell_volume   1175.69510192
_cell_formula_units_Z   2
loop_
 _symmetry_equiv_pos_site_id
 _symmetry_equiv_pos_as_xyz
  1  'x, y, z'
loop_
 _atom_site_type_symbol
 _atom_site_label
 _atom_site_symmetry_multiplicity
 _atom_site_fract_x
 _atom_site_fract_y
 _atom_site_fract_z
 _atom_site_occupancy
  Li  Li0  1  0.33095700  0.09685500  0.55535100  1
  Li  Li1  1  0.90727300  0.67807600  0.05729600  1
  Li  Li2  1  0.77586300  0.08353700  0.06056900  1
  Li  Li3  1  0.90853300  0.23151600  0.55667000  1
  Li  Li4  1  0.22261600  0.91751600  0.94197000  1
  Li  Li5  1  0.08828300  0.31317800  0.95016800  1
  Li  Li6  1  0.66815300  0.89957400  0.44184500  1
  Li  Li7  1  0.00872500  0.95472300  0.49014400  1
  V  V0  1  0.00222300  0.56907200  0.25978600  1
  V  V1  1  0.00073400  0.43821800  0.74378000  1
  V  V2  1  0.43373300  0.00286100  0.75314100  1
  V  V3  1  0.56489500  0.99810700  0.24656300  1
  V  V4  1  0.43259700  0.43545600  0.24960600  1
  V  V5  1  0.56715900  0.56413800  0.74713700  1
  P  P0  1  0.31457700  0.23359300  0.84422600  1
  P  P1  1  0.31351000  0.08950700  0.33967700  1
  P  P2  1  0.77410200  0.69526400  0.34095000  1
  P  P3  1  0.67371900  0.33950500  0.13319800  1
  P  P4  1  0.66509500  0.33134800  0.62976900  1
  P  P5  1  0.90986400  0.68191500  0.83948400  1
  P  P6  1  0.08589600  0.78139900  0.65840200  1
  P  P7  1  0.77444400  0.09498800  0.84091400  1
  P  P8  1  0.22466500  0.90723300  0.16041700  1
  P  P9  1  0.91023200  0.22415800  0.34283900  1
  P  P10  1  0.08904800  0.32002600  0.16328100  1
  P  P11  1  0.33740200  0.66612500  0.37036000  1
  P  P12  1  0.33067000  0.66347200  0.86598900  1
  P  P13  1  0.22507100  0.30551500  0.65793200  1
  P  P14  1  0.68519500  0.91234700  0.66177400  1
  P  P15  1  0.68537400  0.76845500  0.15502300  1
  O  O0  1  0.21085700  0.20245000  0.57653500  1
  O  O1  1  0.34485200  0.26080400  0.32800700  1
  O  O2  1  0.23068800  0.98354400  0.06933400  1
  O  O3  1  0.33580800  0.08604700  0.84234400  1
  O  O4  1  0.47560700  0.38268500  0.82225100  1
  O  O5  1  0.53034000  0.34447700  0.18099600  1
  O  O6  1  0.61503900  0.54141300  0.33317500  1
  O  O7  1  0.76902400  0.75919800  0.07053800  1
  O  O8  1  0.74233200  0.65818900  0.83379800  1
  O  O9  1  0.51124800  0.18717800  0.66722600  1
  O  O10  1  0.46781100  0.08595900  0.32882000  1
  O  O11  1  0.67181100  0.48138800  0.67658900  1
  O  O12  1  0.67857900  0.35119700  0.02876600  1
  O  O13  1  0.67561000  0.33558800  0.52533000  1
  O  O14  1  0.82322700  0.48603200  0.17786800  1
  O  O15  1  0.62133500  0.10266200  0.82047100  1
  O  O16  1  0.67172400  0.18570900  0.16834000  1
  O  O17  1  0.91231000  0.65797700  0.33630400  1
  O  O18  1  0.00731200  0.79852600  0.75505700  1
  O  O19  1  0.00447300  0.79727300  0.57502400  1
  O  O20  1  0.99629900  0.75075300  0.93001100  1
  O  O21  1  0.90269700  0.52206100  0.81690800  1
  O  O22  1  0.81421900  0.32312100  0.67111200  1
  O  O23  1  0.07806900  0.73910700  0.16653100  1
  O  O24  1  0.90821200  0.38120200  0.32916200  1
  O  O25  1  0.74005600  0.08125600  0.33467100  1
  O  O26  1  0.20402500  0.99768900  0.24945200  1
  O  O27  1  0.22520000  0.02010400  0.42892000  1
  O  O28  1  0.77280100  0.99424700  0.57347200  1
  O  O29  1  0.25967700  0.91835400  0.66504600  1
  O  O30  1  0.08220400  0.62007700  0.66912600  1
  O  O31  1  0.92234100  0.26295500  0.83375800  1
  O  O32  1  0.18734200  0.66999400  0.32693400  1
  O  O33  1  0.09492400  0.47802600  0.18277400  1
  O  O34  1  0.99936000  0.24217700  0.07492300  1
  O  O35  1  0.98458100  0.21689800  0.43269100  1
  O  O36  1  0.99997000  0.20725900  0.25212900  1
  O  O37  1  0.08443700  0.34058200  0.65829900  1
  O  O38  1  0.32933700  0.81591100  0.83327000  1
  O  O39  1  0.37751800  0.89812500  0.17988100  1
  O  O40  1  0.18013500  0.51817200  0.81715700  1
  O  O41  1  0.31760400  0.64179200  0.96968000  1
  O  O42  1  0.32920900  0.65617100  0.47450900  1
  O  O43  1  0.32995300  0.51769700  0.32113000  1
  O  O44  1  0.52854300  0.91044100  0.67405300  1
  O  O45  1  0.48982500  0.81271500  0.33330800  1
  O  O46  1  0.25713300  0.34307400  0.16478100  1
  O  O47  1  0.20360900  0.20948000  0.75353200  1
  O  O48  1  0.23412600  0.24492400  0.92963000  1
  O  O49  1  0.38409200  0.46165800  0.66825300  1
  O  O50  1  0.47327900  0.65957500  0.81794600  1
  O  O51  1  0.52518500  0.61857600  0.17557500  1
  O  O52  1  0.66205200  0.91488100  0.15653500  1
  O  O53  1  0.76940700  0.02052800  0.93259200  1
  O  O54  1  0.79403900  0.00128000  0.75289500  1
  O  O55  1  0.65835800  0.74227700  0.66791600  1
  O  O56  1  0.79640200  0.80084500  0.42317500  1
  O  O57  1  0.79426100  0.79470500  0.24712800  1
loop_
_geom_bond_atom_site_label_1
_geom_bond_atom_site_label_2
_geom_bond_distance
_geom_bond_site_symmetry_2
Li0 O0 1.930455 1_555
Li0 O27 2.018971 1_555
Li0 O29 2.182993 1_545
Li0 O9 2.201827 1_555
Li1 O7 1.882296 1_555
Li1 O20 1.980501 1_554
Li1 O23 2.132274 1_655
Li1 O14 2.370274 1_555
Li2 O53 1.908761 1_554
Li2 O34 1.960049 1_555
Li2 O52 2.000936 1_545
Li2 O16 2.317770 1_555
Li3 O35 1.943254 1_555
Li3 O28 2.035629 1_545
Li3 O37 2.083272 1_655
Li3 O22 2.258555 1_555
Li4 O2 1.907627 1_556
Li4 O20 1.996557 1_455
Li4 O3 2.035300 1_565
Li4 O38 2.339365 1_555
Li5 O48 1.869478 1_555
Li5 O34 1.945123 1_456
Li5 O31 2.191144 1_455
Li5 O40 2.573920 1_555
Li6 O56 1.939933 1_555
Li6 O28 2.108720 1_555
Li6 O45 2.156326 1_555
Li6 O25 2.177350 1_565
Li7 O19 1.941576 1_555
Li7 O27 2.070660 1_565
Li7 O56 2.087253 1_455
Li7 O0 2.549872 1_565
O0 P13 1.492024 1_555
O1 P1 1.554865 1_555
O1 V4 1.856556 1_555
O2 P8 1.481553 1_555
O3 P0 1.555496 1_555
O3 V2 1.986174 1_555
O4 P0 1.555319 1_555
O4 V5 1.876017 1_555
O5 P3 1.576994 1_555
O5 V4 1.867311 1_555
O6 P2 1.537629 1_555
O6 V4 1.952484 1_555
O7 P15 1.478896 1_555
O8 P5 1.534422 1_555
O8 V5 1.927247 1_555
O9 P4 1.557619 1_555
O9 V2 1.991523 1_555
O10 P1 1.530398 1_555
O10 V3 1.949764 1_545
O11 P4 1.580159 1_555
O11 V5 1.875111 1_555
O12 P3 1.486996 1_555
O13 P4 1.486279 1_555
O14 P3 1.581961 1_555
O14 V0 1.910222 1_655
O15 P7 1.559307 1_555
O15 V2 1.854096 1_555
O16 P3 1.576074 1_555
O16 V3 1.948627 1_545
O17 P2 1.562717 1_555
O17 V0 1.859441 1_655
O18 P5 1.604023 1_455
O18 P6 1.620812 1_555
O19 P6 1.476566 1_555
O20 P5 1.499694 1_555
O21 P5 1.561400 1_555
O21 V1 1.854396 1_655
O22 P4 1.607195 1_555
O22 V1 1.898128 1_655
O23 P8 1.556071 1_555
O23 V0 1.963491 1_555
O24 P9 1.557497 1_555
O24 V0 1.876767 1_655
O25 P9 1.554932 1_555
O25 V3 1.939512 1_545
O26 P8 1.610171 1_555
O26 P1 1.621935 1_565
O27 P1 1.494626 1_555
O28 P14 1.506921 1_555
O29 P6 1.556108 1_555
O29 V2 1.931976 1_565
O30 P6 1.567042 1_555
O30 V1 1.877111 1_555
O31 P7 1.561139 1_555
O31 V1 1.965750 1_655
O32 P11 1.605932 1_555
O32 V0 1.835745 1_555
O33 P10 1.541050 1_555
O33 V0 1.897412 1_555
O34 P10 1.501156 1_655
O35 P9 1.486924 1_555
O36 P9 1.611349 1_555
O36 P10 1.618494 1_655
O37 P13 1.570309 1_555
O37 V1 1.954308 1_555
O38 P12 1.568082 1_555
O38 V2 1.958484 1_565
O39 P8 1.561723 1_555
O39 V3 1.847847 1_555
O40 P12 1.605937 1_555
O40 V1 1.843110 1_555
O41 P12 1.485001 1_555
O42 P11 1.482344 1_555
O43 P11 1.577706 1_555
O43 V4 1.864321 1_555
O44 P14 1.528876 1_555
O44 V2 1.938444 1_565
O45 P11 1.558959 1_555
O45 V3 2.008164 1_555
O46 P10 1.540346 1_555
O46 V4 1.912093 1_555
O47 P13 1.606358 1_555
O47 P0 1.622137 1_555
O48 P0 1.478380 1_555
O49 P13 1.551132 1_555
O49 V5 1.914600 1_555
O50 P12 1.566829 1_555
O50 V5 1.887762 1_555
O51 P15 1.550280 1_555
O51 V4 1.878994 1_555
O52 P15 1.556754 1_555
O52 V3 1.988812 1_555
O53 P7 1.482278 1_555
O54 P7 1.614470 1_555
O54 P14 1.623492 1_545
O55 P14 1.551848 1_555
O55 V5 1.887420 1_555
O56 P2 1.499101 1_555
O57 P2 1.605093 1_555
O57 P15 1.622556 1_555
