# generated using pymatgen
data_Li2PdPb
_symmetry_space_group_name_H-M   'P 1'
_cell_length_a   4.48979687
_cell_length_b   4.48979687
_cell_length_c   4.48979687
_cell_angle_alpha   60.00000000
_cell_angle_beta   60.00000000
_cell_angle_gamma   60.00000000
_symmetry_Int_Tables_number   1
_chemical_formula_structural   Li2PdPb
_chemical_formula_sum   'Li2 Pd1 Pb1'
_cell_volume   63.99780511
_cell_formula_units_Z   1
loop_
 _symmetry_equiv_pos_site_id
 _symmetry_equiv_pos_as_xyz
  1  'x, y, z'
loop_
 _atom_site_type_symbol
 _atom_site_label
 _atom_site_symmetry_multiplicity
 _atom_site_fract_x
 _atom_site_fract_y
 _atom_site_fract_z
 _atom_site_occupancy
  Li  Li0  1  -0.00000000  -0.00000000  -0.00000000  1
  Li  Li1  1  0.50000000  0.50000000  0.50000000  1
  Pd  Pd0  1  0.75000100  0.75000100  0.75000100  1
  Pb  Pb0  1  0.25000000  0.25000000  0.25000000  1
loop_
_geom_bond_atom_site_label_1
_geom_bond_atom_site_label_2
_geom_bond_distance
_geom_bond_site_symmetry_2
Li0 Pd0 2.749417 1_444
Li0 Pb0 2.749428 1_555
Li0 Pb0 2.749428 1_545
Li0 Pb0 2.749428 1_455
Li0 Pb0 2.749428 1_554
Li0 Pd0 2.749432 1_445
Li0 Pd0 2.749432 1_544
Li0 Pd0 2.749432 1_454
Li1 Pd0 2.749424 1_545
Li1 Pd0 2.749424 1_554
Li1 Pd0 2.749424 1_455
Li1 Pb0 2.749428 1_555
Li1 Pb0 2.749428 1_556
Li1 Pb0 2.749428 1_655
Li1 Pb0 2.749428 1_565
Li1 Pd0 2.749439 1_555
