# generated using pymatgen
data_AcAu3
_symmetry_space_group_name_H-M   'P 1'
_cell_length_a   6.92286664
_cell_length_b   6.92286739
_cell_length_c   4.68973519
_cell_angle_alpha   89.99985477
_cell_angle_beta   90.00014800
_cell_angle_gamma   120.00001726
_symmetry_Int_Tables_number   1
_chemical_formula_structural   AcAu3
_chemical_formula_sum   'Ac2 Au6'
_cell_volume   194.64840754
_cell_formula_units_Z   2
loop_
 _symmetry_equiv_pos_site_id
 _symmetry_equiv_pos_as_xyz
  1  'x, y, z'
loop_
 _atom_site_type_symbol
 _atom_site_label
 _atom_site_symmetry_multiplicity
 _atom_site_fract_x
 _atom_site_fract_y
 _atom_site_fract_z
 _atom_site_occupancy
  Ac  Ac0  1  0.33333374  0.66666659  0.75000141  1
  Ac  Ac1  1  0.66666617  0.33333382  0.24999945  1
  Au  Au0  1  0.14575941  0.29151811  0.24999978  1
  Au  Au1  1  0.70848200  0.85424067  0.24999977  1
  Au  Au2  1  0.14575943  0.85424072  0.24999831  1
  Au  Au3  1  0.85424087  0.70848146  0.75000294  1
  Au  Au4  1  0.29151864  0.14575928  0.75000296  1
  Au  Au5  1  0.85424075  0.14575935  0.74999938  1
loop_
_geom_bond_atom_site_label_1
_geom_bond_atom_site_label_2
_geom_bond_distance
_geom_bond_site_symmetry_2
Ac0 Au1 3.249162 1_556
Ac0 Au0 3.249163 1_556
Ac0 Au2 3.249165 1_556
Ac0 Au2 3.249177 1_555
Ac0 Au1 3.249178 1_555
Ac0 Au0 3.249179 1_555
Ac0 Au3 3.470498 1_555
Ac0 Au5 3.470498 1_565
Ac0 Au4 3.470499 1_555
Ac0 Au5 3.470500 1_455
Ac0 Au4 3.470502 1_565
Ac0 Au3 3.470502 1_455
Ac1 Au4 3.249152 1_554
Ac1 Au3 3.249153 1_554
Ac1 Au5 3.249168 1_555
Ac1 Au5 3.249179 1_554
Ac1 Au4 3.249181 1_555
Ac1 Au3 3.249181 1_555
Ac1 Au0 3.470493 1_555
Ac1 Au1 3.470493 1_555
Ac1 Au2 3.470498 1_545
Ac1 Au2 3.470499 1_655
Ac1 Au0 3.470508 1_655
Ac1 Au1 3.470508 1_545
Au0 Au4 2.924556 1_554
Au0 Au5 2.924565 1_454
Au0 Au5 2.924566 1_455
Au0 Au4 2.924572 1_555
Au0 Au1 3.027213 1_445
Au0 Au2 3.027213 1_545
Au1 Au3 2.924556 1_554
Au1 Au5 2.924565 1_564
Au1 Au5 2.924566 1_565
Au1 Au3 2.924572 1_555
Au1 Au2 3.027213 1_655
Au2 Au3 2.924546 1_454
Au2 Au4 2.924546 1_564
Au2 Au3 2.924585 1_455
Au2 Au4 2.924585 1_565
Au3 Au4 3.027215 1_665
Au3 Au5 3.027217 1_565
Au4 Au5 3.027217 1_455
