# generated using pymatgen
data_Mn6O7F5
_symmetry_space_group_name_H-M   'P 1'
_cell_length_a   4.62448333
_cell_length_b   5.66810254
_cell_length_c   15.31724974
_cell_angle_alpha   89.91491028
_cell_angle_beta   89.31829096
_cell_angle_gamma   89.50288406
_symmetry_Int_Tables_number   1
_chemical_formula_structural   Mn6O7F5
_chemical_formula_sum   'Mn12 O14 F10'
_cell_volume   401.45253822
_cell_formula_units_Z   2
loop_
 _symmetry_equiv_pos_site_id
 _symmetry_equiv_pos_as_xyz
  1  'x, y, z'
loop_
 _atom_site_type_symbol
 _atom_site_label
 _atom_site_symmetry_multiplicity
 _atom_site_fract_x
 _atom_site_fract_y
 _atom_site_fract_z
 _atom_site_occupancy
  Mn  Mn0  1  0.01651200  0.16659900  0.41199400  1
  Mn  Mn1  1  0.99940600  0.84642500  0.24285400  1
  Mn  Mn2  1  0.02068900  0.16050200  0.07899800  1
  Mn  Mn3  1  0.02062600  0.16394800  0.74525100  1
  Mn  Mn4  1  0.04204500  0.85007100  0.58125200  1
  Mn  Mn5  1  0.02612700  0.85350100  0.91140500  1
  Mn  Mn6  1  0.49124400  0.35161100  0.58891000  1
  Mn  Mn7  1  0.49345500  0.34049800  0.92193500  1
  Mn  Mn8  1  0.49281400  0.34475000  0.25366600  1
  Mn  Mn9  1  0.50306700  0.63435800  0.09374200  1
  Mn  Mn10  1  0.49079000  0.63958000  0.42066400  1
  Mn  Mn11  1  0.48374700  0.63338300  0.74990500  1
  O  O0  1  0.21169400  0.10628700  0.30116100  1
  O  O1  1  0.22721100  0.11282900  0.63672300  1
  O  O2  1  0.21908300  0.11374600  0.96950300  1
  O  O3  1  0.22941000  0.88515800  0.13543300  1
  O  O4  1  0.23006500  0.89245900  0.47016700  1
  O  O5  1  0.23488700  0.88752200  0.80121200  1
  O  O6  1  0.28023500  0.39352300  0.14518200  1
  O  O7  1  0.28358200  0.40008300  0.48260400  1
  O  O8  1  0.28091900  0.60910000  0.64331000  1
  O  O9  1  0.27670100  0.40084400  0.81403100  1
  O  O10  1  0.72697400  0.38404600  0.02756600  1
  O  O11  1  0.71920300  0.61680200  0.19640000  1
  O  O12  1  0.71603600  0.38015100  0.36101000  1
  O  O13  1  0.72055000  0.38208700  0.69472200  1
  F  F0  1  0.23404000  0.60776800  0.31132800  1
  F  F1  1  0.26914600  0.61769900  0.98455900  1
  F  F2  1  0.76074000  0.62117000  0.53304500  1
  F  F3  1  0.73138500  0.62539600  0.86192100  1
  F  F4  1  0.76580200  0.11918600  0.18275800  1
  F  F5  1  0.76518900  0.12516400  0.52591800  1
  F  F6  1  0.74643800  0.87169200  0.35641800  1
  F  F7  1  0.75633200  0.86795300  0.02230500  1
  F  F8  1  0.76949200  0.12492700  0.85218800  1
  F  F9  1  0.76436100  0.86918000  0.68996000  1
loop_
_geom_bond_atom_site_label_1
_geom_bond_atom_site_label_2
_geom_bond_distance
_geom_bond_site_symmetry_2
Mn0 O0 1.942556 1_555
Mn0 O12 1.999919 1_455
Mn0 O4 2.043020 1_545
Mn0 O7 2.123898 1_555
Mn1 O3 1.961684 1_655
Mn1 O11 1.983257 1_555
Mn1 O0 1.995189 1_665
Mn2 O2 1.919725 1_554
Mn2 O10 2.015850 1_455
Mn2 O3 2.025913 1_545
Mn2 O6 2.067186 1_555
Mn3 O1 1.928443 1_555
Mn3 O13 2.011575 1_455
Mn3 O5 2.039778 1_545
Mn3 O9 2.092064 1_555
Mn4 O4 1.917319 1_555
Mn4 O1 1.927824 1_565
Mn4 O8 1.996082 1_555
Mn5 O5 1.944617 1_555
Mn5 O2 1.951846 1_565
Mn6 O7 1.918445 1_555
Mn6 O8 1.931351 1_555
Mn6 O13 1.956034 1_555
Mn6 O1 1.965577 1_555
Mn7 O2 1.948383 1_555
Mn7 O9 1.971109 1_555
Mn7 O10 1.972906 1_556
Mn8 O6 1.958777 1_555
Mn8 O12 1.963233 1_555
Mn8 O0 2.012787 1_555
Mn8 O11 2.060446 1_555
Mn9 O11 1.875289 1_555
Mn9 O6 1.883625 1_555
Mn9 O3 1.995602 1_555
Mn9 O10 2.016532 1_555
Mn10 O7 1.912651 1_555
Mn10 O4 2.008646 1_555
Mn10 O12 2.009225 1_555
Mn11 O8 1.898404 1_555
Mn11 O9 1.901183 1_555
Mn11 O13 1.974080 1_555
Mn11 O5 1.992521 1_555
F0 Mn1 2.026004 1_455
F0 Mn10 2.073383 1_555
F0 Mn8 2.093440 1_555
F1 Mn9 2.005314 1_556
F1 Mn5 2.074702 1_555
F1 Mn7 2.101746 1_555
F2 Mn4 1.993960 1_655
F2 Mn10 2.140277 1_555
F2 Mn6 2.150269 1_555
F3 Mn5 2.040116 1_655
F3 Mn11 2.074378 1_555
F3 Mn7 2.160028 1_555
F4 Mn2 1.982237 1_655
F4 Mn8 2.086019 1_555
F4 Mn1 2.096440 1_545
F5 Mn6 2.032165 1_555
F5 Mn0 2.099107 1_655
F5 Mn4 2.185431 1_645
F6 Mn10 2.022979 1_555
F6 Mn1 2.089086 1_555
F6 Mn0 2.268132 1_665
F7 Mn9 2.077080 1_555
F7 Mn5 2.096927 1_654
F7 Mn2 2.250103 1_665
F8 Mn3 2.009672 1_655
F8 Mn7 2.051391 1_555
F8 Mn5 2.141940 1_645
F9 Mn11 2.076410 1_555
F9 Mn4 2.092985 1_655
F9 Mn3 2.230612 1_665
