# generated using pymatgen
data_VOF3
_symmetry_space_group_name_H-M   'P 1'
_cell_length_a   5.42050400
_cell_length_b   5.59223300
_cell_length_c   9.56209300
_cell_angle_alpha   89.33748494
_cell_angle_beta   89.91712503
_cell_angle_gamma   86.58488211
_symmetry_Int_Tables_number   1
_chemical_formula_structural   VOF3
_chemical_formula_sum   'V4 O4 F12'
_cell_volume   289.31889711
_cell_formula_units_Z   4
loop_
 _symmetry_equiv_pos_site_id
 _symmetry_equiv_pos_as_xyz
  1  'x, y, z'
loop_
 _atom_site_type_symbol
 _atom_site_label
 _atom_site_symmetry_multiplicity
 _atom_site_fract_x
 _atom_site_fract_y
 _atom_site_fract_z
 _atom_site_occupancy
  V  V0  1  0.05482700  0.04468700  0.00971700  1
  V  V1  1  0.54904100  0.47500000  0.99159600  1
  V  V2  1  0.45562200  0.96253400  0.50537200  1
  V  V3  1  0.96544400  0.45338200  0.49419100  1
  O  O0  1  0.22102400  0.27548100  0.03716600  1
  O  O1  1  0.80266500  0.22733900  0.46695500  1
  O  O2  1  0.22762600  0.79671700  0.53154100  1
  O  O3  1  0.72558000  0.22578900  0.96977900  1
  F  F0  1  0.28271000  0.79545100  0.03353900  1
  F  F1  1  0.43287800  0.04366500  0.32580400  1
  F  F2  1  0.55410200  0.50366300  0.17547400  1
  F  F3  1  0.09392200  0.51543300  0.32803500  1
  F  F4  1  0.91006700  0.97577600  0.17060400  1
  F  F5  1  0.27668200  0.27597000  0.54320700  1
  F  F6  1  0.70816100  0.71317300  0.45678200  1
  F  F7  1  0.05804600  0.00784300  0.82614100  1
  F  F8  1  0.92299900  0.51582300  0.67408200  1
  F  F9  1  0.39591300  0.51230500  0.82869500  1
  F  F10  1  0.59337700  0.98666000  0.67221700  1
  F  F11  1  0.76931800  0.69331300  0.95910200  1
loop_
_geom_bond_atom_site_label_1
_geom_bond_atom_site_label_2
_geom_bond_distance
_geom_bond_site_symmetry_2
O0 V0 1.641125 1_555
O0 V1 2.195222 1_554
O1 V3 1.607927 1_555
O2 V2 1.606264 1_555
O3 V1 1.657934 1_555
O3 V0 2.033302 1_656
F0 V0 1.818983 1_565
F0 V1 2.272244 1_554
F1 V2 1.773478 1_545
F2 V1 1.767795 1_554
F3 V3 1.772718 1_455
F4 V0 1.774758 1_665
F5 V3 1.960181 1_455
F5 V2 1.988746 1_545
F6 V2 1.954491 1_555
F6 V3 1.982820 1_555
F7 V0 1.769726 1_556
F8 V3 1.771130 1_555
F9 V1 1.770429 1_555
F10 V2 1.772415 1_555
F11 V1 1.782281 1_555
