# generated using pymatgen
data_CaSnS3
_symmetry_space_group_name_H-M   'P 1'
_cell_length_a   11.72622500
_cell_length_b   13.59435595
_cell_length_c   16.41044599
_cell_angle_alpha   97.20502740
_cell_angle_beta   92.21788564
_cell_angle_gamma   105.66275186
_symmetry_Int_Tables_number   1
_chemical_formula_structural   CaSnS3
_chemical_formula_sum   'Ca18 Sn18 S54'
_cell_volume   2491.74925889
_cell_formula_units_Z   18
loop_
 _symmetry_equiv_pos_site_id
 _symmetry_equiv_pos_as_xyz
  1  'x, y, z'
loop_
 _atom_site_type_symbol
 _atom_site_label
 _atom_site_symmetry_multiplicity
 _atom_site_fract_x
 _atom_site_fract_y
 _atom_site_fract_z
 _atom_site_occupancy
  Ca  Ca0  1  0.53090100  0.12070400  0.95936500  1
  Ca  Ca1  1  0.28439100  0.11206200  0.24693900  1
  Ca  Ca2  1  0.97020200  0.18666300  0.61643700  1
  Ca  Ca3  1  0.10281400  0.87162600  0.41443000  1
  Ca  Ca4  1  0.72637100  0.89377300  0.75147300  1
  Ca  Ca5  1  0.43439900  0.82445800  0.06127900  1
  Ca  Ca6  1  0.61138700  0.61080400  0.95924200  1
  Ca  Ca7  1  0.19299300  0.54915100  0.24368000  1
  Ca  Ca8  1  0.92732600  0.64889100  0.57272100  1
  Ca  Ca9  1  0.10628900  0.37242700  0.44565400  1
  Ca  Ca10  1  0.73867500  0.43991400  0.73425800  1
  Ca  Ca11  1  0.36720000  0.38045900  0.06280000  1
  Ca  Ca12  1  0.80501000  0.93435500  0.05943400  1
  Ca  Ca13  1  0.47498200  0.92151500  0.35790800  1
  Ca  Ca14  1  0.10227800  0.94194100  0.67791800  1
  Ca  Ca15  1  0.91185100  0.11919800  0.33676300  1
  Ca  Ca16  1  0.52638000  0.04645800  0.62198000  1
  Ca  Ca17  1  0.18542400  0.05105900  0.94436000  1
  Sn  Sn0  1  0.62301400  0.61219600  0.19109400  1
  Sn  Sn1  1  0.35095100  0.69704600  0.53101700  1
  Sn  Sn2  1  0.95552800  0.70478300  0.88785300  1
  Sn  Sn3  1  0.97593800  0.28811100  0.10504300  1
  Sn  Sn4  1  0.76865400  0.37990400  0.44682600  1
  Sn  Sn5  1  0.41814500  0.24720700  0.76800900  1
  Sn  Sn6  1  0.84452700  0.49580000  0.06166000  1
  Sn  Sn7  1  0.50481400  0.49482200  0.37851300  1
  Sn  Sn8  1  0.09441400  0.48971200  0.73322000  1
  Sn  Sn9  1  0.81819400  0.58706200  0.31534400  1
  Sn  Sn10  1  0.46494600  0.46337200  0.59551800  1
  Sn  Sn11  1  0.18286700  0.50425500  0.92285900  1
  Sn  Sn12  1  0.69191300  0.16361800  0.16842200  1
  Sn  Sn13  1  0.29150800  0.20569700  0.45586800  1
  Sn  Sn14  1  0.92250900  0.18380300  0.83840500  1
  Sn  Sn15  1  0.05896600  0.82345300  0.17615900  1
  Sn  Sn16  1  0.76278700  0.87711600  0.53237500  1
  Sn  Sn17  1  0.26394200  0.79413400  0.83397600  1
  S  S0  1  0.37247400  0.73654800  0.25354500  1
  S  S1  1  0.20460700  0.79651700  0.55290700  1
  S  S2  1  0.79362400  0.80976400  0.89127400  1
  S  S3  1  0.23854800  0.17958000  0.09795100  1
  S  S4  1  0.88576600  0.25068000  0.47815500  1
  S  S5  1  0.62557200  0.23178600  0.75479400  1
  S  S6  1  0.63285000  0.75447300  0.10488000  1
  S  S7  1  0.27527100  0.75493300  0.35378400  1
  S  S8  1  0.08276800  0.87114800  0.83024800  1
  S  S9  1  0.89785900  0.12078000  0.16622800  1
  S  S10  1  0.62883100  0.25615600  0.63193400  1
  S  S11  1  0.37087200  0.23135900  0.90915000  1
  S  S12  1  0.70596800  0.95012100  0.30864700  1
  S  S13  1  0.53550100  0.84476300  0.50304600  1
  S  S14  1  0.95741500  0.60950800  0.74268900  1
  S  S15  1  0.99273800  0.38391600  0.24623200  1
  S  S16  1  0.66016600  0.08755100  0.31838600  1
  S  S17  1  0.32148600  0.09372700  0.67235900  1
  S  S18  1  0.78583300  0.29430800  0.03376700  1
  S  S19  1  0.46928200  0.30036100  0.39206200  1
  S  S20  1  0.23209900  0.30443800  0.57208200  1
  S  S21  1  0.85009900  0.73083300  0.43215300  1
  S  S22  1  0.43852000  0.65089900  0.65022300  1
  S  S23  1  0.14780200  0.68464400  0.95068100  1
  S  S24  1  0.61751000  0.47248200  0.07368300  1
  S  S25  1  0.30908000  0.53951200  0.42354700  1
  S  S26  1  0.92093600  0.32682100  0.75387100  1
  S  S27  1  0.00560500  0.66080600  0.23054500  1
  S  S28  1  0.72103500  0.49331000  0.57362400  1
  S  S29  1  0.38008700  0.58341200  0.99423200  1
  S  S30  1  0.80401200  0.53779000  0.90979300  1
  S  S31  1  0.41995900  0.49852500  0.22580500  1
  S  S32  1  0.08250400  0.52296200  0.56550000  1
  S  S33  1  0.98669400  0.52026200  0.44997500  1
  S  S34  1  0.47755200  0.43310300  0.75256800  1
  S  S35  1  0.13884600  0.43626900  0.06582900  1
  S  S36  1  0.61596000  0.00897300  0.06077500  1
  S  S37  1  0.32961400  0.03793000  0.43363500  1
  S  S38  1  0.06059100  0.11963600  0.75950600  1
  S  S39  1  0.05948300  0.96628700  0.27654400  1
  S  S40  1  0.75601500  0.03168200  0.63068800  1
  S  S41  1  0.35580200  0.93885900  0.94657900  1
  S  S42  1  0.40490000  0.96533500  0.20349500  1
  S  S43  1  0.06972200  0.03444900  0.53581900  1
  S  S44  1  0.72375200  0.05859300  0.87052800  1
  S  S45  1  0.25474900  0.90599300  0.12303600  1
  S  S46  1  0.92303000  0.98041000  0.45184100  1
  S  S47  1  0.56273800  0.00173000  0.80161100  1
  S  S48  1  0.42551500  0.20553000  0.11753400  1
  S  S49  1  0.15424900  0.21780900  0.34372500  1
  S  S50  1  0.99886600  0.15760700  0.97519400  1
  S  S51  1  0.97892400  0.83596900  0.04020400  1
  S  S52  1  0.86312500  0.81678600  0.64268000  1
  S  S53  1  0.62509600  0.73436200  0.83629200  1
loop_
_geom_bond_atom_site_label_1
_geom_bond_atom_site_label_2
_geom_bond_distance
_geom_bond_site_symmetry_2
Ca0 S36 2.719384 1_556
Ca0 S41 2.732555 1_545
Ca0 S11 2.859854 1_555
Ca0 S47 2.967789 1_555
Ca0 S44 2.988257 1_555
Ca0 S48 3.140238 1_556
Ca0 S18 3.343994 1_556
Ca1 S49 2.778059 1_555
Ca1 S42 2.779757 1_545
Ca1 S3 2.799444 1_555
Ca1 S39 2.938941 1_545
Ca1 S48 2.945538 1_555
Ca1 S45 3.177040 1_545
Ca1 S37 3.408927 1_555
Ca1 S19 3.464012 1_555
Ca2 S4 2.770201 1_555
Ca2 S40 2.848437 1_555
Ca2 S43 2.851424 1_655
Ca2 S38 2.886430 1_655
Ca2 S26 2.944148 1_555
Ca2 S20 3.214826 1_655
Ca3 S39 2.833510 1_555
Ca3 S43 2.904456 1_565
Ca3 S46 2.926464 1_455
Ca3 S1 2.943066 1_555
Ca3 S37 2.965367 1_565
Ca3 S7 3.014722 1_555
Ca3 S21 3.110217 1_455
Ca4 S52 2.741068 1_555
Ca4 S53 2.745728 1_555
Ca4 S44 2.789654 1_565
Ca4 S47 2.802221 1_565
Ca4 S2 2.862347 1_555
Ca4 S40 2.863232 1_565
Ca5 S45 2.799602 1_555
Ca5 S36 2.819174 1_565
Ca5 S6 2.840731 1_555
Ca5 S41 2.860950 1_554
Ca5 S42 2.921159 1_555
Ca5 S29 3.204462 1_554
Ca6 S29 2.730137 1_555
Ca6 S53 2.765429 1_555
Ca6 S30 2.810004 1_555
Ca6 S24 2.831313 1_556
Ca6 S6 2.847291 1_556
Ca6 S2 3.308566 1_555
Ca7 S15 2.782943 1_455
Ca7 S0 2.814396 1_555
Ca7 S31 2.939702 1_555
Ca7 S27 3.004179 1_555
Ca7 S7 3.026759 1_555
Ca7 S35 3.079502 1_555
Ca7 S25 3.234975 1_555
Ca8 S52 2.726106 1_555
Ca8 S33 2.735345 1_555
Ca8 S28 2.751960 1_555
Ca8 S32 2.811345 1_655
Ca8 S21 2.899962 1_555
Ca8 S14 2.931119 1_555
Ca8 S1 3.380455 1_655
Ca9 S49 2.713205 1_555
Ca9 S32 2.733995 1_555
Ca9 S33 2.739432 1_455
Ca9 S4 2.779909 1_455
Ca9 S25 2.881441 1_555
Ca9 S20 2.883680 1_555
Ca10 S10 2.786058 1_555
Ca10 S28 2.835038 1_555
Ca10 S5 2.850525 1_555
Ca10 S14 2.934828 1_555
Ca10 S26 2.979951 1_555
Ca10 S30 2.995431 1_555
Ca10 S34 3.065898 1_555
Ca11 S24 2.851836 1_555
Ca11 S48 2.880239 1_555
Ca11 S3 2.881677 1_555
Ca11 S31 2.893648 1_555
Ca11 S35 2.974246 1_555
Ca11 S11 3.039995 1_554
Ca11 S29 3.077000 1_554
Ca12 S36 2.675112 1_565
Ca12 S51 2.732062 1_555
Ca12 S9 2.815661 1_565
Ca12 S6 2.918907 1_555
Ca12 S2 3.029653 1_554
Ca13 S7 2.775418 1_555
Ca13 S12 2.796570 1_555
Ca13 S0 2.798070 1_555
Ca13 S42 2.816576 1_555
Ca13 S16 2.839109 1_565
Ca13 S37 2.842868 1_565
Ca13 S13 2.856137 1_555
Ca14 S38 2.782789 1_565
Ca14 S8 2.785030 1_555
Ca14 S17 2.841641 1_565
Ca14 S43 2.844467 1_565
Ca14 S52 2.853947 1_455
Ca14 S1 3.163988 1_555
Ca15 S49 2.787198 1_655
Ca15 S9 2.800135 1_555
Ca15 S12 2.824181 1_545
Ca15 S4 2.825251 1_555
Ca15 S46 2.855075 1_545
Ca15 S16 2.863439 1_555
Ca15 S39 3.139238 1_645
Ca16 S40 2.753389 1_555
Ca16 S10 2.759587 1_555
Ca16 S17 2.779062 1_555
Ca16 S5 3.048742 1_555
Ca16 S47 3.119852 1_555
Ca16 S13 3.189202 1_545
Ca17 S41 2.823670 1_545
Ca17 S3 2.824837 1_556
Ca17 S8 2.832770 1_545
Ca17 S11 2.940240 1_555
Ca17 S50 2.958459 1_455
S0 S7 2.064799 1_555
S1 Sn1 2.466032 1_555
S2 S53 2.075187 1_555
S2 Sn2 2.663724 1_555
S3 S48 2.129281 1_555
S4 Sn4 2.590520 1_555
S5 Sn5 2.512366 1_555
S6 Sn0 2.516859 1_555
S8 Sn17 2.611568 1_555
S8 Sn2 2.656730 1_455
S9 Sn3 2.557436 1_555
S9 Sn12 2.633125 1_555
S10 S5 2.083964 1_555
S11 Sn5 2.424559 1_555
S12 S16 2.068329 1_565
S13 Sn16 2.596748 1_555
S13 Sn1 2.624516 1_555
S14 Sn2 2.568763 1_555
S14 Sn8 2.574020 1_655
S15 Sn3 2.484478 1_555
S16 Sn12 2.786704 1_555
S17 Sn5 2.421924 1_555
S18 Sn3 2.503782 1_555
S18 Sn6 2.613304 1_555
S18 Sn12 3.060887 1_555
S19 Sn13 2.481241 1_555
S19 Sn7 2.602190 1_555
S20 Sn13 2.426903 1_555
S20 Sn10 2.965845 1_555
S21 Sn9 2.498858 1_555
S21 Sn16 2.849059 1_555
S22 Sn1 2.403119 1_555
S22 Sn10 2.697207 1_555
S23 Sn2 2.538819 1_455
S23 Sn11 2.582497 1_555
S23 Sn17 2.749641 1_555
S24 Sn0 2.515997 1_555
S24 Sn6 2.612784 1_555
S25 Sn1 2.521035 1_555
S25 Sn7 2.637210 1_555
S26 Sn14 2.529579 1_555
S26 Sn8 2.639296 1_655
S27 Sn15 2.422429 1_555
S27 Sn9 2.677340 1_455
S28 Sn4 2.601620 1_555
S28 Sn10 2.961885 1_555
S29 Sn11 2.451249 1_555
S30 Sn2 2.552776 1_555
S30 Sn6 2.678484 1_556
S31 Sn0 2.592476 1_555
S31 Sn7 2.671774 1_555
S32 S33 2.157109 1_455
S32 Sn8 2.848809 1_555
S33 Sn4 2.740704 1_555
S34 Sn5 2.481863 1_555
S34 Sn10 2.665112 1_555
S35 Sn3 2.542200 1_455
S35 Sn11 2.646768 1_554
S36 Sn12 2.503839 1_555
S37 Sn13 2.426614 1_555
S38 Sn14 2.387611 1_455
S39 Sn15 2.382158 1_555
S40 Sn16 2.504803 1_545
S41 Sn17 2.497084 1_555
S42 S45 2.068860 1_555
S43 S46 2.068340 1_445
S44 S47 2.066120 1_555
S44 Sn14 2.604868 1_555
S45 Sn15 2.509793 1_555
S46 Sn16 2.546032 1_555
S49 Sn13 2.448327 1_555
S50 Sn14 2.486892 1_555
S50 Sn3 2.667215 1_556
S51 Sn15 2.430432 1_655
S51 Sn2 2.840912 1_554
S52 Sn16 2.462162 1_555
