# generated using pymatgen
data_TiZnPt2
_symmetry_space_group_name_H-M   'P 1'
_cell_length_a   4.39365286
_cell_length_b   4.39365070
_cell_length_c   4.39365646
_cell_angle_alpha   59.99992419
_cell_angle_beta   59.99990785
_cell_angle_gamma   59.99997290
_symmetry_Int_Tables_number   1
_chemical_formula_structural   TiZnPt2
_chemical_formula_sum   'Ti1 Zn1 Pt2'
_cell_volume   59.97382190
_cell_formula_units_Z   1
loop_
 _symmetry_equiv_pos_site_id
 _symmetry_equiv_pos_as_xyz
  1  'x, y, z'
loop_
 _atom_site_type_symbol
 _atom_site_label
 _atom_site_symmetry_multiplicity
 _atom_site_fract_x
 _atom_site_fract_y
 _atom_site_fract_z
 _atom_site_occupancy
  Ti  Ti0  1  0.25000000  0.25000000  0.25000000  1
  Zn  Zn0  1  0.75000000  0.75000000  0.75000000  1
  Pt  Pt0  1  0.00000000  0.00000000  0.00000000  1
  Pt  Pt1  1  0.49999900  0.49999900  0.49999900  1
loop_
_geom_bond_atom_site_label_1
_geom_bond_atom_site_label_2
_geom_bond_distance
_geom_bond_site_symmetry_2
Pt0 Zn0 2.690549 1_454
Pt0 Ti0 2.690549 1_545
Pt0 Ti0 2.690550 1_455
Pt0 Zn0 2.690550 1_544
Pt0 Zn0 2.690551 1_445
Pt0 Ti0 2.690551 1_554
Pt0 Zn0 2.690554 1_444
Pt0 Ti0 2.690554 1_555
Pt1 Ti0 2.690543 1_555
Pt1 Zn0 2.690546 1_545
Pt1 Zn0 2.690546 1_455
Pt1 Zn0 2.690547 1_554
Pt1 Ti0 2.690553 1_565
Pt1 Ti0 2.690554 1_655
Pt1 Ti0 2.690554 1_556
Pt1 Zn0 2.690564 1_555
