# generated using pymatgen
data_Dy2Ge5Rh3
_symmetry_space_group_name_H-M   'P 1'
_cell_length_a   8.28160489
_cell_length_b   8.28160489
_cell_length_c   5.87292205
_cell_angle_alpha   70.61847885
_cell_angle_beta   70.61847885
_cell_angle_gamma   92.97222402
_symmetry_Int_Tables_number   1
_chemical_formula_structural   Dy2Ge5Rh3
_chemical_formula_sum   'Dy4 Ge10 Rh6'
_cell_volume   352.44670604
_cell_formula_units_Z   2
loop_
 _symmetry_equiv_pos_site_id
 _symmetry_equiv_pos_as_xyz
  1  'x, y, z'
loop_
 _atom_site_type_symbol
 _atom_site_label
 _atom_site_symmetry_multiplicity
 _atom_site_fract_x
 _atom_site_fract_y
 _atom_site_fract_z
 _atom_site_occupancy
  Dy  Dy0  1  0.59304683  0.86638894  0.76822488  1
  Dy  Dy1  1  0.13361106  0.40695317  0.73177512  1
  Dy  Dy2  1  0.40695317  0.13361106  0.23177512  1
  Dy  Dy3  1  0.86638894  0.59304683  0.26822488  1
  Ge  Ge0  1  0.49146693  0.50853307  0.75000000  1
  Ge  Ge1  1  0.50853307  0.49146693  0.25000000  1
  Ge  Ge2  1  0.78846478  0.21153522  0.75000000  1
  Ge  Ge3  1  0.21153522  0.78846478  0.25000000  1
  Ge  Ge4  1  0.26315705  0.07024479  0.83318294  1
  Ge  Ge5  1  0.92975521  0.73684295  0.66681706  1
  Ge  Ge6  1  0.73684295  0.92975521  0.16681706  1
  Ge  Ge7  1  0.07024479  0.26315705  0.33318294  1
  Ge  Ge8  1  0.22230237  0.77769763  0.75000000  1
  Ge  Ge9  1  0.77769763  0.22230237  0.25000000  1
  Rh  Rh0  1  0.54079208  0.25615937  0.61864481  1
  Rh  Rh1  1  0.74384063  0.45920792  0.88135519  1
  Rh  Rh2  1  0.45920792  0.74384063  0.38135519  1
  Rh  Rh3  1  0.25615937  0.54079208  0.11864481  1
  Rh  Rh4  1  0.99837714  0.00162286  0.75000000  1
  Rh  Rh5  1  0.00162286  0.99837714  0.25000000  1
loop_
_geom_bond_atom_site_label_1
_geom_bond_atom_site_label_2
_geom_bond_distance
_geom_bond_site_symmetry_2
Dy0 Ge5 2.985537 1_555
Dy0 Ge0 3.084469 1_555
Dy0 Ge6 3.126358 1_556
Dy0 Rh0 3.145411 1_565
Dy0 Ge2 3.162767 1_565
Dy0 Ge8 3.164567 1_555
Dy0 Rh2 3.167584 1_556
Dy0 Ge6 3.175220 1_555
Dy0 Rh2 3.241307 1_555
Dy0 Ge4 3.267061 1_565
Dy0 Ge1 3.281104 1_556
Dy0 Ge9 3.283108 1_565
Dy0 Rh3 3.319035 1_556
Dy0 Ge3 3.323856 1_556
Dy0 Rh4 3.438876 1_565
Dy0 Rh5 3.532739 1_655
Dy1 Ge4 2.985537 1_555
Dy1 Ge0 3.084469 1_555
Dy1 Ge7 3.126358 1_555
Dy1 Rh1 3.145411 1_455
Dy1 Ge2 3.162767 1_455
Dy1 Ge8 3.164567 1_555
Dy1 Rh3 3.167584 1_555
Dy1 Ge7 3.175220 1_556
Dy1 Rh3 3.241307 1_556
Dy1 Ge5 3.267061 1_455
Dy1 Ge1 3.281104 1_555
Dy1 Ge9 3.283108 1_456
Dy1 Rh2 3.319035 1_555
Dy1 Ge3 3.323856 1_555
Dy1 Rh4 3.438876 1_455
Dy1 Rh5 3.532739 1_546
Dy2 Ge7 2.985537 1_555
Dy2 Ge1 3.084469 1_555
Dy2 Ge4 3.126358 1_554
Dy2 Rh2 3.145411 1_545
Dy2 Ge3 3.162767 1_545
Dy2 Ge9 3.164567 1_555
Dy2 Rh0 3.167584 1_554
Dy2 Ge4 3.175220 1_555
Dy2 Rh0 3.241307 1_555
Dy2 Ge6 3.267061 1_545
Dy2 Ge0 3.281104 1_554
Dy2 Ge8 3.283108 1_545
Dy2 Rh1 3.319035 1_554
Dy2 Ge2 3.323856 1_554
Dy2 Rh5 3.438876 1_545
Dy2 Rh4 3.532739 1_455
Dy3 Ge6 2.985537 1_555
Dy3 Ge1 3.084469 1_555
Dy3 Ge5 3.126358 1_555
Dy3 Rh3 3.145411 1_655
Dy3 Ge3 3.162767 1_655
Dy3 Ge9 3.164567 1_555
Dy3 Rh1 3.167584 1_555
Dy3 Ge5 3.175220 1_554
Dy3 Rh1 3.241307 1_554
Dy3 Ge7 3.267061 1_655
Dy3 Ge0 3.281104 1_555
Dy3 Ge8 3.283108 1_654
Dy3 Rh0 3.319035 1_555
Dy3 Ge2 3.323856 1_555
Dy3 Rh5 3.438876 1_655
Dy3 Rh4 3.532739 1_564
Ge0 Rh1 2.465737 1_555
Ge0 Rh0 2.465737 1_555
Ge0 Rh2 2.488749 1_555
Ge0 Rh3 2.488749 1_556
Ge1 Rh2 2.465737 1_555
Ge1 Rh3 2.465737 1_555
Ge1 Rh1 2.488749 1_554
Ge1 Rh0 2.488749 1_555
Ge2 Rh0 2.424544 1_555
Ge2 Rh1 2.424544 1_555
Ge2 Rh4 2.521418 1_555
Ge2 Ge6 2.651659 1_546
Ge2 Ge7 2.651659 1_655
Ge2 Ge9 2.939308 1_555
Ge2 Ge9 2.939308 1_556
Ge3 Rh3 2.424544 1_555
Ge3 Rh2 2.424544 1_555
Ge3 Rh5 2.521418 1_555
Ge3 Ge5 2.651659 1_455
Ge3 Ge4 2.651659 1_564
Ge3 Ge8 2.939308 1_554
Ge3 Ge8 2.939308 1_555
Ge4 Rh0 2.380600 1_555
Ge4 Rh4 2.477103 1_455
Ge4 Rh5 2.533400 1_546
Ge4 Ge8 2.652010 1_545
Ge5 Rh1 2.380600 1_555
Ge5 Rh4 2.477103 1_565
Ge5 Rh5 2.533400 1_655
Ge5 Ge8 2.652010 1_655
Ge6 Rh2 2.380600 1_555
Ge6 Rh5 2.477103 1_655
Ge6 Rh4 2.533400 1_564
Ge6 Ge9 2.652010 1_565
Ge7 Rh3 2.380600 1_555
Ge7 Rh5 2.477103 1_545
Ge7 Rh4 2.533400 1_455
Ge7 Ge9 2.652010 1_455
Ge8 Rh2 2.501186 1_555
Ge8 Rh3 2.501186 1_556
Ge8 Rh4 2.689737 1_465
Ge9 Rh1 2.501186 1_554
Ge9 Rh0 2.501186 1_555
Ge9 Rh5 2.689737 1_645
