# generated using pymatgen
data_LiSbP2O7
_symmetry_space_group_name_H-M   'P 1'
_cell_length_a   16.88507000
_cell_length_b   8.42732300
_cell_length_c   8.53227327
_cell_angle_alpha   87.73768472
_cell_angle_beta   90.00000000
_cell_angle_gamma   90.00000000
_symmetry_Int_Tables_number   1
_chemical_formula_structural   LiSbP2O7
_chemical_formula_sum   'Li8 Sb8 P16 O56'
_cell_volume   1213.16152836
_cell_formula_units_Z   8
loop_
 _symmetry_equiv_pos_site_id
 _symmetry_equiv_pos_as_xyz
  1  'x, y, z'
loop_
 _atom_site_type_symbol
 _atom_site_label
 _atom_site_symmetry_multiplicity
 _atom_site_fract_x
 _atom_site_fract_y
 _atom_site_fract_z
 _atom_site_occupancy
  Li  Li0  1  0.94716100  0.69353400  0.24154600  1
  Li  Li1  1  0.55283900  0.69353400  0.74154600  1
  Li  Li2  1  0.25212400  0.84158800  0.19252400  1
  Li  Li3  1  0.24787600  0.84158800  0.69252400  1
  Li  Li4  1  0.75212400  0.15841200  0.30747600  1
  Li  Li5  1  0.74787600  0.15841200  0.80747600  1
  Li  Li6  1  0.44716100  0.30646600  0.25845400  1
  Li  Li7  1  0.05283900  0.30646600  0.75845400  1
  Sb  Sb0  1  0.37485800  0.64990800  0.46358500  1
  Sb  Sb1  1  0.12514200  0.64990800  0.96358500  1
  Sb  Sb2  1  0.63485800  0.86008500  0.04080000  1
  Sb  Sb3  1  0.86514200  0.86008500  0.54080000  1
  Sb  Sb4  1  0.13485800  0.13991500  0.45920000  1
  Sb  Sb5  1  0.36514200  0.13991500  0.95920000  1
  Sb  Sb6  1  0.87485800  0.35009200  0.03641500  1
  Sb  Sb7  1  0.62514200  0.35009200  0.53641500  1
  P  P0  1  0.32270900  0.52882900  0.07955900  1
  P  P1  1  0.17729100  0.52882900  0.57955900  1
  P  P2  1  0.57370900  0.74482500  0.41703000  1
  P  P3  1  0.92629100  0.74482500  0.91703000  1
  P  P4  1  0.08378100  0.75397200  0.36289300  1
  P  P5  1  0.41621900  0.75397200  0.86289300  1
  P  P6  1  0.82095200  0.95542000  0.09965400  1
  P  P7  1  0.67904800  0.95542000  0.59965400  1
  P  P8  1  0.32095200  0.04458000  0.40034600  1
  P  P9  1  0.17904800  0.04458000  0.90034600  1
  P  P10  1  0.58378100  0.24602800  0.13710700  1
  P  P11  1  0.91621900  0.24602800  0.63710700  1
  P  P12  1  0.07370900  0.25517500  0.08297000  1
  P  P13  1  0.42629100  0.25517500  0.58297000  1
  P  P14  1  0.82270900  0.47117100  0.42044100  1
  P  P15  1  0.67729100  0.47117100  0.92044100  1
  O  O0  1  0.24288800  0.52985100  0.99716400  1
  O  O1  1  0.25711200  0.52985100  0.49716400  1
  O  O2  1  0.92027500  0.59354600  0.02512300  1
  O  O3  1  0.57972500  0.59354600  0.52512300  1
  O  O4  1  0.10899700  0.59447500  0.46228300  1
  O  O5  1  0.39100300  0.59447500  0.96228300  1
  O  O6  1  0.32130700  0.64243100  0.21662700  1
  O  O7  1  0.17869300  0.64243100  0.71662700  1
  O  O8  1  0.85382600  0.64033300  0.37877300  1
  O  O9  1  0.64617400  0.64033300  0.87877300  1
  O  O10  1  0.06749800  0.68647700  0.19941300  1
  O  O11  1  0.43250200  0.68647700  0.69941300  1
  O  O12  1  0.63445400  0.75669500  0.28296700  1
  O  O13  1  0.86554600  0.75669500  0.78296700  1
  O  O14  1  0.48928900  0.77823100  0.36368500  1
  O  O15  1  0.01071100  0.77823100  0.86368500  1
  O  O16  1  0.00550700  0.81173700  0.42660200  1
  O  O17  1  0.49449300  0.81173700  0.92660200  1
  O  O18  1  0.75532400  0.83249500  0.06539700  1
  O  O19  1  0.74467600  0.83249500  0.56539700  1
  O  O20  1  0.15285500  0.87457200  0.36245400  1
  O  O21  1  0.34714500  0.87457200  0.86245400  1
  O  O22  1  0.90413500  0.87650000  0.04935800  1
  O  O23  1  0.30902500  0.89314400  0.50400400  1
  O  O24  1  0.59586500  0.87650000  0.54935800  1
  O  O25  1  0.19097500  0.89314400  0.00400400  1
  O  O26  1  0.82832500  0.99037500  0.27257500  1
  O  O27  1  0.67167500  0.99037500  0.77257500  1
  O  O28  1  0.32832500  0.00962500  0.22742500  1
  O  O29  1  0.17167500  0.00962500  0.72742500  1
  O  O30  1  0.80902500  0.10685600  0.99599600  1
  O  O31  1  0.40413500  0.12350000  0.45064200  1
  O  O32  1  0.69097500  0.10685600  0.49599600  1
  O  O33  1  0.09586500  0.12350000  0.95064200  1
  O  O34  1  0.65285500  0.12542800  0.13754600  1
  O  O35  1  0.84714500  0.12542800  0.63754600  1
  O  O36  1  0.25532400  0.16750500  0.43460300  1
  O  O37  1  0.24467600  0.16750500  0.93460300  1
  O  O38  1  0.50550700  0.18826300  0.07339800  1
  O  O39  1  0.99449300  0.18826300  0.57339800  1
  O  O40  1  0.98928900  0.22176900  0.13631500  1
  O  O41  1  0.51071100  0.22176900  0.63631500  1
  O  O42  1  0.13445400  0.24330500  0.21703300  1
  O  O43  1  0.36554600  0.24330500  0.71703300  1
  O  O44  1  0.56749800  0.31352300  0.30058700  1
  O  O45  1  0.93250200  0.31352300  0.80058700  1
  O  O46  1  0.35382600  0.35966700  0.12122700  1
  O  O47  1  0.14617400  0.35966700  0.62122700  1
  O  O48  1  0.82130700  0.35756900  0.28337300  1
  O  O49  1  0.67869300  0.35756900  0.78337300  1
  O  O50  1  0.60899700  0.40552500  0.03771700  1
  O  O51  1  0.89100300  0.40552500  0.53771700  1
  O  O52  1  0.42027500  0.40645400  0.47487700  1
  O  O53  1  0.07972500  0.40645400  0.97487700  1
  O  O54  1  0.74288800  0.47014900  0.50283600  1
  O  O55  1  0.75711200  0.47014900  0.00283600  1
loop_
_geom_bond_atom_site_label_1
_geom_bond_atom_site_label_2
_geom_bond_distance
_geom_bond_site_symmetry_2
Li0 O8 2.003535 1_555
Li0 O10 2.064720 1_655
Li0 O2 2.109223 1_555
Li0 O16 2.140119 1_655
Li0 O22 2.322633 1_555
Li1 O9 2.003535 1_555
Li1 O11 2.064720 1_555
Li1 O3 2.109223 1_555
Li1 O17 2.140119 1_555
Li1 O24 2.322633 1_555
Li2 O28 1.944944 1_565
Li2 O25 1.946009 1_555
Li2 O6 2.048544 1_555
Li2 O20 2.240712 1_555
Li3 O29 1.944944 1_565
Li3 O23 1.946009 1_555
Li3 O7 2.048544 1_555
Li3 O21 2.240712 1_555
Li4 O26 1.944944 1_545
Li4 O32 1.946009 1_555
Li4 O48 2.048544 1_555
Li4 O34 2.240712 1_555
Li5 O27 1.944944 1_545
Li5 O30 1.946009 1_555
Li5 O49 2.048544 1_555
Li5 O35 2.240712 1_555
Li6 O46 2.003535 1_555
Li6 O44 2.064720 1_555
Li6 O52 2.109223 1_555
Li6 O38 2.140119 1_555
Li6 O31 2.322633 1_555
Li7 O47 2.003535 1_555
Li7 O45 2.064720 1_455
Li7 O53 2.109223 1_555
Li7 O39 2.140119 1_455
Li7 O33 2.322633 1_555
O0 P0 1.519983 1_556
O0 Sb1 2.244013 1_555
O1 P1 1.519983 1_555
O1 Sb0 2.244013 1_555
O2 P3 1.547062 1_554
O2 Sb6 2.188857 1_555
O3 P2 1.547062 1_555
O3 Sb7 2.188857 1_555
O4 P1 1.610392 1_555
O4 P4 1.617754 1_555
O5 P0 1.610392 1_556
O5 P5 1.617754 1_555
O6 P0 1.540529 1_555
O6 Sb0 2.296079 1_555
O7 P1 1.540529 1_555
O7 Sb1 2.296079 1_555
O8 P14 1.547491 1_555
O8 Sb3 2.362083 1_555
O9 P15 1.547491 1_555
O9 Sb2 2.362083 1_556
O10 P4 1.551576 1_555
O10 Sb1 2.267164 1_554
O11 P5 1.551576 1_555
O11 Sb0 2.267164 1_555
O12 P2 1.536691 1_555
O12 Sb2 2.210522 1_555
O13 P3 1.536691 1_555
O13 Sb3 2.210522 1_555
O14 P2 1.519268 1_555
O14 Sb0 2.357231 1_555
O15 P3 1.519268 1_455
O15 Sb1 2.357231 1_555
O16 P4 1.516622 1_555
O16 Sb3 2.600768 1_455
O17 P5 1.516622 1_555
O17 Sb2 2.600768 1_556
O18 P6 1.552561 1_555
O18 Sb2 2.057115 1_555
O19 P7 1.552561 1_555
O19 Sb3 2.057115 1_555
O20 P4 1.546917 1_555
O20 Sb4 2.433052 1_565
O21 P5 1.546917 1_555
O21 Sb5 2.433052 1_565
O22 P6 1.619195 1_555
O22 P3 1.656806 1_554
O23 P8 1.536998 1_565
O23 Sb0 2.369004 1_555
O24 P7 1.619195 1_555
O24 P2 1.656806 1_555
O25 P9 1.536998 1_564
O25 Sb1 2.369004 1_554
O26 P6 1.520993 1_555
O26 Sb3 2.575114 1_555
O27 P7 1.520993 1_555
O27 Sb2 2.575114 1_556
O28 P8 1.520993 1_555
O28 Sb5 2.575114 1_554
O29 P9 1.520993 1_555
O29 Sb4 2.575114 1_555
O30 P6 1.536998 1_546
O30 Sb6 2.369004 1_556
O31 P8 1.619195 1_555
O31 P13 1.656806 1_555
O32 P7 1.536998 1_545
O32 Sb7 2.369004 1_555
O33 P9 1.619195 1_555
O33 P12 1.656806 1_556
O34 P10 1.546917 1_555
O34 Sb2 2.433052 1_545
O35 P11 1.546917 1_555
O35 Sb3 2.433052 1_545
O36 P8 1.552561 1_555
O36 Sb4 2.057115 1_555
O37 P9 1.552561 1_555
O37 Sb5 2.057115 1_555
O38 P10 1.516622 1_555
O38 Sb5 2.600768 1_554
O39 P11 1.516622 1_555
O39 Sb4 2.600768 1_655
O40 P12 1.519268 1_655
O40 Sb6 2.357231 1_555
O41 P13 1.519268 1_555
O41 Sb7 2.357231 1_555
O42 P12 1.536691 1_555
O42 Sb4 2.210522 1_555
O43 P13 1.536691 1_555
O43 Sb5 2.210522 1_555
O44 P10 1.551576 1_555
O44 Sb7 2.267164 1_555
O45 P11 1.551576 1_555
O45 Sb6 2.267164 1_556
O46 P0 1.547491 1_555
O46 Sb5 2.362083 1_554
O47 P1 1.547491 1_555
O47 Sb4 2.362083 1_555
O48 P14 1.540529 1_555
O48 Sb6 2.296079 1_555
O49 P15 1.540529 1_555
O49 Sb7 2.296079 1_555
O50 P15 1.610392 1_554
O50 P10 1.617754 1_555
O51 P14 1.610392 1_555
O51 P11 1.617754 1_555
O52 P13 1.547062 1_555
O52 Sb0 2.188857 1_555
O53 P12 1.547062 1_556
O53 Sb1 2.188857 1_555
O54 P14 1.519983 1_555
O54 Sb7 2.244013 1_555
O55 P15 1.519983 1_554
O55 Sb6 2.244013 1_555
