# generated using pymatgen
data_Sr(SbPd)2
_symmetry_space_group_name_H-M   'P 1'
_cell_length_a   4.67114016
_cell_length_b   4.67114016
_cell_length_c   10.75216249
_cell_angle_alpha   90.00000000
_cell_angle_beta   90.00000000
_cell_angle_gamma   90.00000000
_symmetry_Int_Tables_number   1
_chemical_formula_structural   Sr(SbPd)2
_chemical_formula_sum   'Sr2 Sb4 Pd4'
_cell_volume   234.60735130
_cell_formula_units_Z   2
loop_
 _symmetry_equiv_pos_site_id
 _symmetry_equiv_pos_as_xyz
  1  'x, y, z'
loop_
 _atom_site_type_symbol
 _atom_site_label
 _atom_site_symmetry_multiplicity
 _atom_site_fract_x
 _atom_site_fract_y
 _atom_site_fract_z
 _atom_site_occupancy
  Sr  Sr0  1  0.25000000  0.25000000  0.75922589  1
  Sr  Sr1  1  0.75000000  0.75000000  0.24077411  1
  Sb  Sb0  1  0.75000000  0.25000000  0.50000000  1
  Sb  Sb1  1  0.25000000  0.75000000  0.50000000  1
  Sb  Sb2  1  0.25000000  0.25000000  0.12592665  1
  Sb  Sb3  1  0.75000000  0.75000000  0.87407335  1
  Pd  Pd0  1  0.75000000  0.25000000  -0.00000000  1
  Pd  Pd1  1  0.25000000  0.75000000  -0.00000000  1
  Pd  Pd2  1  0.25000000  0.25000000  0.37219943  1
  Pd  Pd3  1  0.75000000  0.75000000  0.62780057  1
loop_
_geom_bond_atom_site_label_1
_geom_bond_atom_site_label_2
_geom_bond_distance
_geom_bond_site_symmetry_2
Sb0 Sr1 3.636425 1_545
Sb0 Sr1 3.636425 1_555
Sb0 Sr0 3.636425 1_555
Sb0 Sr0 3.636425 1_655
Sb1 Sr1 3.636425 1_455
Sb1 Sr1 3.636425 1_555
Sb1 Sr0 3.636425 1_555
Sb1 Sr0 3.636425 1_565
Sb2 Sr1 3.526280 1_455
Sb2 Sr1 3.526280 1_555
Sb2 Sr1 3.526280 1_445
Sb2 Sr1 3.526280 1_545
Sb3 Sr0 3.526280 1_665
Sb3 Sr0 3.526280 1_565
Sb3 Sr0 3.526280 1_555
Sb3 Sr0 3.526280 1_655
Pd0 Sb3 2.699659 1_554
Pd0 Sb2 2.699659 1_655
Pd0 Sb3 2.699659 1_544
Pd0 Sb2 2.699659 1_555
Pd0 Sr0 3.486688 1_654
Pd0 Sr0 3.486688 1_554
Pd0 Sr1 3.486688 1_545
Pd0 Sr1 3.486688 1_555
Pd1 Sb3 2.699659 1_454
Pd1 Sb3 2.699659 1_554
Pd1 Sb2 2.699659 1_565
Pd1 Sb2 2.699659 1_555
Pd1 Sr0 3.486688 1_564
Pd1 Sr0 3.486688 1_554
Pd1 Sr1 3.486688 1_455
Pd1 Sr1 3.486688 1_555
Pd2 Sb2 2.647965 1_555
Pd2 Sb0 2.709821 1_555
Pd2 Sb1 2.709821 1_545
Pd2 Sb1 2.709821 1_555
Pd2 Sb0 2.709821 1_455
Pd2 Sr1 3.592582 1_455
Pd2 Sr1 3.592582 1_555
Pd2 Sr1 3.592582 1_445
Pd2 Sr1 3.592582 1_545
Pd3 Sb3 2.647965 1_555
Pd3 Sb0 2.709821 1_555
Pd3 Sb1 2.709821 1_555
Pd3 Sb0 2.709821 1_565
Pd3 Sb1 2.709821 1_655
Pd3 Sr0 3.592582 1_555
Pd3 Sr0 3.592582 1_565
Pd3 Sr0 3.592582 1_665
Pd3 Sr0 3.592582 1_655
