# generated using pymatgen
data_Li2PmIn
_symmetry_space_group_name_H-M   'P 1'
_cell_length_a   4.91120887
_cell_length_b   4.91120741
_cell_length_c   4.91121105
_cell_angle_alpha   59.99983811
_cell_angle_beta   59.99988717
_cell_angle_gamma   59.99996075
_symmetry_Int_Tables_number   1
_chemical_formula_structural   Li2PmIn
_chemical_formula_sum   'Li2 Pm1 In1'
_cell_volume   83.76242653
_cell_formula_units_Z   1
loop_
 _symmetry_equiv_pos_site_id
 _symmetry_equiv_pos_as_xyz
  1  'x, y, z'
loop_
 _atom_site_type_symbol
 _atom_site_label
 _atom_site_symmetry_multiplicity
 _atom_site_fract_x
 _atom_site_fract_y
 _atom_site_fract_z
 _atom_site_occupancy
  Li  Li0  1  0.99999900  0.00000000  0.99999900  1
  Li  Li1  1  0.50000000  0.50000000  0.50000000  1
  Pm  Pm0  1  0.75000100  0.75000000  0.74999900  1
  In  In0  1  0.25000000  0.24999900  0.25000200  1
loop_
_geom_bond_atom_site_label_1
_geom_bond_atom_site_label_2
_geom_bond_distance
_geom_bond_site_symmetry_2
Li0 Pm0 3.007483 1_545
Li0 Pm0 3.007484 1_555
Li0 Pm0 3.007484 1_546
Li0 Pm0 3.007495 1_645
Li1 Pm0 3.007483 1_455
Li1 Pm0 3.007484 1_545
Li1 Pm0 3.007488 1_554
Li1 Pm0 3.007491 1_555
In0 Li0 3.007472 1_455
In0 Li1 3.007480 1_545
In0 Li0 3.007483 1_554
In0 Li1 3.007487 1_455
In0 Li1 3.007487 1_555
In0 Li0 3.007488 1_464
In0 Li1 3.007492 1_554
In0 Li0 3.007503 1_454
