# generated using pymatgen
data_K2USO7F2
_symmetry_space_group_name_H-M   'P 1'
_cell_length_a   8.74827400
_cell_length_b   9.35892000
_cell_length_c   11.15198045
_cell_angle_alpha   78.67518340
_cell_angle_beta   90.00000000
_cell_angle_gamma   90.00000000
_symmetry_Int_Tables_number   1
_chemical_formula_structural   K2USO7F2
_chemical_formula_sum   'K8 U4 S4 O28 F8'
_cell_volume   895.28408086
_cell_formula_units_Z   4
loop_
 _symmetry_equiv_pos_site_id
 _symmetry_equiv_pos_as_xyz
  1  'x, y, z'
loop_
 _atom_site_type_symbol
 _atom_site_label
 _atom_site_symmetry_multiplicity
 _atom_site_fract_x
 _atom_site_fract_y
 _atom_site_fract_z
 _atom_site_occupancy
  K  K0  1  0.97590800  0.58352100  0.69689900  1
  K  K1  1  0.47590800  0.41647900  0.80310100  1
  K  K2  1  0.02409200  0.41647900  0.30310100  1
  K  K3  1  0.52409200  0.58352100  0.19689900  1
  K  K4  1  0.95325300  0.07857200  0.64813100  1
  K  K5  1  0.45325300  0.92142800  0.85186900  1
  K  K6  1  0.04674700  0.92142800  0.35186900  1
  K  K7  1  0.54674700  0.07857200  0.14813100  1
  U  U0  1  0.60549000  0.80979200  0.51133800  1
  U  U1  1  0.10549000  0.19020800  0.98866200  1
  U  U2  1  0.39451000  0.19020800  0.48866200  1
  U  U3  1  0.89451000  0.80979200  0.01133800  1
  S  S0  1  0.27444300  0.57173000  0.49387300  1
  S  S1  1  0.77444300  0.42827000  0.00612700  1
  S  S2  1  0.72555700  0.42827000  0.50612700  1
  S  S3  1  0.22555700  0.57173000  0.99387300  1
  O  O0  1  0.54756400  0.76694600  0.67063000  1
  O  O1  1  0.04756400  0.23305400  0.82937000  1
  O  O2  1  0.45243600  0.23305400  0.32937000  1
  O  O3  1  0.95243600  0.76694600  0.17063000  1
  O  O4  1  0.65799700  0.85429800  0.34964800  1
  O  O5  1  0.15799700  0.14570200  0.15035200  1
  O  O6  1  0.34200300  0.14570200  0.65035200  1
  O  O7  1  0.84200300  0.85429800  0.84964800  1
  O  O8  1  0.41354500  0.65858800  0.44119300  1
  O  O9  1  0.91354500  0.34141200  0.05880700  1
  O  O10  1  0.58645500  0.34141200  0.55880700  1
  O  O11  1  0.08645500  0.65858800  0.94119300  1
  O  O12  1  0.13381100  0.64510600  0.44309400  1
  O  O13  1  0.63381100  0.35489400  0.05690600  1
  O  O14  1  0.86618900  0.35489400  0.55690600  1
  O  O15  1  0.36618900  0.64510600  0.94309400  1
  O  O16  1  0.28557500  0.42802800  0.45156400  1
  O  O17  1  0.78557500  0.57197200  0.04843600  1
  O  O18  1  0.71442500  0.57197200  0.54843600  1
  O  O19  1  0.21442500  0.42802800  0.95156400  1
  O  O20  1  0.27664400  0.54651600  0.62834900  1
  O  O21  1  0.77664400  0.45348400  0.87165100  1
  O  O22  1  0.72335600  0.45348400  0.37165100  1
  O  O23  1  0.22335600  0.54651600  0.12834900  1
  O  O24  1  0.68848200  0.16075600  0.78831900  1
  O  O25  1  0.18848200  0.83924400  0.71168100  1
  O  O26  1  0.31151800  0.83924400  0.21168100  1
  O  O27  1  0.81151800  0.16075600  0.28831900  1
  F  F0  1  0.62489800  0.05298000  0.52987000  1
  F  F1  1  0.12489800  0.94702000  0.97013000  1
  F  F2  1  0.37510200  0.94702000  0.47013000  1
  F  F3  1  0.87510200  0.05298000  0.02987000  1
  F  F4  1  0.84855300  0.84525200  0.55457600  1
  F  F5  1  0.34855300  0.15474800  0.94542400  1
  F  F6  1  0.15144700  0.15474800  0.44542400  1
  F  F7  1  0.65144700  0.84525200  0.05457600  1
loop_
_geom_bond_atom_site_label_1
_geom_bond_atom_site_label_2
_geom_bond_distance
_geom_bond_site_symmetry_2
K0 O21 2.717787 1_555
K0 O20 2.780302 1_655
K0 O18 2.838298 1_555
K0 O14 3.041206 1_555
K0 O25 3.060765 1_655
K0 O11 3.098822 1_655
K0 O12 3.100165 1_655
K1 O20 2.717787 1_555
K1 O21 2.780302 1_555
K1 O19 2.838298 1_555
K1 O15 3.041206 1_555
K1 O24 3.060765 1_555
K1 O10 3.098822 1_555
K1 O13 3.100165 1_556
K2 O23 2.717787 1_555
K2 O22 2.780302 1_455
K2 O16 2.838298 1_555
K2 O12 3.041206 1_555
K2 O27 3.060765 1_455
K2 O9 3.098822 1_455
K2 O14 3.100165 1_455
K3 O22 2.717787 1_555
K3 O23 2.780302 1_555
K3 O17 2.838298 1_555
K3 O13 3.041206 1_555
K3 O26 3.060765 1_555
K3 O8 3.098822 1_555
K3 O15 3.100165 1_554
K4 O14 2.696223 1_555
K4 O1 2.829103 1_655
K4 O7 2.924157 1_545
K4 O24 2.978790 1_555
K4 O25 3.021672 1_645
K5 O15 2.696223 1_555
K5 O0 2.829103 1_555
K5 O6 2.924157 1_565
K5 O25 2.978790 1_555
K5 O24 3.021672 1_565
K6 O12 2.696223 1_555
K6 O3 2.829103 1_455
K6 O5 2.924157 1_565
K6 O26 2.978790 1_555
K6 O27 3.021672 1_465
K7 O13 2.696223 1_555
K7 O2 2.829103 1_555
K7 O4 2.924157 1_545
K7 O27 2.978790 1_555
K7 O26 3.021672 1_545
O0 U0 1.814801 1_555
O1 U1 1.814801 1_555
O2 U2 1.814801 1_555
O3 U3 1.814801 1_555
O4 U0 1.827818 1_555
O5 U1 1.827818 1_554
O6 U2 1.827818 1_555
O7 U3 1.827818 1_556
O8 S0 1.516322 1_555
O8 U0 2.422576 1_555
O9 S1 1.516322 1_555
O9 U1 2.422576 1_654
O10 S2 1.516322 1_555
O10 U2 2.422576 1_555
O11 S3 1.516322 1_555
O11 U3 2.422576 1_456
O12 S0 1.467359 1_555
O13 S1 1.467359 1_555
O14 S2 1.467359 1_555
O15 S3 1.467359 1_555
O16 S0 1.513297 1_555
O16 U2 2.381517 1_555
O17 S1 1.513297 1_555
O17 U3 2.381517 1_555
O18 S2 1.513297 1_555
O18 U0 2.381517 1_555
O19 S3 1.513297 1_555
O19 U1 2.381517 1_555
O20 S0 1.471764 1_555
O21 S1 1.471764 1_556
O22 S2 1.471764 1_555
O23 S3 1.471764 1_554
F0 U0 2.331597 1_545
F0 U2 2.385594 1_555
F0 K4 3.189398 1_555
F1 U1 2.331597 1_565
F1 U3 2.385594 1_456
F1 K5 3.189398 1_555
F2 U2 2.331597 1_565
F2 U0 2.385594 1_555
F2 K6 3.189398 1_555
F3 U3 2.331597 1_545
F3 U1 2.385594 1_654
F3 K7 3.189398 1_555
F4 U0 2.219682 1_555
F4 K4 2.755076 1_565
F4 K6 2.826978 1_655
F4 K0 2.869439 1_555
F5 U1 2.219682 1_555
F5 K5 2.755076 1_545
F5 K7 2.826978 1_556
F5 K1 2.869439 1_555
F6 U2 2.219682 1_555
F6 K6 2.755076 1_545
F6 K4 2.826978 1_455
F6 K2 2.869439 1_555
F7 U3 2.219682 1_555
F7 K7 2.755076 1_565
F7 K5 2.826978 1_554
F7 K3 2.869439 1_555
