# generated using pymatgen
data_Li4V7O9F7
_symmetry_space_group_name_H-M   'P 1'
_cell_length_a   6.02532385
_cell_length_b   6.02532385
_cell_length_c   10.62887318
_cell_angle_alpha   73.19515446
_cell_angle_beta   73.19515446
_cell_angle_gamma   59.95356070
_symmetry_Int_Tables_number   1
_chemical_formula_structural   Li4V7O9F7
_chemical_formula_sum   'Li4 V7 O9 F7'
_cell_volume   314.86858000
_cell_formula_units_Z   1
loop_
 _symmetry_equiv_pos_site_id
 _symmetry_equiv_pos_as_xyz
  1  'x, y, z'
loop_
 _atom_site_type_symbol
 _atom_site_label
 _atom_site_symmetry_multiplicity
 _atom_site_fract_x
 _atom_site_fract_y
 _atom_site_fract_z
 _atom_site_occupancy
  Li  Li0  1  0.99411500  0.99411500  0.99036400  1
  Li  Li1  1  0.38453600  0.38453600  0.88174200  1
  Li  Li2  1  0.87692500  0.87692500  0.37818600  1
  Li  Li3  1  0.49042700  0.49042700  0.49140100  1
  V  V0  1  0.70402900  0.70402900  0.92712000  1
  V  V1  1  0.94078400  0.41513500  0.69233500  1
  V  V2  1  0.94338400  0.43990800  0.19310800  1
  V  V3  1  0.41513500  0.94078400  0.69233500  1
  V  V4  1  0.42858900  0.42858900  0.19893800  1
  V  V5  1  0.18666300  0.18666300  0.43589000  1
  V  V6  1  0.43990800  0.94338400  0.19310800  1
  O  O0  1  0.57161800  0.57161800  0.28509700  1
  O  O1  1  0.78949800  0.78949800  0.06450200  1
  O  O2  1  0.28603800  0.28603800  0.56822300  1
  O  O3  1  0.58970200  0.58970200  0.81148200  1
  O  O4  1  0.08343600  0.08343600  0.80229100  1
  O  O5  1  0.08074100  0.53371400  0.31112800  1
  O  O6  1  0.53371400  0.08074100  0.31112800  1
  O  O7  1  0.08108800  0.08108800  0.30760600  1
  O  O8  1  0.31021800  0.31021800  0.08350900  1
  F  F0  1  0.82287100  0.32035900  0.55913500  1
  F  F1  1  0.55797400  0.05333000  0.81306900  1
  F  F2  1  0.78928100  0.78928100  0.57755100  1
  F  F3  1  0.33697300  0.80115200  0.06052300  1
  F  F4  1  0.80115200  0.33697300  0.06052300  1
  F  F5  1  0.32035900  0.82287100  0.55913500  1
  F  F6  1  0.05333000  0.55797400  0.81306900  1
loop_
_geom_bond_atom_site_label_1
_geom_bond_atom_site_label_2
_geom_bond_distance
_geom_bond_site_symmetry_2
Li0 O4 1.902947 1_665
Li0 O1 2.014839 1_556
Li1 O3 2.019094 1_555
Li1 O8 2.022473 1_556
Li2 O7 2.009348 1_665
Li2 O6 2.023759 1_565
Li2 O5 2.023759 1_655
Li3 O2 2.013905 1_555
Li3 O0 2.070274 1_555
O0 V4 1.995105 1_555
O0 V2 2.001380 1_555
O0 V6 2.001380 1_555
O1 V0 1.948804 1_554
O1 V6 2.068162 1_555
O1 V2 2.068162 1_555
O2 V5 2.007090 1_555
O2 V3 2.014674 1_545
O2 V1 2.014674 1_455
O3 V0 1.978400 1_555
O3 V1 2.044016 1_555
O3 V3 2.044016 1_555
O4 V3 1.899745 1_545
O4 V1 1.899745 1_455
O5 V4 1.969293 1_555
O5 V2 2.014125 1_455
O5 V5 2.021883 1_555
O6 V4 1.969293 1_555
O6 V6 2.014125 1_545
O6 V5 2.021883 1_555
O7 V5 2.019099 1_555
O7 V2 2.027279 1_455
O7 V6 2.027279 1_545
O8 V4 2.010958 1_555
O8 V6 2.039849 1_545
O8 V2 2.039849 1_455
F0 Li3 1.983053 1_555
F0 V1 2.071385 1_555
F0 V5 2.085965 1_655
F1 Li1 1.979943 1_555
F1 V0 1.990069 1_545
F1 V3 2.138597 1_545
F2 Li2 2.008278 1_555
F2 V1 2.096836 1_555
F2 V3 2.096836 1_555
F3 Li0 2.039541 1_454
F3 V0 2.148194 1_554
F3 V4 2.197129 1_555
F3 V6 2.200230 1_555
F4 Li0 2.039541 1_544
F4 V0 2.148194 1_554
F4 V4 2.197129 1_555
F4 V2 2.200230 1_555
F5 Li3 1.983053 1_555
F5 V3 2.071385 1_555
F5 V5 2.085965 1_565
F6 Li1 1.979943 1_555
F6 V0 1.990069 1_455
F6 V1 2.138597 1_455
