# generated using pymatgen
data_LiV2P4(HO8)2
_symmetry_space_group_name_H-M   'P 1'
_cell_length_a   7.37450500
_cell_length_b   9.27979430
_cell_length_c   9.28741033
_cell_angle_alpha   116.54007868
_cell_angle_beta   97.56868663
_cell_angle_gamma   97.51863183
_symmetry_Int_Tables_number   1
_chemical_formula_structural   LiV2P4(HO8)2
_chemical_formula_sum   'Li2 V4 P8 H4 O32'
_cell_volume   550.59780521
_cell_formula_units_Z   2
loop_
 _symmetry_equiv_pos_site_id
 _symmetry_equiv_pos_as_xyz
  1  'x, y, z'
loop_
 _atom_site_type_symbol
 _atom_site_label
 _atom_site_symmetry_multiplicity
 _atom_site_fract_x
 _atom_site_fract_y
 _atom_site_fract_z
 _atom_site_occupancy
  Li  Li0  1  0.14886900  0.86583900  0.73692900  1
  Li  Li1  1  0.34788200  0.26283200  0.63219100  1
  V  V0  1  0.99715900  0.49953800  0.00004600  1
  V  V1  1  0.50933000  0.50215000  0.49238300  1
  V  V2  1  0.50855000  0.00276800  0.00758000  1
  V  V3  1  0.98685200  0.99740200  0.49409300  1
  P  P0  1  0.76537100  0.88997100  0.73959300  1
  P  P1  1  0.23666900  0.60847600  0.76499900  1
  P  P2  1  0.26698200  0.73663300  0.38846900  1
  P  P3  1  0.26143100  0.23507100  0.88927300  1
  P  P4  1  0.73185600  0.26304800  0.61174400  1
  P  P5  1  0.72660300  0.75556600  0.11034300  1
  P  P6  1  0.77777200  0.38727100  0.23995100  1
  P  P7  1  0.23491800  0.11330700  0.26360900  1
  H  H0  1  0.48743100  0.97409700  0.48346200  1
  H  H1  1  0.49291700  0.48644800  0.99358000  1
  H  H2  1  0.01127400  0.51095500  0.51886600  1
  H  H3  1  0.01221900  0.01531200  0.02538400  1
  O  O0  1  0.34167100  0.79082000  0.84810600  1
  O  O1  1  0.17716000  0.56360000  0.89636200  1
  O  O2  1  0.94442800  0.90500500  0.85096000  1
  O  O3  1  0.86725800  0.66436100  0.00586600  1
  O  O4  1  0.14331800  0.83054100  0.50536100  1
  O  O5  1  0.06024200  0.60135700  0.64961000  1
  O  O6  1  0.81326400  0.93455300  0.60616500  1
  O  O7  1  0.64943500  0.70441900  0.64568400  1
  O  O8  1  0.44704700  0.84889500  0.40043000  1
  O  O9  1  0.43751700  0.35036000  0.89977300  1
  O  O10  1  0.36319400  0.00260900  0.17116300  1
  O  O11  1  0.36023400  0.49286100  0.66842400  1
  O  O12  1  0.32564400  0.60261700  0.43173800  1
  O  O13  1  0.30985600  0.09794800  0.92714400  1
  O  O14  1  0.15405100  0.15192400  0.70555300  1
  O  O15  1  0.15214600  0.64860300  0.20865900  1
  O  O16  1  0.84795500  0.35359500  0.79432300  1
  O  O17  1  0.84545000  0.84815100  0.29214800  1
  O  O18  1  0.68192200  0.88796300  0.06421200  1
  O  O19  1  0.67902900  0.40004500  0.56816000  1
  O  O20  1  0.64018200  0.49696900  0.33190900  1
  O  O21  1  0.63045400  0.99419700  0.82973300  1
  O  O22  1  0.55229400  0.15210700  0.59468400  1
  O  O23  1  0.55502000  0.63731800  0.09225500  1
  O  O24  1  0.35138100  0.29636500  0.35117000  1
  O  O25  1  0.18712200  0.07894000  0.40335900  1
  O  O26  1  0.95022300  0.40905800  0.35851100  1
  O  O27  1  0.86299500  0.17415000  0.50261400  1
  O  O28  1  0.13207100  0.33212200  0.99909200  1
  O  O29  1  0.05231700  0.09751900  0.15166000  1
  O  O30  1  0.82326900  0.43309700  0.10459200  1
  O  O31  1  0.65776600  0.20850700  0.15081800  1
loop_
_geom_bond_atom_site_label_1
_geom_bond_atom_site_label_2
_geom_bond_distance
_geom_bond_site_symmetry_2
Li0 O2 1.935649 1_455
Li0 O4 2.019428 1_555
Li0 O0 2.021639 1_555
Li0 O13 2.132507 1_565
Li0 O5 2.184145 1_555
Li1 O22 1.916583 1_555
Li1 O11 1.994307 1_555
Li1 O14 2.016164 1_555
Li1 O25 2.097643 1_555
Li1 O9 2.212580 1_555
H0 O8 1.039970 1_555
H0 O22 1.470633 1_565
H1 O9 1.144014 1_555
H1 O23 1.258874 1_556
H2 O5 1.097048 1_555
H2 O26 1.329766 1_455
H3 O29 1.046374 1_555
H3 O2 1.446666 1_444
O0 P1 1.546321 1_555
O0 V2 1.964621 1_566
O1 P1 1.549746 1_555
O1 V0 1.919512 1_456
O2 P0 1.515231 1_555
O3 P5 1.579475 1_555
O3 V0 1.892946 1_555
O4 P2 1.546935 1_555
O4 V3 2.078597 1_455
O5 P1 1.546781 1_555
O6 P0 1.538415 1_555
O6 V3 1.939168 1_555
O7 P0 1.591474 1_555
O7 V1 1.826079 1_555
O8 P2 1.535128 1_555
O9 P3 1.533027 1_555
O10 P7 1.538623 1_555
O10 V2 1.971747 1_555
O11 P1 1.548256 1_555
O11 V1 2.112856 1_555
O12 P2 1.561054 1_555
O12 V1 1.902667 1_555
O13 P3 1.534997 1_555
O13 V2 2.031060 1_556
O14 P3 1.562515 1_555
O14 V3 1.953516 1_445
O15 P2 1.549384 1_555
O15 V0 1.892481 1_455
O16 P4 1.571758 1_555
O16 V0 1.854506 1_556
O17 P5 1.572902 1_555
O17 V3 1.818999 1_555
O18 P5 1.529963 1_555
O18 V2 1.930377 1_565
O19 P4 1.574729 1_555
O19 V1 1.906150 1_555
O20 P6 1.586460 1_555
O20 V1 1.865931 1_555
O21 P0 1.540746 1_555
O21 V2 1.958368 1_566
O22 P4 1.510182 1_555
O23 P5 1.499773 1_555
O24 P7 1.576183 1_555
O24 V1 1.871057 1_555
O25 P7 1.539978 1_555
O25 V3 2.017193 1_445
O26 P6 1.495170 1_555
O27 P4 1.537156 1_555
O27 V3 1.955975 1_545
O28 P3 1.556180 1_555
O28 V0 1.948864 1_456
O29 P7 1.535971 1_555
O30 P6 1.557345 1_555
O30 V0 1.903527 1_555
O31 P6 1.554352 1_555
O31 V2 1.849472 1_555
