# generated using pymatgen
data_Cd2PbO4
_symmetry_space_group_name_H-M   'P 1'
_cell_length_a   3.32217366
_cell_length_b   5.70608177
_cell_length_c   9.97455610
_cell_angle_alpha   90.00000000
_cell_angle_beta   90.00000000
_cell_angle_gamma   90.00000000
_symmetry_Int_Tables_number   1
_chemical_formula_structural   Cd2PbO4
_chemical_formula_sum   'Cd4 Pb2 O8'
_cell_volume   189.08361588
_cell_formula_units_Z   2
loop_
 _symmetry_equiv_pos_site_id
 _symmetry_equiv_pos_as_xyz
  1  'x, y, z'
loop_
 _atom_site_type_symbol
 _atom_site_label
 _atom_site_symmetry_multiplicity
 _atom_site_fract_x
 _atom_site_fract_y
 _atom_site_fract_z
 _atom_site_occupancy
  Cd  Cd0  1  0.50000000  0.56438955  0.32281947  1
  Cd  Cd1  1  0.50000000  0.93561045  0.82281947  1
  Cd  Cd2  1  0.50000000  0.06438955  0.17718053  1
  Cd  Cd3  1  0.50000000  0.43561045  0.67718053  1
  Pb  Pb0  1  0.00000000  0.50000000  0.00000000  1
  Pb  Pb1  1  0.00000000  0.00000000  0.50000000  1
  O  O0  1  0.00000000  0.64033755  0.79914894  1
  O  O1  1  0.50000000  0.74696682  0.03893322  1
  O  O2  1  0.50000000  0.75303318  0.53893322  1
  O  O3  1  0.00000000  0.85966245  0.29914894  1
  O  O4  1  0.00000000  0.14033755  0.70085106  1
  O  O5  1  0.50000000  0.24696682  0.46106678  1
  O  O6  1  0.50000000  0.25303318  0.96106678  1
  O  O7  1  0.00000000  0.35966245  0.20085106  1
loop_
_geom_bond_atom_site_label_1
_geom_bond_atom_site_label_2
_geom_bond_distance
_geom_bond_site_symmetry_2
Cd0 O5 2.276425 1_555
Cd0 O7 2.367265 1_555
Cd0 O7 2.367265 1_655
Cd0 O3 2.377746 1_555
Cd0 O3 2.377746 1_655
Cd0 O2 2.409450 1_555
Cd1 O6 2.276425 1_565
Cd1 O4 2.367265 1_665
Cd1 O4 2.367265 1_565
Cd1 O0 2.377746 1_655
Cd1 O0 2.377746 1_555
Cd1 O1 2.409450 1_556
Cd2 O1 2.276425 1_545
Cd2 O3 2.367265 1_545
Cd2 O3 2.367265 1_645
Cd2 O7 2.377746 1_555
Cd2 O7 2.377746 1_655
Cd2 O6 2.409450 1_554
Cd3 O2 2.276425 1_555
Cd3 O0 2.367265 1_555
Cd3 O0 2.367265 1_655
Cd3 O4 2.377746 1_555
Cd3 O4 2.377746 1_655
Cd3 O5 2.409450 1_555
O0 Pb0 2.157512 1_556
O1 Pb0 2.212668 1_655
O1 Pb0 2.212668 1_555
O2 Pb1 2.212668 1_665
O2 Pb1 2.212668 1_565
O3 Pb1 2.157512 1_565
O4 Pb1 2.157512 1_555
O5 Pb1 2.212668 1_555
O5 Pb1 2.212668 1_655
O6 Pb0 2.212668 1_556
O6 Pb0 2.212668 1_656
O7 Pb0 2.157512 1_555
