# generated using pymatgen
data_Li3V3P8O29
_symmetry_space_group_name_H-M   'P 1'
_cell_length_a   9.75351900
_cell_length_b   9.75490508
_cell_length_c   14.37280984
_cell_angle_alpha   90.61993198
_cell_angle_beta   89.78494912
_cell_angle_gamma   119.86680908
_symmetry_Int_Tables_number   1
_chemical_formula_structural   Li3V3P8O29
_chemical_formula_sum   'Li6 V6 P16 O58'
_cell_volume   1185.80099977
_cell_formula_units_Z   2
loop_
 _symmetry_equiv_pos_site_id
 _symmetry_equiv_pos_as_xyz
  1  'x, y, z'
loop_
 _atom_site_type_symbol
 _atom_site_label
 _atom_site_symmetry_multiplicity
 _atom_site_fract_x
 _atom_site_fract_y
 _atom_site_fract_z
 _atom_site_occupancy
  Li  Li0  1  0.91780000  0.69603800  0.43954400  1
  Li  Li1  1  0.76903300  0.67631500  0.94386600  1
  Li  Li2  1  0.32083600  0.09127700  0.94404500  1
  Li  Li3  1  0.31875100  0.22839300  0.44058000  1
  Li  Li4  1  0.07944000  0.30222400  0.55993100  1
  Li  Li5  1  0.98102200  0.04122500  0.99978900  1
  V  V0  1  0.56803300  0.56757400  0.74873500  1
  V  V1  1  0.43291200  0.43706200  0.24571400  1
  V  V2  1  0.56716000  0.99964700  0.25309900  1
  V  V3  1  0.43893700  0.99931200  0.74885300  1
  V  V4  1  0.99214500  0.42988000  0.75827100  1
  V  V5  1  0.00480200  0.56482400  0.24524200  1
  P  P0  1  0.91509700  0.21685500  0.16526500  1
  P  P1  1  0.77510300  0.08347700  0.65804000  1
  P  P2  1  0.91220400  0.67784300  0.65626500  1
  P  P3  1  0.66183600  0.33472200  0.86970800  1
  P  P4  1  0.66694800  0.33809500  0.36678200  1
  P  P5  1  0.77462500  0.68657700  0.15729600  1
  P  P6  1  0.68693300  0.77522200  0.33707000  1
  P  P7  1  0.31300800  0.08386200  0.15674300  1
  P  P8  1  0.69681600  0.91842000  0.84133200  1
  P  P9  1  0.32109900  0.22823100  0.65809400  1
  P  P10  1  0.22449900  0.30812200  0.83754200  1
  P  P11  1  0.32678100  0.65885400  0.63529400  1
  P  P12  1  0.33672300  0.66947200  0.13275400  1
  P  P13  1  0.09128500  0.32036600  0.34448300  1
  P  P14  1  0.22426300  0.91381800  0.33632900  1
  P  P15  1  0.08605300  0.78005200  0.83521500  1
  O  O0  1  0.01903700  0.25640000  0.43611600  1
  O  O1  1  0.91840100  0.25579400  0.66746400  1
  O  O2  1  0.79476000  0.99589100  0.92437400  1
  O  O3  1  0.74041200  0.08407900  0.17165400  1
  O  O4  1  0.92095700  0.38039400  0.17277600  1
  O  O5  1  0.80938100  0.32790600  0.82620600  1
  O  O6  1  0.90097400  0.51812300  0.68215100  1
  O  O7  1  0.98915000  0.78790500  0.91279900  1
  O  O8  1  0.91343100  0.65325200  0.17145700  1
  O  O9  1  0.65742800  0.18481500  0.32214800  1
  O  O10  1  0.62054400  0.09300400  0.68069300  1
  O  O11  1  0.82043700  0.48037000  0.32520900  1
  O  O12  1  0.66405500  0.34041000  0.97299300  1
  O  O13  1  0.66207800  0.33821000  0.47016100  1
  O  O14  1  0.67360800  0.48899200  0.82815400  1
  O  O15  1  0.46859100  0.08218800  0.17222700  1
  O  O16  1  0.51030000  0.18685600  0.82900900  1
  O  O17  1  0.74506500  0.65908000  0.67239800  1
  O  O18  1  0.78911100  0.80056600  0.24192900  1
  O  O19  1  0.77549500  0.76918500  0.41857500  1
  O  O20  1  0.78670000  0.76280300  0.06634300  1
  O  O21  1  0.61659100  0.52882900  0.17184600  1
  O  O22  1  0.52005300  0.34270100  0.32516500  1
  O  O23  1  0.65480700  0.74090500  0.83559700  1
  O  O24  1  0.48214300  0.37980400  0.67867700  1
  O  O25  1  0.34316700  0.08270600  0.66843900  1
  O  O26  1  0.79503500  0.99628400  0.74773700  1
  O  O27  1  0.76974000  0.00349200  0.57012300  1
  O  O28  1  0.22669100  0.00990300  0.41761200  1
  O  O29  1  0.65761400  0.91752100  0.33526000  1
  O  O30  1  0.52582800  0.62218400  0.31937000  1
  O  O31  1  0.34382700  0.25588300  0.17286500  1
  O  O32  1  0.47257600  0.65390700  0.68165900  1
  O  O33  1  0.38487100  0.46246300  0.82940100  1
  O  O34  1  0.20563400  0.20212800  0.91623600  1
  O  O35  1  0.25027200  0.23832100  0.56812800  1
  O  O36  1  0.20237100  0.21323400  0.73995800  1
  O  O37  1  0.26045300  0.34188300  0.33686000  1
  O  O38  1  0.48312600  0.81283200  0.17889900  1
  O  O39  1  0.54033400  0.92393200  0.82921500  1
  O  O40  1  0.33033900  0.51710600  0.17645200  1
  O  O41  1  0.33348900  0.66585900  0.02991700  1
  O  O42  1  0.33204000  0.65909500  0.53255400  1
  O  O43  1  0.17677300  0.51387900  0.67606000  1
  O  O44  1  0.37916000  0.90773600  0.32291900  1
  O  O45  1  0.33871500  0.81270400  0.68218800  1
  O  O46  1  0.08761800  0.34659000  0.83383300  1
  O  O47  1  0.99277700  0.20101200  0.26109800  1
  O  O48  1  0.99825900  0.19969300  0.08378200  1
  O  O49  1  0.09860800  0.47867200  0.32013000  1
  O  O50  1  0.18728400  0.67069300  0.17690300  1
  O  O51  1  0.08439700  0.61879700  0.82741100  1
  O  O52  1  0.25974700  0.91802300  0.83832600  1
  O  O53  1  0.23500700  0.02174400  0.06514600  1
  O  O54  1  0.19726800  0.98472400  0.24044600  1
  O  O55  1  0.08154500  0.74218000  0.33743600  1
  O  O56  1  0.97988400  0.73763700  0.56377700  1
  O  O57  1  0.02062000  0.80094900  0.73616500  1
loop_
_geom_bond_atom_site_label_1
_geom_bond_atom_site_label_2
_geom_bond_distance
_geom_bond_site_symmetry_2
Li0 O56 1.862078 1_555
Li0 O19 1.876334 1_555
Li0 O55 2.046415 1_655
Li0 O11 2.444472 1_555
Li1 O20 1.914583 1_556
Li1 O7 1.915536 1_555
Li1 O23 2.189321 1_555
Li1 O14 2.285442 1_555
Li2 O53 1.907748 1_556
Li2 O34 1.953058 1_555
Li2 O52 2.113876 1_545
Li2 O16 2.304843 1_555
Li3 O28 1.881175 1_555
Li3 O35 1.966617 1_555
Li3 O37 2.107207 1_555
Li3 O22 2.384353 1_555
Li4 O0 1.855300 1_555
Li4 O35 2.053357 1_555
Li4 O1 2.085508 1_455
Li4 O43 2.436219 1_555
Li5 O48 1.891443 1_556
Li5 O2 1.968538 1_545
Li5 O34 2.302494 1_655
O0 P13 1.480997 1_555
O1 P1 1.566502 1_555
O1 V4 1.961422 1_555
O2 P8 1.475898 1_555
O3 P0 1.546751 1_555
O3 V2 1.877225 1_545
O4 P0 1.570170 1_555
O4 V5 1.868376 1_655
O5 P3 1.598111 1_555
O5 V4 1.833689 1_555
O6 P2 1.555706 1_555
O6 V4 1.875832 1_555
O7 P15 1.484913 1_655
O8 P5 1.556228 1_555
O8 V5 1.858898 1_655
O9 P4 1.580283 1_555
O9 V2 1.845707 1_545
O10 P1 1.588200 1_555
O10 V3 1.823879 1_545
O11 P4 1.570442 1_555
O11 V5 1.939788 1_655
O12 P3 1.484768 1_555
O13 P4 1.486434 1_555
O14 P3 1.575253 1_555
O14 V0 1.940320 1_555
O15 P7 1.542673 1_555
O15 V2 1.929582 1_545
O16 P3 1.572315 1_555
O16 V3 1.962361 1_545
O17 P2 1.563875 1_555
O17 V0 1.858472 1_555
O18 P5 1.597376 1_555
O18 P6 1.635823 1_555
O19 P6 1.477046 1_555
O20 P5 1.486048 1_555
O21 P5 1.558767 1_555
O21 V1 1.883371 1_555
O22 P4 1.575972 1_555
O22 V1 1.919091 1_555
O23 P8 1.569640 1_555
O23 V0 1.915939 1_555
O24 P9 1.556235 1_555
O24 V0 1.873205 1_555
O25 P9 1.546861 1_555
O25 V3 1.911912 1_545
O26 P8 1.609971 1_555
O26 P1 1.616656 1_565
O27 P1 1.465180 1_555
O28 P14 1.482680 1_545
O29 P6 1.550967 1_555
O29 V2 1.883320 1_555
O30 P6 1.555930 1_555
O30 V1 1.881217 1_555
O31 P7 1.565128 1_555
O31 V1 1.847222 1_555
O32 P11 1.595209 1_555
O32 V0 1.819551 1_555
O33 P10 1.544044 1_555
O33 V0 1.942377 1_555
O34 P10 1.488784 1_555
O35 P9 1.495361 1_555
O36 P9 1.603619 1_555
O36 P10 1.626571 1_555
O37 P13 1.559717 1_555
O37 V1 1.965179 1_555
O38 P12 1.559731 1_555
O38 V2 1.899211 1_555
O39 P8 1.564159 1_555
O39 V3 1.898450 1_555
O40 P12 1.592233 1_555
O40 V1 1.844965 1_555
O41 P12 1.478176 1_555
O42 P11 1.477347 1_555
O43 P11 1.560345 1_555
O43 V4 1.961060 1_455
O44 P14 1.552417 1_555
O44 V2 1.881876 1_555
O45 P11 1.588998 1_555
O45 V3 1.839649 1_555
O46 P10 1.557565 1_555
O46 V4 1.867342 1_455
O47 P13 1.606037 1_655
O47 P0 1.619934 1_555
O48 P0 1.476952 1_555
O49 P13 1.553708 1_555
O49 V5 1.869415 1_555
O50 P12 1.592936 1_555
O50 V5 1.837735 1_555
O51 P15 1.567848 1_555
O51 V4 1.873196 1_455
O52 P15 1.553009 1_555
O52 V3 1.990475 1_555
O53 P7 1.486699 1_555
O54 P7 1.607666 1_565
O54 P14 1.628393 1_555
O55 P14 1.555763 1_555
O55 V5 1.994342 1_555
O56 P2 1.473009 1_555
O57 P2 1.610473 1_455
O57 P15 1.618098 1_555
