# generated using pymatgen
data_Rb
_symmetry_space_group_name_H-M   'P 1'
_cell_length_a   10.15056006
_cell_length_b   10.15056006
_cell_length_c   26.04568199
_cell_angle_alpha   101.23658886
_cell_angle_beta   78.76341114
_cell_angle_gamma   120.00000741
_symmetry_Int_Tables_number   1
_chemical_formula_structural   Rb
_chemical_formula_sum   Rb24
_cell_volume   2264.45993866
_cell_formula_units_Z   24
loop_
 _symmetry_equiv_pos_site_id
 _symmetry_equiv_pos_as_xyz
  1  'x, y, z'
loop_
 _atom_site_type_symbol
 _atom_site_label
 _atom_site_symmetry_multiplicity
 _atom_site_fract_x
 _atom_site_fract_y
 _atom_site_fract_z
 _atom_site_occupancy
  Rb  Rb0_0  1  0.00000000  0.00000000  0.00000000  1
  Rb  Rb0_1  1  0.00000000  0.00000000  0.50000000  1
  Rb  Rb0_2  1  0.00000000  0.50000000  0.00000000  1
  Rb  Rb0_3  1  0.00000000  0.50000000  0.50000000  1
  Rb  Rb0_4  1  0.50000000  0.00000000  0.00000000  1
  Rb  Rb0_5  1  0.50000000  0.00000000  0.50000000  1
  Rb  Rb0_6  1  0.50000000  0.50000000  0.00000000  1
  Rb  Rb0_7  1  0.50000000  0.50000000  0.50000000  1
  Rb  Rb1_0  1  0.11118831  0.38881120  0.16643358  1
  Rb  Rb1_1  1  0.11118831  0.38881120  0.66643358  1
  Rb  Rb1_2  1  0.11118831  0.88881120  0.16643358  1
  Rb  Rb1_3  1  0.11118831  0.88881120  0.66643358  1
  Rb  Rb1_4  1  0.61118830  0.38881120  0.16643358  1
  Rb  Rb1_5  1  0.61118831  0.38881120  0.66643358  1
  Rb  Rb1_6  1  0.61118830  0.88881120  0.16643358  1
  Rb  Rb1_7  1  0.61118830  0.88881119  0.66643358  1
  Rb  Rb2_0  1  0.38881119  0.11118831  0.33356642  1
  Rb  Rb2_1  1  0.38881120  0.11118831  0.83356642  1
  Rb  Rb2_2  1  0.38881119  0.61118831  0.33356642  1
  Rb  Rb2_3  1  0.38881120  0.61118831  0.83356642  1
  Rb  Rb2_4  1  0.88881120  0.11118831  0.33356642  1
  Rb  Rb2_5  1  0.88881120  0.11118831  0.83356642  1
  Rb  Rb2_6  1  0.88881120  0.61118830  0.33356642  1
  Rb  Rb2_7  1  0.88881120  0.61118830  0.83356642  1
loop_
_geom_bond_atom_site_label_1
_geom_bond_atom_site_label_2
_geom_bond_distance
_geom_bond_site_symmetry_2
Rb0_0 Rb0_6 5.075279 1_555
Rb0_0 Rb0_6 5.075279 1_445
Rb0_0 Rb0_2 5.075280 1_555
Rb0_0 Rb0_4 5.075280 1_455
Rb0_0 Rb0_4 5.075280 1_555
Rb0_0 Rb0_2 5.075280 1_545
Rb0_0 Rb1_2 5.140616 1_545
Rb0_0 Rb2_5 5.140616 1_454
Rb0_0 Rb2_1 5.140618 1_554
Rb0_0 Rb1_0 5.140618 1_555
Rb0_0 Rb2_7 5.140621 1_444
Rb0_0 Rb1_6 5.140621 1_445
Rb0_1 Rb0_7 5.075279 1_445
Rb0_1 Rb0_7 5.075279 1_555
Rb0_1 Rb0_5 5.075280 1_555
Rb0_1 Rb0_5 5.075280 1_455
Rb0_1 Rb0_3 5.075280 1_545
Rb0_1 Rb0_3 5.075280 1_555
Rb0_1 Rb2_4 5.140616 1_455
Rb0_1 Rb1_3 5.140616 1_545
Rb0_1 Rb2_0 5.140618 1_555
Rb0_1 Rb1_1 5.140618 1_555
Rb0_1 Rb2_6 5.140621 1_445
Rb0_1 Rb1_7 5.140621 1_445
Rb0_2 Rb0_4 5.075279 1_455
Rb0_2 Rb0_4 5.075279 1_565
Rb0_2 Rb0_6 5.075280 1_555
Rb0_2 Rb0_6 5.075280 1_455
Rb0_2 Rb2_7 5.140616 1_454
Rb0_2 Rb1_0 5.140616 1_555
Rb0_2 Rb2_3 5.140618 1_554
Rb0_2 Rb1_2 5.140618 1_555
Rb0_2 Rb2_5 5.140621 1_454
Rb0_2 Rb1_4 5.140621 1_455
Rb0_3 Rb0_5 5.075279 1_455
Rb0_3 Rb0_5 5.075279 1_565
Rb0_3 Rb0_7 5.075280 1_555
Rb0_3 Rb0_7 5.075280 1_455
Rb0_3 Rb2_6 5.140616 1_455
Rb0_3 Rb1_1 5.140616 1_555
Rb0_3 Rb2_2 5.140618 1_555
Rb0_3 Rb1_3 5.140618 1_555
Rb0_3 Rb2_4 5.140621 1_455
Rb0_3 Rb1_5 5.140621 1_455
Rb0_4 Rb0_6 5.075280 1_545
Rb0_4 Rb0_6 5.075280 1_555
Rb0_4 Rb2_1 5.140616 1_554
Rb0_4 Rb1_6 5.140616 1_545
Rb0_4 Rb2_5 5.140618 1_554
Rb0_4 Rb1_4 5.140618 1_555
Rb0_4 Rb2_3 5.140621 1_544
Rb0_4 Rb1_2 5.140621 1_545
Rb0_5 Rb0_7 5.075280 1_555
Rb0_5 Rb0_7 5.075280 1_545
Rb0_5 Rb2_0 5.140616 1_555
Rb0_5 Rb1_7 5.140616 1_545
Rb0_5 Rb2_4 5.140618 1_555
Rb0_5 Rb1_5 5.140618 1_555
Rb0_5 Rb2_2 5.140621 1_545
Rb0_5 Rb1_3 5.140621 1_545
Rb0_6 Rb1_4 5.140616 1_555
Rb0_6 Rb2_3 5.140616 1_554
Rb0_6 Rb2_7 5.140618 1_554
Rb0_6 Rb1_6 5.140618 1_555
Rb0_6 Rb2_1 5.140621 1_554
Rb0_6 Rb1_0 5.140621 1_555
Rb0_7 Rb2_2 5.140616 1_555
Rb0_7 Rb1_5 5.140616 1_555
Rb0_7 Rb2_6 5.140618 1_555
Rb0_7 Rb1_7 5.140618 1_555
Rb0_7 Rb2_0 5.140621 1_555
Rb0_7 Rb1_1 5.140621 1_555
Rb1_0 Rb1_6 5.075279 1_555
Rb1_0 Rb1_6 5.075279 1_445
Rb1_0 Rb1_2 5.075280 1_545
Rb1_0 Rb1_4 5.075280 1_555
Rb1_0 Rb1_2 5.075280 1_555
Rb1_0 Rb1_4 5.075280 1_455
Rb1_0 Rb2_6 5.155204 1_455
Rb1_0 Rb2_2 5.155211 1_555
Rb1_0 Rb2_4 5.155211 1_455
Rb1_1 Rb1_7 5.075279 1_555
Rb1_1 Rb1_7 5.075279 1_445
Rb1_1 Rb1_5 5.075280 1_455
Rb1_1 Rb1_3 5.075280 1_555
Rb1_1 Rb1_3 5.075280 1_545
Rb1_1 Rb1_5 5.075280 1_555
Rb1_1 Rb2_7 5.155204 1_455
Rb1_1 Rb2_5 5.155211 1_455
Rb1_1 Rb2_3 5.155211 1_555
Rb1_2 Rb1_4 5.075279 1_565
Rb1_2 Rb1_4 5.075279 1_455
Rb1_2 Rb1_6 5.075280 1_555
Rb1_2 Rb1_6 5.075280 1_455
Rb1_2 Rb2_4 5.155204 1_465
Rb1_2 Rb2_0 5.155211 1_565
Rb1_2 Rb2_6 5.155211 1_455
Rb1_3 Rb1_5 5.075279 1_455
Rb1_3 Rb1_5 5.075279 1_565
Rb1_3 Rb1_7 5.075280 1_555
Rb1_3 Rb1_7 5.075280 1_455
Rb1_3 Rb2_5 5.155204 1_465
Rb1_3 Rb2_1 5.155211 1_565
Rb1_3 Rb2_7 5.155211 1_455
Rb1_4 Rb1_6 5.075280 1_545
Rb1_4 Rb1_6 5.075280 1_555
Rb1_4 Rb2_2 5.155204 1_555
Rb1_4 Rb2_6 5.155211 1_555
Rb1_4 Rb2_0 5.155211 1_555
Rb1_5 Rb1_7 5.075280 1_555
Rb1_5 Rb1_7 5.075280 1_545
Rb1_5 Rb2_3 5.155204 1_555
Rb1_5 Rb2_7 5.155211 1_555
Rb1_5 Rb2_1 5.155211 1_555
Rb1_6 Rb2_0 5.155204 1_565
Rb1_6 Rb2_2 5.155211 1_555
Rb1_6 Rb2_4 5.155211 1_565
Rb1_7 Rb2_1 5.155204 1_565
Rb1_7 Rb2_3 5.155211 1_555
Rb1_7 Rb2_5 5.155211 1_565
Rb2_0 Rb2_6 5.075279 1_445
Rb2_0 Rb2_6 5.075279 1_555
Rb2_0 Rb2_2 5.075280 1_545
Rb2_0 Rb2_4 5.075280 1_455
Rb2_0 Rb2_2 5.075280 1_555
Rb2_0 Rb2_4 5.075280 1_555
Rb2_1 Rb2_7 5.075279 1_445
Rb2_1 Rb2_7 5.075279 1_555
Rb2_1 Rb2_3 5.075280 1_545
Rb2_1 Rb2_5 5.075280 1_555
Rb2_1 Rb2_5 5.075280 1_455
Rb2_1 Rb2_3 5.075280 1_555
Rb2_2 Rb2_4 5.075279 1_455
Rb2_2 Rb2_4 5.075279 1_565
Rb2_2 Rb2_6 5.075280 1_455
Rb2_2 Rb2_6 5.075280 1_555
Rb2_3 Rb2_5 5.075279 1_565
Rb2_3 Rb2_5 5.075279 1_455
Rb2_3 Rb2_7 5.075280 1_455
Rb2_3 Rb2_7 5.075280 1_555
Rb2_4 Rb2_6 5.075280 1_555
Rb2_4 Rb2_6 5.075280 1_545
Rb2_5 Rb2_7 5.075280 1_545
Rb2_5 Rb2_7 5.075280 1_555
