# generated using pymatgen
data_LiZn2Au
_symmetry_space_group_name_H-M   'P 1'
_cell_length_a   4.35120763
_cell_length_b   4.35120763
_cell_length_c   4.35120763
_cell_angle_alpha   60.00000000
_cell_angle_beta   60.00000000
_cell_angle_gamma   60.00000000
_symmetry_Int_Tables_number   1
_chemical_formula_structural   LiZn2Au
_chemical_formula_sum   'Li1 Zn2 Au1'
_cell_volume   58.25248056
_cell_formula_units_Z   1
loop_
 _symmetry_equiv_pos_site_id
 _symmetry_equiv_pos_as_xyz
  1  'x, y, z'
loop_
 _atom_site_type_symbol
 _atom_site_label
 _atom_site_symmetry_multiplicity
 _atom_site_fract_x
 _atom_site_fract_y
 _atom_site_fract_z
 _atom_site_occupancy
  Li  Li0  1  0.75000100  0.75000100  0.75000100  1
  Zn  Zn0  1  0.00000000  -0.00000000  -0.00000000  1
  Zn  Zn1  1  0.50000000  0.50000000  0.50000000  1
  Au  Au0  1  0.25000000  0.25000000  0.25000000  1
loop_
_geom_bond_atom_site_label_1
_geom_bond_atom_site_label_2
_geom_bond_distance
_geom_bond_site_symmetry_2
Li0 Zn0 2.664549 1_666
Li0 Zn1 2.664556 1_565
Li0 Zn1 2.664556 1_655
Li0 Zn1 2.664556 1_556
Li0 Zn0 2.664563 1_656
Li0 Zn0 2.664563 1_566
Li0 Zn0 2.664563 1_665
Li0 Zn1 2.664570 1_555
Au0 Zn0 2.664560 1_655
Au0 Zn1 2.664560 1_455
Au0 Zn1 2.664560 1_545
Au0 Zn0 2.664560 1_565
Au0 Zn0 2.664560 1_555
Au0 Zn0 2.664560 1_556
Au0 Zn1 2.664560 1_555
Au0 Zn1 2.664560 1_554
Au0 Li0 3.076762 1_454
Au0 Li0 3.076762 1_544
Au0 Li0 3.076762 1_445
Au0 Li0 3.076775 1_554
Au0 Li0 3.076775 1_455
Au0 Li0 3.076775 1_545
