# generated using pymatgen
data_YReB4
_symmetry_space_group_name_H-M   'P 1'
_cell_length_a   3.61224035
_cell_length_b   5.97209956
_cell_length_c   11.54432216
_cell_angle_alpha   90.00100836
_cell_angle_beta   90.00000466
_cell_angle_gamma   90.00002274
_symmetry_Int_Tables_number   1
_chemical_formula_structural   YReB4
_chemical_formula_sum   'Y4 Re4 B16'
_cell_volume   249.04172538
_cell_formula_units_Z   4
loop_
 _symmetry_equiv_pos_site_id
 _symmetry_equiv_pos_as_xyz
  1  'x, y, z'
loop_
 _atom_site_type_symbol
 _atom_site_label
 _atom_site_symmetry_multiplicity
 _atom_site_fract_x
 _atom_site_fract_y
 _atom_site_fract_z
 _atom_site_occupancy
  Y  Y0  1  -0.00000006  0.12649372  0.15026257  1
  Y  Y1  1  0.00000039  0.87350551  0.84974682  1
  Y  Y2  1  -0.00000002  0.62648940  0.34977804  1
  Y  Y3  1  0.00000011  0.37351094  0.65021198  1
  Re  Re0  1  0.00000112  0.13294995  0.41291962  1
  Re  Re1  1  -0.00000031  0.86705201  0.58704547  1
  Re  Re2  1  -0.00000013  0.63292863  0.08708161  1
  Re  Re3  1  0.00000014  0.36707543  0.91295375  1
  B  B0  1  0.49999995  0.47707384  0.19188963  1
  B  B1  1  0.50000008  0.52292307  0.80810603  1
  B  B2  1  0.50000021  0.97707479  0.30813354  1
  B  B3  1  0.49999977  0.02292218  0.69186956  1
  B  B4  1  0.49999978  0.28709820  0.31549936  1
  B  B5  1  0.49999987  0.71290262  0.68450431  1
  B  B6  1  0.50000003  0.78709886  0.18452198  1
  B  B7  1  0.50000024  0.21290121  0.81547427  1
  B  B8  1  0.50000016  0.36287166  0.46870830  1
  B  B9  1  0.49999939  0.63712904  0.53130036  1
  B  B10  1  0.50000015  0.86287604  0.03129652  1
  B  B11  1  0.49999990  0.13712393  0.96869515  1
  B  B12  1  0.49999981  0.38624720  0.04727208  1
  B  B13  1  0.49999999  0.61375324  0.95272257  1
  B  B14  1  0.49999980  0.88624980  0.45273147  1
  B  B15  1  0.49999961  0.11375072  0.54727402  1
loop_
_geom_bond_atom_site_label_1
_geom_bond_atom_site_label_2
_geom_bond_distance
_geom_bond_site_symmetry_2
Re0 Re1 2.561742 1_545
Re0 Y0 3.032442 1_555
Re0 Y2 3.036276 1_555
Re0 Y3 3.093224 1_555
Re0 Y2 3.111215 1_545
Re1 Y1 3.032953 1_555
Re1 Y3 3.036354 1_555
Re1 Y2 3.092974 1_555
Re1 Y3 3.111273 1_565
Re2 Re3 2.561550 1_554
Re2 Y2 3.032897 1_555
Re2 Y0 3.036509 1_565
Re2 Y1 3.093747 1_554
Re2 Y0 3.111198 1_555
Re3 Y3 3.033420 1_555
Re3 Y1 3.036609 1_545
Re3 Y0 3.093495 1_556
Re3 Y1 3.111240 1_555
B0 B12 1.755410 1_555
B0 B4 1.823066 1_555
B0 B6 1.853454 1_555
B0 Re2 2.364827 1_655
B0 Re2 2.364828 1_555
B0 Y2 2.716716 1_655
B0 Y2 2.716716 1_555
B0 Y0 2.806518 1_555
B0 Y0 2.806519 1_655
B1 B13 1.755405 1_555
B1 B5 1.823008 1_555
B1 B7 1.853436 1_555
B1 Re3 2.365045 1_555
B1 Re3 2.365046 1_655
B1 Y3 2.716752 1_555
B1 Y3 2.716753 1_655
B1 Y1 2.806556 1_555
B1 Y1 2.806556 1_655
B2 B6 1.823053 1_555
B2 B4 1.853441 1_565
B2 Re0 2.364727 1_565
B2 Re0 2.364732 1_665
B2 Y0 2.716608 1_665
B2 Y0 2.716609 1_565
B2 Y2 2.806589 1_655
B2 Y2 2.806589 1_555
B3 B7 1.823002 1_555
B3 B5 1.853418 1_545
B3 Re1 2.364942 1_545
B3 Re1 2.364942 1_645
B3 Y1 2.716651 1_545
B3 Y1 2.716654 1_645
B3 Y3 2.806630 1_555
B3 Y3 2.806630 1_655
B4 B8 1.825658 1_555
B4 Re0 2.318278 1_555
B4 Re0 2.318286 1_655
B4 Y2 2.743515 1_655
B4 Y2 2.743515 1_555
B4 Y0 2.796551 1_555
B4 Y0 2.796552 1_655
B5 B9 1.825603 1_555
B5 Re1 2.318500 1_655
B5 Re1 2.318501 1_555
B5 Y3 2.743539 1_555
B5 Y3 2.743541 1_655
B5 Y1 2.796593 1_555
B5 Y1 2.796594 1_655
B6 Re2 2.318431 1_655
B6 Re2 2.318431 1_555
B6 Y0 2.743509 1_665
B6 Y0 2.743510 1_565
B6 Y2 2.796737 1_555
B6 Y2 2.796737 1_655
B7 Re3 2.318659 1_655
B7 Re3 2.318660 1_555
B7 Y1 2.743534 1_545
B7 Y1 2.743536 1_645
B7 Y3 2.796786 1_655
B7 Y3 2.796787 1_555
B8 B9 1.790189 1_555
B8 Re0 2.358445 1_555
B8 Re0 2.358451 1_655
B8 Y2 2.761479 1_655
B8 Y2 2.761481 1_555
B8 Y3 2.767045 1_655
B8 Y3 2.767046 1_555
B9 Re1 2.358314 1_555
B9 Re1 2.358315 1_655
B9 Y3 2.761372 1_555
B9 Y3 2.761376 1_655
B9 Y2 2.767207 1_555
B9 Y2 2.767210 1_655
B10 B13 1.742487 1_554
B10 B11 1.790204 1_564
B10 B6 1.825864 1_555
B10 Re2 2.358539 1_655
B10 Re2 2.358539 1_555
B10 Y0 2.761657 1_665
B10 Y0 2.761659 1_565
B10 Y1 2.767447 1_554
B10 Y1 2.767449 1_654
B11 B12 1.742507 1_556
B11 B7 1.825813 1_555
B11 Re3 2.358415 1_555
B11 Re3 2.358416 1_655
B11 Y1 2.761557 1_545
B11 Y1 2.761560 1_645
B11 Y0 2.767603 1_656
B11 Y0 2.767603 1_556
B12 B13 1.742837 1_554
B12 Re2 2.375624 1_655
B12 Re2 2.375625 1_555
B12 Re3 2.383185 1_554
B12 Re3 2.383187 1_654
B12 Y0 2.661240 1_555
B12 Y0 2.661241 1_655
B13 Re3 2.375519 1_555
B13 Re3 2.375521 1_655
B13 Re2 2.383493 1_656
B13 Re2 2.383494 1_556
B13 Y1 2.661159 1_555
B13 Y1 2.661161 1_655
B14 B9 1.742473 1_555
B14 B15 1.742733 1_565
B14 B2 1.755209 1_555
B14 Re0 2.375706 1_565
B14 Re0 2.375712 1_665
B14 Re1 2.383164 1_655
B14 Re1 2.383164 1_555
B14 Y2 2.661048 1_555
B14 Y2 2.661050 1_655
B15 B8 1.742455 1_555
B15 B3 1.755190 1_555
B15 Re1 2.375613 1_545
B15 Re1 2.375614 1_645
B15 Re0 2.383464 1_555
B15 Re0 2.383472 1_655
B15 Y3 2.660968 1_555
B15 Y3 2.660969 1_655
