# generated using pymatgen
data_K2SrIn7
_symmetry_space_group_name_H-M   'P 1'
_cell_length_a   6.62286517
_cell_length_b   6.62286517
_cell_length_c   20.11289300
_cell_angle_alpha   90.00000000
_cell_angle_beta   90.00000000
_cell_angle_gamma   134.42602158
_symmetry_Int_Tables_number   1
_chemical_formula_structural   K2SrIn7
_chemical_formula_sum   'K4 Sr2 In14'
_cell_volume   630.02641448
_cell_formula_units_Z   2
loop_
 _symmetry_equiv_pos_site_id
 _symmetry_equiv_pos_as_xyz
  1  'x, y, z'
loop_
 _atom_site_type_symbol
 _atom_site_label
 _atom_site_symmetry_multiplicity
 _atom_site_fract_x
 _atom_site_fract_y
 _atom_site_fract_z
 _atom_site_occupancy
  K  K0  1  0.83868500  0.16131500  0.94841700  1
  K  K1  1  0.16131500  0.83868500  0.44841700  1
  K  K2  1  0.16131500  0.83868500  0.05158300  1
  K  K3  1  0.83868500  0.16131500  0.55158300  1
  Sr  Sr0  1  0.34163700  0.65836300  0.25000000  1
  Sr  Sr1  1  0.65836300  0.34163700  0.75000000  1
  In  In0  1  0.12214500  0.87785500  0.86979300  1
  In  In1  1  0.87785500  0.12214500  0.36979300  1
  In  In2  1  0.87785500  0.12214500  0.13020700  1
  In  In3  1  0.12214500  0.87785500  0.63020700  1
  In  In4  1  0.54314800  0.45685200  0.92901900  1
  In  In5  1  0.45685200  0.54314800  0.42901900  1
  In  In6  1  0.45685200  0.54314800  0.07098100  1
  In  In7  1  0.54314800  0.45685200  0.57098100  1
  In  In8  1  0.04480000  0.95520000  0.25000000  1
  In  In9  1  0.95520000  0.04480000  0.75000000  1
  In  In10  1  0.36083600  0.63916400  0.82558500  1
  In  In11  1  0.63916400  0.36083600  0.32558500  1
  In  In12  1  0.63916400  0.36083600  0.17441500  1
  In  In13  1  0.36083600  0.63916400  0.67441500  1
loop_
_geom_bond_atom_site_label_1
_geom_bond_atom_site_label_2
_geom_bond_distance
_geom_bond_site_symmetry_2
In0 In4 2.988185 1_565
In0 In4 2.988185 1_455
In0 In10 3.047471 1_555
In0 In9 3.156185 1_465
In0 Sr1 3.546882 1_455
In0 Sr1 3.546882 1_565
In0 K2 3.687480 1_556
In0 K0 3.805692 1_465
In0 K0 4.009113 1_565
In0 K0 4.009113 1_455
In1 In5 2.988185 1_545
In1 In5 2.988185 1_655
In1 In11 3.047471 1_555
In1 In8 3.156185 1_645
In1 Sr0 3.546882 1_655
In1 Sr0 3.546882 1_545
In1 K3 3.687480 1_555
In1 K1 3.805692 1_645
In1 K1 4.009113 1_545
In1 K1 4.009113 1_655
In2 In6 2.988185 1_655
In2 In6 2.988185 1_545
In2 In8 3.156185 1_645
In2 Sr0 3.546882 1_655
In2 Sr0 3.546882 1_545
In2 K0 3.687480 1_554
In2 K2 3.805692 1_645
In2 K2 4.009113 1_545
In2 K2 4.009113 1_655
In3 In7 2.988185 1_455
In3 In7 2.988185 1_565
In3 In9 3.156185 1_465
In3 Sr1 3.546882 1_455
In3 Sr1 3.546882 1_565
In3 K1 3.687480 1_555
In3 K3 3.805692 1_465
In3 K3 4.009113 1_565
In3 K3 4.009113 1_455
In4 In6 3.043538 1_556
In4 K0 3.600871 1_455
In4 K0 3.600871 1_565
In4 K0 3.630100 1_555
In4 K2 3.839115 1_546
In4 K2 3.839115 1_656
In4 Sr1 3.865732 1_555
In5 In7 3.043538 1_555
In5 K1 3.600871 1_545
In5 K1 3.600871 1_655
In5 K1 3.630100 1_555
In5 K3 3.839115 1_455
In5 K3 3.839115 1_565
In5 Sr0 3.865732 1_555
In6 K2 3.600871 1_545
In6 K2 3.600871 1_655
In6 K2 3.630100 1_555
In6 K0 3.839115 1_454
In6 K0 3.839115 1_564
In6 Sr0 3.865732 1_555
In7 K3 3.600871 1_455
In7 K3 3.600871 1_565
In7 K3 3.630100 1_555
In7 K1 3.839115 1_545
In7 K1 3.839115 1_655
In7 Sr1 3.865732 1_555
In8 Sr0 3.568617 1_565
In8 Sr0 3.568617 1_455
In8 Sr0 3.624949 1_555
In9 Sr1 3.568617 1_655
In9 Sr1 3.568617 1_545
In9 Sr1 3.624949 1_555
In10 In13 3.040466 1_555
In10 In4 3.047072 1_555
In10 In9 3.196666 1_455
In10 In9 3.196666 1_565
In10 K0 3.571582 1_455
In10 K0 3.571582 1_565
In10 Sr1 3.873551 1_455
In10 Sr1 3.873551 1_565
In10 Sr1 3.938594 1_555
In11 In12 3.040466 1_555
In11 In5 3.047072 1_555
In11 In8 3.196666 1_545
In11 In8 3.196666 1_655
In11 K1 3.571582 1_545
In11 K1 3.571582 1_655
In11 Sr0 3.873551 1_545
In11 Sr0 3.873551 1_655
In11 Sr0 3.938594 1_555
In12 In6 3.047072 1_555
In12 In2 3.047471 1_555
In12 In8 3.196666 1_545
In12 In8 3.196666 1_655
In12 K2 3.571582 1_655
In12 K2 3.571582 1_545
In12 Sr0 3.873551 1_545
In12 Sr0 3.873551 1_655
In12 Sr0 3.938594 1_555
In13 In7 3.047072 1_555
In13 In3 3.047471 1_555
In13 In9 3.196666 1_455
In13 In9 3.196666 1_565
In13 K3 3.571582 1_455
In13 K3 3.571582 1_565
In13 Sr1 3.873551 1_455
In13 Sr1 3.873551 1_565
In13 Sr1 3.938594 1_555
