# generated using pymatgen
data_Li3V2(PO4)3
_symmetry_space_group_name_H-M   'P 1'
_cell_length_a   9.03830171
_cell_length_b   9.03830171
_cell_length_c   9.03830169
_cell_angle_alpha   55.98754061
_cell_angle_beta   55.98754061
_cell_angle_gamma   55.98754191
_symmetry_Int_Tables_number   1
_chemical_formula_structural   Li3V2(PO4)3
_chemical_formula_sum   'Li6 V4 P6 O24'
_cell_volume   473.55554646
_cell_formula_units_Z   2
loop_
 _symmetry_equiv_pos_site_id
 _symmetry_equiv_pos_as_xyz
  1  'x, y, z'
loop_
 _atom_site_type_symbol
 _atom_site_label
 _atom_site_symmetry_multiplicity
 _atom_site_fract_x
 _atom_site_fract_y
 _atom_site_fract_z
 _atom_site_occupancy
  Li  Li0  1  0.08015700  0.73327200  0.33386200  1
  Li  Li1  1  0.33386200  0.08015700  0.73327200  1
  Li  Li2  1  0.73327200  0.33386200  0.08015700  1
  Li  Li3  1  0.26672800  0.66613800  0.91984300  1
  Li  Li4  1  0.66613800  0.91984300  0.26672800  1
  Li  Li5  1  0.91984300  0.26672800  0.66613800  1
  V  V0  1  0.35037500  0.35037500  0.35037500  1
  V  V1  1  0.85516400  0.85516400  0.85516400  1
  V  V2  1  0.14483600  0.14483600  0.14483600  1
  V  V3  1  0.64962500  0.64962500  0.64962500  1
  P  P0  1  0.75246200  0.03886100  0.45828500  1
  P  P1  1  0.03886100  0.45828500  0.75246200  1
  P  P2  1  0.45828500  0.75246200  0.03886100  1
  P  P3  1  0.54171500  0.24753800  0.96113900  1
  P  P4  1  0.96113900  0.54171500  0.24753800  1
  P  P5  1  0.24753800  0.96113900  0.54171500  1
  O  O0  1  0.79004000  0.84561700  0.45649700  1
  O  O1  1  0.53714600  0.16621200  0.49389800  1
  O  O2  1  0.16621200  0.49389800  0.53714600  1
  O  O3  1  0.84561700  0.45649700  0.79004000  1
  O  O4  1  0.45649700  0.79004000  0.84561700  1
  O  O5  1  0.81166400  0.99578500  0.60895700  1
  O  O6  1  0.13836200  0.25454800  0.87510000  1
  O  O7  1  0.99578500  0.60895700  0.81166400  1
  O  O8  1  0.49389800  0.53714600  0.16621200  1
  O  O9  1  0.25454800  0.87510000  0.13836200  1
  O  O10  1  0.60895700  0.81166400  0.99578500  1
  O  O11  1  0.87510000  0.13836200  0.25454800  1
  O  O12  1  0.12490000  0.86163800  0.74545200  1
  O  O13  1  0.39104300  0.18833600  0.00421500  1
  O  O14  1  0.74545200  0.12490000  0.86163800  1
  O  O15  1  0.50610200  0.46285400  0.83378800  1
  O  O16  1  0.00421500  0.39104300  0.18833600  1
  O  O17  1  0.86163800  0.74545200  0.12490000  1
  O  O18  1  0.18833600  0.00421500  0.39104300  1
  O  O19  1  0.54350300  0.20996000  0.15438300  1
  O  O20  1  0.15438300  0.54350300  0.20996000  1
  O  O21  1  0.83378800  0.50610200  0.46285400  1
  O  O22  1  0.46285400  0.83378800  0.50610200  1
  O  O23  1  0.20996000  0.15438300  0.54350300  1
loop_
_geom_bond_atom_site_label_1
_geom_bond_atom_site_label_2
_geom_bond_distance
_geom_bond_site_symmetry_2
Li0 O9 1.964794 1_555
Li0 O2 1.982585 1_555
Li0 O0 2.040640 1_455
Li0 O20 2.160344 1_555
Li1 O6 1.964794 1_555
Li1 O1 1.982585 1_555
Li1 O4 2.040640 1_545
Li1 O23 2.160344 1_555
Li2 O11 1.964794 1_555
Li2 O8 1.982585 1_555
Li2 O3 2.040640 1_554
Li2 O19 2.160344 1_555
Li3 O12 1.964794 1_555
Li3 O15 1.982585 1_555
Li3 O20 2.040640 1_556
Li3 O4 2.160344 1_555
Li4 O17 1.964794 1_555
Li4 O22 1.982585 1_555
Li4 O19 2.040640 1_565
Li4 O0 2.160344 1_555
Li5 O14 1.964794 1_555
Li5 O21 1.982585 1_555
Li5 O23 2.040640 1_655
Li5 O3 2.160344 1_555
O0 P0 1.589968 1_565
O0 V3 2.091176 1_555
O1 P0 1.556742 1_555
O1 V0 2.047854 1_555
O2 P1 1.556742 1_555
O2 V0 2.047854 1_555
O3 P1 1.589968 1_655
O3 V3 2.091176 1_555
O4 P2 1.589968 1_556
O4 V3 2.091176 1_555
O5 P0 1.510444 1_565
O5 V1 1.994368 1_555
O6 P1 1.551557 1_555
O6 V2 2.078570 1_556
O7 P1 1.510444 1_655
O7 V1 1.994368 1_555
O8 P2 1.556742 1_555
O8 V0 2.047854 1_555
O9 P2 1.551557 1_555
O9 V2 2.078570 1_565
O10 P2 1.510444 1_556
O10 V1 1.994368 1_555
O11 P0 1.551557 1_555
O11 V2 2.078570 1_655
O12 P5 1.551557 1_555
O12 V1 2.078570 1_455
O13 P3 1.510444 1_554
O13 V2 1.994368 1_555
O14 P3 1.551557 1_555
O14 V1 2.078570 1_545
O15 P3 1.556742 1_555
O15 V3 2.047854 1_555
O16 P4 1.510444 1_455
O16 V2 1.994368 1_555
O17 P4 1.551557 1_555
O17 V1 2.078570 1_554
O18 P5 1.510444 1_545
O18 V2 1.994368 1_555
O19 P3 1.589968 1_554
O19 V0 2.091176 1_555
O20 P4 1.589968 1_455
O20 V0 2.091176 1_555
O21 P4 1.556742 1_555
O21 V3 2.047854 1_555
O22 P5 1.556742 1_555
O22 V3 2.047854 1_555
O23 P5 1.589968 1_545
O23 V0 2.091176 1_555
