# generated using pymatgen
data_NbZnCo2
_symmetry_space_group_name_H-M   'P 1'
_cell_length_a   4.17364337
_cell_length_b   4.17364387
_cell_length_c   4.17364601
_cell_angle_alpha   60.00007527
_cell_angle_beta   60.00006966
_cell_angle_gamma   60.00013507
_symmetry_Int_Tables_number   1
_chemical_formula_structural   NbZnCo2
_chemical_formula_sum   'Nb1 Zn1 Co2'
_cell_volume   51.40818339
_cell_formula_units_Z   1
loop_
 _symmetry_equiv_pos_site_id
 _symmetry_equiv_pos_as_xyz
  1  'x, y, z'
loop_
 _atom_site_type_symbol
 _atom_site_label
 _atom_site_symmetry_multiplicity
 _atom_site_fract_x
 _atom_site_fract_y
 _atom_site_fract_z
 _atom_site_occupancy
  Nb  Nb0  1  0.25000030  0.24999962  0.25000044  1
  Zn  Zn0  1  0.74999981  0.75000014  0.75000018  1
  Co  Co0  1  0.50000009  0.49999936  0.49999943  1
  Co  Co1  1  -0.00000020  -0.00000012  -0.00000004  1
loop_
_geom_bond_atom_site_label_1
_geom_bond_atom_site_label_2
_geom_bond_distance
_geom_bond_site_symmetry_2
Co0 Nb0 2.555818 1_555
Co0 Zn0 2.555825 1_554
Co0 Zn0 2.555825 1_545
Co0 Zn0 2.555827 1_555
Co0 Nb0 2.555828 1_655
Co0 Zn0 2.555829 1_455
Co0 Nb0 2.555829 1_565
Co0 Nb0 2.555831 1_556
Co1 Zn0 2.555821 1_444
Co1 Nb0 2.555825 1_555
Co1 Nb0 2.555826 1_455
Co1 Nb0 2.555826 1_554
Co1 Zn0 2.555828 1_544
Co1 Zn0 2.555828 1_445
Co1 Zn0 2.555829 1_454
Co1 Nb0 2.555829 1_545
