# generated using pymatgen
data_Dy5P12Ru19
_symmetry_space_group_name_H-M   'P 1'
_cell_length_a   12.43733947
_cell_length_b   12.43727711
_cell_length_c   3.96537524
_cell_angle_alpha   90.00000187
_cell_angle_beta   89.99999832
_cell_angle_gamma   119.99992800
_symmetry_Int_Tables_number   1
_chemical_formula_structural   Dy5P12Ru19
_chemical_formula_sum   'Dy5 P12 Ru19'
_cell_volume   531.21219517
_cell_formula_units_Z   1
loop_
 _symmetry_equiv_pos_site_id
 _symmetry_equiv_pos_as_xyz
  1  'x, y, z'
loop_
 _atom_site_type_symbol
 _atom_site_label
 _atom_site_symmetry_multiplicity
 _atom_site_fract_x
 _atom_site_fract_y
 _atom_site_fract_z
 _atom_site_occupancy
  Dy  Dy0  1  0.66667373  0.33330773  0.00000000  1
  Dy  Dy1  1  0.33332602  0.66668637  0.00000003  1
  Dy  Dy2  1  0.81642626  0.00001556  0.50000002  1
  Dy  Dy3  1  0.18355915  0.18355822  0.50000001  1
  Dy  Dy4  1  0.00003476  0.81644464  0.49999997  1
  P  P0  1  0.62724508  0.00000626  -0.00000001  1
  P  P1  1  0.37272913  0.37273440  0.00000002  1
  P  P2  1  0.00002946  0.62725965  0.00000004  1
  P  P3  1  0.69461234  0.52288605  0.50000002  1
  P  P4  1  0.82827580  0.30538535  0.50000000  1
  P  P5  1  0.30540906  0.82827763  0.49999996  1
  P  P6  1  0.52286471  0.69461186  0.49999997  1
  P  P7  1  0.18494140  0.99997844  -0.00000004  1
  P  P8  1  0.81506504  0.81508859  -0.00000005  1
  P  P9  1  -0.00000524  0.18494319  -0.00000003  1
  P  P10  1  0.47711678  0.17169722  0.49999999  1
  P  P11  1  0.17170791  0.47712721  0.50000002  1
  Ru  Ru0  1  0.62269875  0.80788444  0.00000001  1
  Ru  Ru1  1  0.18514046  0.37729730  0.00000002  1
  Ru  Ru2  1  0.37728620  0.18513009  0.00000003  1
  Ru  Ru3  1  0.19215126  0.81483104  0.00000003  1
  Ru  Ru4  1  0.80788374  0.62271817  -0.00000005  1
  Ru  Ru5  1  0.87415592  0.50735875  0.49999995  1
  Ru  Ru6  1  0.49262333  0.36675612  0.50000001  1
  Ru  Ru7  1  0.63322861  0.12585677  0.49999998  1
  Ru  Ru8  1  0.12588524  0.63322879  0.49999990  1
  Ru  Ru9  1  0.36674187  0.49264933  0.50000003  1
  Ru  Ru10  1  0.50733446  0.87411839  0.49999996  1
  Ru  Ru11  1  0.00002835  0.00002085  0.00000008  1
  Ru  Ru12  1  0.71722202  0.71723714  0.49999998  1
  Ru  Ru13  1  -0.00000304  0.28279189  0.50000003  1
  Ru  Ru14  1  0.44556027  0.99996653  -0.00000012  1
  Ru  Ru15  1  0.55438840  0.55442240  0.00000007  1
  Ru  Ru16  1  0.00002582  0.44559598  0.00000010  1
  Ru  Ru17  1  0.81485932  0.19215263  0.00000008  1
  Ru  Ru18  1  0.28277863  0.99997600  0.50000000  1
loop_
_geom_bond_atom_site_label_1
_geom_bond_atom_site_label_2
_geom_bond_distance
_geom_bond_site_symmetry_2
Dy0 P4 2.964683 1_554
Dy0 P4 2.964683 1_555
Dy0 P10 2.964896 1_555
Dy0 P10 2.964896 1_554
Dy0 P3 2.965112 1_554
Dy0 P3 2.965112 1_555
Dy0 Ru7 3.112536 1_555
Dy0 Ru7 3.112536 1_554
Dy0 Ru5 3.112889 1_555
Dy0 Ru5 3.112889 1_554
Dy0 Ru6 3.112986 1_555
Dy0 Ru6 3.112986 1_554
Dy0 Ru17 3.116802 1_555
Dy0 Ru2 3.117311 1_555
Dy0 Ru4 3.117544 1_555
Dy1 P5 2.964546 1_555
Dy1 P5 2.964546 1_554
Dy1 P6 2.964804 1_555
Dy1 P6 2.964804 1_554
Dy1 P11 2.964933 1_555
Dy1 P11 2.964933 1_554
Dy1 Ru8 3.112406 1_555
Dy1 Ru8 3.112406 1_554
Dy1 Ru10 3.112436 1_555
Dy1 Ru10 3.112437 1_554
Dy1 Ru9 3.112657 1_554
Dy1 Ru9 3.112657 1_555
Dy1 Ru3 3.116567 1_555
Dy1 Ru0 3.117153 1_555
Dy1 Ru1 3.117314 1_555
Dy2 Ru11 3.024131 1_655
Dy2 Ru11 3.024132 1_656
Dy2 P8 3.030238 1_546
Dy2 P8 3.030238 1_545
Dy2 P9 3.030260 1_656
Dy2 P9 3.030260 1_655
Dy2 P0 3.076843 1_556
Dy2 P0 3.076844 1_555
Dy2 Ru13 3.090642 1_655
Dy2 Ru12 3.090665 1_545
Dy2 Ru17 3.112633 1_555
Dy2 Ru17 3.112633 1_556
Dy2 Ru0 3.112726 1_546
Dy2 Ru0 3.112726 1_545
Dy2 Ru7 3.347721 1_555
Dy2 Ru10 3.348260 1_545
Dy3 Ru11 3.023515 1_555
Dy3 Ru11 3.023515 1_556
Dy3 P9 3.030347 1_556
Dy3 P9 3.030347 1_555
Dy3 P7 3.030470 1_546
Dy3 P7 3.030470 1_545
Dy3 P1 3.076808 1_555
Dy3 P1 3.076808 1_556
Dy3 Ru13 3.090816 1_555
Dy3 Ru18 3.090908 1_545
Dy3 Ru2 3.112840 1_555
Dy3 Ru2 3.112840 1_556
Dy3 Ru1 3.112901 1_556
Dy3 Ru1 3.112901 1_555
Dy3 Ru6 3.347985 1_555
Dy3 Ru9 3.348221 1_555
Dy4 Ru11 3.023934 1_565
Dy4 Ru11 3.023935 1_566
Dy4 P7 3.029999 1_556
Dy4 P7 3.029999 1_555
Dy4 P8 3.030673 1_456
Dy4 P8 3.030673 1_455
Dy4 P2 3.076890 1_555
Dy4 P2 3.076890 1_556
Dy4 Ru18 3.090260 1_555
Dy4 Ru12 3.091076 1_455
Dy4 Ru3 3.112671 1_555
Dy4 Ru3 3.112672 1_556
Dy4 Ru4 3.112815 1_456
Dy4 Ru4 3.112815 1_455
Dy4 Ru8 3.348017 1_555
Dy4 Ru5 3.348198 1_455
P0 Ru14 2.259429 1_545
P0 Ru0 2.361708 1_545
P0 Ru17 2.362107 1_555
P0 Ru7 2.504011 1_555
P0 Ru7 2.504012 1_554
P0 Ru10 2.504320 1_545
P0 Ru10 2.504321 1_544
P1 Ru15 2.259533 1_555
P1 Ru1 2.361990 1_555
P1 Ru2 2.362136 1_555
P1 Ru6 2.504201 1_554
P1 Ru6 2.504201 1_555
P1 Ru9 2.504391 1_555
P1 Ru9 2.504391 1_554
P2 Ru16 2.259379 1_555
P2 Ru3 2.361692 1_555
P2 Ru4 2.362046 1_455
P2 Ru8 2.504107 1_555
P2 Ru8 2.504107 1_554
P2 Ru5 2.504228 1_455
P2 Ru5 2.504229 1_454
P3 Ru6 2.281144 1_555
P3 Ru12 2.289585 1_555
P3 Ru5 2.335599 1_555
P3 Ru4 2.389186 1_556
P3 Ru4 2.389186 1_555
P3 Ru15 2.794730 1_555
P3 Ru15 2.794731 1_556
P4 Ru5 2.280865 1_555
P4 Ru13 2.289226 1_655
P4 Ru7 2.335350 1_555
P4 Ru17 2.388980 1_555
P4 Ru17 2.388980 1_556
P4 Ru16 2.794633 1_655
P4 Ru16 2.794633 1_656
P5 Ru10 2.280442 1_555
P5 Ru18 2.289205 1_555
P5 Ru8 2.335334 1_555
P5 Ru3 2.389073 1_555
P5 Ru3 2.389073 1_556
P5 Ru14 2.794108 1_556
P5 Ru14 2.794108 1_555
P6 Ru9 2.280889 1_555
P6 Ru12 2.289596 1_555
P6 Ru10 2.335149 1_555
P6 Ru0 2.389195 1_555
P6 Ru0 2.389196 1_556
P6 Ru15 2.794356 1_555
P6 Ru15 2.794357 1_556
P7 Ru11 2.300090 1_565
P7 Ru18 2.326322 1_554
P7 Ru18 2.326322 1_555
P7 Ru2 2.348801 1_565
P7 Ru3 2.348849 1_555
P8 Ru11 2.300255 1_665
P8 Ru12 2.326378 1_554
P8 Ru12 2.326378 1_555
P8 Ru0 2.349007 1_555
P8 Ru4 2.349180 1_555
P9 Ru11 2.300139 1_555
P9 Ru13 2.326378 1_554
P9 Ru13 2.326379 1_555
P9 Ru17 2.348709 1_455
P9 Ru1 2.348826 1_555
P10 Ru7 2.280766 1_555
P10 Ru18 2.289398 1_545
P10 Ru6 2.335551 1_555
P10 Ru2 2.389149 1_555
P10 Ru2 2.389150 1_556
P10 Ru14 2.794408 1_546
P10 Ru14 2.794409 1_545
P11 Ru8 2.280484 1_555
P11 Ru13 2.289323 1_555
P11 Ru9 2.335170 1_555
P11 Ru1 2.389140 1_555
P11 Ru1 2.389140 1_556
P11 Ru16 2.794073 1_555
P11 Ru16 2.794073 1_556
Ru0 Ru10 2.801844 1_555
Ru0 Ru10 2.801845 1_554
Ru0 Ru12 2.812395 1_555
Ru0 Ru12 2.812395 1_554
Ru0 Ru15 2.825076 1_555
Ru1 Ru9 2.801853 1_554
Ru1 Ru9 2.801853 1_555
Ru1 Ru13 2.812193 1_554
Ru1 Ru13 2.812193 1_555
Ru1 Ru16 2.824538 1_555
Ru2 Ru6 2.801996 1_555
Ru2 Ru6 2.801996 1_554
Ru3 Ru8 2.801830 1_555
Ru3 Ru8 2.801830 1_554
Ru4 Ru5 2.802064 1_554
Ru4 Ru5 2.802064 1_555
Ru5 Ru8 2.711392 1_655
Ru6 Ru9 2.711870 1_555
Ru10 Ru7 2.711476 1_565
Ru10 Ru14 2.858982 1_556
Ru10 Ru14 2.858982 1_555
Ru12 Ru4 2.812471 1_556
Ru12 Ru4 2.812471 1_555
Ru13 Ru17 2.812148 1_455
Ru13 Ru17 2.812148 1_456
Ru14 Ru3 2.824571 1_555
Ru14 Ru2 2.824901 1_565
Ru14 Ru7 2.859371 1_564
Ru14 Ru7 2.859372 1_565
Ru15 Ru4 2.825538 1_555
Ru15 Ru9 2.859196 1_555
Ru15 Ru9 2.859197 1_554
Ru15 Ru6 2.859369 1_555
Ru15 Ru6 2.859369 1_554
Ru16 Ru17 2.824964 1_455
Ru16 Ru8 2.859073 1_555
Ru16 Ru8 2.859074 1_554
Ru16 Ru5 2.859092 1_455
Ru16 Ru5 2.859093 1_454
Ru17 Ru7 2.802030 1_555
Ru17 Ru7 2.802031 1_554
Ru18 Ru3 2.812198 1_555
Ru18 Ru3 2.812198 1_556
Ru18 Ru2 2.812266 1_565
Ru18 Ru2 2.812267 1_566
