# generated using pymatgen
data_Mn3Nb2Co3O16
_symmetry_space_group_name_H-M   'P 1'
_cell_length_a   5.75788938
_cell_length_b   5.75788938
_cell_length_c   9.32594657
_cell_angle_alpha   89.13290586
_cell_angle_beta   89.13290586
_cell_angle_gamma   60.18333801
_symmetry_Int_Tables_number   1
_chemical_formula_structural   Mn3Nb2Co3O16
_chemical_formula_sum   'Mn3 Nb2 Co3 O16'
_cell_volume   268.21503639
_cell_formula_units_Z   1
loop_
 _symmetry_equiv_pos_site_id
 _symmetry_equiv_pos_as_xyz
  1  'x, y, z'
loop_
 _atom_site_type_symbol
 _atom_site_label
 _atom_site_symmetry_multiplicity
 _atom_site_fract_x
 _atom_site_fract_y
 _atom_site_fract_z
 _atom_site_occupancy
  Mn  Mn0  1  0.17030600  0.17030600  0.21475600  1
  Mn  Mn1  1  0.33603600  0.83601700  0.71564800  1
  Mn  Mn2  1  0.83601700  0.33603600  0.71564800  1
  Nb  Nb0  1  0.34182100  0.34182100  0.49683700  1
  Nb  Nb1  1  0.67532200  0.67532200  0.99895500  1
  Co  Co0  1  0.16810400  0.66622300  0.21510600  1
  Co  Co1  1  0.66622300  0.16810400  0.21510600  1
  Co  Co2  1  0.83284000  0.83284000  0.71324000  1
  O  O0  1  0.16291300  0.67535400  0.59948400  1
  O  O1  1  0.48225000  0.48225000  0.32913900  1
  O  O2  1  0.34000500  0.34000500  0.11245500  1
  O  O3  1  0.99635700  0.99635700  0.30921500  1
  O  O4  1  0.00009500  0.00009500  0.81394000  1
  O  O5  1  0.67535400  0.16291300  0.59948400  1
  O  O6  1  0.03511500  0.48725400  0.33085800  1
  O  O7  1  0.48725400  0.03511500  0.33085800  1
  O  O8  1  0.83860600  0.83860600  0.10241800  1
  O  O9  1  0.16716800  0.16716800  0.59744100  1
  O  O10  1  0.51703100  0.96599500  0.83191800  1
  O  O11  1  0.96599500  0.51703100  0.83191800  1
  O  O12  1  0.66876200  0.66876200  0.60894100  1
  O  O13  1  0.33035100  0.83852900  0.09999500  1
  O  O14  1  0.51798100  0.51798100  0.83298400  1
  O  O15  1  0.83852900  0.33035100  0.09999500  1
loop_
_geom_bond_atom_site_label_1
_geom_bond_atom_site_label_2
_geom_bond_distance
_geom_bond_site_symmetry_2
Mn0 O2 1.926840 1_555
Mn0 O3 1.930422 1_445
Mn0 O6 1.931413 1_555
Mn0 O7 1.931413 1_555
Mn0 O13 1.981265 1_545
Mn0 O15 1.981265 1_455
Mn1 O4 1.905159 1_565
Mn1 O10 1.912151 1_555
Mn1 O14 1.927318 1_555
Mn1 O12 1.929920 1_555
Mn1 O9 1.980266 1_565
Mn1 O0 2.000773 1_555
Mn2 O4 1.905159 1_655
Mn2 O11 1.912151 1_555
Mn2 O14 1.927318 1_555
Mn2 O12 1.929920 1_555
Mn2 O9 1.980266 1_655
Mn2 O5 2.000773 1_555
Nb0 O0 1.929800 1_555
Nb0 O5 1.929800 1_555
Nb0 O9 1.962508 1_555
Nb0 O1 2.080173 1_555
Nb0 O7 2.188339 1_555
Nb0 O6 2.188339 1_555
Nb1 O8 1.905987 1_556
Nb1 O13 1.957124 1_556
Nb1 O15 1.957124 1_556
Nb1 O11 2.122645 1_555
Nb1 O10 2.122645 1_555
Nb1 O14 2.222246 1_555
Co0 O3 1.875208 1_455
Co0 O6 1.881376 1_555
Co0 O2 1.897673 1_555
Co0 O1 1.908814 1_555
Co0 O8 1.960906 1_455
Co0 O13 1.966871 1_555
Co1 O3 1.875208 1_545
Co1 O7 1.881376 1_555
Co1 O2 1.897673 1_555
Co1 O1 1.908814 1_555
Co1 O8 1.960906 1_545
Co1 O15 1.966871 1_555
Co2 O12 1.916876 1_555
Co2 O11 1.922940 1_555
Co2 O10 1.922940 1_555
Co2 O4 1.927139 1_665
Co2 O0 1.952948 1_655
Co2 O5 1.952948 1_565
