# generated using pymatgen
data_Ce3AgGeS7
_symmetry_space_group_name_H-M   'P 1'
_cell_length_a   10.38409829
_cell_length_b   10.38409829
_cell_length_c   5.87445900
_cell_angle_alpha   90.00000000
_cell_angle_beta   90.00000000
_cell_angle_gamma   120.00000186
_symmetry_Int_Tables_number   1
_chemical_formula_structural   Ce3AgGeS7
_chemical_formula_sum   'Ce6 Ag2 Ge2 S14'
_cell_volume   548.57508777
_cell_formula_units_Z   2
loop_
 _symmetry_equiv_pos_site_id
 _symmetry_equiv_pos_as_xyz
  1  'x, y, z'
loop_
 _atom_site_type_symbol
 _atom_site_label
 _atom_site_symmetry_multiplicity
 _atom_site_fract_x
 _atom_site_fract_y
 _atom_site_fract_z
 _atom_site_occupancy
  Ce  Ce0  1  0.12859500  0.35957800  0.25435600  1
  Ce  Ce1  1  0.87140500  0.64042200  0.75435600  1
  Ce  Ce2  1  0.64042200  0.76901700  0.25435600  1
  Ce  Ce3  1  0.23098300  0.87140500  0.25435600  1
  Ce  Ce4  1  0.76901700  0.12859500  0.75435600  1
  Ce  Ce5  1  0.35957800  0.23098300  0.75435600  1
  Ag  Ag0  1  0.00000000  0.00000000  0.31140700  1
  Ag  Ag1  1  0.00000000  0.00000000  0.81140700  1
  Ge  Ge0  1  0.33333300  0.66666700  0.67251400  1
  Ge  Ge1  1  0.66666700  0.33333300  0.17251400  1
  S  S0  1  0.33333300  0.66666700  0.04894000  1
  S  S1  1  0.66666700  0.33333300  0.54894000  1
  S  S2  1  0.41489900  0.52166100  0.51648500  1
  S  S3  1  0.58510100  0.47833900  0.01648500  1
  S  S4  1  0.47833900  0.89323800  0.51648500  1
  S  S5  1  0.10676200  0.58510100  0.51648500  1
  S  S6  1  0.89323800  0.41489900  0.01648500  1
  S  S7  1  0.52166100  0.10676200  0.01648500  1
  S  S8  1  0.09646100  0.26782400  0.77545100  1
  S  S9  1  0.90353900  0.73217600  0.27545100  1
  S  S10  1  0.73217600  0.82863600  0.77545100  1
  S  S11  1  0.17136400  0.90353900  0.77545100  1
  S  S12  1  0.82863600  0.09646100  0.27545100  1
  S  S13  1  0.26782400  0.17136400  0.27545100  1
loop_
_geom_bond_atom_site_label_1
_geom_bond_atom_site_label_2
_geom_bond_distance
_geom_bond_site_symmetry_2
Ce0 S5 2.904789 1_555
Ce0 S8 2.935287 1_554
Ce0 S12 2.944840 1_455
Ce0 S13 2.958220 1_555
Ce0 S2 3.006479 1_555
Ce0 S0 3.060274 1_555
Ce0 S6 3.107986 1_455
Ce0 S8 3.173619 1_555
Ce1 S6 2.904789 1_556
Ce1 S9 2.935287 1_555
Ce1 S11 2.944840 1_655
Ce1 S10 2.958220 1_555
Ce1 S3 3.006479 1_556
Ce1 S1 3.060274 1_555
Ce1 S5 3.107986 1_655
Ce1 S9 3.173619 1_556
Ce2 S2 2.904789 1_555
Ce2 S10 2.935287 1_554
Ce2 S9 2.944834 1_555
Ce2 S12 2.958228 1_565
Ce2 S4 3.006479 1_555
Ce2 S0 3.060276 1_555
Ce2 S3 3.107986 1_555
Ce2 S10 3.173619 1_555
Ce3 S4 2.904789 1_555
Ce3 S11 2.935285 1_554
Ce3 S13 2.944845 1_565
Ce3 S9 2.958229 1_455
Ce3 S5 3.006479 1_555
Ce3 S0 3.060267 1_555
Ce3 S7 3.107986 1_565
Ce3 S11 3.173617 1_555
Ce4 S7 2.904789 1_556
Ce4 S12 2.935285 1_555
Ce4 S10 2.944845 1_545
Ce4 S8 2.958229 1_655
Ce4 S6 3.006479 1_556
Ce4 S1 3.060267 1_555
Ce4 S4 3.107986 1_545
Ce4 S12 3.173617 1_556
Ce5 S3 2.904789 1_556
Ce5 S13 2.935287 1_555
Ce5 S8 2.944834 1_555
Ce5 S11 2.958228 1_545
Ce5 S7 3.006479 1_556
Ce5 S1 3.060276 1_555
Ce5 S2 3.107986 1_555
Ce5 S13 3.173619 1_556
Ag0 S9 2.448834 1_445
Ag0 S13 2.448835 1_555
Ag0 S12 2.448843 1_455
Ag1 S8 2.448834 1_555
Ag1 S10 2.448835 1_445
Ag1 S11 2.448843 1_545
Ge0 S0 2.211299 1_556
Ge0 S5 2.258350 1_555
Ge0 S4 2.258351 1_555
Ge0 S2 2.258359 1_555
Ge1 S1 2.211299 1_555
Ge1 S6 2.258350 1_555
Ge1 S7 2.258351 1_555
Ge1 S3 2.258359 1_555
