# generated using pymatgen
data_Ca2CdSn
_symmetry_space_group_name_H-M   'P 1'
_cell_length_a   5.41031849
_cell_length_b   5.41031849
_cell_length_c   5.41031849
_cell_angle_alpha   60.00000000
_cell_angle_beta   60.00000000
_cell_angle_gamma   60.00000000
_symmetry_Int_Tables_number   1
_chemical_formula_structural   Ca2CdSn
_chemical_formula_sum   'Ca2 Cd1 Sn1'
_cell_volume   111.98336045
_cell_formula_units_Z   1
loop_
 _symmetry_equiv_pos_site_id
 _symmetry_equiv_pos_as_xyz
  1  'x, y, z'
loop_
 _atom_site_type_symbol
 _atom_site_label
 _atom_site_symmetry_multiplicity
 _atom_site_fract_x
 _atom_site_fract_y
 _atom_site_fract_z
 _atom_site_occupancy
  Ca  Ca0  1  0.50000000  0.50000000  0.50000000  1
  Ca  Ca1  1  -0.00000000  0.00000000  0.00000000  1
  Cd  Cd0  1  0.24999900  0.24999900  0.24999900  1
  Sn  Sn0  1  0.74999900  0.74999900  0.74999900  1
loop_
_geom_bond_atom_site_label_1
_geom_bond_atom_site_label_2
_geom_bond_distance
_geom_bond_site_symmetry_2
Ca0 Sn0 3.313117 1_555
Ca0 Cd0 3.313125 1_556
Ca0 Cd0 3.313125 1_565
Ca0 Cd0 3.313125 1_655
Ca0 Sn0 3.313134 1_554
Ca0 Sn0 3.313134 1_455
Ca0 Sn0 3.313134 1_545
Ca0 Cd0 3.313143 1_555
Ca1 Cd0 3.313117 1_555
Ca1 Sn0 3.313125 1_445
Ca1 Sn0 3.313125 1_454
Ca1 Sn0 3.313125 1_544
Ca1 Cd0 3.313134 1_554
Ca1 Cd0 3.313134 1_545
Ca1 Cd0 3.313134 1_455
Ca1 Sn0 3.313143 1_444
