# generated using pymatgen
data_CaThRh2
_symmetry_space_group_name_H-M   'P 1'
_cell_length_a   4.92097717
_cell_length_b   4.92097717
_cell_length_c   4.92097717
_cell_angle_alpha   60.00000000
_cell_angle_beta   60.00000000
_cell_angle_gamma   60.00000000
_symmetry_Int_Tables_number   1
_chemical_formula_structural   CaThRh2
_chemical_formula_sum   'Ca1 Th1 Rh2'
_cell_volume   84.26341458
_cell_formula_units_Z   1
loop_
 _symmetry_equiv_pos_site_id
 _symmetry_equiv_pos_as_xyz
  1  'x, y, z'
loop_
 _atom_site_type_symbol
 _atom_site_label
 _atom_site_symmetry_multiplicity
 _atom_site_fract_x
 _atom_site_fract_y
 _atom_site_fract_z
 _atom_site_occupancy
  Ca  Ca0  1  0.25000100  0.25000100  0.25000100  1
  Th  Th0  1  0.75000100  0.75000100  0.75000100  1
  Rh  Rh0  1  0.50000000  0.50000000  0.50000000  1
  Rh  Rh1  1  0.00000000  0.00000000  -0.00000000  1
loop_
_geom_bond_atom_site_label_1
_geom_bond_atom_site_label_2
_geom_bond_distance
_geom_bond_site_symmetry_2
Ca0 Rh0 3.013459 1_555
Ca0 Rh1 3.013467 1_565
Ca0 Rh1 3.013467 1_556
Ca0 Rh1 3.013467 1_655
Ca0 Rh0 3.013475 1_455
Ca0 Rh0 3.013475 1_545
Ca0 Rh0 3.013475 1_554
Ca0 Rh1 3.013483 1_555
Rh0 Th0 3.013467 1_545
Rh0 Th0 3.013467 1_554
Rh0 Th0 3.013467 1_455
Rh0 Th0 3.013483 1_555
Rh1 Th0 3.013459 1_444
Rh1 Th0 3.013475 1_454
Rh1 Th0 3.013475 1_445
Rh1 Th0 3.013475 1_544
