# generated using pymatgen
data_Li2V2F7
_symmetry_space_group_name_H-M   'P 1'
_cell_length_a   5.30170900
_cell_length_b   7.70017800
_cell_length_c   12.45963200
_cell_angle_alpha   90.00000000
_cell_angle_beta   90.00000000
_cell_angle_gamma   90.00000000
_symmetry_Int_Tables_number   1
_chemical_formula_structural   Li2V2F7
_chemical_formula_sum   'Li8 V8 F28'
_cell_volume   508.65330016
_cell_formula_units_Z   4
loop_
 _symmetry_equiv_pos_site_id
 _symmetry_equiv_pos_as_xyz
  1  'x, y, z'
loop_
 _atom_site_type_symbol
 _atom_site_label
 _atom_site_symmetry_multiplicity
 _atom_site_fract_x
 _atom_site_fract_y
 _atom_site_fract_z
 _atom_site_occupancy
  Li  Li0  1  0.88346300  0.25207200  0.07264300  1
  Li  Li1  1  0.87589100  0.75352000  0.18107800  1
  Li  Li2  1  0.37589100  0.25352000  0.31892200  1
  Li  Li3  1  0.38346300  0.75207200  0.42735700  1
  Li  Li4  1  0.61653700  0.25207200  0.57264300  1
  Li  Li5  1  0.62410900  0.75352000  0.68107800  1
  Li  Li6  1  0.12410900  0.25352000  0.81892200  1
  Li  Li7  1  0.11653700  0.75207200  0.92735700  1
  V  V0  1  0.35251900  0.52820700  0.12195700  1
  V  V1  1  0.36535000  0.99268200  0.12768000  1
  V  V2  1  0.86535000  0.49268200  0.37232000  1
  V  V3  1  0.85251900  0.02820700  0.37804300  1
  V  V4  1  0.14748100  0.52820700  0.62195700  1
  V  V5  1  0.13465000  0.99268200  0.62768000  1
  V  V6  1  0.63465000  0.49268200  0.87232000  1
  V  V7  1  0.64748100  0.02820700  0.87804300  1
  F  F0  1  0.68623700  0.46119200  0.05419900  1
  F  F1  1  0.70369800  0.03104400  0.04507900  1
  F  F2  1  0.11416800  0.73092500  0.07602100  1
  F  F3  1  0.23564000  0.26684000  0.11569100  1
  F  F4  1  0.53255600  0.74832000  0.15734200  1
  F  F5  1  0.05979300  0.55091400  0.23161900  1
  F  F6  1  0.03525700  0.95228700  0.24058900  1
  F  F7  1  0.53525700  0.45228700  0.25941100  1
  F  F8  1  0.55979300  0.05091400  0.26838100  1
  F  F9  1  0.03255600  0.24832000  0.34265800  1
  F  F10  1  0.73564000  0.76684000  0.38430900  1
  F  F11  1  0.61416800  0.23092500  0.42397900  1
  F  F12  1  0.20369800  0.53104400  0.45492100  1
  F  F13  1  0.18623700  0.96119200  0.44580100  1
  F  F14  1  0.81376300  0.46119200  0.55419900  1
  F  F15  1  0.79630200  0.03104400  0.54507900  1
  F  F16  1  0.38583200  0.73092500  0.57602100  1
  F  F17  1  0.26436000  0.26684000  0.61569100  1
  F  F18  1  0.96744400  0.74832000  0.65734200  1
  F  F19  1  0.44020700  0.55091400  0.73161900  1
  F  F20  1  0.46474300  0.95228700  0.74058900  1
  F  F21  1  0.96474300  0.45228700  0.75941100  1
  F  F22  1  0.94020700  0.05091400  0.76838100  1
  F  F23  1  0.46744400  0.24832000  0.84265800  1
  F  F24  1  0.76436000  0.76684000  0.88430900  1
  F  F25  1  0.88583200  0.23092500  0.92397900  1
  F  F26  1  0.29630200  0.53104400  0.95492100  1
  F  F27  1  0.31376300  0.96119200  0.94580100  1
loop_
_geom_bond_atom_site_label_1
_geom_bond_atom_site_label_2
_geom_bond_distance
_geom_bond_site_symmetry_2
F0 Li0 1.933676 1_555
F0 V0 2.027156 1_555
F0 V6 2.295433 1_554
F1 Li0 1.980638 1_555
F1 V1 2.089082 1_545
F1 V7 2.102554 1_554
F2 Li1 1.827441 1_455
F2 Li7 1.859485 1_554
F2 V0 2.088312 1_555
F2 V1 2.500048 1_555
F3 Li0 1.945977 1_455
F3 V0 2.107254 1_555
F3 V1 2.225269 1_545
F4 Li1 1.844565 1_555
F4 V0 1.994536 1_555
F4 V1 2.112573 1_555
F5 Li1 1.944501 1_455
F5 V0 2.075096 1_555
F5 V2 2.082564 1_455
F6 Li1 1.899009 1_455
F6 V3 2.052672 1_465
F6 V1 2.266837 1_555
F7 Li2 1.899009 1_555
F7 V0 2.052672 1_555
F7 V2 2.266837 1_555
F8 Li2 1.944501 1_555
F8 V3 2.075096 1_555
F8 V1 2.082564 1_545
F9 Li2 1.844565 1_555
F9 V3 1.994536 1_455
F9 V2 2.112573 1_455
F10 Li3 1.945977 1_555
F10 V3 2.107254 1_565
F10 V2 2.225269 1_555
F11 Li2 1.827441 1_555
F11 Li4 1.859485 1_555
F11 V3 2.088312 1_555
F11 V2 2.500048 1_555
F12 Li3 1.980638 1_555
F12 V2 2.089082 1_455
F12 V4 2.102554 1_555
F13 Li3 1.933676 1_555
F13 V3 2.027156 1_465
F13 V5 2.295433 1_555
F14 Li4 1.933676 1_555
F14 V4 2.027156 1_655
F14 V2 2.295433 1_555
F15 Li4 1.980638 1_555
F15 V5 2.089082 1_645
F15 V3 2.102554 1_555
F16 Li5 1.827441 1_555
F16 Li3 1.859485 1_555
F16 V4 2.088312 1_555
F16 V5 2.500048 1_555
F17 Li4 1.945977 1_555
F17 V4 2.107254 1_555
F17 V5 2.225269 1_545
F18 Li5 1.844565 1_555
F18 V4 1.994536 1_655
F18 V5 2.112573 1_655
F19 Li5 1.944501 1_555
F19 V4 2.075096 1_555
F19 V6 2.082564 1_555
F20 Li5 1.899009 1_555
F20 V7 2.052672 1_565
F20 V5 2.266837 1_555
F21 Li6 1.899009 1_655
F21 V4 2.052672 1_655
F21 V6 2.266837 1_555
F22 Li6 1.944501 1_655
F22 V7 2.075096 1_555
F22 V5 2.082564 1_645
F23 Li6 1.844565 1_555
F23 V7 1.994536 1_555
F23 V6 2.112573 1_555
F24 Li7 1.945977 1_655
F24 V7 2.107254 1_565
F24 V6 2.225269 1_555
F25 Li6 1.827441 1_655
F25 Li0 1.859485 1_556
F25 V7 2.088312 1_555
F25 V6 2.500048 1_555
F26 Li7 1.980638 1_555
F26 V6 2.089082 1_555
F26 V0 2.102554 1_556
F27 Li7 1.933676 1_555
F27 V7 2.027156 1_565
F27 V1 2.295433 1_556
