# generated using pymatgen
data_Mn8O13F3
_symmetry_space_group_name_H-M   'P 1'
_cell_length_a   6.71986700
_cell_length_b   6.74005881
_cell_length_c   7.01112936
_cell_angle_alpha   114.27488422
_cell_angle_beta   114.24905883
_cell_angle_gamma   95.77415865
_symmetry_Int_Tables_number   1
_chemical_formula_structural   Mn8O13F3
_chemical_formula_sum   'Mn8 O13 F3'
_cell_volume   249.67816629
_cell_formula_units_Z   1
loop_
 _symmetry_equiv_pos_site_id
 _symmetry_equiv_pos_as_xyz
  1  'x, y, z'
loop_
 _atom_site_type_symbol
 _atom_site_label
 _atom_site_symmetry_multiplicity
 _atom_site_fract_x
 _atom_site_fract_y
 _atom_site_fract_z
 _atom_site_occupancy
  Mn  Mn0  1  0.54934000  0.30140400  0.84798500  1
  Mn  Mn1  1  0.93792500  0.19944500  0.14680200  1
  Mn  Mn2  1  0.44920500  0.68021300  0.64256700  1
  Mn  Mn3  1  0.05054800  0.79836700  0.34841100  1
  Mn  Mn4  1  0.94656800  0.19228200  0.64311200  1
  Mn  Mn5  1  0.56586700  0.30528900  0.36023600  1
  Mn  Mn6  1  0.03798200  0.78620700  0.83189500  1
  Mn  Mn7  1  0.42705700  0.69647500  0.13962200  1
  O  O0  1  0.98934000  0.90525000  0.61650000  1
  O  O1  1  0.47757800  0.39668500  0.60725900  1
  O  O2  1  0.85271500  0.27835400  0.89300000  1
  O  O3  1  0.78859300  0.86630100  0.88848700  1
  O  O4  1  0.65270400  0.23387500  0.11607300  1
  O  O5  1  0.87772700  0.44915200  0.60640900  1
  O  O6  1  0.12132000  0.53750300  0.38918800  1
  O  O7  1  0.61680000  0.04071900  0.39135300  1
  O  O8  1  0.34744100  0.77024500  0.88420600  1
  O  O9  1  0.28693800  0.37057300  0.89074500  1
  O  O10  1  0.15031200  0.73737800  0.11254700  1
  O  O11  1  0.52598400  0.60051000  0.38925900  1
  O  O12  1  0.02651900  0.10340600  0.38980500  1
  F  F0  1  0.70008800  0.65208100  0.11968900  1
  F  F1  1  0.40317400  0.95168000  0.62150200  1
  F  F2  1  0.21827500  0.14660700  0.12334700  1
loop_
_geom_bond_atom_site_label_1
_geom_bond_atom_site_label_2
_geom_bond_distance
_geom_bond_site_symmetry_2
Mn0 O1 1.943831 1_555
Mn0 O2 1.963502 1_555
Mn0 O9 1.975142 1_555
Mn0 O4 1.979179 1_556
Mn1 O4 1.888180 1_555
Mn1 O2 1.944128 1_554
Mn1 O12 1.956347 1_655
Mn1 O3 2.009717 1_544
Mn1 O6 2.032080 1_655
Mn2 O1 1.863505 1_555
Mn2 O11 1.932058 1_555
Mn2 O6 1.972111 1_555
Mn2 O8 1.973801 1_555
Mn2 O3 2.040491 1_555
Mn3 O10 1.939124 1_555
Mn3 O0 1.949967 1_455
Mn3 O6 1.967026 1_555
Mn3 O12 1.987973 1_565
Mn4 O5 1.925455 1_555
Mn4 O0 1.928547 1_545
Mn4 O12 1.943019 1_655
Mn4 O7 1.979597 1_555
Mn4 O2 1.987293 1_555
Mn4 O9 2.039482 1_655
Mn5 O5 1.885454 1_555
Mn5 O4 1.924109 1_555
Mn5 O7 1.930273 1_555
Mn5 O1 1.941987 1_555
Mn5 O11 1.972752 1_555
Mn6 O0 1.916977 1_455
Mn6 O3 1.951787 1_455
Mn6 O10 1.977957 1_556
Mn6 O8 1.980275 1_555
Mn6 O5 1.994047 1_455
Mn7 O10 1.851136 1_555
Mn7 O8 1.933629 1_554
Mn7 O9 1.959366 1_554
Mn7 O11 1.996307 1_555
Mn7 O7 2.076862 1_565
F0 Mn7 1.939588 1_555
F0 Mn3 2.054402 1_655
F0 Mn0 2.114848 1_554
F1 Mn2 1.940065 1_555
F1 Mn0 2.053740 1_565
F1 Mn3 2.121922 1_555
F2 Mn1 2.011051 1_455
F2 Mn5 2.051436 1_555
F2 Mn6 2.199311 1_544
