# generated using pymatgen
data_Li2MnVP2(HO5)2
_symmetry_space_group_name_H-M   'P 1'
_cell_length_a   5.46098400
_cell_length_b   7.44473565
_cell_length_c   14.55657949
_cell_angle_alpha   95.60965132
_cell_angle_beta   91.23907045
_cell_angle_gamma   110.91956614
_symmetry_Int_Tables_number   1
_chemical_formula_structural   Li2MnVP2(HO5)2
_chemical_formula_sum   'Li6 Mn3 V3 P6 H6 O30'
_cell_volume   549.13049297
_cell_formula_units_Z   3
loop_
 _symmetry_equiv_pos_site_id
 _symmetry_equiv_pos_as_xyz
  1  'x, y, z'
loop_
 _atom_site_type_symbol
 _atom_site_label
 _atom_site_symmetry_multiplicity
 _atom_site_fract_x
 _atom_site_fract_y
 _atom_site_fract_z
 _atom_site_occupancy
  Li  Li0  1  0.26163800  0.86530800  0.69376700  1
  Li  Li1  1  0.06760000  0.46678000  0.64169000  1
  Li  Li2  1  0.40409500  0.79696300  0.97407900  1
  Li  Li3  1  0.60105500  0.20347600  0.02483400  1
  Li  Li4  1  0.93152700  0.53267900  0.35939400  1
  Li  Li5  1  0.73518400  0.13342900  0.30688700  1
  Mn  Mn0  1  0.33551100  0.33541000  0.83478300  1
  Mn  Mn1  1  0.33317200  0.33364300  0.33337800  1
  Mn  Mn2  1  0.66810800  0.66798900  0.66636900  1
  V  V0  1  0.66239300  0.66387200  0.16585000  1
  V  V1  1  0.99990900  0.00007300  0.50015000  1
  V  V2  1  0.00060100  0.99909000  0.99921500  1
  P  P0  1  0.01351800  0.37999700  0.14853800  1
  P  P1  1  0.31129100  0.95177900  0.18440800  1
  P  P2  1  0.34936300  0.71566000  0.48184000  1
  P  P3  1  0.65104900  0.28496700  0.51798100  1
  P  P4  1  0.68339300  0.04754900  0.81413400  1
  P  P5  1  0.98861300  0.61917400  0.85258000  1
  H  H0  1  0.05289400  0.98974800  0.32663200  1
  H  H1  1  0.28465600  0.34702900  0.00794600  1
  H  H2  1  0.38827300  0.32541800  0.65868700  1
  H  H3  1  0.61503400  0.67706000  0.34103000  1
  H  H4  1  0.71517500  0.65255900  0.99177800  1
  H  H5  1  0.94640600  0.01031300  0.67450600  1
  O  O0  1  0.09074900  0.83037100  0.90110400  1
  O  O1  1  0.03904800  0.83775900  0.21854800  1
  O  O2  1  0.14107900  0.79843600  0.44866100  1
  O  O3  1  0.20464100  0.54073200  0.88458500  1
  O  O4  1  0.29647900  0.95581500  0.07733800  1
  O  O5  1  0.02018500  0.37536900  0.25421400  1
  O  O6  1  0.35559500  0.71274100  0.58752600  1
  O  O7  1  0.24803800  0.50490300  0.43262900  1
  O  O8  1  0.05093100  0.10048900  0.37026400  1
  O  O9  1  0.28777000  0.49447100  0.11507400  1
  O  O10  1  0.28575600  0.23786600  0.96291700  1
  O  O11  1  0.57755200  0.83619400  0.76586000  1
  O  O12  1  0.52242800  0.86948500  0.21397800  1
  O  O13  1  0.38801900  0.43537200  0.70344700  1
  O  O14  1  0.62495600  0.82858300  0.44837900  1
  O  O15  1  0.37548300  0.17136800  0.55111300  1
  O  O16  1  0.61510000  0.56648600  0.29677500  1
  O  O17  1  0.46499100  0.12659200  0.78728600  1
  O  O18  1  0.41625300  0.16245000  0.23287600  1
  O  O19  1  0.71951400  0.76207300  0.03778000  1
  O  O20  1  0.72060400  0.50737800  0.88901400  1
  O  O21  1  0.94858900  0.89997900  0.63009500  1
  O  O22  1  0.75219600  0.49560300  0.56704400  1
  O  O23  1  0.64492500  0.28837400  0.41207000  1
  O  O24  1  0.97790800  0.62325600  0.74688500  1
  O  O25  1  0.70481300  0.04237100  0.92130000  1
  O  O26  1  0.80374400  0.46165400  0.11591700  1
  O  O27  1  0.85898300  0.20193500  0.55097300  1
  O  O28  1  0.94937900  0.16104300  0.77735400  1
  O  O29  1  0.91383900  0.17088700  0.09854400  1
loop_
_geom_bond_atom_site_label_1
_geom_bond_atom_site_label_2
_geom_bond_distance
_geom_bond_site_symmetry_2
Li0 O6 2.012989 1_555
Li0 O21 2.035094 1_455
Li0 O11 2.087533 1_555
Li0 O24 2.139209 1_455
Li0 O17 2.178190 1_565
Li1 O24 2.008217 1_455
Li1 O13 2.046918 1_555
Li1 O22 2.102859 1_455
Li1 O6 2.174270 1_555
Li1 O27 2.179707 1_455
Li2 O4 2.047010 1_556
Li2 O19 2.047391 1_556
Li2 O0 2.096511 1_555
Li2 O3 2.119284 1_555
Li2 O25 2.193504 1_565
Li3 O10 2.033577 1_554
Li3 O25 2.049339 1_554
Li3 O29 2.096502 1_555
Li3 O26 2.143937 1_555
Li3 O4 2.211473 1_545
Li4 O5 2.009112 1_655
Li4 O16 2.041448 1_555
Li4 O7 2.094146 1_655
Li4 O23 2.153438 1_555
Li4 O2 2.174564 1_655
Li5 O23 2.002806 1_555
Li5 O8 2.040051 1_655
Li5 O18 2.115152 1_555
Li5 O5 2.138733 1_655
Li5 O12 2.195982 1_545
Mn0 O3 1.989654 1_555
Mn0 O17 1.997687 1_555
Mn0 O10 2.055709 1_555
Mn0 O13 2.107250 1_555
Mn0 O20 2.119612 1_555
Mn0 O28 2.141792 1_455
Mn1 O16 1.992318 1_555
Mn1 O8 1.996077 1_555
Mn1 O7 2.005312 1_555
Mn1 O18 2.011852 1_555
Mn1 O5 2.170208 1_555
Mn1 O23 2.173710 1_555
Mn2 O21 1.982916 1_555
Mn2 O13 1.989159 1_555
Mn2 O11 2.007171 1_555
Mn2 O22 2.008764 1_555
Mn2 O6 2.176429 1_555
Mn2 O24 2.177086 1_555
H0 O8 0.993701 1_565
H1 O10 0.994813 1_554
H2 O13 0.995577 1_555
H3 O16 0.994581 1_555
H4 O19 0.996228 1_556
H5 O21 0.998143 1_545
O0 P5 1.556196 1_455
O0 V2 1.995242 1_555
O1 P1 1.546303 1_555
O1 V0 2.081168 1_455
O2 P2 1.562613 1_555
O2 V1 2.010208 1_465
O3 P5 1.572015 1_455
O4 P1 1.562701 1_555
O4 V2 2.090857 1_554
O5 P0 1.541965 1_555
O6 P2 1.540515 1_555
O7 P2 1.557020 1_555
O8 V1 2.088442 1_455
O9 P0 1.551735 1_555
O9 V0 2.057193 1_555
O10 V2 2.026452 1_545
O11 P4 1.555804 1_565
O12 P1 1.557118 1_555
O12 V0 2.016732 1_555
O14 P2 1.554760 1_555
O14 V1 2.066142 1_565
O15 P3 1.553941 1_555
O15 V1 2.065105 1_455
O16 V0 2.093371 1_555
O17 P4 1.564456 1_555
O18 P1 1.552535 1_545
O19 V2 2.020311 1_654
O19 V0 2.058155 1_555
O20 P5 1.538203 1_555
O21 V1 2.088340 1_565
O22 P3 1.555520 1_555
O23 P3 1.544224 1_555
O24 P5 1.542083 1_555
O25 P4 1.567087 1_555
O25 V2 2.088837 1_645
O26 P0 1.561283 1_655
O26 V0 2.007680 1_555
O27 P3 1.561370 1_555
O27 V1 2.007787 1_555
O28 P4 1.534953 1_555
O29 P0 1.551023 1_655
O29 V2 2.012891 1_644
