# generated using pymatgen
data_Ca(PRh)2
_symmetry_space_group_name_H-M   'P 1'
_cell_length_a   4.01555359
_cell_length_b   4.01555319
_cell_length_c   5.60599413
_cell_angle_alpha   110.98651515
_cell_angle_beta   110.98650169
_cell_angle_gamma   89.99999746
_symmetry_Int_Tables_number   1
_chemical_formula_structural   Ca(PRh)2
_chemical_formula_sum   'Ca1 P2 Rh2'
_cell_volume   77.94212026
_cell_formula_units_Z   1
loop_
 _symmetry_equiv_pos_site_id
 _symmetry_equiv_pos_as_xyz
  1  'x, y, z'
loop_
 _atom_site_type_symbol
 _atom_site_label
 _atom_site_symmetry_multiplicity
 _atom_site_fract_x
 _atom_site_fract_y
 _atom_site_fract_z
 _atom_site_occupancy
  Ca  Ca0  1  -0.00000000  -0.00000000  0.00000000  1
  P  P0  1  0.61553446  0.61553446  0.23106891  1
  P  P1  1  0.38446554  0.38446554  0.76893109  1
  Rh  Rh0  1  0.25000000  0.75000000  0.50000000  1
  Rh  Rh1  1  0.75000000  0.25000000  0.50000000  1
loop_
_geom_bond_atom_site_label_1
_geom_bond_atom_site_label_2
_geom_bond_distance
_geom_bond_site_symmetry_2
Ca0 P0 3.051204 1_455
Ca0 P1 3.051204 1_544
Ca0 P1 3.051204 1_554
Ca0 P0 3.051204 1_445
Ca0 P1 3.051205 1_454
Ca0 P0 3.051205 1_545
Ca0 P1 3.051205 1_444
Ca0 P0 3.051205 1_555
Ca0 Rh0 3.142034 1_544
Ca0 Rh1 3.142034 1_455
Ca0 Rh1 3.142034 1_444
Ca0 Rh0 3.142034 1_555
Ca0 Rh0 3.142034 1_545
Ca0 Rh1 3.142034 1_454
Ca0 Rh1 3.142034 1_555
Ca0 Rh0 3.142034 1_444
P0 P1 2.233844 1_554
P0 Rh0 2.391862 1_555
P0 Rh1 2.391862 1_565
P0 Rh1 2.391862 1_555
P0 Rh0 2.391862 1_655
P1 Rh1 2.391862 1_555
P1 Rh0 2.391862 1_545
P1 Rh0 2.391862 1_555
P1 Rh1 2.391862 1_455
