# generated using pymatgen
data_Li3V2Cr2O8
_symmetry_space_group_name_H-M   'P 1'
_cell_length_a   5.87248900
_cell_length_b   5.95013404
_cell_length_c   5.96038155
_cell_angle_alpha   90.90699177
_cell_angle_beta   119.47787664
_cell_angle_gamma   119.13504312
_symmetry_Int_Tables_number   1
_chemical_formula_structural   Li3V2Cr2O8
_chemical_formula_sum   'Li3 V2 Cr2 O8'
_cell_volume   149.16606100
_cell_formula_units_Z   1
loop_
 _symmetry_equiv_pos_site_id
 _symmetry_equiv_pos_as_xyz
  1  'x, y, z'
loop_
 _atom_site_type_symbol
 _atom_site_label
 _atom_site_symmetry_multiplicity
 _atom_site_fract_x
 _atom_site_fract_y
 _atom_site_fract_z
 _atom_site_occupancy
  Li  Li0  1  0.50000000  0.00000000  0.00000000  1
  Li  Li1  1  0.00000000  0.00000000  0.50000000  1
  Li  Li2  1  0.00000000  0.50000000  0.50000000  1
  V  V0  1  0.00000000  0.50000000  0.00000000  1
  V  V1  1  0.50000000  0.50000000  0.50000000  1
  Cr  Cr0  1  0.50000000  0.50000000  0.00000000  1
  Cr  Cr1  1  0.00000000  0.00000000  0.00000000  1
  O  O0  1  0.51860200  0.73344700  0.76376700  1
  O  O1  1  0.46251300  0.71535200  0.22979300  1
  O  O2  1  0.97707300  0.73743800  0.21795200  1
  O  O3  1  0.99853800  0.74421700  0.76744500  1
  O  O4  1  0.00146200  0.25578300  0.23255500  1
  O  O5  1  0.02292700  0.26256200  0.78204800  1
  O  O6  1  0.53748700  0.28464800  0.77020700  1
  O  O7  1  0.48139800  0.26655300  0.23623300  1
loop_
_geom_bond_atom_site_label_1
_geom_bond_atom_site_label_2
_geom_bond_distance
_geom_bond_site_symmetry_2
Li0 O4 2.112207 1_655
Li0 O3 2.112207 1_444
Li0 O7 2.181599 1_555
Li0 O0 2.181599 1_544
Li0 O6 2.190922 1_554
Li0 O1 2.190922 1_545
Li1 O5 2.185008 1_555
Li1 O2 2.185008 1_445
Li1 O3 2.221488 1_445
Li1 O4 2.221488 1_555
Li1 O6 2.265006 1_555
Li1 O1 2.265006 1_445
Li2 O3 2.145926 1_455
Li2 O4 2.145926 1_555
Li2 O7 2.185299 1_455
Li2 O0 2.185299 1_555
Li2 O2 2.208595 1_455
Li2 O5 2.208595 1_555
Cr0 O0 1.997370 1_554
Cr0 O7 1.997370 1_555
Cr0 O5 2.009583 1_554
Cr0 O2 2.009583 1_555
Cr0 O6 2.020444 1_554
Cr0 O1 2.020444 1_555
Cr1 O0 2.033669 1_444
Cr1 O7 2.033669 1_555
Cr1 O4 2.036291 1_555
Cr1 O3 2.036291 1_444
Cr1 O5 2.044019 1_554
Cr1 O2 2.044019 1_445
O0 V1 2.006768 1_555
O1 V0 1.946619 1_555
O1 V1 2.067676 1_555
O2 V0 2.000238 1_655
O3 V0 2.024145 1_656
O3 V1 2.101169 1_555
O4 V0 2.024145 1_555
O4 V1 2.101169 1_555
O5 V0 2.000238 1_556
O6 V0 1.946619 1_656
O6 V1 2.067676 1_555
O7 V1 2.006768 1_555
