# generated using pymatgen
data_V2NiO7
_symmetry_space_group_name_H-M   'P 1'
_cell_length_a   5.91178600
_cell_length_b   6.74305250
_cell_length_c   7.82107423
_cell_angle_alpha   81.59647405
_cell_angle_beta   82.26576333
_cell_angle_gamma   76.06180869
_symmetry_Int_Tables_number   1
_chemical_formula_structural   V2NiO7
_chemical_formula_sum   'V4 Ni2 O14'
_cell_volume   297.73881674
_cell_formula_units_Z   2
loop_
 _symmetry_equiv_pos_site_id
 _symmetry_equiv_pos_as_xyz
  1  'x, y, z'
loop_
 _atom_site_type_symbol
 _atom_site_label
 _atom_site_symmetry_multiplicity
 _atom_site_fract_x
 _atom_site_fract_y
 _atom_site_fract_z
 _atom_site_occupancy
  V  V0  1  0.60906600  0.85070600  0.23385300  1
  V  V1  1  0.39093400  0.14929400  0.76614700  1
  V  V2  1  0.80015700  0.32711200  0.90789200  1
  V  V3  1  0.19984300  0.67288800  0.09210800  1
  Ni  Ni0  1  0.58477300  0.35809700  0.34932600  1
  Ni  Ni1  1  0.41522700  0.64190300  0.65067400  1
  O  O0  1  0.87518900  0.24986700  0.43486000  1
  O  O1  1  0.12481100  0.75013300  0.56514000  1
  O  O2  1  0.74224200  0.41936900  0.10312000  1
  O  O3  1  0.25775800  0.58063100  0.89688000  1
  O  O4  1  0.54609400  0.07420000  0.31537800  1
  O  O5  1  0.45390600  0.92580000  0.68462200  1
  O  O6  1  0.73095100  0.51872900  0.74566100  1
  O  O7  1  0.26904900  0.48127100  0.25433900  1
  O  O8  1  0.38447900  0.84671200  0.09833100  1
  O  O9  1  0.61552100  0.15328800  0.90166900  1
  O  O10  1  0.10075900  0.18864700  0.87354100  1
  O  O11  1  0.89924100  0.81135300  0.12645900  1
  O  O12  1  0.58582900  0.65675600  0.40190000  1
  O  O13  1  0.41417100  0.34324400  0.59810000  1
loop_
_geom_bond_atom_site_label_1
_geom_bond_atom_site_label_2
_geom_bond_distance
_geom_bond_site_symmetry_2
Ni0 O0 1.868317 1_555
Ni0 O4 2.040400 1_555
Ni0 O7 2.042443 1_555
Ni0 O2 2.053169 1_555
Ni0 O13 2.067953 1_555
Ni0 O12 2.115084 1_555
Ni1 O1 1.868317 1_555
Ni1 O5 2.040400 1_555
Ni1 O6 2.042443 1_555
Ni1 O3 2.053169 1_555
Ni1 O12 2.067953 1_555
Ni1 O13 2.115084 1_555
O2 V2 1.694091 1_554
O3 V3 1.694091 1_556
O4 V0 1.662221 1_545
O5 V1 1.662221 1_565
O6 V2 1.688978 1_555
O7 V3 1.688978 1_555
O8 V3 1.793028 1_555
O8 V0 1.814203 1_555
O9 V2 1.793028 1_555
O9 V1 1.814203 1_555
O10 V1 1.782334 1_555
O10 V2 1.802075 1_455
O11 V0 1.782334 1_555
O11 V3 1.802075 1_655
O12 V0 1.729799 1_555
O13 V1 1.729799 1_555
