# generated using pymatgen
data_Tm2MnOs
_symmetry_space_group_name_H-M   'P 1'
_cell_length_a   4.83380320
_cell_length_b   4.83380320
_cell_length_c   4.83380320
_cell_angle_alpha   60.00000000
_cell_angle_beta   60.00000000
_cell_angle_gamma   60.00000000
_symmetry_Int_Tables_number   1
_chemical_formula_structural   Tm2MnOs
_chemical_formula_sum   'Tm2 Mn1 Os1'
_cell_volume   79.86415412
_cell_formula_units_Z   1
loop_
 _symmetry_equiv_pos_site_id
 _symmetry_equiv_pos_as_xyz
  1  'x, y, z'
loop_
 _atom_site_type_symbol
 _atom_site_label
 _atom_site_symmetry_multiplicity
 _atom_site_fract_x
 _atom_site_fract_y
 _atom_site_fract_z
 _atom_site_occupancy
  Tm  Tm0  1  0.00000000  0.00000000  0.00000000  1
  Tm  Tm1  1  0.50000000  0.50000000  0.50000000  1
  Mn  Mn0  1  0.25000100  0.25000100  0.25000100  1
  Os  Os0  1  0.75000100  0.75000100  0.75000100  1
loop_
_geom_bond_atom_site_label_1
_geom_bond_atom_site_label_2
_geom_bond_distance
_geom_bond_site_symmetry_2
Mn0 Tm1 2.960076 1_555
Mn0 Tm0 2.960084 1_655
Mn0 Tm0 2.960084 1_556
Mn0 Tm0 2.960084 1_565
Mn0 Tm1 2.960092 1_554
Mn0 Tm1 2.960092 1_545
Mn0 Tm1 2.960092 1_455
Mn0 Tm0 2.960100 1_555
Mn0 Os0 3.418015 1_545
Mn0 Os0 3.418015 1_455
Mn0 Os0 3.418015 1_554
Mn0 Os0 3.418015 1_544
Mn0 Os0 3.418015 1_445
Mn0 Os0 3.418015 1_454
Os0 Tm0 2.960076 1_666
Os0 Tm1 2.960084 1_565
Os0 Tm1 2.960084 1_556
Os0 Tm1 2.960084 1_655
Os0 Tm0 2.960092 1_656
Os0 Tm0 2.960092 1_566
Os0 Tm0 2.960092 1_665
Os0 Tm1 2.960100 1_555
