# generated using pymatgen
data_LiTm2Pt
_symmetry_space_group_name_H-M   'P 1'
_cell_length_a   4.90610767
_cell_length_b   4.90610767
_cell_length_c   4.90610767
_cell_angle_alpha   60.00000000
_cell_angle_beta   60.00000000
_cell_angle_gamma   60.00000000
_symmetry_Int_Tables_number   1
_chemical_formula_structural   LiTm2Pt
_chemical_formula_sum   'Li1 Tm2 Pt1'
_cell_volume   83.50187477
_cell_formula_units_Z   1
loop_
 _symmetry_equiv_pos_site_id
 _symmetry_equiv_pos_as_xyz
  1  'x, y, z'
loop_
 _atom_site_type_symbol
 _atom_site_label
 _atom_site_symmetry_multiplicity
 _atom_site_fract_x
 _atom_site_fract_y
 _atom_site_fract_z
 _atom_site_occupancy
  Li  Li0  1  0.00000000  0.00000000  0.00000000  1
  Tm  Tm0  1  0.75000000  0.75000000  0.75000000  1
  Tm  Tm1  1  0.25000000  0.25000000  0.25000000  1
  Pt  Pt0  1  0.50000000  0.50000000  0.50000000  1
loop_
_geom_bond_atom_site_label_1
_geom_bond_atom_site_label_2
_geom_bond_distance
_geom_bond_site_symmetry_2
Li0 Tm1 3.004365 1_545
Li0 Tm1 3.004365 1_555
Li0 Tm1 3.004365 1_455
Li0 Tm0 3.004365 1_444
Li0 Tm0 3.004365 1_445
Li0 Tm0 3.004365 1_454
Li0 Tm1 3.004365 1_554
Li0 Tm0 3.004365 1_544
Pt0 Tm1 3.004365 1_565
Pt0 Tm0 3.004365 1_545
Pt0 Tm1 3.004365 1_655
Pt0 Tm1 3.004365 1_555
Pt0 Tm0 3.004365 1_455
Pt0 Tm0 3.004365 1_554
Pt0 Tm0 3.004365 1_555
Pt0 Tm1 3.004365 1_556
