# generated using pymatgen
data_Rb4Zr6CCl18
_symmetry_space_group_name_H-M   'P 1'
_cell_length_a   10.33285124
_cell_length_b   10.33285124
_cell_length_c   10.01703386
_cell_angle_alpha   77.27577493
_cell_angle_beta   77.27577493
_cell_angle_gamma   117.51322988
_symmetry_Int_Tables_number   1
_chemical_formula_structural   Rb4Zr6CCl18
_chemical_formula_sum   'Rb4 Zr6 C1 Cl18'
_cell_volume   858.76598564
_cell_formula_units_Z   1
loop_
 _symmetry_equiv_pos_site_id
 _symmetry_equiv_pos_as_xyz
  1  'x, y, z'
loop_
 _atom_site_type_symbol
 _atom_site_label
 _atom_site_symmetry_multiplicity
 _atom_site_fract_x
 _atom_site_fract_y
 _atom_site_fract_z
 _atom_site_occupancy
  Rb  Rb0  1  0.76985700  0.44602800  0.68195800  1
  Rb  Rb1  1  0.55397200  0.23014300  0.31804200  1
  Rb  Rb2  1  0.23014300  0.55397200  0.31804200  1
  Rb  Rb3  1  0.44602800  0.76985700  0.68195800  1
  Zr  Zr0  1  0.12180900  0.12180900  0.14330400  1
  Zr  Zr1  1  0.87819100  0.87819100  0.85669600  1
  Zr  Zr2  1  0.94814000  0.76422400  0.14890300  1
  Zr  Zr3  1  0.23577600  0.05186000  0.85109700  1
  Zr  Zr4  1  0.05186000  0.23577600  0.85109700  1
  Zr  Zr5  1  0.76422400  0.94814000  0.14890300  1
  C  C0  1  0.00000000  0.00000000  0.00000000  1
  Cl  Cl0  1  0.80766600  0.60282100  0.00792200  1
  Cl  Cl1  1  0.39718000  0.19233400  0.99207800  1
  Cl  Cl2  1  0.19233400  0.39718000  0.99207800  1
  Cl  Cl3  1  0.60282000  0.80766600  0.00792200  1
  Cl  Cl4  1  0.20451100  0.79548900  0.00000000  1
  Cl  Cl5  1  0.79548900  0.20451100  0.00000000  1
  Cl  Cl6  1  0.31989300  0.31989300  0.67269500  1
  Cl  Cl7  1  0.68010700  0.68010700  0.32730500  1
  Cl  Cl8  1  0.88806300  0.49353700  0.32401600  1
  Cl  Cl9  1  0.50646300  0.11193700  0.67598400  1
  Cl  Cl10  1  0.11193700  0.50646300  0.67598400  1
  Cl  Cl11  1  0.49353700  0.88806300  0.32401600  1
  Cl  Cl12  1  0.26223000  0.26223000  0.30116000  1
  Cl  Cl13  1  0.73777000  0.73777000  0.69884000  1
  Cl  Cl14  1  0.07782000  0.87315400  0.31998000  1
  Cl  Cl15  1  0.12684600  0.92218000  0.68002000  1
  Cl  Cl16  1  0.92218000  0.12684600  0.68002000  1
  Cl  Cl17  1  0.87315400  0.07782000  0.31998000  1
loop_
_geom_bond_atom_site_label_1
_geom_bond_atom_site_label_2
_geom_bond_distance
_geom_bond_site_symmetry_2
C0 Zr2 2.299604 1_445
C0 Zr5 2.299604 1_445
C0 Zr3 2.299604 1_554
C0 Zr4 2.299604 1_554
C0 Zr1 2.314544 1_444
C0 Zr0 2.314544 1_555
Cl0 Zr2 2.566426 1_555
Cl0 Zr1 2.573149 1_554
Cl0 Rb1 3.628694 1_555
Cl1 Zr3 2.566432 1_555
Cl1 Zr0 2.573158 1_556
Cl1 Rb0 3.628689 1_555
Cl2 Zr4 2.566432 1_555
Cl2 Zr0 2.573158 1_556
Cl2 Rb3 3.628689 1_555
Cl3 Zr5 2.566432 1_555
Cl3 Zr1 2.573158 1_554
Cl3 Rb2 3.628689 1_555
Cl4 Zr3 2.569639 1_564
Cl4 Zr2 2.569639 1_455
Cl4 Rb2 3.731966 1_555
Cl4 Rb3 3.731966 1_554
Cl5 Zr4 2.569639 1_654
Cl5 Zr5 2.569639 1_545
Cl5 Rb1 3.731966 1_555
Cl5 Rb0 3.731966 1_554
Cl6 Zr4 2.555558 1_555
Cl6 Zr3 2.555558 1_555
Cl7 Zr2 2.555558 1_555
Cl7 Zr5 2.555558 1_555
Cl8 Zr2 2.653339 1_555
Cl8 Rb2 3.276952 1_655
Cl8 Rb1 3.287885 1_555
Cl8 Rb0 3.366039 1_555
Cl9 Zr3 2.653339 1_555
Cl9 Rb3 3.276952 1_545
Cl9 Rb0 3.287885 1_555
Cl9 Rb1 3.366039 1_555
Cl10 Zr4 2.653339 1_555
Cl10 Rb0 3.276952 1_455
Cl10 Rb3 3.287885 1_555
Cl10 Rb2 3.366039 1_555
Cl11 Zr5 2.653339 1_555
Cl11 Rb1 3.276952 1_565
Cl11 Rb2 3.287885 1_555
Cl11 Rb3 3.366039 1_555
Cl12 Zr0 2.605219 1_555
Cl12 Rb1 3.217014 1_555
Cl12 Rb2 3.217014 1_555
Cl13 Zr1 2.605219 1_555
Cl13 Rb3 3.217014 1_555
Cl13 Rb0 3.217014 1_555
Cl14 Zr2 2.543009 1_455
Cl14 Zr0 2.550227 1_565
Cl15 Zr3 2.543009 1_565
Cl15 Zr1 2.550227 1_455
Cl16 Zr4 2.543009 1_655
Cl16 Zr1 2.550227 1_545
Cl17 Zr5 2.543009 1_545
Cl17 Zr0 2.550227 1_655
