# generated using pymatgen
data_LiMn4(PO4)3
_symmetry_space_group_name_H-M   'P 1'
_cell_length_a   9.65837242
_cell_length_b   9.65837242
_cell_length_c   6.20939900
_cell_angle_alpha   90.00000000
_cell_angle_beta   90.00000000
_cell_angle_gamma   120.00000290
_symmetry_Int_Tables_number   1
_chemical_formula_structural   LiMn4(PO4)3
_chemical_formula_sum   'Li2 Mn8 P6 O24'
_cell_volume   501.63529019
_cell_formula_units_Z   2
loop_
 _symmetry_equiv_pos_site_id
 _symmetry_equiv_pos_as_xyz
  1  'x, y, z'
loop_
 _atom_site_type_symbol
 _atom_site_label
 _atom_site_symmetry_multiplicity
 _atom_site_fract_x
 _atom_site_fract_y
 _atom_site_fract_z
 _atom_site_occupancy
  Li  Li0  1  0.33333300  0.66666700  0.02804100  1
  Li  Li1  1  0.66666700  0.33333300  0.52804100  1
  Mn  Mn0  1  0.96391900  0.69649100  0.24922200  1
  Mn  Mn1  1  0.33333300  0.66666700  0.49246300  1
  Mn  Mn2  1  0.30350900  0.26742800  0.24922200  1
  Mn  Mn3  1  0.73257200  0.03608100  0.24922200  1
  Mn  Mn4  1  0.26742800  0.96391900  0.74922200  1
  Mn  Mn5  1  0.69649100  0.73257200  0.74922200  1
  Mn  Mn6  1  0.66666700  0.33333300  0.99246300  1
  Mn  Mn7  1  0.03608100  0.30350900  0.74922200  1
  P  P0  1  0.01896500  0.63039500  0.74985100  1
  P  P1  1  0.61143000  0.98103500  0.74985100  1
  P  P2  1  0.36960500  0.38857000  0.74985100  1
  P  P3  1  0.63039500  0.61143000  0.24985100  1
  P  P4  1  0.38857000  0.01896500  0.24985100  1
  P  P5  1  0.98103500  0.36960500  0.24985100  1
  O  O0  1  0.06674100  0.74882000  0.55490300  1
  O  O1  1  0.07091100  0.74737900  0.94573200  1
  O  O2  1  0.13105800  0.55560600  0.74044800  1
  O  O3  1  0.34383200  0.84304200  0.25303400  1
  O  O4  1  0.15695800  0.50079000  0.25303400  1
  O  O5  1  0.42454900  0.86894200  0.74044800  1
  O  O6  1  0.25262100  0.32353200  0.94573200  1
  O  O7  1  0.25118000  0.31792100  0.55490300  1
  O  O8  1  0.49921000  0.65616800  0.25303400  1
  O  O9  1  0.44439400  0.57545100  0.74044800  1
  O  O10  1  0.67646800  0.92908900  0.94573200  1
  O  O11  1  0.68207900  0.93325900  0.55490300  1
  O  O12  1  0.32353200  0.07091100  0.44573200  1
  O  O13  1  0.31792100  0.06674100  0.05490300  1
  O  O14  1  0.55560600  0.42454900  0.24044800  1
  O  O15  1  0.50079000  0.34383200  0.75303400  1
  O  O16  1  0.74882000  0.68207900  0.05490300  1
  O  O17  1  0.74737900  0.67646800  0.44573200  1
  O  O18  1  0.57545100  0.13105800  0.24044800  1
  O  O19  1  0.84304200  0.49921000  0.75303400  1
  O  O20  1  0.65616800  0.15695800  0.75303400  1
  O  O21  1  0.86894200  0.44439400  0.24044800  1
  O  O22  1  0.93325900  0.25118000  0.05490300  1
  O  O23  1  0.92908900  0.25262100  0.44573200  1
loop_
_geom_bond_atom_site_label_1
_geom_bond_atom_site_label_2
_geom_bond_distance
_geom_bond_site_symmetry_2
Li0 O3 2.165929 1_555
Li0 O4 2.165932 1_555
Li0 O8 2.165936 1_555
Li0 O5 2.461858 1_554
Li0 O2 2.461859 1_554
Li0 O9 2.461870 1_554
Li1 O20 2.165929 1_555
Li1 O19 2.165932 1_555
Li1 O15 2.165936 1_555
Li1 O18 2.461858 1_555
Li1 O21 2.461859 1_555
Li1 O14 2.461870 1_555
Mn0 O0 2.083871 1_655
Mn0 O1 2.086343 1_654
Mn0 O21 2.130584 1_555
Mn0 O17 2.344334 1_555
Mn0 O16 2.345660 1_555
Mn1 O3 2.224803 1_555
Mn1 O4 2.224806 1_555
Mn1 O8 2.224810 1_555
Mn1 O5 2.289724 1_555
Mn1 O2 2.289725 1_555
Mn1 O9 2.289737 1_555
Mn2 O7 2.083871 1_555
Mn2 O6 2.086343 1_554
Mn2 O14 2.130585 1_555
Mn2 O12 2.344334 1_555
Mn2 O13 2.345660 1_555
Mn3 O11 2.083871 1_545
Mn3 O10 2.086343 1_544
Mn3 O18 2.130593 1_555
Mn3 O23 2.344334 1_555
Mn3 O22 2.345660 1_555
Mn4 O13 2.083871 1_566
Mn4 O12 2.086343 1_565
Mn4 O5 2.130593 1_555
Mn4 O1 2.344334 1_555
Mn4 O0 2.345660 1_555
Mn5 O16 2.083871 1_556
Mn5 O17 2.086343 1_555
Mn5 O9 2.130585 1_555
Mn5 O10 2.344334 1_555
Mn5 O11 2.345660 1_555
Mn6 O20 2.224803 1_555
Mn6 O19 2.224806 1_555
Mn6 O15 2.224810 1_555
Mn6 O18 2.289724 1_556
Mn6 O21 2.289725 1_556
Mn6 O14 2.289737 1_556
Mn7 O22 2.083871 1_456
Mn7 O23 2.086343 1_455
Mn7 O2 2.130584 1_555
Mn7 O6 2.344334 1_555
Mn7 O7 2.345660 1_555
O0 P0 1.568034 1_555
O1 P0 1.562323 1_555
O2 P0 1.574584 1_555
O3 P4 1.529690 1_565
O4 P5 1.529690 1_455
O5 P1 1.574577 1_555
O6 P2 1.562323 1_555
O7 P2 1.568034 1_555
O8 P3 1.529690 1_555
O9 P2 1.574575 1_555
O10 P1 1.562323 1_555
O11 P1 1.568034 1_555
O12 P4 1.562323 1_555
O13 P4 1.568034 1_555
O14 P3 1.574575 1_555
O15 P2 1.529690 1_555
O16 P3 1.568034 1_555
O17 P3 1.562323 1_555
O18 P4 1.574577 1_555
O19 P0 1.529690 1_655
O20 P1 1.529690 1_545
O21 P5 1.574584 1_555
O22 P5 1.568034 1_555
O23 P5 1.562323 1_555
