# generated using pymatgen
data_Er(BRh)4
_symmetry_space_group_name_H-M   'P 1'
_cell_length_a   5.33630400
_cell_length_b   5.33630400
_cell_length_c   7.44528000
_cell_angle_alpha   90.00000000
_cell_angle_beta   90.00000000
_cell_angle_gamma   90.00000000
_symmetry_Int_Tables_number   1
_chemical_formula_structural   Er(BRh)4
_chemical_formula_sum   'Er2 B8 Rh8'
_cell_volume   212.01283845
_cell_formula_units_Z   2
loop_
 _symmetry_equiv_pos_site_id
 _symmetry_equiv_pos_as_xyz
  1  'x, y, z'
loop_
 _atom_site_type_symbol
 _atom_site_label
 _atom_site_symmetry_multiplicity
 _atom_site_fract_x
 _atom_site_fract_y
 _atom_site_fract_z
 _atom_site_occupancy
  Er  Er0  1  0.50000000  0.50000000  0.50000000  1
  Er  Er1  1  0.00000000  0.00000000  0.00000000  1
  B  B0  1  0.16859100  0.50000000  0.14884000  1
  B  B1  1  0.83140900  0.50000000  0.14884000  1
  B  B2  1  0.00000000  0.66859100  0.64884000  1
  B  B3  1  0.33140900  0.00000000  0.35116000  1
  B  B4  1  0.66859100  0.00000000  0.35116000  1
  B  B5  1  0.50000000  0.83140900  0.85116000  1
  B  B6  1  0.50000000  0.16859100  0.85116000  1
  B  B7  1  0.00000000  0.33140900  0.64884000  1
  Rh  Rh0  1  0.74858300  0.50000000  0.85439100  1
  Rh  Rh1  1  0.25141700  0.50000000  0.85439100  1
  Rh  Rh2  1  0.00000000  0.75141700  0.35439100  1
  Rh  Rh3  1  0.24858300  0.00000000  0.64560900  1
  Rh  Rh4  1  0.75141700  0.00000000  0.64560900  1
  Rh  Rh5  1  0.50000000  0.74858300  0.14560900  1
  Rh  Rh6  1  0.50000000  0.25141700  0.14560900  1
  Rh  Rh7  1  0.00000000  0.24858300  0.35439100  1
loop_
_geom_bond_atom_site_label_1
_geom_bond_atom_site_label_2
_geom_bond_distance
_geom_bond_site_symmetry_2
Er0 Rh1 2.953225 1_555
Er0 Rh0 2.953225 1_555
Er0 Rh6 2.953225 1_555
Er0 Rh5 2.953225 1_555
Er0 Rh7 3.177153 1_655
Er0 Rh3 3.177153 1_555
Er0 Rh2 3.177153 1_555
Er0 Rh3 3.177153 1_565
Er0 Rh4 3.177153 1_565
Er0 Rh2 3.177153 1_655
Er0 Rh4 3.177153 1_555
Er0 Rh7 3.177153 1_555
Er1 Rh4 2.953225 1_454
Er1 Rh2 2.953225 1_545
Er1 Rh3 2.953225 1_554
Er1 Rh7 2.953225 1_555
Er1 Rh6 3.177153 1_555
Er1 Rh5 3.177153 1_445
Er1 Rh5 3.177153 1_545
Er1 Rh1 3.177153 1_554
Er1 Rh6 3.177153 1_455
Er1 Rh0 3.177153 1_444
Er1 Rh1 3.177153 1_544
Er1 Rh0 3.177153 1_454
B0 B1 1.799306 1_455
B0 Rh6 2.210839 1_555
B0 Rh5 2.210839 1_555
B0 Rh7 2.225184 1_555
B0 Rh2 2.225184 1_555
B0 Rh1 2.236366 1_554
B0 Er1 3.025958 1_555
B0 Er1 3.025958 1_565
B0 Er0 3.156441 1_555
B1 Rh6 2.210839 1_555
B1 Rh5 2.210839 1_555
B1 Rh7 2.225184 1_655
B1 Rh2 2.225184 1_655
B1 Rh0 2.236366 1_554
B1 Er1 3.025958 1_655
B1 Er1 3.025958 1_665
B1 Er0 3.156441 1_555
B2 B7 1.799306 1_555
B2 Rh3 2.210839 1_565
B2 Rh4 2.210839 1_465
B2 Rh1 2.225184 1_555
B2 Rh0 2.225184 1_455
B2 Rh2 2.236366 1_555
B2 Er0 3.025958 1_555
B2 Er0 3.025958 1_455
B2 Er1 3.156441 1_566
B3 B4 1.799306 1_555
B3 Rh7 2.210839 1_555
B3 Rh2 2.210839 1_545
B3 Rh5 2.225184 1_545
B3 Rh6 2.225184 1_555
B3 Rh3 2.236366 1_555
B3 Er0 3.025958 1_545
B3 Er0 3.025958 1_555
B3 Er1 3.156441 1_555
B4 Rh2 2.210839 1_645
B4 Rh7 2.210839 1_655
B4 Rh5 2.225184 1_545
B4 Rh6 2.225184 1_555
B4 Rh4 2.236366 1_555
B4 Er0 3.025958 1_545
B4 Er0 3.025958 1_555
B4 Er1 3.156441 1_655
B5 B6 1.799306 1_565
B5 Rh1 2.210839 1_555
B5 Rh0 2.210839 1_555
B5 Rh3 2.225184 1_565
B5 Rh4 2.225184 1_565
B5 Rh5 2.236366 1_556
B5 Er1 3.025958 1_666
B5 Er1 3.025958 1_566
B5 Er0 3.156441 1_555
B6 Rh1 2.210839 1_555
B6 Rh0 2.210839 1_555
B6 Rh3 2.225184 1_555
B6 Rh4 2.225184 1_555
B6 Rh6 2.236366 1_556
B6 Er1 3.025958 1_556
B6 Er1 3.025958 1_656
B6 Er0 3.156441 1_555
B7 Rh4 2.210839 1_455
B7 Rh3 2.210839 1_555
B7 Rh1 2.225184 1_555
B7 Rh0 2.225184 1_455
B7 Rh7 2.236366 1_555
B7 Er0 3.025958 1_455
B7 Er0 3.025958 1_555
B7 Er1 3.156441 1_556
