# generated using pymatgen
data_Yb(Mg4Al3)4
_symmetry_space_group_name_H-M   'P 1'
_cell_length_a   9.13909161
_cell_length_b   9.13909161
_cell_length_c   9.13909161
_cell_angle_alpha   109.47122063
_cell_angle_beta   109.47122063
_cell_angle_gamma   109.47122063
_symmetry_Int_Tables_number   1
_chemical_formula_structural   Yb(Mg4Al3)4
_chemical_formula_sum   'Yb1 Mg16 Al12'
_cell_volume   587.60732512
_cell_formula_units_Z   1
loop_
 _symmetry_equiv_pos_site_id
 _symmetry_equiv_pos_as_xyz
  1  'x, y, z'
loop_
 _atom_site_type_symbol
 _atom_site_label
 _atom_site_symmetry_multiplicity
 _atom_site_fract_x
 _atom_site_fract_y
 _atom_site_fract_z
 _atom_site_occupancy
  Yb  Yb0  1  0.00000000  0.00000000  0.00000000  1
  Mg  Mg0  1  0.28413700  0.60271500  0.60271500  1
  Mg  Mg1  1  0.71586300  0.31857700  0.31857700  1
  Mg  Mg2  1  0.64342700  0.00000000  0.00000000  1
  Mg  Mg3  1  0.35657300  0.35657300  0.35657300  1
  Mg  Mg4  1  0.00000000  0.68142200  0.39728500  1
  Mg  Mg5  1  0.60271500  0.60271500  0.28413700  1
  Mg  Mg6  1  0.39728500  0.00000000  0.68142300  1
  Mg  Mg7  1  0.00000000  0.00000000  0.64342700  1
  Mg  Mg8  1  0.68142300  0.39728500  0.00000000  1
  Mg  Mg9  1  0.31857700  0.71586300  0.31857700  1
  Mg  Mg10  1  0.68142200  0.00000000  0.39728500  1
  Mg  Mg11  1  0.31857700  0.31857700  0.71586300  1
  Mg  Mg12  1  0.00000000  0.64342700  0.00000000  1
  Mg  Mg13  1  0.60271500  0.28413700  0.60271500  1
  Mg  Mg14  1  0.39728500  0.68142200  0.00000000  1
  Mg  Mg15  1  0.00000000  0.39728500  0.68142300  1
  Al  Al0  1  0.81782200  0.63068600  0.63068700  1
  Al  Al1  1  0.18217800  0.81286400  0.81286500  1
  Al  Al2  1  0.00000000  0.36931300  0.18713500  1
  Al  Al3  1  0.63068700  0.81782200  0.63068700  1
  Al  Al4  1  0.36931300  0.18713500  0.00000000  1
  Al  Al5  1  0.18713500  0.36931300  0.00000000  1
  Al  Al6  1  0.81286500  0.18217800  0.81286500  1
  Al  Al7  1  0.18713500  0.00000000  0.36931300  1
  Al  Al8  1  0.81286500  0.81286400  0.18217800  1
  Al  Al9  1  0.36931300  0.00000000  0.18713500  1
  Al  Al10  1  0.63068600  0.63068600  0.81782200  1
  Al  Al11  1  0.00000000  0.18713500  0.36931300  1
loop_
_geom_bond_atom_site_label_1
_geom_bond_atom_site_label_2
_geom_bond_distance
_geom_bond_site_symmetry_2
Mg0 Mg3 3.028349 1_555
Mg0 Mg4 3.111385 1_555
Mg0 Mg15 3.111392 1_555
Mg0 Mg6 3.166947 1_565
Mg0 Mg14 3.166950 1_556
Mg0 Mg9 3.166956 1_555
Mg0 Mg11 3.166956 1_555
Mg1 Mg2 3.028339 1_555
Mg1 Mg4 3.111388 1_655
Mg1 Mg15 3.111395 1_655
Mg1 Mg10 3.166946 1_555
Mg1 Mg8 3.166947 1_555
Mg1 Mg13 3.166956 1_555
Mg1 Mg5 3.166956 1_555
Mg2 Mg6 3.028343 1_554
Mg2 Yb0 3.258753 1_655
Mg3 Mg5 3.028349 1_555
Mg3 Yb0 3.258753 1_555
Mg4 Mg7 3.028349 1_565
Mg4 Mg9 3.166946 1_555
Mg4 Mg8 3.166947 1_455
Mg4 Mg5 3.166950 1_455
Mg4 Mg6 3.166951 1_565
Mg5 Mg8 3.111392 1_555
Mg5 Mg9 3.166956 1_555
Mg6 Mg9 3.111395 1_545
Mg6 Mg8 3.166948 1_556
Mg7 Yb0 3.258753 1_556
Mg10 Mg7 3.028349 1_655
Mg10 Mg13 3.111385 1_555
Mg10 Mg9 3.111388 1_545
Mg10 Mg14 3.166950 1_545
Mg10 Mg5 3.166950 1_545
Mg10 Mg15 3.166951 1_655
Mg11 Mg7 3.028339 1_555
Mg11 Mg14 3.111388 1_556
Mg11 Mg8 3.111395 1_556
Mg11 Mg15 3.166947 1_555
Mg11 Mg6 3.166947 1_555
Mg11 Mg13 3.166956 1_555
Mg12 Mg9 3.028339 1_555
Mg12 Mg15 3.028343 1_554
Mg12 Mg8 3.028343 1_455
Mg12 Yb0 3.258753 1_565
Mg13 Mg3 3.028349 1_555
Mg13 Mg6 3.111392 1_555
Mg13 Mg8 3.166947 1_556
Mg13 Mg15 3.166947 1_655
Mg14 Mg2 3.028349 1_565
Mg14 Mg5 3.111385 1_555
Mg14 Mg9 3.166946 1_555
Mg14 Mg15 3.166947 1_554
Al0 Al1 2.718838 1_655
Al0 Al10 2.792824 1_555
Al0 Al3 2.792824 1_555
Al0 Mg1 2.858782 1_555
Al0 Mg13 2.989184 1_555
Al0 Mg5 2.989196 1_555
Al0 Mg12 3.168578 1_656
Al0 Mg7 3.168591 1_665
Al0 Mg15 3.170074 1_655
Al0 Mg4 3.170082 1_655
Al0 Yb0 3.235519 1_666
Al1 Al9 2.792817 1_566
Al1 Al4 2.792824 1_566
Al1 Mg0 2.858772 1_555
Al1 Mg14 2.989184 1_556
Al1 Mg6 2.989188 1_565
Al1 Mg12 3.168578 1_556
Al1 Mg7 3.168591 1_565
Al1 Mg15 3.170074 1_555
Al1 Mg4 3.170082 1_555
Al1 Yb0 3.235519 1_566
Al2 Al5 2.792817 1_555
Al2 Al6 2.792817 1_454
Al2 Mg4 2.858777 1_555
Al2 Mg8 2.989184 1_455
Al2 Mg9 2.989189 1_555
Al2 Mg3 3.168583 1_555
Al2 Mg2 3.168583 1_455
Al2 Mg1 3.170074 1_455
Al2 Mg0 3.170080 1_555
Al2 Yb0 3.235514 1_555
Al3 Al6 2.718838 1_565
Al3 Mg9 2.858787 1_555
Al3 Mg0 2.989191 1_555
Al3 Mg5 2.989191 1_555
Al3 Mg7 3.168583 1_665
Al3 Mg2 3.168583 1_566
Al3 Mg10 3.170080 1_565
Al3 Mg6 3.170082 1_565
Al3 Yb0 3.235514 1_666
Al4 Al5 2.718838 1_555
Al4 Al9 2.792817 1_555
Al4 Mg8 2.858784 1_555
Al4 Mg6 2.989184 1_554
Al4 Mg1 2.989189 1_555
Al4 Mg3 3.168583 1_555
Al4 Mg7 3.168583 1_554
Al4 Mg11 3.170074 1_554
Al4 Mg5 3.170080 1_555
Al4 Yb0 3.235514 1_555
Al5 Al6 2.792817 1_454
Al5 Mg14 2.858777 1_555
Al5 Mg15 2.989184 1_554
Al5 Mg9 2.989189 1_555
Al5 Mg3 3.168583 1_555
Al5 Mg7 3.168583 1_554
Al5 Mg11 3.170074 1_554
Al5 Mg5 3.170080 1_555
Al5 Yb0 3.235514 1_555
Al6 Mg13 2.858777 1_555
Al6 Mg8 2.989184 1_556
Al6 Mg15 2.989184 1_655
Al6 Mg7 3.168583 1_655
Al6 Mg2 3.168583 1_556
Al6 Mg10 3.170080 1_555
Al6 Mg6 3.170082 1_555
Al6 Yb0 3.235514 1_656
Al7 Al9 2.718838 1_555
Al7 Al8 2.792817 1_445
Al7 Mg6 2.858784 1_555
Al7 Mg11 2.989189 1_555
Al7 Mg4 2.989191 1_545
Al7 Mg3 3.168583 1_555
Al7 Mg12 3.168583 1_545
Al7 Mg9 3.170074 1_545
Al7 Mg13 3.170080 1_555
Al7 Yb0 3.235514 1_555
Al8 Mg5 2.858772 1_555
Al8 Mg4 2.989184 1_655
Al8 Mg10 2.989196 1_565
Al8 Mg12 3.168578 1_655
Al8 Mg2 3.168591 1_565
Al8 Mg8 3.170074 1_555
Al8 Mg14 3.170082 1_555
Al8 Yb0 3.235519 1_665
Al9 Mg10 2.858777 1_555
Al9 Mg1 2.989189 1_555
Al9 Mg14 2.989191 1_545
Al9 Mg3 3.168583 1_555
Al9 Mg12 3.168583 1_545
Al9 Mg9 3.170074 1_545
Al9 Mg13 3.170080 1_555
Al9 Yb0 3.235514 1_555
Al10 Al8 2.718838 1_556
Al10 Al3 2.792824 1_555
Al10 Mg11 2.858777 1_555
Al10 Mg0 2.989188 1_555
Al10 Mg13 2.989188 1_555
Al10 Mg12 3.168586 1_656
Al10 Mg2 3.168586 1_566
Al10 Mg14 3.170074 1_556
Al10 Mg8 3.170076 1_556
Al10 Yb0 3.235523 1_666
Al11 Al2 2.718838 1_555
Al11 Al7 2.792817 1_555
Al11 Al8 2.792824 1_445
Al11 Mg15 2.858784 1_555
Al11 Mg11 2.989189 1_555
Al11 Mg10 2.989191 1_455
Al11 Mg2 3.168583 1_455
Al11 Mg3 3.168583 1_555
Al11 Mg1 3.170074 1_455
Al11 Mg0 3.170080 1_555
Al11 Yb0 3.235514 1_555
