# generated using pymatgen
data_Ho2S3
_symmetry_space_group_name_H-M   'P 1'
_cell_length_a   3.99704149
_cell_length_b   10.12467985
_cell_length_c   17.54691088
_cell_angle_alpha   98.63545252
_cell_angle_beta   90.00000000
_cell_angle_gamma   90.00000000
_symmetry_Int_Tables_number   1
_chemical_formula_structural   Ho2S3
_chemical_formula_sum   'Ho12 S18'
_cell_volume   702.05186840
_cell_formula_units_Z   6
loop_
 _symmetry_equiv_pos_site_id
 _symmetry_equiv_pos_as_xyz
  1  'x, y, z'
loop_
 _atom_site_type_symbol
 _atom_site_label
 _atom_site_symmetry_multiplicity
 _atom_site_fract_x
 _atom_site_fract_y
 _atom_site_fract_z
 _atom_site_occupancy
  Ho  Ho0  1  0.75000000  0.45123275  0.88538833  1
  Ho  Ho1  1  0.25000000  0.54876725  0.11461167  1
  Ho  Ho2  1  0.75000000  0.51323964  0.60080292  1
  Ho  Ho3  1  0.25000000  0.48676036  0.39919708  1
  Ho  Ho4  1  0.75000000  0.81205555  0.27945616  1
  Ho  Ho5  1  0.25000000  0.18794445  0.72054384  1
  Ho  Ho6  1  0.75000000  0.17021552  0.21848803  1
  Ho  Ho7  1  0.25000000  0.82978448  0.78151197  1
  Ho  Ho8  1  0.75000000  0.87592032  0.56983803  1
  Ho  Ho9  1  0.25000000  0.12407968  0.43016197  1
  Ho  Ho10  1  0.75000000  0.81141782  0.97969996  1
  Ho  Ho11  1  0.25000000  0.18858218  0.02030004  1
  S  S0  1  0.75000000  0.63250112  0.46868411  1
  S  S1  1  0.25000000  0.36749888  0.53131589  1
  S  S2  1  0.75000000  0.68130184  0.81838430  1
  S  S3  1  0.25000000  0.31869816  0.18161570  1
  S  S4  1  0.75000000  0.04877453  0.07587509  1
  S  S5  1  0.25000000  0.95122547  0.92412491  1
  S  S6  1  0.75000000  0.28972642  0.36862496  1
  S  S7  1  0.25000000  0.71027358  0.63137504  1
  S  S8  1  0.75000000  0.99306524  0.73204093  1
  S  S9  1  0.25000000  0.00693476  0.26795907  1
  S  S10  1  0.75000000  0.36222138  0.71746306  1
  S  S11  1  0.25000000  0.63777862  0.28253694  1
  S  S12  1  0.25000000  0.05195661  0.57527158  1
  S  S13  1  0.75000000  0.94804339  0.42472842  1
  S  S14  1  0.25000000  0.26920252  0.87283796  1
  S  S15  1  0.75000000  0.73079748  0.12716204  1
  S  S16  1  0.25000000  0.61567390  0.96740781  1
  S  S17  1  0.75000000  0.38432610  0.03259219  1
loop_
_geom_bond_atom_site_label_1
_geom_bond_atom_site_label_2
_geom_bond_distance
_geom_bond_site_symmetry_2
Ho0 S14 2.705059 1_555
Ho0 S14 2.705059 1_655
Ho0 S2 2.762373 1_555
Ho0 S17 2.766960 1_556
Ho0 S16 2.849166 1_555
Ho0 S16 2.849166 1_655
Ho0 S10 2.949073 1_555
Ho1 S15 2.705059 1_455
Ho1 S15 2.705059 1_555
Ho1 S3 2.762373 1_555
Ho1 S16 2.766960 1_554
Ho1 S17 2.849166 1_555
Ho1 S17 2.849166 1_455
Ho1 S11 2.949073 1_555
Ho2 S1 2.667919 1_555
Ho2 S1 2.667919 1_655
Ho2 S10 2.732780 1_555
Ho2 S0 2.770024 1_555
Ho2 S7 2.817826 1_655
Ho2 S7 2.817826 1_555
Ho3 S0 2.667919 1_455
Ho3 S0 2.667919 1_555
Ho3 S11 2.732780 1_555
Ho3 S1 2.770024 1_555
Ho3 S6 2.817826 1_455
Ho3 S6 2.817826 1_555
Ho4 S11 2.671910 1_555
Ho4 S11 2.671910 1_655
Ho4 S15 2.675405 1_555
Ho4 S13 2.709160 1_555
Ho4 S9 2.836794 1_565
Ho4 S9 2.836794 1_665
Ho5 S10 2.671910 1_555
Ho5 S10 2.671910 1_455
Ho5 S14 2.675405 1_555
Ho5 S12 2.709160 1_555
Ho5 S8 2.836794 1_545
Ho5 S8 2.836794 1_445
Ho6 S4 2.617236 1_555
Ho6 S3 2.639091 1_555
Ho6 S3 2.639091 1_655
Ho6 S6 2.728946 1_555
Ho6 S9 2.812741 1_555
Ho6 S9 2.812741 1_655
Ho7 S5 2.617236 1_555
Ho7 S2 2.639091 1_555
Ho7 S2 2.639091 1_455
Ho7 S7 2.728946 1_555
Ho7 S8 2.812741 1_555
Ho7 S8 2.812741 1_455
Ho8 S12 2.669977 1_565
Ho8 S12 2.669977 1_665
Ho8 S13 2.752241 1_555
Ho8 S0 2.812608 1_555
Ho8 S8 2.914386 1_555
Ho8 S7 2.918315 1_655
Ho8 S7 2.918315 1_555
Ho9 S13 2.669977 1_445
Ho9 S13 2.669977 1_545
Ho9 S12 2.752241 1_555
Ho9 S1 2.812608 1_555
Ho9 S9 2.914386 1_555
Ho9 S6 2.918315 1_555
Ho9 S6 2.918315 1_455
Ho10 S5 2.713525 1_655
Ho10 S5 2.713525 1_555
Ho10 S4 2.721258 1_566
Ho10 S16 2.799991 1_555
Ho10 S16 2.799991 1_655
Ho10 S15 2.827665 1_556
Ho10 S2 2.937338 1_555
Ho11 S4 2.713525 1_455
Ho11 S4 2.713525 1_555
Ho11 S5 2.721258 1_544
Ho11 S17 2.799991 1_455
Ho11 S17 2.799991 1_555
Ho11 S14 2.827665 1_554
Ho11 S3 2.937338 1_555
