# generated using pymatgen
data_Dy2S3
_symmetry_space_group_name_H-M   'P 1'
_cell_length_a   3.87384406
_cell_length_b   7.30210526
_cell_length_c   15.15901037
_cell_angle_alpha   90.00000000
_cell_angle_beta   90.00000000
_cell_angle_gamma   90.00000000
_symmetry_Int_Tables_number   1
_chemical_formula_structural   Dy2S3
_chemical_formula_sum   'Dy8 S12'
_cell_volume   428.80621716
_cell_formula_units_Z   4
loop_
 _symmetry_equiv_pos_site_id
 _symmetry_equiv_pos_as_xyz
  1  'x, y, z'
loop_
 _atom_site_type_symbol
 _atom_site_label
 _atom_site_symmetry_multiplicity
 _atom_site_fract_x
 _atom_site_fract_y
 _atom_site_fract_z
 _atom_site_occupancy
  Dy  Dy0  1  0.25000000  0.76648701  0.54282247  1
  Dy  Dy1  1  0.75000000  0.23351299  0.45717753  1
  Dy  Dy2  1  0.25000000  0.26648701  0.95717753  1
  Dy  Dy3  1  0.75000000  0.73351299  0.04282247  1
  Dy  Dy4  1  0.75000000  0.85873074  0.79558733  1
  Dy  Dy5  1  0.25000000  0.14126926  0.20441267  1
  Dy  Dy6  1  0.75000000  0.35873074  0.70441267  1
  Dy  Dy7  1  0.25000000  0.64126926  0.29558733  1
  S  S0  1  0.25000000  0.65098476  0.71829858  1
  S  S1  1  0.75000000  0.34901524  0.28170142  1
  S  S2  1  0.25000000  0.15098476  0.78170142  1
  S  S3  1  0.75000000  0.84901524  0.21829858  1
  S  S4  1  0.75000000  0.62360805  0.43237447  1
  S  S5  1  0.25000000  0.37639195  0.56762553  1
  S  S6  1  0.75000000  0.12360805  0.06762553  1
  S  S7  1  0.25000000  0.87639195  0.93237447  1
  S  S8  1  0.25000000  0.51076387  0.10746575  1
  S  S9  1  0.75000000  0.48923613  0.89253425  1
  S  S10  1  0.25000000  0.01076387  0.39253425  1
  S  S11  1  0.75000000  0.98923613  0.60746575  1
loop_
_geom_bond_atom_site_label_1
_geom_bond_atom_site_label_2
_geom_bond_distance
_geom_bond_site_symmetry_2
Dy0 S11 2.712480 1_555
Dy0 S11 2.712480 1_455
Dy0 S4 2.764670 1_555
Dy0 S4 2.764670 1_455
Dy0 S0 2.790551 1_555
Dy0 S5 2.873222 1_555
Dy0 S10 2.893441 1_565
Dy1 S10 2.712480 1_655
Dy1 S10 2.712480 1_555
Dy1 S5 2.764670 1_555
Dy1 S5 2.764670 1_655
Dy1 S1 2.790551 1_555
Dy1 S4 2.873222 1_555
Dy1 S11 2.893441 1_545
Dy2 S9 2.712480 1_555
Dy2 S9 2.712480 1_455
Dy2 S6 2.764670 1_556
Dy2 S6 2.764670 1_456
Dy2 S2 2.790551 1_555
Dy2 S7 2.873222 1_545
Dy2 S8 2.893441 1_556
Dy3 S8 2.712480 1_555
Dy3 S8 2.712480 1_655
Dy3 S7 2.764670 1_554
Dy3 S7 2.764670 1_654
Dy3 S3 2.790551 1_555
Dy3 S6 2.873222 1_565
Dy3 S9 2.893441 1_554
Dy4 S0 2.724995 1_555
Dy4 S0 2.724995 1_655
Dy4 S7 2.840412 1_555
Dy4 S7 2.840412 1_655
Dy4 S2 2.889676 1_565
Dy4 S2 2.889676 1_665
Dy4 S11 3.006750 1_555
Dy4 S9 3.072371 1_555
Dy5 S1 2.724995 1_455
Dy5 S1 2.724995 1_555
Dy5 S6 2.840412 1_455
Dy5 S6 2.840412 1_555
Dy5 S3 2.889676 1_545
Dy5 S3 2.889676 1_445
Dy5 S10 3.006750 1_555
Dy5 S8 3.072371 1_555
Dy6 S2 2.724995 1_655
Dy6 S2 2.724995 1_555
Dy6 S5 2.840412 1_555
Dy6 S5 2.840412 1_655
Dy6 S0 2.889676 1_555
Dy6 S0 2.889676 1_655
Dy6 S9 3.006750 1_555
Dy6 S11 3.072371 1_545
Dy7 S3 2.724995 1_555
Dy7 S3 2.724995 1_455
Dy7 S4 2.840412 1_455
Dy7 S4 2.840412 1_555
Dy7 S1 2.889676 1_555
Dy7 S1 2.889676 1_455
Dy7 S8 3.006750 1_555
Dy7 S10 3.072371 1_565
