# generated using pymatgen
data_DyMgRh2
_symmetry_space_group_name_H-M   'P 1'
_cell_length_a   4.60780940
_cell_length_b   4.60780651
_cell_length_c   4.60780218
_cell_angle_alpha   59.99991710
_cell_angle_beta   59.99986522
_cell_angle_gamma   59.99986537
_symmetry_Int_Tables_number   1
_chemical_formula_structural   DyMgRh2
_chemical_formula_sum   'Dy1 Mg1 Rh2'
_cell_volume   69.17774663
_cell_formula_units_Z   1
loop_
 _symmetry_equiv_pos_site_id
 _symmetry_equiv_pos_as_xyz
  1  'x, y, z'
loop_
 _atom_site_type_symbol
 _atom_site_label
 _atom_site_symmetry_multiplicity
 _atom_site_fract_x
 _atom_site_fract_y
 _atom_site_fract_z
 _atom_site_occupancy
  Dy  Dy0  1  0.24999900  0.24999900  0.24999900  1
  Mg  Mg0  1  0.74999900  0.74999900  0.74999900  1
  Rh  Rh0  1  0.00000100  0.99999900  0.99999900  1
  Rh  Rh1  1  0.49999900  0.50000000  0.50000100  1
loop_
_geom_bond_atom_site_label_1
_geom_bond_atom_site_label_2
_geom_bond_distance
_geom_bond_site_symmetry_2
Dy0 Rh1 2.821680 1_554
Dy0 Rh1 2.821686 1_545
Dy0 Rh0 2.821687 1_545
Dy0 Rh0 2.821688 1_544
Dy0 Rh0 2.821690 1_554
Dy0 Rh1 2.821690 1_455
Dy0 Rh0 2.821698 1_644
Dy0 Rh1 2.821707 1_555
Mg0 Rh0 2.821683 1_555
Mg0 Rh1 2.821685 1_555
Mg0 Rh0 2.821687 1_654
Mg0 Rh0 2.821690 1_645
Mg0 Rh1 2.821690 1_655
Mg0 Rh1 2.821694 1_565
Mg0 Rh1 2.821695 1_556
Mg0 Rh0 2.821703 1_655
