# generated using pymatgen
data_V3CoO8
_symmetry_space_group_name_H-M   'P 1'
_cell_length_a   9.80227457
_cell_length_b   9.80227457
_cell_length_c   9.80227457
_cell_angle_alpha   128.25773326
_cell_angle_beta   118.87489822
_cell_angle_gamma   84.13996264
_symmetry_Int_Tables_number   1
_chemical_formula_structural   V3CoO8
_chemical_formula_sum   'V12 Co4 O32'
_cell_volume   620.50047878
_cell_formula_units_Z   4
loop_
 _symmetry_equiv_pos_site_id
 _symmetry_equiv_pos_as_xyz
  1  'x, y, z'
loop_
 _atom_site_type_symbol
 _atom_site_label
 _atom_site_symmetry_multiplicity
 _atom_site_fract_x
 _atom_site_fract_y
 _atom_site_fract_z
 _atom_site_occupancy
  V  V0  1  0.75764800  0.19945800  0.55466800  1
  V  V1  1  0.64479000  0.69945800  0.94181000  1
  V  V2  1  0.99107700  0.34293800  0.02916700  1
  V  V3  1  0.31377100  0.84293800  0.85186100  1
  V  V4  1  0.69069100  0.52044400  0.16721100  1
  V  V5  1  0.35323300  0.02044400  0.32975300  1
  V  V6  1  0.64676700  0.97651900  0.66721100  1
  V  V7  1  0.30930900  0.47651900  0.82975300  1
  V  V8  1  0.68622900  0.53809000  0.52916700  1
  V  V9  1  0.00892300  0.03809000  0.35186100  1
  V  V10  1  0.35521000  0.29702000  0.05466800  1
  V  V11  1  0.24235200  0.79702000  0.44181000  1
  Co  Co0  1  0.98614300  0.96541900  0.63697200  1
  Co  Co1  1  0.32844700  0.46541900  0.47927600  1
  Co  Co2  1  0.67155300  0.15082900  0.13697200  1
  Co  Co3  1  0.01385700  0.65082900  0.97927600  1
  O  O0  1  0.87673800  0.63131600  0.73463800  1
  O  O1  1  0.89667900  0.13131600  0.25457800  1
  O  O2  1  0.85386900  0.77379100  0.09340900  1
  O  O3  1  0.68038100  0.27379100  0.41992200  1
  O  O4  1  0.88140800  0.06746900  0.48099100  1
  O  O5  1  0.57605500  0.88876100  0.00947600  1
  O  O6  1  0.87928500  0.38876100  0.81270600  1
  O  O7  1  0.58647800  0.56746900  0.68606100  1
  O  O8  1  0.85795400  0.08856300  0.78224900  1
  O  O9  1  0.30631400  0.58856300  0.73060800  1
  O  O10  1  0.59608400  0.07299100  0.51055500  1
  O  O11  1  0.56243600  0.57299100  0.97690700  1
  O  O12  1  0.80810500  0.41802500  0.06862100  1
  O  O13  1  0.79966600  0.73476100  0.37794700  1
  O  O14  1  0.34940400  0.91802500  0.10992000  1
  O  O15  1  0.35681400  0.23476100  0.43509500  1
  O  O16  1  0.65059600  0.76051600  0.56862100  1
  O  O17  1  0.19189500  0.26051600  0.60992000  1
  O  O18  1  0.20033400  0.57828100  0.93509500  1
  O  O19  1  0.64318600  0.07828100  0.87794700  1
  O  O20  1  0.43756400  0.41447000  0.01055500  1
  O  O21  1  0.40391600  0.91447000  0.47690700  1
  O  O22  1  0.69368600  0.42429500  0.28224900  1
  O  O23  1  0.14204600  0.92429500  0.23060800  1
  O  O24  1  0.42394500  0.43342200  0.31270600  1
  O  O25  1  0.12071500  0.93342200  0.50947600  1
  O  O26  1  0.11859200  0.59958300  0.18606100  1
  O  O27  1  0.41352200  0.09958300  0.98099100  1
  O  O28  1  0.14613100  0.23954000  0.91992200  1
  O  O29  1  0.31961900  0.73954000  0.59340900  1
  O  O30  1  0.12326200  0.85790000  0.75457800  1
  O  O31  1  0.10332100  0.35790000  0.23463800  1
loop_
_geom_bond_atom_site_label_1
_geom_bond_atom_site_label_2
_geom_bond_distance
_geom_bond_site_symmetry_2
Co0 O30 1.991276 1_655
Co0 O13 2.037693 1_555
Co0 O8 2.086524 1_565
Co0 O25 2.102992 1_655
Co0 O4 2.135590 1_565
Co0 O28 2.191433 1_665
Co1 O31 1.991282 1_555
Co1 O15 2.037693 1_555
Co1 O9 2.086515 1_555
Co1 O24 2.102993 1_555
Co1 O7 2.135590 1_555
Co1 O29 2.191431 1_555
Co2 O1 1.991284 1_555
Co2 O19 2.037693 1_554
Co2 O22 2.086524 1_555
Co2 O5 2.102989 1_545
Co2 O27 2.135590 1_554
Co2 O3 2.191438 1_555
Co3 O0 1.991276 1_455
Co3 O18 2.037693 1_555
Co3 O23 2.086523 1_556
Co3 O6 2.102989 1_455
Co3 O26 2.135590 1_556
Co3 O2 2.191433 1_456
O0 V8 1.677954 1_555
O1 V9 1.677951 1_655
O2 V1 1.721069 1_554
O2 V9 2.096966 1_665
O3 V0 1.721070 1_555
O3 V8 2.096965 1_555
O4 V0 1.742322 1_555
O4 V9 2.061684 1_655
O5 V1 1.728946 1_554
O5 V3 2.176880 1_554
O6 V0 1.728946 1_555
O6 V2 2.176880 1_556
O7 V1 1.742322 1_555
O7 V8 2.061684 1_555
O8 V6 1.854511 1_545
O8 V2 1.979521 1_556
O9 V7 1.854526 1_555
O9 V3 1.979519 1_555
O10 V0 1.818656 1_555
O10 V5 2.029360 1_555
O10 V6 2.112973 1_545
O11 V1 1.818656 1_555
O11 V4 2.029360 1_556
O11 V7 2.112966 1_555
O12 V4 1.703886 1_555
O12 V2 1.988952 1_555
O13 V4 1.665668 1_555
O14 V5 1.703886 1_565
O14 V3 1.988952 1_554
O15 V5 1.665668 1_555
O16 V6 1.703877 1_555
O16 V8 1.988952 1_555
O17 V7 1.703881 1_555
O17 V9 1.988952 1_555
O18 V7 1.665670 1_555
O19 V6 1.665667 1_545
O20 V10 1.818648 1_555
O20 V7 2.029360 1_554
O20 V4 2.112966 1_555
O21 V11 1.818650 1_555
O21 V6 2.029360 1_555
O21 V5 2.112973 1_565
O22 V4 1.854508 1_555
O22 V8 1.979521 1_555
O23 V5 1.854505 1_565
O23 V9 1.979527 1_565
O24 V10 1.728945 1_555
O24 V8 2.176881 1_555
O25 V11 1.728951 1_555
O25 V9 2.176872 1_565
O26 V11 1.742322 1_555
O26 V2 2.061684 1_455
O27 V10 1.742322 1_556
O27 V3 2.061684 1_545
O28 V10 1.721069 1_556
O28 V2 2.096966 1_456
O29 V11 1.721069 1_555
O29 V3 2.096971 1_555
O30 V3 1.677954 1_555
O31 V2 1.677953 1_455
