# generated using pymatgen
data_TiTc2Mo
_symmetry_space_group_name_H-M   'P 1'
_cell_length_a   4.38517970
_cell_length_b   4.38517968
_cell_length_c   4.38517975
_cell_angle_alpha   59.99995994
_cell_angle_beta   59.99995978
_cell_angle_gamma   59.99996079
_symmetry_Int_Tables_number   1
_chemical_formula_structural   TiTc2Mo
_chemical_formula_sum   'Ti1 Tc2 Mo1'
_cell_volume   59.62752705
_cell_formula_units_Z   1
loop_
 _symmetry_equiv_pos_site_id
 _symmetry_equiv_pos_as_xyz
  1  'x, y, z'
loop_
 _atom_site_type_symbol
 _atom_site_label
 _atom_site_symmetry_multiplicity
 _atom_site_fract_x
 _atom_site_fract_y
 _atom_site_fract_z
 _atom_site_occupancy
  Ti  Ti0  1  0.75000081  0.75000082  0.75000082  1
  Tc  Tc0  1  -0.00000006  -0.00000007  -0.00000007  1
  Tc  Tc1  1  0.49999923  0.49999923  0.49999922  1
  Mo  Mo0  1  0.25000002  0.25000002  0.25000002  1
loop_
_geom_bond_atom_site_label_1
_geom_bond_atom_site_label_2
_geom_bond_distance
_geom_bond_site_symmetry_2
Tc0 Ti0 2.685355 1_444
Tc0 Ti0 2.685365 1_544
Tc0 Ti0 2.685365 1_454
Tc0 Ti0 2.685365 1_445
Tc1 Ti0 2.685356 1_554
Tc1 Ti0 2.685356 1_545
Tc1 Ti0 2.685356 1_455
Tc1 Ti0 2.685381 1_555
Mo0 Tc1 2.685355 1_555
Mo0 Tc0 2.685362 1_565
Mo0 Tc0 2.685362 1_556
Mo0 Tc0 2.685362 1_655
Mo0 Tc1 2.685365 1_545
Mo0 Tc1 2.685365 1_455
Mo0 Tc1 2.685365 1_554
Mo0 Tc0 2.685365 1_555
Mo0 Ti0 3.100784 1_445
Mo0 Ti0 3.100784 1_544
Mo0 Ti0 3.100784 1_454
Mo0 Ti0 3.100794 1_554
Mo0 Ti0 3.100794 1_545
Mo0 Ti0 3.100794 1_455
