# generated using pymatgen
data_EuMgGe
_symmetry_space_group_name_H-M   'P 1'
_cell_length_a   4.53434880
_cell_length_b   7.63350454
_cell_length_c   8.46055774
_cell_angle_alpha   90.00029168
_cell_angle_beta   90.00000000
_cell_angle_gamma   90.00000000
_symmetry_Int_Tables_number   1
_chemical_formula_structural   EuMgGe
_chemical_formula_sum   'Eu4 Mg4 Ge4'
_cell_volume   292.84504943
_cell_formula_units_Z   4
loop_
 _symmetry_equiv_pos_site_id
 _symmetry_equiv_pos_as_xyz
  1  'x, y, z'
loop_
 _atom_site_type_symbol
 _atom_site_label
 _atom_site_symmetry_multiplicity
 _atom_site_fract_x
 _atom_site_fract_y
 _atom_site_fract_z
 _atom_site_occupancy
  Eu  Eu0  1  0.25000000  0.98213071  0.68265663  1
  Eu  Eu1  1  0.25000000  0.48212725  0.81734571  1
  Eu  Eu2  1  0.75000000  0.51786886  0.18267413  1
  Eu  Eu3  1  0.75000000  0.01787084  0.31732441  1
  Mg  Mg0  1  0.75000000  0.64398056  0.56395942  1
  Mg  Mg1  1  0.75000000  0.14398151  0.93604017  1
  Mg  Mg2  1  0.25000000  0.85602164  0.06397147  1
  Mg  Mg3  1  0.25000000  0.35602226  0.43603035  1
  Ge  Ge0  1  0.75000000  0.27562572  0.61110967  1
  Ge  Ge1  1  0.75000000  0.77562471  0.88889131  1
  Ge  Ge2  1  0.25000000  0.22437505  0.11114916  1
  Ge  Ge3  1  0.25000000  0.72436890  0.38884658  1
loop_
_geom_bond_atom_site_label_1
_geom_bond_atom_site_label_2
_geom_bond_distance
_geom_bond_site_symmetry_2
Eu0 Ge3 3.170282 1_555
Eu0 Ge0 3.244362 1_565
Eu0 Ge0 3.244362 1_465
Eu0 Ge1 3.266431 1_455
Eu0 Ge1 3.266431 1_555
Eu1 Ge2 3.170208 1_556
Eu1 Ge1 3.244369 1_555
Eu1 Ge1 3.244369 1_455
Eu1 Ge0 3.266412 1_555
Eu1 Ge0 3.266412 1_455
Eu2 Ge1 3.170089 1_554
Eu2 Ge2 3.244317 1_555
Eu2 Ge2 3.244317 1_655
Eu2 Ge3 3.266119 1_655
Eu2 Ge3 3.266119 1_555
Eu3 Ge0 3.170085 1_555
Eu3 Ge3 3.244360 1_545
Eu3 Ge3 3.244360 1_645
Eu3 Ge2 3.266156 1_655
Eu3 Ge2 3.266156 1_555
Ge0 Mg3 2.776848 1_555
Ge0 Mg3 2.776848 1_655
Ge0 Mg0 2.839997 1_555
Ge0 Mg1 2.927009 1_555
Ge1 Mg2 2.776849 1_656
Ge1 Mg2 2.776849 1_556
Ge1 Mg1 2.840006 1_565
Ge1 Mg0 2.927010 1_555
Ge2 Mg1 2.776973 1_554
Ge2 Mg1 2.776973 1_454
Ge2 Mg2 2.840015 1_545
Ge2 Mg3 2.926615 1_555
Ge3 Mg0 2.776985 1_555
Ge3 Mg0 2.776985 1_455
Ge3 Mg3 2.839975 1_555
Ge3 Mg2 2.926591 1_555
