# generated using pymatgen
data_Dy2AlZn
_symmetry_space_group_name_H-M   'P 1'
_cell_length_a   5.05256342
_cell_length_b   5.05256342
_cell_length_c   5.05256342
_cell_angle_alpha   60.00000000
_cell_angle_beta   60.00000000
_cell_angle_gamma   60.00000000
_symmetry_Int_Tables_number   1
_chemical_formula_structural   Dy2AlZn
_chemical_formula_sum   'Dy2 Al1 Zn1'
_cell_volume   91.20535202
_cell_formula_units_Z   1
loop_
 _symmetry_equiv_pos_site_id
 _symmetry_equiv_pos_as_xyz
  1  'x, y, z'
loop_
 _atom_site_type_symbol
 _atom_site_label
 _atom_site_symmetry_multiplicity
 _atom_site_fract_x
 _atom_site_fract_y
 _atom_site_fract_z
 _atom_site_occupancy
  Dy  Dy0  1  0.50000000  0.50000000  0.50000000  1
  Dy  Dy1  1  0.00000000  0.00000000  0.00000000  1
  Al  Al0  1  0.25000000  0.25000000  0.25000000  1
  Zn  Zn0  1  0.75000000  0.75000000  0.75000000  1
loop_
_geom_bond_atom_site_label_1
_geom_bond_atom_site_label_2
_geom_bond_distance
_geom_bond_site_symmetry_2
Dy0 Zn0 3.094051 1_555
Dy0 Zn0 3.094051 1_545
Dy0 Zn0 3.094051 1_554
Dy0 Zn0 3.094051 1_455
Dy1 Zn0 3.094051 1_444
Dy1 Zn0 3.094051 1_445
Dy1 Zn0 3.094051 1_544
Dy1 Zn0 3.094051 1_454
Al0 Dy1 3.094051 1_556
Al0 Dy1 3.094051 1_565
Al0 Dy1 3.094051 1_555
Al0 Dy0 3.094051 1_455
Al0 Dy0 3.094051 1_554
Al0 Dy1 3.094051 1_655
Al0 Dy0 3.094051 1_555
Al0 Dy0 3.094051 1_545
