# generated using pymatgen
data_LiAg2F4
_symmetry_space_group_name_H-M   'P 1'
_cell_length_a   8.11436020
_cell_length_b   8.11436020
_cell_length_c   6.17348000
_cell_angle_alpha   90.00000000
_cell_angle_beta   90.00000000
_cell_angle_gamma   90.70834802
_symmetry_Int_Tables_number   1
_chemical_formula_structural   LiAg2F4
_chemical_formula_sum   'Li4 Ag8 F16'
_cell_volume   406.44840119
_cell_formula_units_Z   4
loop_
 _symmetry_equiv_pos_site_id
 _symmetry_equiv_pos_as_xyz
  1  'x, y, z'
loop_
 _atom_site_type_symbol
 _atom_site_label
 _atom_site_symmetry_multiplicity
 _atom_site_fract_x
 _atom_site_fract_y
 _atom_site_fract_z
 _atom_site_occupancy
  Li  Li0  1  0.50000000  0.00000000  0.77922400  1
  Li  Li1  1  0.50000000  0.00000000  0.27922400  1
  Li  Li2  1  0.00000000  0.50000000  0.22077600  1
  Li  Li3  1  0.00000000  0.50000000  0.72077600  1
  Ag  Ag0  1  0.83081000  0.83081000  0.50000000  1
  Ag  Ag1  1  0.15505700  0.84494300  0.00000000  1
  Ag  Ag2  1  0.84494300  0.15505700  0.00000000  1
  Ag  Ag3  1  0.16919000  0.16919000  0.50000000  1
  Ag  Ag4  1  0.65505700  0.34494300  0.50000000  1
  Ag  Ag5  1  0.33081000  0.33081000  0.00000000  1
  Ag  Ag6  1  0.34494300  0.65505700  0.50000000  1
  Ag  Ag7  1  0.66919000  0.66919000  0.00000000  1
  F  F0  1  0.44386600  0.76103200  0.79203900  1
  F  F1  1  0.55269200  0.77066100  0.31724700  1
  F  F2  1  0.72933900  0.94730800  0.81724700  1
  F  F3  1  0.26103200  0.94386600  0.29203900  1
  F  F4  1  0.73896800  0.05613400  0.29203900  1
  F  F5  1  0.27066100  0.05269200  0.81724700  1
  F  F6  1  0.44730800  0.22933900  0.31724700  1
  F  F7  1  0.55613400  0.23896800  0.79203900  1
  F  F8  1  0.94386600  0.26103200  0.70796100  1
  F  F9  1  0.05269200  0.27066100  0.18275300  1
  F  F10  1  0.22933900  0.44730800  0.68275300  1
  F  F11  1  0.76103200  0.44386600  0.20796100  1
  F  F12  1  0.23896800  0.55613400  0.20796100  1
  F  F13  1  0.77066100  0.55269200  0.68275300  1
  F  F14  1  0.94730800  0.72933900  0.18275300  1
  F  F15  1  0.05613400  0.73896800  0.70796100  1
loop_
_geom_bond_atom_site_label_1
_geom_bond_atom_site_label_2
_geom_bond_distance
_geom_bond_site_symmetry_2
Ag0 F2 2.329503 1_555
Ag0 F14 2.329503 1_555
Ag0 F4 2.362250 1_565
Ag0 F15 2.362250 1_655
Ag0 F1 2.564524 1_555
Ag0 F13 2.564524 1_555
Ag1 F3 2.148756 1_555
Ag1 F15 2.148756 1_554
Ag1 F14 2.226091 1_455
Ag1 F5 2.226091 1_564
Ag2 F4 2.148756 1_555
Ag2 F8 2.148756 1_554
Ag2 F9 2.226091 1_655
Ag2 F2 2.226091 1_544
Ag3 F5 2.329503 1_555
Ag3 F9 2.329503 1_555
Ag3 F8 2.362250 1_455
Ag3 F3 2.362250 1_545
Ag3 F6 2.564524 1_555
Ag3 F10 2.564524 1_555
Ag4 F7 2.148756 1_555
Ag4 F11 2.148756 1_555
Ag4 F13 2.226091 1_555
Ag4 F6 2.226091 1_555
Ag5 F10 2.329503 1_554
Ag5 F6 2.329503 1_555
Ag5 F7 2.362250 1_554
Ag5 F12 2.362250 1_555
Ag5 F9 2.564524 1_555
Ag5 F5 2.564524 1_554
Ag6 F12 2.148756 1_555
Ag6 F0 2.148756 1_555
Ag6 F1 2.226091 1_555
Ag6 F10 2.226091 1_555
Ag7 F13 2.329503 1_554
Ag7 F1 2.329503 1_555
Ag7 F0 2.362250 1_554
Ag7 F11 2.362250 1_555
Ag7 F14 2.564524 1_555
Ag7 F2 2.564524 1_554
F0 Li0 1.987937 1_565
F1 Li1 1.928906 1_565
F2 Li0 1.928906 1_565
F3 Li1 1.987937 1_565
F4 Li1 1.987937 1_555
F5 Li0 1.928906 1_555
F6 Li1 1.928906 1_555
F7 Li0 1.987937 1_555
F8 Li3 1.987937 1_655
F9 Li2 1.928906 1_555
F10 Li3 1.928906 1_555
F11 Li2 1.987937 1_655
F12 Li2 1.987937 1_555
F13 Li3 1.928906 1_655
F14 Li2 1.928906 1_655
F15 Li3 1.987937 1_555
