# generated using pymatgen
data_Fe4O7F
_symmetry_space_group_name_H-M   'P 1'
_cell_length_a   7.32983730
_cell_length_b   7.32983730
_cell_length_c   6.44156400
_cell_angle_alpha   90.00000000
_cell_angle_beta   90.00000000
_cell_angle_gamma   131.54122322
_symmetry_Int_Tables_number   1
_chemical_formula_structural   Fe4O7F
_chemical_formula_sum   'Fe8 O14 F2'
_cell_volume   259.03562119
_cell_formula_units_Z   2
loop_
 _symmetry_equiv_pos_site_id
 _symmetry_equiv_pos_as_xyz
  1  'x, y, z'
loop_
 _atom_site_type_symbol
 _atom_site_label
 _atom_site_symmetry_multiplicity
 _atom_site_fract_x
 _atom_site_fract_y
 _atom_site_fract_z
 _atom_site_occupancy
  Fe  Fe0  1  0.36310900  0.12276200  0.75000000  1
  Fe  Fe1  1  0.87723800  0.63689100  0.75000000  1
  Fe  Fe2  1  0.62518800  0.37481200  0.25000000  1
  Fe  Fe3  1  0.11968300  0.88031700  0.25000000  1
  Fe  Fe4  1  0.88031700  0.11968300  0.75000000  1
  Fe  Fe5  1  0.37481200  0.62518800  0.75000000  1
  Fe  Fe6  1  0.12276200  0.36310900  0.25000000  1
  Fe  Fe7  1  0.63689100  0.87723800  0.25000000  1
  O  O0  1  0.02693500  0.97306500  0.75000000  1
  O  O1  1  0.53229700  0.46770300  0.75000000  1
  O  O2  1  0.37923100  0.12717700  0.44320200  1
  O  O3  1  0.87282300  0.62076900  0.44320200  1
  O  O4  1  0.37923100  0.12717700  0.05679800  1
  O  O5  1  0.12717700  0.37923100  0.55679800  1
  O  O6  1  0.62076900  0.87282300  0.55679800  1
  O  O7  1  0.87282300  0.62076900  0.05679800  1
  O  O8  1  0.21832500  0.78167500  0.75000000  1
  O  O9  1  0.97306500  0.02693500  0.25000000  1
  O  O10  1  0.46770300  0.53229700  0.25000000  1
  O  O11  1  0.78167500  0.21832500  0.25000000  1
  O  O12  1  0.12717700  0.37923100  0.94320200  1
  O  O13  1  0.62076900  0.87282300  0.94320200  1
  F  F0  1  0.72328700  0.27671300  0.75000000  1
  F  F1  1  0.27671300  0.72328700  0.25000000  1
loop_
_geom_bond_atom_site_label_1
_geom_bond_atom_site_label_2
_geom_bond_distance
_geom_bond_site_symmetry_2
Fe0 O0 1.920868 1_545
Fe0 O1 1.942132 1_555
Fe0 O8 1.964122 1_545
Fe0 O4 1.978772 1_556
Fe0 O2 1.978772 1_555
Fe1 O0 1.920868 1_655
Fe1 O1 1.942132 1_555
Fe1 O8 1.964122 1_655
Fe1 O7 1.978772 1_556
Fe1 O3 1.978772 1_555
Fe2 O2 1.937399 1_555
Fe2 O4 1.937399 1_555
Fe2 O3 1.937399 1_555
Fe2 O7 1.937399 1_555
Fe2 O11 2.091965 1_555
Fe2 O10 2.105307 1_555
Fe3 O9 1.960033 1_465
Fe3 O7 1.968895 1_455
Fe3 O3 1.968895 1_455
Fe3 O4 1.968895 1_565
Fe3 O2 1.968895 1_565
Fe4 O0 1.960033 1_645
Fe4 O13 1.968895 1_545
Fe4 O6 1.968895 1_545
Fe4 O12 1.968895 1_655
Fe4 O5 1.968895 1_655
Fe5 O5 1.937399 1_555
Fe5 O12 1.937399 1_555
Fe5 O6 1.937399 1_555
Fe5 O13 1.937399 1_555
Fe5 O8 2.091965 1_555
Fe5 O1 2.105307 1_555
Fe6 O9 1.920868 1_455
Fe6 O10 1.942132 1_555
Fe6 O11 1.964122 1_455
Fe6 O5 1.978772 1_555
Fe6 O12 1.978772 1_554
Fe7 O9 1.920868 1_565
Fe7 O10 1.942132 1_555
Fe7 O11 1.964122 1_565
Fe7 O13 1.978772 1_554
Fe7 O6 1.978772 1_555
F0 Fe0 2.071702 1_555
F0 Fe1 2.071702 1_555
F0 Fe4 2.099224 1_555
F1 Fe7 2.071702 1_555
F1 Fe6 2.071702 1_555
F1 Fe3 2.099224 1_555
