# generated using pymatgen
data_Na3Mn5O12
_symmetry_space_group_name_H-M   'P 1'
_cell_length_a   8.64518700
_cell_length_b   5.05814000
_cell_length_c   5.85713311
_cell_angle_alpha   71.79346302
_cell_angle_beta   90.00000000
_cell_angle_gamma   90.00000000
_symmetry_Int_Tables_number   1
_chemical_formula_structural   Na3Mn5O12
_chemical_formula_sum   'Na3 Mn5 O12'
_cell_volume   243.30154424
_cell_formula_units_Z   1
loop_
 _symmetry_equiv_pos_site_id
 _symmetry_equiv_pos_as_xyz
  1  'x, y, z'
loop_
 _atom_site_type_symbol
 _atom_site_label
 _atom_site_symmetry_multiplicity
 _atom_site_fract_x
 _atom_site_fract_y
 _atom_site_fract_z
 _atom_site_occupancy
  Na  Na0  1  0.19388500  0.00000000  0.50000000  1
  Na  Na1  1  0.80611500  0.00000000  0.50000000  1
  Na  Na2  1  0.00000000  0.50000000  0.50000000  1
  Mn  Mn0  1  0.32529300  0.00000000  0.00000000  1
  Mn  Mn1  1  0.67470700  0.00000000  0.00000000  1
  Mn  Mn2  1  0.16084800  0.50000000  0.00000000  1
  Mn  Mn3  1  0.83915200  0.50000000  0.00000000  1
  Mn  Mn4  1  0.50000000  0.50000000  0.00000000  1
  O  O0  1  0.33218400  0.73259300  0.82150000  1
  O  O1  1  0.00000000  0.70116200  0.79870100  1
  O  O2  1  0.18277900  0.74797900  0.19204100  1
  O  O3  1  0.66781600  0.73259300  0.82150000  1
  O  O4  1  0.33218400  0.26740700  0.17850000  1
  O  O5  1  0.81722100  0.74797900  0.19204100  1
  O  O6  1  0.18277900  0.25202100  0.80795900  1
  O  O7  1  0.50000000  0.76955700  0.17142800  1
  O  O8  1  0.81722100  0.25202100  0.80795900  1
  O  O9  1  0.00000000  0.29883800  0.20129900  1
  O  O10  1  0.50000000  0.23044300  0.82857200  1
  O  O11  1  0.66781600  0.26740700  0.17850000  1
loop_
_geom_bond_atom_site_label_1
_geom_bond_atom_site_label_2
_geom_bond_distance
_geom_bond_site_symmetry_2
Na0 O4 2.283275 1_555
Na0 O0 2.283275 1_545
Na0 O6 2.514875 1_555
Na0 O2 2.514875 1_545
Na0 O9 2.550041 1_555
Na0 O1 2.550041 1_545
Na1 O11 2.283275 1_555
Na1 O3 2.283275 1_545
Na1 O8 2.514875 1_555
Na1 O5 2.514875 1_545
Na1 O9 2.550041 1_655
Na1 O1 2.550041 1_645
Na2 O9 2.282230 1_555
Na2 O1 2.282230 1_555
Na2 O2 2.431039 1_555
Na2 O6 2.431039 1_555
Na2 O5 2.431039 1_455
Na2 O8 2.431039 1_455
Mn0 O6 1.874080 1_554
Mn0 O2 1.874080 1_545
Mn0 O0 1.951861 1_544
Mn0 O4 1.951861 1_555
Mn0 O10 1.979068 1_554
Mn0 O7 1.979068 1_545
Mn1 O8 1.874080 1_554
Mn1 O5 1.874080 1_545
Mn1 O3 1.951861 1_544
Mn1 O11 1.951861 1_555
Mn1 O7 1.979068 1_545
Mn1 O10 1.979068 1_554
Mn2 O1 1.899853 1_554
Mn2 O9 1.899853 1_555
Mn2 O2 1.938059 1_555
Mn2 O6 1.938059 1_554
Mn2 O0 1.975504 1_554
Mn2 O4 1.975504 1_555
Mn3 O1 1.899853 1_654
Mn3 O9 1.899853 1_655
Mn3 O5 1.938059 1_555
Mn3 O8 1.938059 1_554
Mn3 O11 1.975504 1_555
Mn3 O3 1.975504 1_554
Mn4 O10 1.929421 1_554
Mn4 O7 1.929421 1_555
Mn4 O3 1.952791 1_554
Mn4 O11 1.952791 1_555
Mn4 O0 1.952791 1_554
Mn4 O4 1.952791 1_555
