# generated using pymatgen
data_NdMgAg2
_symmetry_space_group_name_H-M   'P 1'
_cell_length_a   5.02656962
_cell_length_b   5.02656957
_cell_length_c   5.02656960
_cell_angle_alpha   59.99935540
_cell_angle_beta   59.99935526
_cell_angle_gamma   59.99935517
_symmetry_Int_Tables_number   1
_chemical_formula_structural   NdMgAg2
_chemical_formula_sum   'Nd1 Mg1 Ag2'
_cell_volume   89.80360154
_cell_formula_units_Z   1
loop_
 _symmetry_equiv_pos_site_id
 _symmetry_equiv_pos_as_xyz
  1  'x, y, z'
loop_
 _atom_site_type_symbol
 _atom_site_label
 _atom_site_symmetry_multiplicity
 _atom_site_fract_x
 _atom_site_fract_y
 _atom_site_fract_z
 _atom_site_occupancy
  Nd  Nd0  1  0.75000072  0.75000073  0.75000073  1
  Mg  Mg0  1  0.25000003  0.25000003  0.25000003  1
  Ag  Ag0  1  0.49999936  0.49999936  0.49999936  1
  Ag  Ag1  1  -0.00000011  -0.00000012  -0.00000012  1
loop_
_geom_bond_atom_site_label_1
_geom_bond_atom_site_label_2
_geom_bond_distance
_geom_bond_site_symmetry_2
Ag0 Nd0 3.078102 1_545
Ag0 Nd0 3.078102 1_554
Ag0 Nd0 3.078102 1_455
Ag0 Mg0 3.078110 1_565
Ag0 Mg0 3.078110 1_556
Ag0 Mg0 3.078110 1_655
Ag0 Mg0 3.078139 1_555
Ag0 Nd0 3.078164 1_555
Ag1 Mg0 3.078107 1_545
Ag1 Mg0 3.078107 1_554
Ag1 Mg0 3.078107 1_455
Ag1 Nd0 3.078111 1_544
Ag1 Nd0 3.078111 1_454
Ag1 Nd0 3.078111 1_445
Ag1 Nd0 3.078137 1_444
Ag1 Mg0 3.078149 1_555
