# generated using pymatgen
data_BeCo2Si
_symmetry_space_group_name_H-M   'P 1'
_cell_length_a   3.75197646
_cell_length_b   3.75197646
_cell_length_c   3.75197646
_cell_angle_alpha   60.00000000
_cell_angle_beta   60.00000000
_cell_angle_gamma   60.00000000
_symmetry_Int_Tables_number   1
_chemical_formula_structural   BeCo2Si
_chemical_formula_sum   'Be1 Co2 Si1'
_cell_volume   37.34782525
_cell_formula_units_Z   1
loop_
 _symmetry_equiv_pos_site_id
 _symmetry_equiv_pos_as_xyz
  1  'x, y, z'
loop_
 _atom_site_type_symbol
 _atom_site_label
 _atom_site_symmetry_multiplicity
 _atom_site_fract_x
 _atom_site_fract_y
 _atom_site_fract_z
 _atom_site_occupancy
  Be  Be0  1  0.25000100  0.25000100  0.25000100  1
  Co  Co0  1  0.50000000  0.50000000  0.50000000  1
  Co  Co1  1  0.00000000  0.00000000  0.00000000  1
  Si  Si0  1  0.75000100  0.75000100  0.75000100  1
loop_
_geom_bond_atom_site_label_1
_geom_bond_atom_site_label_2
_geom_bond_distance
_geom_bond_site_symmetry_2
Be0 Co0 2.297598 1_555
Be0 Co1 2.297604 1_655
Be0 Co1 2.297604 1_556
Be0 Co1 2.297604 1_565
Be0 Co0 2.297610 1_545
Be0 Co0 2.297610 1_554
Be0 Co0 2.297610 1_455
Be0 Co1 2.297616 1_555
Be0 Si0 2.653048 1_445
Be0 Si0 2.653048 1_544
Be0 Si0 2.653048 1_454
Be0 Si0 2.653048 1_545
Be0 Si0 2.653048 1_455
Be0 Si0 2.653048 1_554
Co0 Si0 2.297604 1_455
Co0 Si0 2.297604 1_554
Co0 Si0 2.297604 1_545
Co0 Si0 2.297616 1_555
Co1 Si0 2.297598 1_444
Co1 Si0 2.297610 1_445
Co1 Si0 2.297610 1_454
Co1 Si0 2.297610 1_544
