# generated using pymatgen
data_Rb4Sb2O5
_symmetry_space_group_name_H-M   'P 1'
_cell_length_a   6.58300215
_cell_length_b   8.16970377
_cell_length_c   19.08580452
_cell_angle_alpha   90.00000000
_cell_angle_beta   90.00000000
_cell_angle_gamma   90.00000000
_symmetry_Int_Tables_number   1
_chemical_formula_structural   Rb4Sb2O5
_chemical_formula_sum   'Rb16 Sb8 O20'
_cell_volume   1026.45704029
_cell_formula_units_Z   4
loop_
 _symmetry_equiv_pos_site_id
 _symmetry_equiv_pos_as_xyz
  1  'x, y, z'
loop_
 _atom_site_type_symbol
 _atom_site_label
 _atom_site_symmetry_multiplicity
 _atom_site_fract_x
 _atom_site_fract_y
 _atom_site_fract_z
 _atom_site_occupancy
  Rb  Rb0  1  0.25000000  0.62469281  0.84350032  1
  Rb  Rb1  1  0.25000000  0.62550447  0.51162700  1
  Rb  Rb2  1  0.75000000  0.62444573  0.98773804  1
  Rb  Rb3  1  0.75000000  0.62525004  0.65630006  1
  Rb  Rb4  1  0.25000000  0.87449553  0.01162700  1
  Rb  Rb5  1  0.25000000  0.87530719  0.34350032  1
  Rb  Rb6  1  0.75000000  0.87474996  0.15630006  1
  Rb  Rb7  1  0.75000000  0.87555427  0.48773804  1
  Rb  Rb8  1  0.75000000  0.12469281  0.65649968  1
  Rb  Rb9  1  0.25000000  0.12525004  0.84369994  1
  Rb  Rb10  1  0.75000000  0.12550447  0.98837300  1
  Rb  Rb11  1  0.25000000  0.12444573  0.51226196  1
  Rb  Rb12  1  0.25000000  0.37474996  0.34369994  1
  Rb  Rb13  1  0.75000000  0.37449553  0.48837300  1
  Rb  Rb14  1  0.25000000  0.37555427  0.01226196  1
  Rb  Rb15  1  0.75000000  0.37530719  0.15649968  1
  Sb  Sb0  1  0.25000000  0.61595279  0.16537973  1
  Sb  Sb1  1  0.75000000  0.63404049  0.33491025  1
  Sb  Sb2  1  0.75000000  0.86595951  0.83491025  1
  Sb  Sb3  1  0.25000000  0.88404721  0.66537973  1
  Sb  Sb4  1  0.75000000  0.11595279  0.33462027  1
  Sb  Sb5  1  0.25000000  0.13404049  0.16508975  1
  Sb  Sb6  1  0.25000000  0.36595951  0.66508975  1
  Sb  Sb7  1  0.75000000  0.38404721  0.83462027  1
  O  O0  1  0.52853325  0.62669322  0.40038464  1
  O  O1  1  0.02866642  0.62361755  0.09989335  1
  O  O2  1  0.75000000  0.62513990  0.81065018  1
  O  O3  1  0.47133358  0.62361755  0.09989335  1
  O  O4  1  0.97146675  0.62669322  0.40038464  1
  O  O5  1  0.52853325  0.87330678  0.90038464  1
  O  O6  1  0.75000000  0.87486010  0.31065018  1
  O  O7  1  0.47133358  0.87638245  0.59989335  1
  O  O8  1  0.02866642  0.87638245  0.59989335  1
  O  O9  1  0.97146675  0.87330678  0.90038464  1
  O  O10  1  0.02853325  0.12669322  0.09961536  1
  O  O11  1  0.47146675  0.12669322  0.09961536  1
  O  O12  1  0.97133358  0.12361755  0.40010665  1
  O  O13  1  0.52866642  0.12361755  0.40010665  1
  O  O14  1  0.25000000  0.12513990  0.68934982  1
  O  O15  1  0.02853325  0.37330678  0.59961536  1
  O  O16  1  0.47146675  0.37330678  0.59961536  1
  O  O17  1  0.52866642  0.37638245  0.90010665  1
  O  O18  1  0.97133358  0.37638245  0.90010665  1
  O  O19  1  0.25000000  0.37486010  0.18934982  1
loop_
_geom_bond_atom_site_label_1
_geom_bond_atom_site_label_2
_geom_bond_distance
_geom_bond_site_symmetry_2
Rb0 Sb3 4.005824 1_555
Rb0 Sb6 4.007844 1_555
Rb5 Sb0 4.005824 1_555
Rb5 Sb5 4.007844 1_565
Rb8 Sb7 4.005824 1_555
Rb8 Sb2 4.007844 1_545
Rb15 Sb4 4.005824 1_555
Rb15 Sb1 4.007844 1_555
O0 Sb1 1.921120 1_555
O0 Rb1 2.805333 1_555
O0 Rb5 2.943827 1_555
O0 Rb12 2.961265 1_555
O0 Rb7 3.006441 1_555
O0 Rb13 3.031638 1_555
O1 Sb0 1.920686 1_555
O1 Rb2 2.819105 1_454
O1 Rb15 2.940709 1_455
O1 Rb6 2.955271 1_455
O1 Rb14 3.004562 1_555
O1 Rb4 3.026848 1_555
O2 Sb2 2.021176 1_555
O2 Sb7 2.022088 1_555
O2 Rb3 2.945896 1_555
O2 Rb0 3.350684 1_655
O2 Rb0 3.350684 1_555
O3 Sb0 1.920686 1_555
O3 Rb2 2.819105 1_554
O3 Rb15 2.940709 1_555
O3 Rb6 2.955271 1_555
O3 Rb14 3.004562 1_555
O3 Rb4 3.026848 1_555
O4 Sb1 1.921120 1_555
O4 Rb1 2.805333 1_655
O4 Rb5 2.943827 1_655
O4 Rb12 2.961265 1_655
O4 Rb7 3.006441 1_555
O4 Rb13 3.031638 1_555
O5 Sb2 1.921120 1_555
O5 Rb4 2.805333 1_556
O5 Rb0 2.943827 1_555
O5 Rb9 2.961265 1_565
O5 Rb2 3.006441 1_555
O5 Rb10 3.031638 1_565
O6 Sb1 2.021176 1_555
O6 Sb4 2.022088 1_565
O6 Rb6 2.945896 1_555
O6 Rb5 3.350684 1_655
O6 Rb5 3.350684 1_555
O7 Sb3 1.920686 1_555
O7 Rb7 2.819105 1_555
O7 Rb8 2.940709 1_565
O7 Rb3 2.955271 1_555
O7 Rb11 3.004562 1_565
O7 Rb1 3.026848 1_555
O8 Sb3 1.920686 1_555
O8 Rb7 2.819105 1_455
O8 Rb8 2.940709 1_465
O8 Rb3 2.955271 1_455
O8 Rb11 3.004562 1_565
O8 Rb1 3.026848 1_555
O9 Sb2 1.921120 1_555
O9 Rb4 2.805333 1_656
O9 Rb0 2.943827 1_655
O9 Rb9 2.961265 1_665
O9 Rb2 3.006441 1_555
O9 Rb10 3.031638 1_565
O10 Sb5 1.921120 1_555
O10 Rb10 2.805333 1_454
O10 Rb15 2.943827 1_455
O10 Rb6 2.961265 1_445
O10 Rb14 3.006441 1_555
O10 Rb4 3.031638 1_545
O11 Sb5 1.921120 1_555
O11 Rb10 2.805333 1_554
O11 Rb15 2.943827 1_555
O11 Rb6 2.961265 1_545
O11 Rb14 3.006441 1_555
O11 Rb4 3.031638 1_545
O12 Sb4 1.920686 1_555
O12 Rb11 2.819105 1_655
O12 Rb5 2.940709 1_645
O12 Rb12 2.955271 1_655
O12 Rb7 3.004562 1_545
O12 Rb13 3.026848 1_555
O13 Sb4 1.920686 1_555
O13 Rb11 2.819105 1_555
O13 Rb5 2.940709 1_545
O13 Rb12 2.955271 1_555
O13 Rb7 3.004562 1_545
O13 Rb13 3.026848 1_555
O14 Sb6 2.021176 1_555
O14 Sb3 2.022088 1_545
O14 Rb9 2.945896 1_555
O14 Rb8 3.350684 1_455
O14 Rb8 3.350684 1_555
O15 Sb6 1.921120 1_555
O15 Rb13 2.805333 1_455
O15 Rb8 2.943827 1_455
O15 Rb3 2.961265 1_455
O15 Rb11 3.006441 1_555
O15 Rb1 3.031638 1_555
O16 Sb6 1.921120 1_555
O16 Rb13 2.805333 1_555
O16 Rb8 2.943827 1_555
O16 Rb3 2.961265 1_555
O16 Rb11 3.006441 1_555
O16 Rb1 3.031638 1_555
O17 Sb7 1.920686 1_555
O17 Rb14 2.819105 1_556
O17 Rb0 2.940709 1_555
O17 Rb9 2.955271 1_555
O17 Rb2 3.004562 1_555
O17 Rb10 3.026848 1_555
O18 Sb7 1.920686 1_555
O18 Rb14 2.819105 1_656
O18 Rb0 2.940709 1_655
O18 Rb9 2.955271 1_655
O18 Rb2 3.004562 1_555
O18 Rb10 3.026848 1_555
O19 Sb5 2.021176 1_555
O19 Sb0 2.022088 1_555
O19 Rb12 2.945896 1_555
O19 Rb15 3.350684 1_555
O19 Rb15 3.350684 1_455
