# generated using pymatgen
data_Lu2TcAg
_symmetry_space_group_name_H-M   'P 1'
_cell_length_a   4.87758015
_cell_length_b   4.87758015
_cell_length_c   4.87758015
_cell_angle_alpha   60.00000000
_cell_angle_beta   60.00000000
_cell_angle_gamma   60.00000000
_symmetry_Int_Tables_number   1
_chemical_formula_structural   Lu2TcAg
_chemical_formula_sum   'Lu2 Tc1 Ag1'
_cell_volume   82.05371451
_cell_formula_units_Z   1
loop_
 _symmetry_equiv_pos_site_id
 _symmetry_equiv_pos_as_xyz
  1  'x, y, z'
loop_
 _atom_site_type_symbol
 _atom_site_label
 _atom_site_symmetry_multiplicity
 _atom_site_fract_x
 _atom_site_fract_y
 _atom_site_fract_z
 _atom_site_occupancy
  Lu  Lu0  1  0.75000000  0.75000000  0.75000000  1
  Lu  Lu1  1  0.25000000  0.25000000  0.25000000  1
  Tc  Tc0  1  0.00000000  0.00000000  0.00000000  1
  Ag  Ag0  1  0.50000000  0.50000000  0.50000000  1
loop_
_geom_bond_atom_site_label_1
_geom_bond_atom_site_label_2
_geom_bond_distance
_geom_bond_site_symmetry_2
Lu0 Tc0 2.986896 1_665
Lu0 Tc0 2.986896 1_666
Lu0 Tc0 2.986896 1_656
Lu0 Tc0 2.986896 1_566
Lu1 Tc0 2.986896 1_565
Lu1 Tc0 2.986896 1_556
Lu1 Tc0 2.986896 1_555
Lu1 Tc0 2.986896 1_655
Ag0 Lu0 2.986896 1_555
Ag0 Lu0 2.986896 1_545
Ag0 Lu1 2.986896 1_565
Ag0 Lu1 2.986896 1_556
Ag0 Lu1 2.986896 1_555
Ag0 Lu1 2.986896 1_655
Ag0 Lu0 2.986896 1_554
Ag0 Lu0 2.986896 1_455
