# generated using pymatgen
data_SmMgCd2
_symmetry_space_group_name_H-M   'P 1'
_cell_length_a   5.12267851
_cell_length_b   5.12267851
_cell_length_c   5.12267851
_cell_angle_alpha   59.98710645
_cell_angle_beta   59.98710645
_cell_angle_gamma   59.98710645
_symmetry_Int_Tables_number   1
_chemical_formula_structural   SmMgCd2
_chemical_formula_sum   'Sm1 Mg1 Cd2'
_cell_volume   95.02750370
_cell_formula_units_Z   1
loop_
 _symmetry_equiv_pos_site_id
 _symmetry_equiv_pos_as_xyz
  1  'x, y, z'
loop_
 _atom_site_type_symbol
 _atom_site_label
 _atom_site_symmetry_multiplicity
 _atom_site_fract_x
 _atom_site_fract_y
 _atom_site_fract_z
 _atom_site_occupancy
  Sm  Sm0  1  0.74999900  0.74999900  0.74999900  1
  Mg  Mg0  1  0.25000000  0.25000000  0.25000000  1
  Cd  Cd0  1  0.99996474  0.99996474  0.99996474  1
  Cd  Cd1  1  0.50003626  0.50003626  0.50003626  1
loop_
_geom_bond_atom_site_label_1
_geom_bond_atom_site_label_2
_geom_bond_distance
_geom_bond_site_symmetry_2
Cd0 Mg0 3.136330 1_566
Cd0 Mg0 3.136330 1_665
Cd0 Mg0 3.136330 1_656
Cd0 Sm0 3.136621 1_655
Cd0 Sm0 3.136621 1_565
Cd0 Sm0 3.136621 1_556
Cd0 Sm0 3.136863 1_555
Cd0 Mg0 3.137735 1_666
Cd1 Mg0 3.136326 1_565
Cd1 Mg0 3.136326 1_556
Cd1 Mg0 3.136326 1_655
Cd1 Sm0 3.136634 1_545
Cd1 Sm0 3.136634 1_554
Cd1 Sm0 3.136634 1_455
Cd1 Sm0 3.136825 1_555
Cd1 Mg0 3.137748 1_555
