# generated using pymatgen
data_K8Zr6BBr20
_symmetry_space_group_name_H-M   'P 1'
_cell_length_a   11.68309401
_cell_length_b   11.68309401
_cell_length_c   11.68309401
_cell_angle_alpha   60.00000000
_cell_angle_beta   60.00000000
_cell_angle_gamma   60.00000000
_symmetry_Int_Tables_number   1
_chemical_formula_structural   K8Zr6BBr20
_chemical_formula_sum   'K8 Zr6 B1 Br20'
_cell_volume   1127.60921467
_cell_formula_units_Z   1
loop_
 _symmetry_equiv_pos_site_id
 _symmetry_equiv_pos_as_xyz
  1  'x, y, z'
loop_
 _atom_site_type_symbol
 _atom_site_label
 _atom_site_symmetry_multiplicity
 _atom_site_fract_x
 _atom_site_fract_y
 _atom_site_fract_z
 _atom_site_occupancy
  K  K0  1  0.08090400  0.63969900  0.63969900  1
  K  K1  1  0.63969900  0.08090400  0.63969900  1
  K  K2  1  0.63969900  0.63969900  0.08090400  1
  K  K3  1  0.63969900  0.63969900  0.63969900  1
  K  K4  1  0.36030100  0.91909600  0.36030100  1
  K  K5  1  0.91909600  0.36030100  0.36030100  1
  K  K6  1  0.36030100  0.36030100  0.91909600  1
  K  K7  1  0.36030100  0.36030100  0.36030100  1
  Zr  Zr0  1  0.85902900  0.85902900  0.14097100  1
  Zr  Zr1  1  0.85902900  0.14097100  0.85902900  1
  Zr  Zr2  1  0.14097100  0.14097100  0.85902900  1
  Zr  Zr3  1  0.14097100  0.85902900  0.14097100  1
  Zr  Zr4  1  0.14097100  0.85902900  0.85902900  1
  Zr  Zr5  1  0.85902900  0.14097100  0.14097100  1
  B  B0  1  0.00000000  0.00000000  0.00000000  1
  Br  Br0  1  0.67088800  0.32911200  0.00000000  1
  Br  Br1  1  0.00000000  0.67088800  0.00000000  1
  Br  Br2  1  0.00000000  0.00000000  0.67088800  1
  Br  Br3  1  0.67088800  0.00000000  0.32911200  1
  Br  Br4  1  0.32911200  0.67088800  0.00000000  1
  Br  Br5  1  0.32911200  0.00000000  0.67088800  1
  Br  Br6  1  0.00000000  0.00000000  0.32911200  1
  Br  Br7  1  0.00000000  0.32911200  0.00000000  1
  Br  Br8  1  0.00000000  0.67088800  0.32911200  1
  Br  Br9  1  0.67088800  0.00000000  0.00000000  1
  Br  Br10  1  0.00000000  0.32911200  0.67088800  1
  Br  Br11  1  0.32911200  0.00000000  0.00000000  1
  Br  Br12  1  0.68245900  0.68245900  0.31754100  1
  Br  Br13  1  0.68245900  0.31754100  0.68245900  1
  Br  Br14  1  0.31754100  0.31754100  0.68245900  1
  Br  Br15  1  0.31754100  0.68245900  0.31754100  1
  Br  Br16  1  0.31754100  0.68245900  0.68245900  1
  Br  Br17  1  0.68245900  0.31754100  0.31754100  1
  Br  Br18  1  0.75000000  0.75000000  0.75000000  1
  Br  Br19  1  0.25000000  0.25000000  0.25000000  1
loop_
_geom_bond_atom_site_label_1
_geom_bond_atom_site_label_2
_geom_bond_distance
_geom_bond_site_symmetry_2
B0 Zr0 2.329178 1_445
B0 Zr4 2.329178 1_544
B0 Zr1 2.329178 1_454
B0 Zr5 2.329178 1_455
B0 Zr3 2.329178 1_545
B0 Zr2 2.329178 1_554
Br0 Zr1 2.746642 1_554
Br0 Zr5 2.746642 1_555
Br1 Zr0 2.746642 1_455
Br1 Zr4 2.746642 1_554
Br2 Zr4 2.746642 1_545
Br2 Zr1 2.746642 1_455
Br3 Zr0 2.746642 1_545
Br3 Zr5 2.746642 1_555
Br4 Zr4 2.746642 1_554
Br4 Zr3 2.746642 1_555
Br5 Zr4 2.746642 1_545
Br5 Zr2 2.746642 1_555
Br6 Zr5 2.746642 1_455
Br6 Zr3 2.746642 1_545
Br7 Zr5 2.746642 1_455
Br7 Zr2 2.746642 1_554
Br8 Zr0 2.746642 1_455
Br8 Zr3 2.746642 1_555
Br9 Zr1 2.746642 1_554
Br9 Zr0 2.746642 1_545
Br10 Zr1 2.746642 1_455
Br10 Zr2 2.746642 1_555
Br11 Zr3 2.746642 1_545
Br11 Zr2 2.746642 1_554
Br12 Zr0 2.917358 1_555
Br12 K2 3.339802 1_555
Br12 K4 3.339810 1_555
Br12 K5 3.339810 1_555
Br12 K3 3.339814 1_555
Br13 Zr1 2.917358 1_555
Br13 K1 3.339802 1_555
Br13 K6 3.339810 1_555
Br13 K5 3.339810 1_555
Br13 K3 3.339814 1_555
Br14 Zr2 2.917358 1_555
Br14 K6 3.339802 1_555
Br14 K1 3.339810 1_555
Br14 K0 3.339810 1_555
Br14 K7 3.339814 1_555
Br15 Zr3 2.917358 1_555
Br15 K4 3.339802 1_555
Br15 K2 3.339810 1_555
Br15 K0 3.339810 1_555
Br15 K7 3.339814 1_555
Br16 Zr4 2.917358 1_555
Br16 K0 3.339802 1_555
Br16 K6 3.339810 1_555
Br16 K4 3.339810 1_555
Br16 K3 3.339814 1_555
Br17 Zr5 2.917358 1_555
Br17 K5 3.339802 1_555
Br17 K1 3.339810 1_555
Br17 K2 3.339810 1_555
Br17 K7 3.339814 1_555
Br18 K3 3.156552 1_555
Br18 K0 3.156562 1_655
Br18 K2 3.156562 1_556
Br18 K1 3.156562 1_565
Br19 K7 3.156552 1_555
Br19 K6 3.156562 1_554
Br19 K4 3.156562 1_545
Br19 K5 3.156562 1_455
