# generated using pymatgen
data_KSc(BH4)4
_symmetry_space_group_name_H-M   'P 1'
_cell_length_a   8.30527300
_cell_length_b   9.27154100
_cell_length_c   12.35313300
_cell_angle_alpha   90.00000000
_cell_angle_beta   90.00000000
_cell_angle_gamma   90.00000000
_symmetry_Int_Tables_number   1
_chemical_formula_structural   KSc(BH4)4
_chemical_formula_sum   'K4 Sc4 B16 H64'
_cell_volume   951.22433672
_cell_formula_units_Z   4
loop_
 _symmetry_equiv_pos_site_id
 _symmetry_equiv_pos_as_xyz
  1  'x, y, z'
loop_
 _atom_site_type_symbol
 _atom_site_label
 _atom_site_symmetry_multiplicity
 _atom_site_fract_x
 _atom_site_fract_y
 _atom_site_fract_z
 _atom_site_occupancy
  K  K0  1  0.25000000  0.63703600  0.11074500  1
  K  K1  1  0.75000000  0.13703600  0.38925500  1
  K  K2  1  0.25000000  0.86296400  0.61074500  1
  K  K3  1  0.75000000  0.36296400  0.88925500  1
  Sc  Sc0  1  0.25000000  0.17154400  0.05514300  1
  Sc  Sc1  1  0.75000000  0.67154400  0.44485700  1
  Sc  Sc2  1  0.25000000  0.32845600  0.55514300  1
  Sc  Sc3  1  0.75000000  0.82845600  0.94485700  1
  B  B0  1  0.25000000  0.98169100  0.17752100  1
  B  B1  1  0.75000000  0.48169100  0.32247900  1
  B  B2  1  0.25000000  0.51830900  0.67752100  1
  B  B3  1  0.75000000  0.01830900  0.82247900  1
  B  B4  1  0.25000000  0.42002600  0.38207500  1
  B  B5  1  0.75000000  0.92002600  0.11792500  1
  B  B6  1  0.25000000  0.07997400  0.88207500  1
  B  B7  1  0.75000000  0.57997400  0.61792500  1
  B  B8  1  0.02129500  0.31716000  0.07888900  1
  B  B9  1  0.97870500  0.81716000  0.42111100  1
  B  B10  1  0.47870500  0.18284000  0.57888900  1
  B  B11  1  0.52129500  0.68284000  0.92111100  1
  B  B12  1  0.97870500  0.68284000  0.92111100  1
  B  B13  1  0.02129500  0.18284000  0.57888900  1
  B  B14  1  0.52129500  0.81716000  0.42111100  1
  B  B15  1  0.47870500  0.31716000  0.07888900  1
  H  H0  1  0.97964900  0.19383900  0.05352700  1
  H  H1  1  0.02035100  0.69383900  0.44647300  1
  H  H2  1  0.52035100  0.30616100  0.55352700  1
  H  H3  1  0.47964900  0.80616100  0.94647300  1
  H  H4  1  0.02035100  0.80616100  0.94647300  1
  H  H5  1  0.97964900  0.30616100  0.55352700  1
  H  H6  1  0.47964900  0.69383900  0.44647300  1
  H  H7  1  0.52035100  0.19383900  0.05352700  1
  H  H8  1  0.10021500  0.30778200  0.16332200  1
  H  H9  1  0.89978500  0.80778200  0.33667800  1
  H  H10  1  0.39978500  0.19221800  0.66332200  1
  H  H11  1  0.60021500  0.69221800  0.83667800  1
  H  H12  1  0.89978500  0.69221800  0.83667800  1
  H  H13  1  0.10021500  0.19221800  0.66332200  1
  H  H14  1  0.60021500  0.80778200  0.33667800  1
  H  H15  1  0.39978500  0.30778200  0.16332200  1
  H  H16  1  0.25000000  0.87917100  0.23735900  1
  H  H17  1  0.75000000  0.37917100  0.26264100  1
  H  H18  1  0.25000000  0.62082900  0.73735900  1
  H  H19  1  0.75000000  0.12082900  0.76264100  1
  H  H20  1  0.37004700  0.98321700  0.11792100  1
  H  H21  1  0.62995300  0.48321700  0.38207900  1
  H  H22  1  0.12995300  0.51678300  0.61792100  1
  H  H23  1  0.87004700  0.01678300  0.88207900  1
  H  H24  1  0.62995300  0.01678300  0.88207900  1
  H  H25  1  0.37004700  0.51678300  0.61792100  1
  H  H26  1  0.87004700  0.48321700  0.38207900  1
  H  H27  1  0.12995300  0.98321700  0.11792100  1
  H  H28  1  0.25000000  0.09637000  0.22831900  1
  H  H29  1  0.75000000  0.59637000  0.27168100  1
  H  H30  1  0.25000000  0.40363000  0.72831900  1
  H  H31  1  0.75000000  0.90363000  0.77168100  1
  H  H32  1  0.36942200  0.45580100  0.43571000  1
  H  H33  1  0.63057800  0.95580100  0.06429000  1
  H  H34  1  0.13057800  0.04419900  0.93571000  1
  H  H35  1  0.86942200  0.54419900  0.56429000  1
  H  H36  1  0.63057800  0.54419900  0.56429000  1
  H  H37  1  0.36942200  0.04419900  0.93571000  1
  H  H38  1  0.86942200  0.95580100  0.06429000  1
  H  H39  1  0.13057800  0.45580100  0.43571000  1
  H  H40  1  0.90768000  0.39685900  0.09102200  1
  H  H41  1  0.09232000  0.89685900  0.40897800  1
  H  H42  1  0.59232000  0.10314100  0.59102200  1
  H  H43  1  0.40768000  0.60314100  0.90897800  1
  H  H44  1  0.09232000  0.60314100  0.90897800  1
  H  H45  1  0.90768000  0.10314100  0.59102200  1
  H  H46  1  0.40768000  0.89685900  0.40897800  1
  H  H47  1  0.59232000  0.39685900  0.09102200  1
  H  H48  1  0.25000000  0.28633900  0.37872200  1
  H  H49  1  0.75000000  0.78633900  0.12127800  1
  H  H50  1  0.25000000  0.21366100  0.87872200  1
  H  H51  1  0.75000000  0.71366100  0.62127800  1
  H  H52  1  0.25000000  0.47425100  0.29399100  1
  H  H53  1  0.75000000  0.97425100  0.20600900  1
  H  H54  1  0.25000000  0.02574900  0.79399100  1
  H  H55  1  0.75000000  0.52574900  0.70600900  1
  H  H56  1  0.11198100  0.36134400  0.00657400  1
  H  H57  1  0.88801900  0.86134400  0.49342600  1
  H  H58  1  0.38801900  0.13865600  0.50657400  1
  H  H59  1  0.61198100  0.63865600  0.99342600  1
  H  H60  1  0.88801900  0.63865600  0.99342600  1
  H  H61  1  0.11198100  0.13865600  0.50657400  1
  H  H62  1  0.61198100  0.86134400  0.49342600  1
  H  H63  1  0.38801900  0.36134400  0.00657400  1
loop_
_geom_bond_atom_site_label_1
_geom_bond_atom_site_label_2
_geom_bond_distance
_geom_bond_site_symmetry_2
B0 H16 1.204111 1_555
B0 H28 1.234616 1_565
B0 H27 1.239482 1_555
B0 H20 1.239482 1_555
B1 H17 1.204111 1_555
B1 H29 1.234616 1_555
B1 H26 1.239482 1_555
B1 H21 1.239482 1_555
B2 H18 1.204111 1_555
B2 H30 1.234616 1_555
B2 H22 1.239482 1_555
B2 H25 1.239482 1_555
B3 H19 1.204111 1_555
B3 H31 1.234616 1_545
B3 H23 1.239482 1_555
B3 H24 1.239482 1_555
B4 H52 1.198644 1_555
B4 H39 1.238037 1_555
B4 H32 1.238037 1_555
B4 H48 1.240176 1_555
B5 H53 1.198644 1_555
B5 H38 1.238037 1_555
B5 H33 1.238037 1_555
B5 H49 1.240176 1_555
B6 H54 1.198644 1_555
B6 H34 1.238037 1_555
B6 H37 1.238037 1_555
B6 H50 1.240176 1_555
B7 H55 1.198644 1_555
B7 H36 1.238037 1_555
B7 H35 1.238037 1_555
B7 H51 1.240176 1_555
B8 H40 1.207838 1_455
B8 H8 1.234930 1_555
B8 H0 1.234949 1_455
B8 H56 1.238184 1_555
B9 H41 1.207838 1_655
B9 H9 1.234930 1_555
B9 H1 1.234949 1_655
B9 H57 1.238184 1_555
B10 H42 1.207838 1_555
B10 H10 1.234930 1_555
B10 H2 1.234949 1_555
B10 H58 1.238184 1_555
B11 H43 1.207838 1_555
B11 H11 1.234930 1_555
B11 H3 1.234949 1_555
B11 H59 1.238184 1_555
B12 H44 1.207838 1_655
B12 H12 1.234930 1_555
B12 H4 1.234949 1_655
B12 H60 1.238184 1_555
B13 H45 1.207838 1_455
B13 H13 1.234930 1_555
B13 H5 1.234949 1_455
B13 H61 1.238184 1_555
B14 H46 1.207838 1_555
B14 H14 1.234930 1_555
B14 H6 1.234949 1_555
B14 H62 1.238184 1_555
B15 H47 1.207838 1_555
B15 H15 1.234930 1_555
B15 H7 1.234949 1_555
B15 H63 1.238184 1_555
H0 Sc0 2.254922 1_655
H1 Sc1 2.254922 1_455
H2 Sc2 2.254922 1_555
H3 Sc3 2.254922 1_555
H4 Sc3 2.254922 1_455
H5 Sc2 2.254922 1_655
H6 Sc1 2.254922 1_555
H7 Sc0 2.254922 1_555
H8 Sc0 2.220111 1_555
H9 Sc1 2.220111 1_555
H10 Sc2 2.220111 1_555
H11 Sc3 2.220111 1_555
H12 Sc3 2.220111 1_555
H13 Sc2 2.220111 1_555
H14 Sc1 2.220111 1_555
H15 Sc0 2.220111 1_555
H16 K0 2.736094 1_555
H17 K1 2.736094 1_555
H18 K2 2.736094 1_555
H19 K3 2.736094 1_555
H20 Sc0 2.155055 1_565
H21 Sc1 2.155055 1_555
H22 Sc2 2.155055 1_555
H23 Sc3 2.155055 1_545
H24 Sc3 2.155055 1_545
H25 Sc2 2.155055 1_555
H26 Sc1 2.155055 1_555
H27 Sc0 2.155055 1_565
H28 Sc0 2.249942 1_555
H29 Sc1 2.249942 1_555
H30 Sc2 2.249942 1_555
H31 Sc3 2.249942 1_555
H32 Sc2 2.134120 1_555
H33 Sc3 2.134120 1_554
H34 Sc0 2.134120 1_556
H35 Sc1 2.134120 1_555
H36 Sc1 2.134120 1_555
H37 Sc0 2.134120 1_556
H38 Sc3 2.134120 1_554
H39 Sc2 2.134120 1_555
H40 K3 2.833033 1_554
H41 K2 2.833033 1_555
H42 K1 2.833033 1_555
H43 K0 2.833033 1_556
H44 K0 2.833033 1_556
H45 K1 2.833033 1_555
H46 K2 2.833033 1_555
H47 K3 2.833033 1_554
H48 Sc2 2.214059 1_555
H49 Sc3 2.214059 1_554
H50 Sc0 2.214059 1_556
H51 Sc1 2.214059 1_555
H52 K0 2.720672 1_555
H53 K1 2.720672 1_565
H54 K2 2.720672 1_545
H55 K3 2.720672 1_555
H56 Sc0 2.184176 1_555
H57 Sc1 2.184176 1_555
H58 Sc2 2.184176 1_555
H59 Sc3 2.184176 1_555
H60 Sc3 2.184176 1_555
H61 Sc2 2.184176 1_555
H62 Sc1 2.184176 1_555
H63 Sc0 2.184176 1_555
