# generated using pymatgen
data_Li3VFe3O8
_symmetry_space_group_name_H-M   'P 1'
_cell_length_a   5.91675000
_cell_length_b   5.96064841
_cell_length_c   5.99246839
_cell_angle_alpha   119.60706736
_cell_angle_beta   90.35556785
_cell_angle_gamma   119.47532252
_symmetry_Int_Tables_number   1
_chemical_formula_structural   Li3VFe3O8
_chemical_formula_sum   'Li3 V1 Fe3 O8'
_cell_volume   151.03783911
_cell_formula_units_Z   1
loop_
 _symmetry_equiv_pos_site_id
 _symmetry_equiv_pos_as_xyz
  1  'x, y, z'
loop_
 _atom_site_type_symbol
 _atom_site_label
 _atom_site_symmetry_multiplicity
 _atom_site_fract_x
 _atom_site_fract_y
 _atom_site_fract_z
 _atom_site_occupancy
  Li  Li0  1  0.50000000  0.50000000  0.50000000  1
  Li  Li1  1  0.00000000  0.50000000  0.50000000  1
  Li  Li2  1  0.50000000  0.00000000  0.50000000  1
  V  V0  1  0.00000000  0.00000000  0.00000000  1
  Fe  Fe0  1  0.50000000  0.00000000  0.00000000  1
  Fe  Fe1  1  0.00000000  0.50000000  0.00000000  1
  Fe  Fe2  1  0.50000000  0.50000000  0.00000000  1
  O  O0  1  0.69445900  0.45576300  0.78036000  1
  O  O1  1  0.19942000  0.44364600  0.78464700  1
  O  O2  1  0.69193100  0.96050100  0.78539900  1
  O  O3  1  0.21742600  0.97889100  0.77122200  1
  O  O4  1  0.78257400  0.02110900  0.22877800  1
  O  O5  1  0.30806900  0.03949900  0.21460100  1
  O  O6  1  0.80058000  0.55635400  0.21535300  1
  O  O7  1  0.30554100  0.54423700  0.21964000  1
loop_
_geom_bond_atom_site_label_1
_geom_bond_atom_site_label_2
_geom_bond_distance
_geom_bond_site_symmetry_2
Li0 O5 2.004678 1_555
Li0 O2 2.004678 1_555
Li0 O7 2.219951 1_555
Li0 O0 2.219951 1_555
Li0 O1 2.490219 1_555
Li0 O6 2.490219 1_555
Li1 O3 2.054457 1_555
Li1 O4 2.054457 1_455
Li1 O1 2.312097 1_555
Li1 O6 2.312097 1_455
Li1 O7 2.483261 1_555
Li1 O0 2.483261 1_455
Li2 O0 1.979086 1_555
Li2 O7 1.979086 1_545
Li2 O2 2.215141 1_545
Li2 O5 2.215141 1_555
Li2 O3 2.341257 1_545
Li2 O4 2.341257 1_555
Fe0 O2 1.726522 1_544
Fe0 O5 1.726522 1_555
Fe0 O3 2.069957 1_544
Fe0 O4 2.069957 1_555
Fe0 O6 2.400949 1_555
Fe0 O1 2.400949 1_544
Fe1 O6 1.775115 1_455
Fe1 O1 1.775115 1_554
Fe1 O0 2.056329 1_454
Fe1 O7 2.056329 1_555
Fe1 O5 2.331030 1_565
Fe1 O2 2.331030 1_444
Fe2 O7 1.760711 1_555
Fe2 O0 1.760711 1_554
Fe2 O6 1.973934 1_555
Fe2 O1 1.973934 1_554
Fe2 O3 2.230738 1_544
Fe2 O4 2.230738 1_565
O0 V0 2.346142 1_666
O2 V0 2.069080 1_666
O3 V0 1.887068 1_566
O4 V0 1.887068 1_655
O5 V0 2.069080 1_555
O7 V0 2.346142 1_555
