# generated using pymatgen
data_NdAsPd
_symmetry_space_group_name_H-M   'P 1'
_cell_length_a   4.36153174
_cell_length_b   4.36153198
_cell_length_c   7.83036861
_cell_angle_alpha   90.00000000
_cell_angle_beta   90.00000000
_cell_angle_gamma   119.99999820
_symmetry_Int_Tables_number   1
_chemical_formula_structural   NdAsPd
_chemical_formula_sum   'Nd2 As2 Pd2'
_cell_volume   129.00036659
_cell_formula_units_Z   2
loop_
 _symmetry_equiv_pos_site_id
 _symmetry_equiv_pos_as_xyz
  1  'x, y, z'
loop_
 _atom_site_type_symbol
 _atom_site_label
 _atom_site_symmetry_multiplicity
 _atom_site_fract_x
 _atom_site_fract_y
 _atom_site_fract_z
 _atom_site_occupancy
  Nd  Nd0  1  -0.00000000  -0.00000000  0.50000000  1
  Nd  Nd1  1  -0.00000000  -0.00000000  0.00000000  1
  As  As0  1  0.66666700  0.33333300  0.25000000  1
  As  As1  1  0.33333300  0.66666700  0.75000000  1
  Pd  Pd0  1  0.33333300  0.66666700  0.25000000  1
  Pd  Pd1  1  0.66666700  0.33333300  0.75000000  1
loop_
_geom_bond_atom_site_label_1
_geom_bond_atom_site_label_2
_geom_bond_distance
_geom_bond_site_symmetry_2
Nd0 Pd1 3.189536 1_455
Nd0 Pd0 3.189536 1_545
Nd0 Pd1 3.189539 1_555
Nd0 Pd0 3.189539 1_445
Nd0 Pd1 3.189539 1_445
Nd0 Pd0 3.189539 1_555
Nd1 Pd1 3.189536 1_454
Nd1 Pd0 3.189536 1_545
Nd1 Pd1 3.189539 1_554
Nd1 Pd0 3.189539 1_445
Nd1 Pd1 3.189539 1_444
Nd1 Pd0 3.189539 1_555
As0 Pd0 2.518129 1_655
As0 Pd0 2.518129 1_545
As0 Pd0 2.518137 1_555
As0 Nd0 3.189536 1_655
As0 Nd1 3.189536 1_655
As0 Nd0 3.189539 1_555
As0 Nd1 3.189539 1_555
As0 Nd0 3.189539 1_665
As0 Nd1 3.189539 1_665
As1 Pd1 2.518129 1_455
As1 Pd1 2.518129 1_565
As1 Pd1 2.518137 1_555
As1 Nd1 3.189536 1_566
As1 Nd0 3.189536 1_565
As1 Nd0 3.189539 1_665
As1 Nd1 3.189539 1_666
As1 Nd1 3.189539 1_556
As1 Nd0 3.189539 1_555
