# generated using pymatgen
data_BiTeO4
_symmetry_space_group_name_H-M   'P 1'
_cell_length_a   6.98704510
_cell_length_b   6.98704510
_cell_length_c   10.26436583
_cell_angle_alpha   67.41944773
_cell_angle_beta   67.41944773
_cell_angle_gamma   47.09012579
_symmetry_Int_Tables_number   1
_chemical_formula_structural   BiTeO4
_chemical_formula_sum   'Bi4 Te4 O16'
_cell_volume   333.26860562
_cell_formula_units_Z   4
loop_
 _symmetry_equiv_pos_site_id
 _symmetry_equiv_pos_as_xyz
  1  'x, y, z'
loop_
 _atom_site_type_symbol
 _atom_site_label
 _atom_site_symmetry_multiplicity
 _atom_site_fract_x
 _atom_site_fract_y
 _atom_site_fract_z
 _atom_site_occupancy
  Bi  Bi0  1  0.76975098  0.68120785  0.15680103  1
  Bi  Bi1  1  0.96124791  0.03842125  0.74332577  1
  Bi  Bi2  1  0.03842125  0.96124791  0.24332577  1
  Bi  Bi3  1  0.68120785  0.76975098  0.65680103  1
  Te  Te0  1  0.35094287  0.19162998  0.38442617  1
  Te  Te1  1  0.50880964  0.49328998  0.50349864  1
  Te  Te2  1  0.19162998  0.35094287  0.88442617  1
  Te  Te3  1  0.49328998  0.50880964  0.00349864  1
  O  O0  1  0.14657075  0.65557799  0.11704399  1
  O  O1  1  0.28269877  0.08539326  0.59057910  1
  O  O2  1  0.35283811  0.79418603  0.84246922  1
  O  O3  1  0.72471350  0.48191071  0.58314536  1
  O  O4  1  0.36483644  0.83922560  0.38290854  1
  O  O5  1  0.08539326  0.28269877  0.09057910  1
  O  O6  1  0.48522363  0.30014640  0.91853240  1
  O  O7  1  0.79418603  0.35283811  0.34246922  1
  O  O8  1  0.20961196  0.64339665  0.65542490  1
  O  O9  1  0.48191071  0.72471350  0.08314536  1
  O  O10  1  0.91784071  0.71136904  0.90344690  1
  O  O11  1  0.65557799  0.14657075  0.61704399  1
  O  O12  1  0.30014640  0.48522363  0.41853240  1
  O  O13  1  0.64339665  0.20961196  0.15542490  1
  O  O14  1  0.71136904  0.91784071  0.40344690  1
  O  O15  1  0.83922560  0.36483644  0.88290854  1
loop_
_geom_bond_atom_site_label_1
_geom_bond_atom_site_label_2
_geom_bond_distance
_geom_bond_site_symmetry_2
Bi0 O9 2.206229 1_555
Bi0 O5 2.240350 1_655
Bi0 O7 2.298620 1_555
Bi0 O10 2.384820 1_554
Bi0 O0 2.391552 1_655
Bi0 O4 2.698407 1_555
Bi1 O1 2.348324 1_655
Bi1 O8 2.373050 1_645
Bi1 O10 2.385729 1_545
Bi1 O2 2.424980 1_645
Bi1 O11 2.447180 1_555
Bi1 O3 2.497439 1_555
Bi1 O15 2.627672 1_555
Bi1 O6 2.700097 1_555
Bi2 O5 2.348324 1_565
Bi2 O13 2.373050 1_465
Bi2 O14 2.385729 1_455
Bi2 O7 2.424980 1_465
Bi2 O0 2.447180 1_555
Bi2 O9 2.497439 1_555
Bi2 O4 2.627672 1_555
Bi2 O12 2.700097 1_555
Bi3 O3 2.206229 1_555
Bi3 O1 2.240350 1_565
Bi3 O2 2.298620 1_555
Bi3 O14 2.384820 1_555
Bi3 O11 2.391552 1_565
Bi3 O15 2.698407 1_555
O0 Te3 1.909294 1_555
O1 Te0 1.938244 1_555
O2 Te3 1.928984 1_556
O3 Te1 1.919424 1_555
O4 Te1 1.932355 1_555
O4 Te0 2.403171 1_565
O5 Te2 1.938244 1_554
O6 Te2 1.980216 1_555
O6 Te3 2.003864 1_556
O7 Te1 1.928984 1_555
O8 Te1 1.915447 1_555
O8 Te2 2.480022 1_555
O9 Te3 1.919424 1_555
O10 Te2 1.889533 1_655
O11 Te1 1.909294 1_555
O12 Te0 1.980216 1_555
O12 Te1 2.003864 1_555
O13 Te3 1.915447 1_555
O13 Te0 2.480022 1_555
O14 Te0 1.889533 1_565
O15 Te3 1.932355 1_556
O15 Te2 2.403171 1_655
