# generated using pymatgen
data_Al2CoIr
_symmetry_space_group_name_H-M   'P 1'
_cell_length_a   4.14087319
_cell_length_b   4.14087319
_cell_length_c   4.14087319
_cell_angle_alpha   59.99996577
_cell_angle_beta   59.99998859
_cell_angle_gamma   59.99997718
_symmetry_Int_Tables_number   1
_chemical_formula_structural   Al2CoIr
_chemical_formula_sum   'Al2 Co1 Ir1'
_cell_volume   50.20657217
_cell_formula_units_Z   1
loop_
 _symmetry_equiv_pos_site_id
 _symmetry_equiv_pos_as_xyz
  1  'x, y, z'
loop_
 _atom_site_type_symbol
 _atom_site_label
 _atom_site_symmetry_multiplicity
 _atom_site_fract_x
 _atom_site_fract_y
 _atom_site_fract_z
 _atom_site_occupancy
  Al  Al0  1  0.50000000  0.50000000  0.50000000  1
  Al  Al1  1  0.00000000  -0.00000000  0.00000000  1
  Co  Co0  1  0.24999900  0.24999900  0.24999900  1
  Ir  Ir0  1  0.75000100  0.75000100  0.75000100  1
loop_
_geom_bond_atom_site_label_1
_geom_bond_atom_site_label_2
_geom_bond_distance
_geom_bond_site_symmetry_2
Al0 Co0 2.535752 1_565
Al0 Ir0 2.535752 1_545
Al0 Co0 2.535752 1_556
Al0 Ir0 2.535752 1_554
Al0 Co0 2.535753 1_655
Al0 Ir0 2.535753 1_455
Al0 Ir0 2.535767 1_555
Al0 Co0 2.535767 1_555
Al1 Co0 2.535747 1_555
Al1 Ir0 2.535747 1_444
Al1 Ir0 2.535759 1_454
Al1 Co0 2.535759 1_545
Al1 Ir0 2.535759 1_445
Al1 Co0 2.535759 1_554
Al1 Ir0 2.535760 1_544
Al1 Co0 2.535760 1_455
