# generated using pymatgen
data_CeAsPd
_symmetry_space_group_name_H-M   'P 1'
_cell_length_a   4.38067900
_cell_length_b   4.38067949
_cell_length_c   7.88516567
_cell_angle_alpha   90.00000000
_cell_angle_beta   90.00000000
_cell_angle_gamma   119.99998829
_symmetry_Int_Tables_number   1
_chemical_formula_structural   CeAsPd
_chemical_formula_sum   'Ce2 As2 Pd2'
_cell_volume   131.04619516
_cell_formula_units_Z   2
loop_
 _symmetry_equiv_pos_site_id
 _symmetry_equiv_pos_as_xyz
  1  'x, y, z'
loop_
 _atom_site_type_symbol
 _atom_site_label
 _atom_site_symmetry_multiplicity
 _atom_site_fract_x
 _atom_site_fract_y
 _atom_site_fract_z
 _atom_site_occupancy
  Ce  Ce0  1  0.00000000  0.00000000  0.50000000  1
  Ce  Ce1  1  0.00000000  0.00000000  -0.00000000  1
  As  As0  1  0.66666700  0.33333300  0.24994443  1
  As  As1  1  0.33333300  0.66666700  0.75005557  1
  Pd  Pd0  1  0.33333300  0.66666700  0.25049199  1
  Pd  Pd1  1  0.66666700  0.33333300  0.74950801  1
loop_
_geom_bond_atom_site_label_1
_geom_bond_atom_site_label_2
_geom_bond_distance
_geom_bond_site_symmetry_2
Ce0 Pd1 3.204291 1_455
Ce0 Pd0 3.204291 1_545
Ce0 Pd0 3.204294 1_445
Ce0 Pd1 3.204294 1_555
Ce0 Pd1 3.204294 1_445
Ce0 Pd0 3.204294 1_555
Ce1 Pd1 3.209061 1_454
Ce1 Pd0 3.209061 1_545
Ce1 Pd0 3.209064 1_445
Ce1 Pd1 3.209064 1_554
Ce1 Pd1 3.209064 1_444
Ce1 Pd0 3.209064 1_555
As0 Pd0 2.529188 1_655
As0 Pd0 2.529188 1_545
As0 Pd0 2.529195 1_555
As0 Ce1 3.206405 1_655
As0 Ce1 3.206408 1_555
As0 Ce1 3.206408 1_665
As0 Ce0 3.206944 1_655
As0 Ce0 3.206947 1_555
As0 Ce0 3.206947 1_665
As1 Pd1 2.529188 1_455
As1 Pd1 2.529188 1_565
As1 Pd1 2.529195 1_555
As1 Ce1 3.206405 1_566
As1 Ce1 3.206408 1_666
As1 Ce1 3.206408 1_556
As1 Ce0 3.206944 1_565
As1 Ce0 3.206947 1_665
As1 Ce0 3.206947 1_555
