# generated using pymatgen
data_Li3Mn(NiO3)2
_symmetry_space_group_name_H-M   'P 1'
_cell_length_a   5.12067106
_cell_length_b   5.12067106
_cell_length_c   9.97400618
_cell_angle_alpha   84.89973014
_cell_angle_beta   84.89973014
_cell_angle_gamma   58.54271826
_symmetry_Int_Tables_number   1
_chemical_formula_structural   Li3Mn(NiO3)2
_chemical_formula_sum   'Li6 Mn2 Ni4 O12'
_cell_volume   221.93221652
_cell_formula_units_Z   2
loop_
 _symmetry_equiv_pos_site_id
 _symmetry_equiv_pos_as_xyz
  1  'x, y, z'
loop_
 _atom_site_type_symbol
 _atom_site_label
 _atom_site_symmetry_multiplicity
 _atom_site_fract_x
 _atom_site_fract_y
 _atom_site_fract_z
 _atom_site_occupancy
  Li  Li0  1  0.18631100  0.46889100  0.25533400  1
  Li  Li1  1  0.13457100  0.86542900  0.75000000  1
  Li  Li2  1  0.46889100  0.18631100  0.75533400  1
  Li  Li3  1  0.53110900  0.81368900  0.24466600  1
  Li  Li4  1  0.86542900  0.13457100  0.25000000  1
  Li  Li5  1  0.81368900  0.53110900  0.74466600  1
  Mn  Mn0  1  0.00000000  0.50000000  0.00000000  1
  Mn  Mn1  1  0.50000000  0.00000000  0.50000000  1
  Ni  Ni0  1  0.17110000  0.66329200  0.50029100  1
  Ni  Ni1  1  0.66329200  0.17110000  0.00029100  1
  Ni  Ni2  1  0.33670800  0.82890000  0.99970900  1
  Ni  Ni3  1  0.82890000  0.33670800  0.49970900  1
  O  O0  1  0.99185300  0.80859400  0.10769000  1
  O  O1  1  0.32561700  0.50507800  0.88802700  1
  O  O2  1  0.19140600  0.00814700  0.39231000  1
  O  O3  1  0.50507800  0.32561700  0.38802700  1
  O  O4  1  0.49492200  0.67438300  0.61197300  1
  O  O5  1  0.17493400  0.31010500  0.61051500  1
  O  O6  1  0.80859400  0.99185300  0.60769000  1
  O  O7  1  0.67438300  0.49492200  0.11197300  1
  O  O8  1  0.31010500  0.17493400  0.11051500  1
  O  O9  1  0.00814700  0.19140600  0.89231000  1
  O  O10  1  0.68989500  0.82506600  0.88948500  1
  O  O11  1  0.82506600  0.68989500  0.38948500  1
loop_
_geom_bond_atom_site_label_1
_geom_bond_atom_site_label_2
_geom_bond_distance
_geom_bond_site_symmetry_2
Li0 O3 1.978840 1_555
Li0 O8 1.995461 1_555
Li0 O11 2.033975 1_455
Li0 O0 2.045330 1_455
Li1 O1 2.039827 1_555
Li1 O4 2.039827 1_555
Li1 O6 2.085691 1_455
Li1 O9 2.085691 1_565
Li2 O1 1.978840 1_555
Li2 O5 1.995461 1_555
Li2 O10 2.033975 1_545
Li2 O6 2.045330 1_545
Li3 O7 1.978840 1_555
Li3 O11 1.995461 1_555
Li3 O8 2.033975 1_565
Li3 O2 2.045330 1_565
Li4 O3 2.039827 1_555
Li4 O7 2.039827 1_555
Li4 O0 2.085691 1_545
Li4 O2 2.085691 1_655
Li5 O4 1.978840 1_555
Li5 O10 1.995461 1_555
Li5 O5 2.033975 1_655
Li5 O9 2.045330 1_655
Mn0 O10 1.932232 1_454
Mn0 O8 1.932232 1_555
Mn0 O7 1.933161 1_455
Mn0 O1 1.933161 1_554
Mn0 O9 1.969136 1_554
Mn0 O0 1.969136 1_455
Mn1 O11 1.932232 1_545
Mn1 O5 1.932232 1_555
Mn1 O4 1.933161 1_545
Mn1 O3 1.933161 1_555
Mn1 O6 1.969136 1_545
Mn1 O2 1.969136 1_555
Ni0 O3 2.021320 1_555
Ni0 O5 2.023152 1_555
Ni0 O2 2.030443 1_565
Ni0 O6 2.032513 1_455
Ni0 O4 2.105128 1_555
Ni0 O11 2.109308 1_455
Ni1 O1 2.021320 1_554
Ni1 O8 2.023152 1_555
Ni1 O9 2.030443 1_654
Ni1 O0 2.032513 1_545
Ni1 O7 2.105128 1_555
Ni1 O10 2.109308 1_544
Ni2 O7 2.021320 1_556
Ni2 O10 2.023152 1_555
Ni2 O0 2.030443 1_456
Ni2 O9 2.032513 1_565
Ni2 O1 2.105128 1_555
Ni2 O8 2.109308 1_566
Ni3 O4 2.021320 1_555
Ni3 O11 2.023152 1_555
Ni3 O6 2.030443 1_545
Ni3 O2 2.032513 1_655
Ni3 O3 2.105128 1_555
Ni3 O5 2.109308 1_655
