# generated using pymatgen
data_Ho2NiAs2
_symmetry_space_group_name_H-M   'P 1'
_cell_length_a   4.06486699
_cell_length_b   4.06486671
_cell_length_c   14.13477441
_cell_angle_alpha   90.00000000
_cell_angle_beta   90.00000000
_cell_angle_gamma   119.99999409
_symmetry_Int_Tables_number   1
_chemical_formula_structural   Ho2NiAs2
_chemical_formula_sum   'Ho4 Ni2 As4'
_cell_volume   202.26101730
_cell_formula_units_Z   2
loop_
 _symmetry_equiv_pos_site_id
 _symmetry_equiv_pos_as_xyz
  1  'x, y, z'
loop_
 _atom_site_type_symbol
 _atom_site_label
 _atom_site_symmetry_multiplicity
 _atom_site_fract_x
 _atom_site_fract_y
 _atom_site_fract_z
 _atom_site_occupancy
  Ho  Ho0  1  0.66666700  0.33333300  0.38239464  1
  Ho  Ho1  1  0.33333300  0.66666700  0.88239464  1
  Ho  Ho2  1  0.33333300  0.66666700  0.61760536  1
  Ho  Ho3  1  0.66666700  0.33333300  0.11760536  1
  Ni  Ni0  1  -0.00000000  0.00000000  0.75000000  1
  Ni  Ni1  1  0.00000000  -0.00000000  0.25000000  1
  As  As0  1  0.33333300  0.66666700  0.25000000  1
  As  As1  1  -0.00000000  -0.00000000  -0.00000000  1
  As  As2  1  -0.00000000  -0.00000000  0.50000000  1
  As  As3  1  0.66666700  0.33333300  0.75000000  1
loop_
_geom_bond_atom_site_label_1
_geom_bond_atom_site_label_2
_geom_bond_distance
_geom_bond_site_symmetry_2
Ho0 Ni1 3.001620 1_655
Ho0 Ni1 3.001623 1_665
Ho0 Ni1 3.001623 1_555
Ho1 Ni0 3.001620 1_565
Ho1 Ni0 3.001623 1_555
Ho1 Ni0 3.001623 1_665
Ho2 Ni0 3.001620 1_565
Ho2 Ni0 3.001623 1_555
Ho2 Ni0 3.001623 1_665
Ho3 Ni1 3.001620 1_655
Ho3 Ni1 3.001623 1_665
Ho3 Ni1 3.001623 1_555
As0 Ni1 2.346850 1_565
As0 Ni1 2.346853 1_555
As0 Ni1 2.346853 1_665
As0 Ho3 3.001620 1_565
As0 Ho0 3.001620 1_565
As0 Ho3 3.001620 1_455
As0 Ho0 3.001620 1_455
As0 Ho0 3.001625 1_555
As0 Ho3 3.001625 1_555
As1 Ho1 2.875939 1_544
As1 Ho3 2.875939 1_455
As1 Ho1 2.875942 1_554
As1 Ho3 2.875942 1_445
As1 Ho1 2.875943 1_444
As1 Ho3 2.875943 1_555
As2 Ho0 2.875939 1_455
As2 Ho2 2.875939 1_545
As2 Ho2 2.875942 1_555
As2 Ho0 2.875942 1_445
As2 Ho0 2.875943 1_555
As2 Ho2 2.875943 1_445
As3 Ni0 2.346850 1_655
As3 Ni0 2.346853 1_665
As3 Ni0 2.346853 1_555
As3 Ho2 3.001620 1_545
As3 Ho1 3.001620 1_545
As3 Ho2 3.001620 1_655
As3 Ho1 3.001620 1_655
As3 Ho2 3.001625 1_555
As3 Ho1 3.001625 1_555
