# generated using pymatgen
data_LiNiO2
_symmetry_space_group_name_H-M   'P 1'
_cell_length_a   4.91306239
_cell_length_b   5.68184752
_cell_length_c   6.54471670
_cell_angle_alpha   102.24776239
_cell_angle_beta   99.17595565
_cell_angle_gamma   107.00525584
_symmetry_Int_Tables_number   1
_chemical_formula_structural   LiNiO2
_chemical_formula_sum   'Li5 Ni5 O10'
_cell_volume   165.86756196
_cell_formula_units_Z   5
loop_
 _symmetry_equiv_pos_site_id
 _symmetry_equiv_pos_as_xyz
  1  'x, y, z'
loop_
 _atom_site_type_symbol
 _atom_site_label
 _atom_site_symmetry_multiplicity
 _atom_site_fract_x
 _atom_site_fract_y
 _atom_site_fract_z
 _atom_site_occupancy
  Li  Li0  1  0.00000000  0.00000000  0.00000000  1
  Li  Li1  1  0.20517051  0.39481259  0.38845556  1
  Li  Li2  1  0.39700255  0.80107542  0.80053195  1
  Li  Li3  1  0.60299745  0.19892458  0.19946805  1
  Li  Li4  1  0.79482949  0.60518741  0.61154444  1
  Ni  Ni0  1  0.39846593  0.29771850  0.80114027  1
  Ni  Ni1  1  0.60153407  0.70228150  0.19885973  1
  Ni  Ni2  1  0.79794741  0.10002885  0.60150578  1
  Ni  Ni3  1  0.00000000  0.50000000  0.00000000  1
  Ni  Ni4  1  0.20205259  0.89997115  0.39849422  1
  O  O0  1  0.91737254  0.56403142  0.27805190  1
  O  O1  1  0.91024057  0.03349807  0.30746385  1
  O  O2  1  0.08262746  0.43596858  0.72194810  1
  O  O3  1  0.08975943  0.96650193  0.69253615  1
  O  O4  1  0.29283766  0.37121424  0.09528789  1
  O  O5  1  0.29009128  0.82641183  0.09323879  1
  O  O6  1  0.50183903  0.22880196  0.50347340  1
  O  O7  1  0.49816097  0.77119804  0.49652660  1
  O  O8  1  0.70990872  0.17358817  0.90676121  1
  O  O9  1  0.70716234  0.62878576  0.90471211  1
loop_
_geom_bond_atom_site_label_1
_geom_bond_atom_site_label_2
_geom_bond_distance
_geom_bond_site_symmetry_2
Li0 O8 2.043689 1_454
Li0 O5 2.043689 1_545
Li0 O9 2.070824 1_444
Li0 O4 2.070824 1_555
Li0 O1 2.109390 1_455
Li0 O3 2.109390 1_544
Li1 O4 2.018192 1_555
Li1 O1 2.036788 1_455
Li1 O0 2.051815 1_455
Li1 O6 2.082380 1_555
Li1 O7 2.092539 1_555
Li1 O2 2.337920 1_555
Li2 O5 2.052952 1_556
Li2 O2 2.091273 1_555
Li2 O3 2.105499 1_555
Li2 O7 2.110893 1_555
Li2 O8 2.111424 1_565
Li2 O9 2.137664 1_555
Li3 O8 2.052952 1_554
Li3 O0 2.091273 1_555
Li3 O1 2.105499 1_555
Li3 O6 2.110893 1_555
Li3 O5 2.111424 1_545
Li3 O4 2.137664 1_555
Li4 O9 2.018192 1_555
Li4 O3 2.036788 1_655
Li4 O2 2.051815 1_655
Li4 O7 2.082380 1_555
Li4 O6 2.092539 1_555
Li4 O0 2.337920 1_555
Ni0 O9 1.939208 1_555
Ni0 O3 1.940700 1_545
Ni0 O8 1.953802 1_555
Ni0 O2 1.980590 1_555
Ni0 O4 2.062539 1_556
Ni0 O6 2.077202 1_555
Ni1 O4 1.939208 1_555
Ni1 O1 1.940700 1_565
Ni1 O5 1.953802 1_555
Ni1 O0 1.980590 1_555
Ni1 O9 2.062539 1_554
Ni1 O7 2.077202 1_555
Ni2 O3 1.881909 1_645
Ni2 O6 1.894072 1_555
Ni2 O7 1.911855 1_545
Ni2 O2 1.915566 1_655
Ni2 O1 2.074277 1_555
Ni2 O8 2.092868 1_555
Ni3 O9 1.875513 1_454
Ni3 O4 1.875513 1_555
Ni3 O8 1.881394 1_454
Ni3 O5 1.881394 1_555
Ni3 O0 1.910452 1_455
Ni3 O2 1.910452 1_554
Ni4 O1 1.881909 1_465
Ni4 O7 1.894072 1_555
Ni4 O6 1.911855 1_565
Ni4 O0 1.915566 1_455
Ni4 O3 2.074277 1_555
Ni4 O5 2.092868 1_555
