# generated using pymatgen
data_SrNi2P2(H2O5)2
_symmetry_space_group_name_H-M   'P 1'
_cell_length_a   6.09993900
_cell_length_b   9.01934971
_cell_length_c   7.57495290
_cell_angle_alpha   101.09952600
_cell_angle_beta   66.25852293
_cell_angle_gamma   89.99766576
_symmetry_Int_Tables_number   1
_chemical_formula_structural   SrNi2P2(H2O5)2
_chemical_formula_sum   'Sr2 Ni4 P4 H8 O20'
_cell_volume   372.95177848
_cell_formula_units_Z   2
loop_
 _symmetry_equiv_pos_site_id
 _symmetry_equiv_pos_as_xyz
  1  'x, y, z'
loop_
 _atom_site_type_symbol
 _atom_site_label
 _atom_site_symmetry_multiplicity
 _atom_site_fract_x
 _atom_site_fract_y
 _atom_site_fract_z
 _atom_site_occupancy
  Sr  Sr0  1  0.49998600  0.50005900  0.00000200  1
  Sr  Sr1  1  0.99999300  0.99996000  0.99996400  1
  Ni  Ni0  1  0.00006900  0.00013000  0.50003600  1
  Ni  Ni1  1  0.50014300  0.99993500  0.49996900  1
  Ni  Ni2  1  0.50003000  0.50006800  0.50008500  1
  Ni  Ni3  1  0.00041400  0.49972700  0.49969600  1
  P  P0  1  0.88882000  0.69860400  0.22232900  1
  P  P1  1  0.38887200  0.19858200  0.22225700  1
  P  P2  1  0.61114300  0.80140000  0.77768700  1
  P  P3  1  0.11109200  0.30141600  0.77775500  1
  H  H0  1  0.89710100  0.35761300  0.20571800  1
  H  H1  1  0.39712800  0.85759500  0.20570000  1
  H  H2  1  0.60280800  0.14237900  0.79425200  1
  H  H3  1  0.10277800  0.64238600  0.79427700  1
  H  H4  1  0.81722800  0.25871500  0.36547200  1
  H  H5  1  0.31721300  0.75875500  0.36550100  1
  H  H6  1  0.68264800  0.24129400  0.63459100  1
  H  H7  1  0.18267000  0.74123700  0.63454900  1
  O  O0  1  0.99834600  0.70679600  0.00314900  1
  O  O1  1  0.49836100  0.20680600  0.00311300  1
  O  O2  1  0.50156000  0.79323200  0.99688300  1
  O  O3  1  0.00154500  0.29322100  0.99692100  1
  O  O4  1  0.83118700  0.87035800  0.33778100  1
  O  O5  1  0.33119600  0.37030300  0.33776900  1
  O  O6  1  0.66893300  0.62964800  0.66223200  1
  O  O7  1  0.16893200  0.12969900  0.66224000  1
  O  O8  1  0.82007800  0.36619800  0.35987100  1
  O  O9  1  0.32011900  0.86623200  0.35986600  1
  O  O10  1  0.67992000  0.13380000  0.64012000  1
  O  O11  1  0.17987900  0.63375100  0.64012800  1
  O  O12  1  0.07435100  0.61677500  0.27308900  1
  O  O13  1  0.57435400  0.11681100  0.27307800  1
  O  O14  1  0.65258000  0.61673400  0.27314300  1
  O  O15  1  0.15260900  0.11678100  0.27309600  1
  O  O16  1  0.84734000  0.88331000  0.72692900  1
  O  O17  1  0.34731800  0.38325700  0.72697200  1
  O  O18  1  0.42563200  0.88324300  0.72688800  1
  O  O19  1  0.92562900  0.38319900  0.72689300  1
loop_
_geom_bond_atom_site_label_1
_geom_bond_atom_site_label_2
_geom_bond_distance
_geom_bond_site_symmetry_2
Ni0 O10 2.057155 1_455
Ni0 O9 2.057722 1_545
Ni0 O15 2.082397 1_555
Ni0 O16 2.083278 1_445
Ni0 O7 2.098266 1_555
Ni0 O4 2.099425 1_445
Ni1 O10 2.057051 1_565
Ni1 O9 2.057232 1_555
Ni1 O18 2.082412 1_555
Ni1 O13 2.083547 1_565
Ni1 O4 2.098166 1_555
Ni1 O7 2.099713 1_565
Ni2 O11 2.057215 1_555
Ni2 O8 2.057597 1_555
Ni2 O14 2.082505 1_555
Ni2 O17 2.083178 1_555
Ni2 O6 2.098196 1_555
Ni2 O5 2.099497 1_555
Ni3 O8 2.056579 1_455
Ni3 O11 2.057657 1_555
Ni3 O12 2.082976 1_555
Ni3 O19 2.082998 1_455
Ni3 O5 2.096213 1_555
Ni3 O6 2.101722 1_455
H0 O8 1.055313 1_555
H0 O3 1.442100 1_654
H1 O9 1.055338 1_555
H1 O2 1.442177 1_554
H2 O10 1.055175 1_555
H2 O1 1.442568 1_556
H3 O11 1.055223 1_555
H3 O0 1.442609 1_456
H4 O8 0.978332 1_555
H5 O9 0.978337 1_555
H6 O10 0.978308 1_555
H7 O11 0.978322 1_555
O0 P0 1.537010 1_555
O0 Sr1 2.648882 1_554
O1 P1 1.536835 1_555
O1 Sr0 2.649572 1_555
O2 P2 1.537065 1_555
O2 Sr0 2.648863 1_556
O3 P3 1.536920 1_555
O3 Sr1 2.649542 1_445
O4 P0 1.587112 1_555
O4 Sr1 2.829305 1_554
O5 P1 1.586978 1_555
O5 Sr0 2.829804 1_555
O6 P2 1.587103 1_555
O6 Sr0 2.828938 1_556
O7 P3 1.586953 1_555
O7 Sr1 2.829441 1_445
O12 P0 1.559792 1_455
O12 Sr0 2.639127 1_555
O13 P1 1.559565 1_555
O13 Sr1 2.639509 1_544
O14 P0 1.559782 1_555
O14 Sr0 2.639550 1_555
O15 P1 1.559567 1_555
O15 Sr1 2.639908 1_444
O16 P2 1.559768 1_555
O16 Sr1 2.639052 1_555
O17 P3 1.559583 1_555
O17 Sr0 2.639422 1_556
O18 P2 1.559944 1_555
O18 Sr1 2.639120 1_455
O19 P3 1.559721 1_655
O19 Sr0 2.639534 1_556
