# generated using pymatgen
data_CaAlF5
_symmetry_space_group_name_H-M   'P 1'
_cell_length_a   5.38482933
_cell_length_b   5.38482893
_cell_length_c   7.31961727
_cell_angle_alpha   70.03440012
_cell_angle_beta   70.03441278
_cell_angle_gamma   71.69087675
_symmetry_Int_Tables_number   1
_chemical_formula_structural   CaAlF5
_chemical_formula_sum   'Ca2 Al2 F10'
_cell_volume   182.74837736
_cell_formula_units_Z   2
loop_
 _symmetry_equiv_pos_site_id
 _symmetry_equiv_pos_as_xyz
  1  'x, y, z'
loop_
 _atom_site_type_symbol
 _atom_site_label
 _atom_site_symmetry_multiplicity
 _atom_site_fract_x
 _atom_site_fract_y
 _atom_site_fract_z
 _atom_site_occupancy
  Ca  Ca0  1  0.45493052  0.54506948  0.25000000  1
  Ca  Ca1  1  0.54506948  0.45493052  0.75000000  1
  Al  Al0  1  0.00000000  -0.00000000  0.50000000  1
  Al  Al1  1  0.00000000  -0.00000000  0.00000000  1
  F  F0  1  0.79581050  0.76052452  0.61364324  1
  F  F1  1  0.23947548  0.20418850  0.88635676  1
  F  F2  1  0.20418850  0.23947548  0.38635776  1
  F  F3  1  0.76052452  0.79581050  0.11364324  1
  F  F4  1  0.94057420  0.05942580  0.75000000  1
  F  F5  1  0.05942580  0.94057420  0.25000000  1
  F  F6  1  0.72810171  0.29500479  0.02774855  1
  F  F7  1  0.70499521  0.27189829  0.47225145  1
  F  F8  1  0.27189829  0.70499521  0.97225145  1
  F  F9  1  0.29500479  0.72810171  0.52774855  1
loop_
_geom_bond_atom_site_label_1
_geom_bond_atom_site_label_2
_geom_bond_distance
_geom_bond_site_symmetry_2
Ca0 F3 2.209331 1_555
Ca0 F2 2.209335 1_555
Ca0 F7 2.289267 1_555
Ca0 F6 2.289267 1_555
Ca0 F8 2.342144 1_554
Ca0 F9 2.342144 1_555
Ca0 F5 2.494337 1_555
Ca1 F0 2.209331 1_555
Ca1 F1 2.209335 1_555
Ca1 F9 2.289267 1_555
Ca1 F8 2.289267 1_555
Ca1 F6 2.342144 1_556
Ca1 F7 2.342144 1_555
Ca1 F4 2.494337 1_555
Al0 F2 1.759964 1_555
Al0 F0 1.759968 1_445
Al0 F9 1.806758 1_545
Al0 F7 1.806758 1_455
Al0 F4 1.867890 1_455
Al0 F5 1.867890 1_545
Al1 F1 1.759964 1_554
Al1 F3 1.759968 1_445
Al1 F8 1.806758 1_544
Al1 F6 1.806758 1_455
Al1 F5 1.867889 1_545
Al1 F4 1.867889 1_454
