# generated using pymatgen
data_Li3Mn4(P2O7)4
_symmetry_space_group_name_H-M   'P 1'
_cell_length_a   9.71749409
_cell_length_b   9.63057768
_cell_length_c   11.02027785
_cell_angle_alpha   89.77900351
_cell_angle_beta   100.75230416
_cell_angle_gamma   90.32568356
_symmetry_Int_Tables_number   1
_chemical_formula_structural   Li3Mn4(P2O7)4
_chemical_formula_sum   'Li6 Mn8 P16 O56'
_cell_volume   1013.20589656
_cell_formula_units_Z   2
loop_
 _symmetry_equiv_pos_site_id
 _symmetry_equiv_pos_as_xyz
  1  'x, y, z'
loop_
 _atom_site_type_symbol
 _atom_site_label
 _atom_site_symmetry_multiplicity
 _atom_site_fract_x
 _atom_site_fract_y
 _atom_site_fract_z
 _atom_site_occupancy
  Li  Li0  1  0.15209900  0.39296400  0.04295500  1
  Li  Li1  1  0.39009500  0.95858000  0.49769200  1
  Li  Li2  1  0.58137800  0.40388800  0.01956400  1
  Li  Li3  1  0.91164800  0.90576300  0.98141200  1
  Li  Li4  1  0.83291600  0.58139100  0.46188800  1
  Li  Li5  1  0.88701600  0.28470300  0.54303800  1
  Mn  Mn0  1  0.19715400  0.93103200  0.67328000  1
  Mn  Mn1  1  0.28288400  0.22371300  0.83784900  1
  Mn  Mn2  1  0.21866600  0.72666600  0.16034200  1
  Mn  Mn3  1  0.30876900  0.42802600  0.33997100  1
  Mn  Mn4  1  0.69360400  0.57550600  0.67694800  1
  Mn  Mn5  1  0.77329400  0.27740800  0.83547700  1
  Mn  Mn6  1  0.72148400  0.77294900  0.16241100  1
  Mn  Mn7  1  0.80712000  0.06590500  0.33183300  1
  P  P0  1  0.02367100  0.44618700  0.75286900  1
  P  P1  1  0.11374000  0.71919600  0.87454800  1
  P  P2  1  0.07269100  0.92728700  0.24610400  1
  P  P3  1  0.13165400  0.15381600  0.42706200  1
  P  P4  1  0.37363400  0.65026600  0.57784600  1
  P  P5  1  0.42419300  0.42096300  0.75108800  1
  P  P6  1  0.52156400  0.05214100  0.74218200  1
  P  P7  1  0.38705600  0.21135000  0.12483700  1
  P  P8  1  0.60847000  0.78492300  0.88188700  1
  P  P9  1  0.47184200  0.93195800  0.24231800  1
  P  P10  1  0.56850600  0.56872100  0.24277500  1
  P  P11  1  0.62646300  0.34339600  0.42353000  1
  P  P12  1  0.87478200  0.85414200  0.57728200  1
  P  P13  1  0.93049100  0.07569900  0.76041200  1
  P  P14  1  0.88168000  0.28749900  0.11935300  1
  P  P15  1  0.97147000  0.55981200  0.24555200  1
  O  O0  1  0.01716900  0.41512000  0.62009600  1
  O  O1  1  0.03418100  0.84583200  0.58073500  1
  O  O2  1  0.08280400  0.07927700  0.73590600  1
  O  O3  1  0.11125500  0.34951600  0.84991300  1
  O  O4  1  0.09605500  0.59572700  0.77553600  1
  O  O5  1  0.20282000  0.82848900  0.81666100  1
  O  O6  1  0.20298300  0.65774000  0.99497900  1
  O  O7  1  0.02161600  0.26623100  0.08814900  1
  O  O8  1  0.13705500  0.07276700  0.29928700  1
  O  O9  1  0.07807500  0.91295500  0.11020500  1
  O  O10  1  0.12085900  0.54786800  0.20633400  1
  O  O11  1  0.19225000  0.29725300  0.40873500  1
  O  O12  1  0.17272000  0.81116400  0.30848000  1
  O  O13  1  0.21493700  0.06205400  0.52983800  1
  O  O14  1  0.29730500  0.56818400  0.46746800  1
  O  O15  1  0.32957200  0.30199400  0.68765000  1
  O  O16  1  0.31593000  0.79594600  0.59310100  1
  O  O17  1  0.36834400  0.04385300  0.77836000  1
  O  O18  1  0.35591200  0.56436300  0.70054500  1
  O  O19  1  0.41370200  0.40011000  0.88690900  1
  O  O20  1  0.47031300  0.74596200  0.90658000  1
  O  O21  1  0.28213000  0.17258000  0.00389000  1
  O  O22  1  0.30868000  0.32576300  0.18739300  1
  O  O23  1  0.39763600  0.08238600  0.21707900  1
  O  O24  1  0.41802200  0.57324900  0.27148200  1
  O  O25  1  0.38165100  0.83340600  0.14840200  1
  O  O26  1  0.51575400  0.06496600  0.60762000  1
  O  O27  1  0.47250100  0.33251700  0.43364300  1
  O  O28  1  0.53383200  0.66120500  0.58132600  1
  O  O29  1  0.47857900  0.90156800  0.37440200  1
  O  O30  1  0.60459200  0.16280100  0.82716200  1
  O  O31  1  0.57773000  0.42375000  0.72998800  1
  O  O32  1  0.60044300  0.90852500  0.78348900  1
  O  O33  1  0.69019400  0.66945700  0.82127000  1
  O  O34  1  0.71927600  0.83643600  0.99677200  1
  O  O35  1  0.52971400  0.24982400  0.10523300  1
  O  O36  1  0.57959600  0.57834600  0.10847300  1
  O  O37  1  0.63533000  0.42495700  0.29750800  1
  O  O38  1  0.62111900  0.94125500  0.20399600  1
  O  O39  1  0.69659700  0.20421900  0.41027000  1
  O  O40  1  0.67051200  0.68232000  0.30910700  1
  O  O41  1  0.71625100  0.43273300  0.52710400  1
  O  O42  1  0.79590500  0.93029600  0.46413400  1
  O  O43  1  0.84174100  0.19892400  0.69450200  1
  O  O44  1  0.81615500  0.70788200  0.59507800  1
  O  O45  1  0.86995700  0.45553100  0.78822800  1
  O  O46  1  0.91010900  0.08294400  0.89193400  1
  O  O47  1  0.85514800  0.93962500  0.69724600  1
  O  O48  1  0.97271700  0.76696400  0.88760500  1
  O  O49  1  0.76982100  0.33362600  0.00261800  1
  O  O50  1  0.81793100  0.16695800  0.18459700  1
  O  O51  1  0.89096100  0.41283500  0.21708800  1
  O  O52  1  0.88614900  0.66352000  0.15332200  1
  O  O53  1  0.92171000  0.92119200  0.27372700  1
  O  O54  1  0.97676600  0.16565900  0.43724100  1
  O  O55  1  0.97867200  0.58547900  0.37868600  1
loop_
_geom_bond_atom_site_label_1
_geom_bond_atom_site_label_2
_geom_bond_distance
_geom_bond_site_symmetry_2
Li0 O7 1.886478 1_555
Li0 O22 2.089795 1_555
Li0 O3 2.132667 1_554
Li0 O10 2.406079 1_555
Li0 O21 2.554830 1_555
Li0 O6 2.664407 1_554
Li1 O29 1.825887 1_555
Li1 O26 1.857890 1_565
Li1 O13 2.064623 1_565
Li1 O16 2.082137 1_555
Li2 O35 1.871467 1_555
Li2 O36 1.950003 1_555
Li2 O19 1.975936 1_554
Li2 O49 1.997168 1_555
Li3 O48 1.859102 1_555
Li3 O9 1.943661 1_656
Li3 O46 1.966219 1_565
Li3 O34 2.017917 1_555
Li4 O55 1.825398 1_555
Li4 O44 1.941689 1_555
Li4 O41 2.032011 1_555
Li4 O40 2.298599 1_555
Li5 O0 1.867536 1_655
Li5 O54 1.958432 1_555
Li5 O43 1.980252 1_555
Li5 O41 2.175565 1_555
Li5 O39 2.268872 1_555
Mn0 O5 1.852326 1_555
Mn0 O1 1.900130 1_555
Mn0 O2 2.015227 1_565
Mn0 O13 2.050595 1_565
Mn0 O16 2.052288 1_555
Mn0 O17 2.135244 1_565
Mn1 O21 1.894412 1_556
Mn1 O15 1.944397 1_555
Mn1 O17 2.085203 1_555
Mn1 O3 2.091425 1_555
Mn1 O19 2.126109 1_555
Mn1 O2 2.478611 1_555
Mn2 O25 1.908057 1_555
Mn2 O6 1.920769 1_554
Mn2 O12 1.952699 1_555
Mn2 O10 2.068736 1_555
Mn2 O9 2.264733 1_555
Mn2 O24 2.563058 1_555
Mn3 O11 1.933654 1_555
Mn3 O22 1.951778 1_555
Mn3 O27 1.959497 1_555
Mn3 O14 1.970607 1_555
Mn3 O24 1.981617 1_555
Mn3 O10 2.417170 1_555
Mn4 O33 1.838603 1_555
Mn4 O28 1.897243 1_555
Mn4 O31 1.991432 1_555
Mn4 O44 2.057249 1_555
Mn4 O41 2.196005 1_555
Mn4 O45 2.236769 1_555
Mn5 O49 1.928239 1_556
Mn5 O43 1.956443 1_555
Mn5 O30 1.959153 1_555
Mn5 O45 2.062385 1_555
Mn5 O46 2.317913 1_555
Mn5 O31 2.478449 1_555
Mn6 O34 1.919181 1_554
Mn6 O52 1.939296 1_555
Mn6 O40 1.975757 1_555
Mn6 O38 1.994733 1_555
Mn6 O36 2.332427 1_555
Mn6 O53 2.533805 1_555
Mn7 O50 1.908189 1_555
Mn7 O53 1.970503 1_545
Mn7 O42 1.971350 1_545
Mn7 O39 2.011606 1_555
Mn7 O54 2.065438 1_555
Mn7 O38 2.393949 1_545
O0 P0 1.484290 1_555
O1 P12 1.544836 1_455
O2 P13 1.553485 1_455
O3 P0 1.548081 1_555
O4 P0 1.599033 1_555
O4 P1 1.603666 1_555
O5 P1 1.566735 1_555
O6 P1 1.560160 1_555
O7 P14 1.479028 1_455
O8 P2 1.599141 1_545
O8 P3 1.622135 1_555
O9 P2 1.515137 1_555
O10 P15 1.594930 1_455
O11 P3 1.526013 1_555
O12 P2 1.557287 1_555
O13 P3 1.541801 1_555
O14 P4 1.522750 1_555
O15 P5 1.549600 1_555
O16 P4 1.535248 1_555
O17 P6 1.613100 1_555
O18 P5 1.588810 1_555
O18 P4 1.618362 1_555
O19 P5 1.531494 1_555
O20 P8 1.465283 1_555
O21 P7 1.564608 1_555
O22 P7 1.575032 1_555
O23 P7 1.593482 1_555
O23 P9 1.621737 1_545
O24 P10 1.553652 1_555
O25 P9 1.549126 1_555
O26 P6 1.478139 1_555
O27 P11 1.523854 1_555
O28 P4 1.553012 1_555
O29 P9 1.473125 1_555
O30 P6 1.542645 1_555
O31 P5 1.552348 1_555
O32 P8 1.599513 1_555
O32 P6 1.607711 1_565
O33 P8 1.589715 1_555
O34 P8 1.580680 1_555
O35 P7 1.486951 1_555
O36 P10 1.506347 1_555
O37 P10 1.600014 1_555
O37 P11 1.608921 1_555
O38 P9 1.586638 1_555
O39 P11 1.526905 1_555
O40 P10 1.561180 1_555
O41 P11 1.559418 1_555
O42 P12 1.524114 1_555
O43 P13 1.565546 1_555
O44 P12 1.541924 1_555
O45 P0 1.615580 1_655
O46 P13 1.500978 1_555
O47 P13 1.594961 1_565
O47 P12 1.601943 1_555
O48 P1 1.480391 1_655
O49 P14 1.585295 1_555
O50 P14 1.549177 1_555
O51 P14 1.611751 1_555
O51 P15 1.616568 1_555
O52 P15 1.550862 1_555
O53 P2 1.553767 1_655
O54 P3 1.534938 1_655
O55 P15 1.477459 1_555
