# generated using pymatgen
data_V6O11
_symmetry_space_group_name_H-M   'P 1'
_cell_length_a   5.86665524
_cell_length_b   5.86665524
_cell_length_c   13.40120300
_cell_angle_alpha   90.00000000
_cell_angle_beta   90.00000000
_cell_angle_gamma   121.06866724
_symmetry_Int_Tables_number   1
_chemical_formula_structural   V6O11
_chemical_formula_sum   'V12 O22'
_cell_volume   395.07299884
_cell_formula_units_Z   2
loop_
 _symmetry_equiv_pos_site_id
 _symmetry_equiv_pos_as_xyz
  1  'x, y, z'
loop_
 _atom_site_type_symbol
 _atom_site_label
 _atom_site_symmetry_multiplicity
 _atom_site_fract_x
 _atom_site_fract_y
 _atom_site_fract_z
 _atom_site_occupancy
  V  V0  1  0.99935400  0.00064600  0.64878700  1
  V  V1  1  0.99935400  0.00064600  0.85121300  1
  V  V2  1  0.50000000  0.50000000  0.50000000  1
  V  V3  1  0.50000000  0.00000000  0.50000000  1
  V  V4  1  0.00000000  0.50000000  0.50000000  1
  V  V5  1  0.66926400  0.33073600  0.25000000  1
  V  V6  1  0.33073600  0.66926400  0.75000000  1
  V  V7  1  0.00000000  0.50000000  0.00000000  1
  V  V8  1  0.50000000  0.00000000  0.00000000  1
  V  V9  1  0.50000000  0.50000000  0.00000000  1
  V  V10  1  0.00064600  0.99935400  0.35121300  1
  V  V11  1  0.00064600  0.99935400  0.14878700  1
  O  O0  1  0.15632200  0.30150200  0.75000000  1
  O  O1  1  0.84015400  0.15984600  0.25000000  1
  O  O2  1  0.17184100  0.34245500  0.42617400  1
  O  O3  1  0.17184100  0.34245500  0.07382600  1
  O  O4  1  0.82465400  0.17534600  0.57445900  1
  O  O5  1  0.82465400  0.17534600  0.92554100  1
  O  O6  1  0.69849800  0.84367800  0.75000000  1
  O  O7  1  0.65754500  0.82815900  0.42617400  1
  O  O8  1  0.33344700  0.66655300  0.91369600  1
  O  O9  1  0.33344700  0.66655300  0.58630400  1
  O  O10  1  0.65754500  0.82815900  0.07382600  1
  O  O11  1  0.34245500  0.17184100  0.57382600  1
  O  O12  1  0.66655300  0.33344700  0.08630400  1
  O  O13  1  0.66655300  0.33344700  0.41369600  1
  O  O14  1  0.34245500  0.17184100  0.92617400  1
  O  O15  1  0.30150200  0.15632200  0.25000000  1
  O  O16  1  0.17534600  0.82465400  0.42554100  1
  O  O17  1  0.17534600  0.82465400  0.07445900  1
  O  O18  1  0.82815900  0.65754500  0.57382600  1
  O  O19  1  0.82815900  0.65754500  0.92617400  1
  O  O20  1  0.15984600  0.84015400  0.75000000  1
  O  O21  1  0.84367800  0.69849800  0.25000000  1
loop_
_geom_bond_atom_site_label_1
_geom_bond_atom_site_label_2
_geom_bond_distance
_geom_bond_site_symmetry_2
O0 V6 1.850234 1_555
O0 V1 2.031126 1_455
O0 V0 2.031126 1_455
O1 V5 1.745746 1_555
O1 V10 2.127862 1_645
O1 V11 2.127862 1_645
O2 V2 1.924295 1_555
O2 V4 1.952213 1_555
O2 V10 1.995719 1_545
O3 V9 1.924295 1_555
O3 V7 1.952213 1_555
O3 V11 1.995719 1_545
O4 V4 1.912926 1_655
O4 V3 1.912926 1_555
O4 V0 2.043826 1_555
O5 V8 1.912926 1_556
O5 V7 1.912926 1_656
O5 V1 2.043826 1_555
O6 V6 1.850234 1_555
O6 V0 2.031126 1_565
O6 V1 2.031126 1_565
O7 V2 1.924295 1_555
O7 V3 1.952213 1_565
O7 V10 1.995719 1_655
O8 V7 2.036259 1_556
O8 V8 2.036259 1_566
O8 V9 2.057322 1_556
O8 V6 2.193898 1_555
O9 V4 2.036259 1_555
O9 V3 2.036259 1_565
O9 V2 2.057322 1_555
O9 V6 2.193898 1_555
O10 V9 1.924295 1_555
O10 V8 1.952213 1_565
O10 V11 1.995719 1_655
O11 V2 1.924295 1_555
O11 V3 1.952213 1_555
O11 V0 1.995719 1_455
O12 V8 2.036259 1_555
O12 V7 2.036259 1_655
O12 V9 2.057322 1_555
O12 V5 2.193898 1_555
O13 V3 2.036259 1_555
O13 V4 2.036259 1_655
O13 V2 2.057322 1_555
O13 V5 2.193898 1_555
O14 V9 1.924295 1_556
O14 V8 1.952213 1_556
O14 V1 1.995719 1_455
O15 V5 1.850234 1_555
O15 V11 2.031126 1_545
O15 V10 2.031126 1_545
O16 V3 1.912926 1_565
O16 V4 1.912926 1_555
O16 V10 2.043826 1_555
O17 V7 1.912926 1_555
O17 V8 1.912926 1_565
O17 V11 2.043826 1_555
O18 V2 1.924295 1_555
O18 V4 1.952213 1_655
O18 V0 1.995719 1_565
O19 V9 1.924295 1_556
O19 V7 1.952213 1_656
O19 V1 1.995719 1_565
O20 V6 1.745746 1_555
O20 V1 2.127862 1_465
O20 V0 2.127862 1_465
O21 V5 1.850234 1_555
O21 V10 2.031126 1_655
O21 V11 2.031126 1_655
