# generated using pymatgen
data_Mn6OF11
_symmetry_space_group_name_H-M   'P 1'
_cell_length_a   4.96577100
_cell_length_b   5.88084908
_cell_length_c   16.21650171
_cell_angle_alpha   90.52354794
_cell_angle_beta   90.00496411
_cell_angle_gamma   91.30659966
_symmetry_Int_Tables_number   1
_chemical_formula_structural   Mn6OF11
_chemical_formula_sum   'Mn12 O2 F22'
_cell_volume   473.42676677
_cell_formula_units_Z   2
loop_
 _symmetry_equiv_pos_site_id
 _symmetry_equiv_pos_as_xyz
  1  'x, y, z'
loop_
 _atom_site_type_symbol
 _atom_site_label
 _atom_site_symmetry_multiplicity
 _atom_site_fract_x
 _atom_site_fract_y
 _atom_site_fract_z
 _atom_site_occupancy
  Mn  Mn0  1  0.98584400  0.82965200  0.40686100  1
  Mn  Mn1  1  0.98697500  0.14423400  0.24991500  1
  Mn  Mn2  1  0.98276700  0.81898100  0.08872800  1
  Mn  Mn3  1  0.00208100  0.83059500  0.75042700  1
  Mn  Mn4  1  0.99688700  0.16705000  0.58143200  1
  Mn  Mn5  1  0.00371200  0.17090100  0.92206900  1
  Mn  Mn6  1  0.49221000  0.67331200  0.58125100  1
  Mn  Mn7  1  0.49508000  0.67101600  0.91829400  1
  Mn  Mn8  1  0.53071200  0.66981200  0.24738000  1
  Mn  Mn9  1  0.50238100  0.35339600  0.08922100  1
  Mn  Mn10  1  0.50416000  0.33082600  0.41478900  1
  Mn  Mn11  1  0.50587700  0.32854300  0.75007800  1
  O  O0  1  0.78186600  0.88383400  0.29823700  1
  O  O1  1  0.70436700  0.61297100  0.14476400  1
  F  F0  1  0.76645100  0.89599300  0.64115100  1
  F  F1  1  0.77802100  0.89143100  0.97609600  1
  F  F2  1  0.77369900  0.11788100  0.13814600  1
  F  F3  1  0.76515000  0.10208000  0.47196600  1
  F  F4  1  0.77416900  0.10598300  0.80910100  1
  F  F5  1  0.74368100  0.38183800  0.30724400  1
  F  F6  1  0.73514600  0.60615200  0.47268400  1
  F  F7  1  0.72986300  0.39700400  0.63898200  1
  F  F8  1  0.73031200  0.60602400  0.80934500  1
  F  F9  1  0.72121900  0.39389600  0.97649500  1
  F  F10  1  0.25582800  0.60287500  0.02721900  1
  F  F11  1  0.26480000  0.38572600  0.20277200  1
  F  F12  1  0.30411700  0.62570200  0.35261600  1
  F  F13  1  0.27086400  0.39264200  0.52350000  1
  F  F14  1  0.26773100  0.39434200  0.85958600  1
  F  F15  1  0.27115200  0.60412500  0.69276400  1
  F  F16  1  0.23287200  0.89381700  0.19310100  1
  F  F17  1  0.21753500  0.88712800  0.51951300  1
  F  F18  1  0.21935100  0.11562500  0.35851800  1
  F  F19  1  0.23900800  0.11346500  0.03397400  1
  F  F20  1  0.23187000  0.89838800  0.86138400  1
  F  F21  1  0.23224000  0.10276400  0.69039500  1
loop_
_geom_bond_atom_site_label_1
_geom_bond_atom_site_label_2
_geom_bond_distance
_geom_bond_site_symmetry_2
Mn0 O0 2.062781 1_555
Mn1 O0 1.986827 1_545
Mn2 O1 2.036834 1_555
Mn8 O1 1.904657 1_555
Mn8 O0 1.931068 1_555
Mn9 O1 2.013078 1_555
F0 Mn6 2.099578 1_555
F0 Mn3 2.165613 1_655
F0 Mn4 2.175653 1_565
F1 Mn7 2.104142 1_555
F1 Mn2 2.141262 1_556
F1 Mn5 2.160389 1_665
F2 Mn1 2.101876 1_555
F2 Mn9 2.113764 1_555
F2 Mn2 2.206237 1_545
F3 Mn10 2.109761 1_555
F3 Mn4 2.142100 1_555
F3 Mn0 2.220767 1_545
F4 Mn11 2.122817 1_555
F4 Mn5 2.183590 1_655
F4 Mn3 2.205595 1_645
F5 Mn1 2.080825 1_555
F5 Mn10 2.130700 1_555
F5 Mn8 2.245093 1_555
F6 Mn0 2.089975 1_555
F6 Mn10 2.169353 1_555
F6 Mn6 2.172632 1_555
F7 Mn4 2.125301 1_555
F7 Mn11 2.153631 1_555
F7 Mn6 2.241565 1_555
F8 Mn3 2.102452 1_655
F8 Mn7 2.154163 1_555
F8 Mn11 2.171837 1_555
F9 Mn5 2.128273 1_655
F9 Mn9 2.139112 1_556
F9 Mn7 2.217911 1_555
F10 Mn2 2.122348 1_455
F10 Mn7 2.164206 1_554
F10 Mn9 2.184285 1_555
F11 Mn1 2.106031 1_455
F11 Mn9 2.196127 1_555
F11 Mn8 2.221523 1_555
F12 Mn8 2.059336 1_555
F12 Mn0 2.185787 1_455
F12 Mn10 2.262923 1_555
F13 Mn4 2.105777 1_455
F13 Mn10 2.142422 1_555
F13 Mn6 2.167590 1_555
F14 Mn5 2.101954 1_555
F14 Mn11 2.170368 1_555
F14 Mn7 2.171647 1_555
F15 Mn3 2.119453 1_555
F15 Mn6 2.152696 1_555
F15 Mn11 2.227658 1_555
F16 Mn2 2.135892 1_455
F16 Mn1 2.136819 1_465
F16 Mn8 2.192587 1_555
F17 Mn6 2.131868 1_555
F17 Mn0 2.178497 1_455
F17 Mn4 2.229554 1_465
F18 Mn10 2.081255 1_555
F18 Mn1 2.115527 1_455
F18 Mn0 2.173194 1_445
F19 Mn9 2.096803 1_555
F19 Mn5 2.191188 1_554
F19 Mn2 2.309648 1_445
F20 Mn7 2.109515 1_555
F20 Mn3 2.159722 1_555
F20 Mn5 2.207855 1_565
F21 Mn11 2.107156 1_555
F21 Mn4 2.159419 1_455
F21 Mn3 2.181993 1_545
