# generated using pymatgen
data_KYO2
_symmetry_space_group_name_H-M   'P 1'
_cell_length_a   6.50763216
_cell_length_b   6.50763216
_cell_length_c   6.50763187
_cell_angle_alpha   30.80194167
_cell_angle_beta   30.80194167
_cell_angle_gamma   30.80194517
_symmetry_Int_Tables_number   1
_chemical_formula_structural   KYO2
_chemical_formula_sum   'K1 Y1 O2'
_cell_volume   64.08857186
_cell_formula_units_Z   1
loop_
 _symmetry_equiv_pos_site_id
 _symmetry_equiv_pos_as_xyz
  1  'x, y, z'
loop_
 _atom_site_type_symbol
 _atom_site_label
 _atom_site_symmetry_multiplicity
 _atom_site_fract_x
 _atom_site_fract_y
 _atom_site_fract_z
 _atom_site_occupancy
  K  K0  1  0.00000000  0.00000000  0.00000000  1
  Y  Y0  1  0.50000000  0.50000000  0.50000000  1
  O  O0  1  0.22872689  0.22872689  0.22872689  1
  O  O1  1  0.77127311  0.77127311  0.77127311  1
loop_
_geom_bond_atom_site_label_1
_geom_bond_atom_site_label_2
_geom_bond_distance
_geom_bond_site_symmetry_2
K0 O1 2.785842 1_445
K0 O0 2.785842 1_554
K0 O1 2.785842 1_454
K0 O0 2.785842 1_545
K0 O1 2.785842 1_544
K0 O0 2.785842 1_455
O0 Y0 2.304858 1_554
O0 Y0 2.304859 1_545
O0 Y0 2.304859 1_455
O1 Y0 2.304858 1_556
O1 Y0 2.304859 1_565
O1 Y0 2.304859 1_655
