# generated using pymatgen
data_LiPd3
_symmetry_space_group_name_H-M   'P 1'
_cell_length_a   3.85083824
_cell_length_b   3.85066373
_cell_length_c   3.84848984
_cell_angle_alpha   90.00000000
_cell_angle_beta   90.00003066
_cell_angle_gamma   90.00000000
_symmetry_Int_Tables_number   1
_chemical_formula_structural   LiPd3
_chemical_formula_sum   'Li1 Pd3'
_cell_volume   57.06649701
_cell_formula_units_Z   1
loop_
 _symmetry_equiv_pos_site_id
 _symmetry_equiv_pos_as_xyz
  1  'x, y, z'
loop_
 _atom_site_type_symbol
 _atom_site_label
 _atom_site_symmetry_multiplicity
 _atom_site_fract_x
 _atom_site_fract_y
 _atom_site_fract_z
 _atom_site_occupancy
  Li  Li0  1  -0.00000000  -0.00000000  0.00000000  1
  Pd  Pd0  1  0.00000100  0.50000000  0.50000000  1
  Pd  Pd1  1  0.50000000  0.00000100  0.50000100  1
  Pd  Pd2  1  0.50000100  0.50000100  0.00000100  1
loop_
_geom_bond_atom_site_label_1
_geom_bond_atom_site_label_2
_geom_bond_distance
_geom_bond_site_symmetry_2
Li0 Pd0 2.722062 1_555
Li0 Pd0 2.722062 1_545
Li0 Pd0 2.722062 1_544
Li0 Pd0 2.722062 1_554
Li0 Pd1 2.722120 1_454
Li0 Pd1 2.722122 1_554
Li0 Pd1 2.722126 1_555
Li0 Pd1 2.722127 1_455
Li0 Pd2 2.722887 1_445
Li0 Pd2 2.722892 1_455
Li0 Pd2 2.722892 1_545
Li0 Pd2 2.722898 1_555
Pd0 Pd2 2.722120 1_455
Pd0 Pd2 2.722122 1_555
Pd0 Pd2 2.722126 1_556
Pd0 Pd2 2.722127 1_456
Pd0 Pd1 2.722887 1_555
Pd0 Pd1 2.722892 1_565
Pd0 Pd1 2.722892 1_455
Pd0 Pd1 2.722898 1_465
Pd1 Pd2 2.722062 1_546
Pd1 Pd2 2.722062 1_556
Pd1 Pd2 2.722062 1_545
Pd1 Pd2 2.722062 1_555
