# generated using pymatgen
data_Fe9Cu3O16
_symmetry_space_group_name_H-M   'P 1'
_cell_length_a   5.85702420
_cell_length_b   5.87923869
_cell_length_c   8.33928611
_cell_angle_alpha   90.43886154
_cell_angle_beta   90.00322436
_cell_angle_gamma   90.01393316
_symmetry_Int_Tables_number   1
_chemical_formula_structural   Fe9Cu3O16
_chemical_formula_sum   'Fe9 Cu3 O16'
_cell_volume   287.15357765
_cell_formula_units_Z   1
loop_
 _symmetry_equiv_pos_site_id
 _symmetry_equiv_pos_as_xyz
  1  'x, y, z'
loop_
 _atom_site_type_symbol
 _atom_site_label
 _atom_site_symmetry_multiplicity
 _atom_site_fract_x
 _atom_site_fract_y
 _atom_site_fract_z
 _atom_site_occupancy
  Fe  Fe0  1  0.00064900  0.99800100  0.99750600  1
  Fe  Fe1  1  0.25416500  0.50146000  0.12255800  1
  Fe  Fe2  1  0.74683800  0.50171500  0.12244200  1
  Fe  Fe3  1  0.99973600  0.25079600  0.37751300  1
  Fe  Fe4  1  0.99988200  0.75026600  0.37549400  1
  Fe  Fe5  1  0.74947700  0.99757600  0.62592100  1
  Fe  Fe6  1  0.25037900  0.99872900  0.62599100  1
  Fe  Fe7  1  0.50014100  0.25318600  0.87595500  1
  Fe  Fe8  1  0.49963000  0.74726700  0.87551700  1
  Cu  Cu0  1  0.49970500  0.99822500  0.25336500  1
  Cu  Cu1  1  0.49997100  0.50021900  0.50174000  1
  Cu  Cu2  1  0.00014700  0.50266600  0.74705600  1
  O  O0  1  0.49933400  0.72410200  0.10928000  1
  O  O1  1  0.50036300  0.27658000  0.11056500  1
  O  O2  1  0.00076600  0.26783400  0.12806600  1
  O  O3  1  0.00143300  0.73054200  0.13199500  1
  O  O4  1  0.22657500  0.50664000  0.35662800  1
  O  O5  1  0.77173100  0.50647200  0.35784200  1
  O  O6  1  0.77134700  0.99497900  0.39135800  1
  O  O7  1  0.22716200  0.99288300  0.38938900  1
  O  O8  1  0.99915200  0.77638900  0.61124200  1
  O  O9  1  0.00170800  0.21890400  0.61883100  1
  O  O10  1  0.49960900  0.22455200  0.64221600  1
  O  O11  1  0.49896800  0.77834000  0.64174900  1
  O  O12  1  0.72962100  0.99816800  0.86645500  1
  O  O13  1  0.27064800  0.99910800  0.86654200  1
  O  O14  1  0.27821000  0.50128500  0.88761800  1
  O  O15  1  0.72265500  0.50311500  0.88916600  1
loop_
_geom_bond_atom_site_label_1
_geom_bond_atom_site_label_2
_geom_bond_distance
_geom_bond_site_symmetry_2
Fe0 O2 1.917207 1_566
Fe0 O13 1.921957 1_555
Fe0 O12 1.927196 1_455
Fe0 O3 1.938431 1_556
Fe1 O0 1.946525 1_555
Fe1 O1 1.958637 1_555
Fe1 O4 1.958668 1_555
Fe1 O14 1.964287 1_554
Fe1 O3 2.002663 1_555
Fe1 O2 2.022735 1_555
Fe2 O15 1.950577 1_554
Fe2 O0 1.956033 1_555
Fe2 O1 1.960317 1_555
Fe2 O5 1.968451 1_555
Fe2 O3 2.009281 1_655
Fe2 O2 2.026540 1_655
Fe3 O4 2.015218 1_655
Fe3 O6 2.016547 1_545
Fe3 O5 2.018555 1_555
Fe3 O7 2.021551 1_645
Fe3 O9 2.022598 1_655
Fe3 O2 2.083396 1_655
Fe4 O7 1.953620 1_655
Fe4 O4 1.958761 1_655
Fe4 O5 1.964067 1_555
Fe4 O6 1.969048 1_555
Fe4 O8 1.970792 1_555
Fe4 O3 2.033050 1_655
Fe5 O11 1.957877 1_555
Fe5 O6 1.960228 1_555
Fe5 O8 1.960366 1_555
Fe5 O9 1.969634 1_665
Fe5 O10 1.984739 1_565
Fe5 O12 2.009233 1_555
Fe6 O9 1.950025 1_565
Fe6 O11 1.954373 1_555
Fe6 O8 1.971192 1_455
Fe6 O10 1.976904 1_565
Fe6 O7 1.977800 1_555
Fe6 O13 2.009511 1_555
Fe7 O10 1.955190 1_555
Fe7 O14 1.955878 1_555
Fe7 O1 1.960258 1_556
Fe7 O15 1.966300 1_555
Fe7 O13 2.010348 1_545
Fe7 O12 2.014921 1_545
Fe8 O15 1.945027 1_555
Fe8 O14 1.945464 1_555
Fe8 O0 1.955209 1_556
Fe8 O11 1.959396 1_555
Fe8 O12 1.999245 1_555
Fe8 O13 1.999805 1_555
Cu0 O7 1.958722 1_555
Cu0 O6 1.963693 1_555
Cu0 O0 2.002864 1_555
Cu0 O1 2.031298 1_565
Cu1 O5 1.993929 1_555
Cu1 O11 2.001926 1_555
Cu1 O10 2.007022 1_555
Cu1 O4 2.007604 1_555
Cu2 O9 1.974694 1_555
Cu2 O8 1.974972 1_455
Cu2 O14 2.006598 1_555
Cu2 O15 2.011506 1_455
