# generated using pymatgen
data_TmCuPbSe3
_symmetry_space_group_name_H-M   'P 1'
_cell_length_a   7.09210038
_cell_length_b   7.09210038
_cell_length_c   10.54784200
_cell_angle_alpha   90.00000000
_cell_angle_beta   90.00000000
_cell_angle_gamma   146.84397898
_symmetry_Int_Tables_number   1
_chemical_formula_structural   TmCuPbSe3
_chemical_formula_sum   'Tm2 Cu2 Pb2 Se6'
_cell_volume   290.16016409
_cell_formula_units_Z   2
loop_
 _symmetry_equiv_pos_site_id
 _symmetry_equiv_pos_as_xyz
  1  'x, y, z'
loop_
 _atom_site_type_symbol
 _atom_site_label
 _atom_site_symmetry_multiplicity
 _atom_site_fract_x
 _atom_site_fract_y
 _atom_site_fract_z
 _atom_site_occupancy
  Tm  Tm0  1  0.49920800  0.50079200  0.49743900  1
  Tm  Tm1  1  0.50079200  0.49920800  0.99743900  1
  Cu  Cu0  1  0.03391500  0.96608500  0.24522400  1
  Cu  Cu1  1  0.96608500  0.03391500  0.74522400  1
  Pb  Pb0  1  0.25716100  0.74283900  0.75655600  1
  Pb  Pb1  1  0.74283900  0.25716100  0.25655600  1
  Se  Se0  1  0.14132800  0.85867200  0.43184200  1
  Se  Se1  1  0.14167200  0.85832800  0.05675300  1
  Se  Se2  1  0.85867200  0.14132800  0.93184200  1
  Se  Se3  1  0.85832800  0.14167200  0.55675300  1
  Se  Se4  1  0.42360500  0.57639500  0.24700800  1
  Se  Se5  1  0.57639500  0.42360500  0.74700800  1
loop_
_geom_bond_atom_site_label_1
_geom_bond_atom_site_label_2
_geom_bond_distance
_geom_bond_site_symmetry_2
Cu0 Se0 2.450909 1_555
Cu0 Se1 2.469405 1_555
Cu0 Se4 2.518701 1_565
Cu0 Se4 2.518701 1_455
Cu1 Se2 2.450909 1_555
Cu1 Se3 2.469405 1_555
Cu1 Se5 2.518701 1_545
Cu1 Se5 2.518701 1_655
Pb0 Se2 3.068784 1_565
Pb0 Se2 3.068784 1_455
Pb0 Se5 3.184933 1_455
Pb0 Se5 3.184933 1_565
Pb0 Se3 3.229191 1_565
Pb0 Se3 3.229191 1_455
Pb1 Se0 3.068784 1_545
Pb1 Se0 3.068784 1_655
Pb1 Se4 3.184933 1_545
Pb1 Se4 3.184933 1_655
Pb1 Se1 3.229191 1_545
Pb1 Se1 3.229191 1_655
Se0 Tm0 2.882056 1_455
Se0 Tm0 2.882056 1_565
Se1 Tm1 2.855534 1_564
Se1 Tm1 2.855534 1_454
Se2 Tm1 2.882056 1_545
Se2 Tm1 2.882056 1_655
Se3 Tm0 2.855534 1_655
Se3 Tm0 2.855534 1_545
Se4 Tm1 2.833847 1_554
Se4 Tm0 2.834416 1_555
Se5 Tm0 2.833847 1_555
Se5 Tm1 2.834416 1_555
