# generated using pymatgen
data_Li3V6Fe4(CuO12)2
_symmetry_space_group_name_H-M   'P 1'
_cell_length_a   8.19833000
_cell_length_b   9.97775036
_cell_length_c   6.76997112
_cell_angle_alpha   104.28354970
_cell_angle_beta   103.08317099
_cell_angle_gamma   106.69839611
_symmetry_Int_Tables_number   1
_chemical_formula_structural   Li3V6Fe4(CuO12)2
_chemical_formula_sum   'Li3 V6 Fe4 Cu2 O24'
_cell_volume   486.96736914
_cell_formula_units_Z   1
loop_
 _symmetry_equiv_pos_site_id
 _symmetry_equiv_pos_as_xyz
  1  'x, y, z'
loop_
 _atom_site_type_symbol
 _atom_site_label
 _atom_site_symmetry_multiplicity
 _atom_site_fract_x
 _atom_site_fract_y
 _atom_site_fract_z
 _atom_site_occupancy
  Li  Li0  1  0.09955000  0.39523800  0.05747600  1
  Li  Li1  1  0.00000000  0.00000000  0.00000000  1
  Li  Li2  1  0.90045000  0.60476200  0.94252400  1
  V  V0  1  0.76639000  0.22155500  0.16151400  1
  V  V1  1  0.37983900  0.40834900  0.23206000  1
  V  V2  1  0.15965100  0.87834400  0.38935300  1
  V  V3  1  0.84034900  0.12165600  0.61064700  1
  V  V4  1  0.62016100  0.59165100  0.76794000  1
  V  V5  1  0.23361000  0.77844500  0.83848600  1
  Fe  Fe0  1  0.48897000  0.95531000  0.29605100  1
  Fe  Fe1  1  0.89304900  0.62167400  0.55038600  1
  Fe  Fe2  1  0.10695100  0.37832600  0.44961400  1
  Fe  Fe3  1  0.51103000  0.04469000  0.70394900  1
  Cu  Cu0  1  0.70204000  0.71708900  0.21439400  1
  Cu  Cu1  1  0.29796000  0.28291100  0.78560600  1
  O  O0  1  0.32047100  0.81296600  0.05846700  1
  O  O1  1  0.95366700  0.23173900  0.19178500  1
  O  O2  1  0.66514100  0.00519100  0.21519500  1
  O  O3  1  0.25961200  0.30925600  0.00806400  1
  O  O4  1  0.76667800  0.47622500  0.28019700  1
  O  O5  1  0.51175000  0.66109700  0.27486500  1
  O  O6  1  0.06532100  0.80508900  0.16503900  1
  O  O7  1  0.85401200  0.87966100  0.50067400  1
  O  O8  1  0.46811800  0.23158500  0.28679300  1
  O  O9  1  0.35245800  0.91818900  0.43845400  1
  O  O10  1  0.92318700  0.32847100  0.53049600  1
  O  O11  1  0.25194800  0.43605900  0.33668500  1
  O  O12  1  0.74805200  0.56394100  0.66331500  1
  O  O13  1  0.07681300  0.67152900  0.46950400  1
  O  O14  1  0.64754200  0.08181100  0.56154600  1
  O  O15  1  0.53188200  0.76841500  0.71320700  1
  O  O16  1  0.14598800  0.12033900  0.49932600  1
  O  O17  1  0.93467900  0.19491100  0.83496100  1
  O  O18  1  0.48825000  0.33890300  0.72513500  1
  O  O19  1  0.23332200  0.52377500  0.71980300  1
  O  O20  1  0.74038800  0.69074400  0.99193600  1
  O  O21  1  0.33485900  0.99480900  0.78480500  1
  O  O22  1  0.04633300  0.76826100  0.80821500  1
  O  O23  1  0.67952900  0.18703400  0.94153300  1
loop_
_geom_bond_atom_site_label_1
_geom_bond_atom_site_label_2
_geom_bond_distance
_geom_bond_site_symmetry_2
Li0 O3 1.809408 1_555
Li0 O11 1.886364 1_555
Li0 O17 2.032571 1_454
Li0 O1 2.240878 1_455
Li1 O1 2.534390 1_455
Li1 O22 2.534390 1_544
Li1 O6 2.591742 1_545
Li1 O17 2.591742 1_454
Li2 O20 1.809408 1_555
Li2 O12 1.886364 1_555
Li2 O6 2.032571 1_656
Li2 O22 2.240878 1_655
Fe0 O2 1.647010 1_565
Fe0 O9 1.656986 1_555
Fe0 O0 1.803302 1_555
Fe0 O14 1.842155 1_565
Fe1 O12 1.601457 1_555
Fe1 O13 1.701237 1_655
Fe1 O22 1.859069 1_655
Fe1 O4 1.869086 1_555
Fe2 O11 1.601457 1_555
Fe2 O10 1.701237 1_455
Fe2 O1 1.859069 1_455
Fe2 O19 1.869086 1_555
Fe3 O21 1.647010 1_545
Fe3 O14 1.656986 1_555
Fe3 O23 1.803302 1_555
Fe3 O9 1.842155 1_545
Cu0 O20 1.581956 1_554
Cu0 O5 1.677690 1_555
Cu0 O7 2.033194 1_555
Cu1 O3 1.581956 1_556
Cu1 O18 1.677690 1_555
Cu1 O16 2.033194 1_555
O0 V5 1.403371 1_554
O1 V0 1.472164 1_555
O2 V0 2.230591 1_555
O2 V3 2.519066 1_555
O3 V1 1.507360 1_555
O4 V0 2.467932 1_555
O5 V1 2.354466 1_555
O6 V2 1.426262 1_555
O7 V3 2.388118 1_565
O8 V1 2.169417 1_555
O9 V2 1.450145 1_555
O10 V3 2.219885 1_555
O10 V0 2.339595 1_555
O11 V1 1.443489 1_555
O12 V4 1.443489 1_555
O13 V2 2.219885 1_555
O13 V5 2.339595 1_555
O14 V3 1.450145 1_555
O15 V4 2.169417 1_555
O16 V2 2.388118 1_545
O17 V3 1.426262 1_555
O18 V4 2.354466 1_555
O19 V5 2.467932 1_555
O20 V4 1.507360 1_555
O21 V5 2.230591 1_555
O21 V2 2.519066 1_555
O22 V5 1.472164 1_555
O23 V0 1.403371 1_556
