# generated using pymatgen
data_Ca3Sn4S11
_symmetry_space_group_name_H-M   'P 1'
_cell_length_a   9.89065300
_cell_length_b   10.06299814
_cell_length_c   10.26034072
_cell_angle_alpha   94.95721407
_cell_angle_beta   114.30745358
_cell_angle_gamma   104.03004863
_symmetry_Int_Tables_number   1
_chemical_formula_structural   Ca3Sn4S11
_chemical_formula_sum   'Ca6 Sn8 S22'
_cell_volume   882.66402096
_cell_formula_units_Z   2
loop_
 _symmetry_equiv_pos_site_id
 _symmetry_equiv_pos_as_xyz
  1  'x, y, z'
loop_
 _atom_site_type_symbol
 _atom_site_label
 _atom_site_symmetry_multiplicity
 _atom_site_fract_x
 _atom_site_fract_y
 _atom_site_fract_z
 _atom_site_occupancy
  Ca  Ca0  1  0.48530800  0.68875800  0.67686500  1
  Ca  Ca1  1  0.90656700  0.62574200  0.48292600  1
  Ca  Ca2  1  0.54536500  0.25870800  0.18165200  1
  Ca  Ca3  1  0.71910000  0.79439400  0.09833500  1
  Ca  Ca4  1  0.09082200  0.14355000  0.40418000  1
  Ca  Ca5  1  0.14630800  0.71581200  0.93030000  1
  Sn  Sn0  1  0.98646800  0.03735400  0.92517400  1
  Sn  Sn1  1  0.83569200  0.38252500  0.04501400  1
  Sn  Sn2  1  0.39834600  0.03368000  0.73712400  1
  Sn  Sn3  1  0.70478700  0.36935800  0.67927100  1
  Sn  Sn4  1  0.25293300  0.38450100  0.83328100  1
  Sn  Sn5  1  0.27462600  0.86409100  0.33681100  1
  Sn  Sn6  1  0.35728000  0.52897900  0.28481700  1
  Sn  Sn7  1  0.79677800  0.03663100  0.53938500  1
  S  S0  1  0.22724500  0.79340600  0.57012200  1
  S  S1  1  0.87132500  0.77401900  0.74231900  1
  S  S2  1  0.60134800  0.45734600  0.43404300  1
  S  S3  1  0.11943000  0.12840200  0.69848000  1
  S  S4  1  0.28647400  0.00424000  0.96287000  1
  S  S5  1  0.87710900  0.88640400  0.39905400  1
  S  S6  1  0.20641700  0.45541900  0.43085900  1
  S  S7  1  0.51376600  0.77721800  0.42103600  1
  S  S8  1  0.12381500  0.61885100  0.16937400  1
  S  S9  1  0.63459600  0.95669300  0.85714200  1
  S  S10  1  0.41656700  0.94336100  0.15534700  1
  S  S11  1  0.00389900  0.46499200  0.71527100  1
  S  S12  1  0.25590900  0.32341400  0.07902500  1
  S  S13  1  0.39837600  0.10363900  0.50081800  1
  S  S14  1  0.84447000  0.25173100  0.39723000  1
  S  S15  1  0.79535200  0.16092300  0.18239500  1
  S  S16  1  0.03911900  0.93946500  0.16033300  1
  S  S17  1  0.74835700  0.52866000  0.18253700  1
  S  S18  1  0.77259700  0.63466000  0.84451700  1
  S  S19  1  0.50898900  0.28289600  0.88739200  1
  S  S20  1  0.40183700  0.63453900  0.93747700  1
  S  S21  1  0.34772100  0.39393900  0.61632500  1
loop_
_geom_bond_atom_site_label_1
_geom_bond_atom_site_label_2
_geom_bond_distance
_geom_bond_site_symmetry_2
Ca0 S9 2.798315 1_555
Ca0 S0 2.832745 1_555
Ca0 S21 2.840331 1_555
Ca0 S18 2.866566 1_555
Ca0 S7 2.941476 1_555
Ca0 S6 3.097858 1_555
Ca0 S20 3.159199 1_555
Ca1 S17 2.769517 1_555
Ca1 S5 2.874028 1_555
Ca1 S2 2.891819 1_555
Ca1 S0 2.918084 1_655
Ca1 S11 2.959523 1_655
Ca1 S1 3.124239 1_555
Ca2 S15 2.871795 1_555
Ca2 S12 2.875679 1_555
Ca2 S14 2.896497 1_555
Ca2 S2 2.897683 1_555
Ca2 S19 2.929077 1_554
Ca2 S17 2.957504 1_555
Ca2 S4 3.041083 1_554
Ca2 S10 3.061795 1_545
Ca3 S5 2.766716 1_555
Ca3 S20 2.826359 1_554
Ca3 S16 2.914753 1_655
Ca3 S17 2.923948 1_555
Ca3 S9 3.024524 1_554
Ca3 S18 3.235620 1_554
Ca4 S14 2.878125 1_455
Ca4 S16 2.878966 1_545
Ca4 S5 2.898214 1_445
Ca4 S13 2.928436 1_555
Ca4 S15 2.931017 1_455
Ca4 S3 2.935720 1_555
Ca4 S21 2.989568 1_555
Ca4 S6 3.014200 1_555
Ca5 S8 2.788601 1_556
Ca5 S20 2.814460 1_555
Ca5 S4 2.820959 1_565
Ca5 S11 2.824474 1_555
Ca5 S1 2.847681 1_455
Ca5 S10 2.959275 1_556
Ca5 S18 3.292069 1_455
S0 Sn2 2.561027 1_565
S0 Sn5 2.740858 1_555
S1 S18 2.110174 1_555
S1 Sn0 2.785247 1_565
S2 Sn6 2.585123 1_555
S2 Sn3 2.620407 1_555
S3 Sn4 2.555112 1_555
S3 Sn7 2.779100 1_455
S3 Sn2 3.019232 1_555
S4 Sn0 2.936341 1_455
S4 Sn2 2.957463 1_555
S5 Sn7 2.477452 1_565
S6 Sn6 2.552764 1_555
S7 Sn6 2.515986 1_555
S7 Sn5 2.560431 1_555
S7 Sn7 3.038973 1_565
S8 Sn6 2.549295 1_555
S8 Sn5 2.576705 1_555
S8 Sn1 2.932699 1_455
S9 Sn2 2.500065 1_565
S9 Sn0 3.128996 1_565
S10 S4 2.104845 1_564
S10 Sn5 2.817701 1_555
S11 Sn4 2.621182 1_555
S11 Sn3 2.733732 1_455
S12 Sn6 2.497881 1_555
S12 Sn4 2.636633 1_554
S13 Sn5 2.512649 1_545
S13 Sn2 2.582573 1_555
S14 S15 2.117766 1_555
S14 Sn7 2.766254 1_555
S15 Sn1 2.773763 1_555
S16 Sn0 2.586164 1_464
S16 Sn5 2.627054 1_555
S17 Sn1 2.482022 1_555
S18 Sn3 2.804520 1_555
S19 Sn2 2.544821 1_555
S19 Sn1 2.812251 1_556
S19 Sn4 2.821978 1_555
S20 Sn4 2.466785 1_555
S21 S6 2.095330 1_555
S21 Sn4 2.748581 1_555
