# generated using pymatgen
data_TaFeRu2
_symmetry_space_group_name_H-M   'P 1'
_cell_length_a   4.35358197
_cell_length_b   4.35358197
_cell_length_c   4.35358194
_cell_angle_alpha   60.00010907
_cell_angle_beta   60.00010923
_cell_angle_gamma   60.00010815
_symmetry_Int_Tables_number   1
_chemical_formula_structural   TaFeRu2
_chemical_formula_sum   'Ta1 Fe1 Ru2'
_cell_volume   58.34803682
_cell_formula_units_Z   1
loop_
 _symmetry_equiv_pos_site_id
 _symmetry_equiv_pos_as_xyz
  1  'x, y, z'
loop_
 _atom_site_type_symbol
 _atom_site_label
 _atom_site_symmetry_multiplicity
 _atom_site_fract_x
 _atom_site_fract_y
 _atom_site_fract_z
 _atom_site_occupancy
  Ta  Ta0  1  0.75000077  0.75000072  0.75000072  1
  Fe  Fe0  1  0.25000001  0.24999996  0.24999995  1
  Ru  Ru0  1  0.49999917  0.49999922  0.49999922  1
  Ru  Ru1  1  0.00000005  0.00000010  0.00000011  1
loop_
_geom_bond_atom_site_label_1
_geom_bond_atom_site_label_2
_geom_bond_distance
_geom_bond_site_symmetry_2
Fe0 Ru0 2.666003 1_555
Fe0 Ru1 2.666010 1_555
Fe0 Ru1 2.666017 1_655
Fe0 Ru1 2.666018 1_565
Fe0 Ru1 2.666018 1_556
Fe0 Ru0 2.666020 1_554
Fe0 Ru0 2.666020 1_545
Fe0 Ru0 2.666020 1_455
Ru0 Ta0 2.666012 1_455
Ru0 Ta0 2.666012 1_545
Ru0 Ta0 2.666012 1_554
Ru0 Ta0 2.666028 1_555
Ru1 Ta0 2.666004 1_444
Ru1 Ta0 2.666019 1_445
Ru1 Ta0 2.666019 1_454
Ru1 Ta0 2.666020 1_544
