# generated using pymatgen
data_Ba2VP2O11
_symmetry_space_group_name_H-M   'P 1'
_cell_length_a   8.92565500
_cell_length_b   5.17185300
_cell_length_c   10.59846981
_cell_angle_alpha   88.02784304
_cell_angle_beta   90.00000000
_cell_angle_gamma   90.00000000
_symmetry_Int_Tables_number   1
_chemical_formula_structural   Ba2VP2O11
_chemical_formula_sum   'Ba4 V2 P4 O22'
_cell_volume   488.95862697
_cell_formula_units_Z   2
loop_
 _symmetry_equiv_pos_site_id
 _symmetry_equiv_pos_as_xyz
  1  'x, y, z'
loop_
 _atom_site_type_symbol
 _atom_site_label
 _atom_site_symmetry_multiplicity
 _atom_site_fract_x
 _atom_site_fract_y
 _atom_site_fract_z
 _atom_site_occupancy
  Ba  Ba0  1  0.01083100  0.02543800  0.95162600  1
  Ba  Ba1  1  0.51083100  0.97456200  0.04837400  1
  Ba  Ba2  1  0.65141700  0.99928500  0.62024000  1
  Ba  Ba3  1  0.15141700  0.00071500  0.37976000  1
  V  V0  1  0.99543500  0.44472500  0.67172000  1
  V  V1  1  0.49543500  0.55527500  0.32828000  1
  P  P0  1  0.71530400  0.50009100  0.85567700  1
  P  P1  1  0.21530400  0.49990900  0.14432300  1
  P  P2  1  0.35125100  0.45722800  0.58919300  1
  P  P3  1  0.85125100  0.54277200  0.41080700  1
  O  O0  1  0.07178300  0.55441200  0.80135100  1
  O  O1  1  0.57178300  0.44558800  0.19864900  1
  O  O2  1  0.95715500  0.13080900  0.70020300  1
  O  O3  1  0.45715500  0.86919100  0.29979700  1
  O  O4  1  0.78389300  0.54379400  0.71788200  1
  O  O5  1  0.28389300  0.45620600  0.28211800  1
  O  O6  1  0.18313700  0.38030500  0.57241700  1
  O  O7  1  0.68313700  0.61969500  0.42758300  1
  O  O8  1  0.93914200  0.67270200  0.52269700  1
  O  O9  1  0.43914200  0.32729800  0.47730300  1
  O  O10  1  0.56519800  0.64856800  0.85341400  1
  O  O11  1  0.06519800  0.35143200  0.14658600  1
  O  O12  1  0.81328500  0.62782500  0.95545000  1
  O  O13  1  0.31328500  0.37217500  0.04455000  1
  O  O14  1  0.70400500  0.20662100  0.88058500  1
  O  O15  1  0.20400500  0.79337900  0.11941500  1
  O  O16  1  0.42030000  0.32913400  0.71145100  1
  O  O17  1  0.92030000  0.67086600  0.28854900  1
  O  O18  1  0.37297300  0.74848400  0.57761100  1
  O  O19  1  0.87297300  0.25151600  0.42238900  1
  O  O20  1  0.30772100  0.06387700  0.83656300  1
  O  O21  1  0.80772100  0.93612300  0.16343700  1
loop_
_geom_bond_atom_site_label_1
_geom_bond_atom_site_label_2
_geom_bond_distance
_geom_bond_site_symmetry_2
Ba0 O12 2.708070 1_445
Ba0 O15 2.725579 1_546
Ba0 O2 2.743572 1_455
Ba0 O11 2.754511 1_556
Ba0 O21 2.909987 1_446
Ba0 O20 2.920987 1_555
Ba0 O14 2.982693 1_455
Ba0 O0 3.005684 1_545
Ba0 O0 3.164995 1_555
Ba1 O13 2.708070 1_565
Ba1 O14 2.725579 1_564
Ba1 O3 2.743572 1_555
Ba1 O10 2.754511 1_554
Ba1 O20 2.909987 1_564
Ba1 O21 2.920987 1_555
Ba1 O15 2.982693 1_555
Ba1 O1 3.005684 1_565
Ba1 O1 3.164995 1_555
Ba2 O4 2.801921 1_555
Ba2 O18 2.846689 1_555
Ba2 O16 2.865945 1_565
Ba2 O7 2.894716 1_555
Ba2 O9 2.930159 1_565
Ba2 O2 2.944074 1_565
Ba2 O14 3.031060 1_565
Ba2 O10 3.111437 1_555
Ba2 O19 3.133871 1_565
Ba2 O4 3.255794 1_565
Ba2 O8 3.261458 1_555
Ba3 O5 2.801921 1_555
Ba3 O19 2.846689 1_455
Ba3 O17 2.865945 1_445
Ba3 O6 2.894716 1_555
Ba3 O8 2.930159 1_445
Ba3 O3 2.944074 1_545
Ba3 O15 3.031060 1_545
Ba3 O11 3.111437 1_555
Ba3 O18 3.133871 1_545
Ba3 O5 3.255794 1_545
Ba3 O9 3.261458 1_555
O0 V0 1.651488 1_455
O1 V1 1.651488 1_555
O2 V0 1.676299 1_555
O3 V1 1.676299 1_555
O4 P0 1.592474 1_555
O4 V0 2.020953 1_555
O5 P1 1.592474 1_555
O5 V1 2.020953 1_555
O6 P2 1.564077 1_555
O6 V0 2.012374 1_455
O7 P3 1.564077 1_555
O7 V1 2.012374 1_555
O8 P3 1.589997 1_555
O8 V0 2.002256 1_555
O9 P2 1.589997 1_555
O9 V1 2.002256 1_555
O10 P0 1.544030 1_555
O11 P1 1.544030 1_555
O12 P0 1.538672 1_555
O13 P1 1.538672 1_555
O14 P0 1.534910 1_555
O15 P1 1.534910 1_555
O16 P2 1.561601 1_555
O17 P3 1.561601 1_555
O18 P2 1.519530 1_555
O19 P3 1.519530 1_555
