# generated using pymatgen
data_Mg2ZnB2Ir5
_symmetry_space_group_name_H-M   'P 1'
_cell_length_a   9.49068700
_cell_length_b   9.49068700
_cell_length_c   2.94724500
_cell_angle_alpha   90.00000000
_cell_angle_beta   90.00000000
_cell_angle_gamma   90.00000000
_symmetry_Int_Tables_number   1
_chemical_formula_structural   Mg2ZnB2Ir5
_chemical_formula_sum   'Mg4 Zn2 B4 Ir10'
_cell_volume   265.46761071
_cell_formula_units_Z   2
loop_
 _symmetry_equiv_pos_site_id
 _symmetry_equiv_pos_as_xyz
  1  'x, y, z'
loop_
 _atom_site_type_symbol
 _atom_site_label
 _atom_site_symmetry_multiplicity
 _atom_site_fract_x
 _atom_site_fract_y
 _atom_site_fract_z
 _atom_site_occupancy
  Mg  Mg0  1  0.32322900  0.82322900  0.00000000  1
  Mg  Mg1  1  0.67677100  0.17677100  0.00000000  1
  Mg  Mg2  1  0.17677100  0.32322900  0.00000000  1
  Mg  Mg3  1  0.82322900  0.67677100  0.00000000  1
  Zn  Zn0  1  0.50000000  0.50000000  0.00000000  1
  Zn  Zn1  1  0.00000000  0.00000000  0.00000000  1
  B  B0  1  0.12689600  0.62689600  0.00000000  1
  B  B1  1  0.87310400  0.37310400  0.00000000  1
  B  B2  1  0.37310400  0.12689600  0.00000000  1
  B  B3  1  0.62689600  0.87310400  0.00000000  1
  Ir  Ir0  1  0.57054200  0.71563000  0.50000000  1
  Ir  Ir1  1  0.42945800  0.28437000  0.50000000  1
  Ir  Ir2  1  0.92945800  0.21563000  0.50000000  1
  Ir  Ir3  1  0.07054200  0.78437000  0.50000000  1
  Ir  Ir4  1  0.78437000  0.92945800  0.50000000  1
  Ir  Ir5  1  0.21563000  0.07054200  0.50000000  1
  Ir  Ir6  1  0.28437000  0.57054200  0.50000000  1
  Ir  Ir7  1  0.71563000  0.42945800  0.50000000  1
  Ir  Ir8  1  0.00000000  0.50000000  0.50000000  1
  Ir  Ir9  1  0.50000000  0.00000000  0.50000000  1
loop_
_geom_bond_atom_site_label_1
_geom_bond_atom_site_label_2
_geom_bond_distance
_geom_bond_site_symmetry_2
B0 Ir6 2.165930 1_554
B0 Ir3 2.165930 1_554
B0 Ir6 2.165930 1_555
B0 Ir3 2.165930 1_555
B0 Ir8 2.252196 1_555
B0 Ir8 2.252196 1_554
B0 Mg0 2.635154 1_555
B1 Ir7 2.165930 1_554
B1 Ir2 2.165930 1_555
B1 Ir2 2.165930 1_554
B1 Ir7 2.165930 1_555
B1 Ir8 2.252196 1_655
B1 Ir8 2.252196 1_654
B1 Mg1 2.635154 1_555
B2 Ir1 2.165930 1_555
B2 Ir5 2.165930 1_555
B2 Ir1 2.165930 1_554
B2 Ir5 2.165930 1_554
B2 Ir9 2.252196 1_554
B2 Ir9 2.252196 1_555
B2 Mg2 2.635154 1_555
B3 Ir0 2.165930 1_555
B3 Ir4 2.165930 1_555
B3 Ir0 2.165930 1_554
B3 Ir4 2.165930 1_554
B3 Ir9 2.252196 1_564
B3 Ir9 2.252196 1_565
B3 Mg3 2.635154 1_555
Ir0 Zn0 2.609186 1_556
Ir0 Zn0 2.609186 1_555
Ir0 Mg3 2.838804 1_556
Ir0 Mg3 2.838804 1_555
Ir0 Mg0 2.953574 1_555
Ir0 Mg0 2.953574 1_556
Ir1 Zn0 2.609186 1_556
Ir1 Zn0 2.609186 1_555
Ir1 Mg2 2.838804 1_555
Ir1 Mg2 2.838804 1_556
Ir1 Mg1 2.953574 1_555
Ir1 Mg1 2.953574 1_556
Ir2 Zn1 2.609186 1_655
Ir2 Zn1 2.609186 1_656
Ir2 Mg1 2.838804 1_555
Ir2 Mg1 2.838804 1_556
Ir2 Mg2 2.953574 1_656
Ir2 Mg2 2.953574 1_655
Ir3 Zn1 2.609186 1_566
Ir3 Zn1 2.609186 1_565
Ir3 Mg0 2.838804 1_555
Ir3 Mg0 2.838804 1_556
Ir3 Mg3 2.953574 1_455
Ir3 Mg3 2.953574 1_456
Ir4 Zn1 2.609186 1_665
Ir4 Zn1 2.609186 1_666
Ir4 Mg3 2.838804 1_556
Ir4 Mg3 2.838804 1_555
Ir4 Mg1 2.953574 1_565
Ir4 Mg1 2.953574 1_566
Ir5 Zn1 2.609186 1_556
Ir5 Zn1 2.609186 1_555
Ir5 Mg2 2.838804 1_556
Ir5 Mg2 2.838804 1_555
Ir5 Mg0 2.953574 1_545
Ir5 Mg0 2.953574 1_546
Ir6 Zn0 2.609186 1_556
Ir6 Zn0 2.609186 1_555
Ir6 Mg0 2.838804 1_555
Ir6 Mg0 2.838804 1_556
Ir6 Mg2 2.953574 1_555
Ir6 Mg2 2.953574 1_556
Ir7 Zn0 2.609186 1_556
Ir7 Zn0 2.609186 1_555
Ir7 Mg1 2.838804 1_556
Ir7 Mg1 2.838804 1_555
Ir7 Mg3 2.953574 1_556
Ir7 Mg3 2.953574 1_555
Ir8 Mg3 2.792986 1_456
Ir8 Mg2 2.792986 1_556
Ir8 Mg2 2.792986 1_555
Ir8 Mg3 2.792986 1_455
Ir9 Mg1 2.792986 1_556
Ir9 Mg0 2.792986 1_545
Ir9 Mg1 2.792986 1_555
Ir9 Mg0 2.792986 1_546
