# generated using pymatgen
data_Ca2SnS4
_symmetry_space_group_name_H-M   'P 1'
_cell_length_a   7.15729700
_cell_length_b   6.80156100
_cell_length_c   15.57905626
_cell_angle_alpha   73.65680535
_cell_angle_beta   90.00000000
_cell_angle_gamma   90.00000000
_symmetry_Int_Tables_number   1
_chemical_formula_structural   Ca2SnS4
_chemical_formula_sum   'Ca8 Sn4 S16'
_cell_volume   727.75642295
_cell_formula_units_Z   4
loop_
 _symmetry_equiv_pos_site_id
 _symmetry_equiv_pos_as_xyz
  1  'x, y, z'
loop_
 _atom_site_type_symbol
 _atom_site_label
 _atom_site_symmetry_multiplicity
 _atom_site_fract_x
 _atom_site_fract_y
 _atom_site_fract_z
 _atom_site_occupancy
  Ca  Ca0  1  0.24696000  0.79593500  0.02361100  1
  Ca  Ca1  1  0.74696000  0.20406500  0.47638900  1
  Ca  Ca2  1  0.75304000  0.20406500  0.97638900  1
  Ca  Ca3  1  0.25304000  0.79593500  0.52361100  1
  Ca  Ca4  1  0.33103800  0.74072600  0.28270600  1
  Ca  Ca5  1  0.83103800  0.25927400  0.21729400  1
  Ca  Ca6  1  0.66896200  0.25927400  0.71729400  1
  Ca  Ca7  1  0.16896200  0.74072600  0.78270600  1
  Sn  Sn0  1  0.26464000  0.25671600  0.09450700  1
  Sn  Sn1  1  0.76464000  0.74328400  0.40549300  1
  Sn  Sn2  1  0.73536000  0.74328400  0.90549300  1
  Sn  Sn3  1  0.23536000  0.25671600  0.59450700  1
  S  S0  1  0.00862600  0.01230900  0.12027200  1
  S  S1  1  0.50862600  0.98769100  0.37972800  1
  S  S2  1  0.99137400  0.98769100  0.87972800  1
  S  S3  1  0.49137400  0.01230900  0.62027200  1
  S  S4  1  0.01406000  0.99216600  0.37207900  1
  S  S5  1  0.51406000  0.00783400  0.12792100  1
  S  S6  1  0.98594000  0.00783400  0.62792100  1
  S  S7  1  0.48594000  0.99216600  0.87207900  1
  S  S8  1  0.18562300  0.47441300  0.18667200  1
  S  S9  1  0.68562300  0.52558700  0.31332800  1
  S  S10  1  0.81437700  0.52558700  0.81332800  1
  S  S11  1  0.31437700  0.47441300  0.68667200  1
  S  S12  1  0.21655700  0.46647400  0.44391700  1
  S  S13  1  0.71655700  0.53352600  0.05608300  1
  S  S14  1  0.78344300  0.53352600  0.55608300  1
  S  S15  1  0.28344300  0.46647400  0.94391700  1
loop_
_geom_bond_atom_site_label_1
_geom_bond_atom_site_label_2
_geom_bond_distance
_geom_bond_site_symmetry_2
Ca0 S15 2.863003 1_554
Ca0 S8 2.881305 1_555
Ca0 S2 2.902876 1_454
Ca0 S7 2.916645 1_554
Ca0 S0 2.930975 1_565
Ca0 S5 3.112991 1_565
Ca1 S14 2.863003 1_555
Ca1 S9 2.881305 1_555
Ca1 S3 2.902876 1_555
Ca1 S6 2.916645 1_555
Ca1 S1 2.930975 1_545
Ca1 S4 3.112991 1_645
Ca2 S13 2.863003 1_556
Ca2 S10 2.881305 1_555
Ca2 S0 2.902876 1_656
Ca2 S5 2.916645 1_556
Ca2 S2 2.930975 1_545
Ca2 S7 3.112991 1_545
Ca3 S12 2.863003 1_555
Ca3 S11 2.881305 1_555
Ca3 S1 2.902876 1_555
Ca3 S4 2.916645 1_555
Ca3 S3 2.930975 1_565
Ca3 S6 3.112991 1_465
Ca4 S12 2.796793 1_555
Ca4 S8 2.850910 1_555
Ca4 S1 2.854936 1_555
Ca4 S5 2.892388 1_565
Ca4 S9 2.901155 1_555
Ca4 S4 3.369045 1_555
Ca5 S13 2.796793 1_555
Ca5 S9 2.850910 1_555
Ca5 S0 2.854936 1_655
Ca5 S4 2.892388 1_645
Ca5 S8 2.901155 1_655
Ca5 S5 3.369045 1_555
Ca6 S14 2.796793 1_555
Ca6 S10 2.850910 1_555
Ca6 S3 2.854936 1_555
Ca6 S7 2.892388 1_545
Ca6 S11 2.901155 1_555
Ca6 S6 3.369045 1_555
Ca7 S15 2.796793 1_555
Ca7 S11 2.850910 1_555
Ca7 S2 2.854936 1_455
Ca7 S6 2.892388 1_465
Ca7 S10 2.901155 1_455
Ca7 S7 3.369045 1_555
S0 Sn0 2.430345 1_555
S1 Sn1 2.430345 1_555
S2 Sn2 2.430345 1_555
S3 Sn3 2.430345 1_555
S4 Sn1 2.414007 1_455
S5 Sn0 2.414007 1_555
S6 Sn3 2.414007 1_655
S7 Sn2 2.414007 1_555
S8 Sn0 2.402163 1_555
S9 Sn1 2.402163 1_555
S10 Sn2 2.402163 1_555
S11 Sn3 2.402163 1_555
S12 Sn3 2.381978 1_555
S13 Sn2 2.381978 1_554
S14 Sn1 2.381978 1_555
S15 Sn0 2.381978 1_556
