# generated using pymatgen
data_Li2Fe5(PO4)4
_symmetry_space_group_name_H-M   'P 1'
_cell_length_a   8.03783100
_cell_length_b   8.15800362
_cell_length_c   5.29787386
_cell_angle_alpha   91.67567703
_cell_angle_beta   101.34489065
_cell_angle_gamma   109.00338581
_symmetry_Int_Tables_number   1
_chemical_formula_structural   Li2Fe5(PO4)4
_chemical_formula_sum   'Li2 Fe5 P4 O16'
_cell_volume   320.40939113
_cell_formula_units_Z   1
loop_
 _symmetry_equiv_pos_site_id
 _symmetry_equiv_pos_as_xyz
  1  'x, y, z'
loop_
 _atom_site_type_symbol
 _atom_site_label
 _atom_site_symmetry_multiplicity
 _atom_site_fract_x
 _atom_site_fract_y
 _atom_site_fract_z
 _atom_site_occupancy
  Li  Li0  1  0.70160500  0.37929600  0.93792100  1
  Li  Li1  1  0.29839500  0.62070400  0.06207900  1
  Fe  Fe0  1  0.33148700  0.36200100  0.59339100  1
  Fe  Fe1  1  0.21613300  0.90739100  0.74308700  1
  Fe  Fe2  1  0.66851300  0.63799900  0.40660900  1
  Fe  Fe3  1  0.78386700  0.09260900  0.25691300  1
  Fe  Fe4  1  0.00000000  0.00000000  0.00000000  1
  P  P0  1  0.57250900  0.86172000  0.79336600  1
  P  P1  1  0.03012800  0.62142900  0.29654500  1
  P  P2  1  0.96987200  0.37857100  0.70345500  1
  P  P3  1  0.42749100  0.13828000  0.20663400  1
  O  O0  1  0.49430400  0.12323900  0.77401300  1
  O  O1  1  0.26545600  0.09948400  0.03159500  1
  O  O2  1  0.12986400  0.23714500  0.67608400  1
  O  O3  1  0.50569600  0.87676100  0.22598700  1
  O  O4  1  0.61877400  0.73290300  0.63086500  1
  O  O5  1  0.04090700  0.66793700  0.79521900  1
  O  O6  1  0.43161300  0.67406200  0.81832900  1
  O  O7  1  0.16933900  0.65036300  0.48419900  1
  O  O8  1  0.83066100  0.34963700  0.51580100  1
  O  O9  1  0.95909300  0.33206300  0.20478100  1
  O  O10  1  0.38122600  0.26709700  0.36913500  1
  O  O11  1  0.87013600  0.76285500  0.32391600  1
  O  O12  1  0.89870100  0.25820000  0.82930900  1
  O  O13  1  0.56838700  0.32593800  0.18167100  1
  O  O14  1  0.73454400  0.90051600  0.96840500  1
  O  O15  1  0.10129900  0.74180000  0.17069100  1
loop_
_geom_bond_atom_site_label_1
_geom_bond_atom_site_label_2
_geom_bond_distance
_geom_bond_site_symmetry_2
Li0 O13 1.810250 1_556
Li0 O0 2.225286 1_555
Li0 O12 2.271883 1_555
Li0 O9 2.414694 1_556
Li1 O6 1.810250 1_554
Li1 O3 2.225286 1_555
Li1 O15 2.271883 1_555
Li1 O5 2.414694 1_554
Fe0 O10 1.582863 1_555
Fe0 O2 1.756761 1_555
Fe1 O1 2.041106 1_566
Fe1 O5 2.066108 1_555
Fe1 O0 2.324160 1_565
Fe1 O7 2.352569 1_555
Fe2 O4 1.582863 1_555
Fe2 O11 1.756761 1_555
Fe3 O14 2.041106 1_544
Fe3 O9 2.066108 1_555
Fe3 O3 2.324160 1_545
Fe3 O8 2.352569 1_555
Fe4 O14 1.990758 1_444
Fe4 O1 1.990758 1_555
O0 P0 2.412090 1_545
O1 P3 1.376810 1_555
O2 P2 2.008927 1_455
O3 P3 2.412090 1_565
O4 P0 1.520319 1_555
O5 P2 2.254085 1_455
O6 P0 1.607918 1_555
O7 P1 1.293348 1_555
O8 P2 1.293348 1_555
O9 P1 2.254085 1_655
O10 P3 1.520319 1_555
O11 P1 2.008927 1_655
O12 P2 1.248452 1_555
O13 P3 1.607918 1_555
O14 P0 1.376810 1_555
O15 P1 1.248452 1_555
