# generated using pymatgen
data_Ti3Co2P6WO24
_symmetry_space_group_name_H-M   'P 1'
_cell_length_a   8.64581046
_cell_length_b   8.70901265
_cell_length_c   8.70901291
_cell_angle_alpha   59.99999361
_cell_angle_beta   59.75787964
_cell_angle_gamma   59.75788134
_symmetry_Int_Tables_number   1
_chemical_formula_structural   Ti3Co2P6WO24
_chemical_formula_sum   'Ti3 Co2 P6 W1 O24'
_cell_volume   461.98668197
_cell_formula_units_Z   1
loop_
 _symmetry_equiv_pos_site_id
 _symmetry_equiv_pos_as_xyz
  1  'x, y, z'
loop_
 _atom_site_type_symbol
 _atom_site_label
 _atom_site_symmetry_multiplicity
 _atom_site_fract_x
 _atom_site_fract_y
 _atom_site_fract_z
 _atom_site_occupancy
  Ti  Ti0  1  0.06801600  0.64399500  0.64399500  1
  Ti  Ti1  1  0.42777800  0.85740800  0.85740800  1
  Ti  Ti2  1  0.93115100  0.35628300  0.35628300  1
  Co  Co0  1  0.01447600  0.99517500  0.99517500  1
  Co  Co1  1  0.49827500  0.50057500  0.50057500  1
  P  P0  1  0.24698000  0.25225800  0.54603600  1
  P  P1  1  0.24698000  0.95472700  0.25225800  1
  P  P2  1  0.24698000  0.54603600  0.95472700  1
  P  P3  1  0.75145300  0.46209800  0.04248000  1
  P  P4  1  0.75145300  0.04248000  0.74396900  1
  P  P5  1  0.75145300  0.74396900  0.46209800  1
  W  W0  1  0.58186700  0.13937800  0.13937800  1
  O  O0  1  0.06963200  0.11947900  0.31356700  1
  O  O1  1  0.06963200  0.49732200  0.11947900  1
  O  O2  1  0.06963200  0.31356700  0.49732200  1
  O  O3  1  0.22776600  0.09058200  0.74028600  1
  O  O4  1  0.43011300  0.19208200  0.39480600  1
  O  O5  1  0.25487900  0.41572200  0.56671400  1
  O  O6  1  0.22776600  0.94136600  0.09058200  1
  O  O7  1  0.25487900  0.76268500  0.41572200  1
  O  O8  1  0.56976600  0.61967500  0.99930600  1
  O  O9  1  0.25487900  0.56671400  0.76268500  1
  O  O10  1  0.78374600  0.26739400  0.05021200  1
  O  O11  1  0.56976600  0.99930600  0.81125200  1
  O  O12  1  0.43011300  0.98299900  0.19208200  1
  O  O13  1  0.22776600  0.74028600  0.94136600  1
  O  O14  1  0.73234700  0.45033600  0.23556500  1
  O  O15  1  0.43011300  0.39480600  0.98299900  1
  O  O16  1  0.73234700  0.23556500  0.58175400  1
  O  O17  1  0.78374600  0.05021200  0.89864700  1
  O  O18  1  0.73234700  0.58175400  0.45033600  1
  O  O19  1  0.56976600  0.81125200  0.61967500  1
  O  O20  1  0.78374600  0.89864700  0.26739400  1
  O  O21  1  0.92613000  0.67605800  0.51439500  1
  O  O22  1  0.92613000  0.51439500  0.88341700  1
  O  O23  1  0.92613000  0.88341700  0.67605800  1
loop_
_geom_bond_atom_site_label_1
_geom_bond_atom_site_label_2
_geom_bond_distance
_geom_bond_site_symmetry_2
Co0 O6 2.143396 1_556
Co0 O3 2.143399 1_565
Co0 O13 2.143402 1_555
Co0 O10 2.288881 1_466
Co0 O20 2.288886 1_456
Co0 O17 2.288893 1_465
Co1 O14 2.242033 1_555
Co1 O16 2.242038 1_555
Co1 O18 2.242045 1_555
Co1 O7 2.286047 1_555
Co1 O9 2.286047 1_555
Co1 O5 2.286047 1_555
O0 P1 1.555694 1_545
O0 Ti2 1.912170 1_455
O1 P2 1.555696 1_554
O1 Ti2 1.912170 1_455
O2 P0 1.555699 1_555
O2 Ti2 1.912170 1_455
O3 P0 1.562888 1_555
O3 Ti1 2.079109 1_545
O4 P0 1.506668 1_555
O4 W0 2.086880 1_555
O5 P0 1.558991 1_555
O5 Ti0 2.005687 1_555
O6 P1 1.562893 1_555
O6 Ti1 2.079101 1_554
O7 P1 1.558996 1_555
O7 Ti0 2.005683 1_555
O8 P3 1.549091 1_556
O8 Ti1 1.931356 1_555
O9 P2 1.559000 1_555
O9 Ti0 2.005680 1_555
O10 P3 1.544564 1_555
O10 W0 2.149781 1_555
O11 P4 1.549094 1_565
O11 Ti1 1.931345 1_555
O12 P1 1.506664 1_555
O12 W0 2.086888 1_565
O13 P2 1.562884 1_555
O13 Ti1 2.079114 1_555
O14 P3 1.558998 1_555
O14 Ti2 2.066762 1_555
O15 P2 1.506666 1_555
O15 W0 2.086884 1_556
O16 P4 1.558991 1_555
O16 Ti2 2.066767 1_555
O17 P4 1.544555 1_555
O17 W0 2.149794 1_556
O18 P5 1.558981 1_555
O18 Ti2 2.066775 1_555
O19 P5 1.549089 1_555
O19 Ti1 1.931367 1_555
O20 P5 1.544560 1_555
O20 W0 2.149787 1_565
O21 P5 1.536807 1_555
O21 Ti0 1.895055 1_655
O22 P3 1.536807 1_556
O22 Ti0 1.895051 1_655
O23 P4 1.536807 1_565
O23 Ti0 1.895048 1_655
