# generated using pymatgen
data_AcH3
_symmetry_space_group_name_H-M   'P 1'
_cell_length_a   4.10926718
_cell_length_b   4.10926718
_cell_length_c   4.10926718
_cell_angle_alpha   60.00000000
_cell_angle_beta   60.00000000
_cell_angle_gamma   60.00000000
_symmetry_Int_Tables_number   1
_chemical_formula_structural   AcH3
_chemical_formula_sum   'Ac1 H3'
_cell_volume   49.06571607
_cell_formula_units_Z   1
loop_
 _symmetry_equiv_pos_site_id
 _symmetry_equiv_pos_as_xyz
  1  'x, y, z'
loop_
 _atom_site_type_symbol
 _atom_site_label
 _atom_site_symmetry_multiplicity
 _atom_site_fract_x
 _atom_site_fract_y
 _atom_site_fract_z
 _atom_site_occupancy
  Ac  Ac0  1  0.75000000  0.75000000  0.75000000  1
  H  H0  1  0.00000000  -0.00000000  -0.00000000  1
  H  H1  1  0.50000000  0.50000000  0.50000000  1
  H  H2  1  0.25000100  0.25000100  0.25000100  1
loop_
_geom_bond_atom_site_label_1
_geom_bond_atom_site_label_2
_geom_bond_distance
_geom_bond_site_symmetry_2
Ac0 H0 2.516402 1_665
Ac0 H1 2.516402 1_555
Ac0 H1 2.516402 1_556
Ac0 H1 2.516402 1_655
Ac0 H0 2.516402 1_666
Ac0 H0 2.516402 1_656
Ac0 H1 2.516402 1_565
Ac0 H0 2.516402 1_566
Ac0 H2 2.905685 1_556
Ac0 H2 2.905685 1_565
Ac0 H2 2.905685 1_655
Ac0 H2 2.905697 1_566
Ac0 H2 2.905697 1_665
Ac0 H2 2.905697 1_656
