# generated using pymatgen
data_Li5Mg
_symmetry_space_group_name_H-M   'P 1'
_cell_length_a   5.05319898
_cell_length_b   5.27412392
_cell_length_c   5.27412562
_cell_angle_alpha   60.00000814
_cell_angle_beta   90.00000000
_cell_angle_gamma   90.00000000
_symmetry_Int_Tables_number   1
_chemical_formula_structural   Li5Mg
_chemical_formula_sum   'Li5 Mg1'
_cell_volume   121.73006847
_cell_formula_units_Z   1
loop_
 _symmetry_equiv_pos_site_id
 _symmetry_equiv_pos_as_xyz
  1  'x, y, z'
loop_
 _atom_site_type_symbol
 _atom_site_label
 _atom_site_symmetry_multiplicity
 _atom_site_fract_x
 _atom_site_fract_y
 _atom_site_fract_z
 _atom_site_occupancy
  Li  Li0  1  -0.00000000  0.99891681  0.00108319  1
  Li  Li1  1  0.50000000  0.33333400  0.99999900  1
  Li  Li2  1  -0.00000000  0.33441819  0.33333200  1
  Li  Li3  1  0.50000000  0.00000000  0.66666600  1
  Li  Li4  1  0.00000000  0.66666600  0.66558281  1
  Mg  Mg0  1  0.50000000  0.66666600  0.33333400  1
loop_
_geom_bond_atom_site_label_1
_geom_bond_atom_site_label_2
_geom_bond_distance
_geom_bond_site_symmetry_2
Li0 Li2 3.035115 1_555
Li0 Li4 3.035120 1_555
Li0 Li4 3.049974 1_564
Li0 Li2 3.049978 1_565
Li0 Li4 3.049983 1_554
Li0 Li2 3.049984 1_564
Li0 Mg0 3.074797 1_555
Li0 Mg0 3.074797 1_455
Li0 Li1 3.079690 1_464
Li0 Li1 3.079690 1_564
Li0 Li3 3.079692 1_464
Li0 Li3 3.079692 1_564
Li1 Mg0 3.045010 1_555
Li1 Li3 3.045014 1_565
Li1 Li3 3.045019 1_555
Li1 Mg0 3.045019 1_556
Li1 Li3 3.045020 1_556
Li1 Mg0 3.045023 1_546
Li1 Li4 3.079688 1_555
Li1 Li4 3.079688 1_655
Li1 Li2 3.079691 1_556
Li1 Li2 3.079691 1_656
Li2 Li4 3.035115 1_555
Li2 Li4 3.049975 1_554
Li2 Li4 3.049987 1_545
Li2 Mg0 3.074790 1_455
Li2 Mg0 3.074790 1_555
Li2 Li3 3.079694 1_555
Li2 Li3 3.079694 1_455
Li3 Mg0 3.045014 1_555
Li3 Mg0 3.045014 1_545
Li3 Mg0 3.045024 1_546
Li3 Li4 3.079692 1_645
Li3 Li4 3.079692 1_545
Li4 Mg0 3.074791 1_555
Li4 Mg0 3.074791 1_455
