# generated using pymatgen
data_LiAlPd2
_symmetry_space_group_name_H-M   'P 1'
_cell_length_a   4.23230560
_cell_length_b   4.23230560
_cell_length_c   4.23230560
_cell_angle_alpha   60.00000000
_cell_angle_beta   60.00000000
_cell_angle_gamma   60.00000000
_symmetry_Int_Tables_number   1
_chemical_formula_structural   LiAlPd2
_chemical_formula_sum   'Li1 Al1 Pd2'
_cell_volume   53.60632801
_cell_formula_units_Z   1
loop_
 _symmetry_equiv_pos_site_id
 _symmetry_equiv_pos_as_xyz
  1  'x, y, z'
loop_
 _atom_site_type_symbol
 _atom_site_label
 _atom_site_symmetry_multiplicity
 _atom_site_fract_x
 _atom_site_fract_y
 _atom_site_fract_z
 _atom_site_occupancy
  Li  Li0  1  0.75000000  0.75000000  0.75000000  1
  Al  Al0  1  0.25000000  0.25000000  0.25000000  1
  Pd  Pd0  1  -0.00000000  -0.00000000  -0.00000000  1
  Pd  Pd1  1  0.49999900  0.49999900  0.49999900  1
loop_
_geom_bond_atom_site_label_1
_geom_bond_atom_site_label_2
_geom_bond_distance
_geom_bond_site_symmetry_2
Li0 Pd1 2.591744 1_655
Li0 Pd1 2.591744 1_565
Li0 Pd1 2.591744 1_556
Li0 Pd0 2.591747 1_656
Li0 Pd0 2.591747 1_665
Li0 Pd0 2.591747 1_566
Li0 Pd0 2.591747 1_666
Li0 Pd1 2.591758 1_555
Al0 Pd1 2.591737 1_555
Al0 Pd0 2.591747 1_556
Al0 Pd0 2.591747 1_565
Al0 Pd0 2.591747 1_655
Al0 Pd0 2.591747 1_555
Al0 Pd1 2.591751 1_545
Al0 Pd1 2.591751 1_554
Al0 Pd1 2.591751 1_455
