# generated using pymatgen
data_Pm2IrPt
_symmetry_space_group_name_H-M   'P 1'
_cell_length_a   5.00050320
_cell_length_b   5.00050320
_cell_length_c   5.00050320
_cell_angle_alpha   60.00000000
_cell_angle_beta   60.00000000
_cell_angle_gamma   60.00000000
_symmetry_Int_Tables_number   1
_chemical_formula_structural   Pm2IrPt
_chemical_formula_sum   'Pm2 Ir1 Pt1'
_cell_volume   88.41503639
_cell_formula_units_Z   1
loop_
 _symmetry_equiv_pos_site_id
 _symmetry_equiv_pos_as_xyz
  1  'x, y, z'
loop_
 _atom_site_type_symbol
 _atom_site_label
 _atom_site_symmetry_multiplicity
 _atom_site_fract_x
 _atom_site_fract_y
 _atom_site_fract_z
 _atom_site_occupancy
  Pm  Pm0  1  0.00000000  0.00000000  0.00000000  1
  Pm  Pm1  1  0.50000000  0.50000000  0.50000000  1
  Ir  Ir0  1  0.25000100  0.25000100  0.25000100  1
  Pt  Pt0  1  0.75000000  0.75000000  0.75000000  1
loop_
_geom_bond_atom_site_label_1
_geom_bond_atom_site_label_2
_geom_bond_distance
_geom_bond_site_symmetry_2
Pm0 Pt0 3.062170 1_544
Pm0 Pt0 3.062170 1_444
Pm0 Pt0 3.062170 1_445
Pm0 Pt0 3.062170 1_454
Pm1 Pt0 3.062170 1_455
Pm1 Pt0 3.062170 1_555
Pm1 Pt0 3.062170 1_545
Pm1 Pt0 3.062170 1_554
Ir0 Pm1 3.062158 1_555
Ir0 Pm0 3.062166 1_556
Ir0 Pm0 3.062166 1_565
Ir0 Pm0 3.062166 1_655
Ir0 Pm1 3.062174 1_545
Ir0 Pm1 3.062174 1_455
Ir0 Pm1 3.062174 1_554
Ir0 Pm0 3.062183 1_555
