# generated using pymatgen
data_Y11In9Ni4
_symmetry_space_group_name_H-M   'P 1'
_cell_length_a   12.98505990
_cell_length_b   12.98505990
_cell_length_c   3.65121240
_cell_angle_alpha   90.00000000
_cell_angle_beta   90.00000000
_cell_angle_gamma   112.70577888
_symmetry_Int_Tables_number   1
_chemical_formula_structural   Y11In9Ni4
_chemical_formula_sum   'Y11 In9 Ni4'
_cell_volume   567.92500828
_cell_formula_units_Z   1
loop_
 _symmetry_equiv_pos_site_id
 _symmetry_equiv_pos_as_xyz
  1  'x, y, z'
loop_
 _atom_site_type_symbol
 _atom_site_label
 _atom_site_symmetry_multiplicity
 _atom_site_fract_x
 _atom_site_fract_y
 _atom_site_fract_z
 _atom_site_occupancy
  Y  Y0  1  0.07898077  0.41578175  -0.00000000  1
  Y  Y1  1  0.92101923  0.58421825  -0.00000000  1
  Y  Y2  1  0.41578175  0.07898077  -0.00000000  1
  Y  Y3  1  0.58421825  0.92101923  -0.00000000  1
  Y  Y4  1  0.62500205  0.37499795  -0.00000000  1
  Y  Y5  1  0.37499795  0.62500205  -0.00000000  1
  Y  Y6  1  0.83856815  0.16143185  -0.00000000  1
  Y  Y7  1  0.16143185  0.83856815  -0.00000000  1
  Y  Y8  1  -0.00000000  0.00000000  -0.00000000  1
  Y  Y9  1  0.31183709  0.31183709  -0.00000000  1
  Y  Y10  1  0.68816291  0.68816291  -0.00000000  1
  In  In0  1  0.84042888  0.36928610  0.50000000  1
  In  In1  1  0.15957112  0.63071390  0.50000000  1
  In  In2  1  0.36928610  0.84042888  0.50000000  1
  In  In3  1  0.63071390  0.15957112  0.50000000  1
  In  In4  1  0.07741392  0.21936498  0.50000000  1
  In  In5  1  0.92258608  0.78063502  0.50000000  1
  In  In6  1  0.21936498  0.07741392  0.50000000  1
  In  In7  1  0.78063502  0.92258608  0.50000000  1
  In  In8  1  0.50000000  0.50000000  0.50000000  1
  Ni  Ni0  1  0.24594185  0.44884299  0.50000000  1
  Ni  Ni1  1  0.75405815  0.55115701  0.50000000  1
  Ni  Ni2  1  0.44884299  0.24594185  0.50000000  1
  Ni  Ni3  1  0.55115701  0.75405815  0.50000000  1
loop_
_geom_bond_atom_site_label_1
_geom_bond_atom_site_label_2
_geom_bond_distance
_geom_bond_site_symmetry_2
In0 Ni1 2.979887 1_555
In0 In3 3.017678 1_555
In0 Y1 3.156327 1_556
In0 Y1 3.156327 1_555
In0 Y6 3.250797 1_555
In0 Y6 3.250797 1_556
In0 Y4 3.365051 1_555
In0 Y4 3.365051 1_556
In0 Y0 3.442204 1_655
In0 Y0 3.442204 1_656
In1 Ni0 2.979887 1_555
In1 In2 3.017678 1_555
In1 Y0 3.156327 1_555
In1 Y0 3.156327 1_556
In1 Y7 3.250797 1_555
In1 Y7 3.250797 1_556
In1 Y5 3.365051 1_556
In1 Y5 3.365051 1_555
In1 Y1 3.442204 1_456
In1 Y1 3.442204 1_455
In2 Ni3 2.979887 1_555
In2 Y3 3.156327 1_555
In2 Y3 3.156327 1_556
In2 Y7 3.250797 1_556
In2 Y7 3.250797 1_555
In2 Y5 3.365051 1_556
In2 Y5 3.365051 1_555
In2 Y2 3.442204 1_565
In2 Y2 3.442204 1_566
In3 Ni2 2.979887 1_555
In3 Y2 3.156327 1_556
In3 Y2 3.156327 1_555
In3 Y6 3.250797 1_555
In3 Y6 3.250797 1_556
In3 Y4 3.365051 1_556
In3 Y4 3.365051 1_555
In3 Y3 3.442204 1_545
In3 Y3 3.442204 1_546
In4 Ni0 2.938355 1_555
In4 In6 3.068874 1_555
In4 Y0 3.130201 1_556
In4 Y0 3.130201 1_555
In4 Y8 3.201028 1_556
In4 Y8 3.201028 1_555
In4 Y9 3.349455 1_556
In4 Y9 3.349455 1_555
In4 Y6 3.422929 1_455
In4 Y6 3.422929 1_456
In5 Ni1 2.938355 1_555
In5 In7 3.068874 1_555
In5 Y1 3.130201 1_555
In5 Y1 3.130201 1_556
In5 Y8 3.201028 1_666
In5 Y8 3.201028 1_665
In5 Y10 3.349455 1_556
In5 Y10 3.349455 1_555
In5 Y7 3.422929 1_655
In5 Y7 3.422929 1_656
In6 Ni2 2.938355 1_555
In6 Y2 3.130201 1_556
In6 Y2 3.130201 1_555
In6 Y8 3.201028 1_555
In6 Y8 3.201028 1_556
In6 Y9 3.349455 1_555
In6 Y9 3.349455 1_556
In6 Y7 3.422929 1_546
In6 Y7 3.422929 1_545
In7 Ni3 2.938355 1_555
In7 Y3 3.130201 1_556
In7 Y3 3.130201 1_555
In7 Y8 3.201028 1_666
In7 Y8 3.201028 1_665
In7 Y10 3.349455 1_556
In7 Y10 3.349455 1_555
In7 Y6 3.422929 1_565
In7 Y6 3.422929 1_566
In8 Ni2 3.103648 1_555
In8 Ni3 3.103648 1_555
In8 Ni0 3.103648 1_555
In8 Ni1 3.103648 1_555
In8 Y5 3.261299 1_556
In8 Y4 3.261299 1_556
In8 Y5 3.261299 1_555
In8 Y4 3.261299 1_555
In8 Y10 3.265532 1_555
In8 Y10 3.265532 1_556
In8 Y9 3.265532 1_556
In8 Y9 3.265532 1_555
Ni0 Y0 2.738401 1_556
Ni0 Y0 2.738401 1_555
Ni0 Y9 2.899153 1_556
Ni0 Y9 2.899153 1_555
Ni0 Y5 2.900727 1_556
Ni0 Y5 2.900727 1_555
Ni1 Y1 2.738401 1_556
Ni1 Y1 2.738401 1_555
Ni1 Y10 2.899153 1_555
Ni1 Y10 2.899153 1_556
Ni1 Y4 2.900727 1_555
Ni1 Y4 2.900727 1_556
Ni2 Y2 2.738401 1_555
Ni2 Y2 2.738401 1_556
Ni2 Y9 2.899153 1_556
Ni2 Y9 2.899153 1_555
Ni2 Y4 2.900727 1_555
Ni2 Y4 2.900727 1_556
Ni3 Y3 2.738401 1_556
Ni3 Y3 2.738401 1_555
Ni3 Y10 2.899153 1_555
Ni3 Y10 2.899153 1_556
Ni3 Y5 2.900727 1_556
Ni3 Y5 2.900727 1_555
