# generated using pymatgen
data_NdRh3
_symmetry_space_group_name_H-M   'P 1'
_cell_length_a   5.29403057
_cell_length_b   5.29403057
_cell_length_c   17.56642322
_cell_angle_alpha   90.00000000
_cell_angle_beta   90.00000000
_cell_angle_gamma   119.99999562
_symmetry_Int_Tables_number   1
_chemical_formula_structural   NdRh3
_chemical_formula_sum   'Nd6 Rh18'
_cell_volume   426.37023816
_cell_formula_units_Z   6
loop_
 _symmetry_equiv_pos_site_id
 _symmetry_equiv_pos_as_xyz
  1  'x, y, z'
loop_
 _atom_site_type_symbol
 _atom_site_label
 _atom_site_symmetry_multiplicity
 _atom_site_fract_x
 _atom_site_fract_y
 _atom_site_fract_z
 _atom_site_occupancy
  Nd  Nd0  1  0.33333300  0.66666700  0.54204099  1
  Nd  Nd1  1  0.66666700  0.33333300  0.04204099  1
  Nd  Nd2  1  0.66666700  0.33333300  0.45795901  1
  Nd  Nd3  1  0.33333300  0.66666700  0.95795901  1
  Nd  Nd4  1  0.33333300  0.66666700  0.75000000  1
  Nd  Nd5  1  0.66666700  0.33333300  0.25000000  1
  Rh  Rh0  1  0.16663168  0.33326235  0.12798608  1
  Rh  Rh1  1  0.83336832  0.66673765  0.62798608  1
  Rh  Rh2  1  0.66673765  0.83336832  0.12798608  1
  Rh  Rh3  1  0.16663168  0.83336832  0.12798608  1
  Rh  Rh4  1  0.83336832  0.16663168  0.62798608  1
  Rh  Rh5  1  0.33326235  0.16663168  0.62798608  1
  Rh  Rh6  1  0.83336832  0.66673765  0.87201392  1
  Rh  Rh7  1  0.83336832  0.16663168  0.87201392  1
  Rh  Rh8  1  0.33326235  0.16663168  0.87201392  1
  Rh  Rh9  1  0.66673765  0.83336832  0.37201392  1
  Rh  Rh10  1  0.16663168  0.83336832  0.37201392  1
  Rh  Rh11  1  0.16663168  0.33326235  0.37201392  1
  Rh  Rh12  1  0.00000000  0.00000000  0.25000000  1
  Rh  Rh13  1  0.00000000  0.00000000  0.75000000  1
  Rh  Rh14  1  0.33333300  0.66666700  0.25000000  1
  Rh  Rh15  1  0.66666700  0.33333300  0.75000000  1
  Rh  Rh16  1  -0.00000000  0.00000000  -0.00000000  1
  Rh  Rh17  1  0.00000000  0.00000000  0.50000000  1
loop_
_geom_bond_atom_site_label_1
_geom_bond_atom_site_label_2
_geom_bond_distance
_geom_bond_site_symmetry_2
Nd0 Rh5 3.047299 1_555
Nd0 Rh1 3.047299 1_555
Nd0 Rh1 3.047299 1_455
Nd0 Rh5 3.047299 1_565
Nd0 Rh4 3.047299 1_455
Nd0 Rh4 3.047299 1_565
Nd0 Rh17 3.144460 1_565
Nd0 Rh17 3.144465 1_555
Nd0 Rh17 3.144465 1_665
Nd0 Rh10 3.355192 1_555
Nd0 Rh9 3.355196 1_555
Nd0 Rh11 3.355196 1_555
Nd1 Rh0 3.047299 1_555
Nd1 Rh2 3.047299 1_555
Nd1 Rh2 3.047299 1_545
Nd1 Rh0 3.047299 1_655
Nd1 Rh3 3.047299 1_545
Nd1 Rh3 3.047299 1_655
Nd1 Rh16 3.144460 1_655
Nd1 Rh16 3.144465 1_555
Nd1 Rh16 3.144465 1_665
Nd1 Rh7 3.355192 1_554
Nd1 Rh6 3.355196 1_554
Nd1 Rh8 3.355196 1_554
Nd2 Rh11 3.047299 1_555
Nd2 Rh9 3.047299 1_555
Nd2 Rh9 3.047299 1_545
Nd2 Rh11 3.047299 1_655
Nd2 Rh10 3.047299 1_545
Nd2 Rh10 3.047299 1_655
Nd2 Rh17 3.144460 1_655
Nd2 Rh17 3.144465 1_665
Nd2 Rh17 3.144465 1_555
Nd2 Rh4 3.355192 1_555
Nd2 Rh5 3.355196 1_555
Nd2 Rh1 3.355196 1_555
Nd3 Rh6 3.047299 1_555
Nd3 Rh8 3.047299 1_555
Nd3 Rh6 3.047299 1_455
Nd3 Rh8 3.047299 1_565
Nd3 Rh7 3.047299 1_455
Nd3 Rh7 3.047299 1_565
Nd3 Rh16 3.144460 1_566
Nd3 Rh16 3.144465 1_556
Nd3 Rh16 3.144465 1_666
Nd3 Rh3 3.355192 1_556
Nd3 Rh2 3.355196 1_556
Nd3 Rh0 3.355196 1_556
Nd4 Rh13 3.056507 1_565
Nd4 Rh15 3.056507 1_455
Nd4 Rh15 3.056507 1_565
Nd4 Rh13 3.056512 1_665
Nd4 Rh13 3.056512 1_555
Nd4 Rh15 3.056516 1_555
Nd4 Rh5 3.405970 1_555
Nd4 Rh6 3.405970 1_555
Nd4 Rh8 3.405970 1_555
Nd4 Rh1 3.405970 1_555
Nd4 Rh1 3.405970 1_455
Nd4 Rh6 3.405970 1_455
Nd4 Rh5 3.405970 1_565
Nd4 Rh8 3.405970 1_565
Nd4 Rh4 3.405970 1_455
Nd4 Rh7 3.405970 1_455
Nd4 Rh4 3.405970 1_565
Nd4 Rh7 3.405970 1_565
Nd5 Rh12 3.056507 1_655
Nd5 Rh14 3.056507 1_545
Nd5 Rh14 3.056507 1_655
Nd5 Rh12 3.056512 1_555
Nd5 Rh12 3.056512 1_665
Nd5 Rh14 3.056516 1_555
Nd5 Rh9 3.405970 1_555
Nd5 Rh0 3.405970 1_555
Nd5 Rh11 3.405970 1_555
Nd5 Rh2 3.405970 1_555
Nd5 Rh2 3.405970 1_545
Nd5 Rh9 3.405970 1_545
Nd5 Rh11 3.405970 1_655
Nd5 Rh0 3.405970 1_655
Nd5 Rh3 3.405970 1_545
Nd5 Rh10 3.405970 1_545
Nd5 Rh10 3.405970 1_655
Nd5 Rh3 3.405970 1_655
Rh0 Rh12 2.632206 1_555
Rh0 Rh14 2.632585 1_555
Rh0 Rh3 2.646454 1_545
Rh0 Rh2 2.646454 1_445
Rh0 Rh3 2.647576 1_555
Rh0 Rh2 2.647576 1_555
Rh0 Rh16 2.718314 1_555
Rh1 Rh13 2.632206 1_665
Rh1 Rh15 2.632585 1_555
Rh1 Rh4 2.646454 1_565
Rh1 Rh5 2.646454 1_665
Rh1 Rh4 2.647576 1_555
Rh1 Rh5 2.647576 1_555
Rh1 Rh17 2.718314 1_665
Rh2 Rh3 2.646454 1_655
Rh2 Rh3 2.647576 1_555
Rh4 Rh5 2.646454 1_655
Rh4 Rh5 2.647576 1_555
Rh6 Rh7 2.646454 1_565
Rh6 Rh8 2.646454 1_665
Rh6 Rh7 2.647576 1_555
Rh6 Rh8 2.647576 1_555
Rh7 Rh8 2.646454 1_655
Rh7 Rh8 2.647576 1_555
Rh10 Rh12 2.632209 1_565
Rh10 Rh14 2.632580 1_555
Rh10 Rh9 2.646454 1_455
Rh10 Rh11 2.646454 1_565
Rh10 Rh9 2.647576 1_555
Rh10 Rh11 2.647576 1_555
Rh10 Rh17 2.718317 1_565
Rh11 Rh12 2.632206 1_555
Rh11 Rh14 2.632585 1_555
Rh11 Rh9 2.646454 1_445
Rh11 Rh9 2.647576 1_555
Rh11 Rh17 2.718314 1_555
Rh12 Rh9 2.632206 1_445
Rh12 Rh2 2.632206 1_445
Rh12 Rh3 2.632209 1_545
Rh13 Rh5 2.632206 1_555
Rh13 Rh8 2.632206 1_555
Rh13 Rh6 2.632206 1_445
Rh13 Rh7 2.632209 1_455
Rh13 Rh4 2.632209 1_455
Rh14 Rh3 2.632580 1_555
Rh14 Rh2 2.632585 1_555
Rh14 Rh9 2.632585 1_555
Rh15 Rh4 2.632580 1_555
Rh15 Rh7 2.632580 1_555
Rh15 Rh5 2.632585 1_555
Rh15 Rh6 2.632585 1_555
Rh15 Rh8 2.632585 1_555
Rh16 Rh8 2.718314 1_554
Rh16 Rh6 2.718314 1_444
Rh16 Rh2 2.718314 1_445
Rh16 Rh7 2.718317 1_454
Rh16 Rh3 2.718317 1_545
Rh17 Rh5 2.718314 1_555
Rh17 Rh9 2.718314 1_445
Rh17 Rh4 2.718317 1_455
