# generated using pymatgen
data_Na3MnO3
_symmetry_space_group_name_H-M   'P 1'
_cell_length_a   4.36202800
_cell_length_b   9.71191700
_cell_length_c   9.71293000
_cell_angle_alpha   90.00092028
_cell_angle_beta   89.99994424
_cell_angle_gamma   89.99991930
_symmetry_Int_Tables_number   1
_chemical_formula_structural   Na3MnO3
_chemical_formula_sum   'Na12 Mn4 O12'
_cell_volume   411.47520473
_cell_formula_units_Z   4
loop_
 _symmetry_equiv_pos_site_id
 _symmetry_equiv_pos_as_xyz
  1  'x, y, z'
loop_
 _atom_site_type_symbol
 _atom_site_label
 _atom_site_symmetry_multiplicity
 _atom_site_fract_x
 _atom_site_fract_y
 _atom_site_fract_z
 _atom_site_occupancy
  Na  Na0  1  0.50000000  0.16036000  0.83966600  1
  Na  Na1  1  0.00001100  0.33964800  0.33966200  1
  Na  Na2  1  0.00000600  0.66033000  0.66036100  1
  Na  Na3  1  0.50000300  0.83966600  0.16036100  1
  Na  Na4  1  0.00000200  0.11782700  0.63383600  1
  Na  Na5  1  0.50000200  0.13377900  0.38221400  1
  Na  Na6  1  0.00000000  0.36624500  0.88222200  1
  Na  Na7  1  0.50000200  0.38218400  0.13381100  1
  Na  Na8  1  0.50000000  0.61780400  0.86619800  1
  Na  Na9  1  0.00000300  0.63375600  0.11781400  1
  Na  Na10  1  0.49999900  0.86624400  0.61780000  1
  Na  Na11  1  0.00001100  0.88219900  0.36620500  1
  Mn  Mn0  1  0.50001000  0.60952000  0.39036500  1
  Mn  Mn1  1  0.99999900  0.89046300  0.89038100  1
  Mn  Mn2  1  0.99995700  0.10966600  0.10973500  1
  Mn  Mn3  1  0.50000900  0.39036600  0.60972900  1
  O  O0  1  0.99998300  0.09391000  0.90600000  1
  O  O1  1  0.50001500  0.40608800  0.40601500  1
  O  O2  1  0.50001100  0.59401700  0.59393700  1
  O  O3  1  0.99998600  0.90598100  0.09391400  1
  O  O4  1  0.99998600  0.10487100  0.30426200  1
  O  O5  1  0.50000300  0.19564200  0.60486500  1
  O  O6  1  0.99998600  0.30434800  0.10486100  1
  O  O7  1  0.50000200  0.39513000  0.80426700  1
  O  O8  1  0.50000600  0.60491700  0.19566500  1
  O  O9  1  0.99999700  0.69554700  0.89512900  1
  O  O10  1  0.50001200  0.80445400  0.39513600  1
  O  O11  1  0.99999600  0.89507700  0.69563500  1
loop_
_geom_bond_atom_site_label_1
_geom_bond_atom_site_label_2
_geom_bond_distance
_geom_bond_site_symmetry_2
Na0 O7 2.305851 1_555
Na0 O5 2.306209 1_555
Na0 O0 2.363920 1_555
Na0 O0 2.364057 1_455
Na1 O4 2.305908 1_455
Na1 O6 2.306224 1_455
Na1 O1 2.363989 1_455
Na1 O1 2.364024 1_555
Na2 O11 2.305438 1_455
Na2 O9 2.305788 1_455
Na2 O2 2.363839 1_455
Na2 O2 2.363877 1_555
Na3 O8 2.305512 1_555
Na3 O10 2.305858 1_555
Na3 O3 2.363862 1_555
Na3 O3 2.363998 1_455
Na4 O11 2.245069 1_445
Na4 O5 2.325322 1_455
Na4 O5 2.325331 1_555
Na4 O0 2.653699 1_455
Na5 O5 2.244491 1_555
Na5 O4 2.325638 1_555
Na5 O4 2.325771 1_455
Na5 O1 2.654723 1_555
Na6 O6 2.244486 1_456
Na6 O7 2.325682 1_455
Na6 O7 2.325698 1_555
Na6 O0 2.654963 1_455
Na7 O8 2.245034 1_555
Na7 O6 2.325298 1_555
Na7 O6 2.325432 1_455
Na7 O1 2.654068 1_555
Na8 O7 2.244683 1_555
Na8 O9 2.325038 1_555
Na8 O9 2.325060 1_455
Na8 O2 2.654520 1_555
Na9 O9 2.244641 1_454
Na9 O8 2.325295 1_455
Na9 O8 2.325320 1_555
Na9 O3 2.654002 1_455
Na10 O10 2.244423 1_555
Na10 O11 2.325236 1_555
Na10 O11 2.325258 1_455
Na10 O2 2.653983 1_555
Na11 O4 2.244714 1_465
Na11 O10 2.325055 1_455
Na11 O10 2.325062 1_555
Na11 O3 2.654813 1_455
Mn0 O8 1.891635 1_555
Mn0 O10 1.893749 1_555
Mn0 O1 1.981556 1_555
Mn0 O2 1.983007 1_555
Mn1 O11 1.892086 1_555
Mn1 O9 1.893570 1_555
Mn1 O0 1.981673 1_565
Mn1 O3 1.982636 1_556
Mn2 O4 1.890002 1_555
Mn2 O6 1.891329 1_555
Mn2 O3 1.984129 1_545
Mn2 O0 1.984769 1_554
Mn3 O7 1.890100 1_555
Mn3 O5 1.891733 1_555
Mn3 O2 1.983783 1_555
Mn3 O1 1.984545 1_555
