# generated using pymatgen
data_Dy2NiRu
_symmetry_space_group_name_H-M   'P 1'
_cell_length_a   4.76336459
_cell_length_b   4.76318149
_cell_length_c   4.76314354
_cell_angle_alpha   60.00088193
_cell_angle_beta   60.00109029
_cell_angle_gamma   60.00267266
_symmetry_Int_Tables_number   1
_chemical_formula_structural   Dy2NiRu
_chemical_formula_sum   'Dy2 Ni1 Ru1'
_cell_volume   76.41961920
_cell_formula_units_Z   1
loop_
 _symmetry_equiv_pos_site_id
 _symmetry_equiv_pos_as_xyz
  1  'x, y, z'
loop_
 _atom_site_type_symbol
 _atom_site_label
 _atom_site_symmetry_multiplicity
 _atom_site_fract_x
 _atom_site_fract_y
 _atom_site_fract_z
 _atom_site_occupancy
  Dy  Dy0  1  0.50000034  0.49999841  0.49999838  1
  Dy  Dy1  1  0.00000038  0.00000006  0.99999916  1
  Ni  Ni0  1  0.25000082  0.25000082  0.24999985  1
  Ru  Ru0  1  0.74999846  0.75000071  0.75000061  1
loop_
_geom_bond_atom_site_label_1
_geom_bond_atom_site_label_2
_geom_bond_distance
_geom_bond_site_symmetry_2
Dy0 Ni0 2.916820 1_555
Dy0 Ru0 2.916833 1_554
Dy0 Ru0 2.916847 1_555
Dy0 Ni0 2.916847 1_556
Dy0 Ru0 2.916902 1_545
Dy0 Ni0 2.916921 1_565
Dy0 Ni0 2.917032 1_655
Dy0 Ru0 2.917037 1_455
Dy1 Ru0 2.916836 1_445
Dy1 Ni0 2.916839 1_555
Dy1 Ni0 2.916844 1_556
Dy1 Ru0 2.916847 1_446
Dy1 Ni0 2.916908 1_546
Dy1 Ru0 2.916914 1_455
Dy1 Ru0 2.917022 1_545
Dy1 Ni0 2.917028 1_456
