# generated using pymatgen
data_CaGdHg2
_symmetry_space_group_name_H-M   'P 1'
_cell_length_a   5.28368854
_cell_length_b   5.29451755
_cell_length_c   5.28372219
_cell_angle_alpha   59.98192340
_cell_angle_beta   60.09615833
_cell_angle_gamma   59.98027975
_symmetry_Int_Tables_number   1
_chemical_formula_structural   CaGdHg2
_chemical_formula_sum   'Ca1 Gd1 Hg2'
_cell_volume   104.56320768
_cell_formula_units_Z   1
loop_
 _symmetry_equiv_pos_site_id
 _symmetry_equiv_pos_as_xyz
  1  'x, y, z'
loop_
 _atom_site_type_symbol
 _atom_site_label
 _atom_site_symmetry_multiplicity
 _atom_site_fract_x
 _atom_site_fract_y
 _atom_site_fract_z
 _atom_site_occupancy
  Ca  Ca0  1  0.25000075  0.24999921  0.25000078  1
  Gd  Gd0  1  0.74999922  0.75000149  0.74999926  1
  Hg  Hg0  1  0.00167944  0.99864229  0.00005394  1
  Hg  Hg1  1  0.49831959  0.50135600  0.49994602  1
loop_
_geom_bond_atom_site_label_1
_geom_bond_atom_site_label_2
_geom_bond_distance
_geom_bond_site_symmetry_2
Ca0 Hg0 3.234665 1_555
Ca0 Hg1 3.234665 1_545
Ca0 Hg1 3.235723 1_555
Ca0 Hg0 3.235741 1_545
Ca0 Hg0 3.237900 1_546
Ca0 Hg1 3.237907 1_554
Ca0 Hg0 3.244847 1_645
Ca0 Hg1 3.244857 1_455
Gd0 Hg0 3.230357 1_556
Gd0 Hg1 3.230359 1_655
Gd0 Hg0 3.237468 1_655
Gd0 Hg1 3.237474 1_556
Gd0 Hg0 3.238937 1_656
Gd0 Hg1 3.238949 1_555
Gd0 Hg1 3.246361 1_565
Gd0 Hg0 3.246381 1_646
