# generated using pymatgen
data_TaMn2Al
_symmetry_space_group_name_H-M   'P 1'
_cell_length_a   4.21734138
_cell_length_b   4.21734138
_cell_length_c   4.21734138
_cell_angle_alpha   60.00000000
_cell_angle_beta   60.00000000
_cell_angle_gamma   60.00000000
_symmetry_Int_Tables_number   1
_chemical_formula_structural   TaMn2Al
_chemical_formula_sum   'Ta1 Mn2 Al1'
_cell_volume   53.03972630
_cell_formula_units_Z   1
loop_
 _symmetry_equiv_pos_site_id
 _symmetry_equiv_pos_as_xyz
  1  'x, y, z'
loop_
 _atom_site_type_symbol
 _atom_site_label
 _atom_site_symmetry_multiplicity
 _atom_site_fract_x
 _atom_site_fract_y
 _atom_site_fract_z
 _atom_site_occupancy
  Ta  Ta0  1  0.75000100  0.75000100  0.75000100  1
  Mn  Mn0  1  0.00000000  0.00000000  0.00000000  1
  Mn  Mn1  1  0.50000000  0.50000000  0.50000000  1
  Al  Al0  1  0.25000000  0.25000000  0.25000000  1
loop_
_geom_bond_atom_site_label_1
_geom_bond_atom_site_label_2
_geom_bond_distance
_geom_bond_site_symmetry_2
Mn0 Ta0 2.582573 1_444
Mn0 Ta0 2.582587 1_445
Mn0 Ta0 2.582587 1_454
Mn0 Ta0 2.582587 1_544
Mn1 Ta0 2.582580 1_455
Mn1 Ta0 2.582580 1_545
Mn1 Ta0 2.582580 1_554
Mn1 Ta0 2.582594 1_555
Al0 Mn0 2.582584 1_655
Al0 Mn0 2.582584 1_555
Al0 Mn1 2.582584 1_555
Al0 Mn1 2.582584 1_554
Al0 Mn0 2.582584 1_565
Al0 Mn1 2.582584 1_545
Al0 Mn0 2.582584 1_556
Al0 Mn1 2.582584 1_455
