# generated using pymatgen
data_Li3V4(OF3)3
_symmetry_space_group_name_H-M   'P 1'
_cell_length_a   10.32145825
_cell_length_b   10.32654830
_cell_length_c   11.01168282
_cell_angle_alpha   63.38850168
_cell_angle_beta   92.84858819
_cell_angle_gamma   62.04645633
_symmetry_Int_Tables_number   1
_chemical_formula_structural   Li3V4(OF3)3
_chemical_formula_sum   'Li12 V16 O12 F36'
_cell_volume   875.37973940
_cell_formula_units_Z   4
loop_
 _symmetry_equiv_pos_site_id
 _symmetry_equiv_pos_as_xyz
  1  'x, y, z'
loop_
 _atom_site_type_symbol
 _atom_site_label
 _atom_site_symmetry_multiplicity
 _atom_site_fract_x
 _atom_site_fract_y
 _atom_site_fract_z
 _atom_site_occupancy
  Li  Li0  1  0.89617800  0.21638900  0.15488900  1
  Li  Li1  1  0.87296600  0.27544300  0.57040800  1
  Li  Li2  1  0.37005000  0.27292800  0.07611100  1
  Li  Li3  1  0.87300700  0.77025200  0.07605000  1
  Li  Li4  1  0.37070400  0.77490900  0.06682000  1
  Li  Li5  1  0.37198200  0.27124100  0.57716400  1
  Li  Li6  1  0.87226600  0.76151200  0.58844000  1
  Li  Li7  1  0.08923900  0.31188300  0.31688700  1
  Li  Li8  1  0.58955600  0.80644500  0.32023400  1
  Li  Li9  1  0.37566700  0.77187300  0.56960300  1
  Li  Li10  1  0.08945900  0.30806700  0.81717100  1
  Li  Li11  1  0.59033900  0.80675800  0.81872500  1
  V  V0  1  0.73762600  0.00758900  0.24001800  1
  V  V1  1  0.99877900  0.50388000  0.49522200  1
  V  V2  1  0.74515100  0.50273200  0.25041800  1
  V  V3  1  0.73972100  0.00953700  0.73931500  1
  V  V4  1  0.00007900  0.00764900  0.00661900  1
  V  V5  1  0.50354400  0.50467100  0.00647300  1
  V  V6  1  0.99811400  0.50231200  0.99407900  1
  V  V7  1  0.74679900  0.49760800  0.75454000  1
  V  V8  1  0.00313500  0.00293700  0.50904000  1
  V  V9  1  0.50342100  0.50362600  0.50743800  1
  V  V10  1  0.23912200  0.51019900  0.23817800  1
  V  V11  1  0.49848500  0.00399400  0.49574500  1
  V  V12  1  0.24745400  0.99920900  0.25029900  1
  V  V13  1  0.24022800  0.50923800  0.73935000  1
  V  V14  1  0.49819800  0.00394900  0.99462300  1
  V  V15  1  0.24561800  0.00128400  0.75092800  1
  O  O0  1  0.56585100  0.04613900  0.12203800  1
  O  O1  1  0.92732500  0.44018700  0.38231400  1
  O  O2  1  0.56717600  0.04698400  0.62179500  1
  O  O3  1  0.07855300  0.05032100  0.12934000  1
  O  O4  1  0.57952500  0.55089100  0.12786100  1
  O  O5  1  0.92752700  0.44925100  0.87290800  1
  O  O6  1  0.58079900  0.54906200  0.63021500  1
  O  O7  1  0.07882800  0.05049700  0.62980000  1
  O  O8  1  0.06756500  0.54478100  0.12192200  1
  O  O9  1  0.42714600  0.94092900  0.38221500  1
  O  O10  1  0.06858300  0.54779900  0.62058000  1
  O  O11  1  0.42747600  0.94048300  0.88118200  1
  F  F0  1  0.69686800  0.25151900  0.11757200  1
  F  F1  1  0.88758200  0.41556300  0.13768700  1
  F  F2  1  0.62645600  0.05794300  0.37630800  1
  F  F3  1  0.81339700  0.25039000  0.38314800  1
  F  F4  1  0.70057000  0.25222800  0.61391500  1
  F  F5  1  0.88010700  0.92333500  0.12855900  1
  F  F6  1  0.38237500  0.42231400  0.12898800  1
  F  F7  1  0.88880600  0.41672000  0.63736900  1
  F  F8  1  0.19714600  0.24959900  0.12210500  1
  F  F9  1  0.69727900  0.75125600  0.12334500  1
  F  F10  1  0.62432000  0.06079900  0.87426700  1
  F  F11  1  0.81173200  0.24962500  0.88109000  1
  F  F12  1  0.11461700  0.08537100  0.36483000  1
  F  F13  1  0.62145800  0.58058700  0.37070000  1
  F  F14  1  0.30246500  0.25202300  0.38399700  1
  F  F15  1  0.80224700  0.75151600  0.38509800  1
  F  F16  1  0.42751000  0.43927400  0.38327200  1
  F  F17  1  0.92807400  0.95138400  0.37188100  1
  F  F18  1  0.88223800  0.91948600  0.62941700  1
  F  F19  1  0.38228300  0.42121500  0.63022800  1
  F  F20  1  0.19714300  0.75534300  0.11510700  1
  F  F21  1  0.69398500  0.75106100  0.62414600  1
  F  F22  1  0.19732200  0.25045900  0.62380300  1
  F  F23  1  0.38824900  0.91478800  0.13707000  1
  F  F24  1  0.12440800  0.56035700  0.37355700  1
  F  F25  1  0.31246100  0.75107800  0.38986200  1
  F  F26  1  0.61832700  0.58345800  0.86838400  1
  F  F27  1  0.12197400  0.07968200  0.87181800  1
  F  F28  1  0.30214300  0.25182700  0.88350900  1
  F  F29  1  0.80220400  0.75203800  0.88520100  1
  F  F30  1  0.42880300  0.43828700  0.88387900  1
  F  F31  1  0.92866800  0.93776600  0.88487200  1
  F  F32  1  0.19972300  0.75344400  0.61589900  1
  F  F33  1  0.38539900  0.91859700  0.63591600  1
  F  F34  1  0.12742300  0.55886300  0.87571500  1
  F  F35  1  0.31195400  0.75159300  0.88925900  1
loop_
_geom_bond_atom_site_label_1
_geom_bond_atom_site_label_2
_geom_bond_distance
_geom_bond_site_symmetry_2
Li0 O3 2.005465 1_655
Li1 O7 2.052313 1_655
Li1 O1 2.313569 1_555
Li2 O0 2.055447 1_555
Li3 O8 2.042298 1_655
Li4 O4 2.058475 1_555
Li4 O11 2.317889 1_554
Li5 O2 2.042383 1_555
Li6 O10 2.034242 1_655
Li7 O1 1.991579 1_455
Li7 O8 2.294670 1_555
Li8 O9 1.996206 1_555
Li8 O0 2.342921 1_565
Li9 O6 2.034428 1_555
Li9 O9 2.310681 1_555
Li10 O5 1.978612 1_455
Li10 O10 2.348143 1_555
Li11 O11 1.998790 1_555
Li11 O2 2.342366 1_565
O0 V14 1.838867 1_554
O0 V0 1.906762 1_555
O1 V1 1.902257 1_555
O1 V2 1.952374 1_555
O2 V11 1.837297 1_555
O2 V3 1.916467 1_555
O3 V12 1.835365 1_545
O3 V4 1.853567 1_555
O4 V2 1.833960 1_555
O4 V5 1.856839 1_555
O5 V6 1.882553 1_555
O5 V7 1.931285 1_555
O6 V7 1.831353 1_555
O6 V9 1.870329 1_555
O7 V15 1.829007 1_555
O7 V8 1.860490 1_555
O8 V6 1.853517 1_454
O8 V10 1.916798 1_555
O9 V11 1.901744 1_565
O9 V12 1.953128 1_555
O10 V1 1.843543 1_455
O10 V13 1.910359 1_555
O11 V14 1.901085 1_565
O11 V15 1.948202 1_565
F0 Li0 1.901365 1_555
F0 V0 2.060952 1_555
F0 V5 2.077034 1_555
F1 Li0 1.937088 1_555
F1 V2 2.110512 1_555
F1 V6 2.114967 1_554
F1 Li7 2.232090 1_655
F2 V11 1.997719 1_555
F2 V0 2.037219 1_555
F3 V8 2.037584 1_655
F3 V2 2.046334 1_555
F3 Li1 2.279921 1_555
F4 Li1 1.958299 1_555
F4 V3 2.060505 1_555
F4 V9 2.082879 1_555
F5 Li3 1.939577 1_555
F5 V4 2.055017 1_665
F5 V0 2.088684 1_565
F6 Li2 1.927765 1_555
F6 V5 2.060199 1_555
F6 V10 2.086093 1_555
F7 Li1 1.968291 1_555
F7 V1 2.102584 1_555
F7 V7 2.125201 1_555
F7 Li10 2.211767 1_655
F8 Li2 1.970537 1_555
F8 V12 2.084817 1_545
F8 V6 2.099546 1_454
F9 Li3 1.983783 1_555
F9 V2 2.076961 1_555
F9 V14 2.100150 1_564
F10 V14 1.996651 1_555
F10 V3 2.048622 1_555
F11 V4 2.004549 1_656
F11 V7 2.012461 1_555
F12 Li7 2.030812 1_555
F12 V12 2.072573 1_545
F12 V8 2.111694 1_555
F12 Li0 2.465411 1_455
F13 Li8 1.989393 1_555
F13 V2 2.047050 1_555
F13 V9 2.097879 1_555
F14 Li7 1.981275 1_555
F14 V11 2.058772 1_555
F14 V10 2.130728 1_555
F14 Li5 2.332107 1_555
F15 Li8 1.991219 1_555
F15 V1 2.058864 1_555
F15 V0 2.108458 1_565
F15 Li6 2.379674 1_555
F16 V9 2.029925 1_555
F16 V10 2.043951 1_555
F16 Li5 2.373372 1_555
F17 V8 2.038504 1_665
F17 V0 2.049618 1_565
F18 Li6 1.920331 1_555
F18 V8 2.050849 1_665
F18 V3 2.096598 1_565
F19 Li5 1.926181 1_555
F19 V9 2.061674 1_555
F19 V13 2.079437 1_555
F20 Li4 1.967342 1_555
F20 V10 2.067031 1_555
F20 V4 2.086707 1_565
F21 Li6 1.942256 1_555
F21 V11 2.088015 1_565
F21 V7 2.104028 1_555
F22 Li5 1.978811 1_555
F22 V15 2.080916 1_555
F22 V1 2.101682 1_455
F23 Li4 1.987473 1_555
F23 V12 2.095854 1_555
F23 V14 2.111559 1_564
F23 Li8 2.240412 1_555
F24 V1 1.999512 1_455
F24 V10 2.045666 1_555
F25 V12 2.033582 1_555
F25 V9 2.037498 1_555
F25 Li9 2.184700 1_555
F26 Li11 1.982392 1_555
F26 V7 2.043181 1_555
F26 V5 2.086170 1_556
F27 Li10 2.000848 1_555
F27 V15 2.054730 1_555
F27 V4 2.100817 1_556
F28 Li10 1.988758 1_555
F28 V14 2.058171 1_555
F28 V13 2.126146 1_555
F28 Li2 2.333729 1_556
F29 Li11 1.987190 1_555
F29 V6 2.068076 1_555
F29 V3 2.128308 1_565
F29 Li3 2.305723 1_556
F30 V5 2.027018 1_556
F30 V13 2.041710 1_555
F30 Li2 2.371617 1_556
F31 V4 2.031882 1_666
F31 V3 2.047357 1_565
F31 Li3 2.354501 1_556
F32 Li9 1.980673 1_555
F32 V13 2.065469 1_555
F32 V8 2.070091 1_565
F33 Li9 1.991376 1_555
F33 V15 2.100012 1_565
F33 V11 2.108823 1_565
F33 Li11 2.250378 1_555
F34 V6 2.010689 1_455
F34 V13 2.043733 1_555
F35 V5 2.036860 1_556
F35 V15 2.039619 1_565
F35 Li4 2.165513 1_556
