# generated using pymatgen
data_Ho2TiO5
_symmetry_space_group_name_H-M   'P 1'
_cell_length_a   3.62257000
_cell_length_b   7.45058000
_cell_length_c   15.46651300
_cell_angle_alpha   90.00000000
_cell_angle_beta   90.00000000
_cell_angle_gamma   90.00000000
_symmetry_Int_Tables_number   1
_chemical_formula_structural   Ho2TiO5
_chemical_formula_sum   'Ho8 Ti4 O20'
_cell_volume   417.44501523
_cell_formula_units_Z   4
loop_
 _symmetry_equiv_pos_site_id
 _symmetry_equiv_pos_as_xyz
  1  'x, y, z'
loop_
 _atom_site_type_symbol
 _atom_site_label
 _atom_site_symmetry_multiplicity
 _atom_site_fract_x
 _atom_site_fract_y
 _atom_site_fract_z
 _atom_site_occupancy
  Ho  Ho0  1  0.25000000  0.10048200  0.08409300  1
  Ho  Ho1  1  0.25000000  0.16108600  0.73749000  1
  Ho  Ho2  1  0.75000000  0.33891400  0.23749000  1
  Ho  Ho3  1  0.75000000  0.39951800  0.58409300  1
  Ho  Ho4  1  0.25000000  0.60048200  0.41590700  1
  Ho  Ho5  1  0.25000000  0.66108600  0.76251000  1
  Ho  Ho6  1  0.75000000  0.83891400  0.26251000  1
  Ho  Ho7  1  0.75000000  0.89951800  0.91590700  1
  Ti  Ti0  1  0.25000000  0.11341200  0.42356900  1
  Ti  Ti1  1  0.75000000  0.38658800  0.92356900  1
  Ti  Ti2  1  0.25000000  0.61341200  0.07643100  1
  Ti  Ti3  1  0.75000000  0.88658800  0.57643100  1
  O  O0  1  0.75000000  0.06997200  0.17385200  1
  O  O1  1  0.75000000  0.07332200  0.45330700  1
  O  O2  1  0.75000000  0.12091800  0.64837300  1
  O  O3  1  0.75000000  0.15786200  0.99497800  1
  O  O4  1  0.25000000  0.24662800  0.32254000  1
  O  O5  1  0.75000000  0.25337200  0.82254000  1
  O  O6  1  0.25000000  0.34213800  0.49497800  1
  O  O7  1  0.25000000  0.37908200  0.14837300  1
  O  O8  1  0.25000000  0.42667800  0.95330700  1
  O  O9  1  0.25000000  0.43002800  0.67385200  1
  O  O10  1  0.75000000  0.56997200  0.32614800  1
  O  O11  1  0.75000000  0.57332200  0.04669300  1
  O  O12  1  0.75000000  0.62091800  0.85162700  1
  O  O13  1  0.75000000  0.65786200  0.50502200  1
  O  O14  1  0.25000000  0.74662800  0.17746000  1
  O  O15  1  0.75000000  0.75337200  0.67746000  1
  O  O16  1  0.25000000  0.84213800  0.00502200  1
  O  O17  1  0.25000000  0.87908200  0.35162700  1
  O  O18  1  0.25000000  0.92667800  0.54669300  1
  O  O19  1  0.25000000  0.93002800  0.82614800  1
loop_
_geom_bond_atom_site_label_1
_geom_bond_atom_site_label_2
_geom_bond_distance
_geom_bond_site_symmetry_2
Ho0 O16 2.280464 1_545
Ho0 O0 2.293401 1_455
Ho0 O0 2.293401 1_555
Ho0 O7 2.301537 1_555
Ho0 O3 2.315864 1_454
Ho0 O3 2.315864 1_554
Ho1 O19 2.200884 1_545
Ho1 O9 2.232459 1_555
Ho1 O2 2.295672 1_555
Ho1 O2 2.295672 1_455
Ho1 O5 2.341767 1_555
Ho1 O5 2.341767 1_455
Ho2 O10 2.200884 1_555
Ho2 O0 2.232459 1_555
Ho2 O7 2.295672 1_555
Ho2 O7 2.295672 1_655
Ho2 O4 2.341767 1_555
Ho2 O4 2.341767 1_655
Ho3 O13 2.280464 1_555
Ho3 O9 2.293401 1_555
Ho3 O9 2.293401 1_655
Ho3 O2 2.301537 1_555
Ho3 O6 2.315864 1_655
Ho3 O6 2.315864 1_555
Ho4 O6 2.280464 1_555
Ho4 O10 2.293401 1_555
Ho4 O10 2.293401 1_455
Ho4 O17 2.301537 1_555
Ho4 O13 2.315864 1_555
Ho4 O13 2.315864 1_455
Ho5 O9 2.200884 1_555
Ho5 O19 2.232459 1_555
Ho5 O12 2.295672 1_455
Ho5 O12 2.295672 1_555
Ho5 O15 2.341767 1_555
Ho5 O15 2.341767 1_455
Ho6 O0 2.200884 1_565
Ho6 O10 2.232459 1_555
Ho6 O17 2.295672 1_555
Ho6 O17 2.295672 1_655
Ho6 O14 2.341767 1_555
Ho6 O14 2.341767 1_655
Ho7 O3 2.280464 1_565
Ho7 O19 2.293401 1_555
Ho7 O19 2.293401 1_655
Ho7 O12 2.301537 1_555
Ho7 O16 2.315864 1_656
Ho7 O16 2.315864 1_556
O1 Ti0 1.892490 1_555
O1 Ti0 1.892490 1_655
O1 Ti3 2.358390 1_545
O2 Ti3 2.070321 1_545
O3 Ti1 2.030740 1_555
O4 Ti0 1.851146 1_555
O5 Ti1 1.851146 1_555
O6 Ti0 2.030740 1_555
O7 Ti2 2.070321 1_555
O8 Ti1 1.892490 1_455
O8 Ti1 1.892490 1_555
O8 Ti2 2.358390 1_556
O11 Ti2 1.892490 1_555
O11 Ti2 1.892490 1_655
O11 Ti1 2.358390 1_554
O12 Ti1 2.070321 1_555
O13 Ti3 2.030740 1_555
O14 Ti2 1.851146 1_555
O15 Ti3 1.851146 1_555
O16 Ti2 2.030740 1_555
O17 Ti0 2.070321 1_565
O18 Ti3 1.892490 1_555
O18 Ti3 1.892490 1_455
O18 Ti0 2.358390 1_565
