# generated using pymatgen
data_Li3Bi(PO4)2
_symmetry_space_group_name_H-M   'P 1'
_cell_length_a   5.34843400
_cell_length_b   6.75749900
_cell_length_c   9.52471436
_cell_angle_alpha   83.89983621
_cell_angle_beta   90.00000000
_cell_angle_gamma   90.00000000
_symmetry_Int_Tables_number   1
_chemical_formula_structural   Li3Bi(PO4)2
_chemical_formula_sum   'Li6 Bi2 P4 O16'
_cell_volume   342.29335731
_cell_formula_units_Z   2
loop_
 _symmetry_equiv_pos_site_id
 _symmetry_equiv_pos_as_xyz
  1  'x, y, z'
loop_
 _atom_site_type_symbol
 _atom_site_label
 _atom_site_symmetry_multiplicity
 _atom_site_fract_x
 _atom_site_fract_y
 _atom_site_fract_z
 _atom_site_occupancy
  Li  Li0  1  0.75000000  0.69640200  0.04748800  1
  Li  Li1  1  0.25000000  0.46993200  0.22938200  1
  Li  Li2  1  0.75000000  0.26091100  0.46321800  1
  Li  Li3  1  0.25000000  0.73908900  0.53678200  1
  Li  Li4  1  0.75000000  0.53006800  0.77061800  1
  Li  Li5  1  0.25000000  0.30359800  0.95251200  1
  Bi  Bi0  1  0.25000000  0.01232800  0.23390300  1
  Bi  Bi1  1  0.75000000  0.98767200  0.76609700  1
  P  P0  1  0.75000000  0.21446200  0.05167100  1
  P  P1  1  0.75000000  0.73117100  0.44320900  1
  P  P2  1  0.25000000  0.26882900  0.55679100  1
  P  P3  1  0.25000000  0.78553800  0.94832900  1
  O  O0  1  0.75000000  0.98437100  0.08317600  1
  O  O1  1  0.25000000  0.72327300  0.11303000  1
  O  O2  1  0.50903400  0.30312900  0.11224200  1
  O  O3  1  0.99096600  0.30312900  0.11224200  1
  O  O4  1  0.50824600  0.84984400  0.39390900  1
  O  O5  1  0.99175400  0.84984400  0.39390900  1
  O  O6  1  0.75000000  0.52654800  0.39041900  1
  O  O7  1  0.25000000  0.27404600  0.39161900  1
  O  O8  1  0.75000000  0.72595400  0.60838100  1
  O  O9  1  0.25000000  0.47345200  0.60958100  1
  O  O10  1  0.00824600  0.15015600  0.60609100  1
  O  O11  1  0.49175400  0.15015600  0.60609100  1
  O  O12  1  0.00903400  0.69687100  0.88775800  1
  O  O13  1  0.49096600  0.69687100  0.88775800  1
  O  O14  1  0.75000000  0.27672700  0.88697000  1
  O  O15  1  0.25000000  0.01562900  0.91682400  1
loop_
_geom_bond_atom_site_label_1
_geom_bond_atom_site_label_2
_geom_bond_distance
_geom_bond_site_symmetry_2
Li0 O0 2.010684 1_555
Li0 O12 2.057425 1_654
Li0 O13 2.057425 1_554
Li1 O7 1.924911 1_555
Li1 O1 1.937964 1_555
Li1 O2 2.168421 1_555
Li1 O3 2.168421 1_455
Li2 O6 1.854301 1_555
Li2 O10 2.025653 1_655
Li2 O11 2.025653 1_555
Li3 O9 1.854301 1_555
Li3 O4 2.025653 1_555
Li3 O5 2.025653 1_455
Li4 O8 1.924911 1_555
Li4 O14 1.937964 1_555
Li4 O12 2.168421 1_655
Li4 O13 2.168421 1_555
Li5 O15 2.010684 1_555
Li5 O2 2.057425 1_556
Li5 O3 2.057425 1_456
Bi0 O4 2.253949 1_545
Bi0 O5 2.253949 1_445
Bi0 O1 2.370386 1_545
Bi0 O7 2.439068 1_555
Bi0 O2 2.576780 1_555
Bi0 O3 2.576780 1_455
Bi1 O10 2.253949 1_665
Bi1 O11 2.253949 1_565
Bi1 O14 2.370386 1_565
Bi1 O8 2.439068 1_555
Bi1 O12 2.576780 1_655
Bi1 O13 2.576780 1_555
O0 P0 1.551905 1_565
O1 P3 1.580400 1_554
O2 P0 1.557655 1_555
O3 P0 1.557655 1_555
O4 P1 1.566978 1_555
O5 P1 1.566978 1_555
O6 P1 1.520708 1_555
O7 P2 1.569861 1_555
O8 P1 1.569861 1_555
O9 P2 1.520708 1_555
O10 P2 1.566978 1_555
O11 P2 1.566978 1_555
O12 P3 1.557655 1_555
O13 P3 1.557655 1_555
O14 P0 1.580400 1_556
O15 P3 1.551905 1_545
