# generated using pymatgen
data_Fe32O35
_symmetry_space_group_name_H-M   'P 1'
_cell_length_a   3.09952100
_cell_length_b   13.41148027
_cell_length_c   18.49732032
_cell_angle_alpha   105.17248826
_cell_angle_beta   94.59936236
_cell_angle_gamma   96.60591632
_symmetry_Int_Tables_number   1
_chemical_formula_structural   Fe32O35
_chemical_formula_sum   'Fe32 O35'
_cell_volume   732.29379488
_cell_formula_units_Z   1
loop_
 _symmetry_equiv_pos_site_id
 _symmetry_equiv_pos_as_xyz
  1  'x, y, z'
loop_
 _atom_site_type_symbol
 _atom_site_label
 _atom_site_symmetry_multiplicity
 _atom_site_fract_x
 _atom_site_fract_y
 _atom_site_fract_z
 _atom_site_occupancy
  Fe  Fe0  1  0.00794200  0.01392900  0.00083400  1
  Fe  Fe1  1  0.22208900  0.30158000  0.13266400  1
  Fe  Fe2  1  0.19816000  0.38746300  0.00140900  1
  Fe  Fe3  1  0.85712400  0.42810800  0.28182100  1
  Fe  Fe4  1  0.79303700  0.59889100  0.00174600  1
  Fe  Fe5  1  0.83061300  0.51372800  0.14343600  1
  Fe  Fe6  1  0.46691300  0.64738400  0.28610500  1
  Fe  Fe7  1  0.48453400  0.54366000  0.42482000  1
  Fe  Fe8  1  0.44470000  0.72623800  0.15292900  1
  Fe  Fe9  1  0.39922400  0.80053000  0.00150400  1
  Fe  Fe10  1  0.10493000  0.64520700  0.57191500  1
  Fe  Fe11  1  0.02347700  0.91678900  0.14090500  1
  Fe  Fe12  1  0.08409200  0.74359900  0.43182200  1
  Fe  Fe13  1  0.62534700  0.11398800  0.14687400  1
  Fe  Fe14  1  0.70588100  0.85513000  0.56945300  1
  Fe  Fe15  1  0.67068800  0.93163000  0.41801000  1
  Fe  Fe16  1  0.65298900  0.01420800  0.28437400  1
  Fe  Fe17  1  0.25537700  0.22966400  0.28692300  1
  Fe  Fe18  1  0.36116700  0.88389700  0.85783000  1
  Fe  Fe19  1  0.31729200  0.05749000  0.56904800  1
  Fe  Fe20  1  0.28404200  0.14305700  0.42869000  1
  Fe  Fe21  1  0.75011600  0.77289900  0.71469700  1
  Fe  Fe22  1  0.94250100  0.16997200  0.71210300  1
  Fe  Fe23  1  0.91441500  0.27246600  0.57228300  1
  Fe  Fe24  1  0.89353000  0.34907300  0.43698700  1
  Fe  Fe25  1  0.97795300  0.09184100  0.86605700  1
  Fe  Fe26  1  0.33851900  0.97324400  0.71398000  1
  Fe  Fe27  1  0.54923600  0.36923700  0.71366500  1
  Fe  Fe28  1  0.56766000  0.28730100  0.85575200  1
  Fe  Fe29  1  0.17916100  0.48879700  0.85700400  1
  Fe  Fe30  1  0.77466100  0.68658000  0.85805900  1
  Fe  Fe31  1  0.12901700  0.56317200  0.70506800  1
  O  O0  1  0.10127500  0.14582900  0.07955400  1
  O  O1  1  0.74815100  0.27847600  0.21624900  1
  O  O2  1  0.72360100  0.36884400  0.07716100  1
  O  O3  1  0.37574100  0.38956800  0.35898100  1
  O  O4  1  0.34529000  0.47803400  0.20919300  1
  O  O5  1  0.31481700  0.54996700  0.07403500  1
  O  O6  1  0.99214600  0.50968100  0.48414100  1
  O  O7  1  0.97376300  0.57688300  0.35735600  1
  O  O8  1  0.93431700  0.65889500  0.20714200  1
  O  O9  1  0.91876900  0.75132700  0.06732700  1
  O  O10  1  0.58028700  0.69113900  0.49942200  1
  O  O11  1  0.58223000  0.77693100  0.37020300  1
  O  O12  1  0.52865100  0.95960800  0.06173300  1
  O  O13  1  0.52277400  0.88057100  0.20033200  1
  O  O14  1  0.21403600  0.80462700  0.64152900  1
  O  O15  1  0.18997500  0.90532200  0.50514500  1
  O  O16  1  0.17955500  0.99874200  0.36336200  1
  O  O17  1  0.15945200  0.07840100  0.21767000  1
  O  O18  1  0.83692300  0.93592400  0.78886600  1
  O  O19  1  0.84426200  0.00949700  0.64570000  1
  O  O20  1  0.77431600  0.18415200  0.36353300  1
  O  O21  1  0.79560400  0.10523700  0.49537300  1
  O  O22  1  0.40304400  0.20800800  0.64219200  1
  O  O23  1  0.47743100  0.13737300  0.78801500  1
  O  O24  1  0.38856500  0.28847700  0.49461700  1
  O  O25  1  0.48164700  0.03845000  0.93397700  1
  O  O26  1  0.05304800  0.41289800  0.65506600  1
  O  O27  1  0.08210600  0.25247500  0.91412300  1
  O  O28  1  0.04070800  0.32846900  0.78925900  1
  O  O29  1  0.63578300  0.53269200  0.78160600  1
  O  O30  1  0.62984000  0.60991800  0.65055800  1
  O  O31  1  0.69817400  0.44207400  0.92421200  1
  O  O32  1  0.27222600  0.72092900  0.78185700  1
  O  O33  1  0.26691000  0.64507600  0.92699200  1
  O  O34  1  0.88447400  0.84996300  0.92984600  1
loop_
_geom_bond_atom_site_label_1
_geom_bond_atom_site_label_2
_geom_bond_distance
_geom_bond_site_symmetry_2
Fe0 O0 1.949255 1_555
Fe0 O25 2.046044 1_554
Fe0 O25 2.076371 1_454
Fe0 O12 2.110818 1_445
Fe0 O12 2.193864 1_545
Fe0 O34 2.218261 1_444
Fe1 O0 2.038503 1_555
Fe1 O2 2.168464 1_555
Fe1 O2 2.192298 1_455
Fe1 O1 2.260046 1_555
Fe1 O1 2.270380 1_455
Fe1 O4 2.387863 1_555
Fe2 O27 2.059292 1_554
Fe2 O2 2.142164 1_555
Fe2 O2 2.149067 1_455
Fe2 O5 2.212130 1_555
Fe2 O31 2.330399 1_454
Fe2 O31 2.370344 1_554
Fe3 O1 2.028955 1_555
Fe3 O7 2.087531 1_555
Fe3 O3 2.254039 1_555
Fe3 O3 2.257773 1_655
Fe3 O4 2.259712 1_655
Fe3 O4 2.267902 1_555
Fe4 O9 2.060504 1_555
Fe4 O31 2.185807 1_554
Fe4 O5 2.229109 1_555
Fe4 O33 2.240022 1_654
Fe4 O5 2.278299 1_655
Fe4 O33 2.296537 1_554
Fe5 O8 1.968939 1_555
Fe5 O2 1.981954 1_555
Fe5 O4 2.098568 1_555
Fe5 O4 2.103034 1_655
Fe5 O5 2.145772 1_655
Fe5 O5 2.148560 1_555
Fe6 O11 1.979758 1_555
Fe6 O8 2.159153 1_555
Fe6 O8 2.161548 1_455
Fe6 O4 2.313052 1_555
Fe6 O7 2.368601 1_455
Fe6 O7 2.400216 1_555
Fe7 O6 2.009222 1_555
Fe7 O6 2.027604 1_455
Fe7 O10 2.067606 1_555
Fe7 O3 2.079442 1_555
Fe7 O7 2.097297 1_455
Fe7 O7 2.119969 1_555
Fe8 O13 2.003078 1_555
Fe8 O8 2.160957 1_555
Fe8 O8 2.173391 1_455
Fe8 O9 2.295402 1_455
Fe8 O9 2.306028 1_555
Fe8 O5 2.400292 1_555
Fe9 O12 2.107377 1_555
Fe9 O9 2.149601 1_455
Fe9 O33 2.150111 1_554
Fe9 O9 2.204922 1_555
Fe9 O34 2.238048 1_554
Fe9 O34 2.259684 1_454
Fe10 O6 2.068810 1_455
Fe10 O14 2.160194 1_555
Fe10 O10 2.211068 1_555
Fe10 O30 2.247683 1_455
Fe10 O10 2.266066 1_455
Fe10 O30 2.268283 1_555
Fe11 O13 2.004719 1_555
Fe11 O13 2.057287 1_455
Fe11 O17 2.230376 1_565
Fe11 O9 2.250455 1_455
Fe11 O12 2.260400 1_455
Fe11 O12 2.351013 1_555
Fe12 O11 2.015189 1_455
Fe12 O11 2.067121 1_555
Fe12 O10 2.196575 1_555
Fe12 O15 2.208286 1_555
Fe12 O10 2.240063 1_455
Fe12 O7 2.269347 1_455
Fe13 O0 2.082560 1_655
Fe13 O0 2.117810 1_555
Fe13 O17 2.121279 1_555
Fe13 O17 2.201029 1_655
Fe13 O1 2.214681 1_555
Fe13 O12 2.220718 1_545
Fe14 O15 2.143007 1_655
Fe14 O19 2.151620 1_565
Fe14 O15 2.187886 1_555
Fe14 O10 2.213046 1_555
Fe14 O14 2.257948 1_655
Fe14 O14 2.263037 1_555
Fe15 O11 2.007879 1_555
Fe15 O16 2.166557 1_555
Fe15 O16 2.173694 1_655
Fe15 O15 2.307636 1_655
Fe15 O15 2.346098 1_555
Fe15 O21 2.361877 1_565
Fe16 O13 2.016501 1_545
Fe16 O16 2.166931 1_645
Fe16 O16 2.182546 1_545
Fe16 O17 2.271558 1_555
Fe16 O17 2.298593 1_655
Fe16 O20 2.334037 1_555
Fe17 O17 2.069942 1_555
Fe17 O3 2.180543 1_555
Fe17 O1 2.228087 1_455
Fe17 O1 2.237971 1_555
Fe17 O20 2.277317 1_455
Fe17 O20 2.298029 1_555
Fe18 O25 2.151537 1_565
Fe18 O34 2.154754 1_455
Fe18 O34 2.180176 1_555
Fe18 O18 2.195338 1_555
Fe18 O32 2.240393 1_555
Fe18 O18 2.269102 1_455
Fe19 O15 2.048162 1_545
Fe19 O22 2.089360 1_555
Fe19 O21 2.242224 1_555
Fe19 O19 2.273374 1_455
Fe19 O21 2.285502 1_455
Fe19 O19 2.332520 1_555
Fe20 O16 1.969755 1_545
Fe20 O24 1.985461 1_555
Fe20 O21 2.119359 1_555
Fe20 O20 2.120168 1_455
Fe20 O20 2.124689 1_555
Fe20 O21 2.126252 1_455
Fe21 O14 2.133828 1_655
Fe21 O30 2.169898 1_555
Fe21 O32 2.175756 1_555
Fe21 O14 2.208428 1_555
Fe21 O18 2.229408 1_555
Fe21 O32 2.244608 1_655
Fe22 O22 2.108070 1_655
Fe22 O19 2.153804 1_555
Fe22 O23 2.177545 1_555
Fe22 O28 2.200331 1_655
Fe22 O22 2.218796 1_555
Fe22 O23 2.242017 1_655
Fe23 O26 2.067669 1_655
Fe23 O24 2.152433 1_555
Fe23 O24 2.167319 1_655
Fe23 O21 2.290281 1_555
Fe23 O22 2.299035 1_655
Fe23 O22 2.351671 1_555
Fe24 O6 2.077547 1_555
Fe24 O24 2.151549 1_655
Fe24 O24 2.162153 1_555
Fe24 O20 2.243473 1_555
Fe24 O3 2.275988 1_655
Fe24 O3 2.278590 1_555
Fe25 O27 2.080195 1_655
Fe25 O18 2.174650 1_545
Fe25 O25 2.223069 1_655
Fe25 O25 2.232695 1_555
Fe25 O23 2.276794 1_555
Fe25 O23 2.335779 1_655
Fe26 O19 2.088293 1_465
Fe26 O19 2.180001 1_565
Fe26 O18 2.180218 1_555
Fe26 O23 2.239547 1_565
Fe26 O18 2.261778 1_455
Fe26 O14 2.277884 1_555
Fe27 O26 2.038414 1_555
Fe27 O26 2.085569 1_655
Fe27 O22 2.193373 1_555
Fe27 O28 2.196564 1_655
Fe27 O29 2.196700 1_555
Fe27 O28 2.300850 1_555
Fe28 O27 2.002934 1_555
Fe28 O27 2.021308 1_655
Fe28 O23 2.046189 1_555
Fe28 O31 2.103480 1_555
Fe28 O28 2.103766 1_655
Fe28 O28 2.173945 1_555
Fe29 O33 2.129536 1_555
Fe29 O31 2.156562 1_455
Fe29 O28 2.160779 1_555
Fe29 O31 2.201132 1_555
Fe29 O29 2.202130 1_555
Fe29 O29 2.325811 1_455
Fe30 O33 2.125663 1_655
Fe30 O29 2.148235 1_555
Fe30 O32 2.185664 1_555
Fe30 O33 2.214553 1_555
Fe30 O34 2.216606 1_555
Fe30 O32 2.258867 1_655
Fe31 O26 1.962871 1_555
Fe31 O30 2.026678 1_455
Fe31 O30 2.043858 1_555
Fe31 O29 2.175471 1_555
Fe31 O32 2.191048 1_555
Fe31 O29 2.239399 1_455
