# generated using pymatgen
data_Li6TiNi3(PO4)6
_symmetry_space_group_name_H-M   'P 1'
_cell_length_a   8.60191000
_cell_length_b   8.63950317
_cell_length_c   8.65884547
_cell_angle_alpha   61.41137694
_cell_angle_beta   61.28442883
_cell_angle_gamma   61.18166426
_symmetry_Int_Tables_number   1
_chemical_formula_structural   Li6TiNi3(PO4)6
_chemical_formula_sum   'Li6 Ti1 Ni3 P6 O24'
_cell_volume   468.23499808
_cell_formula_units_Z   1
loop_
 _symmetry_equiv_pos_site_id
 _symmetry_equiv_pos_as_xyz
  1  'x, y, z'
loop_
 _atom_site_type_symbol
 _atom_site_label
 _atom_site_symmetry_multiplicity
 _atom_site_fract_x
 _atom_site_fract_y
 _atom_site_fract_z
 _atom_site_occupancy
  Li  Li0  1  0.97703600  0.99888900  0.98414800  1
  Li  Li1  1  0.25609500  0.64851000  0.84243500  1
  Li  Li2  1  0.52086000  0.51229700  0.49654100  1
  Li  Li3  1  0.70585600  0.35751200  0.15011400  1
  Li  Li4  1  0.34949200  0.16015000  0.70007500  1
  Li  Li5  1  0.15641700  0.70153100  0.35318800  1
  Ti  Ti0  1  0.14865800  0.14644500  0.14802400  1
  Ni  Ni0  1  0.85733100  0.85860700  0.85380500  1
  Ni  Ni1  1  0.64244900  0.64404700  0.64118100  1
  Ni  Ni2  1  0.35395200  0.35307900  0.35244700  1
  P  P0  1  0.95361600  0.55207900  0.24988900  1
  P  P1  1  0.55009400  0.25097000  0.95551400  1
  P  P2  1  0.24998100  0.95817700  0.54875900  1
  P  P3  1  0.75250600  0.04689800  0.45242300  1
  P  P4  1  0.45068900  0.75110600  0.03778700  1
  P  P5  1  0.04599400  0.46063800  0.75515000  1
  O  O0  1  0.86521100  0.49282000  0.73752900  1
  O  O1  1  0.72399000  0.87353800  0.47956100  1
  O  O2  1  0.94139500  0.73698300  0.08630500  1
  O  O3  1  0.44680500  0.71876900  0.88045700  1
  O  O4  1  0.76609000  0.55469700  0.40828100  1
  O  O5  1  0.01295300  0.38515600  0.18397000  1
  O  O6  1  0.74111800  0.10003700  0.91796600  1
  O  O7  1  0.52641000  0.42232100  0.77976800  1
  O  O8  1  0.40555900  0.76546000  0.55326600  1
  O  O9  1  0.81985700  0.99946900  0.60790000  1
  O  O10  1  0.89745600  0.10134900  0.25222000  1
  O  O11  1  0.61535100  0.80897500  0.98222300  1
  O  O12  1  0.38539800  0.17832300  0.02128900  1
  O  O13  1  0.09760400  0.92815000  0.74188200  1
  O  O14  1  0.17885300  0.01806400  0.38674600  1
  O  O15  1  0.57879600  0.22779700  0.45648600  1
  O  O16  1  0.45626900  0.57825100  0.21969600  1
  O  O17  1  0.25390100  0.90067900  0.10215000  1
  O  O18  1  0.03788500  0.60808100  0.81281200  1
  O  O19  1  0.22241800  0.45592200  0.57516500  1
  O  O20  1  0.53205100  0.29832400  0.11523000  1
  O  O21  1  0.10121800  0.25801100  0.89917600  1
  O  O22  1  0.31001200  0.11139500  0.52367200  1
  O  O23  1  0.11237900  0.52549400  0.30576900  1
loop_
_geom_bond_atom_site_label_1
_geom_bond_atom_site_label_2
_geom_bond_distance
_geom_bond_site_symmetry_2
Li0 O6 2.034418 1_565
Li0 O13 2.091638 1_655
Li0 O2 2.118745 1_556
Li0 O10 2.548632 1_566
Li0 O21 2.582239 1_665
Li0 O17 2.645047 1_656
Li1 O13 2.098968 1_555
Li1 O8 2.163564 1_555
Li1 O3 2.199594 1_555
Li1 O18 2.211664 1_555
Li1 O7 2.222984 1_555
Li1 O2 2.535399 1_456
Li2 O4 2.023840 1_555
Li2 O8 2.116004 1_555
Li2 O7 2.207523 1_555
Li2 O15 2.424657 1_555
Li2 O16 2.459091 1_555
Li2 O19 2.549457 1_555
Li3 O20 1.976539 1_555
Li3 O10 2.099299 1_555
Li3 O16 2.125716 1_555
Li3 O15 2.244426 1_555
Li4 O22 1.969253 1_555
Li4 O21 2.089057 1_555
Li4 O15 2.148197 1_555
Li4 O19 2.166222 1_555
Li5 O23 1.981830 1_555
Li5 O17 2.109154 1_555
Li5 O19 2.122070 1_555
Li5 O16 2.188183 1_555
Ni0 O9 1.979921 1_555
Ni0 O11 1.983174 1_555
Ni0 O18 2.046358 1_655
Ni0 O6 2.055195 1_565
Ni0 O13 2.070520 1_655
Ni0 O2 2.078882 1_556
Ni1 O1 2.030641 1_555
Ni1 O0 2.038170 1_555
Ni1 O3 2.103254 1_555
Ni1 O4 2.105052 1_555
Ni1 O8 2.120793 1_555
Ni1 O7 2.144359 1_555
Ni2 O23 1.986708 1_555
Ni2 O22 1.990102 1_555
Ni2 O20 1.999314 1_555
Ni2 O19 2.088692 1_555
Ni2 O16 2.102096 1_555
Ni2 O15 2.108713 1_555
O0 P5 1.513083 1_655
O1 P3 1.523350 1_565
O2 P0 1.544336 1_555
O3 P4 1.533621 1_556
O4 P0 1.533678 1_555
O5 P0 1.569794 1_455
O5 Ti0 1.912344 1_555
O6 P1 1.527350 1_555
O7 P1 1.549177 1_555
O8 P2 1.550650 1_555
O9 P3 1.519409 1_565
O10 P3 1.577681 1_555
O10 Ti0 2.058345 1_655
O11 P4 1.511724 1_556
O12 P1 1.570070 1_554
O12 Ti0 1.879133 1_555
O13 P2 1.545348 1_555
O14 P2 1.560437 1_545
O14 Ti0 1.901158 1_555
O15 P3 1.557973 1_555
O16 P4 1.570303 1_555
O17 P4 1.587373 1_555
O17 Ti0 2.023416 1_565
O18 P5 1.538298 1_555
O19 P5 1.569078 1_555
O20 P1 1.542090 1_554
O21 P5 1.588611 1_555
O21 Ti0 2.053422 1_556
O22 P2 1.530392 1_545
O23 P0 1.542116 1_455
