# generated using pymatgen
data_Fe(CO)5
_symmetry_space_group_name_H-M   'P 1'
_cell_length_a   7.39400707
_cell_length_b   7.39400707
_cell_length_c   9.98008188
_cell_angle_alpha   72.87058391
_cell_angle_beta   72.87058391
_cell_angle_gamma   59.46142246
_symmetry_Int_Tables_number   1
_chemical_formula_structural   Fe(CO)5
_chemical_formula_sum   'Fe2 C10 O10'
_cell_volume   442.08233285
_cell_formula_units_Z   2
loop_
 _symmetry_equiv_pos_site_id
 _symmetry_equiv_pos_as_xyz
  1  'x, y, z'
loop_
 _atom_site_type_symbol
 _atom_site_label
 _atom_site_symmetry_multiplicity
 _atom_site_fract_x
 _atom_site_fract_y
 _atom_site_fract_z
 _atom_site_occupancy
  Fe  Fe0  1  0.16730500  0.83343900  0.49821500  1
  Fe  Fe1  1  0.83343900  0.16730500  0.99821500  1
  C  C0  1  0.41152500  0.74717200  0.34498600  1
  C  C1  1  0.74717200  0.41152500  0.84498600  1
  C  C2  1  0.28821000  0.98161500  0.57017500  1
  C  C3  1  0.98161500  0.28821000  0.07017500  1
  C  C4  1  0.21048100  0.61490100  0.66844700  1
  C  C5  1  0.61490100  0.21048100  0.16844700  1
  C  C6  1  0.04212500  0.69080000  0.42787200  1
  C  C7  1  0.69080000  0.04212500  0.92787200  1
  C  C8  1  0.89325200  0.11363800  0.48735100  1
  C  C9  1  0.11363800  0.89325200  0.98735100  1
  O  O0  1  0.54095700  0.71227200  0.24325000  1
  O  O1  1  0.71227100  0.54095700  0.74325000  1
  O  O2  1  0.34779700  0.07176600  0.60842200  1
  O  O3  1  0.07176600  0.34779700  0.10842200  1
  O  O4  1  0.21503800  0.49396000  0.77408000  1
  O  O5  1  0.49396000  0.21503800  0.27408000  1
  O  O6  1  0.97640500  0.60673900  0.38894000  1
  O  O7  1  0.60673900  0.97640500  0.88894000  1
  O  O8  1  0.73839000  0.27241200  0.48286100  1
  O  O9  1  0.27241200  0.73839000  0.98286100  1
loop_
_geom_bond_atom_site_label_1
_geom_bond_atom_site_label_2
_geom_bond_distance
_geom_bond_site_symmetry_2
C0 O0 1.159466 1_555
C0 Fe0 1.945154 1_555
C1 O1 1.159467 1_555
C1 Fe1 1.945154 1_555
C2 O2 1.153925 1_565
C2 Fe0 2.086230 1_555
C3 O3 1.153925 1_655
C3 Fe1 2.086230 1_554
C4 O4 1.160676 1_555
C4 Fe0 1.943567 1_555
C5 O5 1.160676 1_555
C5 Fe1 1.943567 1_554
C6 O6 1.154917 1_455
C6 Fe0 2.067083 1_555
C7 O7 1.154917 1_545
C7 Fe1 2.067083 1_555
C8 O8 1.150877 1_555
C8 Fe0 2.034928 1_645
C9 O9 1.150877 1_555
C9 Fe1 2.034928 1_465
