# generated using pymatgen
data_Ba8Co7O19
_symmetry_space_group_name_H-M   'P 1'
_cell_length_a   10.67746700
_cell_length_b   10.69849926
_cell_length_c   11.69972732
_cell_angle_alpha   105.69890715
_cell_angle_beta   104.82812548
_cell_angle_gamma   115.02158704
_symmetry_Int_Tables_number   1
_chemical_formula_structural   Ba8Co7O19
_chemical_formula_sum   'Ba16 Co14 O38'
_cell_volume   1055.59080780
_cell_formula_units_Z   2
loop_
 _symmetry_equiv_pos_site_id
 _symmetry_equiv_pos_as_xyz
  1  'x, y, z'
loop_
 _atom_site_type_symbol
 _atom_site_label
 _atom_site_symmetry_multiplicity
 _atom_site_fract_x
 _atom_site_fract_y
 _atom_site_fract_z
 _atom_site_occupancy
  Ba  Ba0  1  0.00144700  0.00428700  0.33127500  1
  Ba  Ba1  1  0.35664300  0.59672900  0.67750600  1
  Ba  Ba2  1  0.88560200  0.09961600  0.16254300  1
  Ba  Ba3  1  0.85755500  0.13658000  0.66256800  1
  Ba  Ba4  1  0.74760200  0.25718200  0.83105900  1
  Ba  Ba5  1  0.46548600  0.45950100  0.35961600  1
  Ba  Ba6  1  0.53577300  0.54106500  0.81801900  1
  Ba  Ba7  1  0.75798900  0.26089900  0.31667100  1
  Ba  Ba8  1  0.35519500  0.61155500  0.17566000  1
  Ba  Ba9  1  0.16660700  0.87832200  0.66070900  1
  Ba  Ba10  1  0.62688500  0.40738900  0.16169300  1
  Ba  Ba11  1  0.21344300  0.70777600  0.85869700  1
  Ba  Ba12  1  0.01959800  0.00426400  0.81375100  1
  Ba  Ba13  1  0.30637000  0.79033300  0.31342300  1
  Ba  Ba14  1  0.12284100  0.86196800  0.17611700  1
  Ba  Ba15  1  0.61358800  0.37095700  0.67486600  1
  Co  Co0  1  0.17511900  0.87224400  0.99554000  1
  Co  Co1  1  0.83855200  0.14580500  0.99849100  1
  Co  Co2  1  0.41503100  0.54759300  0.00609900  1
  Co  Co3  1  0.29729000  0.66489600  0.50699900  1
  Co  Co4  1  0.71406700  0.30064500  0.00239100  1
  Co  Co5  1  0.27119600  0.68669000  0.00658400  1
  Co  Co6  1  0.56677300  0.43426800  0.00600300  1
  Co  Co7  1  0.04496500  0.95989500  0.50630400  1
  Co  Co8  1  0.43883600  0.52589900  0.50593500  1
  Co  Co9  1  0.18690500  0.81880600  0.50544200  1
  Co  Co10  1  0.61661800  0.42596900  0.49466000  1
  Co  Co11  1  0.73850300  0.25415900  0.51058800  1
  Co  Co12  1  0.88951400  0.08583600  0.49732700  1
  Co  Co13  1  0.95647400  0.97851200  0.01117800  1
  O  O0  1  0.23401100  0.76659500  0.07352300  1
  O  O1  1  0.46587900  0.96339300  0.35756400  1
  O  O2  1  0.34361100  0.11188800  0.41619900  1
  O  O3  1  0.98983700  0.46852500  0.84507000  1
  O  O4  1  0.13516800  0.40924100  0.14438200  1
  O  O5  1  0.60638000  0.94035800  0.63654700  1
  O  O6  1  0.86091500  0.59296900  0.91832600  1
  O  O7  1  0.90364200  0.74023500  0.13282400  1
  O  O8  1  0.90983100  0.68430700  0.64435700  1
  O  O9  1  0.54935700  0.01886600  0.06868400  1
  O  O10  1  0.99020000  0.57530300  0.07027500  1
  O  O11  1  0.51774700  0.50036800  0.57319400  1
  O  O12  1  0.79242500  0.21987400  0.07291800  1
  O  O13  1  0.39850800  0.62987100  0.42142100  1
  O  O14  1  0.42976300  0.15775200  0.14495300  1
  O  O15  1  0.74377200  0.72016800  0.34759200  1
  O  O16  1  0.30831500  0.23604800  0.57464900  1
  O  O17  1  0.19470400  0.22954300  0.35742000  1
  O  O18  1  0.28572300  0.25855300  0.07147800  1
  O  O19  1  0.44974600  0.98411000  0.85697000  1
  O  O20  1  0.71342400  0.71365100  0.85741200  1
  O  O21  1  0.90532800  0.60010100  0.42077100  1
  O  O22  1  0.10638900  0.95852700  0.92226800  1
  O  O23  1  0.27669700  0.75064500  0.57134200  1
  O  O24  1  0.38984800  0.16141700  0.91312100  1
  O  O25  1  0.15487100  0.38389900  0.64654600  1
  O  O26  1  0.96247800  0.04642000  0.57156600  1
  O  O27  1  0.50020000  0.52724000  0.07169800  1
  O  O28  1  0.76309600  0.79641800  0.57377900  1
  O  O29  1  0.12498900  0.27900000  0.92959800  1
  O  O30  1  0.02255100  0.37414800  0.42599400  1
  O  O31  1  0.69077900  0.33447300  0.42557500  1
  O  O32  1  0.46292300  0.11982100  0.65214500  1
  O  O33  1  0.88560700  0.07382100  0.92740900  1
  O  O34  1  0.38472200  0.65362100  0.91854700  1
  O  O35  1  0.00655200  0.53543300  0.57246000  1
  O  O36  1  0.84779800  0.12218400  0.41500800  1
  O  O37  1  0.66728500  0.82577600  0.15857200  1
loop_
_geom_bond_atom_site_label_1
_geom_bond_atom_site_label_2
_geom_bond_distance
_geom_bond_site_symmetry_2
Ba0 Co7 2.204739 1_545
Ba0 O17 2.287050 1_555
Ba0 O7 2.678746 1_445
Ba0 Ba2 2.715539 1_455
Ba0 O37 2.986319 1_445
Ba0 O16 3.085948 1_555
Ba0 O15 3.217772 1_445
Ba1 O25 2.227515 1_555
Ba1 O34 2.626283 1_555
Ba2 Co1 2.100062 1_554
Ba2 O12 2.241325 1_555
Ba2 Co13 2.379310 1_545
Ba2 O37 2.848323 1_545
Ba2 O17 2.928468 1_655
Ba2 O36 3.041835 1_555
Ba2 O30 3.070200 1_655
Ba2 O9 3.112395 1_555
Ba2 O4 3.364897 1_655
Ba3 Co12 2.018693 1_555
Ba3 O26 2.070741 1_555
Ba3 O5 2.483134 1_545
Ba3 O3 3.045593 1_555
Ba3 O29 3.068108 1_655
Ba4 Co4 2.089596 1_556
Ba4 O3 2.542511 1_555
Ba4 O32 2.660954 1_555
Ba4 O5 2.947434 1_545
Ba5 Co8 1.810633 1_555
Ba5 Co10 2.172675 1_555
Ba5 O13 2.238453 1_555
Ba5 O18 2.990976 1_555
Ba5 O15 3.169012 1_555
Ba6 O20 1.830029 1_555
Ba6 O34 2.698523 1_555
Ba6 O16 3.063100 1_555
Ba7 O31 1.777955 1_555
Ba7 O30 2.345318 1_655
Ba7 O9 2.798586 1_555
Ba7 O21 2.987580 1_555
Ba8 O4 2.273310 1_555
Ba8 O13 2.730868 1_555
Ba8 O37 3.244297 1_555
Ba9 Co9 1.855982 1_555
Ba9 O8 2.562148 1_455
Ba9 O19 2.799882 1_555
Ba9 O21 2.994726 1_455
Ba10 Co6 1.911496 1_555
Ba10 O14 2.520325 1_555
Ba10 O15 2.936801 1_555
Ba10 O21 3.016277 1_555
Ba11 Co5 1.790996 1_556
Ba11 O34 2.151978 1_555
Ba11 Co0 2.290563 1_555
Ba11 O3 2.586929 1_455
Ba11 O19 2.975751 1_555
Ba11 O35 2.986821 1_555
Ba12 O22 1.681583 1_545
Ba12 O33 2.389094 1_455
Ba12 O29 2.451148 1_555
Ba12 O28 2.803956 1_445
Ba13 O1 1.720549 1_555
Ba13 O13 2.734547 1_555
Ba14 O7 1.971883 1_455
Ba14 O0 2.232021 1_555
Ba14 Co0 2.337643 1_554
Ba14 O10 2.513538 1_455
Ba14 O2 2.794745 1_565
Ba15 Co10 2.341567 1_555
Ba15 O32 2.369753 1_555
Ba15 O11 2.417802 1_555
Ba15 O16 2.689032 1_555
Ba15 O6 2.812748 1_555
Co0 O22 1.674769 1_555
Co0 O0 1.836041 1_556
Co1 O33 1.315952 1_555
Co1 O12 1.343508 1_556
Co2 O27 1.167968 1_555
Co2 O34 1.791755 1_554
Co2 O37 2.679731 1_555
Co3 O23 1.156838 1_555
Co3 O13 1.733296 1_555
Co4 O12 1.664839 1_555
Co5 O0 1.259266 1_555
Co5 O34 1.860126 1_554
Co5 O3 2.611467 1_454
Co6 O27 1.596688 1_555
Co6 O24 2.416306 1_554
Co7 O26 1.693227 1_465
Co7 O15 2.785196 1_455
Co7 O16 2.796070 1_565
Co8 O11 1.172773 1_555
Co8 O13 1.784067 1_555
Co9 O23 1.600859 1_555
Co9 O21 2.601094 1_455
Co10 O31 1.671419 1_555
Co10 O11 1.844938 1_555
Co11 O31 1.600217 1_555
Co12 O36 1.186097 1_555
Co12 O26 1.291885 1_555
Co13 O33 1.840307 1_564
Co13 O22 2.170594 1_654
Co13 O20 2.575211 1_554
