# generated using pymatgen
data_K2Cr2Cd(H2O5)2
_symmetry_space_group_name_H-M   'P 1'
_cell_length_a   6.04453700
_cell_length_b   6.50927506
_cell_length_c   7.74458525
_cell_angle_alpha   109.82949891
_cell_angle_beta   96.47424526
_cell_angle_gamma   109.87011160
_symmetry_Int_Tables_number   1
_chemical_formula_structural   K2Cr2Cd(H2O5)2
_chemical_formula_sum   'K2 Cr2 Cd1 H4 O10'
_cell_volume   260.47134427
_cell_formula_units_Z   1
loop_
 _symmetry_equiv_pos_site_id
 _symmetry_equiv_pos_as_xyz
  1  'x, y, z'
loop_
 _atom_site_type_symbol
 _atom_site_label
 _atom_site_symmetry_multiplicity
 _atom_site_fract_x
 _atom_site_fract_y
 _atom_site_fract_z
 _atom_site_occupancy
  K  K0  1  0.86332600  0.21693500  0.24417100  1
  K  K1  1  0.13667400  0.78306500  0.75582900  1
  Cr  Cr0  1  0.19590400  0.86883700  0.24020300  1
  Cr  Cr1  1  0.80409600  0.13116300  0.75979700  1
  Cd  Cd0  1  0.00000000  0.00000000  0.00000000  1
  H  H0  1  0.32063000  0.32594000  0.40051900  1
  H  H1  1  0.67937000  0.67406000  0.59948100  1
  H  H2  1  0.30799100  0.22270000  0.31374200  1
  H  H3  1  0.69200900  0.77730000  0.68625800  1
  O  O0  1  0.48927000  0.39721000  0.28754000  1
  O  O1  1  0.90760400  0.45562700  0.36797300  1
  O  O2  1  0.09239600  0.54437300  0.63202700  1
  O  O3  1  0.00695000  0.88126400  0.37946800  1
  O  O4  1  0.99305000  0.11873600  0.62053200  1
  O  O5  1  0.23835000  0.09156000  0.08589900  1
  O  O6  1  0.76165000  0.90844000  0.91410100  1
  O  O7  1  0.64789400  0.07983400  0.11867900  1
  O  O8  1  0.35210600  0.92016600  0.88132100  1
  O  O9  1  0.51073000  0.60279000  0.71246000  1
loop_
_geom_bond_atom_site_label_1
_geom_bond_atom_site_label_2
_geom_bond_distance
_geom_bond_site_symmetry_2
K0 O7 1.331487 1_555
K0 O1 1.433081 1_555
K1 O8 1.331487 1_555
K1 O2 1.433081 1_555
Cr0 O3 1.660032 1_555
Cr0 H2 2.012739 1_565
Cr0 O5 2.141825 1_565
Cr1 O4 1.660032 1_555
Cr1 H3 2.012739 1_545
Cr1 O6 2.141825 1_545
Cd0 O5 1.343354 1_555
Cd0 O6 1.343354 1_444
H0 H2 0.745797 1_555
H0 O0 1.474768 1_555
H1 H3 0.745797 1_555
H1 O9 1.474768 1_555
H2 O0 1.375718 1_555
H2 O5 1.608048 1_555
H3 O9 1.375718 1_555
H3 O6 1.608048 1_555
