# generated using pymatgen
data_K2Rh2O5
_symmetry_space_group_name_H-M   'P 1'
_cell_length_a   8.44058983
_cell_length_b   3.85825071
_cell_length_c   3.85811378
_cell_angle_alpha   90.00000000
_cell_angle_beta   90.00000000
_cell_angle_gamma   90.00000000
_symmetry_Int_Tables_number   1
_chemical_formula_structural   K2Rh2O5
_chemical_formula_sum   'K2 Rh2 O5'
_cell_volume   125.64299271
_cell_formula_units_Z   1
loop_
 _symmetry_equiv_pos_site_id
 _symmetry_equiv_pos_as_xyz
  1  'x, y, z'
loop_
 _atom_site_type_symbol
 _atom_site_label
 _atom_site_symmetry_multiplicity
 _atom_site_fract_x
 _atom_site_fract_y
 _atom_site_fract_z
 _atom_site_occupancy
  K  K0  1  -0.00000000  0.00000000  -0.00000000  1
  K  K1  1  0.50000000  0.00000000  -0.00000000  1
  Rh  Rh0  1  0.26286313  0.50000000  0.50000000  1
  Rh  Rh1  1  0.73713687  0.50000000  0.50000000  1
  O  O0  1  0.23219358  0.50000000  0.00000000  1
  O  O1  1  0.76780642  0.50000000  0.00000000  1
  O  O2  1  0.50000000  0.50000000  0.50000000  1
  O  O3  1  0.23224801  0.00000000  0.50000000  1
  O  O4  1  0.76775199  0.00000000  0.50000000  1
loop_
_geom_bond_atom_site_label_1
_geom_bond_atom_site_label_2
_geom_bond_distance
_geom_bond_site_symmetry_2
K0 O0 2.750007 1_545
K0 O1 2.750007 1_445
K0 O0 2.750007 1_555
K0 O1 2.750007 1_455
K0 O3 2.750287 1_555
K0 O3 2.750287 1_554
K0 O4 2.750287 1_455
K0 O4 2.750287 1_454
K1 O2 2.728147 1_544
K1 O2 2.728147 1_545
K1 O2 2.728147 1_555
K1 O2 2.728147 1_554
K1 O3 2.971328 1_555
K1 O3 2.971328 1_554
K1 O4 2.971328 1_554
K1 O4 2.971328 1_555
K1 O0 2.971722 1_555
K1 O1 2.971722 1_545
K1 O1 2.971722 1_555
K1 O0 2.971722 1_545
O0 Rh0 1.946349 1_555
O0 Rh0 1.946349 1_554
O1 Rh1 1.946349 1_554
O1 Rh1 1.946349 1_555
O2 Rh0 2.001575 1_555
O2 Rh1 2.001575 1_555
O3 Rh0 1.946356 1_545
O3 Rh0 1.946356 1_555
O4 Rh1 1.946356 1_555
O4 Rh1 1.946356 1_545
