# generated using pymatgen
data_Sm3MnAlS7
_symmetry_space_group_name_H-M   'P 1'
_cell_length_a   9.86617149
_cell_length_b   9.86617149
_cell_length_c   6.14412800
_cell_angle_alpha   90.00000000
_cell_angle_beta   90.00000000
_cell_angle_gamma   119.99999657
_symmetry_Int_Tables_number   1
_chemical_formula_structural   Sm3MnAlS7
_chemical_formula_sum   'Sm6 Mn2 Al2 S14'
_cell_volume   517.95045772
_cell_formula_units_Z   2
loop_
 _symmetry_equiv_pos_site_id
 _symmetry_equiv_pos_as_xyz
  1  'x, y, z'
loop_
 _atom_site_type_symbol
 _atom_site_label
 _atom_site_symmetry_multiplicity
 _atom_site_fract_x
 _atom_site_fract_y
 _atom_site_fract_z
 _atom_site_occupancy
  Sm  Sm0  1  0.14918700  0.37763100  0.23720600  1
  Sm  Sm1  1  0.85081300  0.62236900  0.73720600  1
  Sm  Sm2  1  0.62236900  0.77155700  0.23720600  1
  Sm  Sm3  1  0.22844300  0.85081300  0.23720600  1
  Sm  Sm4  1  0.77155700  0.14918700  0.73720600  1
  Sm  Sm5  1  0.37763100  0.22844300  0.73720600  1
  Mn  Mn0  1  0.00000000  0.00000000  0.02951200  1
  Mn  Mn1  1  0.00000000  0.00000000  0.52951200  1
  Al  Al0  1  0.33333300  0.66666700  0.65991500  1
  Al  Al1  1  0.66666700  0.33333300  0.15991500  1
  S  S0  1  0.33333300  0.66666700  0.02455800  1
  S  S1  1  0.66666700  0.33333300  0.52455800  1
  S  S2  1  0.09867700  0.24159200  0.80416000  1
  S  S3  1  0.90132300  0.75840800  0.30416000  1
  S  S4  1  0.75840800  0.85708600  0.80416000  1
  S  S5  1  0.14291400  0.90132300  0.80416000  1
  S  S6  1  0.85708600  0.09867700  0.30416000  1
  S  S7  1  0.24159200  0.14291400  0.30416000  1
  S  S8  1  0.42558000  0.52066200  0.50865900  1
  S  S9  1  0.57442000  0.47933800  0.00865900  1
  S  S10  1  0.47933800  0.90491700  0.50865900  1
  S  S11  1  0.09508300  0.57442000  0.50865900  1
  S  S12  1  0.90491700  0.42558000  0.00865900  1
  S  S13  1  0.52066200  0.09508300  0.00865900  1
loop_
_geom_bond_atom_site_label_1
_geom_bond_atom_site_label_2
_geom_bond_distance
_geom_bond_site_symmetry_2
Mn0 S5 2.495155 1_544
Mn0 S4 2.495162 1_444
Mn0 S2 2.495163 1_554
Mn0 S6 2.675120 1_455
Mn0 S7 2.675127 1_555
Mn0 S3 2.675127 1_445
Mn1 S6 2.495155 1_455
Mn1 S7 2.495162 1_555
Mn1 S3 2.495163 1_445
Mn1 S5 2.675120 1_545
Mn1 S4 2.675127 1_445
Mn1 S2 2.675127 1_555
Al0 S0 2.240413 1_556
Al0 S11 2.253449 1_555
Al0 S10 2.253451 1_555
Al0 S8 2.253466 1_555
Al1 S1 2.240413 1_555
Al1 S12 2.253449 1_555
Al1 S13 2.253451 1_555
Al1 S9 2.253466 1_555
S0 Sm3 2.821162 1_555
S0 Sm2 2.821162 1_555
S0 Sm0 2.821162 1_555
S1 Sm4 2.821162 1_555
S1 Sm5 2.821162 1_555
S1 Sm1 2.821162 1_555
S2 Sm5 2.849167 1_555
S2 Sm0 2.908644 1_556
S2 Sm4 2.911058 1_455
S3 Sm2 2.849167 1_555
S3 Sm1 2.908644 1_555
S3 Sm3 2.911058 1_655
S4 Sm4 2.849147 1_565
S4 Sm2 2.908644 1_556
S4 Sm1 2.911077 1_555
S5 Sm1 2.849157 1_455
S5 Sm3 2.908644 1_556
S5 Sm5 2.911063 1_565
S6 Sm0 2.849157 1_655
S6 Sm4 2.908644 1_555
S6 Sm2 2.911063 1_545
S7 Sm3 2.849147 1_545
S7 Sm5 2.908644 1_555
S7 Sm0 2.911077 1_555
S8 Sm2 2.805839 1_555
S8 Sm0 2.891561 1_555
S8 Sm5 3.023887 1_555
S9 Sm5 2.805839 1_554
S9 Sm1 2.891561 1_554
S9 Sm2 3.023887 1_555
S10 Sm3 2.805844 1_555
S10 Sm2 2.891547 1_555
S10 Sm4 3.023888 1_565
S11 Sm0 2.805828 1_555
S11 Sm3 2.891562 1_555
S11 Sm1 3.023887 1_455
S12 Sm1 2.805828 1_554
S12 Sm4 2.891562 1_554
S12 Sm0 3.023887 1_655
S13 Sm4 2.805844 1_554
S13 Sm5 2.891547 1_554
S13 Sm3 3.023888 1_545
