# generated using pymatgen
data_Li4Mn7(PO4)6
_symmetry_space_group_name_H-M   'P 1'
_cell_length_a   6.63916800
_cell_length_b   8.30625638
_cell_length_c   9.74704766
_cell_angle_alpha   102.62277168
_cell_angle_beta   106.48257049
_cell_angle_gamma   101.13725253
_symmetry_Int_Tables_number   1
_chemical_formula_structural   Li4Mn7(PO4)6
_chemical_formula_sum   'Li4 Mn7 P6 O24'
_cell_volume   483.90892844
_cell_formula_units_Z   1
loop_
 _symmetry_equiv_pos_site_id
 _symmetry_equiv_pos_as_xyz
  1  'x, y, z'
loop_
 _atom_site_type_symbol
 _atom_site_label
 _atom_site_symmetry_multiplicity
 _atom_site_fract_x
 _atom_site_fract_y
 _atom_site_fract_z
 _atom_site_occupancy
  Li  Li0  1  0.44895500  0.90313600  0.88574300  1
  Li  Li1  1  0.31522000  0.42714900  0.66800800  1
  Li  Li2  1  0.26787400  0.50319400  0.39147300  1
  Li  Li3  1  0.69433200  0.57354400  0.33780000  1
  Mn  Mn0  1  0.07131900  0.75228500  0.54885200  1
  Mn  Mn1  1  0.27909600  0.80821600  0.27967000  1
  Mn  Mn2  1  0.01598900  0.00567900  0.01423700  1
  Mn  Mn3  1  0.66085700  0.56986800  0.91331600  1
  Mn  Mn4  1  0.34730100  0.42851400  0.08472200  1
  Mn  Mn5  1  0.72476600  0.20021100  0.71849900  1
  Mn  Mn6  1  0.91832700  0.25416800  0.45659900  1
  P  P0  1  0.09805000  0.59020500  0.83074400  1
  P  P1  1  0.23638500  0.14953400  0.77325700  1
  P  P2  1  0.59970400  0.77025200  0.62890200  1
  P  P3  1  0.39784600  0.22953600  0.37467900  1
  P  P4  1  0.76532500  0.85229300  0.22784100  1
  P  P5  1  0.90379200  0.40532200  0.16391200  1
  O  O0  1  0.12536400  0.77892100  0.91307400  1
  O  O1  1  0.07772200  0.55680300  0.66242200  1
  O  O2  1  0.24869900  0.96456300  0.72441300  1
  O  O3  1  0.03504900  0.18608100  0.66927300  1
  O  O4  1  0.22036200  0.17769200  0.93419200  1
  O  O5  1  0.30907400  0.53918200  0.90463000  1
  O  O6  1  0.11805600  0.53353200  0.16873900  1
  O  O7  1  0.37700700  0.75510900  0.50182400  1
  O  O8  1  0.25113900  0.29089900  0.46196700  1
  O  O9  1  0.45052500  0.26998400  0.77517600  1
  O  O10  1  0.54324400  0.63890800  0.71197400  1
  O  O11  1  0.69191200  0.94989000  0.74834800  1
  O  O12  1  0.27869900  0.05492000  0.25018800  1
  O  O13  1  0.45373500  0.37222200  0.29988400  1
  O  O14  1  0.54948900  0.73173700  0.22571600  1
  O  O15  1  0.75219100  0.72658300  0.54320200  1
  O  O16  1  0.60621600  0.21667900  0.49079900  1
  O  O17  1  0.89478800  0.46760300  0.84016100  1
  O  O18  1  0.69573300  0.45891200  0.09351800  1
  O  O19  1  0.77087600  0.82455400  0.06214400  1
  O  O20  1  0.96260100  0.80024800  0.32329400  1
  O  O21  1  0.77169500  0.03742900  0.28575700  1
  O  O22  1  0.93101300  0.43940500  0.33450700  1
  O  O23  1  0.89359300  0.22398200  0.08046400  1
loop_
_geom_bond_atom_site_label_1
_geom_bond_atom_site_label_2
_geom_bond_distance
_geom_bond_site_symmetry_2
Li0 O2 1.981692 1_555
Li0 O0 2.310754 1_555
Li0 O11 2.399421 1_555
Li0 O19 2.625741 1_556
Li1 O8 1.957250 1_555
Li1 O10 1.960368 1_555
Li1 O9 2.029500 1_555
Li1 O1 2.069287 1_555
Li1 O5 2.305859 1_555
Li1 O3 2.460597 1_555
Li2 O7 2.012142 1_555
Li2 O8 2.022659 1_555
Li2 O13 2.054833 1_555
Li2 O22 2.073606 1_455
Li2 O6 2.208321 1_555
Li3 O13 1.961504 1_555
Li3 O15 2.008571 1_555
Li3 O14 2.089082 1_555
Li3 O22 2.097857 1_555
Li3 O18 2.366666 1_555
Li3 O20 2.387836 1_555
Mn0 O2 2.039521 1_555
Mn0 O15 2.071617 1_455
Mn0 O1 2.156205 1_555
Mn0 O7 2.200863 1_555
Mn0 O20 2.259789 1_455
Mn1 O12 2.130909 1_565
Mn1 O14 2.175559 1_555
Mn1 O6 2.200295 1_555
Mn1 O7 2.243968 1_555
Mn1 O20 2.250791 1_455
Mn2 O23 2.172630 1_455
Mn2 O4 2.197774 1_554
Mn2 O19 2.218592 1_445
Mn2 O0 2.273798 1_544
Mn2 O12 2.352811 1_555
Mn2 O11 2.736136 1_444
Mn3 O17 2.124964 1_555
Mn3 O18 2.132430 1_556
Mn3 O19 2.138619 1_556
Mn3 O10 2.141322 1_555
Mn3 O5 2.274929 1_555
Mn3 O9 2.468004 1_555
Mn4 O4 2.118381 1_554
Mn4 O5 2.129151 1_554
Mn4 O6 2.157767 1_555
Mn4 O13 2.198062 1_555
Mn4 O18 2.252732 1_555
Mn4 O14 2.483628 1_555
Mn5 O11 2.140238 1_545
Mn5 O17 2.175806 1_555
Mn5 O16 2.178758 1_555
Mn5 O9 2.189658 1_555
Mn5 O3 2.262154 1_655
Mn6 O21 2.013573 1_555
Mn6 O22 2.144233 1_555
Mn6 O8 2.155253 1_655
Mn6 O16 2.165637 1_555
Mn6 O3 2.233298 1_655
Mn6 O1 2.650868 1_655
O0 P0 1.546548 1_555
O1 P0 1.564558 1_555
O2 P1 1.531285 1_565
O3 P1 1.558412 1_555
O4 P1 1.571816 1_555
O5 P0 1.565685 1_555
O6 P5 1.585814 1_455
O7 P2 1.599042 1_555
O8 P3 1.550757 1_555
O9 P1 1.565189 1_555
O10 P2 1.544894 1_555
O11 P2 1.562073 1_555
O12 P3 1.563551 1_555
O13 P3 1.560475 1_555
O14 P4 1.573635 1_555
O15 P2 1.530872 1_555
O16 P3 1.558092 1_555
O17 P0 1.564240 1_655
O18 P5 1.552491 1_555
O19 P4 1.592881 1_555
O20 P4 1.571938 1_555
O21 P4 1.505711 1_545
O22 P5 1.575332 1_555
O23 P5 1.526056 1_555
