# generated using pymatgen
data_V2O3F
_symmetry_space_group_name_H-M   'P 1'
_cell_length_a   9.89186146
_cell_length_b   9.89186146
_cell_length_c   4.70433063
_cell_angle_alpha   86.92100079
_cell_angle_beta   86.92100079
_cell_angle_gamma   35.33651891
_symmetry_Int_Tables_number   1
_chemical_formula_structural   V2O3F
_chemical_formula_sum   'V8 O12 F4'
_cell_volume   265.81181155
_cell_formula_units_Z   4
loop_
 _symmetry_equiv_pos_site_id
 _symmetry_equiv_pos_as_xyz
  1  'x, y, z'
loop_
 _atom_site_type_symbol
 _atom_site_label
 _atom_site_symmetry_multiplicity
 _atom_site_fract_x
 _atom_site_fract_y
 _atom_site_fract_z
 _atom_site_occupancy
  V  V0  1  0.73686500  0.73686500  0.44742900  1
  V  V1  1  0.00000000  0.00000000  0.50000000  1
  V  V2  1  0.26313500  0.26313500  0.55257100  1
  V  V3  1  0.50000000  0.50000000  0.50000000  1
  V  V4  1  0.11622800  0.63526500  0.01526000  1
  V  V5  1  0.36473500  0.88377200  0.98474000  1
  V  V6  1  0.88377200  0.36473500  0.98474000  1
  V  V7  1  0.63526500  0.11622800  0.01526000  1
  O  O0  1  0.32815300  0.32815300  0.81316700  1
  O  O1  1  0.07491100  0.07491100  0.79820500  1
  O  O2  1  0.70396900  0.20003400  0.69519200  1
  O  O3  1  0.95262600  0.45192300  0.68905500  1
  O  O4  1  0.45192300  0.95262600  0.68905500  1
  O  O5  1  0.20003400  0.70396900  0.69519200  1
  O  O6  1  0.79996600  0.29603100  0.30480800  1
  O  O7  1  0.04737400  0.54807700  0.31094500  1
  O  O8  1  0.29603100  0.79996600  0.30480800  1
  O  O9  1  0.54807700  0.04737400  0.31094500  1
  O  O10  1  0.67184700  0.67184700  0.18683300  1
  O  O11  1  0.92508900  0.92508900  0.20179500  1
  F  F0  1  0.82431000  0.82431000  0.80192400  1
  F  F1  1  0.57481700  0.57481700  0.78992800  1
  F  F2  1  0.42518300  0.42518300  0.21007200  1
  F  F3  1  0.17569000  0.17569000  0.19807600  1
loop_
_geom_bond_atom_site_label_1
_geom_bond_atom_site_label_2
_geom_bond_distance
_geom_bond_site_symmetry_2
O0 V2 1.781700 1_555
O0 V4 2.057455 1_556
O0 V7 2.057455 1_556
O1 V6 1.952496 1_455
O1 V5 1.952496 1_545
O1 V1 2.045826 1_555
O2 V1 1.945813 1_655
O2 V3 1.963956 1_555
O2 V7 2.022730 1_556
O3 V6 1.967314 1_555
O3 V2 1.972918 1_655
O3 V0 1.973159 1_555
O4 V5 1.967314 1_555
O4 V2 1.972918 1_565
O4 V0 1.973159 1_555
O5 V1 1.945813 1_565
O5 V3 1.963956 1_555
O5 V4 2.022730 1_556
O6 V1 1.945813 1_655
O6 V3 1.963956 1_555
O6 V6 2.022730 1_554
O7 V4 1.967314 1_555
O7 V0 1.972918 1_455
O7 V2 1.973159 1_555
O8 V1 1.945813 1_565
O8 V3 1.963956 1_555
O8 V5 2.022730 1_554
O9 V7 1.967314 1_555
O9 V0 1.972918 1_545
O9 V2 1.973159 1_555
O10 V0 1.781700 1_555
O10 V5 2.057455 1_554
O10 V6 2.057455 1_554
O11 V7 1.952496 1_565
O11 V4 1.952496 1_655
O11 V1 2.045826 1_665
F0 V7 2.035213 1_566
F0 V4 2.035213 1_656
F0 V0 2.410019 1_555
F1 V3 2.016482 1_555
F1 V6 2.057386 1_555
F1 V5 2.057386 1_555
F2 V3 2.016482 1_555
F2 V4 2.057386 1_555
F2 V7 2.057386 1_555
F3 V6 2.035213 1_454
F3 V5 2.035213 1_544
F3 V2 2.410019 1_555
