# generated using pymatgen
data_Li2MnVP2(HO5)2
_symmetry_space_group_name_H-M   'P 1'
_cell_length_a   5.21129100
_cell_length_b   7.40605625
_cell_length_c   10.70753719
_cell_angle_alpha   104.98632125
_cell_angle_beta   96.90796290
_cell_angle_gamma   107.98935845
_symmetry_Int_Tables_number   1
_chemical_formula_structural   Li2MnVP2(HO5)2
_chemical_formula_sum   'Li4 Mn2 V2 P4 H4 O20'
_cell_volume   370.56942937
_cell_formula_units_Z   2
loop_
 _symmetry_equiv_pos_site_id
 _symmetry_equiv_pos_as_xyz
  1  'x, y, z'
loop_
 _atom_site_type_symbol
 _atom_site_label
 _atom_site_symmetry_multiplicity
 _atom_site_fract_x
 _atom_site_fract_y
 _atom_site_fract_z
 _atom_site_occupancy
  Li  Li0  1  0.54167100  0.61991000  0.80273200  1
  Li  Li1  1  0.94357300  0.86270100  0.69907200  1
  Li  Li2  1  0.05642700  0.13729900  0.30092800  1
  Li  Li3  1  0.45832900  0.38009000  0.19726800  1
  Mn  Mn0  1  0.00000000  0.50000000  0.00000000  1
  Mn  Mn1  1  0.50000000  0.50000000  0.50000000  1
  V  V0  1  0.00000000  0.00000000  0.00000000  1
  V  V1  1  0.50000000  0.00000000  0.50000000  1
  P  P0  1  0.48829900  0.04828200  0.81817600  1
  P  P1  1  0.99597000  0.45081900  0.68526100  1
  P  P2  1  0.00403000  0.54918100  0.31473900  1
  P  P3  1  0.51170100  0.95171800  0.18182400  1
  H  H0  1  0.32183300  0.30421400  0.96639500  1
  H  H1  1  0.17420200  0.18414700  0.53238800  1
  H  H2  1  0.82579800  0.81585300  0.46761200  1
  H  H3  1  0.67816700  0.69578600  0.03360500  1
  O  O0  1  0.81978000  0.70175500  0.97810100  1
  O  O1  1  0.59922300  0.27282400  0.89250300  1
  O  O2  1  0.12602500  0.47620300  0.83077700  1
  O  O3  1  0.23630500  0.93990500  0.86883400  1
  O  O4  1  0.71229900  0.95015000  0.83206700  1
  O  O5  1  0.78829800  0.55990400  0.68096100  1
  O  O6  1  0.24589400  0.54536200  0.63161400  1
  O  O7  1  0.36797600  0.00479800  0.66739800  1
  O  O8  1  0.85103100  0.22329300  0.60146400  1
  O  O9  1  0.30789200  0.18302600  0.47492400  1
  O  O10  1  0.69210800  0.81697400  0.52507600  1
  O  O11  1  0.14896900  0.77670700  0.39853600  1
  O  O12  1  0.63202400  0.99520200  0.33260200  1
  O  O13  1  0.75410600  0.45463800  0.36838600  1
  O  O14  1  0.21170200  0.44009600  0.31903900  1
  O  O15  1  0.28770100  0.04985000  0.16793300  1
  O  O16  1  0.76369500  0.06009500  0.13116600  1
  O  O17  1  0.87397500  0.52379700  0.16922300  1
  O  O18  1  0.40077700  0.72717600  0.10749700  1
  O  O19  1  0.18022000  0.29824500  0.02189900  1
loop_
_geom_bond_atom_site_label_1
_geom_bond_atom_site_label_2
_geom_bond_distance
_geom_bond_site_symmetry_2
Li0 O5 2.001414 1_555
Li0 O0 2.051340 1_555
Li0 O6 2.075967 1_555
Li0 O2 2.193740 1_555
Li0 O4 2.250186 1_555
Li1 O10 2.028616 1_555
Li1 O3 2.053031 1_655
Li1 O4 2.077975 1_555
Li1 O5 2.082743 1_555
Li1 O7 2.245314 1_665
Li2 O9 2.028616 1_555
Li2 O16 2.053031 1_455
Li2 O15 2.077975 1_555
Li2 O14 2.082743 1_555
Li2 O12 2.245314 1_445
Li3 O14 2.001414 1_555
Li3 O19 2.051340 1_555
Li3 O13 2.075967 1_555
Li3 O17 2.193740 1_555
Li3 O15 2.250186 1_555
Mn0 O17 1.984486 1_455
Mn0 O2 1.984486 1_554
Mn0 O0 2.040769 1_454
Mn0 O19 2.040769 1_555
Mn0 O18 2.183429 1_555
Mn0 O1 2.183429 1_454
Mn1 O13 2.081174 1_555
Mn1 O6 2.081174 1_555
Mn1 O5 2.156838 1_555
Mn1 O14 2.156838 1_555
Mn1 O9 2.177827 1_555
Mn1 O10 2.177827 1_555
H0 O19 0.999362 1_556
H1 O9 0.983919 1_555
H2 O10 0.983919 1_555
H3 O0 0.999362 1_554
O0 V0 2.052735 1_666
O1 P0 1.531045 1_555
O2 P1 1.561476 1_455
O3 P0 1.551916 1_565
O3 V0 2.029380 1_566
O4 P0 1.565614 1_565
O4 V0 2.069728 1_666
O5 P1 1.540570 1_555
O6 P1 1.530110 1_455
O7 P0 1.570424 1_555
O7 V1 1.991534 1_555
O8 P1 1.576043 1_555
O8 V1 1.996418 1_555
O9 V1 1.968126 1_555
O10 V1 1.968126 1_565
O11 P2 1.576043 1_555
O11 V1 1.996418 1_565
O12 P3 1.570424 1_555
O12 V1 1.991534 1_565
O13 P2 1.530110 1_655
O14 P2 1.540570 1_555
O15 P3 1.565614 1_545
O15 V0 2.069728 1_555
O16 P3 1.551916 1_545
O16 V0 2.029380 1_655
O17 P2 1.561476 1_655
O18 P3 1.531045 1_555
O19 V0 2.052735 1_555
