# generated using pymatgen
data_VSiRu2
_symmetry_space_group_name_H-M   'P 1'
_cell_length_a   4.17681516
_cell_length_b   4.17681516
_cell_length_c   4.17681516
_cell_angle_alpha   60.00000000
_cell_angle_beta   60.00000000
_cell_angle_gamma   60.00000000
_symmetry_Int_Tables_number   1
_chemical_formula_structural   VSiRu2
_chemical_formula_sum   'V1 Si1 Ru2'
_cell_volume   51.52532860
_cell_formula_units_Z   1
loop_
 _symmetry_equiv_pos_site_id
 _symmetry_equiv_pos_as_xyz
  1  'x, y, z'
loop_
 _atom_site_type_symbol
 _atom_site_label
 _atom_site_symmetry_multiplicity
 _atom_site_fract_x
 _atom_site_fract_y
 _atom_site_fract_z
 _atom_site_occupancy
  V  V0  1  0.75000100  0.75000100  0.75000100  1
  Si  Si0  1  0.25000100  0.25000100  0.25000100  1
  Ru  Ru0  1  -0.00000000  -0.00000000  -0.00000000  1
  Ru  Ru1  1  0.50000000  0.50000000  0.50000000  1
loop_
_geom_bond_atom_site_label_1
_geom_bond_atom_site_label_2
_geom_bond_distance
_geom_bond_site_symmetry_2
Ru0 V0 2.557756 1_444
Ru0 Si0 2.557763 1_545
Ru0 Si0 2.557763 1_455
Ru0 Si0 2.557763 1_554
Ru0 V0 2.557770 1_454
Ru0 V0 2.557770 1_445
Ru0 V0 2.557770 1_544
Ru0 Si0 2.557777 1_555
Ru1 Si0 2.557756 1_555
Ru1 V0 2.557763 1_554
Ru1 V0 2.557763 1_545
Ru1 V0 2.557763 1_455
Ru1 Si0 2.557770 1_565
Ru1 Si0 2.557770 1_655
Ru1 Si0 2.557770 1_556
Ru1 V0 2.557777 1_555
