# generated using pymatgen
data_Li2MnPO5
_symmetry_space_group_name_H-M   'P 1'
_cell_length_a   5.08671300
_cell_length_b   12.87841000
_cell_length_c   13.18113400
_cell_angle_alpha   61.70204489
_cell_angle_beta   90.00000000
_cell_angle_gamma   90.00000000
_symmetry_Int_Tables_number   1
_chemical_formula_structural   Li2MnPO5
_chemical_formula_sum   'Li16 Mn8 P8 O40'
_cell_volume   760.28914996
_cell_formula_units_Z   8
loop_
 _symmetry_equiv_pos_site_id
 _symmetry_equiv_pos_as_xyz
  1  'x, y, z'
loop_
 _atom_site_type_symbol
 _atom_site_label
 _atom_site_symmetry_multiplicity
 _atom_site_fract_x
 _atom_site_fract_y
 _atom_site_fract_z
 _atom_site_occupancy
  Li  Li0  1  0.72586700  0.82167700  0.36071800  1
  Li  Li1  1  0.75372100  0.33994500  0.08490800  1
  Li  Li2  1  0.21078200  0.18171800  0.14303800  1
  Li  Li3  1  0.73340600  0.58566100  0.58050600  1
  Li  Li4  1  0.23340600  0.91433900  0.41949400  1
  Li  Li5  1  0.71078200  0.31828200  0.85696200  1
  Li  Li6  1  0.77413300  0.32167700  0.36071800  1
  Li  Li7  1  0.74627900  0.83994500  0.08490800  1
  Li  Li8  1  0.25372100  0.16005500  0.91509200  1
  Li  Li9  1  0.22586700  0.67832300  0.63928200  1
  Li  Li10  1  0.28921800  0.68171800  0.14303800  1
  Li  Li11  1  0.76659400  0.08566100  0.58050600  1
  Li  Li12  1  0.26659400  0.41433900  0.41949400  1
  Li  Li13  1  0.78921800  0.81828200  0.85696200  1
  Li  Li14  1  0.24627900  0.66005500  0.91509200  1
  Li  Li15  1  0.27413300  0.17832300  0.63928200  1
  Mn  Mn0  1  0.72470300  0.12570400  0.06223400  1
  Mn  Mn1  1  0.26548700  0.68651100  0.43520800  1
  Mn  Mn2  1  0.77529700  0.62570400  0.06223400  1
  Mn  Mn3  1  0.76548700  0.81348900  0.56479200  1
  Mn  Mn4  1  0.23451300  0.18651100  0.43520800  1
  Mn  Mn5  1  0.22470300  0.37429600  0.93776600  1
  Mn  Mn6  1  0.73451300  0.31348900  0.56479200  1
  Mn  Mn7  1  0.27529700  0.87429600  0.93776600  1
  P  P0  1  0.23098600  0.92805700  0.16316800  1
  P  P1  1  0.23336700  0.41294700  0.66424000  1
  P  P2  1  0.26901400  0.42805700  0.16316800  1
  P  P3  1  0.73336700  0.08705300  0.33576000  1
  P  P4  1  0.26663300  0.91294700  0.66424000  1
  P  P5  1  0.73098600  0.57194300  0.83683200  1
  P  P6  1  0.76663300  0.58705300  0.33576000  1
  P  P7  1  0.76901400  0.07194300  0.83683200  1
  O  O0  1  0.93165300  0.94917600  0.13714900  1
  O  O1  1  0.01063400  0.22124100  0.99229900  1
  O  O2  1  0.37387200  0.04789200  0.12091500  1
  O  O3  1  0.61914600  0.65355000  0.39053400  1
  O  O4  1  0.28132900  0.85702500  0.29496000  1
  O  O5  1  0.14650400  0.36074500  0.10267000  1
  O  O6  1  0.80727300  0.14834100  0.20624900  1
  O  O7  1  0.93198400  0.40776500  0.64478900  1
  O  O8  1  0.97868900  0.72531700  0.49360000  1
  O  O9  1  0.56834700  0.44917600  0.13714900  1
  O  O10  1  0.48936600  0.72124100  0.99229900  1
  O  O11  1  0.33027300  0.54311200  0.60664500  1
  O  O12  1  0.83027300  0.95688800  0.39335500  1
  O  O13  1  0.12612800  0.54789200  0.12091500  1
  O  O14  1  0.47868900  0.77468300  0.50640000  1
  O  O15  1  0.43198400  0.09223500  0.35521100  1
  O  O16  1  0.88085400  0.15355000  0.39053400  1
  O  O17  1  0.21867100  0.35702500  0.29496000  1
  O  O18  1  0.30727300  0.35165900  0.79375100  1
  O  O19  1  0.64650400  0.13925500  0.89733000  1
  O  O20  1  0.35349600  0.86074500  0.10267000  1
  O  O21  1  0.69272700  0.64834100  0.20624900  1
  O  O22  1  0.78132900  0.64297500  0.70504000  1
  O  O23  1  0.11914600  0.84645000  0.60946600  1
  O  O24  1  0.56801600  0.90776500  0.64478900  1
  O  O25  1  0.52131100  0.22531700  0.49360000  1
  O  O26  1  0.87387200  0.45210800  0.87908500  1
  O  O27  1  0.16972700  0.04311200  0.60664500  1
  O  O28  1  0.66972700  0.45688800  0.39335500  1
  O  O29  1  0.51063400  0.27875900  0.00770100  1
  O  O30  1  0.43165300  0.55082400  0.86285100  1
  O  O31  1  0.02131100  0.27468300  0.50640000  1
  O  O32  1  0.06801600  0.59223500  0.35521100  1
  O  O33  1  0.19272700  0.85165900  0.79375100  1
  O  O34  1  0.85349600  0.63925500  0.89733000  1
  O  O35  1  0.71867100  0.14297500  0.70504000  1
  O  O36  1  0.38085400  0.34645000  0.60946600  1
  O  O37  1  0.62612800  0.95210800  0.87908500  1
  O  O38  1  0.98936600  0.77875900  0.00770100  1
  O  O39  1  0.06834700  0.05082400  0.86285100  1
loop_
_geom_bond_atom_site_label_1
_geom_bond_atom_site_label_2
_geom_bond_distance
_geom_bond_site_symmetry_2
Li0 O8 2.049619 1_555
Li0 O12 2.051701 1_555
Li0 O3 2.080982 1_555
Li0 O14 2.129005 1_555
Li0 O4 2.386966 1_555
Li1 O29 1.986414 1_555
Li1 O5 2.043999 1_655
Li1 O9 2.064116 1_555
Li1 O6 2.231432 1_555
Li1 O26 2.470791 1_554
Li2 O2 2.054286 1_555
Li2 O1 2.069917 1_554
Li2 O5 2.131339 1_555
Li2 O6 2.179980 1_455
Li2 O29 2.226391 1_555
Li3 O8 2.037236 1_555
Li3 O11 2.108322 1_555
Li3 O22 2.108910 1_555
Li3 O7 2.268597 1_555
Li3 O3 2.301468 1_555
Li3 O14 2.510833 1_555
Li4 O14 2.037236 1_555
Li4 O12 2.108322 1_455
Li4 O4 2.108910 1_555
Li4 O15 2.268597 1_565
Li4 O23 2.301468 1_555
Li4 O8 2.510833 1_455
Li5 O26 2.054286 1_555
Li5 O29 2.069917 1_556
Li5 O19 2.131339 1_555
Li5 O18 2.179980 1_555
Li5 O1 2.226391 1_655
Li6 O25 2.049619 1_555
Li6 O28 2.051701 1_555
Li6 O16 2.080982 1_555
Li6 O31 2.129005 1_655
Li6 O17 2.386966 1_655
Li7 O38 1.986414 1_555
Li7 O20 2.043999 1_555
Li7 O0 2.064116 1_555
Li7 O21 2.231432 1_555
Li7 O37 2.470791 1_554
Li8 O1 1.986414 1_555
Li8 O19 2.043999 1_555
Li8 O39 2.064116 1_555
Li8 O18 2.231432 1_555
Li8 O2 2.470791 1_556
Li9 O14 2.049619 1_555
Li9 O11 2.051701 1_555
Li9 O23 2.080982 1_555
Li9 O8 2.129005 1_455
Li9 O22 2.386966 1_455
Li10 O13 2.054286 1_555
Li10 O10 2.069917 1_554
Li10 O20 2.131339 1_555
Li10 O21 2.179980 1_555
Li10 O38 2.226391 1_455
Li11 O25 2.037236 1_555
Li11 O27 2.108322 1_655
Li11 O35 2.108910 1_555
Li11 O24 2.268597 1_545
Li11 O16 2.301468 1_555
Li11 O31 2.510833 1_655
Li12 O31 2.037236 1_555
Li12 O28 2.108322 1_555
Li12 O17 2.108910 1_555
Li12 O32 2.268597 1_555
Li12 O36 2.301468 1_555
Li12 O25 2.510833 1_555
Li13 O37 2.054286 1_555
Li13 O38 2.069917 1_556
Li13 O34 2.131339 1_555
Li13 O33 2.179980 1_655
Li13 O10 2.226391 1_555
Li14 O10 1.986414 1_555
Li14 O34 2.043999 1_455
Li14 O30 2.064116 1_555
Li14 O33 2.231432 1_555
Li14 O13 2.470791 1_556
Li15 O31 2.049619 1_555
Li15 O27 2.051701 1_555
Li15 O36 2.080982 1_555
Li15 O25 2.129005 1_555
Li15 O35 2.386966 1_555
Mn0 O1 1.844897 1_654
Mn0 O2 2.013032 1_555
Mn0 O29 2.060177 1_555
Mn0 O6 2.095127 1_555
Mn0 O19 2.133932 1_554
Mn0 O0 2.263444 1_545
Mn1 O8 1.826231 1_455
Mn1 O3 2.000048 1_555
Mn1 O14 2.087194 1_555
Mn1 O4 2.096962 1_555
Mn1 O11 2.160753 1_555
Mn1 O32 2.192887 1_555
Mn2 O10 1.844897 1_554
Mn2 O13 2.013032 1_655
Mn2 O38 2.060177 1_555
Mn2 O21 2.095127 1_555
Mn2 O34 2.133932 1_554
Mn2 O9 2.263444 1_555
Mn3 O14 1.826231 1_555
Mn3 O23 2.000048 1_655
Mn3 O8 2.087194 1_555
Mn3 O22 2.096962 1_555
Mn3 O12 2.160753 1_555
Mn3 O24 2.192887 1_555
Mn4 O25 1.826231 1_555
Mn4 O16 2.000048 1_455
Mn4 O31 2.087194 1_555
Mn4 O17 2.096962 1_555
Mn4 O27 2.160753 1_555
Mn4 O15 2.192887 1_555
Mn5 O29 1.844897 1_556
Mn5 O26 2.013032 1_455
Mn5 O1 2.060177 1_555
Mn5 O18 2.095127 1_555
Mn5 O5 2.133932 1_556
Mn5 O30 2.263444 1_555
Mn6 O31 1.826231 1_655
Mn6 O36 2.000048 1_555
Mn6 O25 2.087194 1_555
Mn6 O35 2.096962 1_555
Mn6 O28 2.160753 1_555
Mn6 O7 2.192887 1_555
Mn7 O38 1.844897 1_456
Mn7 O37 2.013032 1_555
Mn7 O10 2.060177 1_555
Mn7 O33 2.095127 1_555
Mn7 O20 2.133932 1_556
Mn7 O39 2.263444 1_565
O0 P0 1.556127 1_655
O2 P0 1.550889 1_545
O3 P6 1.550382 1_555
O4 P0 1.553538 1_555
O5 P2 1.559203 1_555
O6 P3 1.549522 1_555
O7 P1 1.560977 1_655
O9 P2 1.556127 1_555
O11 P1 1.556530 1_555
O12 P3 1.556530 1_565
O13 P2 1.550889 1_555
O15 P3 1.560977 1_555
O16 P3 1.550382 1_555
O17 P2 1.553538 1_555
O18 P1 1.549522 1_555
O19 P7 1.559203 1_555
O20 P0 1.559203 1_555
O21 P6 1.549522 1_555
O22 P5 1.553538 1_555
O23 P4 1.550382 1_555
O24 P4 1.560977 1_555
O26 P5 1.550889 1_555
O27 P4 1.556530 1_545
O28 P6 1.556530 1_555
O30 P5 1.556127 1_555
O32 P6 1.560977 1_455
O33 P4 1.549522 1_555
O34 P5 1.559203 1_555
O35 P7 1.553538 1_555
O36 P1 1.550382 1_555
O37 P7 1.550889 1_565
O39 P7 1.556127 1_455
