# generated using pymatgen
data_Hf2ZnRe
_symmetry_space_group_name_H-M   'P 1'
_cell_length_a   4.63696541
_cell_length_b   4.63696541
_cell_length_c   4.63696541
_cell_angle_alpha   59.98386936
_cell_angle_beta   59.98386936
_cell_angle_gamma   59.98386936
_symmetry_Int_Tables_number   1
_chemical_formula_structural   Hf2ZnRe
_chemical_formula_sum   'Hf2 Zn1 Re1'
_cell_volume   70.47380104
_cell_formula_units_Z   1
loop_
 _symmetry_equiv_pos_site_id
 _symmetry_equiv_pos_as_xyz
  1  'x, y, z'
loop_
 _atom_site_type_symbol
 _atom_site_label
 _atom_site_symmetry_multiplicity
 _atom_site_fract_x
 _atom_site_fract_y
 _atom_site_fract_z
 _atom_site_occupancy
  Hf  Hf0  1  0.99999235  0.99999235  0.99999235  1
  Hf  Hf1  1  0.50000665  0.50000665  0.50000665  1
  Zn  Zn0  1  0.75000000  0.75000000  0.75000000  1
  Re  Re0  1  0.25000100  0.25000100  0.25000100  1
loop_
_geom_bond_atom_site_label_1
_geom_bond_atom_site_label_2
_geom_bond_distance
_geom_bond_site_symmetry_2
Hf0 Re0 2.838940 1_665
Hf0 Re0 2.838940 1_656
Hf0 Re0 2.838940 1_566
Hf0 Zn0 2.839002 1_556
Hf0 Zn0 2.839002 1_565
Hf0 Zn0 2.839002 1_655
Hf0 Zn0 2.839809 1_555
Hf0 Re0 2.839994 1_666
Hf1 Re0 2.838951 1_565
Hf1 Re0 2.838951 1_655
Hf1 Re0 2.838951 1_556
Hf1 Zn0 2.838998 1_545
Hf1 Zn0 2.838998 1_554
Hf1 Zn0 2.838998 1_455
Hf1 Zn0 2.839820 1_555
Hf1 Re0 2.839960 1_555
