# generated using pymatgen
data_K2CuP
_symmetry_space_group_name_H-M   'P 1'
_cell_length_a   5.70443117
_cell_length_b   6.17682536
_cell_length_c   6.17682438
_cell_angle_alpha   106.26798592
_cell_angle_beta   90.00000000
_cell_angle_gamma   90.00000000
_symmetry_Int_Tables_number   1
_chemical_formula_structural   K2CuP
_chemical_formula_sum   'K4 Cu2 P2'
_cell_volume   208.92814413
_cell_formula_units_Z   2
loop_
 _symmetry_equiv_pos_site_id
 _symmetry_equiv_pos_as_xyz
  1  'x, y, z'
loop_
 _atom_site_type_symbol
 _atom_site_label
 _atom_site_symmetry_multiplicity
 _atom_site_fract_x
 _atom_site_fract_y
 _atom_site_fract_z
 _atom_site_occupancy
  K  K0  1  0.75000000  0.31232211  0.97548687  1
  K  K1  1  0.75000000  0.97548687  0.31232211  1
  K  K2  1  0.25000000  0.68767789  0.02451313  1
  K  K3  1  0.25000000  0.02451313  0.68767789  1
  Cu  Cu0  1  0.50000000  0.50000000  0.50000000  1
  Cu  Cu1  1  -0.00000000  0.50000000  0.50000000  1
  P  P0  1  0.75000000  0.73106015  0.73106015  1
  P  P1  1  0.25000000  0.26893985  0.26893985  1
loop_
_geom_bond_atom_site_label_1
_geom_bond_atom_site_label_2
_geom_bond_distance
_geom_bond_site_symmetry_2
K0 P0 3.340224 1_555
K0 P1 3.429958 1_656
K0 P1 3.429958 1_556
K0 P0 3.483260 1_545
K1 P0 3.340224 1_555
K1 P1 3.429958 1_665
K1 P1 3.429958 1_565
K1 P0 3.483260 1_554
K2 P1 3.340224 1_555
K2 P0 3.429958 1_554
K2 P0 3.429958 1_454
K2 P1 3.483260 1_565
K3 P1 3.340224 1_555
K3 P0 3.429958 1_545
K3 P0 3.429958 1_445
K3 P1 3.483260 1_556
Cu0 P0 2.228556 1_555
Cu0 P1 2.228556 1_555
Cu0 K0 3.430730 1_554
Cu0 K2 3.430730 1_556
Cu0 K1 3.430730 1_545
Cu0 K3 3.430730 1_565
Cu1 P1 2.228556 1_555
Cu1 P0 2.228556 1_455
Cu1 K0 3.430730 1_454
Cu1 K2 3.430730 1_556
Cu1 K1 3.430730 1_445
Cu1 K3 3.430730 1_565
