# generated using pymatgen
data_LiFe2C2O7
_symmetry_space_group_name_H-M   'P 1'
_cell_length_a   8.33042485
_cell_length_b   8.33042485
_cell_length_c   8.06329287
_cell_angle_alpha   89.46621668
_cell_angle_beta   89.46621668
_cell_angle_gamma   60.90558772
_symmetry_Int_Tables_number   1
_chemical_formula_structural   LiFe2C2O7
_chemical_formula_sum   'Li3 Fe6 C6 O21'
_cell_volume   488.92605281
_cell_formula_units_Z   3
loop_
 _symmetry_equiv_pos_site_id
 _symmetry_equiv_pos_as_xyz
  1  'x, y, z'
loop_
 _atom_site_type_symbol
 _atom_site_label
 _atom_site_symmetry_multiplicity
 _atom_site_fract_x
 _atom_site_fract_y
 _atom_site_fract_z
 _atom_site_occupancy
  Li  Li0  1  0.72307000  0.27693000  0.50000000  1
  Li  Li1  1  0.99659900  0.64415000  0.49342300  1
  Li  Li2  1  0.35585000  0.00340100  0.50657700  1
  Fe  Fe0  1  0.67229000  0.66208400  0.80612700  1
  Fe  Fe1  1  0.33791600  0.32771000  0.19387300  1
  Fe  Fe2  1  0.65977200  0.65932500  0.26113200  1
  Fe  Fe3  1  0.34067500  0.34022800  0.73886800  1
  Fe  Fe4  1  0.99783300  0.00554600  0.27272600  1
  Fe  Fe5  1  0.99445400  0.00216700  0.72727400  1
  C  C0  1  0.00392400  0.34047700  0.29624300  1
  C  C1  1  0.65952300  0.99607600  0.70375700  1
  C  C2  1  0.65855900  0.99619900  0.29582500  1
  C  C3  1  0.00380100  0.34144100  0.70417500  1
  C  C4  1  0.33279100  0.66439300  0.29569300  1
  C  C5  1  0.33560700  0.66720900  0.70430700  1
  O  O0  1  0.96763700  0.03236300  0.50000000  1
  O  O1  1  0.91953400  0.26549200  0.77710800  1
  O  O2  1  0.73450800  0.08046600  0.22289200  1
  O  O3  1  0.83788300  0.40356400  0.35256000  1
  O  O4  1  0.59643600  0.16211700  0.64744000  1
  O  O5  1  0.91747500  0.52084100  0.68778900  1
  O  O6  1  0.47915900  0.08252500  0.31221100  1
  O  O7  1  0.67638900  0.66177700  0.02357400  1
  O  O8  1  0.33822300  0.32361100  0.97642600  1
  O  O9  1  0.16907300  0.24743700  0.64617000  1
  O  O10  1  0.75256300  0.83092700  0.35383000  1
  O  O11  1  0.51355000  0.56601500  0.70563900  1
  O  O12  1  0.43398500  0.48645000  0.29436100  1
  O  O13  1  0.81795100  0.91026400  0.77391200  1
  O  O14  1  0.08973600  0.18204900  0.22608800  1
  O  O15  1  0.56247700  0.91266100  0.69031500  1
  O  O16  1  0.08733900  0.43752300  0.30968500  1
  O  O17  1  0.39949400  0.76488600  0.35425300  1
  O  O18  1  0.23511400  0.60050600  0.64574700  1
  O  O19  1  0.16869800  0.73902400  0.23698300  1
  O  O20  1  0.26097600  0.83130200  0.76301700  1
loop_
_geom_bond_atom_site_label_1
_geom_bond_atom_site_label_2
_geom_bond_distance
_geom_bond_site_symmetry_2
Li0 O0 2.065170 1_555
Li0 O3 2.092285 1_555
Li0 O4 2.092285 1_555
Li1 O16 2.119074 1_655
Li1 O5 2.134258 1_555
Li1 O10 2.180488 1_555
Li1 O18 2.218842 1_655
Li2 O15 2.119074 1_545
Li2 O6 2.134258 1_555
Li2 O9 2.180488 1_555
Li2 O17 2.218842 1_545
Fe0 O7 1.753943 1_556
Fe0 O11 2.026549 1_555
Fe0 O5 2.028339 1_555
Fe0 O15 2.046638 1_555
Fe1 O8 1.753943 1_554
Fe1 O12 2.026549 1_555
Fe1 O6 2.028339 1_555
Fe1 O16 2.046638 1_555
Fe2 O7 1.919843 1_555
Fe2 O17 2.041083 1_555
Fe2 O3 2.049684 1_555
Fe2 O10 2.074850 1_555
Fe3 O8 1.919843 1_555
Fe3 O18 2.041083 1_555
Fe3 O4 2.049684 1_555
Fe3 O9 2.074850 1_555
Fe4 O0 1.848218 1_555
Fe4 O14 1.992115 1_655
Fe4 O19 1.992356 1_645
Fe4 O2 2.010781 1_555
Fe5 O0 1.848218 1_555
Fe5 O13 1.992115 1_545
Fe5 O20 1.992356 1_645
Fe5 O1 2.010781 1_555
C0 O14 1.289064 1_555
C0 O3 1.296700 1_455
C0 O16 1.302893 1_555
C1 O13 1.289064 1_555
C1 O4 1.296700 1_565
C1 O15 1.302893 1_555
C2 O2 1.286936 1_565
C2 O10 1.293774 1_555
C2 O6 1.311866 1_565
C3 O1 1.286936 1_455
C3 O9 1.293774 1_555
C3 O5 1.311866 1_455
C4 O19 1.288141 1_555
C4 O12 1.301144 1_555
C4 O17 1.302758 1_555
C5 O20 1.288141 1_555
C5 O11 1.301144 1_555
C5 O18 1.302758 1_555
