# generated using pymatgen
data_Li3Al2CrO6
_symmetry_space_group_name_H-M   'P 1'
_cell_length_a   5.10047314
_cell_length_b   8.62988200
_cell_length_c   9.59007968
_cell_angle_alpha   90.00001170
_cell_angle_beta   100.97232119
_cell_angle_gamma   90.00000221
_symmetry_Int_Tables_number   1
_chemical_formula_structural   Li3Al2CrO6
_chemical_formula_sum   'Li12 Al8 Cr4 O24'
_cell_volume   414.40486309
_cell_formula_units_Z   4
loop_
 _symmetry_equiv_pos_site_id
 _symmetry_equiv_pos_as_xyz
  1  'x, y, z'
loop_
 _atom_site_type_symbol
 _atom_site_label
 _atom_site_symmetry_multiplicity
 _atom_site_fract_x
 _atom_site_fract_y
 _atom_site_fract_z
 _atom_site_occupancy
  Li  Li0  1  0.00000000  0.50000000  0.50000000  1
  Li  Li1  1  0.25000100  0.00000000  0.75000000  1
  Li  Li2  1  0.50000000  0.50000000  0.00000000  1
  Li  Li3  1  0.75000000  0.00000000  0.25000000  1
  Li  Li4  1  0.00000100  0.16756200  0.50000000  1
  Li  Li5  1  0.25000000  0.66756200  0.75000000  1
  Li  Li6  1  0.50000000  0.16756200  0.00000000  1
  Li  Li7  1  0.75000000  0.66756200  0.25000000  1
  Li  Li8  1  0.00000100  0.83243800  0.50000000  1
  Li  Li9  1  0.25000000  0.33243800  0.75000000  1
  Li  Li10  1  0.50000000  0.83243800  0.00000000  1
  Li  Li11  1  0.75000000  0.33243900  0.25000000  1
  Al  Al0  1  0.50000100  0.33328200  0.50000100  1
  Al  Al1  1  0.75000000  0.83328300  0.74999900  1
  Al  Al2  1  0.00000000  0.33328300  0.00000000  1
  Al  Al3  1  0.25000000  0.83328300  0.25000000  1
  Al  Al4  1  0.50000100  0.66671800  0.50000100  1
  Al  Al5  1  0.75000000  0.16671800  0.74999900  1
  Al  Al6  1  0.00000000  0.66671800  0.00000000  1
  Al  Al7  1  0.25000000  0.16671800  0.25000000  1
  Cr  Cr0  1  0.50000700  0.99999900  0.50000000  1
  Cr  Cr1  1  0.74999400  0.49999000  0.75000300  1
  Cr  Cr2  1  0.99999300  0.99999900  0.99999100  1
  Cr  Cr3  1  0.24999800  0.49999900  0.25000400  1
  O  O0  1  0.39553400  0.50000000  0.61368800  1
  O  O1  1  0.64553400  0.00000000  0.86368900  1
  O  O2  1  0.89553400  0.50000000  0.11368900  1
  O  O3  1  0.14553400  0.00000000  0.36368800  1
  O  O4  1  0.60446700  0.50000000  0.38631100  1
  O  O5  1  0.85446700  0.00000000  0.63631200  1
  O  O6  1  0.10446700  0.50000000  0.88631200  1
  O  O7  1  0.35446700  0.00000000  0.13631100  1
  O  O8  1  0.84391400  0.67293000  0.62693300  1
  O  O9  1  0.09391200  0.17293100  0.87693500  1
  O  O10  1  0.34391300  0.67293100  0.12693300  1
  O  O11  1  0.59391100  0.17293100  0.37693400  1
  O  O12  1  0.84391400  0.32707000  0.62693300  1
  O  O13  1  0.09391200  0.82707000  0.87693400  1
  O  O14  1  0.34391300  0.32706900  0.12693400  1
  O  O15  1  0.59391100  0.82707000  0.37693300  1
  O  O16  1  0.15608800  0.67293000  0.37306500  1
  O  O17  1  0.40608600  0.17293000  0.62306700  1
  O  O18  1  0.65608900  0.67293100  0.87306600  1
  O  O19  1  0.90608700  0.17293100  0.12306700  1
  O  O20  1  0.15608800  0.32707000  0.37306500  1
  O  O21  1  0.40608600  0.82707000  0.62306700  1
  O  O22  1  0.65608900  0.32707000  0.87306600  1
  O  O23  1  0.90608800  0.82706900  0.12306700  1
loop_
_geom_bond_atom_site_label_1
_geom_bond_atom_site_label_2
_geom_bond_distance
_geom_bond_site_symmetry_2
Li0 O4 2.102700 1_455
Li0 O0 2.102701 1_555
Li0 O8 2.170639 1_455
Li0 O12 2.170639 1_455
Li0 O20 2.170655 1_555
Li0 O16 2.170656 1_555
Li1 O1 2.102700 1_555
Li1 O5 2.102701 1_455
Li1 O21 2.170636 1_545
Li1 O17 2.170636 1_555
Li1 O13 2.170652 1_545
Li1 O9 2.170664 1_555
Li2 O6 2.102697 1_554
Li2 O2 2.102705 1_555
Li2 O10 2.170647 1_555
Li2 O22 2.170652 1_554
Li2 O14 2.170653 1_555
Li2 O18 2.170658 1_554
Li3 O7 2.102700 1_555
Li3 O3 2.102701 1_655
Li3 O15 2.170646 1_545
Li3 O19 2.170647 1_555
Li3 O23 2.170649 1_545
Li3 O11 2.170658 1_555
Li4 O12 2.092696 1_455
Li4 O20 2.092709 1_555
Li4 O3 2.172623 1_555
Li4 O5 2.172625 1_455
Li4 O17 2.180481 1_555
Li4 O11 2.180499 1_455
Li5 O21 2.092694 1_555
Li5 O13 2.092705 1_555
Li5 O6 2.172623 1_555
Li5 O0 2.172625 1_555
Li5 O8 2.180485 1_455
Li5 O18 2.180495 1_555
Li6 O14 2.092697 1_555
Li6 O22 2.092708 1_554
Li6 O7 2.172616 1_555
Li6 O1 2.172618 1_554
Li6 O9 2.180487 1_554
Li6 O19 2.180490 1_555
Li7 O23 2.092693 1_555
Li7 O15 2.092701 1_555
Li7 O4 2.172616 1_555
Li7 O2 2.172618 1_555
Li7 O16 2.180487 1_655
Li7 O10 2.180490 1_555
Li8 O8 2.092696 1_455
Li8 O16 2.092709 1_555
Li8 O3 2.172623 1_565
Li8 O5 2.172625 1_465
Li8 O21 2.180481 1_555
Li8 O15 2.180503 1_455
Li9 O17 2.092693 1_555
Li9 O9 2.092706 1_555
Li9 O6 2.172623 1_555
Li9 O0 2.172625 1_555
Li9 O12 2.180485 1_455
Li9 O22 2.180495 1_555
Li10 O10 2.092691 1_555
Li10 O18 2.092702 1_554
Li10 O7 2.172616 1_565
Li10 O1 2.172619 1_564
Li10 O13 2.180490 1_554
Li10 O23 2.180494 1_555
Li11 O19 2.092696 1_555
Li11 O11 2.092708 1_555
Li11 O4 2.172610 1_555
Li11 O2 2.172613 1_555
Li11 O14 2.180486 1_555
Li11 O20 2.180487 1_655
Al0 O12 1.936173 1_555
Al0 O20 1.936191 1_555
Al0 O11 1.937131 1_555
Al0 O17 1.937141 1_555
Al0 O0 1.940040 1_555
Al0 O4 1.940056 1_555
Al1 O21 1.936177 1_555
Al1 O13 1.936182 1_655
Al1 O18 1.937140 1_555
Al1 O8 1.937145 1_555
Al1 O5 1.940034 1_565
Al1 O1 1.940049 1_565
Al2 O22 1.936174 1_454
Al2 O14 1.936182 1_555
Al2 O9 1.937129 1_554
Al2 O19 1.937143 1_455
Al2 O6 1.940039 1_554
Al2 O2 1.940043 1_455
Al3 O15 1.936170 1_555
Al3 O23 1.936174 1_455
Al3 O16 1.937135 1_555
Al3 O10 1.937143 1_555
Al3 O3 1.940037 1_565
Al3 O7 1.940045 1_565
Al4 O8 1.936173 1_555
Al4 O16 1.936191 1_555
Al4 O21 1.937140 1_555
Al4 O15 1.937144 1_555
Al4 O0 1.940040 1_555
Al4 O4 1.940055 1_555
Al5 O17 1.936177 1_555
Al5 O9 1.936187 1_655
Al5 O12 1.937139 1_555
Al5 O22 1.937139 1_555
Al5 O5 1.940040 1_555
Al5 O1 1.940056 1_555
Al6 O18 1.936174 1_454
Al6 O10 1.936178 1_555
Al6 O23 1.937135 1_455
Al6 O13 1.937135 1_554
Al6 O6 1.940046 1_554
Al6 O2 1.940050 1_455
Al7 O11 1.936174 1_555
Al7 O19 1.936178 1_455
Al7 O20 1.937129 1_555
Al7 O14 1.937131 1_555
Al7 O3 1.940044 1_555
Al7 O7 1.940051 1_555
Cr0 O15 2.016094 1_555
Cr0 O11 2.016107 1_565
Cr0 O21 2.016124 1_555
Cr0 O17 2.016137 1_565
Cr0 O5 2.019349 1_565
Cr0 O3 2.019400 1_565
Cr1 O22 2.016014 1_555
Cr1 O12 2.016083 1_555
Cr1 O18 2.016148 1_555
Cr1 O8 2.016211 1_555
Cr1 O0 2.019362 1_555
Cr1 O6 2.019386 1_655
Cr2 O13 2.016060 1_655
Cr2 O9 2.016073 1_665
Cr2 O23 2.016156 1_556
Cr2 O19 2.016171 1_566
Cr2 O1 2.019299 1_565
Cr2 O7 2.019440 1_666
Cr3 O20 2.016068 1_555
Cr3 O16 2.016081 1_555
Cr3 O14 2.016138 1_555
Cr3 O10 2.016157 1_555
Cr3 O4 2.019361 1_555
Cr3 O2 2.019378 1_455
