# generated using pymatgen
data_RbPd2F5
_symmetry_space_group_name_H-M   'P 1'
_cell_length_a   7.28074916
_cell_length_b   7.28076699
_cell_length_c   7.28079161
_cell_angle_alpha   128.77426579
_cell_angle_beta   116.19227761
_cell_angle_gamma   86.12190144
_symmetry_Int_Tables_number   1
_chemical_formula_structural   RbPd2F5
_chemical_formula_sum   'Rb2 Pd4 F10'
_cell_volume   257.69307929
_cell_formula_units_Z   2
loop_
 _symmetry_equiv_pos_site_id
 _symmetry_equiv_pos_as_xyz
  1  'x, y, z'
loop_
 _atom_site_type_symbol
 _atom_site_label
 _atom_site_symmetry_multiplicity
 _atom_site_fract_x
 _atom_site_fract_y
 _atom_site_fract_z
 _atom_site_occupancy
  Rb  Rb0  1  0.64670641  0.39670588  0.24999980  1
  Rb  Rb1  1  0.35329404  0.60329415  0.74999993  1
  Pd  Pd0  1  0.00000024  -0.00000305  -0.00000280  1
  Pd  Pd1  1  0.50000010  -0.00000264  0.49999683  1
  Pd  Pd2  1  -0.00000039  0.50000057  0.00000069  1
  Pd  Pd3  1  0.00000082  0.00000110  0.50000108  1
  F  F0  1  0.95045220  0.61450525  0.80275987  1
  F  F1  1  0.04954720  0.85230816  0.66405335  1
  F  F2  1  0.68825447  0.38550108  0.83595195  1
  F  F3  1  0.31174580  0.14769553  0.69724418  1
  F  F4  1  0.04954758  0.38549570  0.19724099  1
  F  F5  1  0.95045242  0.14769248  0.33594694  1
  F  F6  1  0.34512627  0.09512570  0.25000021  1
  F  F7  1  0.65487357  0.90487333  0.74999874  1
  F  F8  1  0.68825442  0.85230734  0.30275972  1
  F  F9  1  0.31174486  0.61449941  0.16404853  1
loop_
_geom_bond_atom_site_label_1
_geom_bond_atom_site_label_2
_geom_bond_distance
_geom_bond_site_symmetry_2
F0 Pd2 1.972052 1_656
F0 Pd0 2.168222 1_666
F0 Rb0 2.868154 1_555
F0 Rb1 3.111202 1_655
F1 Pd3 1.972050 1_565
F1 Pd0 2.168230 1_566
F1 Rb1 2.868158 1_555
F1 Rb0 3.111185 1_455
F2 Pd2 1.972033 1_656
F2 Pd1 2.168275 1_555
F2 Rb1 2.868131 1_555
F2 Rb0 3.111205 1_556
F3 Pd3 1.972031 1_555
F3 Pd1 2.168276 1_555
F3 Rb0 2.868135 1_556
F3 Rb1 3.111201 1_555
F4 Pd2 1.972049 1_555
F4 Pd0 2.168257 1_555
F4 Rb1 2.868151 1_555
F4 Rb0 3.111194 1_455
F5 Pd3 1.972050 1_655
F5 Pd0 2.168261 1_655
F5 Rb0 2.868152 1_555
F5 Rb1 3.111187 1_655
F6 Pd0 2.173870 1_555
F6 Pd1 2.173878 1_555
F6 Rb1 3.148594 1_544
F6 Rb1 3.148596 1_555
F6 Rb0 3.208528 1_555
F7 Pd0 2.173875 1_666
F7 Pd1 2.173883 1_565
F7 Rb0 3.148592 1_555
F7 Rb0 3.148598 1_566
F7 Rb1 3.208524 1_555
F8 Pd3 1.972041 1_665
F8 Pd1 2.168227 1_565
F8 Rb1 2.868150 1_554
F8 Rb0 3.111203 1_555
F9 Pd2 1.972035 1_555
F9 Pd1 2.168248 1_565
F9 Rb0 2.868138 1_555
F9 Rb1 3.111213 1_554
