# generated using pymatgen
data_LiMn2(BO3)2
_symmetry_space_group_name_H-M   'P 1'
_cell_length_a   9.08453845
_cell_length_b   9.08453845
_cell_length_c   10.47190813
_cell_angle_alpha   89.62203001
_cell_angle_beta   89.62203001
_cell_angle_gamma   60.75019222
_symmetry_Int_Tables_number   1
_chemical_formula_structural   LiMn2(BO3)2
_chemical_formula_sum   'Li6 Mn12 B12 O36'
_cell_volume   754.02045349
_cell_formula_units_Z   6
loop_
 _symmetry_equiv_pos_site_id
 _symmetry_equiv_pos_as_xyz
  1  'x, y, z'
loop_
 _atom_site_type_symbol
 _atom_site_label
 _atom_site_symmetry_multiplicity
 _atom_site_fract_x
 _atom_site_fract_y
 _atom_site_fract_z
 _atom_site_occupancy
  Li  Li0  1  0.71646800  0.69769800  0.32371000  1
  Li  Li1  1  0.69769800  0.71646800  0.82371000  1
  Li  Li2  1  0.94584600  0.96399400  0.08402100  1
  Li  Li3  1  0.96399400  0.94584600  0.58402100  1
  Li  Li4  1  0.40516800  0.36482400  0.33101900  1
  Li  Li5  1  0.36482400  0.40516800  0.83101900  1
  Mn  Mn0  1  0.74705700  0.33493000  0.87482900  1
  Mn  Mn1  1  0.92483400  0.32972500  0.12337500  1
  Mn  Mn2  1  0.33493000  0.74705700  0.37482900  1
  Mn  Mn3  1  0.94863800  0.59739800  0.62106100  1
  Mn  Mn4  1  0.32972500  0.92483400  0.62337500  1
  Mn  Mn5  1  0.59739800  0.94863800  0.12106100  1
  Mn  Mn6  1  0.35707000  0.06985800  0.87944600  1
  Mn  Mn7  1  0.06985800  0.35707000  0.37944600  1
  Mn  Mn8  1  0.74701300  0.04460700  0.36587400  1
  Mn  Mn9  1  0.59818500  0.29809400  0.60699700  1
  Mn  Mn10  1  0.29809400  0.59818500  0.10699700  1
  Mn  Mn11  1  0.04460700  0.74701300  0.86587400  1
  B  B0  1  0.96099600  0.25031900  0.63404000  1
  B  B1  1  0.69510900  0.41294200  0.35659300  1
  B  B2  1  0.41294200  0.69510900  0.85659300  1
  B  B3  1  0.25031900  0.96099600  0.13404000  1
  B  B4  1  0.95346900  0.62231400  0.12715400  1
  B  B5  1  0.41192400  0.04172700  0.36977600  1
  B  B6  1  0.62231400  0.95346900  0.62715400  1
  B  B7  1  0.70214500  0.06214900  0.89151500  1
  B  B8  1  0.04172700  0.41192400  0.86977600  1
  B  B9  1  0.62854200  0.25819100  0.12452800  1
  B  B10  1  0.06214900  0.70214500  0.39151500  1
  B  B11  1  0.25819100  0.62854200  0.62452800  1
  O  O0  1  0.72135200  0.32555400  0.06264400  1
  O  O1  1  0.86209500  0.33827300  0.30414500  1
  O  O2  1  0.80048500  0.31594800  0.69310100  1
  O  O3  1  0.94483600  0.35175900  0.93363800  1
  O  O4  1  0.59624600  0.58137200  0.36027000  1
  O  O5  1  0.32555400  0.72135200  0.56264400  1
  O  O6  1  0.58137200  0.59624600  0.86027000  1
  O  O7  1  0.31594800  0.80048500  0.19310100  1
  O  O8  1  0.33827300  0.86209500  0.80414500  1
  O  O9  1  0.94935000  0.57139200  0.81020600  1
  O  O10  1  0.08305600  0.06637700  0.12434500  1
  O  O11  1  0.78327700  0.70659500  0.14621200  1
  O  O12  1  0.97094400  0.61972400  0.43146500  1
  O  O13  1  0.06637700  0.08305600  0.62434500  1
  O  O14  1  0.35175900  0.94483600  0.43363800  1
  O  O15  1  0.70659500  0.78327700  0.64621200  1
  O  O16  1  0.36648600  0.00141300  0.07801100  1
  O  O17  1  0.57139200  0.94935000  0.31020600  1
  O  O18  1  0.44979500  0.04607200  0.66321100  1
  O  O19  1  0.61972400  0.97094400  0.93146500  1
  O  O20  1  0.00141300  0.36648600  0.57801100  1
  O  O21  1  0.99475100  0.87225200  0.39452800  1
  O  O22  1  0.32454000  0.21053700  0.36819900  1
  O  O23  1  0.70004200  0.03898200  0.57442500  1
  O  O24  1  0.71815000  0.08633800  0.15769400  1
  O  O25  1  0.87225200  0.99475100  0.89452800  1
  O  O26  1  0.21053700  0.32454000  0.86819900  1
  O  O27  1  0.04607200  0.44979500  0.16321100  1
  O  O28  1  0.60243400  0.23074500  0.85203700  1
  O  O29  1  0.46443900  0.35638200  0.15176300  1
  O  O30  1  0.64145200  0.30307800  0.40573500  1
  O  O31  1  0.35638200  0.46443900  0.65176300  1
  O  O32  1  0.03898200  0.70004200  0.07442500  1
  O  O33  1  0.23074500  0.60243400  0.35203700  1
  O  O34  1  0.08633800  0.71815000  0.65769400  1
  O  O35  1  0.30307800  0.64145200  0.90573500  1
loop_
_geom_bond_atom_site_label_1
_geom_bond_atom_site_label_2
_geom_bond_distance
_geom_bond_site_symmetry_2
Li0 O4 1.890287 1_555
Li0 O11 1.964915 1_555
Li0 O17 2.009277 1_555
Li0 O12 2.354365 1_555
Li1 O6 1.890287 1_555
Li1 O15 1.964915 1_555
Li1 O9 2.009277 1_555
Li1 O19 2.354365 1_555
Li2 O10 1.934486 1_665
Li2 O24 1.962859 1_565
Li2 O25 2.071315 1_554
Li2 O32 2.120192 1_655
Li3 O13 1.934486 1_665
Li3 O34 1.962859 1_655
Li3 O21 2.071315 1_555
Li3 O23 2.120192 1_565
Li4 O22 1.909180 1_555
Li4 O29 1.941062 1_555
Li4 O33 1.969226 1_555
Li4 O30 2.091444 1_555
Li5 O26 1.909180 1_555
Li5 O31 1.941062 1_555
Li5 O28 1.969226 1_555
Li5 O35 2.091444 1_555
Mn0 O2 1.948647 1_555
Mn0 O28 1.975159 1_555
Mn0 O3 1.978675 1_555
Mn0 O0 1.985241 1_556
Mn0 O6 2.104938 1_555
Mn1 O27 1.939840 1_655
Mn1 O1 1.964384 1_555
Mn1 O0 1.976682 1_555
Mn1 O3 2.011573 1_554
Mn1 O10 2.104539 1_655
Mn2 O7 1.948647 1_555
Mn2 O33 1.975159 1_555
Mn2 O14 1.978675 1_555
Mn2 O5 1.985241 1_555
Mn2 O4 2.104938 1_555
Mn3 O20 1.964778 1_655
Mn3 O9 1.992879 1_555
Mn3 O12 2.013376 1_555
Mn3 O15 2.031127 1_555
Mn3 O34 2.065979 1_655
Mn4 O18 1.939840 1_565
Mn4 O8 1.964384 1_555
Mn4 O5 1.976682 1_555
Mn4 O14 2.011573 1_555
Mn4 O13 2.104539 1_565
Mn5 O16 1.964778 1_565
Mn5 O17 1.992879 1_555
Mn5 O19 2.013376 1_554
Mn5 O11 2.031127 1_555
Mn5 O24 2.065979 1_565
Mn6 O26 2.031662 1_555
Mn6 O8 2.133011 1_545
Mn6 O16 2.156610 1_556
Mn6 O19 2.170948 1_545
Mn6 O18 2.384776 1_555
Mn7 O22 2.031662 1_555
Mn7 O1 2.133011 1_455
Mn7 O20 2.156610 1_555
Mn7 O12 2.170948 1_455
Mn7 O27 2.384776 1_555
Mn8 O21 2.041037 1_545
Mn8 O30 2.101083 1_555
Mn8 O24 2.205573 1_555
Mn8 O23 2.227503 1_555
Mn8 O17 2.236568 1_545
Mn9 O31 2.020032 1_555
Mn9 O23 2.095555 1_555
Mn9 O2 2.128833 1_555
Mn9 O30 2.145627 1_555
Mn9 O28 2.630188 1_555
Mn10 O29 2.020032 1_555
Mn10 O32 2.095555 1_555
Mn10 O7 2.128833 1_555
Mn10 O35 2.145627 1_554
Mn10 O33 2.630188 1_555
Mn11 O25 2.041037 1_455
Mn11 O35 2.101083 1_555
Mn11 O34 2.205573 1_555
Mn11 O32 2.227503 1_556
Mn11 O9 2.236568 1_455
B0 O13 1.347178 1_655
B0 O20 1.400152 1_655
B0 O2 1.416906 1_555
B1 O4 1.344142 1_555
B1 O30 1.401395 1_555
B1 O1 1.432261 1_555
B2 O6 1.344142 1_555
B2 O35 1.401395 1_555
B2 O8 1.432261 1_555
B3 O10 1.347178 1_565
B3 O16 1.400152 1_565
B3 O7 1.416906 1_555
B4 O11 1.362950 1_555
B4 O32 1.390055 1_655
B4 O27 1.419333 1_655
B5 O22 1.338810 1_555
B5 O14 1.406522 1_545
B5 O17 1.413869 1_545
B6 O15 1.362950 1_555
B6 O23 1.390055 1_565
B6 O18 1.419333 1_565
B7 O25 1.356360 1_545
B7 O28 1.406439 1_555
B7 O19 1.421168 1_545
B8 O26 1.338810 1_555
B8 O3 1.406522 1_455
B8 O9 1.413869 1_455
B9 O29 1.340791 1_555
B9 O24 1.405443 1_555
B9 O0 1.413194 1_555
B10 O21 1.356360 1_455
B10 O33 1.406439 1_555
B10 O12 1.421168 1_455
B11 O31 1.340791 1_555
B11 O34 1.405443 1_555
B11 O5 1.413194 1_555
