# generated using pymatgen
data_MgGaIr2
_symmetry_space_group_name_H-M   'P 1'
_cell_length_a   4.30299097
_cell_length_b   4.30299099
_cell_length_c   4.30299106
_cell_angle_alpha   60.00060959
_cell_angle_beta   60.00060970
_cell_angle_gamma   60.00060915
_symmetry_Int_Tables_number   1
_chemical_formula_structural   MgGaIr2
_chemical_formula_sum   'Mg1 Ga1 Ir2'
_cell_volume   56.33811576
_cell_formula_units_Z   1
loop_
 _symmetry_equiv_pos_site_id
 _symmetry_equiv_pos_as_xyz
  1  'x, y, z'
loop_
 _atom_site_type_symbol
 _atom_site_label
 _atom_site_symmetry_multiplicity
 _atom_site_fract_x
 _atom_site_fract_y
 _atom_site_fract_z
 _atom_site_occupancy
  Mg  Mg0  1  0.75000052  0.75000052  0.75000053  1
  Ga  Ga0  1  0.25000005  0.25000005  0.25000005  1
  Ir  Ir0  1  0.00000053  0.00000052  0.00000051  1
  Ir  Ir1  1  0.49999890  0.49999890  0.49999891  1
loop_
_geom_bond_atom_site_label_1
_geom_bond_atom_site_label_2
_geom_bond_distance
_geom_bond_site_symmetry_2
Ga0 Ir1 2.635009 1_555
Ga0 Ir0 2.635016 1_555
Ga0 Ir0 2.635055 1_565
Ga0 Ir0 2.635055 1_556
Ga0 Ir0 2.635055 1_655
Ga0 Ir1 2.635057 1_455
Ga0 Ir1 2.635057 1_545
Ga0 Ir1 2.635057 1_554
Ir0 Mg0 2.635021 1_444
Ir0 Mg0 2.635053 1_544
Ir0 Mg0 2.635053 1_454
Ir0 Mg0 2.635053 1_445
Ir1 Mg0 2.635038 1_555
Ir1 Mg0 2.635048 1_455
Ir1 Mg0 2.635048 1_545
Ir1 Mg0 2.635048 1_554
