# generated using pymatgen
data_Rb2CoSe2
_symmetry_space_group_name_H-M   'P 1'
_cell_length_a   8.44111098
_cell_length_b   8.44111098
_cell_length_c   8.44111098
_cell_angle_alpha   134.34958911
_cell_angle_beta   129.30033778
_cell_angle_gamma   70.58428131
_symmetry_Int_Tables_number   1
_chemical_formula_structural   Rb2CoSe2
_chemical_formula_sum   'Rb4 Co2 Se4'
_cell_volume   326.13516780
_cell_formula_units_Z   2
loop_
 _symmetry_equiv_pos_site_id
 _symmetry_equiv_pos_as_xyz
  1  'x, y, z'
loop_
 _atom_site_type_symbol
 _atom_site_label
 _atom_site_symmetry_multiplicity
 _atom_site_fract_x
 _atom_site_fract_y
 _atom_site_fract_z
 _atom_site_occupancy
  Rb  Rb0  1  0.47274100  0.64525100  0.82749000  1
  Rb  Rb1  1  0.52725900  0.35474900  0.17251000  1
  Rb  Rb2  1  0.18223800  0.85474900  0.32749000  1
  Rb  Rb3  1  0.81776200  0.14525100  0.67251000  1
  Co  Co0  1  0.00000000  0.25000000  0.25000000  1
  Co  Co1  1  0.00000000  0.75000000  0.75000000  1
  Se  Se0  1  0.92317300  0.59647500  0.32669800  1
  Se  Se1  1  0.73022300  0.90352500  0.82669800  1
  Se  Se2  1  0.26977700  0.09647500  0.17330200  1
  Se  Se3  1  0.07682700  0.40352500  0.67330200  1
loop_
_geom_bond_atom_site_label_1
_geom_bond_atom_site_label_2
_geom_bond_distance
_geom_bond_site_symmetry_2
Rb0 Se3 3.512377 1_555
Rb0 Se2 3.523640 1_566
Rb0 Se2 3.523640 1_555
Rb0 Se1 3.558905 1_555
Rb0 Se0 3.670349 1_556
Rb0 Se0 3.681606 1_455
Rb1 Se0 3.512377 1_555
Rb1 Se1 3.523640 1_555
Rb1 Se1 3.523640 1_544
Rb1 Se2 3.558905 1_555
Rb1 Se3 3.670349 1_554
Rb1 Se3 3.681606 1_655
Rb2 Se2 3.512382 1_565
Rb2 Se3 3.523637 1_565
Rb2 Se3 3.523643 1_554
Rb2 Se0 3.558898 1_455
Rb2 Se1 3.670354 1_555
Rb2 Se1 3.681603 1_454
Rb3 Se1 3.512382 1_545
Rb3 Se0 3.523637 1_545
Rb3 Se0 3.523643 1_556
Rb3 Se3 3.558898 1_655
Rb3 Se2 3.670354 1_555
Rb3 Se2 3.681603 1_656
Co0 Se0 2.452938 1_455
Co0 Se2 2.452938 1_555
Co0 Se1 2.452938 1_444
Co0 Se3 2.452938 1_555
Co0 Rb2 3.505671 1_545
Co0 Rb0 3.505671 1_555
Co0 Rb1 3.505671 1_455
Co0 Rb3 3.505674 1_454
Co1 Se2 2.452938 1_566
Co1 Se0 2.452938 1_455
Co1 Se1 2.452938 1_455
Co1 Se3 2.452938 1_555
Co1 Rb3 3.505671 1_465
Co1 Rb0 3.505671 1_555
Co1 Rb1 3.505671 1_455
Co1 Rb2 3.505674 1_556
