# generated using pymatgen
data_LiNbVO4
_symmetry_space_group_name_H-M   'P 1'
_cell_length_a   6.15302400
_cell_length_b   8.63228946
_cell_length_c   6.15311045
_cell_angle_alpha   90.45329301
_cell_angle_beta   89.18703132
_cell_angle_gamma   89.54755243
_symmetry_Int_Tables_number   1
_chemical_formula_structural   LiNbVO4
_chemical_formula_sum   'Li4 Nb4 V4 O16'
_cell_volume   326.76690986
_cell_formula_units_Z   4
loop_
 _symmetry_equiv_pos_site_id
 _symmetry_equiv_pos_as_xyz
  1  'x, y, z'
loop_
 _atom_site_type_symbol
 _atom_site_label
 _atom_site_symmetry_multiplicity
 _atom_site_fract_x
 _atom_site_fract_y
 _atom_site_fract_z
 _atom_site_occupancy
  Li  Li0  1  0.00335000  0.12499100  0.25339400  1
  Li  Li1  1  0.50334300  0.62500400  0.75332400  1
  Li  Li2  1  0.99672200  0.87503700  0.74667000  1
  Li  Li3  1  0.49667200  0.37496500  0.24672200  1
  Nb  Nb0  1  0.25067700  0.25077000  0.75393800  1
  Nb  Nb1  1  0.75101400  0.75048900  0.25350300  1
  Nb  Nb2  1  0.00335300  0.49948000  0.00091400  1
  Nb  Nb3  1  0.50410000  0.99921200  0.50073800  1
  V  V0  1  0.49440500  0.99690600  0.00150200  1
  V  V1  1  0.25152000  0.75320400  0.24437500  1
  V  V2  1  0.99439800  0.49684100  0.50148600  1
  V  V3  1  0.75145500  0.25307500  0.74444100  1
  O  O0  1  0.01534700  0.25638200  0.52752000  1
  O  O1  1  0.51514100  0.75629300  0.02762000  1
  O  O2  1  0.77762800  0.49376400  0.76526600  1
  O  O3  1  0.27748400  0.99357100  0.26525700  1
  O  O4  1  0.22008000  0.50986600  0.24023000  1
  O  O5  1  0.72004100  0.00962400  0.74025400  1
  O  O6  1  0.99035100  0.74029000  0.46997000  1
  O  O7  1  0.49014900  0.24027600  0.97014600  1
  O  O8  1  0.23217000  0.49246800  0.74703600  1
  O  O9  1  0.73209500  0.99261000  0.24712200  1
  O  O10  1  0.99720500  0.25740700  0.98213100  1
  O  O11  1  0.49696200  0.75749000  0.48210900  1
  O  O12  1  0.76673200  0.50780500  0.25054600  1
  O  O13  1  0.26689000  0.00811300  0.75014800  1
  O  O14  1  0.00059900  0.74219300  0.01672200  1
  O  O15  1  0.50011700  0.24187000  0.51692100  1
loop_
_geom_bond_atom_site_label_1
_geom_bond_atom_site_label_2
_geom_bond_distance
_geom_bond_site_symmetry_2
Li0 O0 2.027685 1_555
Li0 O3 2.027816 1_545
Li0 O9 2.030840 1_445
Li0 O10 2.031066 1_454
Li1 O2 2.027752 1_555
Li1 O1 2.028000 1_556
Li1 O8 2.031187 1_555
Li1 O11 2.031204 1_555
Li2 O14 2.026711 1_656
Li2 O13 2.028367 1_665
Li2 O5 2.054500 1_565
Li2 O6 2.055364 1_555
Li3 O12 2.026692 1_555
Li3 O15 2.028648 1_555
Li3 O7 2.054488 1_554
Li3 O4 2.055582 1_555
Nb0 O7 2.001150 1_555
Nb0 O0 2.024146 1_555
Nb0 O10 2.083832 1_455
Nb0 O8 2.089414 1_555
Nb0 O13 2.096202 1_555
Nb0 O15 2.102688 1_555
Nb1 O6 2.001496 1_555
Nb1 O1 2.024314 1_555
Nb1 O11 2.088206 1_555
Nb1 O9 2.093089 1_555
Nb1 O12 2.096310 1_555
Nb1 O14 2.102214 1_655
Nb2 O4 2.002554 1_555
Nb2 O2 2.022612 1_454
Nb2 O8 2.088281 1_554
Nb2 O10 2.092595 1_454
Nb2 O14 2.096580 1_555
Nb2 O12 2.101758 1_455
Nb3 O5 2.000212 1_565
Nb3 O3 2.025677 1_555
Nb3 O9 2.083678 1_555
Nb3 O11 2.089697 1_555
Nb3 O15 2.096206 1_565
Nb3 O13 2.103369 1_565
O0 V2 2.086259 1_455
O0 V3 2.087747 1_455
O1 V1 2.085778 1_555
O1 V0 2.087554 1_555
O2 V2 2.086591 1_555
O2 V3 2.088262 1_555
O3 V1 2.085405 1_555
O3 V0 2.087111 1_555
O4 V1 2.110960 1_555
O4 V2 2.113547 1_455
O5 V3 2.111917 1_555
O5 V0 2.113158 1_546
O6 V2 2.111961 1_555
O6 V1 2.112733 1_655
O7 V0 2.111191 1_546
O7 V3 2.113741 1_555
O8 V2 2.118350 1_455
O9 V0 2.118296 1_555
O10 V3 2.118879 1_555
O11 V1 2.117691 1_555
O12 V2 2.101670 1_555
O13 V0 2.103036 1_546
O14 V1 2.101543 1_555
O15 V3 2.102978 1_555
