# generated using pymatgen
data_Cr3S4
_symmetry_space_group_name_H-M   'P 1'
_cell_length_a   3.44326906
_cell_length_b   5.94757233
_cell_length_c   11.09505679
_cell_angle_alpha   88.76586814
_cell_angle_beta   89.99998768
_cell_angle_gamma   90.00001234
_symmetry_Int_Tables_number   1
_chemical_formula_structural   Cr3S4
_chemical_formula_sum   'Cr6 S8'
_cell_volume   227.16397883
_cell_formula_units_Z   2
loop_
 _symmetry_equiv_pos_site_id
 _symmetry_equiv_pos_as_xyz
  1  'x, y, z'
loop_
 _atom_site_type_symbol
 _atom_site_label
 _atom_site_symmetry_multiplicity
 _atom_site_fract_x
 _atom_site_fract_y
 _atom_site_fract_z
 _atom_site_occupancy
  Cr  Cr0  1  0.00000000  0.99780300  0.00017200  1
  Cr  Cr1  1  0.50000000  0.50308900  0.50386900  1
  Cr  Cr2  1  0.50000000  0.46839600  0.23873700  1
  Cr  Cr3  1  0.00000000  0.98582900  0.74173400  1
  Cr  Cr4  1  0.00000000  0.03154900  0.25738400  1
  Cr  Cr5  1  0.50000000  0.51393000  0.75722500  1
  S  S0  1  0.00000000  0.33186900  0.11831500  1
  S  S1  1  0.50000000  0.83201900  0.62535900  1
  S  S2  1  0.50000000  0.84316200  0.13753800  1
  S  S3  1  0.00000000  0.34122800  0.63612300  1
  S  S4  1  0.00000000  0.65902600  0.36455300  1
  S  S5  1  0.50000000  0.15784800  0.86465700  1
  S  S6  1  0.50000000  0.16600800  0.38007800  1
  S  S7  1  0.00000000  0.66824300  0.87425500  1
loop_
_geom_bond_atom_site_label_1
_geom_bond_atom_site_label_2
_geom_bond_distance
_geom_bond_site_symmetry_2
Cr0 S0 2.403766 1_565
Cr0 S7 2.431387 1_554
Cr0 S5 2.463554 1_564
Cr0 S5 2.463555 1_464
Cr0 S2 2.464222 1_455
Cr0 S2 2.464223 1_555
Cr1 S1 2.399537 1_555
Cr1 S3 2.446035 1_555
Cr1 S3 2.446036 1_655
Cr1 S6 2.454446 1_555
Cr1 S4 2.480257 1_655
Cr1 S4 2.480258 1_555
Cr2 S0 2.335646 1_655
Cr2 S0 2.335646 1_555
Cr2 S6 2.360557 1_555
Cr2 S2 2.474086 1_555
Cr2 S4 2.503259 1_555
Cr2 S4 2.503259 1_655
Cr3 S1 2.349239 1_555
Cr3 S1 2.349239 1_455
Cr3 S7 2.368553 1_555
Cr3 S3 2.394643 1_565
Cr3 S5 2.435346 1_465
Cr3 S5 2.435346 1_565
Cr4 S0 2.335056 1_555
Cr4 S6 2.345970 1_455
Cr4 S6 2.345970 1_555
Cr4 S2 2.460020 1_545
Cr4 S2 2.460020 1_445
Cr4 S4 2.491840 1_545
Cr5 S7 2.354502 1_555
Cr5 S7 2.354502 1_655
Cr5 S1 2.366525 1_555
Cr5 S5 2.407741 1_555
Cr5 S3 2.425671 1_655
Cr5 S3 2.425671 1_555
