# generated using pymatgen
data_Li9V12Fe7O48
_symmetry_space_group_name_H-M   'P 1'
_cell_length_a   5.12459100
_cell_length_b   10.21292860
_cell_length_c   17.44121847
_cell_angle_alpha   89.74566546
_cell_angle_beta   89.57159543
_cell_angle_gamma   89.81094414
_symmetry_Int_Tables_number   1
_chemical_formula_structural   Li9V12Fe7O48
_chemical_formula_sum   'Li9 V12 Fe7 O48'
_cell_volume   912.78310167
_cell_formula_units_Z   1
loop_
 _symmetry_equiv_pos_site_id
 _symmetry_equiv_pos_as_xyz
  1  'x, y, z'
loop_
 _atom_site_type_symbol
 _atom_site_label
 _atom_site_symmetry_multiplicity
 _atom_site_fract_x
 _atom_site_fract_y
 _atom_site_fract_z
 _atom_site_occupancy
  Li  Li0  1  0.75765700  0.58116400  0.96982900  1
  Li  Li1  1  0.73374700  0.25189700  0.30208200  1
  Li  Li2  1  0.75152500  0.74678200  0.79879300  1
  Li  Li3  1  0.74725300  0.41515900  0.47063900  1
  Li  Li4  1  0.59936100  0.25137000  0.75204300  1
  Li  Li5  1  0.40275700  0.75106900  0.24798400  1
  Li  Li6  1  0.25312600  0.91435600  0.52950300  1
  Li  Li7  1  0.24303100  0.25225200  0.20221800  1
  Li  Li8  1  0.25952700  0.75065100  0.69890300  1
  V  V0  1  0.78658800  0.25332100  0.94347500  1
  V  V1  1  0.78546900  0.97474500  0.65623500  1
  V  V2  1  0.78988300  0.52711700  0.65101800  1
  V  V3  1  0.72052200  0.47309100  0.15246600  1
  V  V4  1  0.71787500  0.02952300  0.15636500  1
  V  V5  1  0.72299500  0.74688200  0.44310000  1
  V  V6  1  0.27750400  0.24573900  0.55574600  1
  V  V7  1  0.28412200  0.97142100  0.84633200  1
  V  V8  1  0.27511500  0.52425000  0.84426600  1
  V  V9  1  0.21297500  0.47427500  0.34408100  1
  V  V10  1  0.20850300  0.02635200  0.34847400  1
  V  V11  1  0.21800400  0.75265300  0.05793800  1
  Fe  Fe0  1  0.90427200  0.75093200  0.25160200  1
  Fe  Fe1  1  0.75675800  0.92426100  0.97280500  1
  Fe  Fe2  1  0.73568500  0.06783700  0.47561000  1
  Fe  Fe3  1  0.26464800  0.56801000  0.52383400  1
  Fe  Fe4  1  0.24892900  0.43247100  0.02625100  1
  Fe  Fe5  1  0.25344100  0.07856400  0.02976800  1
  Fe  Fe6  1  0.09866200  0.25002500  0.74672500  1
  O  O0  1  0.94504700  0.76063700  0.99603900  1
  O  O1  1  0.94389400  0.38729700  0.36983600  1
  O  O2  1  0.91830100  0.11138700  0.37996400  1
  O  O3  1  0.89625600  0.36888300  0.20984300  1
  O  O4  1  0.89468000  0.12817900  0.21332700  1
  O  O5  1  0.89773300  0.88981700  0.46638000  1
  O  O6  1  0.93643100  0.62140900  0.46412200  1
  O  O7  1  0.92293200  0.99909500  0.07348700  1
  O  O8  1  0.92577200  0.50423900  0.07427900  1
  O  O9  1  0.85846000  0.25196100  0.84779500  1
  O  O10  1  0.85741200  0.38623300  0.70467300  1
  O  O11  1  0.85552900  0.11639900  0.70827600  1
  O  O12  1  0.66527500  0.88362200  0.20483800  1
  O  O13  1  0.66969700  0.61823000  0.20379900  1
  O  O14  1  0.66774500  0.74738400  0.34450000  1
  O  O15  1  0.58789200  0.01013700  0.57334200  1
  O  O16  1  0.58563400  0.49054000  0.57385800  1
  O  O17  1  0.58884900  0.11379500  0.96699500  1
  O  O18  1  0.57901900  0.37913900  0.96608600  1
  O  O19  1  0.58876800  0.87300300  0.71224900  1
  O  O20  1  0.61239800  0.63325600  0.70660200  1
  O  O21  1  0.57145300  0.88921600  0.87661400  1
  O  O22  1  0.55198600  0.60651000  0.86874900  1
  O  O23  1  0.55757100  0.23560700  0.49350200  1
  O  O24  1  0.44266600  0.73565400  0.50490500  1
  O  O25  1  0.42973400  0.39151400  0.12280700  1
  O  O26  1  0.42971400  0.11326100  0.12654400  1
  O  O27  1  0.40569300  0.37218200  0.28725000  1
  O  O28  1  0.38414100  0.13106000  0.29178300  1
  O  O29  1  0.42469000  0.89071900  0.03583200  1
  O  O30  1  0.40360400  0.61644600  0.03534300  1
  O  O31  1  0.41475500  0.99020100  0.42562500  1
  O  O32  1  0.41188600  0.50922100  0.42587300  1
  O  O33  1  0.33421000  0.24608400  0.65395800  1
  O  O34  1  0.33466700  0.38218400  0.79128200  1
  O  O35  1  0.33369400  0.11616000  0.79617300  1
  O  O36  1  0.14245300  0.88463600  0.29593900  1
  O  O37  1  0.14447400  0.61643600  0.29115700  1
  O  O38  1  0.14096500  0.75431600  0.15409000  1
  O  O39  1  0.09066100  0.48538600  0.92734400  1
  O  O40  1  0.08525600  0.00974500  0.92989300  1
  O  O41  1  0.10274100  0.38961100  0.53288300  1
  O  O42  1  0.06361500  0.12093500  0.53506700  1
  O  O43  1  0.09573200  0.87043700  0.79372200  1
  O  O44  1  0.08936800  0.63272500  0.78799300  1
  O  O45  1  0.05359900  0.88700400  0.63019200  1
  O  O46  1  0.08058000  0.61094000  0.61951100  1
  O  O47  1  0.07243400  0.25100100  0.00758500  1
loop_
_geom_bond_atom_site_label_1
_geom_bond_atom_site_label_2
_geom_bond_distance
_geom_bond_site_symmetry_2
Li0 O22 2.075533 1_555
Li0 O39 2.096324 1_655
Li0 O0 2.125194 1_555
Li0 O8 2.164359 1_556
Li0 O30 2.166974 1_556
Li0 O18 2.261400 1_555
Li1 O27 2.095789 1_555
Li1 O1 2.124095 1_555
Li1 O4 2.159707 1_555
Li1 O3 2.163006 1_555
Li1 O28 2.187790 1_555
Li1 O2 2.189025 1_555
Li2 O44 2.091305 1_655
Li2 O20 2.115934 1_555
Li2 O22 2.135909 1_555
Li2 O19 2.151801 1_555
Li2 O43 2.173816 1_655
Li2 O21 2.190844 1_555
Li3 O1 2.040467 1_555
Li3 O23 2.113290 1_555
Li3 O32 2.118635 1_555
Li3 O16 2.122594 1_555
Li3 O41 2.142255 1_655
Li3 O6 2.323675 1_555
Li4 O34 2.018782 1_555
Li4 O11 2.046599 1_555
Li4 O10 2.077019 1_555
Li4 O35 2.083284 1_555
Li4 O9 2.141339 1_555
Li4 O33 2.193595 1_555
Li5 O12 2.048559 1_555
Li5 O37 2.048763 1_555
Li5 O13 2.070515 1_555
Li5 O36 2.078753 1_555
Li5 O38 2.124812 1_555
Li5 O14 2.170814 1_555
Li6 O45 2.044072 1_555
Li6 O24 2.108889 1_555
Li6 O15 2.126478 1_565
Li6 O31 2.130226 1_555
Li6 O5 2.151106 1_455
Li6 O42 2.321772 1_565
Li7 O27 2.106157 1_555
Li7 O28 2.118710 1_555
Li7 O3 2.139726 1_455
Li7 O26 2.158936 1_555
Li7 O25 2.197328 1_555
Li7 O4 2.199447 1_455
Li8 O45 2.117417 1_555
Li8 O19 2.117714 1_555
Li8 O44 2.143677 1_555
Li8 O20 2.171041 1_555
Li8 O46 2.199866 1_555
Li8 O43 2.219579 1_555
Fe0 O37 1.967498 1_655
Fe0 O36 1.996722 1_655
Fe0 O12 1.998973 1_555
Fe0 O13 2.003177 1_555
Fe0 O14 2.016466 1_555
Fe0 O38 2.081787 1_655
Fe1 O21 1.968731 1_555
Fe1 O0 1.968998 1_555
Fe1 O40 2.035022 1_665
Fe1 O29 2.047949 1_556
Fe1 O7 2.105103 1_556
Fe1 O17 2.118056 1_565
Fe2 O15 1.949653 1_555
Fe2 O2 1.956848 1_555
Fe2 O23 1.963797 1_555
Fe2 O5 2.002916 1_545
Fe2 O31 2.032171 1_545
Fe2 O42 2.056847 1_655
Fe3 O32 1.958526 1_555
Fe3 O46 1.961342 1_555
Fe3 O24 1.968102 1_555
Fe3 O41 2.009573 1_555
Fe3 O16 2.024777 1_555
Fe3 O6 2.055769 1_455
Fe4 O25 1.970793 1_555
Fe4 O39 1.983796 1_554
Fe4 O8 1.989499 1_455
Fe4 O30 2.048937 1_555
Fe4 O18 2.057107 1_554
Fe4 O47 2.092782 1_555
Fe5 O26 1.954679 1_555
Fe5 O7 2.023142 1_445
Fe5 O47 2.024863 1_555
Fe5 O17 2.062753 1_554
Fe5 O40 2.075694 1_554
Fe5 O29 2.109562 1_545
Fe6 O11 1.973928 1_455
Fe6 O34 1.980545 1_555
Fe6 O10 1.998662 1_455
Fe6 O33 2.011854 1_555
Fe6 O35 2.014394 1_555
Fe6 O9 2.142593 1_455
O0 V11 1.774779 1_656
O1 V9 1.699289 1_655
O2 V10 1.803060 1_655
O3 V3 1.715468 1_555
O4 V4 1.688642 1_555
O5 V5 1.765505 1_555
O6 V5 1.722049 1_555
O7 V4 1.808146 1_565
O8 V3 1.744720 1_555
O9 V0 1.706353 1_555
O10 V2 1.747957 1_555
O11 V1 1.750900 1_545
O12 V4 1.730836 1_565
O13 V3 1.752815 1_555
O14 V5 1.744926 1_555
O15 V1 1.805783 1_545
O16 V2 1.753368 1_555
O17 V0 1.795489 1_555
O18 V0 1.710949 1_555
O19 V1 1.741664 1_555
O20 V2 1.712241 1_555
O21 V7 1.775233 1_555
O22 V8 1.709205 1_555
O23 V6 1.796067 1_555
O24 V5 1.793239 1_555
O25 V3 1.790492 1_555
O26 V4 1.783752 1_555
O27 V9 1.741475 1_555
O28 V10 1.707336 1_555
O29 V11 1.804911 1_555
O30 V11 1.727875 1_555
O31 V10 1.754541 1_565
O32 V9 1.797260 1_555
O33 V6 1.739573 1_555
O34 V8 1.748431 1_555
O35 V7 1.732814 1_545
O36 V10 1.751728 1_565
O37 V9 1.752942 1_555
O38 V11 1.720120 1_555
O39 V8 1.768468 1_555
O40 V7 1.815496 1_545
O41 V6 1.763957 1_555
O42 V6 1.724922 1_555
O43 V7 1.692892 1_555
O44 V8 1.758988 1_555
O45 V1 1.698083 1_455
O46 V2 1.801682 1_455
O47 V0 1.849495 1_454
