# generated using pymatgen
data_Ti2MnNi
_symmetry_space_group_name_H-M   'P 1'
_cell_length_a   4.20783661
_cell_length_b   4.20783661
_cell_length_c   4.20783661
_cell_angle_alpha   60.00000000
_cell_angle_beta   60.00000000
_cell_angle_gamma   60.00000000
_symmetry_Int_Tables_number   1
_chemical_formula_structural   Ti2MnNi
_chemical_formula_sum   'Ti2 Mn1 Ni1'
_cell_volume   52.68192130
_cell_formula_units_Z   1
loop_
 _symmetry_equiv_pos_site_id
 _symmetry_equiv_pos_as_xyz
  1  'x, y, z'
loop_
 _atom_site_type_symbol
 _atom_site_label
 _atom_site_symmetry_multiplicity
 _atom_site_fract_x
 _atom_site_fract_y
 _atom_site_fract_z
 _atom_site_occupancy
  Ti  Ti0  1  -0.00000000  0.00000000  -0.00000000  1
  Ti  Ti1  1  0.50000100  0.50000100  0.50000100  1
  Mn  Mn0  1  0.25000000  0.25000000  0.25000000  1
  Ni  Ni0  1  0.75000100  0.75000100  0.75000100  1
loop_
_geom_bond_atom_site_label_1
_geom_bond_atom_site_label_2
_geom_bond_distance
_geom_bond_site_symmetry_2
Mn0 Ti1 2.576760 1_545
Mn0 Ti1 2.576760 1_554
Mn0 Ti1 2.576760 1_455
Mn0 Ti0 2.576763 1_555
Mn0 Ti0 2.576763 1_565
Mn0 Ti0 2.576763 1_655
Mn0 Ti0 2.576763 1_556
Mn0 Ti1 2.576773 1_555
Ni0 Ti0 2.576753 1_666
Ni0 Ti1 2.576763 1_555
Ni0 Ti1 2.576763 1_556
Ni0 Ti1 2.576763 1_565
Ni0 Ti1 2.576763 1_655
Ni0 Ti0 2.576767 1_566
Ni0 Ti0 2.576767 1_665
Ni0 Ti0 2.576767 1_656
