# generated using pymatgen
data_LiAl2Ni
_symmetry_space_group_name_H-M   'P 1'
_cell_length_a   4.12643476
_cell_length_b   4.12643476
_cell_length_c   4.12643476
_cell_angle_alpha   60.00000000
_cell_angle_beta   60.00000000
_cell_angle_gamma   60.00000000
_symmetry_Int_Tables_number   1
_chemical_formula_structural   LiAl2Ni
_chemical_formula_sum   'Li1 Al2 Ni1'
_cell_volume   49.68324475
_cell_formula_units_Z   1
loop_
 _symmetry_equiv_pos_site_id
 _symmetry_equiv_pos_as_xyz
  1  'x, y, z'
loop_
 _atom_site_type_symbol
 _atom_site_label
 _atom_site_symmetry_multiplicity
 _atom_site_fract_x
 _atom_site_fract_y
 _atom_site_fract_z
 _atom_site_occupancy
  Li  Li0  1  0.25000000  0.25000000  0.25000000  1
  Al  Al0  1  0.49999900  0.49999900  0.49999900  1
  Al  Al1  1  0.00000000  0.00000000  0.00000000  1
  Ni  Ni0  1  0.74999900  0.74999900  0.74999900  1
loop_
_geom_bond_atom_site_label_1
_geom_bond_atom_site_label_2
_geom_bond_distance
_geom_bond_site_symmetry_2
Al0 Li0 2.526905 1_555
Al0 Ni0 2.526915 1_554
Al0 Ni0 2.526915 1_455
Al0 Ni0 2.526915 1_545
Al0 Ni0 2.526915 1_555
Al0 Li0 2.526918 1_565
Al0 Li0 2.526918 1_655
Al0 Li0 2.526918 1_556
Al1 Ni0 2.526912 1_454
Al1 Ni0 2.526912 1_445
Al1 Ni0 2.526912 1_544
Al1 Li0 2.526915 1_455
Al1 Li0 2.526915 1_555
Al1 Li0 2.526915 1_554
Al1 Li0 2.526915 1_545
Al1 Ni0 2.526925 1_444
