# generated using pymatgen
data_LiFeO2
_symmetry_space_group_name_H-M   'P 1'
_cell_length_a   5.25793700
_cell_length_b   10.78418100
_cell_length_c   13.48683000
_cell_angle_alpha   90.00000000
_cell_angle_beta   90.00000000
_cell_angle_gamma   90.00000000
_symmetry_Int_Tables_number   1
_chemical_formula_structural   LiFeO2
_chemical_formula_sum   'Li16 Fe16 O32'
_cell_volume   764.73757547
_cell_formula_units_Z   16
loop_
 _symmetry_equiv_pos_site_id
 _symmetry_equiv_pos_as_xyz
  1  'x, y, z'
loop_
 _atom_site_type_symbol
 _atom_site_label
 _atom_site_symmetry_multiplicity
 _atom_site_fract_x
 _atom_site_fract_y
 _atom_site_fract_z
 _atom_site_occupancy
  Li  Li0  1  0.20385400  0.78651800  0.30650600  1
  Li  Li1  1  0.20385400  0.71348200  0.80650600  1
  Li  Li2  1  0.31558300  0.45869500  0.43926900  1
  Li  Li3  1  0.31558300  0.04130500  0.93926900  1
  Li  Li4  1  0.18441700  0.95869500  0.43926900  1
  Li  Li5  1  0.18441700  0.54130500  0.93926900  1
  Li  Li6  1  0.29614600  0.28651800  0.30650600  1
  Li  Li7  1  0.29614600  0.21348200  0.80650600  1
  Li  Li8  1  0.70385400  0.78651800  0.19349400  1
  Li  Li9  1  0.70385400  0.71348200  0.69349400  1
  Li  Li10  1  0.81558300  0.45869500  0.06073100  1
  Li  Li11  1  0.81558300  0.04130500  0.56073100  1
  Li  Li12  1  0.68441700  0.95869500  0.06073100  1
  Li  Li13  1  0.68441700  0.54130500  0.56073100  1
  Li  Li14  1  0.79614600  0.28651800  0.19349400  1
  Li  Li15  1  0.79614600  0.21348200  0.69349400  1
  Fe  Fe0  1  0.19796700  0.79114500  0.06161600  1
  Fe  Fe1  1  0.19796700  0.70885500  0.56161600  1
  Fe  Fe2  1  0.15976000  0.03920000  0.18493000  1
  Fe  Fe3  1  0.15976000  0.46080000  0.68493000  1
  Fe  Fe4  1  0.34024000  0.53920000  0.18493000  1
  Fe  Fe5  1  0.34024000  0.96080000  0.68493000  1
  Fe  Fe6  1  0.30203300  0.29114500  0.06161600  1
  Fe  Fe7  1  0.30203300  0.20885500  0.56161600  1
  Fe  Fe8  1  0.69796700  0.79114500  0.43838400  1
  Fe  Fe9  1  0.69796700  0.70885500  0.93838400  1
  Fe  Fe10  1  0.65976000  0.46080000  0.81507000  1
  Fe  Fe11  1  0.65976000  0.03920000  0.31507000  1
  Fe  Fe12  1  0.84024000  0.53920000  0.31507000  1
  Fe  Fe13  1  0.84024000  0.96080000  0.81507000  1
  Fe  Fe14  1  0.80203300  0.29114500  0.43838400  1
  Fe  Fe15  1  0.80203300  0.20885500  0.93838400  1
  O  O0  1  0.16558400  0.28350300  0.44595900  1
  O  O1  1  0.16558400  0.21649700  0.94595900  1
  O  O2  1  0.18072500  0.48057200  0.30290000  1
  O  O3  1  0.18072500  0.01942800  0.80290000  1
  O  O4  1  0.19994600  0.46065800  0.07007700  1
  O  O5  1  0.19994600  0.03934200  0.57007700  1
  O  O6  1  0.32971100  0.71630900  0.17969800  1
  O  O7  1  0.32971100  0.78369100  0.67969800  1
  O  O8  1  0.17028900  0.28369100  0.67969800  1
  O  O9  1  0.17028900  0.21630900  0.17969800  1
  O  O10  1  0.30005400  0.96065800  0.07007700  1
  O  O11  1  0.30005400  0.53934200  0.57007700  1
  O  O12  1  0.31927500  0.51942800  0.80290000  1
  O  O13  1  0.31927500  0.98057200  0.30290000  1
  O  O14  1  0.33441600  0.78350300  0.44595900  1
  O  O15  1  0.33441600  0.71649700  0.94595900  1
  O  O16  1  0.66558400  0.28350300  0.05404100  1
  O  O17  1  0.66558400  0.21649700  0.55404100  1
  O  O18  1  0.68072500  0.01942800  0.69710000  1
  O  O19  1  0.68072500  0.48057200  0.19710000  1
  O  O20  1  0.69994600  0.03934200  0.92992300  1
  O  O21  1  0.69994600  0.46065800  0.42992300  1
  O  O22  1  0.82971100  0.71630900  0.32030200  1
  O  O23  1  0.82971100  0.78369100  0.82030200  1
  O  O24  1  0.67028900  0.21630900  0.32030200  1
  O  O25  1  0.67028900  0.28369100  0.82030200  1
  O  O26  1  0.80005400  0.53934200  0.92992300  1
  O  O27  1  0.80005400  0.96065800  0.42992300  1
  O  O28  1  0.81927500  0.51942800  0.69710000  1
  O  O29  1  0.81927500  0.98057200  0.19710000  1
  O  O30  1  0.83441600  0.71649700  0.55404100  1
  O  O31  1  0.83441600  0.78350300  0.05404100  1
loop_
_geom_bond_atom_site_label_1
_geom_bond_atom_site_label_2
_geom_bond_distance
_geom_bond_site_symmetry_2
Li0 O6 1.983960 1_555
Li0 O14 2.002411 1_555
Li0 O22 2.116092 1_455
Li0 O13 2.179476 1_555
Li1 O7 1.983960 1_555
Li1 O15 2.002411 1_555
Li1 O23 2.116092 1_455
Li1 O12 2.179476 1_555
Li2 O11 1.968607 1_555
Li2 O2 1.985208 1_555
Li2 O21 2.024994 1_555
Li2 O0 2.049299 1_555
Li3 O10 1.968607 1_546
Li3 O3 1.985208 1_555
Li3 O20 2.024994 1_555
Li3 O1 2.049299 1_555
Li4 O5 1.968607 1_565
Li4 O13 1.985208 1_555
Li4 O27 2.024994 1_455
Li4 O14 2.049299 1_555
Li5 O4 1.968607 1_556
Li5 O12 1.985208 1_555
Li5 O26 2.024994 1_455
Li5 O15 2.049299 1_555
Li6 O9 1.983960 1_555
Li6 O0 2.002411 1_555
Li6 O24 2.116092 1_555
Li6 O2 2.179476 1_555
Li7 O8 1.983960 1_555
Li7 O1 2.002411 1_555
Li7 O25 2.116092 1_555
Li7 O3 2.179476 1_555
Li8 O22 1.983960 1_555
Li8 O31 2.002411 1_555
Li8 O6 2.116092 1_555
Li8 O29 2.179476 1_555
Li9 O23 1.983960 1_555
Li9 O30 2.002411 1_555
Li9 O7 2.116092 1_555
Li9 O28 2.179476 1_555
Li10 O26 1.968607 1_554
Li10 O19 1.985208 1_555
Li10 O4 2.024994 1_655
Li10 O16 2.049299 1_555
Li11 O27 1.968607 1_545
Li11 O18 1.985208 1_555
Li11 O5 2.024994 1_655
Li11 O17 2.049299 1_555
Li12 O20 1.968607 1_564
Li12 O29 1.985208 1_555
Li12 O10 2.024994 1_555
Li12 O31 2.049299 1_555
Li13 O21 1.968607 1_555
Li13 O28 1.985208 1_555
Li13 O11 2.024994 1_555
Li13 O30 2.049299 1_555
Li14 O24 1.983960 1_555
Li14 O16 2.002411 1_555
Li14 O9 2.116092 1_655
Li14 O19 2.179476 1_555
Li15 O25 1.983960 1_555
Li15 O17 2.002411 1_555
Li15 O8 2.116092 1_655
Li15 O18 2.179476 1_555
Fe0 O15 1.896284 1_554
Fe0 O10 1.908649 1_555
Fe0 O6 1.915040 1_555
Fe0 O31 1.916030 1_455
Fe1 O14 1.896284 1_555
Fe1 O11 1.908649 1_555
Fe1 O7 1.915040 1_555
Fe1 O30 1.916030 1_455
Fe2 O29 1.905696 1_445
Fe2 O13 1.906465 1_545
Fe2 O9 1.912080 1_555
Fe2 O10 1.913368 1_545
Fe3 O28 1.905696 1_455
Fe3 O12 1.906465 1_555
Fe3 O8 1.912080 1_555
Fe3 O11 1.913368 1_555
Fe4 O19 1.905696 1_555
Fe4 O2 1.906465 1_555
Fe4 O6 1.912080 1_555
Fe4 O4 1.913368 1_555
Fe5 O18 1.905696 1_565
Fe5 O3 1.906465 1_565
Fe5 O7 1.912080 1_555
Fe5 O5 1.913368 1_565
Fe6 O1 1.896284 1_554
Fe6 O4 1.908649 1_555
Fe6 O9 1.915040 1_555
Fe6 O16 1.916030 1_555
Fe7 O0 1.896284 1_555
Fe7 O5 1.908649 1_555
Fe7 O8 1.915040 1_555
Fe7 O17 1.916030 1_555
Fe8 O30 1.896284 1_555
Fe8 O27 1.908649 1_555
Fe8 O22 1.915040 1_555
Fe8 O14 1.916030 1_555
Fe9 O31 1.896284 1_556
Fe9 O26 1.908649 1_555
Fe9 O23 1.915040 1_555
Fe9 O15 1.916030 1_555
Fe10 O12 1.905696 1_555
Fe10 O28 1.906465 1_555
Fe10 O25 1.912080 1_555
Fe10 O26 1.913368 1_555
Fe11 O13 1.905696 1_545
Fe11 O29 1.906465 1_545
Fe11 O24 1.912080 1_555
Fe11 O27 1.913368 1_545
Fe12 O2 1.905696 1_655
Fe12 O19 1.906465 1_555
Fe12 O22 1.912080 1_555
Fe12 O21 1.913368 1_555
Fe13 O3 1.905696 1_665
Fe13 O18 1.906465 1_565
Fe13 O23 1.912080 1_555
Fe13 O20 1.913368 1_565
Fe14 O17 1.896284 1_555
Fe14 O21 1.908649 1_555
Fe14 O24 1.915040 1_555
Fe14 O0 1.916030 1_655
Fe15 O16 1.896284 1_556
Fe15 O20 1.908649 1_555
Fe15 O25 1.915040 1_555
Fe15 O1 1.916030 1_655
