# generated using pymatgen
data_Th3Au4
_symmetry_space_group_name_H-M   'P 1'
_cell_length_a   6.28485254
_cell_length_b   8.24252355
_cell_length_c   8.24481303
_cell_angle_alpha   113.81207409
_cell_angle_beta   104.70903174
_cell_angle_gamma   104.72624682
_symmetry_Int_Tables_number   1
_chemical_formula_structural   Th3Au4
_chemical_formula_sum   'Th6 Au8'
_cell_volume   345.87417579
_cell_formula_units_Z   2
loop_
 _symmetry_equiv_pos_site_id
 _symmetry_equiv_pos_as_xyz
  1  'x, y, z'
loop_
 _atom_site_type_symbol
 _atom_site_label
 _atom_site_symmetry_multiplicity
 _atom_site_fract_x
 _atom_site_fract_y
 _atom_site_fract_z
 _atom_site_occupancy
  Th  Th0  1  0.40414209  0.37612256  0.11996643  1
  Th  Th1  1  0.28386352  0.87997097  0.25621699  1
  Th  Th2  1  0.97213070  0.25597869  0.37613548  1
  Th  Th3  1  0.02787030  0.74402131  0.62386452  1
  Th  Th4  1  0.71613648  0.12002903  0.74378401  1
  Th  Th5  1  0.59585791  0.62387744  0.88003357  1
  Au  Au0  1  -0.00000000  -0.00000000  0.00000000  1
  Au  Au1  1  0.50000000  -0.00000000  0.00000000  1
  Au  Au2  1  0.92987485  0.49730843  0.16129780  1
  Au  Au3  1  0.76812199  0.83827987  0.33611930  1
  Au  Au4  1  0.56785065  0.33633767  0.49722530  1
  Au  Au5  1  0.43214935  0.66366233  0.50277570  1
  Au  Au6  1  0.23187801  0.16172013  0.66388070  1
  Au  Au7  1  0.07012515  0.50269157  0.83870320  1
loop_
_geom_bond_atom_site_label_1
_geom_bond_atom_site_label_2
_geom_bond_distance
_geom_bond_site_symmetry_2
Au0 Th2 3.046292 1_455
Au0 Th3 3.046295 1_544
Au0 Th5 3.047261 1_444
Au0 Th0 3.047261 1_555
Au0 Th4 3.048795 1_454
Au0 Th1 3.048800 1_545
Au1 Th5 3.119072 1_544
Au1 Th0 3.119072 1_555
Au1 Th3 3.119978 1_544
Au1 Th2 3.119981 1_555
Au1 Th4 3.122179 1_554
Au1 Th1 3.122187 1_545
Au2 Th1 3.010909 1_655
Au2 Au7 3.019778 1_654
Au2 Th0 3.083296 1_555
Au2 Au3 3.152041 1_555
Au2 Au5 3.152866 1_655
Au2 Th2 3.168526 1_555
Au2 Th4 3.195111 1_554
Au2 Th3 3.311736 1_655
Au2 Th5 3.386389 1_554
Au2 Th0 3.428279 1_655
Au3 Th3 3.010535 1_655
Au3 Au6 3.022839 1_665
Au3 Th1 3.084035 1_555
Au3 Au5 3.153308 1_555
Au3 Th5 3.166904 1_554
Au3 Th2 3.198438 1_565
Au3 Th0 3.307225 1_555
Au3 Th4 3.381957 1_565
Au3 Th1 3.429194 1_655
Au4 Th5 3.012512 1_555
Au4 Au5 3.016377 1_555
Au4 Th2 3.082394 1_555
Au4 Au7 3.152866 1_655
Au4 Au6 3.153302 1_555
Au4 Th1 3.167630 1_545
Au4 Th0 3.195450 1_555
Au4 Th4 3.314978 1_555
Au4 Th3 3.381646 1_655
Au4 Th2 3.429309 1_455
Au5 Th0 3.012517 1_555
Au5 Th3 3.082384 1_555
Au5 Th4 3.167630 1_565
Au5 Th5 3.195442 1_555
Au5 Th1 3.314978 1_555
Au5 Th2 3.381641 1_455
Au5 Th3 3.429315 1_655
Au6 Th2 3.010533 1_455
Au6 Th4 3.084035 1_555
Au6 Au7 3.152042 1_555
Au6 Th0 3.166904 1_556
Au6 Th3 3.198438 1_545
Au6 Th5 3.307225 1_555
Au6 Th1 3.381950 1_545
Au6 Th4 3.429198 1_455
Au7 Th4 3.010909 1_455
Au7 Th5 3.083299 1_555
Au7 Th3 3.168532 1_555
Au7 Th1 3.195111 1_556
Au7 Th2 3.311745 1_455
Au7 Th0 3.386383 1_556
Au7 Th5 3.428278 1_455
