# generated using pymatgen
data_Li5Co2(SiO5)2
_symmetry_space_group_name_H-M   'P 1'
_cell_length_a   5.51249300
_cell_length_b   4.92931900
_cell_length_c   16.59887204
_cell_angle_alpha   73.07511508
_cell_angle_beta   90.00000000
_cell_angle_gamma   90.00000000
_symmetry_Int_Tables_number   1
_chemical_formula_structural   Li5Co2(SiO5)2
_chemical_formula_sum   'Li10 Co4 Si4 O20'
_cell_volume   431.50271407
_cell_formula_units_Z   2
loop_
 _symmetry_equiv_pos_site_id
 _symmetry_equiv_pos_as_xyz
  1  'x, y, z'
loop_
 _atom_site_type_symbol
 _atom_site_label
 _atom_site_symmetry_multiplicity
 _atom_site_fract_x
 _atom_site_fract_y
 _atom_site_fract_z
 _atom_site_occupancy
  Li  Li0  1  0.58047100  0.59297000  0.40740200  1
  Li  Li1  1  0.08298100  0.90349100  0.09480000  1
  Li  Li2  1  0.57447600  0.20620100  0.80298000  1
  Li  Li3  1  0.58904600  0.00622900  0.99586800  1
  Li  Li4  1  0.08850500  0.48865200  0.50708700  1
  Li  Li5  1  0.91701900  0.90349100  0.59480000  1
  Li  Li6  1  0.41952900  0.59297000  0.90740200  1
  Li  Li7  1  0.42552400  0.20620100  0.30298000  1
  Li  Li8  1  0.91149500  0.48865200  0.00708700  1
  Li  Li9  1  0.41095400  0.00622900  0.49586800  1
  Co  Co0  1  0.92159800  0.69988800  0.79911400  1
  Co  Co1  1  0.42627200  0.80210800  0.69690100  1
  Co  Co2  1  0.07840200  0.69988800  0.29911400  1
  Co  Co3  1  0.57372800  0.80210800  0.19690100  1
  Si  Si0  1  0.08503400  0.10438900  0.90425700  1
  Si  Si1  1  0.58669800  0.41696400  0.59576300  1
  Si  Si2  1  0.91496600  0.10438900  0.40425700  1
  Si  Si3  1  0.41330200  0.41696400  0.09576300  1
  O  O0  1  0.91032900  0.85931200  0.20505400  1
  O  O1  1  0.39764600  0.80383200  0.29603700  1
  O  O2  1  0.86370900  0.52272000  0.58839000  1
  O  O3  1  0.36791500  0.20209600  0.89925900  1
  O  O4  1  0.93798200  0.10921100  0.98790600  1
  O  O5  1  0.42506300  0.58670600  0.51472000  1
  O  O6  1  0.92485600  0.31288700  0.82259600  1
  O  O7  1  0.47394400  0.44269900  0.68798800  1
  O  O8  1  0.92995700  0.77642100  0.39040100  1
  O  O9  1  0.43183300  0.06637900  0.10632500  1
  O  O10  1  0.60235400  0.80383200  0.79603700  1
  O  O11  1  0.08967100  0.85931200  0.70505400  1
  O  O12  1  0.63208500  0.20209600  0.39925900  1
  O  O13  1  0.13629100  0.52272000  0.08839000  1
  O  O14  1  0.06201800  0.10921100  0.48790600  1
  O  O15  1  0.57493700  0.58670600  0.01472000  1
  O  O16  1  0.07514400  0.31288700  0.32259600  1
  O  O17  1  0.52605600  0.44269900  0.18798800  1
  O  O18  1  0.07004300  0.77642100  0.89040100  1
  O  O19  1  0.56816700  0.06637900  0.60632500  1
loop_
_geom_bond_atom_site_label_1
_geom_bond_atom_site_label_2
_geom_bond_distance
_geom_bond_site_symmetry_2
Li0 O5 1.968775 1_555
Li0 O12 1.990776 1_555
Li0 O1 2.096295 1_555
Li0 O8 2.111953 1_555
Li1 O13 1.933098 1_555
Li1 O4 1.941088 1_464
Li1 O0 2.017531 1_455
Li1 O9 2.113958 1_565
Li2 O3 1.957585 1_555
Li2 O7 2.003462 1_555
Li2 O10 2.025804 1_545
Li2 O6 2.052520 1_555
Li3 O4 1.983929 1_555
Li3 O15 2.000917 1_546
Li3 O3 2.021923 1_555
Li3 O9 2.125339 1_556
Li4 O2 1.875364 1_455
Li4 O5 1.930639 1_555
Li4 O14 1.991921 1_555
Li4 O8 2.219860 1_455
Li5 O2 1.933098 1_555
Li5 O14 1.941088 1_665
Li5 O11 2.017531 1_655
Li5 O19 2.113958 1_565
Li6 O15 1.968775 1_556
Li6 O3 1.990776 1_555
Li6 O10 2.096295 1_555
Li6 O18 2.111953 1_555
Li7 O12 1.957585 1_555
Li7 O17 2.003462 1_555
Li7 O1 2.025804 1_545
Li7 O16 2.052520 1_555
Li8 O13 1.875364 1_655
Li8 O15 1.930639 1_555
Li8 O4 1.991921 1_554
Li8 O18 2.219860 1_654
Li9 O14 1.983929 1_555
Li9 O5 2.000917 1_545
Li9 O12 2.021923 1_555
Li9 O19 2.125339 1_555
Co0 O11 1.788638 1_655
Co0 O10 1.829454 1_555
Co0 O6 1.832609 1_555
Co0 O18 1.854936 1_655
Co1 O7 1.839095 1_555
Co1 O19 1.851719 1_565
Co1 O11 1.887581 1_555
Co1 O10 1.912642 1_555
Co2 O0 1.788638 1_455
Co2 O1 1.829454 1_555
Co2 O16 1.832609 1_555
Co2 O8 1.854936 1_455
Co3 O17 1.839095 1_555
Co3 O9 1.851719 1_565
Co3 O0 1.887581 1_555
Co3 O1 1.912642 1_555
O2 Si1 1.606669 1_555
O3 Si0 1.627037 1_555
O4 Si0 1.613928 1_655
O5 Si1 1.627350 1_555
O6 Si0 1.691788 1_655
O7 Si1 1.690838 1_555
O8 Si2 1.699941 1_565
O9 Si3 1.688566 1_555
O12 Si2 1.627037 1_555
O13 Si3 1.606669 1_555
O14 Si2 1.613928 1_455
O15 Si3 1.627350 1_555
O16 Si2 1.691788 1_455
O17 Si3 1.690838 1_555
O18 Si0 1.699941 1_565
O19 Si1 1.688566 1_555
