# generated using pymatgen
data_AgGeO3
_symmetry_space_group_name_H-M   'P 1'
_cell_length_a   10.32307400
_cell_length_b   9.27341100
_cell_length_c   12.64699400
_cell_angle_alpha   90.00000000
_cell_angle_beta   90.00000000
_cell_angle_gamma   90.00000000
_symmetry_Int_Tables_number   1
_chemical_formula_structural   AgGeO3
_chemical_formula_sum   'Ag16 Ge16 O48'
_cell_volume   1210.69810131
_cell_formula_units_Z   16
loop_
 _symmetry_equiv_pos_site_id
 _symmetry_equiv_pos_as_xyz
  1  'x, y, z'
loop_
 _atom_site_type_symbol
 _atom_site_label
 _atom_site_symmetry_multiplicity
 _atom_site_fract_x
 _atom_site_fract_y
 _atom_site_fract_z
 _atom_site_occupancy
  Ag  Ag0  1  0.00000000  0.00000000  0.00000000  1
  Ag  Ag1  1  0.00000000  0.00000000  0.25321900  1
  Ag  Ag2  1  0.00000000  0.50000000  0.00000000  1
  Ag  Ag3  1  0.00000000  0.00000000  0.50000000  1
  Ag  Ag4  1  0.00000000  0.50000000  0.24895600  1
  Ag  Ag5  1  0.00000000  0.00000000  0.74678100  1
  Ag  Ag6  1  0.00000000  0.50000000  0.50000000  1
  Ag  Ag7  1  0.00000000  0.50000000  0.75104400  1
  Ag  Ag8  1  0.50000000  0.00000000  0.00000000  1
  Ag  Ag9  1  0.50000000  0.00000000  0.24895600  1
  Ag  Ag10  1  0.50000000  0.00000000  0.50000000  1
  Ag  Ag11  1  0.50000000  0.50000000  0.00000000  1
  Ag  Ag12  1  0.50000000  0.50000000  0.25321900  1
  Ag  Ag13  1  0.50000000  0.50000000  0.50000000  1
  Ag  Ag14  1  0.50000000  0.00000000  0.75104400  1
  Ag  Ag15  1  0.50000000  0.50000000  0.74678100  1
  Ge  Ge0  1  0.20446200  0.75183800  0.12521900  1
  Ge  Ge1  1  0.20446200  0.75183800  0.87478100  1
  Ge  Ge2  1  0.20593700  0.75177600  0.37510100  1
  Ge  Ge3  1  0.20593700  0.75177600  0.62489900  1
  Ge  Ge4  1  0.29406300  0.25177600  0.37510100  1
  Ge  Ge5  1  0.29406300  0.25177600  0.62489900  1
  Ge  Ge6  1  0.29553800  0.25183800  0.12521900  1
  Ge  Ge7  1  0.29553800  0.25183800  0.87478100  1
  Ge  Ge8  1  0.70446200  0.74816200  0.12521900  1
  Ge  Ge9  1  0.70446200  0.74816200  0.87478100  1
  Ge  Ge10  1  0.70593700  0.74822400  0.37510100  1
  Ge  Ge11  1  0.70593700  0.74822400  0.62489900  1
  Ge  Ge12  1  0.79406300  0.24822400  0.37510100  1
  Ge  Ge13  1  0.79406300  0.24822400  0.62489900  1
  Ge  Ge14  1  0.79553800  0.24816200  0.12521900  1
  Ge  Ge15  1  0.79553800  0.24816200  0.87478100  1
  O  O0  1  0.10384700  0.59841800  0.37422400  1
  O  O1  1  0.10384700  0.59841800  0.62577600  1
  O  O2  1  0.10838200  0.91025800  0.12643200  1
  O  O3  1  0.10838200  0.91025800  0.87356800  1
  O  O4  1  0.11071500  0.59184800  0.12473800  1
  O  O5  1  0.11071500  0.59184800  0.87526200  1
  O  O6  1  0.11907600  0.91674000  0.37658100  1
  O  O7  1  0.11907600  0.91674000  0.62341900  1
  O  O8  1  0.20353100  0.24628400  0.50000000  1
  O  O9  1  0.20572100  0.25331800  0.00000000  1
  O  O10  1  0.20431500  0.25091900  0.24979300  1
  O  O11  1  0.20431500  0.25091900  0.75020700  1
  O  O12  1  0.29568500  0.75091900  0.24979300  1
  O  O13  1  0.29568500  0.75091900  0.75020700  1
  O  O14  1  0.29427900  0.75331800  0.00000000  1
  O  O15  1  0.29646900  0.74628400  0.50000000  1
  O  O16  1  0.38092400  0.41674000  0.37658100  1
  O  O17  1  0.38092400  0.41674000  0.62341900  1
  O  O18  1  0.38928500  0.09184800  0.12473800  1
  O  O19  1  0.38928500  0.09184800  0.87526200  1
  O  O20  1  0.39161800  0.41025800  0.12643200  1
  O  O21  1  0.39161800  0.41025800  0.87356800  1
  O  O22  1  0.39615300  0.09841800  0.37422400  1
  O  O23  1  0.39615300  0.09841800  0.62577600  1
  O  O24  1  0.60384700  0.90158200  0.37422400  1
  O  O25  1  0.60384700  0.90158200  0.62577600  1
  O  O26  1  0.60838200  0.58974200  0.12643200  1
  O  O27  1  0.60838200  0.58974200  0.87356800  1
  O  O28  1  0.61071500  0.90815200  0.12473800  1
  O  O29  1  0.61071500  0.90815200  0.87526200  1
  O  O30  1  0.61907600  0.58326000  0.37658100  1
  O  O31  1  0.61907600  0.58326000  0.62341900  1
  O  O32  1  0.70353100  0.25371600  0.50000000  1
  O  O33  1  0.70572100  0.24668200  0.00000000  1
  O  O34  1  0.70431500  0.24908100  0.24979300  1
  O  O35  1  0.70431500  0.24908100  0.75020700  1
  O  O36  1  0.79568500  0.74908100  0.24979300  1
  O  O37  1  0.79568500  0.74908100  0.75020700  1
  O  O38  1  0.79427900  0.74668200  0.00000000  1
  O  O39  1  0.79646900  0.75371600  0.50000000  1
  O  O40  1  0.88092400  0.08326000  0.37658100  1
  O  O41  1  0.88092400  0.08326000  0.62341900  1
  O  O42  1  0.88928500  0.40815200  0.12473800  1
  O  O43  1  0.88928500  0.40815200  0.87526200  1
  O  O44  1  0.89161800  0.08974200  0.12643200  1
  O  O45  1  0.89161800  0.08974200  0.87356800  1
  O  O46  1  0.89615300  0.40158200  0.37422400  1
  O  O47  1  0.89615300  0.40158200  0.62577600  1
loop_
_geom_bond_atom_site_label_1
_geom_bond_atom_site_label_2
_geom_bond_distance
_geom_bond_site_symmetry_2
Ag0 O2 2.121586 1_545
Ag0 O3 2.121586 1_544
Ag0 O44 2.121586 1_455
Ag0 O45 2.121586 1_454
Ag1 O2 2.124971 1_545
Ag1 O44 2.124971 1_455
Ag1 O6 2.131020 1_545
Ag1 O40 2.131020 1_455
Ag2 O4 2.126130 1_555
Ag2 O42 2.126130 1_455
Ag2 O5 2.126130 1_554
Ag2 O43 2.126130 1_454
Ag3 O7 2.131548 1_545
Ag3 O6 2.131548 1_545
Ag3 O41 2.131548 1_455
Ag3 O40 2.131548 1_455
Ag4 O0 2.119454 1_555
Ag4 O46 2.119454 1_455
Ag4 O4 2.121255 1_555
Ag4 O42 2.121255 1_455
Ag5 O3 2.124971 1_545
Ag5 O45 2.124971 1_455
Ag5 O7 2.131020 1_545
Ag5 O41 2.131020 1_455
Ag6 O46 2.124261 1_455
Ag6 O47 2.124261 1_455
Ag6 O1 2.124261 1_555
Ag6 O0 2.124261 1_555
Ag7 O1 2.119454 1_555
Ag7 O47 2.119454 1_455
Ag7 O5 2.121255 1_555
Ag7 O43 2.121255 1_455
Ag8 O28 2.126130 1_545
Ag8 O18 2.126130 1_555
Ag8 O29 2.126130 1_544
Ag8 O19 2.126130 1_554
Ag9 O22 2.119454 1_555
Ag9 O24 2.119454 1_545
Ag9 O28 2.121255 1_545
Ag9 O18 2.121255 1_555
Ag10 O22 2.124261 1_555
Ag10 O23 2.124261 1_555
Ag10 O25 2.124261 1_545
Ag10 O24 2.124261 1_545
Ag11 O26 2.121586 1_555
Ag11 O27 2.121586 1_554
Ag11 O20 2.121586 1_555
Ag11 O21 2.121586 1_554
Ag12 O26 2.124971 1_555
Ag12 O20 2.124971 1_555
Ag12 O30 2.131020 1_555
Ag12 O16 2.131020 1_555
Ag13 O31 2.131548 1_555
Ag13 O30 2.131548 1_555
Ag13 O17 2.131548 1_555
Ag13 O16 2.131548 1_555
Ag14 O23 2.119454 1_555
Ag14 O25 2.119454 1_545
Ag14 O19 2.121255 1_555
Ag14 O29 2.121255 1_545
Ag15 O27 2.124971 1_555
Ag15 O21 2.124971 1_555
Ag15 O17 2.131020 1_555
Ag15 O31 2.131020 1_555
Ge0 O4 1.771389 1_555
Ge0 O2 1.772631 1_555
Ge0 O14 1.835155 1_555
Ge0 O12 1.835493 1_555
Ge1 O5 1.771389 1_555
Ge1 O3 1.772631 1_555
Ge1 O14 1.835155 1_556
Ge1 O13 1.835493 1_555
Ge2 O0 1.770115 1_555
Ge2 O6 1.773301 1_555
Ge2 O12 1.835733 1_555
Ge2 O15 1.836066 1_555
Ge3 O1 1.770115 1_555
Ge3 O7 1.773301 1_555
Ge3 O13 1.835733 1_555
Ge3 O15 1.836066 1_555
Ge4 O22 1.770115 1_555
Ge4 O16 1.773301 1_555
Ge4 O10 1.835733 1_555
Ge4 O8 1.836066 1_555
Ge5 O23 1.770115 1_555
Ge5 O17 1.773301 1_555
Ge5 O11 1.835733 1_555
Ge5 O8 1.836066 1_555
Ge6 O18 1.771389 1_555
Ge6 O20 1.772631 1_555
Ge6 O9 1.835155 1_555
Ge6 O10 1.835493 1_555
Ge7 O19 1.771389 1_555
Ge7 O21 1.772631 1_555
Ge7 O9 1.835155 1_556
Ge7 O11 1.835493 1_555
Ge8 O28 1.771389 1_555
Ge8 O26 1.772631 1_555
Ge8 O38 1.835155 1_555
Ge8 O36 1.835493 1_555
Ge9 O29 1.771389 1_555
Ge9 O27 1.772631 1_555
Ge9 O38 1.835155 1_556
Ge9 O37 1.835493 1_555
Ge10 O24 1.770115 1_555
Ge10 O30 1.773301 1_555
Ge10 O36 1.835733 1_555
Ge10 O39 1.836066 1_555
Ge11 O25 1.770115 1_555
Ge11 O31 1.773301 1_555
Ge11 O37 1.835733 1_555
Ge11 O39 1.836066 1_555
Ge12 O46 1.770115 1_555
Ge12 O40 1.773301 1_555
Ge12 O34 1.835733 1_555
Ge12 O32 1.836066 1_555
Ge13 O47 1.770115 1_555
Ge13 O41 1.773301 1_555
Ge13 O35 1.835733 1_555
Ge13 O32 1.836066 1_555
Ge14 O42 1.771389 1_555
Ge14 O44 1.772631 1_555
Ge14 O33 1.835155 1_555
Ge14 O34 1.835493 1_555
Ge15 O43 1.771389 1_555
Ge15 O45 1.772631 1_555
Ge15 O33 1.835155 1_556
Ge15 O35 1.835493 1_555
