# generated using pymatgen
data_Co3P2O9
_symmetry_space_group_name_H-M   'P 1'
_cell_length_a   8.04392200
_cell_length_b   9.37753900
_cell_length_c   11.71730320
_cell_angle_alpha   68.41397818
_cell_angle_beta   90.00000000
_cell_angle_gamma   90.00000000
_symmetry_Int_Tables_number   1
_chemical_formula_structural   Co3P2O9
_chemical_formula_sum   'Co12 P8 O36'
_cell_volume   821.87333666
_cell_formula_units_Z   4
loop_
 _symmetry_equiv_pos_site_id
 _symmetry_equiv_pos_as_xyz
  1  'x, y, z'
loop_
 _atom_site_type_symbol
 _atom_site_label
 _atom_site_symmetry_multiplicity
 _atom_site_fract_x
 _atom_site_fract_y
 _atom_site_fract_z
 _atom_site_occupancy
  Co  Co0  1  0.70855200  0.85418400  0.32961800  1
  Co  Co1  1  0.20855200  0.64581600  0.67038200  1
  Co  Co2  1  0.29144800  0.14581600  0.67038200  1
  Co  Co3  1  0.79144800  0.35418400  0.32961800  1
  Co  Co4  1  0.24430000  0.19012700  0.08417700  1
  Co  Co5  1  0.74430000  0.30987300  0.91582300  1
  Co  Co6  1  0.75570000  0.80987300  0.91582300  1
  Co  Co7  1  0.25570000  0.69012700  0.08417700  1
  Co  Co8  1  0.31948200  0.03791300  0.42658800  1
  Co  Co9  1  0.81948200  0.46208700  0.57341200  1
  Co  Co10  1  0.68051800  0.96208700  0.57341200  1
  Co  Co11  1  0.18051800  0.53791300  0.42658800  1
  P  P0  1  0.01062500  0.37367300  0.84899800  1
  P  P1  1  0.51062500  0.12632700  0.15100200  1
  P  P2  1  0.98937500  0.62632700  0.15100200  1
  P  P3  1  0.48937500  0.87367300  0.84899800  1
  P  P4  1  0.49060900  0.69717600  0.49499600  1
  P  P5  1  0.99060900  0.80282400  0.50500400  1
  P  P6  1  0.50939100  0.30282400  0.50500400  1
  P  P7  1  0.00939100  0.19717600  0.49499600  1
  O  O0  1  0.09252600  0.53046300  0.81958000  1
  O  O1  1  0.59252600  0.96953700  0.18042000  1
  O  O2  1  0.90747400  0.46953700  0.18042000  1
  O  O3  1  0.40747400  0.03046300  0.81958000  1
  O  O4  1  0.41830600  0.14887600  0.25840400  1
  O  O5  1  0.91830600  0.35112400  0.74159600  1
  O  O6  1  0.58169400  0.85112400  0.74159600  1
  O  O7  1  0.08169400  0.64887600  0.25840400  1
  O  O8  1  0.61691100  0.26150900  0.07204700  1
  O  O9  1  0.11691100  0.23849100  0.92795300  1
  O  O10  1  0.38308900  0.73849100  0.92795300  1
  O  O11  1  0.88308900  0.76150900  0.07204700  1
  O  O12  1  0.26596800  0.41011000  0.04906100  1
  O  O13  1  0.76596800  0.08989000  0.95093900  1
  O  O14  1  0.73403200  0.58989000  0.95093900  1
  O  O15  1  0.23403200  0.91011000  0.04906100  1
  O  O16  1  0.17022000  0.85416000  0.52982900  1
  O  O17  1  0.67022000  0.64584000  0.47017100  1
  O  O18  1  0.82978000  0.14584000  0.47017100  1
  O  O19  1  0.32978000  0.35416000  0.52982900  1
  O  O20  1  0.43424600  0.61793000  0.62898700  1
  O  O21  1  0.93424600  0.88207000  0.37101300  1
  O  O22  1  0.56575400  0.38207000  0.37101300  1
  O  O23  1  0.06575400  0.11793000  0.62898700  1
  O  O24  1  0.52326000  0.87698800  0.46249500  1
  O  O25  1  0.02326000  0.62301200  0.53750500  1
  O  O26  1  0.47674000  0.12301200  0.53750500  1
  O  O27  1  0.97674000  0.37698800  0.46249500  1
  O  O28  1  0.36994500  0.68012200  0.40008000  1
  O  O29  1  0.86994500  0.81987800  0.59992000  1
  O  O30  1  0.63005500  0.31987800  0.59992000  1
  O  O31  1  0.13005500  0.18012200  0.40008000  1
  O  O32  1  0.23029300  0.97161500  0.13574400  1
  O  O33  1  0.73029300  0.52838500  0.86425600  1
  O  O34  1  0.76970700  0.02838500  0.86425600  1
  O  O35  1  0.26970700  0.47161500  0.13574400  1
loop_
_geom_bond_atom_site_label_1
_geom_bond_atom_site_label_2
_geom_bond_distance
_geom_bond_site_symmetry_2
Co0 O21 1.921688 1_555
Co0 O1 1.925083 1_555
Co0 O17 2.063247 1_555
Co0 O24 2.221790 1_555
Co1 O20 1.921688 1_555
Co1 O0 1.925083 1_555
Co1 O16 2.063247 1_555
Co1 O25 2.221790 1_555
Co2 O23 1.921688 1_555
Co2 O3 1.925083 1_555
Co2 O19 2.063247 1_555
Co2 O26 2.221790 1_555
Co3 O22 1.921688 1_555
Co3 O2 1.925083 1_555
Co3 O18 2.063247 1_555
Co3 O27 2.221790 1_555
Co4 O32 1.914578 1_545
Co4 O12 1.957213 1_555
Co4 O9 1.998918 1_554
Co4 P1 2.283812 1_555
Co4 O4 2.386485 1_555
Co5 O33 1.914578 1_555
Co5 O13 1.957213 1_555
Co5 O8 1.998918 1_556
Co5 P0 2.283812 1_655
Co5 O5 2.386485 1_555
Co6 O34 1.914578 1_565
Co6 O14 1.957213 1_555
Co6 O11 1.998918 1_556
Co6 P3 2.283812 1_555
Co6 O6 2.386485 1_555
Co7 O35 1.914578 1_555
Co7 O15 1.957213 1_555
Co7 O10 1.998918 1_554
Co7 P2 2.283812 1_455
Co7 O7 2.386485 1_555
Co8 O31 1.972785 1_555
Co8 O4 2.022221 1_555
Co8 O16 2.083371 1_545
Co8 O24 2.161958 1_545
Co8 O26 2.165456 1_555
Co9 O30 1.972785 1_555
Co9 O5 2.022221 1_555
Co9 O17 2.083371 1_555
Co9 O25 2.161958 1_655
Co9 O27 2.165456 1_555
Co10 O29 1.972785 1_555
Co10 O6 2.022221 1_555
Co10 O18 2.083371 1_565
Co10 O26 2.161958 1_565
Co10 O24 2.165456 1_555
Co11 O28 1.972785 1_555
Co11 O7 2.022221 1_555
Co11 O19 2.083371 1_555
Co11 O27 2.161958 1_455
Co11 O25 2.165456 1_555
O0 P0 1.530270 1_555
O1 P1 1.530270 1_565
O2 P2 1.530270 1_555
O3 P3 1.530270 1_545
O4 P1 1.541332 1_555
O5 P0 1.541332 1_655
O6 P3 1.541332 1_555
O7 P2 1.541332 1_455
O8 P1 1.526732 1_555
O9 P0 1.526732 1_555
O10 P3 1.526732 1_555
O11 P2 1.526732 1_555
O12 O35 1.340236 1_555
O13 O34 1.340236 1_555
O14 O33 1.340236 1_555
O15 O32 1.340236 1_555
O16 P5 1.583281 1_455
O17 P4 1.583281 1_555
O18 P7 1.583281 1_655
O19 P6 1.583281 1_555
O20 P4 1.537617 1_555
O21 P5 1.537617 1_555
O22 P6 1.537617 1_555
O23 P7 1.537617 1_555
O24 P4 1.607723 1_555
O25 P5 1.607723 1_455
O26 P6 1.607723 1_555
O27 P7 1.607723 1_655
O28 P4 1.528212 1_555
O29 P5 1.528212 1_555
O30 P6 1.528212 1_555
O31 P7 1.528212 1_555
