# generated using pymatgen
data_LaAl12O19
_symmetry_space_group_name_H-M   'P 1'
_cell_length_a   5.65191001
_cell_length_b   5.64010301
_cell_length_c   22.35889401
_cell_angle_alpha   89.99763168
_cell_angle_beta   90.00019127
_cell_angle_gamma   120.07734930
_symmetry_Int_Tables_number   1
_chemical_formula_structural   LaAl12O19
_chemical_formula_sum   'La2 Al24 O38'
_cell_volume   616.77135563
_cell_formula_units_Z   2
loop_
 _symmetry_equiv_pos_site_id
 _symmetry_equiv_pos_as_xyz
  1  'x, y, z'
loop_
 _atom_site_type_symbol
 _atom_site_label
 _atom_site_symmetry_multiplicity
 _atom_site_fract_x
 _atom_site_fract_y
 _atom_site_fract_z
 _atom_site_occupancy
  La  La0  1  0.33429700  0.66778500  0.74810800  1
  La  La1  1  0.66660700  0.33216300  0.24807900  1
  Al  Al0  1  0.16788900  0.83321800  0.60848200  1
  Al  Al1  1  0.16975200  0.83144500  0.89230200  1
  Al  Al2  1  0.33380100  0.66628200  0.19029000  1
  Al  Al3  1  0.33395100  0.66738400  0.02609400  1
  Al  Al4  1  0.33372900  0.66601800  0.31064000  1
  Al  Al5  1  0.33397300  0.66729500  0.47403000  1
  Al  Al6  1  0.00171700  0.00278700  0.76195400  1
  Al  Al7  1  0.00028800  0.00007800  0.00009900  1
  Al  Al8  1  0.99912600  0.99714600  0.26203400  1
  Al  Al9  1  0.00019200  0.99994200  0.50018700  1
  Al  Al10  1  0.16800400  0.33521200  0.60856500  1
  Al  Al11  1  0.16979200  0.33864000  0.89205600  1
  Al  Al12  1  0.66279400  0.83150900  0.89223000  1
  Al  Al13  1  0.66629000  0.83334300  0.60850700  1
  Al  Al14  1  0.33471700  0.16671300  0.10849300  1
  Al  Al15  1  0.33843200  0.16854800  0.39240400  1
  Al  Al16  1  0.83124000  0.66128700  0.39216500  1
  Al  Al17  1  0.66736200  0.33365700  0.69018400  1
  Al  Al18  1  0.66757600  0.33395900  0.81061700  1
  Al  Al19  1  0.66656600  0.33266300  0.52617300  1
  Al  Al20  1  0.66665500  0.33268200  0.97403600  1
  Al  Al21  1  0.83296000  0.66484800  0.10857100  1
  Al  Al22  1  0.83304300  0.16667100  0.10848300  1
  Al  Al23  1  0.83129500  0.16856800  0.39236300  1
  O  O0  1  0.15575000  0.84418500  0.05179500  1
  O  O1  1  0.15432000  0.84543400  0.44677100  1
  O  O2  1  0.00954100  0.50475700  0.65074500  1
  O  O3  1  0.00997100  0.50513000  0.85004300  1
  O  O4  1  0.18413300  0.82032600  0.25119300  1
  O  O5  1  0.15486200  0.30898700  0.44678900  1
  O  O6  1  0.00074500  0.00036100  0.84926700  1
  O  O7  1  0.33355500  0.66665200  0.55711800  1
  O  O8  1  0.00035100  0.99969700  0.14685000  1
  O  O9  1  0.00043100  0.99966700  0.34934900  1
  O  O10  1  0.00063200  0.00031900  0.64681400  1
  O  O11  1  0.33374000  0.66679500  0.94325700  1
  O  O12  1  0.49676800  0.99240800  0.65030500  1
  O  O13  1  0.49634900  0.99155700  0.85027600  1
  O  O14  1  0.18121400  0.36059500  0.25130400  1
  O  O15  1  0.15628100  0.31182800  0.05184400  1
  O  O16  1  0.63724500  0.81990200  0.25121400  1
  O  O17  1  0.31153200  0.15581600  0.55180100  1
  O  O18  1  0.30877300  0.15450200  0.94667900  1
  O  O19  1  0.49656600  0.50457700  0.65064000  1
  O  O20  1  0.49644200  0.50496400  0.85008300  1
  O  O21  1  0.50484000  0.49491500  0.35015300  1
  O  O22  1  0.50485100  0.49519600  0.15084100  1
  O  O23  1  0.68898500  0.84413200  0.05183200  1
  O  O24  1  0.69180800  0.84546400  0.44674200  1
  O  O25  1  0.36356800  0.17957800  0.75106500  1
  O  O26  1  0.50480400  0.00841000  0.35036800  1
  O  O27  1  0.66693800  0.33316200  0.44340700  1
  O  O28  1  0.50442900  0.00760200  0.15040300  1
  O  O29  1  0.82077800  0.63946000  0.75117700  1
  O  O30  1  0.66693200  0.33335400  0.05717700  1
  O  O31  1  0.84439300  0.68821300  0.55186400  1
  O  O32  1  0.84583500  0.69107000  0.94670200  1
  O  O33  1  0.81743000  0.18027600  0.75108400  1
  O  O34  1  0.99204200  0.49540600  0.15072500  1
  O  O35  1  0.99160100  0.49508100  0.35018500  1
  O  O36  1  0.84486400  0.15595000  0.55184400  1
  O  O37  1  0.84637700  0.15452900  0.94664300  1
loop_
_geom_bond_atom_site_label_1
_geom_bond_atom_site_label_2
_geom_bond_distance
_geom_bond_site_symmetry_2
La0 O2 2.694808 1_555
La0 O19 2.698906 1_555
La0 O12 2.700347 1_555
La0 O3 2.776788 1_555
La0 O13 2.777723 1_555
La0 O20 2.779415 1_555
La0 O25 2.808087 1_565
La0 O33 2.811482 1_565
La0 O29 2.826515 1_455
La0 O29 2.833817 1_555
La0 O33 2.836809 1_455
La0 O25 2.840827 1_555
La1 O22 2.692701 1_555
La1 O34 2.696553 1_555
La1 O28 2.697988 1_555
La1 O26 2.779777 1_555
La1 O21 2.780049 1_555
La1 O35 2.781845 1_555
La1 O4 2.807856 1_545
La1 O16 2.810579 1_545
La1 O14 2.828092 1_555
La1 O14 2.832466 1_655
La1 O16 2.838572 1_555
La1 O4 2.840586 1_655
Al0 O10 1.846488 1_565
Al0 O12 1.860896 1_555
Al0 O2 1.861148 1_555
Al0 O7 1.989971 1_555
Al0 O17 2.023599 1_565
Al0 O31 2.028695 1_455
Al1 O3 1.851961 1_555
Al1 O13 1.853347 1_555
Al1 O6 1.912593 1_565
Al1 O11 1.970290 1_555
Al1 O18 1.995167 1_565
Al1 O32 2.001253 1_455
Al2 O28 1.889533 1_565
Al2 O34 1.891181 1_455
Al2 O22 1.891785 1_555
Al2 O16 2.014516 1_555
Al2 O4 2.015312 1_555
Al2 O14 2.021584 1_555
Al3 O15 1.828338 1_555
Al3 O0 1.829129 1_555
Al3 O23 1.829336 1_555
Al3 O11 1.852146 1_554
Al4 O35 1.892538 1_455
Al4 O26 1.892549 1_565
Al4 O21 1.892750 1_555
Al4 O16 1.992248 1_555
Al4 O4 1.994111 1_555
Al4 O14 1.995587 1_555
Al5 O5 1.851838 1_555
Al5 O1 1.853225 1_555
Al5 O24 1.853439 1_555
Al5 O7 1.857758 1_555
Al6 O33 1.786378 1_455
Al6 O25 1.786650 1_555
Al6 O29 1.789589 1_445
Al6 O6 1.952258 1_555
Al7 O15 1.911497 1_555
Al7 O0 1.911917 1_545
Al7 O23 1.912071 1_445
Al7 O32 1.923568 1_444
Al7 O18 1.924297 1_554
Al7 O37 1.924464 1_454
Al8 O16 1.786558 1_555
Al8 O4 1.786605 1_655
Al8 O14 1.790011 1_665
Al8 O9 1.952306 1_655
Al9 O31 1.910412 1_455
Al9 O17 1.910644 1_565
Al9 O36 1.911362 1_465
Al9 O5 1.923638 1_565
Al9 O24 1.924294 1_455
Al9 O1 1.925008 1_555
Al10 O10 1.844678 1_555
Al10 O2 1.861317 1_555
Al10 O19 1.862253 1_555
Al10 O7 1.984892 1_555
Al10 O36 2.028650 1_455
Al10 O17 2.028660 1_555
Al11 O3 1.852085 1_555
Al11 O20 1.852882 1_555
Al11 O6 1.908228 1_555
Al11 O11 1.968730 1_555
Al11 O18 2.001203 1_555
Al11 O37 2.001635 1_455
Al12 O20 1.851630 1_555
Al12 O13 1.852254 1_555
Al12 O6 1.911734 1_665
Al12 O11 1.972728 1_555
Al12 O37 1.995331 1_565
Al12 O32 2.000573 1_555
Al13 O10 1.845980 1_665
Al13 O12 1.859548 1_555
Al13 O19 1.860897 1_555
Al13 O7 1.992136 1_555
Al13 O36 2.023254 1_565
Al13 O31 2.028116 1_555
Al14 O8 1.846573 1_545
Al14 O28 1.861772 1_555
Al14 O22 1.862273 1_555
Al14 O30 1.989078 1_555
Al14 O0 2.023653 1_545
Al14 O15 2.029414 1_555
Al15 O21 1.852000 1_555
Al15 O26 1.853291 1_555
Al15 O9 1.913013 1_545
Al15 O27 1.970267 1_555
Al15 O1 1.995151 1_545
Al15 O5 2.001576 1_555
Al16 O21 1.852310 1_555
Al16 O35 1.852816 1_555
Al16 O9 1.908881 1_655
Al16 O27 1.969058 1_555
Al16 O1 2.000715 1_655
Al16 O24 2.002453 1_555
Al17 O12 1.889216 1_545
Al17 O19 1.890919 1_555
Al17 O2 1.891650 1_655
Al17 O33 2.014255 1_555
Al17 O25 2.015093 1_555
Al17 O29 2.021778 1_555
Al18 O13 1.891796 1_545
Al18 O20 1.891976 1_555
Al18 O3 1.892481 1_655
Al18 O33 1.994098 1_555
Al18 O25 1.995966 1_555
Al18 O29 1.997328 1_555
Al19 O31 1.827945 1_555
Al19 O17 1.828539 1_555
Al19 O36 1.828934 1_555
Al19 O27 1.850558 1_555
Al20 O32 1.852839 1_555
Al20 O18 1.854188 1_555
Al20 O37 1.854626 1_555
Al20 O30 1.858944 1_556
Al21 O8 1.844868 1_655
Al21 O22 1.862557 1_555
Al21 O34 1.863127 1_555
Al21 O30 1.984506 1_555
Al21 O0 2.028109 1_655
Al21 O23 2.029456 1_555
Al22 O8 1.846485 1_645
Al22 O28 1.860834 1_555
Al22 O34 1.862086 1_555
Al22 O30 1.991422 1_555
Al22 O23 2.022923 1_545
Al22 O15 2.027893 1_655
Al23 O35 1.851771 1_555
Al23 O26 1.852574 1_555
Al23 O9 1.912883 1_645
Al23 O27 1.972740 1_555
Al23 O24 1.995129 1_545
Al23 O5 2.000206 1_655
