# generated using pymatgen
data_Be3Ru
_symmetry_space_group_name_H-M   'P 1'
_cell_length_a   4.36592531
_cell_length_b   4.36592531
_cell_length_c   4.36592531
_cell_angle_alpha   137.49501830
_cell_angle_beta   137.49501830
_cell_angle_gamma   61.67728835
_symmetry_Int_Tables_number   1
_chemical_formula_structural   Be3Ru
_chemical_formula_sum   'Be3 Ru1'
_cell_volume   37.55360844
_cell_formula_units_Z   1
loop_
 _symmetry_equiv_pos_site_id
 _symmetry_equiv_pos_as_xyz
  1  'x, y, z'
loop_
 _atom_site_type_symbol
 _atom_site_label
 _atom_site_symmetry_multiplicity
 _atom_site_fract_x
 _atom_site_fract_y
 _atom_site_fract_z
 _atom_site_occupancy
  Be  Be0  1  0.75000100  0.25000000  0.50000100  1
  Be  Be1  1  0.25000000  0.75000100  0.50000100  1
  Be  Be2  1  0.50000100  0.50000100  -0.00000000  1
  Ru  Ru0  1  -0.00000000  0.00000000  -0.00000000  1
loop_
_geom_bond_atom_site_label_1
_geom_bond_atom_site_label_2
_geom_bond_distance
_geom_bond_site_symmetry_2
Be0 Be1 2.238065 1_645
Be0 Be1 2.238070 1_656
Be0 Be1 2.238070 1_544
Be0 Be1 2.238074 1_555
Be0 Be2 2.453067 1_556
Be0 Be2 2.453067 1_545
Be0 Ru0 2.453071 1_656
Be0 Ru0 2.453073 1_655
Be0 Ru0 2.453073 1_666
Be0 Ru0 2.453075 1_555
Be0 Be2 2.453076 1_656
Be0 Be2 2.453080 1_555
Be1 Be2 2.453067 1_455
Be1 Be2 2.453067 1_556
Be1 Ru0 2.453071 1_566
Be1 Ru0 2.453073 1_565
Be1 Ru0 2.453073 1_666
Be1 Ru0 2.453075 1_555
Be1 Be2 2.453076 1_566
Be1 Be2 2.453080 1_555
Be2 Ru0 2.238070 1_554
Be2 Ru0 2.238070 1_655
Be2 Ru0 2.238070 1_666
Be2 Ru0 2.238070 1_565
