# generated using pymatgen
data_Fe10O9F11
_symmetry_space_group_name_H-M   'P 1'
_cell_length_a   4.73647716
_cell_length_b   4.73785735
_cell_length_c   15.65390750
_cell_angle_alpha   90.10669152
_cell_angle_beta   90.30268891
_cell_angle_gamma   92.77081051
_symmetry_Int_Tables_number   1
_chemical_formula_structural   Fe10O9F11
_chemical_formula_sum   'Fe10 O9 F11'
_cell_volume   350.86909881
_cell_formula_units_Z   1
loop_
 _symmetry_equiv_pos_site_id
 _symmetry_equiv_pos_as_xyz
  1  'x, y, z'
loop_
 _atom_site_type_symbol
 _atom_site_label
 _atom_site_symmetry_multiplicity
 _atom_site_fract_x
 _atom_site_fract_y
 _atom_site_fract_z
 _atom_site_occupancy
  Fe  Fe0  1  0.00882100  0.99113900  0.99260200  1
  Fe  Fe1  1  0.00543400  0.00641100  0.20017100  1
  Fe  Fe2  1  0.97922400  0.95988300  0.40764300  1
  Fe  Fe3  1  0.05347200  0.00021600  0.60147000  1
  Fe  Fe4  1  0.02330900  0.97186900  0.79818100  1
  Fe  Fe5  1  0.50403400  0.49762800  0.10207800  1
  Fe  Fe6  1  0.47452900  0.52008000  0.49683200  1
  Fe  Fe7  1  0.51480700  0.50935100  0.29130100  1
  Fe  Fe8  1  0.48071000  0.50442800  0.69595100  1
  Fe  Fe9  1  0.47495600  0.52391600  0.91415800  1
  O  O0  1  0.18911600  0.80499700  0.49758600  1
  O  O1  1  0.19626300  0.81549100  0.70191900  1
  O  O2  1  0.19014300  0.80705800  0.89862700  1
  O  O3  1  0.29864200  0.30154700  0.00522200  1
  O  O4  1  0.30382700  0.30036200  0.20216900  1
  O  O5  1  0.31359000  0.30980100  0.58939700  1
  O  O6  1  0.69904900  0.70220800  0.00520000  1
  O  O7  1  0.70917200  0.70535400  0.19973500  1
  O  O8  1  0.67820400  0.68067200  0.39540800  1
  F  F0  1  0.19658800  0.80911500  0.10290000  1
  F  F1  1  0.18895500  0.80342900  0.30079300  1
  F  F2  1  0.28559900  0.28948500  0.39382400  1
  F  F3  1  0.29852400  0.30636300  0.80834700  1
  F  F4  1  0.71040500  0.71615200  0.59210800  1
  F  F5  1  0.69117800  0.69453100  0.80662100  1
  F  F6  1  0.81168300  0.19396200  0.10212200  1
  F  F7  1  0.80035900  0.19664300  0.49700800  1
  F  F8  1  0.80648600  0.18757200  0.30162900  1
  F  F9  1  0.79996600  0.19636700  0.89681700  1
  F  F10  1  0.81295300  0.19396800  0.70217800  1
loop_
_geom_bond_atom_site_label_1
_geom_bond_atom_site_label_2
_geom_bond_distance
_geom_bond_site_symmetry_2
Fe0 O2 1.934756 1_555
Fe0 O6 1.968616 1_456
Fe0 O3 1.971586 1_566
Fe1 O4 1.935758 1_555
Fe1 O7 1.951920 1_445
Fe2 O0 1.889120 1_655
Fe2 O8 1.906121 1_555
Fe3 O5 1.879850 1_555
Fe3 O1 1.935720 1_545
Fe3 O0 1.993900 1_545
Fe4 O1 1.886331 1_555
Fe4 O2 1.938455 1_555
Fe5 O3 2.000008 1_555
Fe5 O6 2.006545 1_555
Fe5 O7 2.033688 1_555
Fe5 O4 2.040371 1_555
Fe6 O5 1.901807 1_555
Fe6 O0 1.956119 1_555
Fe6 O8 1.994997 1_555
Fe7 O7 1.923710 1_555
Fe7 O4 1.951984 1_555
Fe7 O8 1.958235 1_555
Fe8 O5 2.041763 1_555
Fe8 O1 2.046625 1_555
Fe9 O6 1.940126 1_556
Fe9 O3 1.942307 1_556
Fe9 O2 1.962456 1_555
F0 Fe1 2.025620 1_565
F0 Fe5 2.122863 1_555
F0 Fe0 2.139929 1_554
F1 Fe1 2.057540 1_565
F1 Fe2 2.101919 1_455
F1 Fe7 2.134238 1_555
F2 Fe2 2.092056 1_445
F2 Fe6 2.116164 1_555
F2 Fe7 2.180526 1_555
F3 Fe4 2.008295 1_545
F3 Fe9 2.097619 1_555
F3 Fe8 2.159803 1_555
F4 Fe6 2.052424 1_555
F4 Fe3 2.063616 1_665
F4 Fe8 2.179799 1_555
F5 Fe4 2.005431 1_655
F5 Fe9 2.116428 1_555
F5 Fe8 2.166886 1_555
F6 Fe1 2.014091 1_655
F6 Fe5 2.096657 1_555
F6 Fe0 2.198190 1_644
F7 Fe2 2.007867 1_545
F7 Fe6 2.226792 1_555
F7 Fe3 2.251710 1_655
F8 Fe1 2.058158 1_655
F8 Fe7 2.112152 1_555
F8 Fe2 2.159820 1_545
F9 Fe0 2.062770 1_645
F9 Fe4 2.180453 1_645
F9 Fe9 2.255127 1_555
F10 Fe4 2.109477 1_645
F10 Fe3 2.177254 1_655
F10 Fe8 2.207308 1_555
