# generated using pymatgen
data_Li4CrFe3O8
_symmetry_space_group_name_H-M   'P 1'
_cell_length_a   5.18541000
_cell_length_b   5.96264317
_cell_length_c   10.75287201
_cell_angle_alpha   106.08938611
_cell_angle_beta   94.55218613
_cell_angle_gamma   106.71082270
_symmetry_Int_Tables_number   1
_chemical_formula_structural   Li4CrFe3O8
_chemical_formula_sum   'Li8 Cr2 Fe6 O16'
_cell_volume   301.34767078
_cell_formula_units_Z   2
loop_
 _symmetry_equiv_pos_site_id
 _symmetry_equiv_pos_as_xyz
  1  'x, y, z'
loop_
 _atom_site_type_symbol
 _atom_site_label
 _atom_site_symmetry_multiplicity
 _atom_site_fract_x
 _atom_site_fract_y
 _atom_site_fract_z
 _atom_site_occupancy
  Li  Li0  1  0.00141700  0.43793400  0.12527300  1
  Li  Li1  1  0.99975300  0.06396200  0.87425900  1
  Li  Li2  1  0.99829300  0.81211200  0.37449100  1
  Li  Li3  1  0.00170700  0.18788800  0.62550900  1
  Li  Li4  1  0.00024700  0.93603800  0.12574100  1
  Li  Li5  1  0.99858300  0.56206600  0.87472700  1
  Li  Li6  1  0.99995700  0.31441900  0.37420300  1
  Li  Li7  1  0.00004300  0.68558100  0.62579700  1
  Cr  Cr0  1  0.50022900  0.62485700  0.25016200  1
  Cr  Cr1  1  0.49977100  0.37514300  0.74983800  1
  Fe  Fe0  1  0.49981900  0.75003700  0.00001900  1
  Fe  Fe1  1  0.49992000  0.12523500  0.24982200  1
  Fe  Fe2  1  0.50000000  0.50000000  0.50000000  1
  Fe  Fe3  1  0.50018100  0.24996300  0.99998100  1
  Fe  Fe4  1  0.50008000  0.87476500  0.75017800  1
  Fe  Fe5  1  0.50000000  0.00000000  0.50000000  1
  O  O0  1  0.27150400  0.59501600  0.56524300  1
  O  O1  1  0.72949600  0.90360200  0.43578500  1
  O  O2  1  0.26921200  0.34691400  0.06345000  1
  O  O3  1  0.73078800  0.65308600  0.93655000  1
  O  O4  1  0.72775800  0.27879800  0.68610400  1
  O  O5  1  0.27127100  0.97387900  0.81373700  1
  O  O6  1  0.27224200  0.72120200  0.31389600  1
  O  O7  1  0.72872900  0.02612100  0.18626300  1
  O  O8  1  0.27050400  0.09639800  0.56421500  1
  O  O9  1  0.72849600  0.40498400  0.43475700  1
  O  O10  1  0.27255500  0.84453500  0.06589100  1
  O  O11  1  0.72744500  0.15546500  0.93410900  1
  O  O12  1  0.27232400  0.47051900  0.81400500  1
  O  O13  1  0.27128100  0.22340400  0.31371100  1
  O  O14  1  0.72871900  0.77659600  0.68628900  1
  O  O15  1  0.72767600  0.52948100  0.18599500  1
loop_
_geom_bond_atom_site_label_1
_geom_bond_atom_site_label_2
_geom_bond_distance
_geom_bond_site_symmetry_2
Li0 O2 1.744911 1_555
Li0 O15 1.770399 1_455
Li0 O6 2.285547 1_555
Li0 O11 2.306905 1_454
Li1 O5 1.755250 1_645
Li1 O11 1.760211 1_555
Li1 O2 2.286495 1_656
Li1 O14 2.289343 1_545
Li2 O1 1.748867 1_555
Li2 O6 1.769262 1_655
Li2 O15 2.283123 1_555
Li2 O8 2.297356 1_665
Li3 O8 1.748867 1_555
Li3 O4 1.769262 1_455
Li3 O12 2.283123 1_555
Li3 O1 2.297356 1_445
Li4 O7 1.755250 1_465
Li4 O10 1.760211 1_555
Li4 O3 2.286495 1_454
Li4 O13 2.289343 1_565
Li5 O3 1.744911 1_555
Li5 O12 1.770399 1_655
Li5 O4 2.285547 1_555
Li5 O10 2.306905 1_656
Li6 O9 1.756347 1_555
Li6 O13 1.756631 1_655
Li6 O7 2.291295 1_555
Li6 O0 2.298447 1_655
Li7 O0 1.756347 1_555
Li7 O14 1.756631 1_455
Li7 O5 2.291295 1_555
Li7 O9 2.298447 1_455
Cr0 O15 1.577303 1_555
Cr0 O6 1.580585 1_555
Cr1 O12 1.577303 1_555
Cr1 O4 1.580585 1_555
Fe0 O10 1.581486 1_555
Fe0 O3 1.594865 1_554
Fe1 O13 1.589244 1_555
Fe1 O7 1.591270 1_555
Fe2 O0 1.585776 1_555
Fe2 O9 1.585776 1_555
Fe3 O11 1.581486 1_555
Fe3 O2 1.594865 1_556
Fe4 O14 1.589244 1_555
Fe4 O5 1.591270 1_555
Fe5 O8 1.589702 1_555
Fe5 O1 1.589702 1_545
