# generated using pymatgen
data_LiCu2F6
_symmetry_space_group_name_H-M   'P 1'
_cell_length_a   4.58680000
_cell_length_b   5.62066400
_cell_length_c   15.50012399
_cell_angle_alpha   80.31525978
_cell_angle_beta   90.00000000
_cell_angle_gamma   90.00000000
_symmetry_Int_Tables_number   1
_chemical_formula_structural   LiCu2F6
_chemical_formula_sum   'Li4 Cu8 F24'
_cell_volume   393.91148249
_cell_formula_units_Z   4
loop_
 _symmetry_equiv_pos_site_id
 _symmetry_equiv_pos_as_xyz
  1  'x, y, z'
loop_
 _atom_site_type_symbol
 _atom_site_label
 _atom_site_symmetry_multiplicity
 _atom_site_fract_x
 _atom_site_fract_y
 _atom_site_fract_z
 _atom_site_occupancy
  Li  Li0  1  0.50711000  0.12098800  0.07593700  1
  Li  Li1  1  0.99289000  0.12098800  0.57593700  1
  Li  Li2  1  0.00711000  0.87901200  0.42406300  1
  Li  Li3  1  0.49289000  0.87901200  0.92406300  1
  Cu  Cu0  1  0.01480900  0.24158800  0.25205700  1
  Cu  Cu1  1  0.50483300  0.38292600  0.41776200  1
  Cu  Cu2  1  0.48519100  0.24158800  0.75205700  1
  Cu  Cu3  1  0.00483300  0.61707400  0.08223800  1
  Cu  Cu4  1  0.99516700  0.38292600  0.91776200  1
  Cu  Cu5  1  0.51480900  0.75841200  0.24794300  1
  Cu  Cu6  1  0.49516700  0.61707400  0.58223800  1
  Cu  Cu7  1  0.98519100  0.75841200  0.74794300  1
  F  F0  1  0.28070500  0.03906500  0.19652800  1
  F  F1  1  0.24100900  0.17789700  0.36005400  1
  F  F2  1  0.75469600  0.13385300  0.46873600  1
  F  F3  1  0.21929500  0.03906500  0.69652800  1
  F  F4  1  0.23049200  0.38342800  0.02577600  1
  F  F5  1  0.79100400  0.33406000  0.14285700  1
  F  F6  1  0.25899100  0.17789700  0.86005400  1
  F  F7  1  0.74530400  0.13385300  0.96873600  1
  F  F8  1  0.73808000  0.45728200  0.30430200  1
  F  F9  1  0.26950800  0.38342800  0.52577600  1
  F  F10  1  0.70899600  0.33406000  0.64285700  1
  F  F11  1  0.23808000  0.54271800  0.19569800  1
  F  F12  1  0.76192000  0.45728200  0.80430200  1
  F  F13  1  0.29100400  0.66594000  0.35714300  1
  F  F14  1  0.73049200  0.61657200  0.47422400  1
  F  F15  1  0.26192000  0.54271800  0.69569800  1
  F  F16  1  0.25469600  0.86614700  0.03126400  1
  F  F17  1  0.74100900  0.82210300  0.13994600  1
  F  F18  1  0.20899600  0.66594000  0.85714300  1
  F  F19  1  0.76950800  0.61657200  0.97422400  1
  F  F20  1  0.78070500  0.96093500  0.30347200  1
  F  F21  1  0.24530400  0.86614700  0.53126400  1
  F  F22  1  0.75899100  0.82210300  0.63994600  1
  F  F23  1  0.71929500  0.96093500  0.80347200  1
loop_
_geom_bond_atom_site_label_1
_geom_bond_atom_site_label_2
_geom_bond_distance
_geom_bond_site_symmetry_2
Cu0 F1 1.950686 1_555
Cu0 F20 1.963042 1_445
Cu0 F0 1.963076 1_555
Cu0 F5 1.973042 1_455
Cu0 F8 2.016680 1_455
Cu0 F11 2.044301 1_555
Cu1 F2 1.877622 1_555
Cu1 F13 1.967825 1_555
Cu1 F1 1.984766 1_555
Cu1 F14 1.987098 1_555
Cu1 F9 1.992417 1_555
Cu1 F8 2.040784 1_555
Cu2 F6 1.950686 1_555
Cu2 F23 1.963042 1_545
Cu2 F3 1.963076 1_555
Cu2 F10 1.973042 1_555
Cu2 F12 2.016680 1_555
Cu2 F15 2.044301 1_555
Cu3 F16 1.877622 1_555
Cu3 F5 1.967825 1_455
Cu3 F17 1.984766 1_455
Cu3 F4 1.987098 1_555
Cu3 F19 1.992417 1_454
Cu3 F11 2.040784 1_555
Cu4 F7 1.877622 1_555
Cu4 F18 1.967825 1_655
Cu4 F6 1.984766 1_655
Cu4 F19 1.987098 1_555
Cu4 F4 1.992417 1_656
Cu4 F12 2.040784 1_555
Cu5 F17 1.950686 1_555
Cu5 F0 1.963042 1_565
Cu5 F20 1.963076 1_555
Cu5 F13 1.973042 1_555
Cu5 F11 2.016680 1_555
Cu5 F8 2.044301 1_555
Cu6 F21 1.877622 1_555
Cu6 F10 1.967825 1_555
Cu6 F22 1.984766 1_555
Cu6 F9 1.987098 1_555
Cu6 F14 1.992417 1_555
Cu6 F15 2.040784 1_555
Cu7 F22 1.950686 1_555
Cu7 F3 1.963042 1_665
Cu7 F23 1.963076 1_555
Cu7 F18 1.973042 1_655
Cu7 F15 2.016680 1_655
Cu7 F12 2.044301 1_555
F0 Li0 2.120069 1_555
F1 Li2 2.096843 1_545
F2 Li1 1.979766 1_555
F2 Li2 2.050686 1_645
F3 Li1 2.120069 1_455
F4 Li0 2.001087 1_555
F5 Li0 2.150297 1_555
F6 Li3 2.096843 1_545
F7 Li0 1.979766 1_556
F7 Li3 2.050686 1_545
F9 Li1 2.001087 1_455
F10 Li1 2.150297 1_555
F13 Li2 2.150297 1_555
F14 Li2 2.001087 1_655
F16 Li3 1.979766 1_554
F16 Li0 2.050686 1_565
F17 Li0 2.096843 1_565
F18 Li3 2.150297 1_555
F19 Li3 2.001087 1_555
F20 Li2 2.120069 1_655
F21 Li2 1.979766 1_555
F21 Li1 2.050686 1_465
F22 Li1 2.096843 1_565
F23 Li3 2.120069 1_555
