# generated using pymatgen
data_K3Dy(AsS4)2
_symmetry_space_group_name_H-M   'P 1'
_cell_length_a   10.85671298
_cell_length_b   10.85671298
_cell_length_c   9.02191379
_cell_angle_alpha   76.94026338
_cell_angle_beta   76.94026338
_cell_angle_gamma   121.64059060
_symmetry_Int_Tables_number   1
_chemical_formula_structural   K3Dy(AsS4)2
_chemical_formula_sum   'K6 Dy2 As4 S16'
_cell_volume   802.22150245
_cell_formula_units_Z   2
loop_
 _symmetry_equiv_pos_site_id
 _symmetry_equiv_pos_as_xyz
  1  'x, y, z'
loop_
 _atom_site_type_symbol
 _atom_site_label
 _atom_site_symmetry_multiplicity
 _atom_site_fract_x
 _atom_site_fract_y
 _atom_site_fract_z
 _atom_site_occupancy
  K  K0  1  0.26157300  0.73842700  0.75000000  1
  K  K1  1  0.73842700  0.26157300  0.25000000  1
  K  K2  1  0.50000000  0.50000000  0.00000000  1
  K  K3  1  0.50000000  0.50000000  0.50000000  1
  K  K4  1  0.99554400  0.00445600  0.25000000  1
  K  K5  1  0.00445600  0.99554400  0.75000000  1
  Dy  Dy0  1  0.24341300  0.75658700  0.25000000  1
  Dy  Dy1  1  0.75658700  0.24341300  0.75000000  1
  As  As0  1  0.65686500  0.90264900  0.10053500  1
  As  As1  1  0.09735100  0.34313500  0.39946500  1
  As  As2  1  0.34313500  0.09735100  0.89946500  1
  As  As3  1  0.90264900  0.65686500  0.60053500  1
  S  S0  1  0.47162100  0.12451700  0.06097200  1
  S  S1  1  0.87548300  0.52837900  0.43902800  1
  S  S2  1  0.52837900  0.87548300  0.93902800  1
  S  S3  1  0.12451700  0.47162100  0.56097200  1
  S  S4  1  0.13521600  0.84422300  0.02411200  1
  S  S5  1  0.15577700  0.86478400  0.47588800  1
  S  S6  1  0.86478400  0.15577700  0.97588800  1
  S  S7  1  0.84422300  0.13521600  0.52411200  1
  S  S8  1  0.73683500  0.75766000  0.12587900  1
  S  S9  1  0.24234000  0.26316500  0.37412100  1
  S  S10  1  0.26316500  0.24234000  0.87412100  1
  S  S11  1  0.75766000  0.73683500  0.62587900  1
  S  S12  1  0.14691600  0.50066200  0.15591600  1
  S  S13  1  0.49933800  0.85308400  0.34408400  1
  S  S14  1  0.85308400  0.49933800  0.84408400  1
  S  S15  1  0.50066200  0.14691600  0.65591600  1
loop_
_geom_bond_atom_site_label_1
_geom_bond_atom_site_label_2
_geom_bond_distance
_geom_bond_site_symmetry_2
K0 S4 3.274240 1_556
K0 S5 3.274240 1_555
K0 S12 3.452596 1_556
K0 S13 3.452596 1_555
K0 S14 3.514455 1_455
K0 S15 3.514455 1_565
K0 S3 3.517127 1_555
K0 S2 3.517127 1_555
K1 S7 3.274240 1_555
K1 S6 3.274240 1_554
K1 S14 3.452596 1_554
K1 S15 3.452596 1_555
K1 S13 3.514455 1_545
K1 S12 3.514455 1_655
K1 S0 3.517127 1_555
K1 S1 3.517127 1_555
K2 S9 3.177002 1_555
K2 S11 3.177002 1_554
K2 S8 3.306844 1_555
K2 S10 3.306844 1_554
K2 S14 3.777531 1_554
K2 S12 3.777531 1_555
K3 S8 3.177002 1_555
K3 S10 3.177002 1_555
K3 S11 3.306844 1_555
K3 S9 3.306844 1_555
K3 S13 3.777531 1_555
K3 S15 3.777531 1_555
K4 S10 3.213713 1_654
K4 S11 3.213713 1_545
K4 S9 3.347195 1_655
K4 S8 3.347195 1_545
K4 S5 3.528747 1_645
K4 S4 3.528747 1_645
K4 S6 3.609366 1_554
K4 S7 3.609366 1_555
K5 S9 3.213713 1_565
K5 S8 3.213713 1_456
K5 S11 3.347195 1_455
K5 S10 3.347195 1_565
K5 S6 3.528747 1_465
K5 S7 3.528747 1_465
K5 S4 3.609366 1_556
K5 S5 3.609366 1_555
Dy0 S4 2.795793 1_555
Dy0 S5 2.795793 1_555
Dy0 S12 2.819902 1_555
Dy0 S13 2.819902 1_555
Dy0 S3 3.059356 1_555
Dy0 S2 3.059356 1_554
Dy0 S1 3.103427 1_455
Dy0 S0 3.103427 1_565
Dy1 S6 2.795793 1_555
Dy1 S7 2.795793 1_555
Dy1 S15 2.819902 1_555
Dy1 S14 2.819902 1_555
Dy1 S1 3.059356 1_555
Dy1 S0 3.059356 1_556
Dy1 S3 3.103427 1_655
Dy1 S2 3.103427 1_545
As0 S8 2.155179 1_555
As0 S2 2.199349 1_554
As0 S13 2.200968 1_555
As0 S6 2.204536 1_564
As1 S9 2.155179 1_555
As1 S3 2.199349 1_555
As1 S12 2.200968 1_555
As1 S7 2.204536 1_455
As2 S10 2.155179 1_555
As2 S0 2.199349 1_556
As2 S15 2.200968 1_555
As2 S4 2.204536 1_546
As3 S11 2.155179 1_555
As3 S1 2.199349 1_555
As3 S14 2.200968 1_555
As3 S5 2.204536 1_655
