# generated using pymatgen
data_Li2VF6
_symmetry_space_group_name_H-M   'P 1'
_cell_length_a   4.86649100
_cell_length_b   7.80690000
_cell_length_c   10.53658124
_cell_angle_alpha   72.35807553
_cell_angle_beta   90.00000000
_cell_angle_gamma   90.00000000
_symmetry_Int_Tables_number   1
_chemical_formula_structural   Li2VF6
_chemical_formula_sum   'Li8 V4 F24'
_cell_volume   381.48117214
_cell_formula_units_Z   4
loop_
 _symmetry_equiv_pos_site_id
 _symmetry_equiv_pos_as_xyz
  1  'x, y, z'
loop_
 _atom_site_type_symbol
 _atom_site_label
 _atom_site_symmetry_multiplicity
 _atom_site_fract_x
 _atom_site_fract_y
 _atom_site_fract_z
 _atom_site_occupancy
  Li  Li0  1  0.45477500  0.96112100  0.65109700  1
  Li  Li1  1  0.04522500  0.96112100  0.15109700  1
  Li  Li2  1  0.01646600  0.60858900  0.80846500  1
  Li  Li3  1  0.48353400  0.60858900  0.30846500  1
  Li  Li4  1  0.51646600  0.39141100  0.69153500  1
  Li  Li5  1  0.98353400  0.39141100  0.19153500  1
  Li  Li6  1  0.95477500  0.03887900  0.84890300  1
  Li  Li7  1  0.54522500  0.03887900  0.34890300  1
  V  V0  1  0.97510600  0.72664700  0.50271000  1
  V  V1  1  0.52489400  0.72664700  0.00271000  1
  V  V2  1  0.47510600  0.27335300  0.99729000  1
  V  V3  1  0.02489400  0.27335300  0.49729000  1
  F  F0  1  0.64677700  0.87762700  0.82685200  1
  F  F1  1  0.19055300  0.76697100  0.90518800  1
  F  F2  1  0.75517600  0.90582600  0.53732600  1
  F  F3  1  0.21510600  0.75415300  0.63729100  1
  F  F4  1  0.85322300  0.87762700  0.32685200  1
  F  F5  1  0.70212200  0.54912800  0.93324700  1
  F  F6  1  0.30944700  0.76697100  0.40518800  1
  F  F7  1  0.74482400  0.90582600  0.03732600  1
  F  F8  1  0.78735300  0.57971600  0.65791300  1
  F  F9  1  0.28489400  0.75415300  0.13729100  1
  F  F10  1  0.28735300  0.42028400  0.84208700  1
  F  F11  1  0.79787800  0.54912800  0.43324700  1
  F  F12  1  0.20212200  0.45087200  0.56675300  1
  F  F13  1  0.71264700  0.57971600  0.15791300  1
  F  F14  1  0.71510600  0.24584700  0.86270900  1
  F  F15  1  0.21264700  0.42028400  0.34208700  1
  F  F16  1  0.25517600  0.09417400  0.96267400  1
  F  F17  1  0.69055300  0.23302900  0.59481200  1
  F  F18  1  0.29787800  0.45087200  0.06675300  1
  F  F19  1  0.14677700  0.12237300  0.67314800  1
  F  F20  1  0.78489400  0.24584700  0.36270900  1
  F  F21  1  0.24482400  0.09417400  0.46267400  1
  F  F22  1  0.80944700  0.23302900  0.09481200  1
  F  F23  1  0.35322300  0.12237300  0.17314800  1
loop_
_geom_bond_atom_site_label_1
_geom_bond_atom_site_label_2
_geom_bond_distance
_geom_bond_site_symmetry_2
F0 V1 1.962318 1_556
F0 Li0 1.998913 1_555
F0 Li6 2.015603 1_565
F1 V1 1.899009 1_556
F1 Li2 2.012220 1_555
F1 Li6 2.326220 1_465
F2 V0 1.882692 1_555
F2 Li0 2.018460 1_555
F2 Li7 2.194185 1_565
F3 V0 1.898841 1_455
F3 Li0 2.033405 1_555
F3 Li2 2.058271 1_555
F4 V0 1.962318 1_555
F4 Li1 1.998913 1_655
F4 Li7 2.015603 1_565
F5 V1 1.953205 1_556
F5 Li2 1.978465 1_655
F5 V2 2.330335 1_555
F6 V0 1.899009 1_455
F6 Li3 2.012220 1_555
F6 Li7 2.326220 1_565
F7 V1 1.882692 1_555
F7 Li1 2.018460 1_655
F7 Li6 2.194185 1_564
F8 V0 1.920381 1_555
F8 Li4 1.925823 1_555
F8 Li2 2.006757 1_655
F9 V1 1.898841 1_555
F9 Li1 2.033405 1_555
F9 Li3 2.058271 1_555
F10 V2 1.920381 1_555
F10 Li2 1.925823 1_555
F10 Li4 2.006757 1_555
F11 V0 1.953205 1_555
F11 Li3 1.978465 1_555
F11 V3 2.330335 1_655
F12 V3 1.953205 1_555
F12 Li4 1.978465 1_555
F12 V0 2.330335 1_455
F13 V1 1.920381 1_555
F13 Li5 1.925823 1_555
F13 Li3 2.006757 1_555
F14 V2 1.898841 1_555
F14 Li6 2.033405 1_555
F14 Li4 2.058271 1_555
F15 V3 1.920381 1_555
F15 Li3 1.925823 1_555
F15 Li5 2.006757 1_455
F16 V2 1.882692 1_555
F16 Li6 2.018460 1_455
F16 Li1 2.194185 1_546
F17 V3 1.899009 1_655
F17 Li4 2.012220 1_555
F17 Li0 2.326220 1_545
F18 V2 1.953205 1_554
F18 Li5 1.978465 1_455
F18 V1 2.330335 1_555
F19 V3 1.962318 1_555
F19 Li6 1.998913 1_455
F19 Li0 2.015603 1_545
F20 V3 1.898841 1_655
F20 Li7 2.033405 1_555
F20 Li5 2.058271 1_555
F21 V3 1.882692 1_555
F21 Li7 2.018460 1_555
F21 Li0 2.194185 1_545
F22 V2 1.899009 1_554
F22 Li5 2.012220 1_555
F22 Li1 2.326220 1_645
F23 V2 1.962318 1_554
F23 Li7 1.998913 1_555
F23 Li1 2.015603 1_545
