# generated using pymatgen
data_Ba5V5O14
_symmetry_space_group_name_H-M   'P 1'
_cell_length_a   5.78510900
_cell_length_b   5.79928238
_cell_length_c   23.81486576
_cell_angle_alpha   89.05345428
_cell_angle_beta   89.49931495
_cell_angle_gamma   60.56578617
_symmetry_Int_Tables_number   1
_chemical_formula_structural   Ba5V5O14
_chemical_formula_sum   'Ba10 V10 O28'
_cell_volume   695.74979001
_cell_formula_units_Z   2
loop_
 _symmetry_equiv_pos_site_id
 _symmetry_equiv_pos_as_xyz
  1  'x, y, z'
loop_
 _atom_site_type_symbol
 _atom_site_label
 _atom_site_symmetry_multiplicity
 _atom_site_fract_x
 _atom_site_fract_y
 _atom_site_fract_z
 _atom_site_occupancy
  Ba  Ba0  1  0.66660200  0.66665400  0.79408800  1
  Ba  Ba1  1  0.66109900  0.67515800  0.61207700  1
  Ba  Ba2  1  0.66834500  0.67329300  0.29525500  1
  Ba  Ba3  1  0.67262400  0.66754800  0.11191800  1
  Ba  Ba4  1  0.00074700  0.99466600  0.99990300  1
  Ba  Ba5  1  0.99801700  0.00172200  0.49910000  1
  Ba  Ba6  1  0.32884400  0.33737300  0.89032900  1
  Ba  Ba7  1  0.33378700  0.33562600  0.39117000  1
  Ba  Ba8  1  0.33678900  0.33326700  0.20780800  1
  Ba  Ba9  1  0.32938600  0.34159600  0.70765500  1
  V  V0  1  0.63272900  0.68886900  0.94608600  1
  V  V1  1  0.68493800  0.63012600  0.44678200  1
  V  V2  1  0.99114300  0.00428600  0.85992400  1
  V  V3  1  0.01535900  0.98422300  0.14046200  1
  V  V4  1  0.99846500  0.00633000  0.74884500  1
  V  V5  1  0.99115300  0.02350700  0.63921400  1
  V  V6  1  0.00049700  0.00083900  0.35951000  1
  V  V7  1  0.00022400  0.00547700  0.24895600  1
  V  V8  1  0.30869200  0.38210200  0.55455700  1
  V  V9  1  0.37125900  0.31730400  0.05438900  1
  O  O0  1  0.53042300  0.95535400  0.00405500  1
  O  O1  1  0.31028800  0.84746400  0.89926700  1
  O  O2  1  0.34134900  0.83627800  0.40689700  1
  O  O3  1  0.29383200  0.86066000  0.69582800  1
  O  O4  1  0.31083700  0.85004100  0.19576600  1
  O  O5  1  0.83419700  0.87445000  0.70028500  1
  O  O6  1  0.86258500  0.83337100  0.20051300  1
  O  O7  1  0.83926800  0.81972500  0.90675500  1
  O  O8  1  0.82571000  0.83523000  0.40566000  1
  O  O9  1  0.85452800  0.29325200  0.19811400  1
  O  O10  1  0.84360100  0.32265800  0.69736400  1
  O  O11  1  0.85041100  0.30962300  0.40019000  1
  O  O12  1  0.83167400  0.33602200  0.90703300  1
  O  O13  1  0.01659800  0.48324300  0.49903200  1
  O  O14  1  0.16587400  0.65812900  0.59853900  1
  O  O15  1  0.17741000  0.65753400  0.09422500  1
  O  O16  1  0.14446100  0.70477000  0.80227500  1
  O  O17  1  0.15061500  0.70746900  0.30605100  1
  O  O18  1  0.18715100  0.15079800  0.58978300  1
  O  O19  1  0.15039900  0.20376500  0.08585400  1
  O  O20  1  0.14078700  0.15731800  0.80026300  1
  O  O21  1  0.15910500  0.14493100  0.30152500  1
  O  O22  1  0.45130900  0.48278500  0.99606400  1
  O  O23  1  0.50455800  0.48014900  0.49921900  1
  O  O24  1  0.69933400  0.14854600  0.80755100  1
  O  O25  1  0.70124900  0.15107300  0.30313400  1
  O  O26  1  0.65932100  0.15684600  0.59204100  1
  O  O27  1  0.67182000  0.16595200  0.09869000  1
loop_
_geom_bond_atom_site_label_1
_geom_bond_atom_site_label_2
_geom_bond_distance
_geom_bond_site_symmetry_2
Ba0 O20 2.881059 1_655
Ba0 O16 2.888007 1_655
Ba0 O5 2.898984 1_555
Ba0 O10 2.904672 1_555
Ba0 O24 2.915368 1_565
Ba0 O16 2.923361 1_555
Ba0 O24 2.928590 1_555
Ba0 O20 2.978319 1_565
Ba0 O3 3.001461 1_555
Ba0 O1 3.081370 1_555
Ba0 O12 3.146137 1_555
Ba0 O7 3.159452 1_555
Ba1 O10 2.682913 1_555
Ba1 O3 2.720297 1_555
Ba1 O18 2.819920 1_565
Ba1 O26 2.821156 1_565
Ba1 O5 2.829454 1_555
Ba1 O14 2.888304 1_655
Ba1 O14 2.935438 1_555
Ba1 O26 3.056256 1_555
Ba1 O18 3.117697 1_655
Ba1 O13 3.235513 1_655
Ba1 O23 3.236103 1_555
Ba2 O6 2.850793 1_555
Ba2 O21 2.875514 1_565
Ba2 O25 2.878342 1_565
Ba2 O17 2.906389 1_655
Ba2 O17 2.912205 1_555
Ba2 O25 2.942535 1_555
Ba2 O4 2.977192 1_555
Ba2 O21 2.985595 1_655
Ba2 O9 3.026741 1_555
Ba2 O11 3.080751 1_555
Ba2 O8 3.096375 1_555
Ba2 O2 3.127077 1_555
Ba3 O4 2.703267 1_555
Ba3 O9 2.770985 1_555
Ba3 O6 2.780338 1_555
Ba3 O19 2.824451 1_655
Ba3 O27 2.900055 1_565
Ba3 O15 2.919135 1_655
Ba3 O15 2.928106 1_555
Ba3 O27 2.933350 1_555
Ba3 O0 2.933727 1_555
Ba3 O19 3.149284 1_565
Ba4 O19 2.748570 1_566
Ba4 O12 2.785180 1_465
Ba4 O15 2.800690 1_556
Ba4 O7 2.804445 1_455
Ba4 O22 2.831002 1_555
Ba4 O0 2.840623 1_456
Ba4 O1 2.858221 1_555
Ba4 O27 2.878121 1_466
Ba4 O0 2.961287 1_556
Ba4 O22 3.045959 1_465
Ba5 O18 2.764270 1_655
Ba5 O26 2.793760 1_555
Ba5 O2 2.794196 1_645
Ba5 O11 2.804221 1_555
Ba5 O8 2.816627 1_545
Ba5 O23 2.839526 1_555
Ba5 O13 2.846814 1_655
Ba5 O14 2.916154 1_645
Ba5 O13 2.955492 1_645
Ba5 O23 3.004083 1_645
Ba6 O24 2.714751 1_555
Ba6 O16 2.780748 1_555
Ba6 O20 2.847080 1_555
Ba6 O7 2.868722 1_455
Ba6 O22 2.870932 1_555
Ba6 O1 2.899686 1_545
Ba6 O12 2.903926 1_455
Ba6 O1 2.918193 1_555
Ba6 O12 2.935623 1_555
Ba6 O7 3.025444 1_545
Ba6 O0 3.304704 1_546
Ba7 O17 2.743975 1_555
Ba7 O25 2.796463 1_555
Ba7 O21 2.831264 1_555
Ba7 O11 2.879502 1_455
Ba7 O2 2.892773 1_545
Ba7 O8 2.916568 1_545
Ba7 O11 2.927209 1_555
Ba7 O2 2.955183 1_555
Ba7 O8 2.966197 1_455
Ba7 O13 3.024013 1_555
Ba7 O23 3.037956 1_555
Ba8 O6 2.852939 1_455
Ba8 O21 2.865931 1_555
Ba8 O9 2.895649 1_555
Ba8 O4 2.898077 1_545
Ba8 O25 2.920695 1_555
Ba8 O9 2.922365 1_455
Ba8 O4 2.935376 1_555
Ba8 O6 3.004575 1_545
Ba8 O17 3.028169 1_555
Ba8 O27 3.098041 1_555
Ba8 O15 3.142401 1_555
Ba8 O19 3.329342 1_555
Ba9 O5 2.851237 1_545
Ba9 O20 2.867503 1_555
Ba9 O10 2.878593 1_455
Ba9 O3 2.914004 1_545
Ba9 O3 2.923594 1_555
Ba9 O16 2.925429 1_555
Ba9 O10 2.930621 1_555
Ba9 O5 3.012776 1_455
Ba9 O24 3.023165 1_555
Ba9 O14 3.032460 1_555
Ba9 O26 3.219878 1_555
Ba9 O18 3.289238 1_555
O0 V0 1.949795 1_554
O0 V9 2.203395 1_565
O1 V2 1.861592 1_465
O1 V0 1.971022 1_555
O2 V1 1.985536 1_555
O2 V6 2.055802 1_565
O3 V4 1.950986 1_465
O3 V5 2.037075 1_465
O4 V3 1.990041 1_555
O4 V7 2.012962 1_565
O5 V4 1.894245 1_565
O5 V5 2.096140 1_565
O6 V7 1.948423 1_665
O6 V3 2.070789 1_655
O7 V0 1.931070 1_555
O7 V2 2.007259 1_565
O8 V1 1.984115 1_555
O8 V6 2.013193 1_665
O9 V7 1.878880 1_655
O9 V3 2.093478 1_645
O10 V4 2.000154 1_555
O10 V5 2.063827 1_555
O11 V6 1.847592 1_655
O11 V1 1.975623 1_555
O12 V0 2.026390 1_555
O12 V2 2.029705 1_555
O13 V8 1.996813 1_555
O13 V1 2.087026 1_455
O14 V8 1.755718 1_555
O14 V5 2.096552 1_465
O15 V9 1.979703 1_555
O15 V3 1.996484 1_555
O16 V4 1.970880 1_465
O16 V2 2.057172 1_465
O17 V6 1.967139 1_565
O17 V7 2.014389 1_565
O18 V8 1.969010 1_555
O18 V5 1.996747 1_455
O19 V9 1.849702 1_555
O19 V3 2.197199 1_545
O20 V4 1.925012 1_455
O20 V2 2.061006 1_455
O21 V7 1.962229 1_555
O21 V6 2.034803 1_555
O22 V9 1.856414 1_556
O22 V0 2.260641 1_555
O23 V8 1.981512 1_555
O23 V1 2.058700 1_555
O24 V2 1.928634 1_555
O24 V4 2.054881 1_555
O25 V7 1.982631 1_655
O25 V6 2.019446 1_655
O26 V8 2.001663 1_555
O26 V5 2.023665 1_555
O27 V9 1.846157 1_555
O27 V3 1.997856 1_645
