# generated using pymatgen
data_Eu2SnHg
_symmetry_space_group_name_H-M   'P 1'
_cell_length_a   5.56191203
_cell_length_b   5.56197851
_cell_length_c   5.56192732
_cell_angle_alpha   60.00579195
_cell_angle_beta   60.00748576
_cell_angle_gamma   60.00543154
_symmetry_Int_Tables_number   1
_chemical_formula_structural   Eu2SnHg
_chemical_formula_sum   'Eu2 Sn1 Hg1'
_cell_volume   121.68166236
_cell_formula_units_Z   1
loop_
 _symmetry_equiv_pos_site_id
 _symmetry_equiv_pos_as_xyz
  1  'x, y, z'
loop_
 _atom_site_type_symbol
 _atom_site_label
 _atom_site_symmetry_multiplicity
 _atom_site_fract_x
 _atom_site_fract_y
 _atom_site_fract_z
 _atom_site_occupancy
  Eu  Eu0  1  0.99998830  0.99999273  0.99998736  1
  Eu  Eu1  1  0.50001268  0.50001026  0.50001246  1
  Sn  Sn0  1  0.74999994  0.75000160  0.74999852  1
  Hg  Hg0  1  0.24999807  0.24999742  0.25000266  1
loop_
_geom_bond_atom_site_label_1
_geom_bond_atom_site_label_2
_geom_bond_distance
_geom_bond_site_symmetry_2
Eu0 Sn0 3.405674 1_555
Eu0 Hg0 3.405953 1_666
Eu0 Hg0 3.406197 1_665
Eu0 Hg0 3.406200 1_566
Eu0 Hg0 3.406206 1_656
Eu0 Sn0 3.406267 1_565
Eu0 Sn0 3.406297 1_655
Eu0 Sn0 3.406317 1_556
Eu1 Sn0 3.405657 1_555
Eu1 Hg0 3.405987 1_555
Eu1 Hg0 3.406169 1_565
Eu1 Hg0 3.406178 1_655
Eu1 Hg0 3.406222 1_556
Eu1 Sn0 3.406266 1_545
Eu1 Sn0 3.406302 1_455
Eu1 Sn0 3.406329 1_554
