# generated using pymatgen
data_Pm3Tl
_symmetry_space_group_name_H-M   'P 1'
_cell_length_a   4.95118021
_cell_length_b   4.95180814
_cell_length_c   4.95302902
_cell_angle_alpha   90.00000000
_cell_angle_beta   90.00000000
_cell_angle_gamma   90.00000000
_symmetry_Int_Tables_number   1
_chemical_formula_structural   Pm3Tl
_chemical_formula_sum   'Pm3 Tl1'
_cell_volume   121.43487098
_cell_formula_units_Z   1
loop_
 _symmetry_equiv_pos_site_id
 _symmetry_equiv_pos_as_xyz
  1  'x, y, z'
loop_
 _atom_site_type_symbol
 _atom_site_label
 _atom_site_symmetry_multiplicity
 _atom_site_fract_x
 _atom_site_fract_y
 _atom_site_fract_z
 _atom_site_occupancy
  Pm  Pm0  1  0.00000000  0.50000100  0.50000100  1
  Pm  Pm1  1  0.50000100  -0.00000000  0.50000100  1
  Pm  Pm2  1  0.50000100  0.50000100  -0.00000000  1
  Tl  Tl0  1  0.00000000  0.00000000  0.00000000  1
loop_
_geom_bond_atom_site_label_1
_geom_bond_atom_site_label_2
_geom_bond_distance
_geom_bond_site_symmetry_2
Pm0 Pm1 3.501228 1_465
Pm0 Pm1 3.501235 1_565
Pm0 Pm1 3.501235 1_455
Pm0 Pm1 3.501242 1_555
Pm0 Pm2 3.501660 1_456
Pm0 Pm2 3.501667 1_556
Pm0 Pm2 3.501667 1_455
Pm0 Pm2 3.501674 1_555
Pm0 Tl0 3.501882 1_566
Pm0 Tl0 3.501889 1_556
Pm0 Tl0 3.501889 1_565
Pm0 Tl0 3.501896 1_555
Pm1 Tl0 3.501660 1_656
Pm1 Tl0 3.501667 1_556
Pm1 Tl0 3.501667 1_655
Pm1 Tl0 3.501674 1_555
Pm1 Pm2 3.501882 1_546
Pm1 Pm2 3.501889 1_556
Pm1 Pm2 3.501889 1_545
Pm1 Pm2 3.501896 1_555
Pm2 Tl0 3.501228 1_665
Pm2 Tl0 3.501235 1_565
Pm2 Tl0 3.501235 1_655
Pm2 Tl0 3.501242 1_555
