# generated using pymatgen
data_LuC2
_symmetry_space_group_name_H-M   'P 1'
_cell_length_a   3.94111688
_cell_length_b   3.94111688
_cell_length_c   3.94111688
_cell_angle_alpha   126.20463203
_cell_angle_beta   126.20463203
_cell_angle_gamma   79.55207395
_symmetry_Int_Tables_number   1
_chemical_formula_structural   LuC2
_chemical_formula_sum   'Lu1 C2'
_cell_volume   38.51530551
_cell_formula_units_Z   1
loop_
 _symmetry_equiv_pos_site_id
 _symmetry_equiv_pos_as_xyz
  1  'x, y, z'
loop_
 _atom_site_type_symbol
 _atom_site_label
 _atom_site_symmetry_multiplicity
 _atom_site_fract_x
 _atom_site_fract_y
 _atom_site_fract_z
 _atom_site_occupancy
  Lu  Lu0  1  0.00000000  0.00000000  0.00000000  1
  C  C0  1  0.60793700  0.60793700  0.00000000  1
  C  C1  1  0.39206300  0.39206300  0.00000000  1
loop_
_geom_bond_atom_site_label_1
_geom_bond_atom_site_label_2
_geom_bond_distance
_geom_bond_site_symmetry_2
C0 C1 1.307743 1_555
C0 Lu0 2.375078 1_665
C0 Lu0 2.604882 1_655
C0 Lu0 2.604882 1_565
C0 Lu0 2.604882 1_554
C0 Lu0 2.604882 1_666
C1 Lu0 2.375078 1_555
C1 Lu0 2.604882 1_655
C1 Lu0 2.604882 1_565
C1 Lu0 2.604882 1_554
C1 Lu0 2.604882 1_666
