# generated using pymatgen
data_TiGaIr2
_symmetry_space_group_name_H-M   'P 1'
_cell_length_a   4.34275279
_cell_length_b   4.34275567
_cell_length_c   4.34275854
_cell_angle_alpha   59.99986863
_cell_angle_beta   59.99992335
_cell_angle_gamma   59.99987946
_symmetry_Int_Tables_number   1
_chemical_formula_structural   TiGaIr2
_chemical_formula_sum   'Ti1 Ga1 Ir2'
_cell_volume   57.91353984
_cell_formula_units_Z   1
loop_
 _symmetry_equiv_pos_site_id
 _symmetry_equiv_pos_as_xyz
  1  'x, y, z'
loop_
 _atom_site_type_symbol
 _atom_site_label
 _atom_site_symmetry_multiplicity
 _atom_site_fract_x
 _atom_site_fract_y
 _atom_site_fract_z
 _atom_site_occupancy
  Ti  Ti0  1  0.75000100  0.75000000  0.75000000  1
  Ga  Ga0  1  0.25000000  0.25000000  0.25000000  1
  Ir  Ir0  1  0.50000100  0.50000100  0.50000100  1
  Ir  Ir1  1  0.00000000  -0.00000000  0.00000000  1
loop_
_geom_bond_atom_site_label_1
_geom_bond_atom_site_label_2
_geom_bond_distance
_geom_bond_site_symmetry_2
Ga0 Ir0 2.659375 1_455
Ga0 Ir0 2.659376 1_545
Ga0 Ir0 2.659379 1_554
Ga0 Ir1 2.659379 1_655
Ga0 Ir1 2.659379 1_565
Ga0 Ir1 2.659382 1_556
Ga0 Ir1 2.659386 1_555
Ga0 Ir0 2.659397 1_555
Ir0 Ti0 2.659379 1_555
Ir0 Ti0 2.659379 1_455
Ir0 Ti0 2.659383 1_545
Ir0 Ti0 2.659386 1_554
Ir1 Ti0 2.659379 1_454
Ir1 Ti0 2.659382 1_445
Ir1 Ti0 2.659383 1_444
Ir1 Ti0 2.659383 1_544
