# generated using pymatgen
data_Ti2ZnTc
_symmetry_space_group_name_H-M   'P 1'
_cell_length_a   4.39963558
_cell_length_b   4.39963558
_cell_length_c   4.39963558
_cell_angle_alpha   60.00000000
_cell_angle_beta   60.00000000
_cell_angle_gamma   60.00000000
_symmetry_Int_Tables_number   1
_chemical_formula_structural   Ti2ZnTc
_chemical_formula_sum   'Ti2 Zn1 Tc1'
_cell_volume   60.21921881
_cell_formula_units_Z   1
loop_
 _symmetry_equiv_pos_site_id
 _symmetry_equiv_pos_as_xyz
  1  'x, y, z'
loop_
 _atom_site_type_symbol
 _atom_site_label
 _atom_site_symmetry_multiplicity
 _atom_site_fract_x
 _atom_site_fract_y
 _atom_site_fract_z
 _atom_site_occupancy
  Ti  Ti0  1  0.50000100  0.50000100  0.50000100  1
  Ti  Ti1  1  0.00000000  -0.00000000  0.00000000  1
  Zn  Zn0  1  0.75000100  0.75000100  0.75000100  1
  Tc  Tc0  1  0.25000000  0.25000000  0.25000000  1
loop_
_geom_bond_atom_site_label_1
_geom_bond_atom_site_label_2
_geom_bond_distance
_geom_bond_site_symmetry_2
Ti0 Zn0 2.694216 1_455
Ti0 Zn0 2.694216 1_545
Ti0 Zn0 2.694216 1_554
Ti0 Zn0 2.694216 1_555
Ti1 Zn0 2.694205 1_444
Ti1 Zn0 2.694219 1_454
Ti1 Zn0 2.694219 1_445
Ti1 Zn0 2.694219 1_544
Tc0 Ti0 2.694212 1_545
Tc0 Ti0 2.694212 1_554
Tc0 Ti0 2.694212 1_455
Tc0 Ti1 2.694216 1_655
Tc0 Ti1 2.694216 1_565
Tc0 Ti1 2.694216 1_556
Tc0 Ti1 2.694216 1_555
Tc0 Ti0 2.694226 1_555
