# generated using pymatgen
data_Cs2Li2GeO4
_symmetry_space_group_name_H-M   'P 1'
_cell_length_a   5.74454600
_cell_length_b   5.89747976
_cell_length_c   9.66355231
_cell_angle_alpha   84.47913904
_cell_angle_beta   76.58705382
_cell_angle_gamma   86.53908413
_symmetry_Int_Tables_number   1
_chemical_formula_structural   Cs2Li2GeO4
_chemical_formula_sum   'Cs4 Li4 Ge2 O8'
_cell_volume   316.73310780
_cell_formula_units_Z   2
loop_
 _symmetry_equiv_pos_site_id
 _symmetry_equiv_pos_as_xyz
  1  'x, y, z'
loop_
 _atom_site_type_symbol
 _atom_site_label
 _atom_site_symmetry_multiplicity
 _atom_site_fract_x
 _atom_site_fract_y
 _atom_site_fract_z
 _atom_site_occupancy
  Cs  Cs0  1  0.21432300  0.26630100  0.98776600  1
  Cs  Cs1  1  0.78567700  0.73369900  0.01223400  1
  Cs  Cs2  1  0.48531500  0.85514600  0.70787600  1
  Cs  Cs3  1  0.51468500  0.14485400  0.29212400  1
  Li  Li0  1  0.06680100  0.81321700  0.55967700  1
  Li  Li1  1  0.93319900  0.18678300  0.44032300  1
  Li  Li2  1  0.69412200  0.58719900  0.42036800  1
  Li  Li3  1  0.30587800  0.41280100  0.57963200  1
  Ge  Ge0  1  0.86292400  0.31728000  0.70472800  1
  Ge  Ge1  1  0.13707600  0.68272000  0.29527200  1
  O  O0  1  0.01811300  0.56967100  0.71131700  1
  O  O1  1  0.98188700  0.43032900  0.28868300  1
  O  O2  1  0.90345900  0.86233500  0.39862000  1
  O  O3  1  0.09654100  0.13766500  0.60138000  1
  O  O4  1  0.73479000  0.19905800  0.87828900  1
  O  O5  1  0.26521000  0.80094200  0.12171100  1
  O  O6  1  0.35343600  0.63978000  0.40662100  1
  O  O7  1  0.64656400  0.36022000  0.59337900  1
loop_
_geom_bond_atom_site_label_1
_geom_bond_atom_site_label_2
_geom_bond_distance
_geom_bond_site_symmetry_2
Cs0 O4 2.947167 1_555
Cs0 O5 2.947543 1_546
Cs0 O1 3.123881 1_456
Cs0 O4 3.229478 1_455
Cs0 O0 3.441222 1_555
Cs0 O5 3.574162 1_556
Cs1 O5 2.947167 1_555
Cs1 O4 2.947543 1_564
Cs1 O0 3.123881 1_654
Cs1 O5 3.229478 1_655
Cs1 O1 3.441222 1_555
Cs1 O4 3.574162 1_554
Cs2 O3 3.018283 1_565
Cs2 O7 3.190326 1_565
Cs2 O7 3.228194 1_555
Cs2 O0 3.245312 1_555
Cs2 O4 3.311790 1_565
Cs2 O2 3.370514 1_555
Cs2 O0 3.408466 1_655
Cs3 O2 3.018283 1_545
Cs3 O6 3.190326 1_545
Cs3 O6 3.228194 1_555
Cs3 O1 3.245312 1_555
Cs3 O5 3.311790 1_545
Cs3 O3 3.370514 1_555
Cs3 O1 3.408466 1_455
Li0 O0 1.934404 1_555
Li0 O2 1.986116 1_455
Li0 O3 2.018062 1_565
Li0 O6 2.214265 1_555
Li1 O1 1.934404 1_555
Li1 O3 1.986116 1_655
Li1 O2 2.018062 1_545
Li1 O7 2.214265 1_555
Li2 O6 1.995849 1_555
Li2 O7 2.015779 1_555
Li2 O2 2.043493 1_555
Li2 O1 2.067332 1_555
Li3 O7 1.995849 1_555
Li3 O6 2.015779 1_555
Li3 O3 2.043493 1_555
Li3 O0 2.067332 1_555
Ge0 O4 1.762147 1_555
Ge0 O0 1.794195 1_655
Ge0 O7 1.815700 1_555
Ge0 O3 1.825001 1_655
Ge1 O5 1.762147 1_555
Ge1 O1 1.794195 1_455
Ge1 O6 1.815700 1_555
Ge1 O2 1.825001 1_455
