# generated using pymatgen
data_Ac2HgGe
_symmetry_space_group_name_H-M   'P 1'
_cell_length_a   5.61032978
_cell_length_b   5.61032976
_cell_length_c   5.61032987
_cell_angle_alpha   60.00017440
_cell_angle_beta   60.00017469
_cell_angle_gamma   60.00017457
_symmetry_Int_Tables_number   1
_chemical_formula_structural   Ac2HgGe
_chemical_formula_sum   'Ac2 Hg1 Ge1'
_cell_volume   124.86821325
_cell_formula_units_Z   1
loop_
 _symmetry_equiv_pos_site_id
 _symmetry_equiv_pos_as_xyz
  1  'x, y, z'
loop_
 _atom_site_type_symbol
 _atom_site_label
 _atom_site_symmetry_multiplicity
 _atom_site_fract_x
 _atom_site_fract_y
 _atom_site_fract_z
 _atom_site_occupancy
  Ac  Ac0  1  0.00000003  0.00000004  0.00000004  1
  Ac  Ac1  1  0.49999893  0.49999894  0.49999894  1
  Hg  Hg0  1  0.75000097  0.75000096  0.75000096  1
  Ge  Ge0  1  0.25000007  0.25000006  0.25000006  1
loop_
_geom_bond_atom_site_label_1
_geom_bond_atom_site_label_2
_geom_bond_distance
_geom_bond_site_symmetry_2
Ac0 Hg0 3.435594 1_444
Ac0 Ge0 3.435607 1_555
Ac0 Ge0 3.435619 1_455
Ac0 Ge0 3.435619 1_545
Ac0 Ge0 3.435619 1_554
Ac0 Hg0 3.435623 1_454
Ac0 Hg0 3.435623 1_445
Ac0 Hg0 3.435623 1_544
Ac1 Ge0 3.435591 1_555
Ac1 Hg0 3.435610 1_455
Ac1 Hg0 3.435610 1_545
Ac1 Hg0 3.435610 1_554
Ac1 Ge0 3.435624 1_565
Ac1 Ge0 3.435624 1_556
Ac1 Ge0 3.435624 1_655
Ac1 Hg0 3.435635 1_555
