# generated using pymatgen
data_Tm2NiIr
_symmetry_space_group_name_H-M   'P 1'
_cell_length_a   4.71063804
_cell_length_b   4.71063804
_cell_length_c   4.71063804
_cell_angle_alpha   60.00000000
_cell_angle_beta   60.00000000
_cell_angle_gamma   60.00000000
_symmetry_Int_Tables_number   1
_chemical_formula_structural   Tm2NiIr
_chemical_formula_sum   'Tm2 Ni1 Ir1'
_cell_volume   73.91357458
_cell_formula_units_Z   1
loop_
 _symmetry_equiv_pos_site_id
 _symmetry_equiv_pos_as_xyz
  1  'x, y, z'
loop_
 _atom_site_type_symbol
 _atom_site_label
 _atom_site_symmetry_multiplicity
 _atom_site_fract_x
 _atom_site_fract_y
 _atom_site_fract_z
 _atom_site_occupancy
  Tm  Tm0  1  -0.00000000  0.00000000  -0.00000000  1
  Tm  Tm1  1  0.50000000  0.50000000  0.50000000  1
  Ni  Ni0  1  0.75000100  0.75000100  0.75000100  1
  Ir  Ir0  1  0.25000000  0.25000000  0.25000000  1
loop_
_geom_bond_atom_site_label_1
_geom_bond_atom_site_label_2
_geom_bond_distance
_geom_bond_site_symmetry_2
Ni0 Tm0 2.884653 1_666
Ni0 Tm1 2.884661 1_565
Ni0 Tm1 2.884661 1_556
Ni0 Tm1 2.884661 1_655
Ni0 Tm0 2.884669 1_656
Ni0 Tm0 2.884669 1_566
Ni0 Tm0 2.884669 1_665
Ni0 Tm1 2.884676 1_555
Ir0 Tm0 2.884665 1_565
Ir0 Tm0 2.884665 1_555
Ir0 Tm0 2.884665 1_655
Ir0 Tm0 2.884665 1_556
Ir0 Tm1 2.884665 1_455
Ir0 Tm1 2.884665 1_554
Ir0 Tm1 2.884665 1_555
Ir0 Tm1 2.884665 1_545
