# generated using pymatgen
data_Li2FePHO5
_symmetry_space_group_name_H-M   'P 1'
_cell_length_a   9.60963000
_cell_length_b   5.56540400
_cell_length_c   8.32838871
_cell_angle_alpha   75.52750530
_cell_angle_beta   90.00000000
_cell_angle_gamma   90.00000000
_symmetry_Int_Tables_number   1
_chemical_formula_structural   Li2FePHO5
_chemical_formula_sum   'Li8 Fe4 P4 H4 O20'
_cell_volume   431.28048317
_cell_formula_units_Z   4
loop_
 _symmetry_equiv_pos_site_id
 _symmetry_equiv_pos_as_xyz
  1  'x, y, z'
loop_
 _atom_site_type_symbol
 _atom_site_label
 _atom_site_symmetry_multiplicity
 _atom_site_fract_x
 _atom_site_fract_y
 _atom_site_fract_z
 _atom_site_occupancy
  Li  Li0  1  0.83768000  0.26867200  0.31343700  1
  Li  Li1  1  0.17039900  0.33240200  0.41075700  1
  Li  Li2  1  0.66232000  0.76867200  0.31343700  1
  Li  Li3  1  0.32960100  0.83240200  0.41075700  1
  Li  Li4  1  0.67039900  0.16759800  0.58924300  1
  Li  Li5  1  0.33768000  0.23132800  0.68656300  1
  Li  Li6  1  0.82960100  0.66759800  0.58924300  1
  Li  Li7  1  0.16232000  0.73132800  0.68656300  1
  Fe  Fe0  1  0.13188500  0.21049600  0.01332400  1
  Fe  Fe1  1  0.36811500  0.71049600  0.01332400  1
  Fe  Fe2  1  0.63188500  0.28950400  0.98667600  1
  Fe  Fe3  1  0.86811500  0.78950400  0.98667600  1
  P  P0  1  0.47701000  0.36877900  0.31167300  1
  P  P1  1  0.02299000  0.86877900  0.31167300  1
  P  P2  1  0.97701000  0.13122100  0.68832700  1
  P  P3  1  0.52299000  0.63122100  0.68832700  1
  H  H0  1  0.37591600  0.15128200  0.02247800  1
  H  H1  1  0.12408400  0.65128200  0.02247800  1
  H  H2  1  0.87591600  0.34871800  0.97752200  1
  H  H3  1  0.62408400  0.84871800  0.97752200  1
  O  O0  1  0.81591800  0.42156600  0.04993500  1
  O  O1  1  0.68408200  0.92156600  0.04993500  1
  O  O2  1  0.47309800  0.27911600  0.14725600  1
  O  O3  1  0.08101200  0.14256300  0.26207800  1
  O  O4  1  0.02690200  0.77911600  0.14725600  1
  O  O5  1  0.41898800  0.64256300  0.26207800  1
  O  O6  1  0.63026700  0.37741600  0.36783000  1
  O  O7  1  0.37968000  0.20191400  0.43971000  1
  O  O8  1  0.86973300  0.87741600  0.36783000  1
  O  O9  1  0.12032000  0.70191400  0.43971000  1
  O  O10  1  0.87968000  0.29808600  0.56029000  1
  O  O11  1  0.13026700  0.12258400  0.63217000  1
  O  O12  1  0.62032000  0.79808600  0.56029000  1
  O  O13  1  0.36973300  0.62258400  0.63217000  1
  O  O14  1  0.58101200  0.35743700  0.73792200  1
  O  O15  1  0.97309800  0.22088400  0.85274400  1
  O  O16  1  0.91898800  0.85743700  0.73792200  1
  O  O17  1  0.52690200  0.72088400  0.85274400  1
  O  O18  1  0.31591800  0.07843400  0.95006500  1
  O  O19  1  0.18408200  0.57843400  0.95006500  1
loop_
_geom_bond_atom_site_label_1
_geom_bond_atom_site_label_2
_geom_bond_distance
_geom_bond_site_symmetry_2
Li0 O8 2.132731 1_545
Li0 O10 2.141165 1_555
Li0 O0 2.156492 1_555
Li0 O6 2.163612 1_555
Li0 O3 2.508663 1_655
Li1 O11 1.958675 1_555
Li1 O3 2.010294 1_555
Li1 O7 2.131334 1_555
Li1 O9 2.183282 1_555
Li2 O6 2.132731 1_555
Li2 O12 2.141165 1_555
Li2 O1 2.156492 1_555
Li2 O8 2.163612 1_555
Li2 O5 2.508663 1_555
Li3 O13 1.958675 1_555
Li3 O5 2.010294 1_555
Li3 O9 2.131334 1_555
Li3 O7 2.183282 1_565
Li4 O6 1.958675 1_555
Li4 O14 2.010294 1_555
Li4 O10 2.131334 1_555
Li4 O12 2.183282 1_545
Li5 O13 2.132731 1_555
Li5 O7 2.141165 1_555
Li5 O18 2.156492 1_555
Li5 O11 2.163612 1_555
Li5 O14 2.508663 1_555
Li6 O8 1.958675 1_555
Li6 O16 2.010294 1_555
Li6 O12 2.131334 1_555
Li6 O10 2.183282 1_555
Li7 O11 2.132731 1_565
Li7 O9 2.141165 1_555
Li7 O19 2.156492 1_555
Li7 O13 2.163612 1_555
Li7 O16 2.508663 1_455
Fe0 O15 2.020293 1_454
Fe0 O18 2.034418 1_554
Fe0 O19 2.045263 1_554
Fe0 O3 2.069410 1_555
Fe0 O4 2.585984 1_545
Fe1 O17 2.020293 1_554
Fe1 O19 2.034418 1_554
Fe1 O18 2.045263 1_564
Fe1 O5 2.069410 1_555
Fe1 O2 2.585984 1_555
Fe2 O2 2.020293 1_556
Fe2 O0 2.034418 1_556
Fe2 O1 2.045263 1_546
Fe2 O14 2.069410 1_555
Fe2 O17 2.585984 1_555
Fe3 O4 2.020293 1_656
Fe3 O1 2.034418 1_556
Fe3 O0 2.045263 1_556
Fe3 O16 2.069410 1_555
Fe3 O15 2.585984 1_565
H0 O18 0.991319 1_554
H0 O2 1.681599 1_555
H1 O19 0.991319 1_554
H1 O4 1.681599 1_555
H2 O0 0.991319 1_556
H2 O15 1.681599 1_555
H3 O1 0.991319 1_556
H3 O17 1.681599 1_555
O2 P0 1.570677 1_555
O3 P1 1.577540 1_545
O4 P1 1.570677 1_555
O5 P0 1.577540 1_555
O6 P0 1.549600 1_555
O7 P0 1.542510 1_555
O8 P1 1.549600 1_655
O9 P1 1.542510 1_555
O10 P2 1.542510 1_555
O11 P2 1.549600 1_455
O12 P3 1.542510 1_555
O13 P3 1.549600 1_555
O14 P3 1.577540 1_555
O15 P2 1.570677 1_555
O16 P2 1.577540 1_565
O17 P3 1.570677 1_555
