# generated using pymatgen
data_CaTmPt2
_symmetry_space_group_name_H-M   'P 1'
_cell_length_a   4.89477982
_cell_length_b   4.89477982
_cell_length_c   4.89477982
_cell_angle_alpha   60.00000000
_cell_angle_beta   60.00000000
_cell_angle_gamma   60.00000000
_symmetry_Int_Tables_number   1
_chemical_formula_structural   CaTmPt2
_chemical_formula_sum   'Ca1 Tm1 Pt2'
_cell_volume   82.92480971
_cell_formula_units_Z   1
loop_
 _symmetry_equiv_pos_site_id
 _symmetry_equiv_pos_as_xyz
  1  'x, y, z'
loop_
 _atom_site_type_symbol
 _atom_site_label
 _atom_site_symmetry_multiplicity
 _atom_site_fract_x
 _atom_site_fract_y
 _atom_site_fract_z
 _atom_site_occupancy
  Ca  Ca0  1  0.50000000  0.50000000  0.50000000  1
  Tm  Tm0  1  0.00000000  0.00000000  0.00000000  1
  Pt  Pt0  1  0.25000000  0.25000000  0.25000000  1
  Pt  Pt1  1  0.75000000  0.75000000  0.75000000  1
loop_
_geom_bond_atom_site_label_1
_geom_bond_atom_site_label_2
_geom_bond_distance
_geom_bond_site_symmetry_2
Ca0 Pt0 2.997428 1_556
Ca0 Pt1 2.997428 1_554
Ca0 Pt1 2.997428 1_455
Ca0 Pt0 2.997428 1_655
Ca0 Pt0 2.997428 1_565
Ca0 Pt1 2.997428 1_555
Ca0 Pt1 2.997428 1_545
Ca0 Pt0 2.997428 1_555
Pt0 Tm0 2.997428 1_556
Pt0 Tm0 2.997428 1_565
Pt0 Tm0 2.997428 1_655
Pt0 Tm0 2.997428 1_555
Pt1 Tm0 2.997428 1_566
Pt1 Tm0 2.997428 1_666
Pt1 Tm0 2.997428 1_656
Pt1 Tm0 2.997428 1_665
