# generated using pymatgen
data_LiInF4
_symmetry_space_group_name_H-M   'P 1'
_cell_length_a   4.76349053
_cell_length_b   4.97500823
_cell_length_c   11.64541859
_cell_angle_alpha   90.00000000
_cell_angle_beta   90.00000000
_cell_angle_gamma   90.00000000
_symmetry_Int_Tables_number   1
_chemical_formula_structural   LiInF4
_chemical_formula_sum   'Li4 In4 F16'
_cell_volume   275.97784137
_cell_formula_units_Z   4
loop_
 _symmetry_equiv_pos_site_id
 _symmetry_equiv_pos_as_xyz
  1  'x, y, z'
loop_
 _atom_site_type_symbol
 _atom_site_label
 _atom_site_symmetry_multiplicity
 _atom_site_fract_x
 _atom_site_fract_y
 _atom_site_fract_z
 _atom_site_occupancy
  Li  Li0  1  -0.00000000  0.75000000  0.05483986  1
  Li  Li1  1  0.50000000  0.25000000  0.44516014  1
  Li  Li2  1  -0.00000000  0.25000000  0.94516014  1
  Li  Li3  1  0.50000000  0.75000000  0.55483986  1
  In  In0  1  -0.00000000  0.75000000  0.33265590  1
  In  In1  1  0.50000000  0.75000000  0.83265590  1
  In  In2  1  -0.00000000  0.25000000  0.66734410  1
  In  In3  1  0.50000000  0.25000000  0.16734410  1
  F  F0  1  0.23493489  0.43363497  0.05561744  1
  F  F1  1  0.77264255  0.08466794  0.80913271  1
  F  F2  1  0.27264255  0.91533206  0.69086729  1
  F  F3  1  0.72735745  0.58466794  0.69086729  1
  F  F4  1  0.73493489  0.56636503  0.44438256  1
  F  F5  1  0.26506511  0.43363497  0.55561744  1
  F  F6  1  0.76506511  0.06636503  0.05561744  1
  F  F7  1  0.26506511  0.93363497  0.44438256  1
  F  F8  1  0.23493489  0.93363497  0.94438256  1
  F  F9  1  0.76506511  0.56636503  0.94438256  1
  F  F10  1  0.22735745  0.91533206  0.19086729  1
  F  F11  1  0.73493489  0.06636503  0.55561744  1
  F  F12  1  0.77264255  0.58466794  0.19086729  1
  F  F13  1  0.27264255  0.41533206  0.30913271  1
  F  F14  1  0.72735745  0.08466794  0.30913271  1
  F  F15  1  0.22735745  0.41533206  0.80913271  1
loop_
_geom_bond_atom_site_label_1
_geom_bond_atom_site_label_2
_geom_bond_distance
_geom_bond_site_symmetry_2
F0 Li0 1.931246 1_555
F0 Li2 1.934339 1_554
F0 In3 2.030211 1_555
F1 Li2 2.087783 1_655
F1 In1 2.129292 1_545
F1 In2 2.139134 1_655
F2 Li3 2.087783 1_555
F2 In2 2.129292 1_565
F2 In1 2.139134 1_555
F3 Li3 2.087783 1_555
F3 In2 2.129292 1_655
F3 In1 2.139134 1_555
F4 Li1 1.931246 1_555
F4 Li3 1.934339 1_555
F4 In0 2.030211 1_655
F5 Li3 1.931246 1_555
F5 Li1 1.934339 1_555
F5 In2 2.030211 1_555
F6 Li0 1.931246 1_645
F6 Li2 1.934339 1_654
F6 In3 2.030211 1_555
F7 Li1 1.931246 1_565
F7 Li3 1.934339 1_555
F7 In0 2.030211 1_555
F8 Li2 1.931246 1_565
F8 Li0 1.934339 1_556
F8 In1 2.030211 1_555
F9 Li2 1.931246 1_655
F9 Li0 1.934339 1_656
F9 In1 2.030211 1_555
F10 Li0 2.087783 1_555
F10 In3 2.129292 1_565
F10 In0 2.139134 1_555
F11 Li3 1.931246 1_545
F11 Li1 1.934339 1_555
F11 In2 2.030211 1_655
F12 Li0 2.087783 1_655
F12 In3 2.129292 1_555
F12 In0 2.139134 1_655
F13 Li1 2.087783 1_555
F13 In0 2.129292 1_555
F13 In3 2.139134 1_555
F14 Li1 2.087783 1_555
F14 In0 2.129292 1_645
F14 In3 2.139134 1_555
F15 Li2 2.087783 1_555
F15 In1 2.129292 1_555
F15 In2 2.139134 1_555
