# generated using pymatgen
data_Cd4P6SN12
_symmetry_space_group_name_H-M   'P 1'
_cell_length_a   7.41173812
_cell_length_b   7.41173812
_cell_length_c   7.41173812
_cell_angle_alpha   109.47122063
_cell_angle_beta   109.47122063
_cell_angle_gamma   109.47122063
_symmetry_Int_Tables_number   1
_chemical_formula_structural   Cd4P6SN12
_chemical_formula_sum   'Cd4 P6 S1 N12'
_cell_volume   313.42837238
_cell_formula_units_Z   1
loop_
 _symmetry_equiv_pos_site_id
 _symmetry_equiv_pos_as_xyz
  1  'x, y, z'
loop_
 _atom_site_type_symbol
 _atom_site_label
 _atom_site_symmetry_multiplicity
 _atom_site_fract_x
 _atom_site_fract_y
 _atom_site_fract_z
 _atom_site_occupancy
  Cd  Cd0  1  0.66379900  0.00000000  0.00000000  1
  Cd  Cd1  1  0.00000000  0.00000000  0.66379900  1
  Cd  Cd2  1  0.00000000  0.66379900  0.00000000  1
  Cd  Cd3  1  0.33620100  0.33620100  0.33620100  1
  P  P0  1  0.25000000  0.75000000  0.50000000  1
  P  P1  1  0.75000000  0.25000000  0.50000000  1
  P  P2  1  0.75000000  0.50000000  0.25000000  1
  P  P3  1  0.25000000  0.50000000  0.75000000  1
  P  P4  1  0.50000000  0.75000000  0.25000000  1
  P  P5  1  0.50000000  0.25000000  0.75000000  1
  S  S0  1  0.00000000  0.00000000  0.00000000  1
  N  N0  1  0.71019400  0.28516800  0.28516800  1
  N  N1  1  0.28516800  0.71019400  0.28516800  1
  N  N2  1  0.28980600  0.57497400  0.57497400  1
  N  N3  1  0.57497400  0.57497400  0.28980600  1
  N  N4  1  0.42502600  0.71483200  0.00000000  1
  N  N5  1  0.00000000  0.71483200  0.42502600  1
  N  N6  1  0.57497400  0.28980600  0.57497400  1
  N  N7  1  0.71483200  0.00000000  0.42502600  1
  N  N8  1  0.42502600  0.00000000  0.71483200  1
  N  N9  1  0.71483200  0.42502600  0.00000000  1
  N  N10  1  0.28516800  0.28516800  0.71019400  1
  N  N11  1  0.00000000  0.42502600  0.71483200  1
loop_
_geom_bond_atom_site_label_1
_geom_bond_atom_site_label_2
_geom_bond_distance
_geom_bond_site_symmetry_2
Cd0 N4 2.259544 1_545
Cd0 N8 2.259544 1_554
Cd0 N0 2.259544 1_555
Cd0 S0 2.491834 1_655
Cd1 N7 2.259544 1_455
Cd1 N5 2.259544 1_545
Cd1 N10 2.259544 1_555
Cd1 S0 2.491834 1_556
Cd2 N9 2.259544 1_455
Cd2 N1 2.259544 1_555
Cd2 N11 2.259544 1_554
Cd2 S0 2.491834 1_565
Cd3 N3 2.259544 1_555
Cd3 N2 2.259544 1_555
Cd3 N6 2.259544 1_555
Cd3 S0 2.491834 1_555
N0 P1 1.644723 1_555
N0 P2 1.644723 1_555
N1 P0 1.644723 1_555
N1 P4 1.644723 1_555
N2 P0 1.644723 1_555
N2 P3 1.644723 1_555
N3 P2 1.644723 1_555
N3 P4 1.644723 1_555
N4 P3 1.644723 1_554
N4 P4 1.644723 1_555
N5 P0 1.644723 1_555
N5 P2 1.644723 1_455
N6 P5 1.644723 1_555
N6 P1 1.644723 1_555
N7 P1 1.644723 1_555
N7 P4 1.644723 1_545
N8 P0 1.644723 1_545
N8 P5 1.644723 1_555
N9 P2 1.644723 1_555
N9 P5 1.644723 1_554
N10 P5 1.644723 1_555
N10 P3 1.644723 1_555
N11 P1 1.644723 1_455
N11 P3 1.644723 1_555
