# generated using pymatgen
data_Ti2AlRe
_symmetry_space_group_name_H-M   'P 1'
_cell_length_a   4.43418107
_cell_length_b   4.43407955
_cell_length_c   4.43414171
_cell_angle_alpha   59.99568200
_cell_angle_beta   59.99448456
_cell_angle_gamma   59.99707817
_symmetry_Int_Tables_number   1
_chemical_formula_structural   Ti2AlRe
_chemical_formula_sum   'Ti2 Al1 Re1'
_cell_volume   61.64099006
_cell_formula_units_Z   1
loop_
 _symmetry_equiv_pos_site_id
 _symmetry_equiv_pos_as_xyz
  1  'x, y, z'
loop_
 _atom_site_type_symbol
 _atom_site_label
 _atom_site_symmetry_multiplicity
 _atom_site_fract_x
 _atom_site_fract_y
 _atom_site_fract_z
 _atom_site_occupancy
  Ti  Ti0  1  0.00000135  0.00000201  0.00001186  1
  Ti  Ti1  1  0.49999960  0.49999703  0.49998702  1
  Al  Al0  1  0.24999837  0.25000010  0.25000087  1
  Re  Re0  1  0.74999968  0.74999986  0.74999926  1
loop_
_geom_bond_atom_site_label_1
_geom_bond_atom_site_label_2
_geom_bond_distance
_geom_bond_site_symmetry_2
Al0 Ti0 2.715204 1_556
Al0 Ti0 2.715204 1_565
Al0 Ti1 2.715208 1_545
Al0 Ti1 2.715214 1_554
Al0 Ti1 2.715222 1_455
Al0 Ti0 2.715237 1_655
Al0 Ti0 2.715371 1_555
Al0 Ti1 2.715372 1_555
Al0 Re0 3.135236 1_445
Al0 Re0 3.135243 1_554
Al0 Re0 3.135286 1_455
Al0 Re0 3.135298 1_544
Al0 Re0 3.135384 1_545
Al0 Re0 3.135386 1_454
Re0 Ti0 2.715119 1_665
Re0 Ti1 2.715120 1_556
Re0 Ti1 2.715187 1_565
Re0 Ti0 2.715189 1_656
Re0 Ti0 2.715221 1_566
Re0 Ti1 2.715226 1_655
Re0 Ti1 2.715484 1_555
Re0 Ti0 2.715488 1_666
