# generated using pymatgen
data_Li2Fe3P4(HO4)4
_symmetry_space_group_name_H-M   'P 1'
_cell_length_a   8.18650800
_cell_length_b   8.86729400
_cell_length_c   9.11082408
_cell_angle_alpha   80.20354706
_cell_angle_beta   90.00000000
_cell_angle_gamma   90.00000000
_symmetry_Int_Tables_number   1
_chemical_formula_structural   Li2Fe3P4(HO4)4
_chemical_formula_sum   'Li4 Fe6 P8 H8 O32'
_cell_volume   651.73064422
_cell_formula_units_Z   2
loop_
 _symmetry_equiv_pos_site_id
 _symmetry_equiv_pos_as_xyz
  1  'x, y, z'
loop_
 _atom_site_type_symbol
 _atom_site_label
 _atom_site_symmetry_multiplicity
 _atom_site_fract_x
 _atom_site_fract_y
 _atom_site_fract_z
 _atom_site_occupancy
  Li  Li0  1  0.33330600  0.00203300  0.02828700  1
  Li  Li1  1  0.16669400  0.00203300  0.52828700  1
  Li  Li2  1  0.83330600  0.99796700  0.47171300  1
  Li  Li3  1  0.66669400  0.99796700  0.97171300  1
  Fe  Fe0  1  0.50000000  0.50000000  0.00000000  1
  Fe  Fe1  1  0.14110000  0.64416700  0.00630200  1
  Fe  Fe2  1  0.64110000  0.35583300  0.49369800  1
  Fe  Fe3  1  0.00000000  0.50000000  0.50000000  1
  Fe  Fe4  1  0.35890000  0.64416700  0.50630200  1
  Fe  Fe5  1  0.85890000  0.35583300  0.99369800  1
  P  P0  1  0.56130200  0.17685000  0.22864300  1
  P  P1  1  0.80125600  0.61294800  0.20359800  1
  P  P2  1  0.30125600  0.38705200  0.29640200  1
  P  P3  1  0.06130200  0.82315000  0.27135700  1
  P  P4  1  0.93869800  0.17685000  0.72864300  1
  P  P5  1  0.69874400  0.61294800  0.70359800  1
  P  P6  1  0.19874400  0.38705200  0.79640200  1
  P  P7  1  0.43869800  0.82315000  0.77135700  1
  H  H0  1  0.99478000  0.11656300  0.21259100  1
  H  H1  1  0.03389900  0.28387800  0.23310900  1
  H  H2  1  0.53389900  0.71612200  0.26689100  1
  H  H3  1  0.49478000  0.88343700  0.28740900  1
  H  H4  1  0.50522000  0.11656300  0.71259100  1
  H  H5  1  0.46610100  0.28387800  0.73310900  1
  H  H6  1  0.96610100  0.71612200  0.76689100  1
  H  H7  1  0.00522000  0.88343700  0.78740900  1
  O  O0  1  0.62918700  0.31372000  0.11948500  1
  O  O1  1  0.99408400  0.22292600  0.15731500  1
  O  O2  1  0.92564800  0.54643600  0.10765900  1
  O  O3  1  0.53340900  0.03842300  0.14963100  1
  O  O4  1  0.29084500  0.48774000  0.14115400  1
  O  O5  1  0.63524900  0.65018200  0.12994200  1
  O  O6  1  0.15922600  0.85763400  0.12608900  1
  O  O7  1  0.37465300  0.22140400  0.27184300  1
  O  O8  1  0.87465300  0.77859600  0.22815700  1
  O  O9  1  0.65922600  0.14236600  0.37391100  1
  O  O10  1  0.13524900  0.34981800  0.37005800  1
  O  O11  1  0.79084500  0.51226000  0.35884600  1
  O  O12  1  0.03340900  0.96157700  0.35036900  1
  O  O13  1  0.42564800  0.45356400  0.39234100  1
  O  O14  1  0.49408400  0.77707400  0.34268500  1
  O  O15  1  0.12918700  0.68628000  0.38051500  1
  O  O16  1  0.87081300  0.31372000  0.61948500  1
  O  O17  1  0.50591600  0.22292600  0.65731500  1
  O  O18  1  0.57435200  0.54643600  0.60765900  1
  O  O19  1  0.96659100  0.03842300  0.64963100  1
  O  O20  1  0.20915500  0.48774000  0.64115400  1
  O  O21  1  0.86475100  0.65018200  0.62994200  1
  O  O22  1  0.34077400  0.85763400  0.62608900  1
  O  O23  1  0.12534700  0.22140400  0.77184300  1
  O  O24  1  0.62534700  0.77859600  0.72815700  1
  O  O25  1  0.84077400  0.14236600  0.87391100  1
  O  O26  1  0.36475100  0.34981800  0.87005800  1
  O  O27  1  0.70915500  0.51226000  0.85884600  1
  O  O28  1  0.46659100  0.96157700  0.85036900  1
  O  O29  1  0.07435200  0.45356400  0.89234100  1
  O  O30  1  0.00591600  0.77707400  0.84268500  1
  O  O31  1  0.37081300  0.68628000  0.88051500  1
loop_
_geom_bond_atom_site_label_1
_geom_bond_atom_site_label_2
_geom_bond_distance
_geom_bond_site_symmetry_2
Li0 O6 2.018949 1_545
Li0 O3 2.032551 1_555
Li0 O28 2.035862 1_544
Li1 O22 2.018949 1_545
Li1 O19 2.032551 1_455
Li1 O12 2.035862 1_545
Li2 O9 2.018949 1_565
Li2 O12 2.032551 1_655
Li2 O19 2.035862 1_565
Li3 O25 2.018949 1_565
Li3 O28 2.032551 1_555
Li3 O3 2.035862 1_566
Fe0 O31 2.102402 1_554
Fe0 O0 2.102402 1_555
Fe0 O27 2.133052 1_554
Fe0 O4 2.133052 1_555
Fe0 O5 2.222037 1_555
Fe0 O26 2.222037 1_554
Fe1 O30 2.058635 1_554
Fe1 O4 2.087191 1_555
Fe1 O2 2.107706 1_455
Fe1 O29 2.197800 1_554
Fe1 O31 2.200828 1_554
Fe1 O6 2.345004 1_555
Fe2 O17 2.058635 1_555
Fe2 O11 2.087191 1_555
Fe2 O13 2.107706 1_555
Fe2 O18 2.197800 1_555
Fe2 O16 2.200828 1_555
Fe2 O9 2.345004 1_555
Fe3 O16 2.102402 1_455
Fe3 O15 2.102402 1_555
Fe3 O11 2.133052 1_455
Fe3 O20 2.133052 1_555
Fe3 O21 2.222037 1_455
Fe3 O10 2.222037 1_555
Fe4 O14 2.058635 1_555
Fe4 O20 2.087191 1_555
Fe4 O18 2.107706 1_555
Fe4 O13 2.197800 1_555
Fe4 O15 2.200828 1_555
Fe4 O22 2.345004 1_555
Fe5 O1 2.058635 1_556
Fe5 O27 2.087191 1_555
Fe5 O29 2.107706 1_655
Fe5 O2 2.197800 1_556
Fe5 O0 2.200828 1_556
Fe5 O25 2.345004 1_555
H0 O1 0.990735 1_555
H0 O12 1.725507 1_645
H1 O1 1.001109 1_455
H1 O10 1.683852 1_555
H2 O14 1.001109 1_555
H2 O5 1.683852 1_555
H3 O14 0.990735 1_555
H3 O3 1.725507 1_565
H4 O17 0.990735 1_555
H4 O28 1.725507 1_545
H5 O17 1.001109 1_555
H5 O26 1.683852 1_555
H6 O30 1.001109 1_655
H6 O21 1.683852 1_555
H7 O30 0.990735 1_555
H7 O19 1.725507 1_465
O0 P0 1.536281 1_555
O2 P1 1.524566 1_555
O3 P0 1.541988 1_555
O4 P2 1.541200 1_555
O5 P1 1.526719 1_555
O6 P3 1.533009 1_555
O7 P2 1.637213 1_555
O7 P0 1.642773 1_555
O8 P1 1.637213 1_555
O8 P3 1.642773 1_655
O9 P0 1.533009 1_555
O10 P2 1.526719 1_555
O11 P1 1.541200 1_555
O12 P3 1.541988 1_555
O13 P2 1.524566 1_555
O15 P3 1.536281 1_555
O16 P4 1.536281 1_555
O18 P5 1.524566 1_555
O19 P4 1.541988 1_555
O20 P6 1.541200 1_555
O21 P5 1.526719 1_555
O22 P7 1.533009 1_555
O23 P6 1.637213 1_555
O23 P4 1.642773 1_455
O24 P5 1.637213 1_555
O24 P7 1.642773 1_555
O25 P4 1.533009 1_555
O26 P6 1.526719 1_555
O27 P5 1.541200 1_555
O28 P7 1.541988 1_555
O29 P6 1.524566 1_555
O31 P7 1.536281 1_555
