# generated using pymatgen
data_Hf2IrRh
_symmetry_space_group_name_H-M   'P 1'
_cell_length_a   4.60287842
_cell_length_b   4.60264210
_cell_length_c   4.60295263
_cell_angle_alpha   60.00431816
_cell_angle_beta   60.00054450
_cell_angle_gamma   60.00910653
_symmetry_Int_Tables_number   1
_chemical_formula_structural   Hf2IrRh
_chemical_formula_sum   'Hf2 Ir1 Rh1'
_cell_volume   68.96108055
_cell_formula_units_Z   1
loop_
 _symmetry_equiv_pos_site_id
 _symmetry_equiv_pos_as_xyz
  1  'x, y, z'
loop_
 _atom_site_type_symbol
 _atom_site_label
 _atom_site_symmetry_multiplicity
 _atom_site_fract_x
 _atom_site_fract_y
 _atom_site_fract_z
 _atom_site_occupancy
  Hf  Hf0  1  0.99999018  0.99999251  0.99999217  1
  Hf  Hf1  1  0.50000900  0.50000556  0.50000681  1
  Ir  Ir0  1  0.25000089  0.24999699  0.24999705  1
  Rh  Rh0  1  0.74999993  0.75000294  0.75000297  1
loop_
_geom_bond_atom_site_label_1
_geom_bond_atom_site_label_2
_geom_bond_distance
_geom_bond_site_symmetry_2
Hf0 Rh0 2.818427 1_555
Hf0 Ir0 2.818619 1_666
Hf0 Ir0 2.818742 1_665
Hf0 Ir0 2.818796 1_656
Hf0 Rh0 2.818801 1_556
Hf0 Ir0 2.818811 1_566
Hf0 Rh0 2.818852 1_565
Hf0 Rh0 2.818887 1_655
Hf1 Rh0 2.818485 1_555
Hf1 Ir0 2.818643 1_555
Hf1 Ir0 2.818724 1_556
Hf1 Rh0 2.818775 1_554
Hf1 Ir0 2.818781 1_565
Hf1 Ir0 2.818820 1_655
Hf1 Rh0 2.818823 1_545
Hf1 Rh0 2.818885 1_455
