# generated using pymatgen
data_Li3V3O5F3
_symmetry_space_group_name_H-M   'P 1'
_cell_length_a   5.88141500
_cell_length_b   5.97065644
_cell_length_c   6.02746555
_cell_angle_alpha   119.38202679
_cell_angle_beta   89.78977914
_cell_angle_gamma   118.82156780
_symmetry_Int_Tables_number   1
_chemical_formula_structural   Li3V3O5F3
_chemical_formula_sum   'Li3 V3 O5 F3'
_cell_volume   153.88702153
_cell_formula_units_Z   1
loop_
 _symmetry_equiv_pos_site_id
 _symmetry_equiv_pos_as_xyz
  1  'x, y, z'
loop_
 _atom_site_type_symbol
 _atom_site_label
 _atom_site_symmetry_multiplicity
 _atom_site_fract_x
 _atom_site_fract_y
 _atom_site_fract_z
 _atom_site_occupancy
  Li  Li0  1  0.01159900  0.98653200  0.02355600  1
  Li  Li1  1  0.74726200  0.01293400  0.23271900  1
  Li  Li2  1  0.37073400  0.50064900  0.62407900  1
  V  V0  1  0.35721200  0.00339800  0.60489500  1
  V  V1  1  0.36391000  0.48017900  0.13149000  1
  V  V2  1  0.87680200  0.00358300  0.62435100  1
  O  O0  1  0.15452700  0.01345900  0.38123100  1
  O  O1  1  0.60686700  0.46358300  0.36951800  1
  O  O2  1  0.60972100  0.58981400  0.82966700  1
  O  O3  1  0.15383000  0.41687100  0.42826200  1
  O  O4  1  0.14245700  0.54849100  0.86874400  1
  F  F0  1  0.62795100  0.99932100  0.38399200  1
  F  F1  1  0.12359200  0.99183500  0.87230800  1
  F  F2  1  0.60353500  0.98935300  0.87518700  1
loop_
_geom_bond_atom_site_label_1
_geom_bond_atom_site_label_2
_geom_bond_distance
_geom_bond_site_symmetry_2
Li0 O0 2.218820 1_565
Li2 O3 1.444700 1_555
Li2 O2 1.561600 1_555
Li2 O4 2.000200 1_555
Li2 O1 2.068692 1_555
Li2 O0 2.119006 1_555
O0 V0 1.844559 1_555
O0 V2 2.189355 1_455
O1 V1 2.097881 1_555
O1 V2 2.344800 1_565
O2 V1 2.462716 1_556
O2 V0 2.578117 1_555
O3 V1 2.250823 1_555
O3 V0 2.672077 1_565
O4 V1 2.352019 1_556
O4 V2 2.368352 1_455
F0 Li1 1.159058 1_565
F0 V2 2.045759 1_565
F0 V0 2.073395 1_565
F0 V1 2.254513 1_555
F1 Li0 1.126836 1_556
F1 V0 2.119467 1_565
F1 V1 2.124347 1_566
F1 V2 2.135962 1_465
F2 Li2 2.123483 1_555
F2 V2 2.202888 1_565
F2 Li1 2.231446 1_566
F2 V0 2.242447 1_565
