# generated using pymatgen
data_Ca3SnS5
_symmetry_space_group_name_H-M   'P 1'
_cell_length_a   8.61871800
_cell_length_b   8.71217500
_cell_length_c   12.18189500
_cell_angle_alpha   90.00000000
_cell_angle_beta   90.00000000
_cell_angle_gamma   90.00000000
_symmetry_Int_Tables_number   1
_chemical_formula_structural   Ca3SnS5
_chemical_formula_sum   'Ca12 Sn4 S20'
_cell_volume   914.71144555
_cell_formula_units_Z   4
loop_
 _symmetry_equiv_pos_site_id
 _symmetry_equiv_pos_as_xyz
  1  'x, y, z'
loop_
 _atom_site_type_symbol
 _atom_site_label
 _atom_site_symmetry_multiplicity
 _atom_site_fract_x
 _atom_site_fract_y
 _atom_site_fract_z
 _atom_site_occupancy
  Ca  Ca0  1  0.51121800  0.10995900  0.20293600  1
  Ca  Ca1  1  0.98878200  0.39004100  0.70293600  1
  Ca  Ca2  1  0.01121800  0.89004100  0.79706400  1
  Ca  Ca3  1  0.48878200  0.60995900  0.29706400  1
  Ca  Ca4  1  0.48878200  0.89004100  0.79706400  1
  Ca  Ca5  1  0.01121800  0.60995900  0.29706400  1
  Ca  Ca6  1  0.98878200  0.10995900  0.20293600  1
  Ca  Ca7  1  0.51121800  0.39004100  0.70293600  1
  Ca  Ca8  1  0.25000000  0.11007900  0.50934000  1
  Ca  Ca9  1  0.25000000  0.38992100  0.00934000  1
  Ca  Ca10  1  0.75000000  0.88992100  0.49066000  1
  Ca  Ca11  1  0.75000000  0.61007900  0.99066000  1
  Sn  Sn0  1  0.25000000  0.81785400  0.09252500  1
  Sn  Sn1  1  0.25000000  0.68214600  0.59252500  1
  Sn  Sn2  1  0.75000000  0.18214600  0.90747500  1
  Sn  Sn3  1  0.75000000  0.31785400  0.40747500  1
  S  S0  1  0.95546400  0.13998100  0.42804100  1
  S  S1  1  0.54453600  0.36001900  0.92804100  1
  S  S2  1  0.45546400  0.86001900  0.57195900  1
  S  S3  1  0.04453600  0.63998100  0.07195900  1
  S  S4  1  0.04453600  0.86001900  0.57195900  1
  S  S5  1  0.45546400  0.63998100  0.07195900  1
  S  S6  1  0.54453600  0.13998100  0.42804100  1
  S  S7  1  0.95546400  0.36001900  0.92804100  1
  S  S8  1  0.25000000  0.02199800  0.96204800  1
  S  S9  1  0.25000000  0.47800200  0.46204800  1
  S  S10  1  0.75000000  0.97800200  0.03795200  1
  S  S11  1  0.75000000  0.52199800  0.53795200  1
  S  S12  1  0.25000000  0.29707100  0.21945700  1
  S  S13  1  0.25000000  0.20292900  0.71945700  1
  S  S14  1  0.75000000  0.70292900  0.78054300  1
  S  S15  1  0.75000000  0.79707100  0.28054300  1
  S  S16  1  0.25000000  0.86772500  0.28961600  1
  S  S17  1  0.25000000  0.63227500  0.78961600  1
  S  S18  1  0.75000000  0.13227500  0.71038400  1
  S  S19  1  0.75000000  0.36772500  0.21038400  1
loop_
_geom_bond_atom_site_label_1
_geom_bond_atom_site_label_2
_geom_bond_distance
_geom_bond_site_symmetry_2
Ca0 S6 2.769578 1_555
Ca0 S12 2.786852 1_555
Ca0 S19 3.047418 1_555
Ca0 S10 3.097800 1_545
Ca0 S16 3.261495 1_545
Ca1 S7 2.769578 1_555
Ca1 S13 2.786852 1_655
Ca1 S18 3.047418 1_555
Ca1 S11 3.097800 1_555
Ca1 S17 3.261495 1_655
Ca2 S4 2.769578 1_555
Ca2 S14 2.786852 1_455
Ca2 S17 3.047418 1_555
Ca2 S8 3.097800 1_565
Ca2 S18 3.261495 1_465
Ca3 S5 2.769578 1_555
Ca3 S15 2.786852 1_555
Ca3 S16 3.047418 1_555
Ca3 S9 3.097800 1_555
Ca3 S19 3.261495 1_555
Ca4 S2 2.769578 1_555
Ca4 S14 2.786852 1_555
Ca4 S17 3.047418 1_555
Ca4 S8 3.097800 1_565
Ca4 S18 3.261495 1_565
Ca5 S3 2.769578 1_555
Ca5 S15 2.786852 1_455
Ca5 S16 3.047418 1_555
Ca5 S9 3.097800 1_555
Ca5 S19 3.261495 1_455
Ca6 S0 2.769578 1_555
Ca6 S12 2.786852 1_655
Ca6 S19 3.047418 1_555
Ca6 S10 3.097800 1_545
Ca6 S16 3.261495 1_645
Ca7 S1 2.769578 1_555
Ca7 S13 2.786852 1_555
Ca7 S18 3.047418 1_555
Ca7 S11 3.097800 1_555
Ca7 S17 3.261495 1_555
Ca8 S13 2.684405 1_555
Ca8 S6 2.737299 1_555
Ca8 S0 2.737299 1_455
Ca8 S2 2.909279 1_545
Ca8 S4 2.909279 1_545
Ca8 S9 3.256770 1_555
Ca8 S16 3.409196 1_545
Ca9 S12 2.684405 1_555
Ca9 S1 2.737299 1_554
Ca9 S7 2.737299 1_454
Ca9 S5 2.909279 1_555
Ca9 S3 2.909279 1_555
Ca9 S8 3.256770 1_554
Ca9 S17 3.409196 1_554
Ca10 S15 2.684405 1_555
Ca10 S4 2.737299 1_655
Ca10 S2 2.737299 1_555
Ca10 S6 2.909279 1_565
Ca10 S0 2.909279 1_565
Ca10 S11 3.256770 1_555
Ca10 S18 3.409196 1_565
Ca11 S14 2.684405 1_555
Ca11 S3 2.737299 1_656
Ca11 S5 2.737299 1_556
Ca11 S1 2.909279 1_555
Ca11 S7 2.909279 1_555
Ca11 S10 3.256770 1_556
Ca11 S19 3.409196 1_556
S0 Sn3 2.366448 1_555
S1 Sn2 2.366448 1_555
S2 Sn1 2.366448 1_555
S3 Sn0 2.366448 1_555
S4 Sn1 2.366448 1_555
S5 Sn0 2.366448 1_555
S6 Sn3 2.366448 1_555
S7 Sn2 2.366448 1_555
S8 Sn0 2.385282 1_546
S9 Sn1 2.385282 1_555
S10 Sn2 2.385282 1_564
S11 Sn3 2.385282 1_555
S16 Sn0 2.439938 1_555
S17 Sn1 2.439938 1_555
S18 Sn2 2.439938 1_555
S19 Sn3 2.439938 1_555
