# generated using pymatgen
data_Mn21O40
_symmetry_space_group_name_H-M   'P 1'
_cell_length_a   5.89819749
_cell_length_b   5.89819749
_cell_length_c   21.10200917
_cell_angle_alpha   82.20490336
_cell_angle_beta   82.20490336
_cell_angle_gamma   90.89230893
_symmetry_Int_Tables_number   1
_chemical_formula_structural   Mn21O40
_chemical_formula_sum   'Mn21 O40'
_cell_volume   720.17605719
_cell_formula_units_Z   1
loop_
 _symmetry_equiv_pos_site_id
 _symmetry_equiv_pos_as_xyz
  1  'x, y, z'
loop_
 _atom_site_type_symbol
 _atom_site_label
 _atom_site_symmetry_multiplicity
 _atom_site_fract_x
 _atom_site_fract_y
 _atom_site_fract_z
 _atom_site_occupancy
  Mn  Mn0  1  0.60065100  0.50034000  0.64940600  1
  Mn  Mn1  1  0.79860200  0.69980500  0.25174900  1
  Mn  Mn2  1  0.69999600  0.09981500  0.45015100  1
  Mn  Mn3  1  0.70271600  0.59056600  0.94724400  1
  Mn  Mn4  1  0.90006000  0.80011300  0.54981600  1
  Mn  Mn5  1  0.70621200  0.10457000  0.94930600  1
  Mn  Mn6  1  0.90018500  0.30000400  0.54984900  1
  Mn  Mn7  1  0.09145200  0.49979200  0.15287900  1
  Mn  Mn8  1  0.99656300  0.90358000  0.84552200  1
  Mn  Mn9  1  0.89543000  0.29378800  0.05069400  1
  Mn  Mn10  1  0.10015300  0.50082900  0.64937800  1
  Mn  Mn11  1  0.29997700  0.69865800  0.25110100  1
  Mn  Mn12  1  0.19988700  0.09994000  0.45018400  1
  Mn  Mn13  1  0.09642000  0.00343700  0.15447800  1
  Mn  Mn14  1  0.16759400  0.83240600  0.00000000  1
  Mn  Mn15  1  0.30134200  0.70002300  0.74889900  1
  Mn  Mn16  1  0.49917100  0.89984700  0.35062200  1
  Mn  Mn17  1  0.30019500  0.20139800  0.74825100  1
  Mn  Mn18  1  0.49966000  0.39934900  0.35059400  1
  Mn  Mn19  1  0.50020800  0.90854800  0.84712100  1
  Mn  Mn20  1  0.40943400  0.29728400  0.05275600  1
  O  O0  1  0.71918800  0.65503200  0.34534100  1
  O  O1  1  0.71417200  0.14919500  0.35625400  1
  O  O2  1  0.67972700  0.54455500  0.55557500  1
  O  O3  1  0.87543700  0.74788300  0.15847100  1
  O  O4  1  0.68560000  0.05053900  0.54402900  1
  O  O5  1  0.73921100  0.68812500  0.85193600  1
  O  O6  1  0.94453200  0.87945900  0.45588000  1
  O  O7  1  0.66435100  0.51370700  0.04454300  1
  O  O8  1  0.85565500  0.72092300  0.64377200  1
  O  O9  1  0.05449600  0.91963700  0.24715800  1
  O  O10  1  0.75057200  0.11928900  0.85373900  1
  O  O11  1  0.94946100  0.31440000  0.45597100  1
  O  O12  1  0.67999600  0.05924500  0.04156700  1
  O  O13  1  0.85080500  0.28582800  0.64374600  1
  O  O14  1  0.04838600  0.48472500  0.24612500  1
  O  O15  1  0.92431300  0.85257900  0.94082100  1
  O  O16  1  0.94075500  0.32000400  0.95843300  1
  O  O17  1  0.11468600  0.54990700  0.55561000  1
  O  O18  1  0.31032400  0.75028900  0.15742700  1
  O  O19  1  0.12054100  0.05546800  0.54412000  1
  O  O20  1  0.08036300  0.94550400  0.75284200  1
  O  O21  1  0.08571300  0.45158700  0.74317800  1
  O  O22  1  0.88071100  0.24942800  0.14626100  1
  O  O23  1  0.28507700  0.64969000  0.34470800  1
  O  O24  1  0.27907700  0.14434500  0.35622800  1
  O  O25  1  0.12642800  0.52992000  0.05849300  1
  O  O26  1  0.35031000  0.71492300  0.65529200  1
  O  O27  1  0.54841300  0.91428700  0.25682200  1
  O  O28  1  0.24971100  0.68967600  0.84257300  1
  O  O29  1  0.45009300  0.88531400  0.44439000  1
  O  O30  1  0.34496800  0.28081200  0.65465900  1
  O  O31  1  0.54449500  0.47909100  0.25662500  1
  O  O32  1  0.14742100  0.07568700  0.05917900  1
  O  O33  1  0.25211700  0.12456300  0.84152900  1
  O  O34  1  0.45544500  0.32027300  0.44442500  1
  O  O35  1  0.51527500  0.95161400  0.75387500  1
  O  O36  1  0.31187500  0.26078900  0.14806400  1
  O  O37  1  0.52090900  0.45550500  0.74337500  1
  O  O38  1  0.47008000  0.87357200  0.94150700  1
  O  O39  1  0.48629300  0.33564900  0.95545700  1
loop_
_geom_bond_atom_site_label_1
_geom_bond_atom_site_label_2
_geom_bond_distance
_geom_bond_site_symmetry_2
Mn0 O2 1.952349 1_555
Mn0 O8 1.953878 1_555
Mn0 O30 1.953975 1_555
Mn0 O37 1.955522 1_555
Mn0 O13 1.960457 1_555
Mn0 O26 1.961794 1_555
Mn1 O3 1.939799 1_555
Mn1 O0 1.947668 1_555
Mn1 O31 1.952612 1_555
Mn1 O9 1.958041 1_655
Mn1 O27 1.959960 1_555
Mn1 O14 1.961008 1_655
Mn2 O4 1.952824 1_555
Mn2 O11 1.953246 1_555
Mn2 O1 1.953352 1_555
Mn2 O29 1.954556 1_545
Mn2 O6 1.961428 1_545
Mn2 O34 1.961890 1_555
Mn3 O39 1.931241 1_555
Mn3 O15 1.986748 1_555
Mn3 O5 1.996776 1_555
Mn3 O7 2.022536 1_556
Mn3 O16 2.152007 1_555
Mn3 O38 2.178371 1_555
Mn4 O6 1.954631 1_555
Mn4 O19 1.954871 1_665
Mn4 O8 1.954949 1_555
Mn4 O2 1.955032 1_555
Mn4 O17 1.961269 1_655
Mn4 O4 1.961589 1_565
Mn5 O39 1.901156 1_555
Mn5 O16 1.910328 1_555
Mn5 O12 1.913540 1_556
Mn5 O38 1.971566 1_545
Mn5 O10 1.987855 1_555
Mn5 O15 1.991285 1_545
Mn6 O11 1.952824 1_555
Mn6 O4 1.953246 1_555
Mn6 O13 1.953352 1_555
Mn6 O17 1.954556 1_655
Mn6 O19 1.961428 1_655
Mn6 O2 1.961890 1_555
Mn7 O36 1.935949 1_555
Mn7 O14 1.939190 1_555
Mn7 O22 1.947055 1_455
Mn7 O25 1.957686 1_555
Mn7 O3 1.960254 1_455
Mn7 O18 1.967582 1_555
Mn8 O20 1.932132 1_655
Mn8 O5 1.942893 1_555
Mn8 O10 1.950132 1_565
Mn8 O33 1.962778 1_665
Mn8 O28 1.969719 1_655
Mn8 O15 1.978802 1_555
Mn9 O7 1.901156 1_555
Mn9 O12 1.910328 1_555
Mn9 O16 1.913540 1_554
Mn9 O25 1.971566 1_655
Mn9 O22 1.987855 1_555
Mn9 O32 1.991285 1_655
Mn10 O17 1.950440 1_555
Mn10 O21 1.951170 1_555
Mn10 O13 1.953311 1_455
Mn10 O26 1.954956 1_555
Mn10 O8 1.960046 1_455
Mn10 O30 1.960683 1_555
Mn11 O23 1.946869 1_555
Mn11 O18 1.951218 1_555
Mn11 O27 1.952146 1_555
Mn11 O14 1.955802 1_555
Mn11 O31 1.957946 1_555
Mn11 O9 1.965746 1_555
Mn12 O19 1.954631 1_555
Mn12 O6 1.954871 1_445
Mn12 O24 1.954949 1_555
Mn12 O34 1.955032 1_555
Mn12 O29 1.961269 1_545
Mn12 O11 1.961589 1_455
Mn13 O9 1.932132 1_545
Mn13 O36 1.942893 1_555
Mn13 O22 1.950132 1_455
Mn13 O3 1.962778 1_445
Mn13 O18 1.969719 1_545
Mn13 O32 1.978802 1_555
Mn14 O25 2.018276 1_555
Mn14 O38 2.018276 1_554
Mn14 O32 2.020825 1_565
Mn14 O15 2.020825 1_454
Mn15 O26 1.946869 1_555
Mn15 O28 1.951218 1_555
Mn15 O21 1.952146 1_555
Mn15 O35 1.955802 1_555
Mn15 O37 1.957946 1_555
Mn15 O20 1.965746 1_555
Mn16 O29 1.950440 1_555
Mn16 O27 1.951170 1_555
Mn16 O1 1.953311 1_565
Mn16 O23 1.954956 1_555
Mn16 O24 1.960046 1_565
Mn16 O0 1.960683 1_555
Mn17 O33 1.939799 1_555
Mn17 O30 1.947668 1_555
Mn17 O37 1.952612 1_555
Mn17 O20 1.958041 1_545
Mn17 O21 1.959960 1_555
Mn17 O35 1.961008 1_545
Mn18 O34 1.952349 1_555
Mn18 O24 1.953878 1_555
Mn18 O0 1.953975 1_555
Mn18 O31 1.955522 1_555
Mn18 O1 1.960457 1_555
Mn18 O23 1.961794 1_555
Mn19 O5 1.935949 1_555
Mn19 O35 1.939190 1_555
Mn19 O10 1.947055 1_565
Mn19 O38 1.957686 1_555
Mn19 O33 1.960254 1_565
Mn19 O28 1.967582 1_555
Mn20 O7 1.931241 1_555
Mn20 O32 1.986748 1_555
Mn20 O36 1.996776 1_555
Mn20 O39 2.022536 1_554
Mn20 O12 2.152007 1_555
Mn20 O25 2.178371 1_555
