# generated using pymatgen
data_Mg2PdAu
_symmetry_space_group_name_H-M   'P 1'
_cell_length_a   4.53421130
_cell_length_b   4.53421130
_cell_length_c   4.53421130
_cell_angle_alpha   60.00000000
_cell_angle_beta   60.00000000
_cell_angle_gamma   60.00000000
_symmetry_Int_Tables_number   1
_chemical_formula_structural   Mg2PdAu
_chemical_formula_sum   'Mg2 Pd1 Au1'
_cell_volume   65.91591241
_cell_formula_units_Z   1
loop_
 _symmetry_equiv_pos_site_id
 _symmetry_equiv_pos_as_xyz
  1  'x, y, z'
loop_
 _atom_site_type_symbol
 _atom_site_label
 _atom_site_symmetry_multiplicity
 _atom_site_fract_x
 _atom_site_fract_y
 _atom_site_fract_z
 _atom_site_occupancy
  Mg  Mg0  1  0.00000000  0.00000000  -0.00000000  1
  Mg  Mg1  1  0.50000100  0.50000100  0.50000100  1
  Pd  Pd0  1  0.75000000  0.75000000  0.75000000  1
  Au  Au0  1  0.24999900  0.24999900  0.24999900  1
loop_
_geom_bond_atom_site_label_1
_geom_bond_atom_site_label_2
_geom_bond_distance
_geom_bond_site_symmetry_2
Mg0 Pd0 2.776626 1_444
Mg0 Pd0 2.776626 1_445
Mg0 Pd0 2.776626 1_544
Mg0 Pd0 2.776626 1_454
Mg1 Pd0 2.776615 1_555
Mg1 Pd0 2.776630 1_455
Mg1 Pd0 2.776630 1_545
Mg1 Pd0 2.776630 1_554
Au0 Mg0 2.776615 1_555
Au0 Mg1 2.776619 1_455
Au0 Mg1 2.776619 1_554
Au0 Mg1 2.776619 1_545
Au0 Mg0 2.776630 1_655
Au0 Mg0 2.776630 1_565
Au0 Mg0 2.776630 1_556
Au0 Mg1 2.776648 1_555
