# generated using pymatgen
data_Mn12O7F17
_symmetry_space_group_name_H-M   'P 1'
_cell_length_a   4.80535300
_cell_length_b   5.80132059
_cell_length_c   15.84217235
_cell_angle_alpha   88.81013318
_cell_angle_beta   89.36009434
_cell_angle_gamma   87.03281080
_symmetry_Int_Tables_number   1
_chemical_formula_structural   Mn12O7F17
_chemical_formula_sum   'Mn12 O7 F17'
_cell_volume   440.92874913
_cell_formula_units_Z   1
loop_
 _symmetry_equiv_pos_site_id
 _symmetry_equiv_pos_as_xyz
  1  'x, y, z'
loop_
 _atom_site_type_symbol
 _atom_site_label
 _atom_site_symmetry_multiplicity
 _atom_site_fract_x
 _atom_site_fract_y
 _atom_site_fract_z
 _atom_site_occupancy
  Mn  Mn0  1  0.99134800  0.14843300  0.41756600  1
  Mn  Mn1  1  0.02212100  0.83931500  0.23745500  1
  Mn  Mn2  1  0.00994800  0.15898000  0.07378000  1
  Mn  Mn3  1  0.04894000  0.19517400  0.75716400  1
  Mn  Mn4  1  0.03094000  0.82329000  0.58347000  1
  Mn  Mn5  1  0.99302100  0.85556700  0.91726600  1
  Mn  Mn6  1  0.49174400  0.34876800  0.58649600  1
  Mn  Mn7  1  0.48460700  0.33640500  0.92426000  1
  Mn  Mn8  1  0.52527000  0.33540800  0.25967000  1
  Mn  Mn9  1  0.48765700  0.65025700  0.08280800  1
  Mn  Mn10  1  0.49849600  0.65844200  0.41745500  1
  Mn  Mn11  1  0.49873000  0.63887700  0.75065400  1
  O  O0  1  0.19944600  0.12573800  0.96769100  1
  O  O1  1  0.23152300  0.89022700  0.12690000  1
  O  O2  1  0.21880400  0.88364700  0.46821100  1
  O  O3  1  0.29318900  0.59279300  0.64360900  1
  O  O4  1  0.30444600  0.40795100  0.81215200  1
  O  O5  1  0.70235000  0.38513100  0.02793800  1
  O  O6  1  0.72088300  0.38625400  0.37071200  1
  F  F0  1  0.21985800  0.11696500  0.30675500  1
  F  F1  1  0.24148600  0.10286000  0.63965300  1
  F  F2  1  0.24293400  0.89468200  0.80632900  1
  F  F3  1  0.26847400  0.39794500  0.14986200  1
  F  F4  1  0.27282600  0.61800100  0.31187800  1
  F  F5  1  0.25115400  0.38318800  0.47867500  1
  F  F6  1  0.24696900  0.61599700  0.97801300  1
  F  F7  1  0.72147100  0.61721800  0.19465900  1
  F  F8  1  0.72335700  0.61546600  0.52498600  1
  F  F9  1  0.73042800  0.62162100  0.85840600  1
  F  F10  1  0.75321900  0.36920300  0.68527600  1
  F  F11  1  0.78828300  0.12809600  0.18414100  1
  F  F12  1  0.76057200  0.11408700  0.53185800  1
  F  F13  1  0.76055700  0.89560700  0.35194900  1
  F  F14  1  0.73654800  0.87971500  0.02549000  1
  F  F15  1  0.75808400  0.11729700  0.85416500  1
  F  F16  1  0.77031400  0.85140000  0.69265200  1
loop_
_geom_bond_atom_site_label_1
_geom_bond_atom_site_label_2
_geom_bond_distance
_geom_bond_site_symmetry_2
Mn0 O6 1.984191 1_555
Mn0 O2 1.998150 1_645
Mn1 O1 2.034013 1_555
Mn2 O0 1.911066 1_554
Mn2 O1 2.016529 1_545
Mn2 O5 2.053574 1_455
Mn3 O4 2.003876 1_555
Mn4 O3 2.020723 1_555
Mn4 O2 2.059375 1_555
Mn5 O0 2.075895 1_665
Mn6 O3 1.904521 1_555
Mn7 O5 1.990166 1_556
Mn7 O0 1.990518 1_555
Mn7 O4 2.010622 1_555
Mn8 O6 2.037738 1_555
Mn9 O1 1.945425 1_555
Mn9 O5 2.014169 1_555
Mn10 O2 1.999387 1_555
Mn10 O6 2.009963 1_555
Mn11 O4 1.915854 1_555
Mn11 O3 2.001605 1_555
F0 Mn0 2.066476 1_455
F0 Mn8 2.108334 1_555
F0 Mn1 2.226621 1_545
F1 Mn6 2.072589 1_555
F1 Mn3 2.135461 1_555
F1 Mn4 2.167088 1_545
F2 Mn3 2.075133 1_565
F2 Mn11 2.081448 1_555
F2 Mn5 2.132359 1_455
F3 Mn9 2.109588 1_555
F3 Mn8 2.157766 1_555
F3 Mn2 2.280152 1_555
F4 Mn10 2.027722 1_555
F4 Mn1 2.073310 1_555
F4 Mn8 2.161326 1_555
F5 Mn6 2.073692 1_555
F5 Mn0 2.146716 1_455
F5 Mn10 2.238219 1_555
F6 Mn5 2.035192 1_455
F6 Mn9 2.052753 1_556
F6 Mn7 2.122253 1_555
F7 Mn9 2.108801 1_555
F7 Mn1 2.111372 1_655
F7 Mn8 2.165730 1_555
F8 Mn10 2.031576 1_555
F8 Mn6 2.161840 1_555
F8 Mn4 2.181310 1_655
F9 Mn11 2.046317 1_555
F9 Mn5 2.135391 1_555
F9 Mn7 2.307533 1_555
F10 Mn6 2.026998 1_555
F10 Mn3 2.043411 1_655
F10 Mn11 2.203799 1_555
F11 Mn2 2.046610 1_655
F11 Mn8 2.084263 1_555
F11 Mn1 2.133124 1_645
F12 Mn6 2.028171 1_555
F12 Mn0 2.123895 1_555
F12 Mn4 2.223066 1_645
F13 Mn10 2.155614 1_555
F13 Mn0 2.172396 1_565
F13 Mn1 2.215319 1_655
F14 Mn9 2.029120 1_555
F14 Mn5 2.103085 1_554
F14 Mn2 2.286986 1_665
F15 Mn5 2.089027 1_545
F15 Mn7 2.104504 1_555
F15 Mn3 2.123114 1_655
F16 Mn11 2.039689 1_555
F16 Mn4 2.128163 1_655
