# generated using pymatgen
data_TbCdRh2
_symmetry_space_group_name_H-M   'P 1'
_cell_length_a   4.66795255
_cell_length_b   4.66795110
_cell_length_c   4.66795764
_cell_angle_alpha   59.99998452
_cell_angle_beta   59.99990214
_cell_angle_gamma   59.99996903
_symmetry_Int_Tables_number   1
_chemical_formula_structural   TbCdRh2
_chemical_formula_sum   'Tb1 Cd1 Rh2'
_cell_volume   71.92239905
_cell_formula_units_Z   1
loop_
 _symmetry_equiv_pos_site_id
 _symmetry_equiv_pos_as_xyz
  1  'x, y, z'
loop_
 _atom_site_type_symbol
 _atom_site_label
 _atom_site_symmetry_multiplicity
 _atom_site_fract_x
 _atom_site_fract_y
 _atom_site_fract_z
 _atom_site_occupancy
  Tb  Tb0  1  0.75000000  0.75000100  0.75000100  1
  Cd  Cd0  1  0.25000000  0.25000100  0.25000100  1
  Rh  Rh0  1  0.49999900  0.50000000  0.50000100  1
  Rh  Rh1  1  0.00000200  -0.00000000  -0.00000000  1
loop_
_geom_bond_atom_site_label_1
_geom_bond_atom_site_label_2
_geom_bond_distance
_geom_bond_site_symmetry_2
Cd0 Rh0 2.858520 1_555
Cd0 Rh1 2.858520 1_565
Cd0 Rh1 2.858523 1_556
Cd0 Rh0 2.858526 1_554
Cd0 Rh0 2.858527 1_455
Cd0 Rh1 2.858527 1_555
Cd0 Rh0 2.858528 1_545
Cd0 Rh1 2.858530 1_655
Rh0 Tb0 2.858519 1_455
Rh0 Tb0 2.858520 1_545
Rh0 Tb0 2.858526 1_554
Rh0 Tb0 2.858535 1_555
Rh1 Tb0 2.858515 1_544
Rh1 Tb0 2.858527 1_444
Rh1 Tb0 2.858528 1_454
Rh1 Tb0 2.858530 1_445
