# generated using pymatgen
data_Li2Fe3SnO8
_symmetry_space_group_name_H-M   'P 1'
_cell_length_a   8.52150400
_cell_length_b   8.53140400
_cell_length_c   8.53775878
_cell_angle_alpha   89.73577873
_cell_angle_beta   90.00000000
_cell_angle_gamma   90.00000000
_symmetry_Int_Tables_number   1
_chemical_formula_structural   Li2Fe3SnO8
_chemical_formula_sum   'Li8 Fe12 Sn4 O32'
_cell_volume   620.69182156
_cell_formula_units_Z   4
loop_
 _symmetry_equiv_pos_site_id
 _symmetry_equiv_pos_as_xyz
  1  'x, y, z'
loop_
 _atom_site_type_symbol
 _atom_site_label
 _atom_site_symmetry_multiplicity
 _atom_site_fract_x
 _atom_site_fract_y
 _atom_site_fract_z
 _atom_site_occupancy
  Li  Li0  1  0.12484300  0.37909100  0.12551500  1
  Li  Li1  1  0.25281500  0.25121100  0.50125400  1
  Li  Li2  1  0.75010700  0.25110900  0.99939000  1
  Li  Li3  1  0.87664700  0.12426200  0.62901900  1
  Li  Li4  1  0.37664700  0.87573800  0.37098100  1
  Li  Li5  1  0.25010700  0.74889100  0.00061000  1
  Li  Li6  1  0.75281500  0.74878900  0.49874600  1
  Li  Li7  1  0.62484300  0.62090900  0.87448500  1
  Fe  Fe0  1  0.38021500  0.38601200  0.87298800  1
  Fe  Fe1  1  0.62131100  0.38080100  0.63254600  1
  Fe  Fe2  1  0.88468100  0.37522800  0.36937800  1
  Fe  Fe3  1  0.11357300  0.12338500  0.86794200  1
  Fe  Fe4  1  0.37621200  0.11904100  0.13731300  1
  Fe  Fe5  1  0.61828600  0.11291600  0.37410200  1
  Fe  Fe6  1  0.11828600  0.88708400  0.62589800  1
  Fe  Fe7  1  0.87621200  0.88095900  0.86268700  1
  Fe  Fe8  1  0.61357300  0.87661500  0.13205800  1
  Fe  Fe9  1  0.38468100  0.62477200  0.63062200  1
  Fe  Fe10  1  0.12131100  0.61919900  0.36745400  1
  Fe  Fe11  1  0.88021500  0.61398800  0.12701200  1
  Sn  Sn0  1  0.49788700  0.49780900  0.25341400  1
  Sn  Sn1  1  0.49776300  0.00525000  0.75350300  1
  Sn  Sn2  1  0.99776300  0.99475000  0.24649700  1
  Sn  Sn3  1  0.99788700  0.50219100  0.74658600  1
  O  O0  1  0.87344200  0.39168800  0.13931500  1
  O  O1  1  0.11458800  0.40197600  0.37714100  1
  O  O2  1  0.39630800  0.38360600  0.63438600  1
  O  O3  1  0.61176400  0.37319600  0.85018800  1
  O  O4  1  0.85318300  0.37452200  0.61449300  1
  O  O5  1  0.63692900  0.36627800  0.39418000  1
  O  O6  1  0.37436200  0.36329000  0.10988000  1
  O  O7  1  0.13644700  0.36370700  0.87434400  1
  O  O8  1  0.86717800  0.13873300  0.37502800  1
  O  O9  1  0.62599800  0.14549200  0.61428800  1
  O  O10  1  0.36107800  0.14129800  0.88867200  1
  O  O11  1  0.13788300  0.12633400  0.11396000  1
  O  O12  1  0.38666700  0.12632700  0.36084100  1
  O  O13  1  0.61394100  0.11577800  0.13670000  1
  O  O14  1  0.88949500  0.11047400  0.87858000  1
  O  O15  1  0.12621100  0.11329000  0.63847100  1
  O  O16  1  0.62621100  0.88671000  0.36152900  1
  O  O17  1  0.38949500  0.88952600  0.12142000  1
  O  O18  1  0.11394100  0.88422200  0.86330000  1
  O  O19  1  0.88666700  0.87367300  0.63915900  1
  O  O20  1  0.63788300  0.87366600  0.88604000  1
  O  O21  1  0.86107800  0.85870200  0.11132800  1
  O  O22  1  0.12599800  0.85450800  0.38571200  1
  O  O23  1  0.36717800  0.86126700  0.62497200  1
  O  O24  1  0.63644700  0.63629300  0.12565600  1
  O  O25  1  0.87436200  0.63671000  0.89012000  1
  O  O26  1  0.13692900  0.63372200  0.60582000  1
  O  O27  1  0.35318300  0.62547800  0.38550700  1
  O  O28  1  0.11176400  0.62680400  0.14981200  1
  O  O29  1  0.89630800  0.61639400  0.36561400  1
  O  O30  1  0.61458800  0.59802400  0.62285900  1
  O  O31  1  0.37344200  0.60831200  0.86068500  1
loop_
_geom_bond_atom_site_label_1
_geom_bond_atom_site_label_2
_geom_bond_distance
_geom_bond_site_symmetry_2
Li0 O28 2.127370 1_555
Li0 O6 2.134763 1_555
Li0 O0 2.148269 1_455
Li0 O7 2.151328 1_554
Li0 O1 2.159841 1_555
Li0 O11 2.161940 1_555
Li1 O12 1.971066 1_555
Li1 O15 1.976921 1_555
Li1 O2 2.018613 1_555
Li1 O1 2.037680 1_555
Li2 O14 1.981340 1_555
Li2 O0 1.995846 1_556
Li2 O13 2.010287 1_556
Li2 O3 2.021167 1_555
Li3 O15 2.130232 1_655
Li3 O14 2.136202 1_555
Li3 O19 2.140933 1_545
Li3 O9 2.147210 1_555
Li3 O4 2.147426 1_555
Li3 O8 2.172956 1_555
Li4 O16 2.130232 1_555
Li4 O17 2.136202 1_555
Li4 O12 2.140933 1_565
Li4 O22 2.147210 1_555
Li4 O27 2.147426 1_555
Li4 O23 2.172956 1_555
Li5 O17 1.981340 1_555
Li5 O31 1.995846 1_554
Li5 O18 2.010287 1_554
Li5 O28 2.021167 1_555
Li6 O19 1.971066 1_555
Li6 O16 1.976921 1_555
Li6 O29 2.018613 1_555
Li6 O30 2.037680 1_555
Li7 O3 2.127370 1_555
Li7 O25 2.134763 1_555
Li7 O31 2.148269 1_555
Li7 O24 2.151328 1_556
Li7 O30 2.159841 1_555
Li7 O20 2.161940 1_555
Fe0 O31 1.899831 1_555
Fe0 O3 1.985787 1_555
Fe0 O6 2.031518 1_556
Fe0 O2 2.041935 1_555
Fe0 O7 2.085995 1_555
Fe0 O10 2.097776 1_555
Fe1 O30 1.855565 1_555
Fe1 O3 1.860788 1_555
Fe1 O2 1.917579 1_555
Fe1 O4 1.982644 1_555
Fe1 O9 2.014672 1_555
Fe1 O5 2.043788 1_555
Fe2 O0 1.970918 1_555
Fe2 O1 1.973547 1_655
Fe2 O8 2.023493 1_555
Fe2 O29 2.059971 1_555
Fe2 O4 2.109857 1_555
Fe2 O5 2.123151 1_555
Fe3 O14 1.914787 1_455
Fe3 O15 1.964411 1_555
Fe3 O18 2.040966 1_545
Fe3 O7 2.060505 1_555
Fe3 O11 2.110899 1_556
Fe3 O10 2.122097 1_555
Fe4 O12 1.911804 1_555
Fe4 O17 1.966665 1_545
Fe4 O13 2.026007 1_555
Fe4 O11 2.041605 1_555
Fe4 O6 2.095894 1_555
Fe4 O10 2.134340 1_554
Fe5 O16 1.934511 1_545
Fe5 O12 1.980265 1_555
Fe5 O13 2.027254 1_555
Fe5 O9 2.071709 1_555
Fe5 O8 2.132358 1_555
Fe5 O5 2.174918 1_555
Fe6 O15 1.934511 1_565
Fe6 O19 1.980265 1_455
Fe6 O18 2.027254 1_555
Fe6 O22 2.071709 1_555
Fe6 O23 2.132358 1_555
Fe6 O26 2.174918 1_555
Fe7 O19 1.911804 1_555
Fe7 O14 1.966665 1_565
Fe7 O18 2.026007 1_655
Fe7 O20 2.041605 1_555
Fe7 O25 2.095894 1_555
Fe7 O21 2.134340 1_556
Fe8 O17 1.914787 1_555
Fe8 O16 1.964411 1_555
Fe8 O13 2.040966 1_565
Fe8 O24 2.060505 1_555
Fe8 O20 2.110899 1_554
Fe8 O21 2.122097 1_555
Fe9 O31 1.970918 1_555
Fe9 O30 1.973547 1_555
Fe9 O23 2.023493 1_555
Fe9 O2 2.059971 1_555
Fe9 O27 2.109857 1_555
Fe9 O26 2.123151 1_555
Fe10 O1 1.855565 1_555
Fe10 O28 1.860788 1_555
Fe10 O29 1.917579 1_455
Fe10 O27 1.982644 1_555
Fe10 O22 2.014672 1_555
Fe10 O26 2.043788 1_555
Fe11 O0 1.899831 1_555
Fe11 O28 1.985787 1_655
Fe11 O25 2.031518 1_554
Fe11 O29 2.041935 1_555
Fe11 O24 2.085995 1_555
Fe11 O21 2.097776 1_555
O4 Sn3 1.997520 1_555
O5 Sn0 2.023615 1_555
O6 Sn0 1.984892 1_555
O7 Sn3 1.991956 1_455
O8 Sn2 1.990939 1_545
O9 Sn1 2.006302 1_555
O10 Sn1 2.011967 1_555
O11 Sn2 1.988635 1_445
O20 Sn1 1.988635 1_565
O21 Sn2 2.011967 1_555
O22 Sn2 2.006302 1_455
O23 Sn1 1.990939 1_565
O24 Sn0 1.991956 1_555
O25 Sn3 1.984892 1_555
O26 Sn3 2.023615 1_455
O27 Sn0 1.997520 1_555
