# generated using pymatgen
data_Li8MnFe7(PO4)8
_symmetry_space_group_name_H-M   'P 1'
_cell_length_a   7.72671439
_cell_length_b   7.72671439
_cell_length_c   10.44413200
_cell_angle_alpha   89.99903114
_cell_angle_beta   89.99903114
_cell_angle_gamma   104.04385178
_symmetry_Int_Tables_number   1
_chemical_formula_structural   Li8MnFe7(PO4)8
_chemical_formula_sum   'Li8 Mn1 Fe7 P8 O32'
_cell_volume   604.89943571
_cell_formula_units_Z   1
loop_
 _symmetry_equiv_pos_site_id
 _symmetry_equiv_pos_as_xyz
  1  'x, y, z'
loop_
 _atom_site_type_symbol
 _atom_site_label
 _atom_site_symmetry_multiplicity
 _atom_site_fract_x
 _atom_site_fract_y
 _atom_site_fract_z
 _atom_site_occupancy
  Li  Li0  1  0.00006700  0.74996800  0.99992600  1
  Li  Li1  1  0.99972200  0.24996800  0.50035800  1
  Li  Li2  1  0.24996800  0.99972200  0.50035800  1
  Li  Li3  1  0.49971800  0.75046200  0.50029300  1
  Li  Li4  1  0.24951700  0.50002100  0.99928400  1
  Li  Li5  1  0.74996800  0.00006700  0.99992600  1
  Li  Li6  1  0.50002100  0.24951700  0.99928400  1
  Li  Li7  1  0.75046200  0.49971800  0.50029300  1
  Mn  Mn0  1  0.38756600  0.38756600  0.28206300  1
  Fe  Fe0  1  0.11136300  0.11136300  0.78176500  1
  Fe  Fe1  1  0.38829700  0.88818400  0.21806000  1
  Fe  Fe2  1  0.11152500  0.61198600  0.71814200  1
  Fe  Fe3  1  0.61198600  0.11152500  0.71814200  1
  Fe  Fe4  1  0.88806100  0.88806100  0.28186400  1
  Fe  Fe5  1  0.61155300  0.61155300  0.78195700  1
  Fe  Fe6  1  0.88818400  0.38829700  0.21806000  1
  P  P0  1  0.33400300  0.83387200  0.90509500  1
  P  P1  1  0.16454400  0.16454400  0.09340500  1
  P  P2  1  0.33376700  0.33376700  0.59573700  1
  P  P3  1  0.83373800  0.83373800  0.59496600  1
  P  P4  1  0.66800500  0.16585800  0.40561800  1
  P  P5  1  0.16585800  0.66800500  0.40561800  1
  P  P6  1  0.83387200  0.33400300  0.90509500  1
  P  P7  1  0.66671500  0.66671500  0.09417800  1
  O  O0  1  0.12980700  0.83604800  0.33546200  1
  O  O1  1  0.00312300  0.00312300  0.09605800  1
  O  O2  1  0.16551300  0.86849800  0.83459100  1
  O  O3  1  0.27196000  0.77172700  0.04301600  1
  O  O4  1  0.22777000  0.22777000  0.95599200  1
  O  O5  1  0.33269800  0.12923400  0.16389500  1
  O  O6  1  0.12923400  0.33269800  0.16389500  1
  O  O7  1  0.63160700  0.83458200  0.16517700  1
  O  O8  1  0.49548400  0.99537500  0.90275200  1
  O  O9  1  0.00587100  0.50493800  0.40258200  1
  O  O10  1  0.50493800  0.00587100  0.40258200  1
  O  O11  1  0.16539200  0.36872500  0.66607600  1
  O  O12  1  0.66520200  0.86835700  0.66558300  1
  O  O13  1  0.36872500  0.16539200  0.66607600  1
  O  O14  1  0.77160000  0.77160000  0.45707100  1
  O  O15  1  0.27102800  0.27102800  0.45807000  1
  O  O16  1  0.72883300  0.22717500  0.54394500  1
  O  O17  1  0.22717500  0.72883300  0.54394500  1
  O  O18  1  0.33560500  0.63712900  0.33535500  1
  O  O19  1  0.63712900  0.33560500  0.33535500  1
  O  O20  1  0.83604800  0.12980700  0.33546200  1
  O  O21  1  0.99524100  0.99524100  0.59747400  1
  O  O22  1  0.49507900  0.49507900  0.59712500  1
  O  O23  1  0.50530000  0.50530000  0.09658400  1
  O  O24  1  0.36869500  0.66536600  0.83448400  1
  O  O25  1  0.66536600  0.36869500  0.83448400  1
  O  O26  1  0.86849800  0.16551300  0.83459100  1
  O  O27  1  0.77172700  0.27196000  0.04301600  1
  O  O28  1  0.72855900  0.72855900  0.95630300  1
  O  O29  1  0.83458200  0.63160700  0.16517700  1
  O  O30  1  0.99537500  0.49548400  0.90275200  1
  O  O31  1  0.86835700  0.66520200  0.66558300  1
loop_
_geom_bond_atom_site_label_1
_geom_bond_atom_site_label_2
_geom_bond_distance
_geom_bond_site_symmetry_2
Li0 O28 2.113667 1_455
Li0 O3 2.114933 1_556
Li0 O1 2.193721 1_566
Li0 O30 2.205275 1_455
Li0 O29 2.209621 1_456
Li0 O2 2.210519 1_555
Li1 O16 2.107203 1_555
Li1 O15 2.109608 1_655
Li1 O20 2.203999 1_555
Li1 O21 2.206959 1_545
Li1 O9 2.209252 1_655
Li1 O11 2.215010 1_655
Li2 O17 2.107203 1_555
Li2 O15 2.109608 1_565
Li2 O0 2.203999 1_555
Li2 O21 2.206959 1_455
Li2 O10 2.209252 1_565
Li2 O13 2.215010 1_565
Li3 O14 2.115908 1_555
Li3 O17 2.121225 1_555
Li3 O18 2.191682 1_555
Li3 O12 2.209011 1_555
Li3 O22 2.209857 1_555
Li3 O10 2.213358 1_565
Li4 O3 2.114117 1_556
Li4 O4 2.118092 1_555
Li4 O30 2.200089 1_455
Li4 O24 2.207164 1_555
Li4 O23 2.213890 1_556
Li4 O6 2.215328 1_556
Li5 O28 2.113667 1_545
Li5 O27 2.114933 1_556
Li5 O1 2.193721 1_656
Li5 O8 2.205275 1_545
Li5 O7 2.209621 1_546
Li5 O26 2.210519 1_555
Li6 O27 2.114117 1_556
Li6 O4 2.118092 1_555
Li6 O8 2.200089 1_545
Li6 O25 2.207164 1_555
Li6 O23 2.213890 1_556
Li6 O5 2.215328 1_556
Li7 O14 2.115908 1_555
Li7 O16 2.121225 1_555
Li7 O19 2.191682 1_555
Li7 O31 2.209011 1_555
Li7 O22 2.209857 1_555
Li7 O9 2.213358 1_655
Mn0 O18 2.136609 1_555
Mn0 O19 2.136609 1_555
Mn0 O15 2.146425 1_555
Mn0 O23 2.237401 1_555
Mn0 O6 2.297072 1_555
Mn0 O5 2.297072 1_555
Fe0 O2 2.093304 1_545
Fe0 O26 2.093304 1_455
Fe0 O4 2.129930 1_555
Fe0 O21 2.219052 1_445
Fe0 O13 2.277187 1_555
Fe0 O11 2.277187 1_555
Fe1 O5 2.088511 1_565
Fe1 O7 2.094947 1_555
Fe1 O3 2.137176 1_555
Fe1 O10 2.226097 1_565
Fe1 O18 2.246339 1_555
Fe1 O0 2.294403 1_555
Fe2 O31 2.091795 1_455
Fe2 O11 2.093221 1_555
Fe2 O17 2.128840 1_555
Fe2 O30 2.222855 1_455
Fe2 O2 2.276031 1_555
Fe2 O24 2.279777 1_555
Fe3 O12 2.091795 1_545
Fe3 O13 2.093221 1_555
Fe3 O16 2.128840 1_555
Fe3 O8 2.222855 1_545
Fe3 O26 2.276031 1_555
Fe3 O25 2.279777 1_555
Fe4 O0 2.080455 1_655
Fe4 O20 2.080455 1_565
Fe4 O14 2.138895 1_555
Fe4 O1 2.227770 1_665
Fe4 O7 2.277103 1_555
Fe4 O29 2.277103 1_555
Fe5 O25 2.091346 1_555
Fe5 O24 2.091346 1_555
Fe5 O28 2.133957 1_555
Fe5 O22 2.225618 1_555
Fe5 O31 2.277510 1_555
Fe5 O12 2.277510 1_555
Fe6 O6 2.088511 1_655
Fe6 O29 2.094947 1_555
Fe6 O27 2.137176 1_555
Fe6 O9 2.226097 1_655
Fe6 O19 2.246339 1_555
Fe6 O20 2.294403 1_555
O0 P5 1.573491 1_555
O1 P1 1.535269 1_555
O2 P0 1.574085 1_555
O3 P0 1.556778 1_554
O4 P1 1.555997 1_556
O5 P1 1.573730 1_555
O6 P1 1.573730 1_555
O7 P7 1.573721 1_555
O8 P0 1.535890 1_555
O9 P5 1.536471 1_555
O10 P4 1.536471 1_555
O11 P2 1.573445 1_555
O12 P3 1.574909 1_555
O13 P2 1.573445 1_555
O14 P3 1.556715 1_555
O15 P2 1.556694 1_555
O16 P4 1.557086 1_555
O17 P5 1.557086 1_555
O18 P5 1.570836 1_555
O19 P4 1.570836 1_555
O20 P4 1.573491 1_555
O21 P3 1.536024 1_555
O22 P2 1.534052 1_555
O23 P7 1.535168 1_555
O24 P0 1.574904 1_555
O25 P6 1.574904 1_555
O26 P6 1.574085 1_555
O27 P6 1.556778 1_554
O28 P7 1.555433 1_556
O29 P7 1.573721 1_555
O30 P6 1.535890 1_555
O31 P3 1.574909 1_555
