# generated using pymatgen
data_H11S2N3O7
_symmetry_space_group_name_H-M   'P 1'
_cell_length_a   6.15473700
_cell_length_b   9.95353900
_cell_length_c   13.24283800
_cell_angle_alpha   90.00000000
_cell_angle_beta   90.00000000
_cell_angle_gamma   90.00000000
_symmetry_Int_Tables_number   1
_chemical_formula_structural   H11S2N3O7
_chemical_formula_sum   'H44 S8 N12 O28'
_cell_volume   811.27499137
_cell_formula_units_Z   4
loop_
 _symmetry_equiv_pos_site_id
 _symmetry_equiv_pos_as_xyz
  1  'x, y, z'
loop_
 _atom_site_type_symbol
 _atom_site_label
 _atom_site_symmetry_multiplicity
 _atom_site_fract_x
 _atom_site_fract_y
 _atom_site_fract_z
 _atom_site_occupancy
  H  H0  1  0.71699900  0.05184800  0.35450600  1
  H  H1  1  0.68126400  0.01770700  0.97756400  1
  H  H2  1  0.03375800  0.07111600  0.61769700  1
  H  H3  1  0.17893900  0.06264200  0.32223600  1
  H  H4  1  0.30777800  0.08865200  0.58861000  1
  H  H5  1  0.70353800  0.08047700  0.09428600  1
  H  H6  1  0.23153800  0.13429300  0.20659800  1
  H  H7  1  0.83438300  0.15945900  0.99987700  1
  H  H8  1  0.56322400  0.16875500  0.00601100  1
  H  H9  1  0.36332800  0.18599500  0.31241500  1
  H  H10  1  0.10109200  0.22291200  0.29556200  1
  H  H11  1  0.60109200  0.27708800  0.79556200  1
  H  H12  1  0.86332800  0.31400500  0.81241500  1
  H  H13  1  0.06322400  0.33124500  0.50601100  1
  H  H14  1  0.33438300  0.34054100  0.49987700  1
  H  H15  1  0.73153800  0.36570700  0.70659800  1
  H  H16  1  0.20353800  0.41952300  0.59428600  1
  H  H17  1  0.80777800  0.41134800  0.08861000  1
  H  H18  1  0.67893900  0.43735800  0.82223600  1
  H  H19  1  0.53375800  0.42888400  0.11769700  1
  H  H20  1  0.18126400  0.48229300  0.47756400  1
  H  H21  1  0.21699900  0.44815200  0.85450600  1
  H  H22  1  0.71699900  0.55184800  0.14549400  1
  H  H23  1  0.68126400  0.51770700  0.52243600  1
  H  H24  1  0.03375800  0.57111600  0.88230300  1
  H  H25  1  0.17893900  0.56264200  0.17776400  1
  H  H26  1  0.30777800  0.58865200  0.91139000  1
  H  H27  1  0.70353800  0.58047700  0.40571400  1
  H  H28  1  0.23153800  0.63429300  0.29340200  1
  H  H29  1  0.83438300  0.65945900  0.50012300  1
  H  H30  1  0.56322400  0.66875500  0.49398900  1
  H  H31  1  0.36332800  0.68599500  0.18758500  1
  H  H32  1  0.10109200  0.72291200  0.20443800  1
  H  H33  1  0.60109200  0.77708800  0.70443800  1
  H  H34  1  0.86332800  0.81400500  0.68758500  1
  H  H35  1  0.06322400  0.83124500  0.99398900  1
  H  H36  1  0.33438300  0.84054100  0.00012300  1
  H  H37  1  0.73153800  0.86570700  0.79340200  1
  H  H38  1  0.20353800  0.91952300  0.90571400  1
  H  H39  1  0.80777800  0.91134800  0.41139000  1
  H  H40  1  0.67893900  0.93735800  0.67776400  1
  H  H41  1  0.53375800  0.92888400  0.38230300  1
  H  H42  1  0.18126400  0.98229300  0.02243600  1
  H  H43  1  0.21699900  0.94815200  0.64549400  1
  S  S0  1  0.22025500  0.12883200  0.76441900  1
  S  S1  1  0.70277600  0.20229300  0.53521700  1
  S  S2  1  0.20277600  0.29770700  0.03521700  1
  S  S3  1  0.72025500  0.37116800  0.26441900  1
  S  S4  1  0.22025500  0.62883200  0.73558100  1
  S  S5  1  0.70277600  0.70229300  0.96478300  1
  S  S6  1  0.20277600  0.79770700  0.46478300  1
  S  S7  1  0.72025500  0.87116800  0.23558100  1
  N  N0  1  0.19461200  0.05099000  0.64101200  1
  N  N1  1  0.69570200  0.10604200  0.01908200  1
  N  N2  1  0.21835700  0.15062000  0.28455500  1
  N  N3  1  0.71835700  0.34938000  0.78455500  1
  N  N4  1  0.19570200  0.39395800  0.51908200  1
  N  N5  1  0.69461200  0.44901000  0.14101200  1
  N  N6  1  0.19461200  0.55099000  0.85898800  1
  N  N7  1  0.69570200  0.60604200  0.48091800  1
  N  N8  1  0.21835700  0.65062000  0.21544500  1
  N  N9  1  0.71835700  0.84938000  0.71544500  1
  N  N10  1  0.19570200  0.89395800  0.98091800  1
  N  N11  1  0.69461200  0.94901000  0.35898800  1
  O  O0  1  0.03031100  0.07610000  0.81608300  1
  O  O1  1  0.42831900  0.07991500  0.80139600  1
  O  O2  1  0.75073000  0.11065800  0.62156300  1
  O  O3  1  0.19603500  0.15508900  0.07256300  1
  O  O4  1  0.48527900  0.16721100  0.49104500  1
  O  O5  1  0.87739400  0.18928600  0.45800000  1
  O  O6  1  0.71179000  0.22964500  0.23752300  1
  O  O7  1  0.21179000  0.27035500  0.73752300  1
  O  O8  1  0.37739400  0.31071400  0.95800000  1
  O  O9  1  0.98527900  0.33278900  0.99104500  1
  O  O10  1  0.69603500  0.34491100  0.57256300  1
  O  O11  1  0.25073000  0.38934200  0.12156300  1
  O  O12  1  0.92831900  0.42008500  0.30139600  1
  O  O13  1  0.53031100  0.42390000  0.31608300  1
  O  O14  1  0.03031100  0.57610000  0.68391700  1
  O  O15  1  0.42831900  0.57991500  0.69860400  1
  O  O16  1  0.75073000  0.61065800  0.87843700  1
  O  O17  1  0.19603500  0.65508900  0.42743700  1
  O  O18  1  0.48527900  0.66721100  0.00895500  1
  O  O19  1  0.87739400  0.68928600  0.04200000  1
  O  O20  1  0.71179000  0.72964500  0.26247700  1
  O  O21  1  0.21179000  0.77035500  0.76247700  1
  O  O22  1  0.37739400  0.81071400  0.54200000  1
  O  O23  1  0.98527900  0.83278900  0.50895500  1
  O  O24  1  0.69603500  0.84491100  0.92743700  1
  O  O25  1  0.25073000  0.88934200  0.37843700  1
  O  O26  1  0.92831900  0.92008500  0.19860400  1
  O  O27  1  0.53031100  0.92390000  0.18391700  1
loop_
_geom_bond_atom_site_label_1
_geom_bond_atom_site_label_2
_geom_bond_distance
_geom_bond_site_symmetry_2
H0 N11 1.034538 1_545
H1 N1 1.040801 1_556
H2 N0 1.056214 1_555
H3 N2 1.036677 1_555
H4 N0 1.052244 1_555
H5 N1 1.029040 1_555
H6 N2 1.048229 1_555
H7 N1 1.037263 1_556
H8 N1 1.041361 1_555
H9 N2 1.027728 1_555
H10 N2 1.029523 1_555
H11 N3 1.029523 1_555
H12 N3 1.027728 1_555
H13 N4 1.041361 1_555
H14 N4 1.037263 1_555
H15 N3 1.048229 1_555
H16 N4 1.029040 1_555
H17 N5 1.052244 1_555
H18 N3 1.036677 1_555
H19 N5 1.056214 1_555
H20 N4 1.040801 1_555
H21 N6 1.034538 1_555
H22 N5 1.034538 1_555
H23 N7 1.040801 1_555
H24 N6 1.056214 1_555
H25 N8 1.036677 1_555
H26 N6 1.052244 1_555
H27 N7 1.029040 1_555
H28 N8 1.048229 1_555
H29 N7 1.037263 1_555
H30 N7 1.041361 1_555
H31 N8 1.027728 1_555
H32 N8 1.029523 1_555
H33 N9 1.029523 1_555
H34 N9 1.027728 1_555
H35 N10 1.041361 1_555
H36 N10 1.037263 1_554
H37 N9 1.048229 1_555
H38 N10 1.029040 1_555
H39 N11 1.052244 1_555
H40 N9 1.036677 1_555
H41 N11 1.056214 1_555
H42 N10 1.040801 1_554
H43 N0 1.034538 1_565
N0 S0 1.815498 1_555
N5 S3 1.815498 1_555
N6 S4 1.815498 1_555
N11 S7 1.815498 1_555
O0 S0 1.452680 1_555
O1 S0 1.454902 1_555
O2 S1 1.492159 1_555
O3 S2 1.503812 1_555
O4 S1 1.502020 1_555
O5 S1 1.489112 1_555
O6 S3 1.453921 1_555
O7 S0 1.453921 1_555
O8 S2 1.489112 1_556
O9 S2 1.502020 1_656
O10 S1 1.503812 1_555
O11 S2 1.492159 1_555
O12 S3 1.454902 1_555
O13 S3 1.452680 1_555
O14 S4 1.452680 1_555
O15 S4 1.454902 1_555
O16 S5 1.492159 1_555
O17 S6 1.503812 1_555
O18 S5 1.502020 1_554
O19 S5 1.489112 1_554
O20 S7 1.453921 1_555
O21 S4 1.453921 1_555
O22 S6 1.489112 1_555
O23 S6 1.502020 1_655
O24 S5 1.503812 1_555
O25 S6 1.492159 1_555
O26 S7 1.454902 1_555
O27 S7 1.452680 1_555
