# generated using pymatgen
data_CsK2PdF5
_symmetry_space_group_name_H-M   'P 1'
_cell_length_a   7.30129731
_cell_length_b   7.30129731
_cell_length_c   6.20504011
_cell_angle_alpha   90.00000000
_cell_angle_beta   90.00000000
_cell_angle_gamma   90.00000000
_symmetry_Int_Tables_number   1
_chemical_formula_structural   CsK2PdF5
_chemical_formula_sum   'Cs2 K4 Pd2 F10'
_cell_volume   330.78412587
_cell_formula_units_Z   2
loop_
 _symmetry_equiv_pos_site_id
 _symmetry_equiv_pos_as_xyz
  1  'x, y, z'
loop_
 _atom_site_type_symbol
 _atom_site_label
 _atom_site_symmetry_multiplicity
 _atom_site_fract_x
 _atom_site_fract_y
 _atom_site_fract_z
 _atom_site_occupancy
  Cs  Cs0  1  0.50000000  0.50000000  0.00000000  1
  Cs  Cs1  1  0.00000000  0.00000000  0.00000000  1
  K  K0  1  0.82500514  0.32500514  0.50000000  1
  K  K1  1  0.32500514  0.17499486  0.50000000  1
  K  K2  1  0.17499486  0.67499486  0.50000000  1
  K  K3  1  0.67499486  0.82500514  0.50000000  1
  Pd  Pd0  1  0.50000000  0.00000000  0.00000000  1
  Pd  Pd1  1  0.00000000  0.50000000  0.00000000  1
  F  F0  1  0.36755111  0.86755111  0.77271830  1
  F  F1  1  0.63244889  0.13244889  0.77271830  1
  F  F2  1  0.13244889  0.36755111  0.77271830  1
  F  F3  1  0.86755111  0.63244889  0.77271830  1
  F  F4  1  0.36755111  0.86755111  0.22728170  1
  F  F5  1  0.86755111  0.63244889  0.22728170  1
  F  F6  1  0.13244889  0.36755111  0.22728170  1
  F  F7  1  0.63244889  0.13244889  0.22728170  1
  F  F8  1  0.00000000  0.00000000  0.50000000  1
  F  F9  1  0.50000000  0.50000000  0.50000000  1
loop_
_geom_bond_atom_site_label_1
_geom_bond_atom_site_label_2
_geom_bond_distance
_geom_bond_site_symmetry_2
Cs0 F9 3.102520 1_554
Cs0 F9 3.102520 1_555
Cs0 F6 3.182109 1_555
Cs0 F7 3.182109 1_555
Cs0 F1 3.182109 1_554
Cs0 F2 3.182109 1_554
Cs0 F3 3.182109 1_554
Cs0 F4 3.182109 1_555
Cs0 F0 3.182109 1_554
Cs0 F5 3.182109 1_555
Cs1 F8 3.102520 1_555
Cs1 F8 3.102520 1_554
Cs1 F5 3.182109 1_445
Cs1 F7 3.182109 1_455
Cs1 F4 3.182109 1_545
Cs1 F0 3.182109 1_544
Cs1 F3 3.182109 1_444
Cs1 F6 3.182109 1_555
Cs1 F1 3.182109 1_454
Cs1 F2 3.182109 1_554
F0 Pd0 1.964508 1_566
F0 K2 2.610901 1_555
F0 K3 2.828247 1_555
F0 K1 2.828247 1_565
F1 Pd0 1.964508 1_556
F1 K0 2.610901 1_555
F1 K1 2.828247 1_555
F1 K3 2.828247 1_545
F2 Pd1 1.964508 1_556
F2 K1 2.610901 1_555
F2 K2 2.828247 1_555
F2 K0 2.828247 1_455
F3 Pd1 1.964508 1_656
F3 K3 2.610901 1_555
F3 K2 2.828247 1_655
F3 K0 2.828247 1_555
F4 Pd0 1.964508 1_565
F4 K2 2.610901 1_555
F4 K3 2.828247 1_555
F4 K1 2.828247 1_565
F5 Pd1 1.964508 1_655
F5 K3 2.610901 1_555
F5 K2 2.828247 1_655
F5 K0 2.828247 1_555
F6 Pd1 1.964508 1_555
F6 K1 2.610901 1_555
F6 K2 2.828247 1_555
F6 K0 2.828247 1_455
F7 Pd0 1.964508 1_555
F7 K0 2.610901 1_555
F7 K1 2.828247 1_555
F7 K3 2.828247 1_545
F8 K0 2.695074 1_455
F8 K3 2.695074 1_445
F8 K2 2.695074 1_545
F8 K1 2.695074 1_555
F9 K2 2.695074 1_555
F9 K0 2.695074 1_555
F9 K3 2.695074 1_555
F9 K1 2.695074 1_555
