# generated using pymatgen
data_Li2Nb(PO3)5
_symmetry_space_group_name_H-M   'P 1'
_cell_length_a   13.56458200
_cell_length_b   5.36533400
_cell_length_c   8.89206469
_cell_angle_alpha   78.02501264
_cell_angle_beta   90.00000000
_cell_angle_gamma   90.00000000
_symmetry_Int_Tables_number   1
_chemical_formula_structural   Li2Nb(PO3)5
_chemical_formula_sum   'Li4 Nb2 P10 O30'
_cell_volume   633.06811649
_cell_formula_units_Z   2
loop_
 _symmetry_equiv_pos_site_id
 _symmetry_equiv_pos_as_xyz
  1  'x, y, z'
loop_
 _atom_site_type_symbol
 _atom_site_label
 _atom_site_symmetry_multiplicity
 _atom_site_fract_x
 _atom_site_fract_y
 _atom_site_fract_z
 _atom_site_occupancy
  Li  Li0  1  0.87847400  0.94320400  0.08663200  1
  Li  Li1  1  0.62152600  0.94320400  0.08663200  1
  Li  Li2  1  0.37847400  0.05679600  0.91336800  1
  Li  Li3  1  0.12152600  0.05679600  0.91336800  1
  Nb  Nb0  1  0.00000000  0.50000000  0.50000000  1
  Nb  Nb1  1  0.50000000  0.50000000  0.50000000  1
  P  P0  1  0.35820300  0.00416800  0.48534700  1
  P  P1  1  0.14179700  0.00416800  0.48534700  1
  P  P2  1  0.92207900  0.66347400  0.81893100  1
  P  P3  1  0.57792100  0.66347400  0.81893100  1
  P  P4  1  0.25000000  0.54200200  0.98376400  1
  P  P5  1  0.75000000  0.45799800  0.01623600  1
  P  P6  1  0.42207900  0.33652600  0.18106900  1
  P  P7  1  0.07792100  0.33652600  0.18106900  1
  P  P8  1  0.64179700  0.99583200  0.51465300  1
  P  P9  1  0.85820300  0.99583200  0.51465300  1
  O  O0  1  0.75000000  0.93717900  0.46111300  1
  O  O1  1  0.96214700  0.81389400  0.92854600  1
  O  O2  1  0.53785300  0.81389400  0.92854600  1
  O  O3  1  0.25000000  0.80260300  0.88348900  1
  O  O4  1  0.85652100  0.85042900  0.69047800  1
  O  O5  1  0.64347900  0.85042900  0.69047800  1
  O  O6  1  0.57351100  0.87381000  0.41725800  1
  O  O7  1  0.92648900  0.87381000  0.41725800  1
  O  O8  1  0.36794100  0.72180200  0.48994300  1
  O  O9  1  0.13205900  0.72180200  0.48994300  1
  O  O10  1  0.84183400  0.45853900  0.89730300  1
  O  O11  1  0.65816600  0.45853900  0.89730300  1
  O  O12  1  0.99228300  0.51509300  0.73748400  1
  O  O13  1  0.50771700  0.51509300  0.73748400  1
  O  O14  1  0.75000000  0.70020400  0.07615100  1
  O  O15  1  0.25000000  0.29979600  0.92384900  1
  O  O16  1  0.49228300  0.48490700  0.26251600  1
  O  O17  1  0.00771700  0.48490700  0.26251600  1
  O  O18  1  0.34183400  0.54146100  0.10269700  1
  O  O19  1  0.15816600  0.54146100  0.10269700  1
  O  O20  1  0.86794100  0.27819800  0.51005700  1
  O  O21  1  0.63205900  0.27819800  0.51005700  1
  O  O22  1  0.42648900  0.12619000  0.58274200  1
  O  O23  1  0.07351100  0.12619000  0.58274200  1
  O  O24  1  0.35652100  0.14957100  0.30952200  1
  O  O25  1  0.14347900  0.14957100  0.30952200  1
  O  O26  1  0.75000000  0.19739700  0.11651100  1
  O  O27  1  0.46214700  0.18610600  0.07145400  1
  O  O28  1  0.03785300  0.18610600  0.07145400  1
  O  O29  1  0.25000000  0.06282100  0.53888700  1
loop_
_geom_bond_atom_site_label_1
_geom_bond_atom_site_label_2
_geom_bond_distance
_geom_bond_site_symmetry_2
Li0 O1 2.037223 1_554
Li0 O14 2.189961 1_555
Li0 O26 2.262294 1_565
Li0 O28 2.513472 1_665
Li1 O2 2.037223 1_554
Li1 O14 2.189961 1_555
Li1 O26 2.262294 1_565
Li1 O27 2.513472 1_565
Li2 O27 2.037223 1_556
Li2 O15 2.189961 1_555
Li2 O3 2.262294 1_545
Li2 O2 2.513472 1_545
Li3 O28 2.037223 1_556
Li3 O15 2.189961 1_555
Li3 O3 2.262294 1_545
Li3 O1 2.513472 1_445
Nb0 O17 2.132569 1_555
Nb0 O12 2.132569 1_455
Nb0 O9 2.142167 1_555
Nb0 O20 2.142167 1_455
Nb0 O7 2.223911 1_455
Nb0 O23 2.223911 1_555
Nb1 O16 2.132569 1_555
Nb1 O13 2.132569 1_555
Nb1 O8 2.142167 1_555
Nb1 O21 2.142167 1_555
Nb1 O6 2.223911 1_555
Nb1 O22 2.223911 1_555
O0 P9 1.594391 1_555
O0 P8 1.594391 1_555
O1 P2 1.491044 1_555
O2 P3 1.491044 1_555
O3 P4 1.494218 1_555
O4 P9 1.596045 1_555
O4 P2 1.620545 1_555
O5 P8 1.596045 1_555
O5 P3 1.620545 1_555
O6 P8 1.507285 1_555
O7 P9 1.507285 1_555
O8 P0 1.512817 1_565
O9 P1 1.512817 1_565
O10 P2 1.600465 1_555
O10 P5 1.633680 1_556
O11 P3 1.600465 1_555
O11 P5 1.633680 1_556
O12 P2 1.518032 1_555
O13 P3 1.518032 1_555
O14 P5 1.503291 1_555
O15 P4 1.503291 1_555
O16 P6 1.518032 1_555
O17 P7 1.518032 1_555
O18 P6 1.600465 1_555
O18 P4 1.633680 1_554
O19 P7 1.600465 1_555
O19 P4 1.633680 1_554
O20 P9 1.512817 1_545
O21 P8 1.512817 1_545
O22 P0 1.507285 1_555
O23 P1 1.507285 1_555
O24 P0 1.596045 1_555
O24 P6 1.620545 1_555
O25 P1 1.596045 1_555
O25 P7 1.620545 1_555
O26 P5 1.494218 1_555
O27 P6 1.491044 1_555
O28 P7 1.491044 1_555
O29 P0 1.594391 1_555
O29 P1 1.594391 1_555
