# generated using pymatgen
data_Ba4Sb2O9
_symmetry_space_group_name_H-M   'P 1'
_cell_length_a   6.04479312
_cell_length_b   6.04479331
_cell_length_c   16.92491632
_cell_angle_alpha   90.00000246
_cell_angle_beta   89.99999695
_cell_angle_gamma   119.99995202
_symmetry_Int_Tables_number   1
_chemical_formula_structural   Ba4Sb2O9
_chemical_formula_sum   'Ba8 Sb4 O18'
_cell_volume   535.57496671
_cell_formula_units_Z   2
loop_
 _symmetry_equiv_pos_site_id
 _symmetry_equiv_pos_as_xyz
  1  'x, y, z'
loop_
 _atom_site_type_symbol
 _atom_site_label
 _atom_site_symmetry_multiplicity
 _atom_site_fract_x
 _atom_site_fract_y
 _atom_site_fract_z
 _atom_site_occupancy
  Ba  Ba0  1  0.66666688  0.33333333  0.87142913  1
  Ba  Ba1  1  0.33333308  0.66666672  0.12857444  1
  Ba  Ba2  1  0.33333318  0.66666669  0.37142475  1
  Ba  Ba3  1  0.66666677  0.33333330  0.62857084  1
  Ba  Ba4  1  0.00000019  -0.00000001  0.49999809  1
  Ba  Ba5  1  0.00000015  -0.00000005  0.00000173  1
  Ba  Ba6  1  0.00000010  -0.00000002  0.74999995  1
  Ba  Ba7  1  -0.00000006  0.00000012  0.24999997  1
  Sb  Sb0  1  0.33333315  0.66666692  0.66368419  1
  Sb  Sb1  1  0.66666674  0.33333309  0.33631390  1
  Sb  Sb2  1  0.66666685  0.33333309  0.16368496  1
  Sb  Sb3  1  0.33333321  0.66666699  0.83631647  1
  O  O0  1  0.17161971  0.34323919  0.88928039  1
  O  O1  1  0.82838193  0.65676321  0.11072267  1
  O  O2  1  0.65676085  0.82838032  0.88928042  1
  O  O3  1  0.34323675  0.17161811  0.11072267  1
  O  O4  1  0.17161949  0.82838055  0.88928037  1
  O  O5  1  0.82838203  0.17161799  0.11072276  1
  O  O6  1  0.82838124  0.65676315  0.38927665  1
  O  O7  1  0.17161959  0.34323897  0.61071972  1
  O  O8  1  0.34323663  0.17161794  0.38927664  1
  O  O9  1  0.65676107  0.82838041  0.61071972  1
  O  O10  1  0.82838207  0.17161816  0.38927654  1
  O  O11  1  0.17161938  0.82838063  0.61071974  1
  O  O12  1  0.52079725  0.04159430  0.24999965  1
  O  O13  1  0.47920197  0.95840432  0.75000011  1
  O  O14  1  0.95840562  0.47920270  0.24999968  1
  O  O15  1  0.04159574  0.52079799  0.75000010  1
  O  O16  1  0.52079741  0.47920245  0.24999964  1
  O  O17  1  0.47920201  0.52079843  0.75000010  1
loop_
_geom_bond_atom_site_label_1
_geom_bond_atom_site_label_2
_geom_bond_distance
_geom_bond_site_symmetry_2
Ba0 O15 2.841842 1_655
Ba0 O13 2.841843 1_545
Ba0 O17 2.841846 1_555
Ba0 O0 3.037902 1_655
Ba0 O2 3.037903 1_555
Ba0 O2 3.037903 1_545
Ba0 O0 3.037903 1_555
Ba0 O4 3.037904 1_655
Ba0 O4 3.037905 1_545
Ba1 O14 2.841791 1_455
Ba1 O12 2.841791 1_565
Ba1 O16 2.841794 1_555
Ba1 O1 3.037900 1_455
Ba1 O3 3.037901 1_565
Ba1 O5 3.037905 1_455
Ba1 O5 3.037906 1_565
Ba1 O3 3.037906 1_555
Ba1 O1 3.037907 1_555
Ba2 O14 2.841789 1_455
Ba2 O12 2.841790 1_565
Ba2 O16 2.841792 1_555
Ba2 O8 3.037901 1_565
Ba2 O6 3.037903 1_555
Ba2 O10 3.037905 1_455
Ba2 O6 3.037905 1_455
Ba2 O8 3.037907 1_555
Ba2 O10 3.037907 1_565
Ba3 O15 2.841846 1_655
Ba3 O13 2.841846 1_545
Ba3 O17 2.841848 1_555
Ba3 O9 3.037902 1_555
Ba3 O7 3.037902 1_655
Ba3 O7 3.037903 1_555
Ba3 O9 3.037903 1_545
Ba3 O11 3.037904 1_655
Ba3 O11 3.037905 1_545
Ba4 O10 2.596203 1_455
Ba4 O8 2.596203 1_555
Ba4 O6 2.596205 1_445
Ba4 O11 2.596213 1_545
Ba4 O7 2.596215 1_555
Ba4 O9 2.596215 1_445
Ba5 O5 2.596196 1_455
Ba5 O3 2.596198 1_555
Ba5 O1 2.596198 1_445
Ba5 O4 2.596210 1_544
Ba5 O2 2.596212 1_444
Ba5 O0 2.596212 1_554
Ba6 O11 2.964035 1_545
Ba6 O7 2.964038 1_555
Ba6 O9 2.964038 1_445
Ba6 O4 2.964039 1_545
Ba6 O0 2.964041 1_555
Ba6 O2 2.964042 1_445
Ba6 O13 3.030228 1_545
Ba6 O15 3.030229 1_545
Ba6 O15 3.030232 1_555
Ba6 O17 3.030232 1_445
Ba6 O13 3.030232 1_445
Ba6 O17 3.030234 1_555
Ba7 O10 2.963978 1_455
Ba7 O8 2.963982 1_555
Ba7 O6 2.963984 1_445
Ba7 O5 2.963986 1_455
Ba7 O3 2.963991 1_555
Ba7 O1 2.963992 1_445
Ba7 O14 3.030228 1_455
Ba7 O12 3.030228 1_455
Ba7 O12 3.030231 1_555
Ba7 O14 3.030232 1_445
Ba7 O16 3.030232 1_555
Ba7 O16 3.030233 1_445
O0 Sb3 1.915785 1_555
O1 Sb2 1.915783 1_555
O2 Sb3 1.915784 1_555
O3 Sb2 1.915782 1_555
O4 Sb3 1.915781 1_555
O5 Sb2 1.915781 1_555
O6 Sb1 1.915786 1_555
O7 Sb0 1.915790 1_555
O8 Sb1 1.915786 1_555
O9 Sb0 1.915790 1_555
O10 Sb1 1.915785 1_555
O11 Sb0 1.915786 1_555
O12 Sb1 2.113426 1_555
O12 Sb2 2.113431 1_555
O13 Sb0 2.113440 1_555
O13 Sb3 2.113445 1_555
O14 Sb1 2.113426 1_555
O14 Sb2 2.113431 1_555
O15 Sb0 2.113440 1_555
O15 Sb3 2.113446 1_555
O16 Sb1 2.113425 1_555
O16 Sb2 2.113430 1_555
O17 Sb0 2.113439 1_555
O17 Sb3 2.113445 1_555
