# generated using pymatgen
data_Yb2HgGe
_symmetry_space_group_name_H-M   'P 1'
_cell_length_a   5.03879117
_cell_length_b   5.03879117
_cell_length_c   5.03879117
_cell_angle_alpha   60.00000000
_cell_angle_beta   60.00000000
_cell_angle_gamma   60.00000000
_symmetry_Int_Tables_number   1
_chemical_formula_structural   Yb2HgGe
_chemical_formula_sum   'Yb2 Hg1 Ge1'
_cell_volume   90.46156192
_cell_formula_units_Z   1
loop_
 _symmetry_equiv_pos_site_id
 _symmetry_equiv_pos_as_xyz
  1  'x, y, z'
loop_
 _atom_site_type_symbol
 _atom_site_label
 _atom_site_symmetry_multiplicity
 _atom_site_fract_x
 _atom_site_fract_y
 _atom_site_fract_z
 _atom_site_occupancy
  Yb  Yb0  1  0.25000000  0.25000000  0.25000000  1
  Yb  Yb1  1  0.75000000  0.75000000  0.75000000  1
  Hg  Hg0  1  0.00000000  0.00000000  0.00000000  1
  Ge  Ge0  1  0.50000000  0.50000000  0.50000000  1
loop_
_geom_bond_atom_site_label_1
_geom_bond_atom_site_label_2
_geom_bond_distance
_geom_bond_site_symmetry_2
Hg0 Yb0 3.085617 1_455
Hg0 Yb1 3.085617 1_444
Hg0 Yb0 3.085617 1_545
Hg0 Yb1 3.085617 1_544
Hg0 Yb1 3.085617 1_445
Hg0 Yb0 3.085617 1_555
Hg0 Yb0 3.085617 1_554
Hg0 Yb1 3.085617 1_454
Ge0 Yb0 3.085617 1_565
Ge0 Yb0 3.085617 1_555
Ge0 Yb0 3.085617 1_556
Ge0 Yb1 3.085617 1_455
Ge0 Yb1 3.085617 1_554
Ge0 Yb0 3.085617 1_655
Ge0 Yb1 3.085617 1_545
Ge0 Yb1 3.085617 1_555
