# generated using pymatgen
data_Li4Mn3Fe(PO4)4
_symmetry_space_group_name_H-M   'P 1'
_cell_length_a   7.79073900
_cell_length_b   7.79356211
_cell_length_c   10.53411695
_cell_angle_alpha   90.03617471
_cell_angle_beta   90.07436840
_cell_angle_gamma   104.26215935
_symmetry_Int_Tables_number   1
_chemical_formula_structural   Li4Mn3Fe(PO4)4
_chemical_formula_sum   'Li8 Mn6 Fe2 P8 O32'
_cell_volume   619.89203297
_cell_formula_units_Z   2
loop_
 _symmetry_equiv_pos_site_id
 _symmetry_equiv_pos_as_xyz
  1  'x, y, z'
loop_
 _atom_site_type_symbol
 _atom_site_label
 _atom_site_symmetry_multiplicity
 _atom_site_fract_x
 _atom_site_fract_y
 _atom_site_fract_z
 _atom_site_occupancy
  Li  Li0  1  0.00000000  0.00000000  0.00000000  1
  Li  Li1  1  0.00000000  0.50000000  0.50000000  1
  Li  Li2  1  0.50000000  0.00000000  0.50000000  1
  Li  Li3  1  0.25013600  0.24960400  0.50033400  1
  Li  Li4  1  0.74990700  0.24957800  0.99965900  1
  Li  Li5  1  0.50000000  0.50000000  0.00000000  1
  Li  Li6  1  0.25009300  0.75042200  0.00034100  1
  Li  Li7  1  0.74986400  0.75039600  0.49966600  1
  Mn  Mn0  1  0.36145300  0.11169100  0.78145300  1
  Mn  Mn1  1  0.13793100  0.38815100  0.21857800  1
  Mn  Mn2  1  0.36142200  0.61169000  0.71880300  1
  Mn  Mn3  1  0.63857800  0.38831000  0.28119700  1
  Mn  Mn4  1  0.86206900  0.61184900  0.78142200  1
  Mn  Mn5  1  0.63854700  0.88830900  0.21854700  1
  Fe  Fe0  1  0.86058300  0.11028300  0.71819600  1
  Fe  Fe1  1  0.13941700  0.88971700  0.28180400  1
  P  P0  1  0.07900200  0.32907100  0.90648600  1
  P  P1  1  0.41854400  0.16863200  0.09300500  1
  P  P2  1  0.58235700  0.33054500  0.59261200  1
  P  P3  1  0.08082000  0.83256300  0.59167600  1
  P  P4  1  0.91918000  0.16743700  0.40832400  1
  P  P5  1  0.41764300  0.66945500  0.40738800  1
  P  P6  1  0.58145600  0.83136800  0.90699500  1
  P  P7  1  0.92099800  0.67092900  0.09351400  1
  O  O0  1  0.08517100  0.13062300  0.33824600  1
  O  O1  1  0.25795900  0.00804100  0.09703800  1
  O  O2  1  0.11261600  0.16198900  0.83704100  1
  O  O3  1  0.01913300  0.26933300  0.04381300  1
  O  O4  1  0.47961100  0.22989100  0.95602700  1
  O  O5  1  0.38525300  0.33644600  0.16205100  1
  O  O6  1  0.58647600  0.13536400  0.16201300  1
  O  O7  1  0.08813200  0.63719400  0.16302800  1
  O  O8  1  0.24019300  0.49018200  0.90326100  1
  O  O9  1  0.25820300  0.50758100  0.40435700  1
  O  O10  1  0.75721900  0.00789000  0.40409700  1
  O  O11  1  0.41503800  0.36358600  0.66223200  1
  O  O12  1  0.61966400  0.16482700  0.66247600  1
  O  O13  1  0.11335500  0.66499500  0.66152100  1
  O  O14  1  0.01963000  0.77101300  0.45479000  1
  O  O15  1  0.52002200  0.26860200  0.45597200  1
  O  O16  1  0.47997800  0.73139800  0.54402800  1
  O  O17  1  0.98037000  0.22898700  0.54521000  1
  O  O18  1  0.88664500  0.33500500  0.33847900  1
  O  O19  1  0.38033600  0.83517300  0.33752400  1
  O  O20  1  0.58496200  0.63641400  0.33776800  1
  O  O21  1  0.74179700  0.49241900  0.59564300  1
  O  O22  1  0.24278100  0.99211000  0.59590300  1
  O  O23  1  0.75980700  0.50981800  0.09673900  1
  O  O24  1  0.91186800  0.36280600  0.83697200  1
  O  O25  1  0.41352400  0.86463600  0.83798700  1
  O  O26  1  0.61474700  0.66355400  0.83794900  1
  O  O27  1  0.52038900  0.77010900  0.04397300  1
  O  O28  1  0.98086700  0.73066700  0.95618700  1
  O  O29  1  0.88738400  0.83801100  0.16295900  1
  O  O30  1  0.74204100  0.99195900  0.90296200  1
  O  O31  1  0.91482900  0.86937700  0.66175400  1
loop_
_geom_bond_atom_site_label_1
_geom_bond_atom_site_label_2
_geom_bond_distance
_geom_bond_site_symmetry_2
Li0 O28 2.117954 1_444
Li0 O3 2.117954 1_555
Li0 O29 2.184331 1_445
Li0 O2 2.184331 1_554
Li0 O1 2.240587 1_555
Li0 O30 2.240587 1_444
Li1 O14 2.133942 1_555
Li1 O17 2.133942 1_455
Li1 O13 2.182264 1_555
Li1 O18 2.182264 1_455
Li1 O21 2.238717 1_455
Li1 O9 2.238717 1_555
Li2 O16 2.112379 1_545
Li2 O15 2.112379 1_555
Li2 O12 2.202653 1_555
Li2 O19 2.202653 1_545
Li2 O22 2.232651 1_545
Li2 O10 2.232651 1_555
Li3 O17 2.121938 1_455
Li3 O15 2.123800 1_555
Li3 O11 2.185922 1_555
Li3 O0 2.198205 1_555
Li3 O22 2.233846 1_545
Li3 O9 2.238071 1_555
Li4 O3 2.116054 1_656
Li4 O4 2.123068 1_555
Li4 O24 2.183284 1_555
Li4 O6 2.188064 1_556
Li4 O30 2.238104 1_545
Li4 O23 2.255094 1_556
Li5 O27 2.122525 1_555
Li5 O4 2.122525 1_554
Li5 O5 2.187069 1_555
Li5 O26 2.187069 1_554
Li5 O23 2.249335 1_555
Li5 O8 2.249335 1_554
Li6 O28 2.116054 1_454
Li6 O27 2.123068 1_555
Li6 O7 2.183284 1_555
Li6 O25 2.188064 1_554
Li6 O1 2.238104 1_565
Li6 O8 2.255094 1_554
Li7 O14 2.121938 1_655
Li7 O16 2.123800 1_555
Li7 O20 2.185922 1_555
Li7 O31 2.198205 1_555
Li7 O10 2.233846 1_565
Li7 O21 2.238071 1_555
Mn0 O25 2.147609 1_545
Mn0 O2 2.152188 1_555
Mn0 O4 2.157197 1_555
Mn0 O22 2.261035 1_545
Mn0 O11 2.281708 1_555
Mn0 O12 2.320730 1_555
Mn1 O5 2.148218 1_555
Mn1 O7 2.152217 1_555
Mn1 O3 2.162060 1_555
Mn1 O9 2.266600 1_555
Mn1 O18 2.281887 1_455
Mn1 O0 2.320432 1_555
Mn2 O13 2.159773 1_555
Mn2 O11 2.160005 1_555
Mn2 O16 2.166832 1_555
Mn2 O8 2.265135 1_555
Mn2 O25 2.286601 1_555
Mn2 O26 2.287701 1_555
Mn3 O18 2.159773 1_555
Mn3 O20 2.160005 1_555
Mn3 O15 2.166832 1_555
Mn3 O23 2.265135 1_555
Mn3 O6 2.286601 1_555
Mn3 O5 2.287701 1_555
Mn4 O26 2.148218 1_555
Mn4 O24 2.152217 1_555
Mn4 O28 2.162060 1_555
Mn4 O21 2.266600 1_555
Mn4 O13 2.281887 1_655
Mn4 O31 2.320432 1_555
Mn5 O6 2.147609 1_565
Mn5 O29 2.152188 1_555
Mn5 O27 2.157197 1_555
Mn5 O10 2.261035 1_565
Mn5 O20 2.281708 1_555
Mn5 O19 2.320730 1_555
Fe0 O12 2.106822 1_555
Fe0 O31 2.108881 1_545
Fe0 O17 2.151405 1_555
Fe0 O30 2.253635 1_545
Fe0 O2 2.277774 1_655
Fe0 O24 2.281782 1_555
Fe1 O19 2.106822 1_555
Fe1 O0 2.108881 1_565
Fe1 O14 2.151405 1_555
Fe1 O1 2.253635 1_565
Fe1 O29 2.277774 1_455
Fe1 O7 2.281782 1_555
O0 P4 1.576276 1_455
O1 P1 1.536925 1_555
O2 P0 1.570567 1_555
O3 P0 1.556477 1_554
O4 P1 1.557915 1_556
O5 P1 1.572652 1_555
O6 P1 1.572341 1_555
O7 P7 1.570747 1_455
O8 P0 1.542084 1_555
O9 P5 1.537291 1_555
O10 P4 1.538499 1_555
O11 P2 1.571945 1_555
O12 P2 1.574728 1_555
O13 P3 1.573189 1_555
O14 P3 1.556059 1_555
O15 P2 1.556441 1_555
O16 P5 1.556441 1_555
O17 P4 1.556059 1_555
O18 P4 1.573189 1_555
O19 P5 1.574728 1_555
O20 P5 1.571945 1_555
O21 P2 1.537291 1_555
O22 P3 1.538499 1_555
O23 P7 1.542084 1_555
O24 P0 1.570747 1_655
O25 P6 1.572341 1_555
O26 P6 1.572652 1_555
O27 P6 1.557915 1_554
O28 P7 1.556477 1_556
O29 P7 1.570567 1_555
O30 P6 1.536925 1_555
O31 P3 1.576276 1_655
