# generated using pymatgen
data_CaSnS3
_symmetry_space_group_name_H-M   'P 1'
_cell_length_a   10.20624480
_cell_length_b   10.20624480
_cell_length_c   10.20624455
_cell_angle_alpha   38.69621169
_cell_angle_beta   38.69621169
_cell_angle_gamma   38.69620872
_symmetry_Int_Tables_number   1
_chemical_formula_structural   CaSnS3
_chemical_formula_sum   'Ca3 Sn3 S9'
_cell_volume   373.49804603
_cell_formula_units_Z   3
loop_
 _symmetry_equiv_pos_site_id
 _symmetry_equiv_pos_as_xyz
  1  'x, y, z'
loop_
 _atom_site_type_symbol
 _atom_site_label
 _atom_site_symmetry_multiplicity
 _atom_site_fract_x
 _atom_site_fract_y
 _atom_site_fract_z
 _atom_site_occupancy
  Ca  Ca0  1  0.00000000  0.00000000  0.00000000  1
  Ca  Ca1  1  0.78325600  0.78325600  0.78325600  1
  Ca  Ca2  1  0.21674400  0.21674400  0.21674400  1
  Sn  Sn0  1  0.50000000  0.50000000  0.50000000  1
  Sn  Sn1  1  0.61040300  0.61040300  0.61040300  1
  Sn  Sn2  1  0.38959700  0.38959700  0.38959700  1
  S  S0  1  0.50000000  0.50000000  0.00000000  1
  S  S1  1  0.00000000  0.50000000  0.50000000  1
  S  S2  1  0.50000000  0.00000000  0.50000000  1
  S  S3  1  0.72850800  0.72850800  0.20788100  1
  S  S4  1  0.20788100  0.72850800  0.72850800  1
  S  S5  1  0.72850800  0.20788100  0.72850800  1
  S  S6  1  0.27149200  0.27149200  0.79211900  1
  S  S7  1  0.79211900  0.27149200  0.27149200  1
  S  S8  1  0.27149200  0.79211900  0.27149200  1
loop_
_geom_bond_atom_site_label_1
_geom_bond_atom_site_label_2
_geom_bond_distance
_geom_bond_site_symmetry_2
Ca0 S0 3.381397 1_545
Ca0 S0 3.381397 1_455
Ca0 S2 3.381397 1_455
Ca0 S1 3.381397 1_545
Ca0 S2 3.381397 1_554
Ca0 S1 3.381397 1_554
Ca1 S6 3.385182 1_655
Ca1 S6 3.385182 1_565
Ca1 S7 3.385182 1_565
Ca1 S8 3.385182 1_655
Ca1 S7 3.385182 1_556
Ca1 S8 3.385182 1_556
Ca1 S3 3.511958 1_556
Ca1 S5 3.511958 1_565
Ca1 S4 3.511958 1_655
Ca2 S3 3.385182 1_545
Ca2 S3 3.385182 1_455
Ca2 S5 3.385182 1_455
Ca2 S4 3.385182 1_545
Ca2 S5 3.385182 1_554
Ca2 S4 3.385182 1_554
Ca2 S6 3.511958 1_554
Ca2 S7 3.511958 1_455
Ca2 S8 3.511958 1_545
S0 Sn1 2.518872 1_554
S0 Sn2 2.518872 1_555
S1 Sn1 2.518872 1_455
S1 Sn2 2.518872 1_555
S2 Sn1 2.518872 1_545
S2 Sn2 2.518872 1_555
S3 Sn0 2.559320 1_555
S3 Sn1 2.567449 1_555
S4 Sn0 2.559320 1_555
S4 Sn1 2.567449 1_555
S5 Sn0 2.559320 1_555
S5 Sn1 2.567449 1_555
S6 Sn0 2.559320 1_555
S6 Sn2 2.567449 1_555
S7 Sn0 2.559320 1_555
S7 Sn2 2.567449 1_555
S8 Sn0 2.559320 1_555
S8 Sn2 2.567449 1_555
