# generated using pymatgen
data_LiMnPO4
_symmetry_space_group_name_H-M   'P 1'
_cell_length_a   5.33373500
_cell_length_b   8.24063361
_cell_length_c   8.60571506
_cell_angle_alpha   105.99816156
_cell_angle_beta   89.99961680
_cell_angle_gamma   89.99938865
_symmetry_Int_Tables_number   1
_chemical_formula_structural   LiMnPO4
_chemical_formula_sum   'Li4 Mn4 P4 O16'
_cell_volume   363.60063665
_cell_formula_units_Z   4
loop_
 _symmetry_equiv_pos_site_id
 _symmetry_equiv_pos_as_xyz
  1  'x, y, z'
loop_
 _atom_site_type_symbol
 _atom_site_label
 _atom_site_symmetry_multiplicity
 _atom_site_fract_x
 _atom_site_fract_y
 _atom_site_fract_z
 _atom_site_occupancy
  Li  Li0  1  0.33890800  0.86956100  0.21249400  1
  Li  Li1  1  0.66109700  0.86956500  0.71250100  1
  Li  Li2  1  0.82417600  0.36209300  0.38143900  1
  Li  Li3  1  0.17582700  0.36209600  0.88144300  1
  Mn  Mn0  1  0.32357800  0.48944300  0.26764600  1
  Mn  Mn1  1  0.67643700  0.48945100  0.76763000  1
  Mn  Mn2  1  0.83955100  0.96190500  0.07020700  1
  Mn  Mn3  1  0.16046200  0.96188300  0.57017200  1
  P  P0  1  0.67536300  0.25107600  0.00575000  1
  P  P1  1  0.32463600  0.25107100  0.50574900  1
  P  P2  1  0.81968800  0.74025600  0.33637300  1
  P  P3  1  0.18030500  0.74025400  0.83636700  1
  O  O0  1  0.20049400  0.87302900  0.00451000  1
  O  O1  1  0.79949000  0.87303400  0.50451500  1
  O  O2  1  0.40288200  0.31937000  0.04310900  1
  O  O3  1  0.59711600  0.31936400  0.54310200  1
  O  O4  1  0.69670600  0.80956000  0.20380600  1
  O  O5  1  0.30328900  0.80956300  0.70380100  1
  O  O6  1  0.10844900  0.71091400  0.30070300  1
  O  O7  1  0.89154700  0.71091000  0.80069900  1
  O  O8  1  0.80051900  0.22788800  0.16234500  1
  O  O9  1  0.19948800  0.22787600  0.66234100  1
  O  O10  1  0.68716700  0.57556100  0.34203200  1
  O  O11  1  0.31283900  0.57556100  0.84202800  1
  O  O12  1  0.17648300  0.37780700  0.43602000  1
  O  O13  1  0.82350000  0.37780600  0.93600800  1
  O  O14  1  0.31500800  0.07035200  0.38740000  1
  O  O15  1  0.68499500  0.07035400  0.88741300  1
loop_
_geom_bond_atom_site_label_1
_geom_bond_atom_site_label_2
_geom_bond_distance
_geom_bond_site_symmetry_2
Li0 O14 1.909677 1_565
Li0 O0 1.943612 1_555
Li0 O4 1.967653 1_555
Li0 O6 2.084084 1_555
Li1 O15 1.909698 1_565
Li1 O1 1.943579 1_555
Li1 O5 1.967714 1_555
Li1 O7 2.084043 1_555
Li2 O8 1.909082 1_555
Li2 O12 1.932601 1_655
Li2 O3 1.948387 1_555
Li2 O10 2.017997 1_555
Li3 O9 1.909175 1_555
Li3 O13 1.932665 1_455
Li3 O2 1.948388 1_556
Li3 O11 2.018020 1_555
Mn0 O12 2.072717 1_555
Mn0 O2 2.093836 1_555
Mn0 O10 2.103303 1_555
Mn0 O6 2.107644 1_555
Mn1 O13 2.072728 1_555
Mn1 O3 2.093856 1_555
Mn1 O11 2.103331 1_555
Mn1 O7 2.107520 1_555
Mn2 O4 2.067372 1_555
Mn2 O0 2.081839 1_655
Mn2 O8 2.125639 1_565
Mn2 O15 2.174333 1_564
Mn2 O7 2.662693 1_554
Mn3 O5 2.067362 1_555
Mn3 O1 2.081882 1_455
Mn3 O9 2.125742 1_565
Mn3 O14 2.174255 1_565
Mn3 O6 2.662375 1_555
O0 P3 1.558798 1_554
O1 P2 1.558804 1_555
O2 P0 1.559658 1_555
O3 P1 1.559661 1_555
O4 P2 1.554697 1_555
O5 P3 1.554716 1_555
O6 P2 1.576041 1_455
O7 P3 1.576033 1_655
O8 P0 1.562096 1_555
O9 P1 1.562069 1_555
O10 P2 1.542856 1_555
O11 P3 1.542864 1_555
O12 P1 1.555856 1_555
O13 P0 1.555845 1_556
O14 P1 1.556185 1_555
O15 P0 1.556164 1_556
