# generated using pymatgen
data_Rb2PtSe2
_symmetry_space_group_name_H-M   'P 1'
_cell_length_a   3.79587635
_cell_length_b   6.64303828
_cell_length_c   6.64303758
_cell_angle_alpha   69.98613861
_cell_angle_beta   73.39911088
_cell_angle_gamma   73.39911473
_symmetry_Int_Tables_number   1
_chemical_formula_structural   Rb2PtSe2
_chemical_formula_sum   'Rb2 Pt1 Se2'
_cell_volume   147.51382839
_cell_formula_units_Z   1
loop_
 _symmetry_equiv_pos_site_id
 _symmetry_equiv_pos_as_xyz
  1  'x, y, z'
loop_
 _atom_site_type_symbol
 _atom_site_label
 _atom_site_symmetry_multiplicity
 _atom_site_fract_x
 _atom_site_fract_y
 _atom_site_fract_z
 _atom_site_occupancy
  Rb  Rb0  1  0.19732999  0.30267001  0.30267001  1
  Rb  Rb1  1  0.80267001  0.69732999  0.69732999  1
  Pt  Pt0  1  0.00000000  0.00000000  -0.00000000  1
  Se  Se0  1  0.50000000  0.78666000  0.21334000  1
  Se  Se1  1  0.50000000  0.21334000  0.78666000  1
loop_
_geom_bond_atom_site_label_1
_geom_bond_atom_site_label_2
_geom_bond_distance
_geom_bond_site_symmetry_2
Rb0 Se1 3.489253 1_554
Rb0 Se0 3.489254 1_545
Rb0 Se1 3.524848 1_555
Rb0 Se0 3.524848 1_555
Rb0 Se1 3.524848 1_455
Rb0 Se0 3.524849 1_455
Rb1 Se0 3.489253 1_556
Rb1 Se1 3.489254 1_565
Rb1 Se0 3.524848 1_555
Rb1 Se1 3.524848 1_555
Rb1 Se0 3.524848 1_655
Rb1 Se1 3.524849 1_655
Pt0 Se0 2.498880 1_445
Pt0 Se1 2.498880 1_554
Pt0 Se1 2.498880 1_454
Pt0 Se0 2.498880 1_545
Pt0 Rb1 3.624200 1_444
Pt0 Rb0 3.624200 1_555
Pt0 Rb1 3.624201 1_544
Pt0 Rb0 3.624201 1_455
