# generated using pymatgen
data_Li2Si3NiO8
_symmetry_space_group_name_H-M   'P 1'
_cell_length_a   10.07986400
_cell_length_b   4.93573700
_cell_length_c   6.77956002
_cell_angle_alpha   89.42279498
_cell_angle_beta   90.00000000
_cell_angle_gamma   90.00000000
_symmetry_Int_Tables_number   1
_chemical_formula_structural   Li2Si3NiO8
_chemical_formula_sum   'Li4 Si6 Ni2 O16'
_cell_volume   337.27655598
_cell_formula_units_Z   2
loop_
 _symmetry_equiv_pos_site_id
 _symmetry_equiv_pos_as_xyz
  1  'x, y, z'
loop_
 _atom_site_type_symbol
 _atom_site_label
 _atom_site_symmetry_multiplicity
 _atom_site_fract_x
 _atom_site_fract_y
 _atom_site_fract_z
 _atom_site_occupancy
  Li  Li0  1  0.85326900  0.07004500  0.75057100  1
  Li  Li1  1  0.35326900  0.92995500  0.24942900  1
  Li  Li2  1  0.65869800  0.59209600  0.26390800  1
  Li  Li3  1  0.15869800  0.40790400  0.73609200  1
  Si  Si0  1  0.66367000  0.55657500  0.77407400  1
  Si  Si1  1  0.08763200  0.94847800  0.48050200  1
  Si  Si2  1  0.58763200  0.05152200  0.51949800  1
  Si  Si3  1  0.16367000  0.44342500  0.22592600  1
  Si  Si4  1  0.40575300  0.40438900  0.97309700  1
  Si  Si5  1  0.90575300  0.59561100  0.02690300  1
  Ni  Ni0  1  0.83877400  0.07928200  0.25175500  1
  Ni  Ni1  1  0.33877400  0.92071800  0.74824500  1
  O  O0  1  0.15769900  0.01918800  0.68654900  1
  O  O1  1  0.66077400  0.87761400  0.70715400  1
  O  O2  1  0.12098700  0.62579000  0.41803900  1
  O  O3  1  0.43215700  0.98738300  0.50196100  1
  O  O4  1  0.62098700  0.37421000  0.58196100  1
  O  O5  1  0.93215700  0.01261700  0.49803900  1
  O  O6  1  0.16077400  0.12238600  0.29284600  1
  O  O7  1  0.65769900  0.98081200  0.31345100  1
  O  O8  1  0.31902100  0.53037500  0.16883800  1
  O  O9  1  0.83502100  0.47728500  0.22292900  1
  O  O10  1  0.06610000  0.48829200  0.02836300  1
  O  O11  1  0.40044600  0.08102200  0.99937800  1
  O  O12  1  0.56610000  0.51170800  0.97163700  1
  O  O13  1  0.90044600  0.91897800  0.00062200  1
  O  O14  1  0.33502100  0.52271500  0.77707100  1
  O  O15  1  0.81902100  0.46962500  0.83116200  1
loop_
_geom_bond_atom_site_label_1
_geom_bond_atom_site_label_2
_geom_bond_distance
_geom_bond_site_symmetry_2
Li0 O13 1.905375 1_546
Li0 O5 1.911431 1_555
Li0 O15 2.080640 1_555
Li0 O1 2.181565 1_545
Li1 O11 1.905375 1_564
Li1 O3 1.911431 1_555
Li1 O8 2.080640 1_555
Li1 O6 2.181565 1_565
Li2 O9 1.886880 1_555
Li2 O7 1.951135 1_555
Li2 O12 2.229502 1_554
Li2 O4 2.429768 1_555
Li3 O14 1.886880 1_555
Li3 O0 1.951135 1_555
Li3 O10 2.229502 1_556
Li3 O2 2.429768 1_555
Ni0 O7 1.933512 1_545
Ni0 O5 1.941935 1_555
Ni0 O9 1.972538 1_555
Ni0 O13 1.984530 1_545
Ni1 O0 1.933512 1_565
Ni1 O3 1.941935 1_555
Ni1 O14 1.972538 1_555
Ni1 O11 1.984530 1_565
O0 Si1 1.606795 1_545
O1 Si0 1.644094 1_555
O1 Si2 1.696142 1_565
O2 Si3 1.647808 1_555
O2 Si1 1.686019 1_555
O3 Si2 1.603473 1_565
O4 Si0 1.647808 1_555
O4 Si2 1.686019 1_555
O5 Si1 1.603473 1_645
O6 Si3 1.644094 1_555
O6 Si1 1.696142 1_545
O7 Si2 1.606795 1_565
O8 Si3 1.668150 1_555
O8 Si4 1.711327 1_554
O9 Si5 1.612431 1_555
O10 Si3 1.674601 1_555
O10 Si5 1.700859 1_455
O11 Si4 1.605076 1_555
O12 Si0 1.674601 1_555
O12 Si4 1.700859 1_555
O13 Si5 1.605076 1_555
O14 Si4 1.612431 1_555
O15 Si0 1.668150 1_555
O15 Si5 1.711327 1_556
