# generated using pymatgen
data_CsRb2PdF5
_symmetry_space_group_name_H-M   'P 1'
_cell_length_a   7.74087000
_cell_length_b   7.74087000
_cell_length_c   6.54181100
_cell_angle_alpha   90.00000000
_cell_angle_beta   90.00000000
_cell_angle_gamma   90.00000000
_symmetry_Int_Tables_number   1
_chemical_formula_structural   CsRb2PdF5
_chemical_formula_sum   'Cs2 Rb4 Pd2 F10'
_cell_volume   391.99230411
_cell_formula_units_Z   2
loop_
 _symmetry_equiv_pos_site_id
 _symmetry_equiv_pos_as_xyz
  1  'x, y, z'
loop_
 _atom_site_type_symbol
 _atom_site_label
 _atom_site_symmetry_multiplicity
 _atom_site_fract_x
 _atom_site_fract_y
 _atom_site_fract_z
 _atom_site_occupancy
  Cs  Cs0  1  0.50000000  0.50000000  0.00000000  1
  Cs  Cs1  1  0.00000000  0.00000000  0.00000000  1
  Rb  Rb0  1  0.17812900  0.32187100  0.50000000  1
  Rb  Rb1  1  0.67812900  0.17812900  0.50000000  1
  Rb  Rb2  1  0.82187100  0.67812900  0.50000000  1
  Rb  Rb3  1  0.32187100  0.82187100  0.50000000  1
  Pd  Pd0  1  0.00000000  0.50000000  0.00000000  1
  Pd  Pd1  1  0.50000000  0.00000000  0.00000000  1
  F  F0  1  0.12864200  0.62864200  0.78410000  1
  F  F1  1  0.87135800  0.37135800  0.78410000  1
  F  F2  1  0.37135800  0.12864200  0.78410000  1
  F  F3  1  0.62864200  0.87135800  0.78410000  1
  F  F4  1  0.12864200  0.62864200  0.21590000  1
  F  F5  1  0.62864200  0.87135800  0.21590000  1
  F  F6  1  0.37135800  0.12864200  0.21590000  1
  F  F7  1  0.87135800  0.37135800  0.21590000  1
  F  F8  1  0.00000000  0.00000000  0.50000000  1
  F  F9  1  0.50000000  0.50000000  0.50000000  1
loop_
_geom_bond_atom_site_label_1
_geom_bond_atom_site_label_2
_geom_bond_distance
_geom_bond_site_symmetry_2
Cs0 F9 3.270906 1_555
Cs0 F9 3.270906 1_554
Cs0 F0 3.354094 1_554
Cs0 F5 3.354094 1_555
Cs0 F6 3.354094 1_555
Cs0 F3 3.354094 1_554
Cs0 F2 3.354094 1_554
Cs0 F7 3.354094 1_555
Cs0 F1 3.354094 1_554
Cs0 F4 3.354094 1_555
Cs1 F8 3.270906 1_554
Cs1 F8 3.270906 1_555
Cs1 F2 3.354094 1_554
Cs1 F0 3.354094 1_544
Cs1 F4 3.354094 1_545
Cs1 F3 3.354094 1_444
Cs1 F5 3.354094 1_445
Cs1 F6 3.354094 1_555
Cs1 F7 3.354094 1_455
Cs1 F1 3.354094 1_454
F0 Pd0 1.994504 1_556
F0 Rb3 2.815800 1_555
F0 Rb0 3.039729 1_555
F0 Rb2 3.039729 1_455
F1 Pd0 1.994504 1_656
F1 Rb1 2.815800 1_555
F1 Rb2 3.039729 1_555
F1 Rb0 3.039729 1_655
F2 Pd1 1.994504 1_556
F2 Rb0 2.815800 1_555
F2 Rb1 3.039729 1_555
F2 Rb3 3.039729 1_545
F3 Pd1 1.994504 1_566
F3 Rb2 2.815800 1_555
F3 Rb3 3.039729 1_555
F3 Rb1 3.039729 1_565
F4 Pd0 1.994504 1_555
F4 Rb3 2.815800 1_555
F4 Rb2 3.039729 1_455
F4 Rb0 3.039729 1_555
F5 Pd1 1.994504 1_565
F5 Rb2 2.815800 1_555
F5 Rb3 3.039729 1_555
F5 Rb1 3.039729 1_565
F6 Pd1 1.994504 1_555
F6 Rb0 2.815800 1_555
F6 Rb1 3.039729 1_555
F6 Rb3 3.039729 1_545
F7 Pd0 1.994504 1_655
F7 Rb1 2.815800 1_555
F7 Rb2 3.039729 1_555
F7 Rb0 3.039729 1_655
F8 Rb2 2.847661 1_445
F8 Rb1 2.847661 1_455
F8 Rb3 2.847661 1_545
F8 Rb0 2.847661 1_555
F9 Rb2 2.847661 1_555
F9 Rb1 2.847661 1_555
F9 Rb3 2.847661 1_555
F9 Rb0 2.847661 1_555
