# generated using pymatgen
data_V18Cu20O57
_symmetry_space_group_name_H-M   'P 1'
_cell_length_a   7.85389100
_cell_length_b   12.20615256
_cell_length_c   12.20677576
_cell_angle_alpha   64.03314897
_cell_angle_beta   87.23395810
_cell_angle_gamma   87.22848284
_symmetry_Int_Tables_number   1
_chemical_formula_structural   V18Cu20O57
_chemical_formula_sum   'V18 Cu20 O57'
_cell_volume   1050.36763756
_cell_formula_units_Z   1
loop_
 _symmetry_equiv_pos_site_id
 _symmetry_equiv_pos_as_xyz
  1  'x, y, z'
loop_
 _atom_site_type_symbol
 _atom_site_label
 _atom_site_symmetry_multiplicity
 _atom_site_fract_x
 _atom_site_fract_y
 _atom_site_fract_z
 _atom_site_occupancy
  V  V0  1  0.90505800  0.71297100  0.88746000  1
  V  V1  1  0.85243900  0.35796600  0.47605000  1
  V  V2  1  0.51520100  0.69253900  0.81046800  1
  V  V3  1  0.19585100  0.02362500  0.13842400  1
  V  V4  1  0.25214200  0.07319500  0.36572800  1
  V  V5  1  0.91900100  0.40968500  0.69923400  1
  V  V6  1  0.58328500  0.75122400  0.03155200  1
  V  V7  1  0.09494200  0.28702900  0.11254000  1
  V  V8  1  0.43001500  0.95490400  0.78947700  1
  V  V9  1  0.56998500  0.04509600  0.21052300  1
  V  V10  1  0.23837800  0.37933900  0.55113100  1
  V  V11  1  0.08099900  0.59031500  0.30076600  1
  V  V12  1  0.41671500  0.24877600  0.96844800  1
  V  V13  1  0.74785800  0.92680500  0.63427200  1
  V  V14  1  0.14756100  0.64203400  0.52395000  1
  V  V15  1  0.48479900  0.30746100  0.18953200  1
  V  V16  1  0.80414900  0.97637500  0.86157600  1
  V  V17  1  0.76162200  0.62066100  0.44886900  1
  Cu  Cu0  1  0.84838600  0.84980700  0.16606300  1
  Cu  Cu1  1  0.91888000  0.90022000  0.38288700  1
  Cu  Cu2  1  0.16111900  0.82394500  0.01969600  1
  Cu  Cu3  1  0.17121400  0.84362700  0.64756900  1
  Cu  Cu4  1  0.83888100  0.17605500  0.98030400  1
  Cu  Cu5  1  0.08112000  0.09978000  0.61711300  1
  Cu  Cu6  1  0.41478200  0.76831200  0.28189900  1
  Cu  Cu7  1  0.15161400  0.15019300  0.83393700  1
  Cu  Cu8  1  0.48556900  0.81937000  0.49980300  1
  Cu  Cu9  1  0.83228000  0.66771500  0.66762000  1
  Cu  Cu10  1  0.16772000  0.33228500  0.33238000  1
  Cu  Cu11  1  0.51443100  0.18063000  0.50019700  1
  Cu  Cu12  1  0.18237000  0.51458900  0.83414500  1
  Cu  Cu13  1  0.58521800  0.23168800  0.71810100  1
  Cu  Cu14  1  0.25425900  0.56520300  0.05047300  1
  Cu  Cu15  1  0.49449600  0.48950500  0.68841200  1
  Cu  Cu16  1  0.82878600  0.15637300  0.35243100  1
  Cu  Cu17  1  0.50550400  0.51049500  0.31158800  1
  Cu  Cu18  1  0.74574100  0.43479700  0.94952700  1
  Cu  Cu19  1  0.81763000  0.48541100  0.16585500  1
  O  O0  1  0.87988900  0.68012500  0.29379400  1
  O  O1  1  0.92120700  0.72192900  0.48845400  1
  O  O2  1  0.93658500  0.79548300  0.70649600  1
  O  O3  1  0.98235400  0.84492000  0.90240500  1
  O  O4  1  0.86720200  0.01764300  0.69433300  1
  O  O5  1  0.20008700  0.68610000  0.36000800  1
  O  O6  1  0.91446500  0.08212700  0.88445600  1
  O  O7  1  0.24961900  0.74841900  0.55045500  1
  O  O8  1  0.08553500  0.91787300  0.11554400  1
  O  O9  1  0.13279800  0.98235700  0.30566700  1
  O  O10  1  0.01764600  0.15508000  0.09759500  1
  O  O11  1  0.35397000  0.82268400  0.76096100  1
  O  O12  1  0.51569900  0.68515800  0.18181400  1
  O  O13  1  0.18205900  0.01682100  0.51535300  1
  O  O14  1  0.84933300  0.35036100  0.84842100  1
  O  O15  1  0.39629900  0.86427400  0.95800000  1
  O  O16  1  0.06341500  0.20451700  0.29350400  1
  O  O17  1  0.58538700  0.71641900  0.41664100  1
  O  O18  1  0.25299600  0.05050500  0.75079100  1
  O  O19  1  0.91874200  0.38372400  0.08250000  1
  O  O20  1  0.07879300  0.27807100  0.51154600  1
  O  O21  1  0.40932000  0.94515700  0.18406700  1
  O  O22  1  0.95846600  0.45122800  0.30817800  1
  O  O23  1  0.28471400  0.12175800  0.97615400  1
  O  O24  1  0.62726100  0.78382400  0.64094900  1
  O  O25  1  0.45403700  0.98850100  0.37341900  1
  O  O26  1  0.12011100  0.31987500  0.70620600  1
  O  O27  1  0.00000000  0.50000000  0.50000000  1
  O  O28  1  0.66708700  0.83267400  0.83278800  1
  O  O29  1  0.33291300  0.16732600  0.16721200  1
  O  O30  1  0.21495200  0.34663100  0.96181600  1
  O  O31  1  0.54596300  0.01149900  0.62658100  1
  O  O32  1  0.37273900  0.21617600  0.35905100  1
  O  O33  1  0.04153400  0.54877200  0.69182200  1
  O  O34  1  0.71528600  0.87824200  0.02384600  1
  O  O35  1  0.59068000  0.05484300  0.81593300  1
  O  O36  1  0.25409300  0.38880400  0.15679900  1
  O  O37  1  0.41461300  0.28358100  0.58335900  1
  O  O38  1  0.74700400  0.94949500  0.24920900  1
  O  O39  1  0.08125800  0.61627600  0.91750000  1
  O  O40  1  0.26929300  0.46365600  0.37355300  1
  O  O41  1  0.60370100  0.13572600  0.04200000  1
  O  O42  1  0.15066700  0.64963900  0.15157900  1
  O  O43  1  0.48430100  0.31484200  0.81818600  1
  O  O44  1  0.81794100  0.98317900  0.48464700  1
  O  O45  1  0.64603000  0.17731600  0.23903900  1
  O  O46  1  0.31507400  0.51130300  0.57112100  1
  O  O47  1  0.53060300  0.35431600  0.02672900  1
  O  O48  1  0.58351700  0.41469000  0.21789700  1
  O  O49  1  0.41648300  0.58531000  0.78210300  1
  O  O50  1  0.75038100  0.25158100  0.44954500  1
  O  O51  1  0.46939700  0.64568400  0.97327100  1
  O  O52  1  0.79991300  0.31390000  0.63999200  1
  O  O53  1  0.68492600  0.48869700  0.42887900  1
  O  O54  1  0.73070700  0.53634400  0.62644700  1
  O  O55  1  0.74590700  0.61119600  0.84320100  1
  O  O56  1  0.78504800  0.65336900  0.03818400  1
loop_
_geom_bond_atom_site_label_1
_geom_bond_atom_site_label_2
_geom_bond_distance
_geom_bond_site_symmetry_2
Cu0 O34 1.959434 1_555
Cu0 O0 1.985382 1_555
Cu0 O38 2.013585 1_555
Cu0 O8 2.032178 1_655
Cu1 O9 1.974549 1_655
Cu1 O1 1.984838 1_555
Cu1 O38 2.030097 1_555
Cu1 O44 2.031163 1_555
Cu2 O15 1.962197 1_554
Cu2 O3 1.981139 1_454
Cu2 O8 2.019296 1_555
Cu2 O42 2.032198 1_555
Cu3 O2 1.965986 1_455
Cu3 O11 1.971764 1_555
Cu3 O13 2.024227 1_565
Cu3 O7 2.049817 1_555
Cu4 O41 1.962197 1_556
Cu4 O10 1.981139 1_656
Cu4 O6 2.019296 1_555
Cu4 O14 2.032198 1_555
Cu5 O4 1.974549 1_455
Cu5 O20 1.984838 1_555
Cu5 O18 2.030097 1_555
Cu5 O13 2.031163 1_555
Cu6 O21 1.956044 1_555
Cu6 O5 1.982404 1_555
Cu6 O12 2.016342 1_555
Cu6 O17 2.029813 1_555
Cu7 O23 1.959434 1_555
Cu7 O26 1.985382 1_555
Cu7 O18 2.013585 1_555
Cu7 O6 2.032178 1_455
Cu8 O24 1.969491 1_555
Cu8 O25 1.975273 1_555
Cu8 O7 2.035213 1_555
Cu8 O17 2.041875 1_555
Cu9 O24 2.033018 1_555
Cu9 O2 2.034126 1_555
Cu9 O55 2.034666 1_555
Cu9 O54 2.080496 1_555
Cu9 O33 2.082445 1_655
Cu9 O1 2.082965 1_555
Cu10 O32 2.033018 1_555
Cu10 O16 2.034126 1_555
Cu10 O36 2.034666 1_555
Cu10 O40 2.080496 1_555
Cu10 O22 2.082445 1_455
Cu10 O20 2.082965 1_555
Cu11 O32 1.969491 1_555
Cu11 O31 1.975273 1_555
Cu11 O50 2.035213 1_555
Cu11 O37 2.041875 1_555
Cu12 O30 1.971579 1_555
Cu12 O33 1.980369 1_555
Cu12 O49 2.022395 1_555
Cu12 O39 2.034493 1_555
Cu13 O35 1.956044 1_555
Cu13 O52 1.982404 1_555
Cu13 O43 2.016342 1_555
Cu13 O37 2.029813 1_555
Cu14 O36 1.968122 1_555
Cu14 O51 1.975920 1_554
Cu14 O39 2.028374 1_554
Cu14 O42 2.045297 1_555
Cu15 O54 1.982200 1_555
Cu15 O46 1.982749 1_555
Cu15 O49 2.021176 1_555
Cu15 O43 2.026792 1_555
Cu16 O16 1.965986 1_655
Cu16 O45 1.971764 1_555
Cu16 O44 2.024227 1_545
Cu16 O50 2.049817 1_555
Cu17 O40 1.982200 1_555
Cu17 O53 1.982749 1_555
Cu17 O48 2.021176 1_555
Cu17 O12 2.026792 1_555
Cu18 O55 1.968122 1_555
Cu18 O47 1.975920 1_556
Cu18 O19 2.028374 1_556
Cu18 O14 2.045297 1_555
Cu19 O56 1.971579 1_555
Cu19 O22 1.980369 1_555
Cu19 O48 2.022395 1_555
Cu19 O19 2.034493 1_555
O0 V11 1.862152 1_655
O0 V17 1.914479 1_555
O1 V14 1.958536 1_655
O1 V17 2.015851 1_555
O2 V0 1.994584 1_555
O2 V13 2.050007 1_555
O3 V0 1.832583 1_555
O3 V16 1.982862 1_555
O4 V13 1.877275 1_545
O4 V16 1.921641 1_545
O5 V14 1.861043 1_555
O5 V11 1.917321 1_555
O6 V16 1.715259 1_545
O7 V14 1.710848 1_555
O8 V3 1.715259 1_565
O9 V4 1.877275 1_565
O9 V3 1.921641 1_565
O10 V7 1.832583 1_555
O10 V3 1.982862 1_555
O11 V2 1.879068 1_555
O11 V8 1.920356 1_555
O12 V6 1.717135 1_555
O13 V4 1.717954 1_555
O14 V5 1.710989 1_555
O15 V8 1.873122 1_555
O15 V6 1.926990 1_556
O16 V7 1.994584 1_555
O16 V4 2.050007 1_555
O17 V17 1.711781 1_555
O18 V8 1.715086 1_545
O19 V7 1.718891 1_655
O20 V1 1.958536 1_455
O20 V10 2.015851 1_555
O21 V3 1.872486 1_565
O21 V9 1.928160 1_565
O22 V11 1.957461 1_655
O22 V1 2.018080 1_555
O23 V12 1.872351 1_555
O23 V3 1.927462 1_556
O24 V13 1.994362 1_555
O24 V2 2.048906 1_555
O25 V4 1.833768 1_565
O25 V9 1.985835 1_565
O26 V5 1.862152 1_455
O26 V10 1.914479 1_555
O27 V10 2.259418 1_555
O27 V17 2.259418 1_455
O27 V1 2.259450 1_455
O27 V14 2.259450 1_555
O27 V11 2.259498 1_555
O27 V5 2.259498 1_455
O28 V2 2.249417 1_555
O28 V0 2.252951 1_555
O28 V13 2.253578 1_555
O28 V6 2.259466 1_556
O28 V8 2.260064 1_555
O28 V16 2.262255 1_555
O29 V15 2.249417 1_555
O29 V7 2.252951 1_555
O29 V4 2.253578 1_555
O29 V12 2.259466 1_554
O29 V9 2.260064 1_555
O29 V3 2.262255 1_555
O30 V7 1.878704 1_556
O30 V12 1.920657 1_555
O31 V13 1.833768 1_545
O31 V8 1.985835 1_545
O32 V4 1.994362 1_555
O32 V15 2.048906 1_555
O33 V5 1.957461 1_455
O33 V14 2.018080 1_555
O34 V6 1.872351 1_555
O34 V16 1.927462 1_554
O35 V16 1.872486 1_545
O35 V8 1.928160 1_545
O36 V15 1.994263 1_555
O36 V7 2.049537 1_555
O37 V10 1.711781 1_555
O38 V9 1.715086 1_565
O39 V0 1.718891 1_455
O40 V10 1.958737 1_555
O40 V11 2.017273 1_555
O41 V9 1.873122 1_555
O41 V12 1.926990 1_554
O42 V11 1.710989 1_555
O43 V12 1.717135 1_555
O44 V13 1.717954 1_555
O45 V15 1.879068 1_555
O45 V9 1.920356 1_555
O46 V10 1.862574 1_555
O46 V14 1.916830 1_555
O47 V15 1.833428 1_555
O47 V12 1.985235 1_554
O48 V15 1.719013 1_555
O49 V2 1.719013 1_555
O50 V1 1.710848 1_555
O51 V2 1.833428 1_555
O51 V6 1.985235 1_556
O52 V1 1.861043 1_555
O52 V5 1.917321 1_555
O53 V17 1.862574 1_555
O53 V1 1.916830 1_555
O54 V17 1.958737 1_555
O54 V5 2.017273 1_555
O55 V2 1.994263 1_555
O55 V0 2.049537 1_555
O56 V0 1.878704 1_554
O56 V6 1.920657 1_555
