# generated using pymatgen
data_TmAlCu
_symmetry_space_group_name_H-M   'P 1'
_cell_length_a   6.90244015
_cell_length_b   6.90275763
_cell_length_c   3.96640848
_cell_angle_alpha   90.00000000
_cell_angle_beta   90.00000000
_cell_angle_gamma   119.99847860
_symmetry_Int_Tables_number   1
_chemical_formula_structural   TmAlCu
_chemical_formula_sum   'Tm3 Al3 Cu3'
_cell_volume   163.66657792
_cell_formula_units_Z   3
loop_
 _symmetry_equiv_pos_site_id
 _symmetry_equiv_pos_as_xyz
  1  'x, y, z'
loop_
 _atom_site_type_symbol
 _atom_site_label
 _atom_site_symmetry_multiplicity
 _atom_site_fract_x
 _atom_site_fract_y
 _atom_site_fract_z
 _atom_site_occupancy
  Tm  Tm0  1  0.58536928  0.00000000  0.49999900  1
  Tm  Tm1  1  0.99999422  0.58539735  0.49999900  1
  Tm  Tm2  1  0.41459487  0.41460065  0.49999900  1
  Al  Al0  1  0.23538045  0.00000000  0.00000000  1
  Al  Al1  1  0.00000420  0.23540756  0.00000000  1
  Al  Al2  1  0.76459664  0.76459444  0.00000000  1
  Cu  Cu0  1  0.99997355  -0.00000000  0.49999900  1
  Cu  Cu1  1  0.33331244  0.66664309  0.00000000  1
  Cu  Cu2  1  0.66667135  0.33335591  -0.00000000  1
loop_
_geom_bond_atom_site_label_1
_geom_bond_atom_site_label_2
_geom_bond_distance
_geom_bond_site_symmetry_2
Al0 Cu0 2.563850 1_455
Al0 Cu0 2.563856 1_454
Al0 Cu1 2.703202 1_545
Al0 Cu2 2.703210 1_555
Al0 Al2 2.814242 1_445
Al0 Al1 2.814242 1_555
Al0 Tm0 3.125550 1_555
Al0 Tm0 3.125555 1_554
Al0 Tm2 3.180197 1_555
Al0 Tm2 3.180202 1_554
Al0 Tm1 3.180206 1_445
Al0 Tm1 3.180211 1_444
Al1 Cu0 2.563833 1_455
Al1 Cu0 2.563839 1_454
Al1 Cu1 2.702913 1_555
Al1 Cu2 2.703034 1_455
Al1 Al2 2.814547 1_445
Al1 Tm1 3.125667 1_455
Al1 Tm1 3.125672 1_454
Al1 Tm2 3.180061 1_555
Al1 Tm2 3.180066 1_554
Al1 Tm0 3.180279 1_455
Al1 Tm0 3.180283 1_454
Al2 Cu0 2.563828 1_565
Al2 Cu0 2.563835 1_564
Al2 Cu2 2.702938 1_555
Al2 Cu1 2.703048 1_555
Al2 Tm2 3.125683 1_555
Al2 Tm2 3.125688 1_554
Al2 Tm1 3.180079 1_555
Al2 Tm1 3.180084 1_554
Al2 Tm0 3.180269 1_565
Al2 Tm0 3.180274 1_564
Cu0 Tm0 2.861781 1_555
Cu0 Tm2 2.861959 1_655
Cu0 Tm1 2.861973 1_545
Cu1 Tm1 2.872393 1_455
Cu1 Tm1 2.872398 1_454
Cu1 Tm2 2.872417 1_555
Cu1 Tm2 2.872422 1_554
Cu1 Tm0 2.872583 1_565
Cu1 Tm0 2.872589 1_564
Cu2 Tm1 2.872408 1_555
Cu2 Tm2 2.872409 1_555
Cu2 Tm1 2.872414 1_554
Cu2 Tm2 2.872414 1_554
Cu2 Tm0 2.872576 1_555
Cu2 Tm0 2.872581 1_554
