# generated using pymatgen
data_LiSbPd2
_symmetry_space_group_name_H-M   'P 1'
_cell_length_a   4.47026071
_cell_length_b   4.47026071
_cell_length_c   4.47026071
_cell_angle_alpha   60.00000000
_cell_angle_beta   60.00000000
_cell_angle_gamma   60.00000000
_symmetry_Int_Tables_number   1
_chemical_formula_structural   LiSbPd2
_chemical_formula_sum   'Li1 Sb1 Pd2'
_cell_volume   63.16602655
_cell_formula_units_Z   1
loop_
 _symmetry_equiv_pos_site_id
 _symmetry_equiv_pos_as_xyz
  1  'x, y, z'
loop_
 _atom_site_type_symbol
 _atom_site_label
 _atom_site_symmetry_multiplicity
 _atom_site_fract_x
 _atom_site_fract_y
 _atom_site_fract_z
 _atom_site_occupancy
  Li  Li0  1  0.25000000  0.25000000  0.25000000  1
  Sb  Sb0  1  0.75000100  0.75000100  0.75000100  1
  Pd  Pd0  1  0.00000000  -0.00000000  -0.00000000  1
  Pd  Pd1  1  0.49999900  0.49999900  0.49999900  1
loop_
_geom_bond_atom_site_label_1
_geom_bond_atom_site_label_2
_geom_bond_distance
_geom_bond_site_symmetry_2
Li0 Pd1 2.737453 1_555
Li0 Pd0 2.737464 1_556
Li0 Pd0 2.737464 1_555
Li0 Pd0 2.737464 1_565
Li0 Pd0 2.737464 1_655
Li0 Pd1 2.737468 1_545
Li0 Pd1 2.737468 1_554
Li0 Pd1 2.737468 1_455
Li0 Sb0 3.160945 1_445
Li0 Sb0 3.160945 1_544
Li0 Sb0 3.160945 1_454
Li0 Sb0 3.160958 1_455
Li0 Sb0 3.160958 1_545
Li0 Sb0 3.160958 1_554
Pd0 Sb0 2.737453 1_444
Pd0 Sb0 2.737468 1_544
Pd0 Sb0 2.737468 1_445
Pd0 Sb0 2.737468 1_454
Pd1 Sb0 2.737457 1_554
Pd1 Sb0 2.737457 1_455
Pd1 Sb0 2.737457 1_545
Pd1 Sb0 2.737486 1_555
