# generated using pymatgen
data_Fe10O9F11
_symmetry_space_group_name_H-M   'P 1'
_cell_length_a   4.76279400
_cell_length_b   4.77013141
_cell_length_c   15.51832126
_cell_angle_alpha   89.97635414
_cell_angle_beta   89.95867759
_cell_angle_gamma   88.72047931
_symmetry_Int_Tables_number   1
_chemical_formula_structural   Fe10O9F11
_chemical_formula_sum   'Fe10 O9 F11'
_cell_volume   352.47508958
_cell_formula_units_Z   1
loop_
 _symmetry_equiv_pos_site_id
 _symmetry_equiv_pos_as_xyz
  1  'x, y, z'
loop_
 _atom_site_type_symbol
 _atom_site_label
 _atom_site_symmetry_multiplicity
 _atom_site_fract_x
 _atom_site_fract_y
 _atom_site_fract_z
 _atom_site_occupancy
  Fe  Fe0  1  0.98671300  0.01150000  0.99910600  1
  Fe  Fe1  1  0.04088900  0.97742200  0.79363600  1
  Fe  Fe2  1  0.98815300  0.05658500  0.59917200  1
  Fe  Fe3  1  0.04996900  0.99688000  0.40273300  1
  Fe  Fe4  1  0.03281000  0.98661200  0.20599300  1
  Fe  Fe5  1  0.48947800  0.51696500  0.90653900  1
  Fe  Fe6  1  0.48224000  0.48254700  0.50042400  1
  Fe  Fe7  1  0.47959900  0.47553800  0.70209400  1
  Fe  Fe8  1  0.45646400  0.49549200  0.29863800  1
  Fe  Fe9  1  0.49030400  0.51725100  0.09228100  1
  O  O0  1  0.18901300  0.19194500  0.69928200  1
  O  O1  1  0.19140600  0.19928300  0.50088100  1
  O  O2  1  0.19793700  0.18300400  0.30148400  1
  O  O3  1  0.29748500  0.70757000  0.99933200  1
  O  O4  1  0.31638300  0.68198200  0.79907900  1
  O  O5  1  0.31579200  0.68371400  0.40203000  1
  O  O6  1  0.30920500  0.68696300  0.19898200  1
  O  O7  1  0.68490200  0.32028100  0.99937300  1
  O  O8  1  0.67773000  0.32320100  0.60036900  1
  F  F0  1  0.20020100  0.19583700  0.89197200  1
  F  F1  1  0.19448500  0.20045100  0.10707500  1
  F  F2  1  0.29028900  0.70785100  0.60033600  1
  F  F3  1  0.70823700  0.28819300  0.79946100  1
  F  F4  1  0.70220700  0.29292200  0.39942400  1
  F  F5  1  0.70374900  0.29458900  0.20135100  1
  F  F6  1  0.80696400  0.80523400  0.88983500  1
  F  F7  1  0.80448600  0.81060400  0.50083100  1
  F  F8  1  0.80038400  0.80379900  0.69687100  1
  F  F9  1  0.80296400  0.81140800  0.10894400  1
  F  F10  1  0.80956200  0.79437500  0.30247600  1
loop_
_geom_bond_atom_site_label_1
_geom_bond_atom_site_label_2
_geom_bond_distance
_geom_bond_site_symmetry_2
Fe0 O7 2.035011 1_555
Fe0 O3 2.048630 1_645
Fe1 O4 1.905877 1_555
Fe1 O0 1.928289 1_565
Fe2 O8 1.928656 1_555
Fe2 O1 1.937389 1_655
Fe2 O0 1.943229 1_655
Fe3 O1 1.933262 1_565
Fe3 O5 1.936523 1_555
Fe3 O2 1.943919 1_565
Fe4 O6 1.924513 1_555
Fe4 O2 1.930749 1_565
Fe5 O3 1.923138 1_555
Fe5 O7 1.945195 1_555
Fe5 O4 2.012977 1_555
Fe6 O8 1.954405 1_555
Fe6 O1 1.956555 1_555
Fe6 O5 1.961453 1_555
Fe7 O4 1.950529 1_555
Fe7 O0 1.957324 1_555
Fe7 O8 1.969439 1_555
Fe8 O6 1.920817 1_555
Fe8 O5 1.949900 1_555
Fe8 O2 1.954950 1_555
Fe9 O3 1.926581 1_554
Fe9 O7 1.944436 1_554
Fe9 O6 2.027053 1_555
F0 Fe1 2.007041 1_545
F0 Fe5 2.095427 1_555
F0 Fe0 2.146484 1_455
F1 Fe4 2.005456 1_545
F1 Fe9 2.101373 1_555
F1 Fe0 2.154624 1_454
F2 Fe6 2.085724 1_555
F2 Fe7 2.119098 1_555
F2 Fe2 2.175188 1_465
F3 Fe7 2.055551 1_555
F3 Fe1 2.147306 1_645
F3 Fe5 2.232893 1_555
F4 Fe6 2.080586 1_555
F4 Fe3 2.153097 1_645
F4 Fe8 2.168103 1_555
F5 Fe4 2.125309 1_645
F5 Fe8 2.129096 1_555
F5 Fe9 2.231411 1_555
F6 Fe1 2.044989 1_655
F6 Fe5 2.082439 1_555
F6 Fe0 2.148839 1_565
F7 Fe3 2.125252 1_655
F7 Fe2 2.126072 1_565
F7 Fe6 2.216245 1_555
F8 Fe1 2.073357 1_655
F8 Fe2 2.144089 1_565
F8 Fe7 2.213432 1_555
F9 Fe4 2.051654 1_655
F9 Fe9 2.085051 1_555
F9 Fe0 2.148498 1_564
F10 Fe4 2.062363 1_655
F10 Fe3 2.172081 1_655
F10 Fe8 2.229735 1_555
