# generated using pymatgen
data_MnGaPt2
_symmetry_space_group_name_H-M   'P 1'
_cell_length_a   4.37614765
_cell_length_b   4.37614765
_cell_length_c   4.37614765
_cell_angle_alpha   60.00000000
_cell_angle_beta   60.00000000
_cell_angle_gamma   60.00000000
_symmetry_Int_Tables_number   1
_chemical_formula_structural   MnGaPt2
_chemical_formula_sum   'Mn1 Ga1 Pt2'
_cell_volume   59.25989837
_cell_formula_units_Z   1
loop_
 _symmetry_equiv_pos_site_id
 _symmetry_equiv_pos_as_xyz
  1  'x, y, z'
loop_
 _atom_site_type_symbol
 _atom_site_label
 _atom_site_symmetry_multiplicity
 _atom_site_fract_x
 _atom_site_fract_y
 _atom_site_fract_z
 _atom_site_occupancy
  Mn  Mn0  1  0.75000100  0.75000100  0.75000100  1
  Ga  Ga0  1  0.25000000  0.25000000  0.25000000  1
  Pt  Pt0  1  0.50000000  0.50000000  0.50000000  1
  Pt  Pt1  1  0.00000000  -0.00000000  -0.00000000  1
loop_
_geom_bond_atom_site_label_1
_geom_bond_atom_site_label_2
_geom_bond_distance
_geom_bond_site_symmetry_2
Mn0 Pt1 2.679821 1_666
Mn0 Pt0 2.679829 1_655
Mn0 Pt0 2.679829 1_565
Mn0 Pt0 2.679829 1_556
Mn0 Pt1 2.679836 1_656
Mn0 Pt1 2.679836 1_665
Mn0 Pt1 2.679836 1_566
Mn0 Pt0 2.679843 1_555
Ga0 Pt1 2.679832 1_556
Ga0 Pt1 2.679832 1_565
Ga0 Pt0 2.679832 1_545
Ga0 Pt0 2.679832 1_455
Ga0 Pt0 2.679832 1_554
Ga0 Pt0 2.679832 1_555
Ga0 Pt1 2.679832 1_655
Ga0 Pt1 2.679832 1_555
