# generated using pymatgen
data_Li2Mn3(BO3)3
_symmetry_space_group_name_H-M   'P 1'
_cell_length_a   6.34834000
_cell_length_b   8.23542100
_cell_length_c   8.29182472
_cell_angle_alpha   60.40078975
_cell_angle_beta   90.00000000
_cell_angle_gamma   90.00000000
_symmetry_Int_Tables_number   1
_chemical_formula_structural   Li2Mn3(BO3)3
_chemical_formula_sum   'Li4 Mn6 B6 O18'
_cell_volume   376.93507427
_cell_formula_units_Z   2
loop_
 _symmetry_equiv_pos_site_id
 _symmetry_equiv_pos_as_xyz
  1  'x, y, z'
loop_
 _atom_site_type_symbol
 _atom_site_label
 _atom_site_symmetry_multiplicity
 _atom_site_fract_x
 _atom_site_fract_y
 _atom_site_fract_z
 _atom_site_occupancy
  Li  Li0  1  0.50000000  0.72366500  0.29950100  1
  Li  Li1  1  0.00000000  0.97671700  0.72415900  1
  Li  Li2  1  0.00000000  0.30210200  0.97773400  1
  Li  Li3  1  0.50000000  0.30275600  0.98047600  1
  Mn  Mn0  1  0.75144900  0.63741900  0.01264200  1
  Mn  Mn1  1  0.24855100  0.63741900  0.01264200  1
  Mn  Mn2  1  0.75035200  0.35825100  0.62063600  1
  Mn  Mn3  1  0.24964800  0.35825100  0.62063600  1
  Mn  Mn4  1  0.25074300  0.00214600  0.36986500  1
  Mn  Mn5  1  0.74925700  0.00214600  0.36986500  1
  B  B0  1  0.50000000  0.34135600  0.32710700  1
  B  B1  1  0.00000000  0.32124800  0.33250300  1
  B  B2  1  0.50000000  0.66367000  0.66485100  1
  B  B3  1  0.00000000  0.65641400  0.67614700  1
  B  B4  1  0.25063800  0.00834900  0.99961700  1
  B  B5  1  0.74936200  0.00834900  0.99961700  1
  O  O0  1  0.26904400  0.90545900  0.19069000  1
  O  O1  1  0.73095600  0.90545900  0.19069000  1
  O  O2  1  0.50000000  0.53625800  0.21283400  1
  O  O3  1  0.50000000  0.85512600  0.54102200  1
  O  O4  1  0.00000000  0.50932000  0.21836000  1
  O  O5  1  0.00000000  0.84934100  0.56217800  1
  O  O6  1  0.23277000  0.91826300  0.89809700  1
  O  O7  1  0.76723000  0.91826300  0.89809700  1
  O  O8  1  0.50000000  0.22458100  0.25091100  1
  O  O9  1  0.50000000  0.54780000  0.58682300  1
  O  O10  1  0.00000000  0.19923200  0.25839800  1
  O  O11  1  0.00000000  0.53332000  0.60850500  1
  O  O12  1  0.50000000  0.26590700  0.51761500  1
  O  O13  1  0.00000000  0.24349700  0.52611300  1
  O  O14  1  0.50000000  0.59043100  0.85454000  1
  O  O15  1  0.00000000  0.58443800  0.86729200  1
  O  O16  1  0.74989100  0.20343800  0.91099000  1
  O  O17  1  0.25010900  0.20343800  0.91099000  1
loop_
_geom_bond_atom_site_label_1
_geom_bond_atom_site_label_2
_geom_bond_distance
_geom_bond_site_symmetry_2
Li0 O1 1.967438 1_555
Li0 O0 1.967438 1_555
Li0 O2 1.998520 1_555
Li0 O9 2.089247 1_555
Li1 O7 1.951820 1_455
Li1 O6 1.951820 1_555
Li1 O13 1.989875 1_565
Li1 O5 2.072722 1_555
Li2 O17 1.982868 1_555
Li2 O16 1.982868 1_455
Li2 O15 2.035075 1_555
Li2 O10 2.045976 1_556
Li3 O16 1.995783 1_555
Li3 O17 1.995783 1_555
Li3 O8 2.004171 1_556
Li3 O14 2.063804 1_555
Mn0 O7 2.022728 1_554
Mn0 O2 2.152095 1_555
Mn0 O15 2.156879 1_654
Mn0 O4 2.175927 1_655
Mn0 O14 2.217566 1_554
Mn1 O6 2.022728 1_554
Mn1 O2 2.152095 1_555
Mn1 O15 2.156879 1_554
Mn1 O4 2.175927 1_555
Mn1 O14 2.217566 1_554
Mn2 O16 2.095140 1_555
Mn2 O11 2.111231 1_655
Mn2 O12 2.115596 1_555
Mn2 O9 2.146850 1_555
Mn2 O13 2.179648 1_655
Mn3 O17 2.095140 1_555
Mn3 O11 2.111231 1_555
Mn3 O12 2.115596 1_555
Mn3 O9 2.146850 1_555
Mn3 O13 2.179648 1_555
Mn4 O0 2.005847 1_545
Mn4 O3 2.070393 1_545
Mn4 O10 2.130859 1_555
Mn4 O5 2.162853 1_545
Mn4 O8 2.246670 1_555
Mn5 O1 2.005847 1_545
Mn5 O3 2.070393 1_545
Mn5 O10 2.130859 1_655
Mn5 O5 2.162853 1_645
Mn5 O8 2.246670 1_555
B0 O12 1.382676 1_555
B0 O8 1.387173 1_555
B0 O2 1.404188 1_555
B1 O4 1.358896 1_555
B1 O13 1.404201 1_555
B1 O10 1.413241 1_555
B2 O14 1.378602 1_555
B2 O9 1.392503 1_555
B2 O3 1.393208 1_555
B3 O11 1.379821 1_555
B3 O5 1.390757 1_555
B3 O15 1.391158 1_555
B4 O6 1.374342 1_545
B4 O0 1.384054 1_546
B4 O17 1.398213 1_555
B5 O7 1.374342 1_545
B5 O1 1.384054 1_546
B5 O16 1.398213 1_555
