# generated using pymatgen
data_Na6V2C4SO16
_symmetry_space_group_name_H-M   'P 1'
_cell_length_a   10.00869061
_cell_length_b   10.00869061
_cell_length_c   10.00869061
_cell_angle_alpha   60.00000000
_cell_angle_beta   60.00000000
_cell_angle_gamma   60.00000000
_symmetry_Int_Tables_number   1
_chemical_formula_structural   Na6V2C4SO16
_chemical_formula_sum   'Na12 V4 C8 S2 O32'
_cell_volume   708.95194025
_cell_formula_units_Z   2
loop_
 _symmetry_equiv_pos_site_id
 _symmetry_equiv_pos_as_xyz
  1  'x, y, z'
loop_
 _atom_site_type_symbol
 _atom_site_label
 _atom_site_symmetry_multiplicity
 _atom_site_fract_x
 _atom_site_fract_y
 _atom_site_fract_z
 _atom_site_occupancy
  Na  Na0  1  0.53411300  0.96588700  0.96588700  1
  Na  Na1  1  0.28411300  0.28411300  0.71588700  1
  Na  Na2  1  0.53411300  0.53411300  0.96588700  1
  Na  Na3  1  0.96588700  0.53411300  0.53411300  1
  Na  Na4  1  0.53411300  0.96588700  0.53411300  1
  Na  Na5  1  0.71588700  0.28411300  0.71588700  1
  Na  Na6  1  0.28411300  0.71588700  0.28411300  1
  Na  Na7  1  0.96588700  0.53411300  0.96588700  1
  Na  Na8  1  0.28411300  0.71588700  0.71588700  1
  Na  Na9  1  0.71588700  0.28411300  0.28411300  1
  Na  Na10  1  0.71588700  0.71588700  0.28411300  1
  Na  Na11  1  0.96588700  0.96588700  0.53411300  1
  V  V0  1  0.12500000  0.62500000  0.12500000  1
  V  V1  1  0.62500000  0.12500000  0.12500000  1
  V  V2  1  0.12500000  0.12500000  0.62500000  1
  V  V3  1  0.12500000  0.12500000  0.12500000  1
  C  C0  1  0.28205000  0.90598300  0.90598300  1
  C  C1  1  0.34401700  0.34401700  0.96795000  1
  C  C2  1  0.34401700  0.34401700  0.34401700  1
  C  C3  1  0.34401700  0.96795000  0.34401700  1
  C  C4  1  0.90598300  0.28205000  0.90598300  1
  C  C5  1  0.90598300  0.90598300  0.90598300  1
  C  C6  1  0.96795000  0.34401700  0.34401700  1
  C  C7  1  0.90598300  0.90598300  0.28205000  1
  S  S0  1  0.50000000  0.50000000  0.50000000  1
  S  S1  1  0.75000000  0.75000000  0.75000000  1
  O  O0  1  0.56112300  0.56112300  0.31663200  1
  O  O1  1  0.56112300  0.56112300  0.56112300  1
  O  O2  1  0.56112300  0.31663200  0.56112300  1
  O  O3  1  0.22704100  0.48401000  0.32315000  1
  O  O4  1  0.31663200  0.56112300  0.56112300  1
  O  O5  1  0.48401000  0.22704100  0.96579900  1
  O  O6  1  0.96579900  0.32315000  0.48401000  1
  O  O7  1  0.32315000  0.48401000  0.96579900  1
  O  O8  1  0.28420100  0.02295900  0.92685000  1
  O  O9  1  0.02295900  0.28420100  0.76599000  1
  O  O10  1  0.48401000  0.32315000  0.22704100  1
  O  O11  1  0.22704100  0.32315000  0.96579900  1
  O  O12  1  0.28420100  0.76599000  0.02295900  1
  O  O13  1  0.92685000  0.02295900  0.76599000  1
  O  O14  1  0.48401000  0.96579900  0.32315000  1
  O  O15  1  0.32315000  0.96579900  0.22704100  1
  O  O16  1  0.92685000  0.28420100  0.02295900  1
  O  O17  1  0.32315000  0.22704100  0.48401000  1
  O  O18  1  0.76599000  0.28420100  0.92685000  1
  O  O19  1  0.96579900  0.48401000  0.22704100  1
  O  O20  1  0.02295900  0.92685000  0.28420100  1
  O  O21  1  0.76599000  0.92685000  0.02295900  1
  O  O22  1  0.22704100  0.96579900  0.48401000  1
  O  O23  1  0.96579900  0.22704100  0.32315000  1
  O  O24  1  0.92685000  0.76599000  0.28420100  1
  O  O25  1  0.28420100  0.92685000  0.76599000  1
  O  O26  1  0.76599000  0.02295900  0.28420100  1
  O  O27  1  0.93336800  0.68887700  0.68887700  1
  O  O28  1  0.02295900  0.76599000  0.92685000  1
  O  O29  1  0.68887700  0.93336800  0.68887700  1
  O  O30  1  0.68887700  0.68887700  0.68887700  1
  O  O31  1  0.68887700  0.68887700  0.93336800  1
loop_
_geom_bond_atom_site_label_1
_geom_bond_atom_site_label_2
_geom_bond_distance
_geom_bond_site_symmetry_2
Na0 O5 2.402264 1_565
Na0 O15 2.402264 1_556
Na0 O21 2.461854 1_556
Na0 O8 2.461854 1_565
Na0 O29 2.509130 1_555
Na0 O31 2.509130 1_555
Na1 O8 2.402264 1_555
Na1 O9 2.402264 1_555
Na1 O11 2.461854 1_555
Na1 O17 2.461854 1_555
Na1 O4 2.509130 1_555
Na1 O2 2.509130 1_555
Na2 O10 2.402264 1_556
Na2 O7 2.402264 1_555
Na2 O18 2.461854 1_555
Na2 O12 2.461854 1_556
Na2 O31 2.509122 1_555
Na2 O30 2.509127 1_555
Na3 O6 2.402264 1_555
Na3 O3 2.402264 1_655
Na3 O9 2.461854 1_655
Na3 O24 2.461854 1_555
Na3 O27 2.509122 1_555
Na3 O30 2.509127 1_555
Na4 O14 2.402264 1_555
Na4 O17 2.402264 1_565
Na4 O25 2.461854 1_555
Na4 O26 2.461854 1_565
Na4 O29 2.509122 1_555
Na4 O30 2.509127 1_555
Na5 O18 2.402264 1_555
Na5 O13 2.402264 1_555
Na5 O5 2.461854 1_555
Na5 O6 2.461854 1_555
Na5 O2 2.509122 1_555
Na5 O1 2.509127 1_555
Na6 O20 2.402264 1_555
Na6 O12 2.402264 1_555
Na6 O15 2.461854 1_555
Na6 O3 2.461854 1_555
Na6 O0 2.509130 1_555
Na6 O4 2.509130 1_555
Na7 O19 2.402264 1_556
Na7 O11 2.402264 1_655
Na7 O28 2.461854 1_655
Na7 O16 2.461854 1_556
Na7 O27 2.509130 1_555
Na7 O31 2.509130 1_555
Na8 O25 2.402264 1_555
Na8 O28 2.402264 1_555
Na8 O22 2.461854 1_555
Na8 O7 2.461854 1_555
Na8 O4 2.509122 1_555
Na8 O1 2.509127 1_555
Na9 O16 2.402264 1_555
Na9 O26 2.402264 1_555
Na9 O23 2.461854 1_555
Na9 O10 2.461854 1_555
Na9 O0 2.509130 1_555
Na9 O2 2.509130 1_555
Na10 O24 2.402264 1_555
Na10 O21 2.402264 1_555
Na10 O19 2.461854 1_555
Na10 O14 2.461854 1_555
Na10 O0 2.509122 1_555
Na10 O1 2.509127 1_555
Na11 O22 2.402264 1_655
Na11 O23 2.402264 1_565
Na11 O13 2.461854 1_565
Na11 O20 2.461854 1_655
Na11 O29 2.509130 1_555
Na11 O27 2.509130 1_555
C0 O25 1.299613 1_555
C0 O12 1.299617 1_556
C0 O8 1.299623 1_565
C1 O7 1.299613 1_555
C1 O5 1.299617 1_555
C1 O11 1.299623 1_555
C2 O3 1.299618 1_555
C2 O17 1.299618 1_555
C2 O10 1.299618 1_555
C3 O14 1.299613 1_555
C3 O22 1.299617 1_555
C3 O15 1.299623 1_555
C4 O18 1.299613 1_555
C4 O9 1.299617 1_655
C4 O16 1.299623 1_556
C5 O28 1.299618 1_655
C5 O21 1.299618 1_556
C5 O13 1.299618 1_565
C6 O6 1.299613 1_555
C6 O19 1.299617 1_555
C6 O23 1.299623 1_555
C7 O24 1.299613 1_555
C7 O26 1.299617 1_565
C7 O20 1.299623 1_655
O0 S0 1.498495 1_555
O1 S0 1.498503 1_555
O2 S0 1.498495 1_555
O3 V0 2.180183 1_555
O4 S0 1.498495 1_555
O5 V1 2.180183 1_556
O6 V2 2.180183 1_655
O7 V0 2.180183 1_556
O8 V3 2.180183 1_556
O9 V2 2.180183 1_555
O10 V1 2.180183 1_555
O11 V3 2.180183 1_556
O12 V0 2.180183 1_555
O13 V2 2.180183 1_655
O14 V1 2.180183 1_565
O15 V3 2.180183 1_565
O16 V3 2.180183 1_655
O17 V2 2.180183 1_555
O18 V1 2.180183 1_556
O19 V0 2.180183 1_655
O20 V3 2.180183 1_565
O21 V1 2.180183 1_565
O22 V2 2.180183 1_565
O23 V3 2.180183 1_655
O24 V0 2.180183 1_655
O25 V2 2.180183 1_565
O26 V1 2.180183 1_555
O27 S1 1.498495 1_555
O28 V0 2.180183 1_556
O29 S1 1.498495 1_555
O30 S1 1.498503 1_555
O31 S1 1.498495 1_555
