# generated using pymatgen
data_YMgAg2
_symmetry_space_group_name_H-M   'P 1'
_cell_length_a   4.92086803
_cell_length_b   4.92087095
_cell_length_c   4.92087314
_cell_angle_alpha   59.99987746
_cell_angle_beta   59.99984813
_cell_angle_gamma   59.99982360
_symmetry_Int_Tables_number   1
_chemical_formula_structural   YMgAg2
_chemical_formula_sum   'Y1 Mg1 Ag2'
_cell_volume   84.25765856
_cell_formula_units_Z   1
loop_
 _symmetry_equiv_pos_site_id
 _symmetry_equiv_pos_as_xyz
  1  'x, y, z'
loop_
 _atom_site_type_symbol
 _atom_site_label
 _atom_site_symmetry_multiplicity
 _atom_site_fract_x
 _atom_site_fract_y
 _atom_site_fract_z
 _atom_site_occupancy
  Y  Y0  1  0.75000000  0.75000000  0.75000000  1
  Mg  Mg0  1  0.25000100  0.24999900  0.25000000  1
  Ag  Ag0  1  0.00000000  0.00000000  0.00000000  1
  Ag  Ag1  1  0.50000000  0.50000100  0.50000000  1
loop_
_geom_bond_atom_site_label_1
_geom_bond_atom_site_label_2
_geom_bond_distance
_geom_bond_site_symmetry_2
Ag0 Mg0 3.013393 1_455
Ag0 Y0 3.013397 1_544
Ag0 Y0 3.013400 1_454
Ag0 Y0 3.013402 1_445
Ag0 Mg0 3.013402 1_554
Ag0 Mg0 3.013404 1_545
Ag0 Y0 3.013409 1_444
Ag0 Mg0 3.013409 1_555
Ag1 Mg0 3.013392 1_565
Ag1 Y0 3.013397 1_455
Ag1 Mg0 3.013401 1_655
Ag1 Mg0 3.013402 1_556
Ag1 Y0 3.013402 1_554
Ag1 Y0 3.013404 1_545
Ag1 Y0 3.013405 1_555
Ag1 Mg0 3.013413 1_555
