# generated using pymatgen
data_Eu3Tl
_symmetry_space_group_name_H-M   'P 1'
_cell_length_a   7.39378943
_cell_length_b   7.39459758
_cell_length_c   5.70318765
_cell_angle_alpha   90.00000000
_cell_angle_beta   90.00000000
_cell_angle_gamma   119.95278428
_symmetry_Int_Tables_number   1
_chemical_formula_structural   Eu3Tl
_chemical_formula_sum   'Eu6 Tl2'
_cell_volume   270.16951683
_cell_formula_units_Z   2
loop_
 _symmetry_equiv_pos_site_id
 _symmetry_equiv_pos_as_xyz
  1  'x, y, z'
loop_
 _atom_site_type_symbol
 _atom_site_label
 _atom_site_symmetry_multiplicity
 _atom_site_fract_x
 _atom_site_fract_y
 _atom_site_fract_z
 _atom_site_occupancy
  Eu  Eu0  1  0.17569293  0.35175180  0.25000100  1
  Eu  Eu1  1  0.64830679  0.82433767  0.25000100  1
  Eu  Eu2  1  0.17550990  0.82449069  0.25000100  1
  Eu  Eu3  1  0.82431521  0.64825138  0.75000000  1
  Eu  Eu4  1  0.35168788  0.17565573  0.75000000  1
  Eu  Eu5  1  0.82448954  0.17551238  0.75000000  1
  Tl  Tl0  1  0.33329406  0.66676615  0.75000000  1
  Tl  Tl1  1  0.66670569  0.33323217  0.25000100  1
loop_
_geom_bond_atom_site_label_1
_geom_bond_atom_site_label_2
_geom_bond_distance
_geom_bond_site_symmetry_2
Eu0 Tl0 3.493569 1_555
Eu0 Tl0 3.493578 1_554
Eu0 Eu2 3.496390 1_555
Eu0 Eu1 3.496988 1_555
Eu0 Eu5 3.632305 1_455
Eu0 Eu5 3.632314 1_454
Eu0 Eu4 3.634903 1_555
Eu0 Eu4 3.634912 1_554
Eu0 Tl1 3.696874 1_455
Eu0 Tl1 3.700722 1_555
Eu0 Eu2 3.898208 1_545
Eu0 Eu1 3.902481 1_445
Eu1 Tl0 3.493436 1_555
Eu1 Tl0 3.493445 1_554
Eu1 Eu2 3.496326 1_555
Eu1 Eu5 3.632343 1_565
Eu1 Eu5 3.632352 1_564
Eu1 Eu3 3.634917 1_555
Eu1 Eu3 3.634926 1_554
Eu1 Tl1 3.697028 1_565
Eu1 Tl1 3.701326 1_555
Eu1 Eu2 3.897464 1_655
Eu2 Tl0 3.494502 1_555
Eu2 Tl0 3.494511 1_554
Eu2 Eu3 3.632271 1_455
Eu2 Eu3 3.632280 1_454
Eu2 Eu4 3.632304 1_565
Eu2 Eu4 3.632313 1_564
Eu2 Tl1 3.701222 1_565
Eu2 Tl1 3.701658 1_455
Eu3 Tl1 3.493587 1_555
Eu3 Tl1 3.493596 1_556
Eu3 Eu5 3.496358 1_555
Eu3 Eu4 3.497074 1_555
Eu3 Tl0 3.696829 1_655
Eu3 Tl0 3.700766 1_555
Eu3 Eu5 3.898240 1_565
Eu3 Eu4 3.902395 1_665
Eu4 Tl1 3.493454 1_555
Eu4 Tl1 3.493464 1_556
Eu4 Eu5 3.496325 1_555
Eu4 Tl0 3.697009 1_545
Eu4 Tl0 3.701343 1_555
Eu4 Eu5 3.897464 1_455
Eu5 Tl1 3.494483 1_555
Eu5 Tl1 3.494492 1_556
Eu5 Tl0 3.701239 1_545
Eu5 Tl0 3.701642 1_655
