# generated using pymatgen
data_V4Cr2O13
_symmetry_space_group_name_H-M   'P 1'
_cell_length_a   9.41057000
_cell_length_b   8.59376400
_cell_length_c   14.72341377
_cell_angle_alpha   75.96779325
_cell_angle_beta   90.00000000
_cell_angle_gamma   90.00000000
_symmetry_Int_Tables_number   1
_chemical_formula_structural   V4Cr2O13
_chemical_formula_sum   'V16 Cr8 O52'
_cell_volume   1155.18369062
_cell_formula_units_Z   4
loop_
 _symmetry_equiv_pos_site_id
 _symmetry_equiv_pos_as_xyz
  1  'x, y, z'
loop_
 _atom_site_type_symbol
 _atom_site_label
 _atom_site_symmetry_multiplicity
 _atom_site_fract_x
 _atom_site_fract_y
 _atom_site_fract_z
 _atom_site_occupancy
  V  V0  1  0.75820200  0.88027700  0.92658100  1
  V  V1  1  0.27660600  0.71434500  0.84242800  1
  V  V2  1  0.69464900  0.79166400  0.66129900  1
  V  V3  1  0.74179800  0.88027700  0.42658100  1
  V  V4  1  0.74615200  0.49176500  0.92694400  1
  V  V5  1  0.22339400  0.71434500  0.34242800  1
  V  V6  1  0.80535100  0.79166400  0.16129900  1
  V  V7  1  0.24615200  0.50823500  0.57305600  1
  V  V8  1  0.75384800  0.49176500  0.42694400  1
  V  V9  1  0.19464900  0.20833600  0.83870100  1
  V  V10  1  0.77660600  0.28565500  0.65757200  1
  V  V11  1  0.25384800  0.50823500  0.07305600  1
  V  V12  1  0.25820200  0.11972300  0.57341900  1
  V  V13  1  0.30535100  0.20833600  0.33870100  1
  V  V14  1  0.72339400  0.28565500  0.15757200  1
  V  V15  1  0.24179800  0.11972300  0.07341900  1
  Cr  Cr0  1  0.99797800  0.94398500  0.72374800  1
  Cr  Cr1  1  0.50202200  0.94398500  0.22374800  1
  Cr  Cr2  1  0.00234100  0.57006800  0.74022400  1
  Cr  Cr3  1  0.50234100  0.42993200  0.75977600  1
  Cr  Cr4  1  0.49765900  0.57006800  0.24022300  1
  Cr  Cr5  1  0.99765900  0.42993200  0.25977600  1
  Cr  Cr6  1  0.49797800  0.05601500  0.77625200  1
  Cr  Cr7  1  0.00202200  0.05601500  0.27625200  1
  O  O0  1  0.61928900  0.00708900  0.89224800  1
  O  O1  1  0.88798500  0.90564100  0.84494600  1
  O  O2  1  0.35847500  0.89225900  0.83679100  1
  O  O3  1  0.61397100  0.89917000  0.72879000  1
  O  O4  1  0.88071100  0.00708900  0.39224800  1
  O  O5  1  0.66876200  0.89016100  0.53862600  1
  O  O6  1  0.68579000  0.68102200  0.94444900  1
  O  O7  1  0.11907800  0.74811200  0.77299600  1
  O  O8  1  0.88210700  0.77048900  0.68502000  1
  O  O9  1  0.61201500  0.90564100  0.34494600  1
  O  O10  1  0.21306400  0.63393800  0.96034400  1
  O  O11  1  0.14152500  0.89225900  0.33679100  1
  O  O12  1  0.88602900  0.89917000  0.22879000  1
  O  O13  1  0.38444900  0.58715800  0.80402400  1
  O  O14  1  0.89157100  0.53120900  0.85849600  1
  O  O15  1  0.62949100  0.60177300  0.68814700  1
  O  O16  1  0.83123800  0.89016100  0.03862600  1
  O  O17  1  0.81421000  0.68102200  0.44444900  1
  O  O18  1  0.38092200  0.74811200  0.27299600  1
  O  O19  1  0.61789300  0.77048900  0.18502000  1
  O  O20  1  0.11453700  0.59056300  0.62401600  1
  O  O21  1  0.28693600  0.63393800  0.46034400  1
  O  O22  1  0.61453700  0.40943700  0.87598400  1
  O  O23  1  0.12949100  0.39822700  0.81185300  1
  O  O24  1  0.39157100  0.46879100  0.64150400  1
  O  O25  1  0.11555100  0.58715800  0.30402400  1
  O  O26  1  0.88444900  0.41284200  0.69597600  1
  O  O27  1  0.60842900  0.53120900  0.35849600  1
  O  O28  1  0.87050900  0.60177300  0.18814700  1
  O  O29  1  0.38546300  0.59056300  0.12401600  1
  O  O30  1  0.71306400  0.36606200  0.53965600  1
  O  O31  1  0.88546300  0.40943700  0.37598400  1
  O  O32  1  0.38210700  0.22951100  0.81498000  1
  O  O33  1  0.61907800  0.25188800  0.72700400  1
  O  O34  1  0.18579000  0.31897800  0.55555100  1
  O  O35  1  0.16876200  0.10983900  0.96137400  1
  O  O36  1  0.37050900  0.39822700  0.31185300  1
  O  O37  1  0.10842900  0.46879100  0.14150400  1
  O  O38  1  0.61555100  0.41284200  0.19597600  1
  O  O39  1  0.11397100  0.10083000  0.77121000  1
  O  O40  1  0.85847500  0.10774100  0.66320900  1
  O  O41  1  0.78693600  0.36606200  0.03965600  1
  O  O42  1  0.38798500  0.09435900  0.65505400  1
  O  O43  1  0.11789300  0.22951100  0.31498000  1
  O  O44  1  0.88092200  0.25188800  0.22700400  1
  O  O45  1  0.31421000  0.31897800  0.05555100  1
  O  O46  1  0.33123800  0.10983900  0.46137400  1
  O  O47  1  0.11928900  0.99291100  0.60775200  1
  O  O48  1  0.38602900  0.10083000  0.27121000  1
  O  O49  1  0.64152500  0.10774100  0.16320900  1
  O  O50  1  0.11201500  0.09435900  0.15505400  1
  O  O51  1  0.38071100  0.99291100  0.10775200  1
loop_
_geom_bond_atom_site_label_1
_geom_bond_atom_site_label_2
_geom_bond_distance
_geom_bond_site_symmetry_2
Cr0 O40 1.972332 1_565
Cr0 O39 1.988315 1_665
Cr0 O47 2.012114 1_655
Cr0 O7 2.016449 1_655
Cr0 O1 2.019683 1_555
Cr0 O8 2.037019 1_555
Cr1 O49 1.972332 1_565
Cr1 O48 1.988315 1_565
Cr1 O51 2.012114 1_555
Cr1 O18 2.016449 1_555
Cr1 O9 2.019683 1_555
Cr1 O19 2.037019 1_555
Cr2 O26 1.976809 1_455
Cr2 O20 1.981693 1_555
Cr2 O14 1.987083 1_455
Cr2 O23 1.992372 1_555
Cr2 O7 2.034401 1_555
Cr2 O8 2.056342 1_455
Cr3 O13 1.976809 1_555
Cr3 O22 1.981693 1_555
Cr3 O24 1.987083 1_555
Cr3 O15 1.992372 1_555
Cr3 O33 2.034401 1_555
Cr3 O32 2.056342 1_555
Cr4 O38 1.976802 1_555
Cr4 O29 1.981680 1_555
Cr4 O27 1.987095 1_555
Cr4 O36 1.992377 1_555
Cr4 O18 2.034407 1_555
Cr4 O19 2.056339 1_555
Cr5 O25 1.976809 1_655
Cr5 O31 1.981693 1_555
Cr5 O37 1.987083 1_655
Cr5 O28 1.992372 1_555
Cr5 O44 2.034401 1_555
Cr5 O43 2.056342 1_655
Cr6 O2 1.972332 1_545
Cr6 O3 1.988315 1_545
Cr6 O0 2.012114 1_555
Cr6 O33 2.016449 1_555
Cr6 O42 2.019683 1_555
Cr6 O32 2.037019 1_555
Cr7 O11 1.972332 1_545
Cr7 O12 1.988315 1_445
Cr7 O4 2.012114 1_455
Cr7 O44 2.016449 1_455
Cr7 O50 2.019683 1_555
Cr7 O43 2.037019 1_555
O0 V0 1.698510 1_545
O1 V0 1.690204 1_555
O2 V1 1.696058 1_555
O3 V2 1.691926 1_555
O4 V3 1.698510 1_545
O5 V3 1.808044 1_555
O5 V2 1.815677 1_555
O6 V4 1.799347 1_555
O6 V0 1.802015 1_555
O7 V1 1.784095 1_555
O8 V2 1.798965 1_555
O9 V3 1.690204 1_555
O10 V11 1.788543 1_556
O10 V1 1.807601 1_555
O11 V5 1.696058 1_555
O12 V6 1.691926 1_555
O13 V1 1.686433 1_555
O14 V4 1.684519 1_555
O15 V2 1.697778 1_555
O16 V0 1.808044 1_554
O16 V6 1.815677 1_555
O17 V8 1.799347 1_555
O17 V3 1.802015 1_555
O18 V5 1.784095 1_555
O19 V6 1.798965 1_555
O20 V7 1.689678 1_555
O21 V7 1.788543 1_555
O21 V5 1.807601 1_555
O22 V4 1.689678 1_555
O23 V9 1.697778 1_555
O24 V7 1.684519 1_555
O25 V5 1.686433 1_555
O26 V10 1.686433 1_555
O27 V8 1.684519 1_555
O28 V6 1.697778 1_555
O29 V11 1.689678 1_555
O30 V8 1.788543 1_555
O30 V10 1.807601 1_555
O31 V8 1.689678 1_555
O32 V9 1.798965 1_555
O33 V10 1.784095 1_555
O34 V7 1.799347 1_555
O34 V12 1.802015 1_555
O35 V15 1.808044 1_556
O35 V9 1.815677 1_555
O36 V13 1.697778 1_555
O37 V11 1.684519 1_555
O38 V14 1.686433 1_555
O39 V9 1.691926 1_555
O40 V10 1.696058 1_555
O41 V4 1.788543 1_554
O41 V14 1.807601 1_555
O42 V12 1.690204 1_555
O43 V13 1.798965 1_555
O44 V14 1.784095 1_555
O45 V11 1.799347 1_555
O45 V15 1.802015 1_555
O46 V12 1.808044 1_555
O46 V13 1.815677 1_555
O47 V12 1.698510 1_565
O48 V13 1.691926 1_555
O49 V14 1.696058 1_555
O50 V15 1.690204 1_555
O51 V15 1.698510 1_565
