# generated using pymatgen
data_LiCuPd2
_symmetry_space_group_name_H-M   'P 1'
_cell_length_a   4.20525438
_cell_length_b   4.20524217
_cell_length_c   4.20523669
_cell_angle_alpha   59.99629008
_cell_angle_beta   59.99635210
_cell_angle_gamma   59.99634593
_symmetry_Int_Tables_number   1
_chemical_formula_structural   LiCuPd2
_chemical_formula_sum   'Li1 Cu1 Pd2'
_cell_volume   52.58024234
_cell_formula_units_Z   1
loop_
 _symmetry_equiv_pos_site_id
 _symmetry_equiv_pos_as_xyz
  1  'x, y, z'
loop_
 _atom_site_type_symbol
 _atom_site_label
 _atom_site_symmetry_multiplicity
 _atom_site_fract_x
 _atom_site_fract_y
 _atom_site_fract_z
 _atom_site_occupancy
  Li  Li0  1  0.75000078  0.74999525  0.75000542  1
  Cu  Cu0  1  0.24999982  0.25000469  0.24999228  1
  Pd  Pd0  1  0.00000016  0.00000100  0.00000171  1
  Pd  Pd1  1  0.49999924  0.49999806  0.49999959  1
loop_
_geom_bond_atom_site_label_1
_geom_bond_atom_site_label_2
_geom_bond_distance
_geom_bond_site_symmetry_2
Li0 Pd1 2.575032 1_556
Li0 Pd0 2.575035 1_656
Li0 Pd1 2.575059 1_655
Li0 Pd0 2.575064 1_665
Li0 Pd1 2.575064 1_565
Li0 Pd0 2.575066 1_566
Li0 Pd0 2.575252 1_666
Li0 Pd1 2.575263 1_555
Cu0 Pd1 2.575026 1_554
Cu0 Pd0 2.575042 1_565
Cu0 Pd0 2.575065 1_655
Cu0 Pd1 2.575066 1_455
Cu0 Pd1 2.575077 1_545
Cu0 Pd0 2.575084 1_556
Cu0 Pd0 2.575226 1_555
Cu0 Pd1 2.575248 1_555
Cu0 Li0 2.973432 1_454
Cu0 Li0 2.973451 1_554
Cu0 Li0 2.973462 1_544
Cu0 Li0 2.973484 1_455
Cu0 Li0 2.973502 1_445
Cu0 Li0 2.973516 1_545
