# generated using pymatgen
data_ThF4
_symmetry_space_group_name_H-M   'P 1'
_cell_length_a   8.24664399
_cell_length_b   8.24664399
_cell_length_c   9.14361216
_cell_angle_alpha   56.84357783
_cell_angle_beta   56.84357783
_cell_angle_gamma   71.64385327
_symmetry_Int_Tables_number   1
_chemical_formula_structural   ThF4
_chemical_formula_sum   'Th6 F24'
_cell_volume   435.71271691
_cell_formula_units_Z   6
loop_
 _symmetry_equiv_pos_site_id
 _symmetry_equiv_pos_as_xyz
  1  'x, y, z'
loop_
 _atom_site_type_symbol
 _atom_site_label
 _atom_site_symmetry_multiplicity
 _atom_site_fract_x
 _atom_site_fract_y
 _atom_site_fract_z
 _atom_site_occupancy
  Th  Th0  1  0.19700400  0.80299600  0.25000000  1
  Th  Th1  1  0.80299500  0.19700500  0.75000000  1
  Th  Th2  1  0.40986600  0.23946600  0.26374200  1
  Th  Th3  1  0.76053400  0.59013400  0.23625800  1
  Th  Th4  1  0.59013400  0.76053400  0.73625800  1
  Th  Th5  1  0.23946600  0.40986600  0.76374200  1
  F  F0  1  0.64118100  0.35881900  0.25000000  1
  F  F1  1  0.35881900  0.64118100  0.75000000  1
  F  F2  1  0.26487000  0.45331700  0.42948500  1
  F  F3  1  0.54668300  0.73513000  0.07051500  1
  F  F4  1  0.73513000  0.54668300  0.57051500  1
  F  F5  1  0.45331700  0.26487000  0.92948500  1
  F  F6  1  0.32766900  0.55530100  0.08594200  1
  F  F7  1  0.44469900  0.67233100  0.41405800  1
  F  F8  1  0.67233100  0.44469900  0.91405800  1
  F  F9  1  0.55530100  0.32766900  0.58594200  1
  F  F10  1  0.00000000  0.50000000  0.00000000  1
  F  F11  1  0.50000000  0.00000000  0.50000000  1
  F  F12  1  0.00676400  0.26080600  0.80857800  1
  F  F13  1  0.73919400  0.99323600  0.69142200  1
  F  F14  1  0.99323600  0.73919400  0.19142200  1
  F  F15  1  0.26080600  0.00676400  0.30857800  1
  F  F16  1  0.34736100  0.93433500  0.88783400  1
  F  F17  1  0.06566500  0.65263900  0.61216600  1
  F  F18  1  0.65263900  0.06566500  0.11216600  1
  F  F19  1  0.93433500  0.34736100  0.38783400  1
  F  F20  1  0.12586900  0.12876200  0.06706500  1
  F  F21  1  0.87123800  0.87413100  0.43293500  1
  F  F22  1  0.87413100  0.87123800  0.93293500  1
  F  F23  1  0.12876200  0.12586900  0.56706500  1
loop_
_geom_bond_atom_site_label_1
_geom_bond_atom_site_label_2
_geom_bond_distance
_geom_bond_site_symmetry_2
F0 Th3 2.325617 1_555
F0 Th2 2.325617 1_555
F1 Th4 2.325617 1_555
F1 Th5 2.325617 1_555
F2 Th0 2.476626 1_555
F2 Th2 2.539629 1_555
F2 Th5 2.768089 1_555
F3 Th0 2.476626 1_555
F3 Th3 2.539629 1_555
F3 Th4 2.768089 1_554
F4 Th1 2.476618 1_555
F4 Th4 2.539629 1_555
F4 Th3 2.768089 1_555
F5 Th1 2.476618 1_555
F5 Th5 2.539629 1_555
F5 Th2 2.768089 1_556
F6 Th2 2.312572 1_555
F6 Th4 2.567178 1_554
F6 Th0 2.789458 1_555
F7 Th3 2.312572 1_555
F7 Th5 2.567178 1_555
F7 Th0 2.789458 1_555
F8 Th4 2.312572 1_555
F8 Th2 2.567178 1_556
F8 Th1 2.789451 1_555
F9 Th5 2.312572 1_555
F9 Th3 2.567178 1_555
F9 Th1 2.789451 1_555
F10 Th3 2.298793 1_455
F10 Th5 2.298793 1_554
F11 Th4 2.298793 1_545
F11 Th2 2.298793 1_555
F12 Th1 2.288481 1_455
F12 Th5 2.331454 1_555
F13 Th1 2.288481 1_565
F13 Th4 2.331454 1_555
F14 Th0 2.288478 1_655
F14 Th3 2.331454 1_555
F15 Th0 2.288478 1_545
F15 Th2 2.331454 1_555
F16 Th4 2.305158 1_555
F16 Th0 2.471384 1_556
F17 Th5 2.305158 1_555
F17 Th0 2.471384 1_555
F18 Th2 2.305158 1_555
F18 Th1 2.471384 1_554
F19 Th3 2.305158 1_555
F19 Th1 2.471384 1_555
F20 Th5 2.331653 1_554
F20 Th0 2.350428 1_545
F21 Th4 2.331653 1_555
F21 Th0 2.350428 1_655
F22 Th3 2.331653 1_556
F22 Th1 2.350436 1_565
F23 Th2 2.331653 1_555
F23 Th1 2.350436 1_455
