# generated using pymatgen
data_ThCo5
_symmetry_space_group_name_H-M   'P 1'
_cell_length_a   4.94884117
_cell_length_b   4.94919256
_cell_length_c   3.99216942
_cell_angle_alpha   90.00000000
_cell_angle_beta   90.00000000
_cell_angle_gamma   120.00103477
_symmetry_Int_Tables_number   1
_chemical_formula_structural   ThCo5
_chemical_formula_sum   'Th1 Co5'
_cell_volume   84.67845669
_cell_formula_units_Z   1
loop_
 _symmetry_equiv_pos_site_id
 _symmetry_equiv_pos_as_xyz
  1  'x, y, z'
loop_
 _atom_site_type_symbol
 _atom_site_label
 _atom_site_symmetry_multiplicity
 _atom_site_fract_x
 _atom_site_fract_y
 _atom_site_fract_z
 _atom_site_occupancy
  Th  Th0  1  -0.00000000  -0.00000000  -0.00000000  1
  Co  Co0  1  0.33339369  0.66673944  0.00000000  1
  Co  Co1  1  0.66660631  0.33326056  -0.00000000  1
  Co  Co2  1  0.50000000  -0.00000000  0.50000000  1
  Co  Co3  1  0.50000000  0.50000000  0.50000000  1
  Co  Co4  1  -0.00000000  0.50000000  0.50000000  1
loop_
_geom_bond_atom_site_label_1
_geom_bond_atom_site_label_2
_geom_bond_distance
_geom_bond_site_symmetry_2
Co0 Co2 2.454512 1_564
Co0 Co2 2.454512 1_565
Co0 Co3 2.454708 1_554
Co0 Co3 2.454708 1_555
Co0 Co4 2.454785 1_555
Co0 Co4 2.454785 1_554
Co0 Th0 2.856926 1_665
Co0 Th0 2.857278 1_565
Co0 Th0 2.857700 1_555
Co1 Co2 2.454512 1_554
Co1 Co2 2.454512 1_555
Co1 Co3 2.454708 1_554
Co1 Co3 2.454708 1_555
Co1 Co4 2.454785 1_655
Co1 Co4 2.454785 1_654
Co1 Th0 2.856926 1_555
Co1 Th0 2.857278 1_655
Co1 Th0 2.857700 1_665
Co2 Co4 2.474470 1_545
Co2 Co4 2.474470 1_655
Co2 Co3 2.474596 1_545
Co2 Co3 2.474596 1_555
Co2 Th0 3.179168 1_656
Co2 Th0 3.179168 1_555
Co2 Th0 3.179168 1_556
Co2 Th0 3.179168 1_655
Co3 Co4 2.474421 1_555
Co3 Co4 2.474421 1_655
Co3 Th0 3.179207 1_555
Co3 Th0 3.179207 1_556
Co3 Th0 3.179207 1_665
Co3 Th0 3.179207 1_666
Co4 Th0 3.179305 1_555
Co4 Th0 3.179305 1_556
Co4 Th0 3.179305 1_566
Co4 Th0 3.179305 1_565
