# generated using pymatgen
data_Li8CoO5F
_symmetry_space_group_name_H-M   'P 1'
_cell_length_a   6.20878933
_cell_length_b   10.07660991
_cell_length_c   9.55243660
_cell_angle_alpha   106.78950479
_cell_angle_beta   107.57119008
_cell_angle_gamma   82.32361515
_symmetry_Int_Tables_number   1
_chemical_formula_structural   Li8CoO5F
_chemical_formula_sum   'Li32 Co4 O20 F4'
_cell_volume   544.75862257
_cell_formula_units_Z   4
loop_
 _symmetry_equiv_pos_site_id
 _symmetry_equiv_pos_as_xyz
  1  'x, y, z'
loop_
 _atom_site_type_symbol
 _atom_site_label
 _atom_site_symmetry_multiplicity
 _atom_site_fract_x
 _atom_site_fract_y
 _atom_site_fract_z
 _atom_site_occupancy
  Li  Li0  1  0.09676900  0.26270800  0.05015200  1
  Li  Li1  1  0.59677500  0.76265100  0.05015100  1
  Li  Li2  1  0.84686200  0.51256600  0.55016600  1
  Li  Li3  1  0.34683600  0.01261200  0.55016400  1
  Li  Li4  1  0.41344700  0.25120400  0.26615800  1
  Li  Li5  1  0.91345900  0.75113300  0.26616400  1
  Li  Li6  1  0.16345800  0.50114200  0.76626100  1
  Li  Li7  1  0.66351700  0.00120200  0.76628500  1
  Li  Li8  1  0.13306200  0.50483500  0.11755200  1
  Li  Li9  1  0.63311500  0.00487500  0.11758800  1
  Li  Li10  1  0.88292700  0.75472600  0.61754300  1
  Li  Li11  1  0.38287200  0.25476600  0.61757400  1
  Li  Li12  1  0.77720600  0.25776900  0.14198200  1
  Li  Li13  1  0.27720800  0.75773000  0.14197100  1
  Li  Li14  1  0.52732000  0.50769900  0.64204800  1
  Li  Li15  1  0.02730000  0.00773200  0.64203200  1
  Li  Li16  1  0.45431100  0.50568600  0.34301000  1
  Li  Li17  1  0.95433600  0.00572200  0.34303800  1
  Li  Li18  1  0.20429300  0.75567600  0.84297100  1
  Li  Li19  1  0.70428800  0.25573700  0.84295100  1
  Li  Li20  1  0.10575900  0.23659300  0.38560800  1
  Li  Li21  1  0.60573300  0.73653800  0.38556600  1
  Li  Li22  1  0.85589400  0.48662100  0.88559400  1
  Li  Li23  1  0.35585200  0.98664200  0.88560400  1
  Li  Li24  1  0.85084100  0.51185700  0.23052400  1
  Li  Li25  1  0.35079600  0.01188300  0.23052800  1
  Li  Li26  1  0.60066200  0.76183400  0.73039800  1
  Li  Li27  1  0.10069500  0.26188400  0.73042900  1
  Li  Li28  1  0.16725900  0.48121000  0.44969800  1
  Li  Li29  1  0.66724400  0.98120500  0.44970100  1
  Li  Li30  1  0.91724500  0.73122500  0.94966900  1
  Li  Li31  1  0.41719300  0.23126700  0.94966600  1
  Co  Co0  1  0.97201900  0.98737600  0.01928300  1
  Co  Co1  1  0.22150000  0.73736500  0.51918100  1
  Co  Co2  1  0.47199000  0.48736300  0.01921400  1
  Co  Co3  1  0.72154300  0.23752000  0.51930100  1
  O  O0  1  0.39488100  0.36814300  0.13206600  1
  O  O1  1  0.89493100  0.86826300  0.13198000  1
  O  O2  1  0.14480200  0.61819100  0.63195300  1
  O  O3  1  0.64486600  0.11807000  0.63202100  1
  O  O4  1  0.10131200  0.14014800  0.17555600  1
  O  O5  1  0.60145500  0.64032700  0.17572300  1
  O  O6  1  0.85126700  0.39025300  0.67562000  1
  O  O7  1  0.35124900  0.89014900  0.67560200  1
  O  O8  1  0.84529900  0.39320800  0.03461700  1
  O  O9  1  0.34513400  0.89327000  0.03457900  1
  O  O10  1  0.59533900  0.64316900  0.53459300  1
  O  O11  1  0.09540200  0.14311400  0.53455000  1
  O  O12  1  0.40512500  0.34501800  0.46912400  1
  O  O13  1  0.90528000  0.84491900  0.46915500  1
  O  O14  1  0.15513500  0.59512900  0.96917700  1
  O  O15  1  0.65535400  0.09498000  0.96920200  1
  O  O16  1  0.14771700  0.61145600  0.32421600  1
  O  O17  1  0.64764800  0.11132800  0.32405300  1
  O  O18  1  0.89781400  0.86144600  0.82410300  1
  O  O19  1  0.39775200  0.36135400  0.82399000  1
  F  F0  1  0.88521700  0.39286600  0.36060700  1
  F  F1  1  0.38513700  0.89282100  0.36058700  1
  F  F2  1  0.63513800  0.64293900  0.86058300  1
  F  F3  1  0.13515300  0.14288600  0.86061400  1
loop_
_geom_bond_atom_site_label_1
_geom_bond_atom_site_label_2
_geom_bond_distance
_geom_bond_site_symmetry_2
Li0 O8 1.900871 1_455
Li0 O4 1.945754 1_555
Li0 O0 2.082675 1_555
Li1 O9 1.902355 1_555
Li1 O5 1.944885 1_555
Li1 O1 2.083867 1_555
Li2 O10 1.901741 1_555
Li2 O6 1.944337 1_555
Li2 O2 2.082821 1_655
Li3 O11 1.900748 1_555
Li3 O7 1.945427 1_545
Li3 O3 2.082388 1_555
Li4 O12 1.908908 1_555
Li4 O0 1.946547 1_555
Li4 O17 1.955538 1_555
Li4 O4 2.182723 1_555
Li5 O13 1.908825 1_555
Li5 O1 1.948831 1_555
Li5 O16 1.954728 1_655
Li5 O5 2.180772 1_555
Li6 O14 1.908835 1_555
Li6 O2 1.948979 1_555
Li6 O19 1.954818 1_555
Li6 O6 2.182138 1_455
Li7 O15 1.908160 1_555
Li7 O3 1.947207 1_555
Li7 O18 1.954828 1_545
Li7 O7 2.183384 1_545
Li8 O14 1.936771 1_554
Li8 O16 1.937049 1_555
Li8 O0 1.983685 1_555
Li8 O8 2.062152 1_455
Li9 O17 1.935134 1_555
Li9 O15 1.935915 1_554
Li9 O1 1.983158 1_545
Li9 O9 2.063120 1_545
Li10 O18 1.936208 1_555
Li10 O13 1.936796 1_555
Li10 O2 1.982951 1_655
Li10 O10 2.060865 1_555
Li11 O19 1.934700 1_555
Li11 O12 1.937512 1_555
Li11 O3 1.984462 1_555
Li11 O11 2.060764 1_555
Li12 O15 2.000188 1_554
Li12 O8 2.077918 1_555
Li12 O4 2.179390 1_655
Li12 O0 2.469928 1_555
Li13 O14 1.999382 1_554
Li13 O9 2.078495 1_555
Li13 O5 2.179124 1_555
Li13 O1 2.470110 1_455
Li14 O12 2.000662 1_555
Li14 O10 2.078614 1_555
Li14 O6 2.177777 1_555
Li14 O2 2.471183 1_555
Li15 O13 2.001029 1_445
Li15 O11 2.078300 1_555
Li15 O7 2.178426 1_545
Li15 O3 2.470299 1_455
Li16 O10 1.981663 1_555
Li16 O16 2.038126 1_555
Li16 O0 2.047360 1_555
Li16 O12 2.376270 1_555
Li17 O11 1.980874 1_655
Li17 O17 2.037838 1_555
Li17 O1 2.047812 1_545
Li17 O13 2.377140 1_545
Li18 O9 1.982056 1_556
Li18 O18 2.037498 1_455
Li18 O2 2.047626 1_555
Li18 O14 2.375828 1_555
Li19 O8 1.982043 1_556
Li19 O19 2.037104 1_555
Li19 O3 2.047784 1_555
Li19 O15 2.377417 1_555
Li20 O11 1.939409 1_555
Li20 O4 1.954095 1_555
Li20 O12 2.104416 1_555
Li21 O10 1.939422 1_555
Li21 O5 1.952104 1_555
Li21 O13 2.105098 1_555
Li22 O8 1.940099 1_556
Li22 O6 1.953026 1_555
Li22 O14 2.104184 1_655
Li23 O9 1.939648 1_556
Li23 O7 1.953551 1_555
Li23 O15 2.104633 1_565
Li24 O8 1.900587 1_555
Li24 O5 1.927167 1_555
Li24 O16 2.045738 1_655
Li25 O9 1.900636 1_545
Li25 O4 1.926589 1_555
Li25 O17 2.044825 1_555
Li26 O10 1.900132 1_555
Li26 O7 1.926259 1_555
Li26 O18 2.047235 1_555
Li27 O11 1.901100 1_555
Li27 O6 1.926695 1_455
Li27 O19 2.046017 1_555
Li28 O12 1.881248 1_555
Li28 O2 1.913779 1_555
Li28 O16 1.988085 1_555
Li29 O13 1.882580 1_555
Li29 O3 1.913580 1_565
Li29 O17 1.988221 1_565
Li30 O14 1.880771 1_655
Li30 O1 1.914200 1_556
Li30 O18 1.988644 1_555
Li31 O15 1.883154 1_555
Li31 O0 1.914081 1_556
Li31 O19 1.988331 1_555
Co0 O4 1.876609 1_665
Co0 O18 1.889283 1_554
Co0 O1 2.009889 1_555
Co0 O15 2.105314 1_564
Co0 O9 2.361348 1_655
Co1 O7 1.878137 1_555
Co1 O16 1.887625 1_555
Co1 O2 2.009770 1_555
Co1 O13 2.102835 1_455
Co1 O10 2.365563 1_555
Co2 O5 1.879147 1_555
Co2 O19 1.889927 1_554
Co2 O0 2.011951 1_555
Co2 O14 2.106959 1_554
Co2 O8 2.362464 1_555
Co3 O6 1.877340 1_555
Co3 O17 1.890790 1_555
Co3 O3 2.011501 1_555
Co3 O12 2.103692 1_555
Co3 O11 2.366471 1_655
F0 Li24 1.912993 1_555
F0 Li28 1.913689 1_655
F0 Li2 1.926714 1_555
F0 Li20 1.963534 1_655
F0 Li12 2.102427 1_555
F1 Li25 1.913419 1_565
F1 Li29 1.914222 1_555
F1 Li3 1.927052 1_565
F1 Li21 1.963764 1_555
F1 Li13 2.102288 1_555
F2 Li26 1.912892 1_555
F2 Li30 1.913759 1_555
F2 Li1 1.926839 1_556
F2 Li22 1.964620 1_555
F2 Li14 2.102272 1_555
F3 Li27 1.913740 1_555
F3 Li31 1.913837 1_555
F3 Li0 1.927028 1_556
F3 Li23 1.963841 1_545
F3 Li15 2.102264 1_555
