# generated using pymatgen
data_PmCu3
_symmetry_space_group_name_H-M   'P 1'
_cell_length_a   6.15632240
_cell_length_b   6.15632428
_cell_length_c   4.25915838
_cell_angle_alpha   90.00000000
_cell_angle_beta   90.00000000
_cell_angle_gamma   119.99452573
_symmetry_Int_Tables_number   1
_chemical_formula_structural   PmCu3
_chemical_formula_sum   'Pm2 Cu6'
_cell_volume   139.80452193
_cell_formula_units_Z   2
loop_
 _symmetry_equiv_pos_site_id
 _symmetry_equiv_pos_as_xyz
  1  'x, y, z'
loop_
 _atom_site_type_symbol
 _atom_site_label
 _atom_site_symmetry_multiplicity
 _atom_site_fract_x
 _atom_site_fract_y
 _atom_site_fract_z
 _atom_site_occupancy
  Pm  Pm0  1  0.33333297  0.66666803  0.75000000  1
  Pm  Pm1  1  0.66666703  0.33333197  0.25000000  1
  Cu  Cu0  1  0.86698422  0.13301578  0.75000000  1
  Cu  Cu1  1  0.26604493  0.13303096  0.75000000  1
  Cu  Cu2  1  0.86696804  0.73395607  0.75000000  1
  Cu  Cu3  1  0.13301678  0.86698322  0.25000000  1
  Cu  Cu4  1  0.73395607  0.86697104  0.25000000  1
  Cu  Cu5  1  0.13302896  0.26604193  0.25000000  1
loop_
_geom_bond_atom_site_label_1
_geom_bond_atom_site_label_2
_geom_bond_distance
_geom_bond_site_symmetry_2
Cu0 Cu2 2.456691 1_545
Cu0 Cu1 2.456700 1_655
Cu0 Cu5 2.558762 1_655
Cu0 Cu5 2.558762 1_656
Cu0 Cu4 2.558762 1_546
Cu0 Cu4 2.558762 1_545
Cu0 Pm1 3.016174 1_556
Cu0 Pm1 3.016174 1_555
Cu0 Pm0 3.099255 1_545
Cu0 Pm0 3.099261 1_655
Cu1 Cu2 2.457044 1_445
Cu1 Cu5 2.558644 1_555
Cu1 Cu5 2.558644 1_556
Cu1 Cu3 2.558771 1_545
Cu1 Cu3 2.558771 1_546
Cu1 Pm1 3.016257 1_556
Cu1 Pm1 3.016257 1_555
Cu1 Pm0 3.098991 1_555
Cu1 Pm0 3.099008 1_545
Cu2 Cu4 2.558644 1_556
Cu2 Cu4 2.558644 1_555
Cu2 Cu3 2.558774 1_655
Cu2 Cu3 2.558774 1_656
Cu2 Pm1 3.016265 1_556
Cu2 Pm1 3.016265 1_555
Cu2 Pm0 3.098978 1_555
Cu2 Pm0 3.099019 1_655
Cu3 Cu5 2.456697 1_565
Cu3 Cu4 2.456709 1_455
Cu3 Pm0 3.016167 1_555
Cu3 Pm0 3.016167 1_554
Cu3 Pm1 3.099254 1_565
Cu3 Pm1 3.099260 1_455
Cu4 Cu5 2.457019 1_665
Cu4 Pm0 3.016261 1_555
Cu4 Pm0 3.016261 1_554
Cu4 Pm1 3.098999 1_565
Cu4 Pm1 3.099001 1_555
Cu5 Pm0 3.016272 1_555
Cu5 Pm0 3.016272 1_554
Cu5 Pm1 3.098991 1_555
Cu5 Pm1 3.099008 1_455
