# generated using pymatgen
data_La18Ni12O41
_symmetry_space_group_name_H-M   'P 1'
_cell_length_a   11.82995319
_cell_length_b   11.82995319
_cell_length_c   7.78940591
_cell_angle_alpha   81.02382514
_cell_angle_beta   81.02382514
_cell_angle_gamma   117.25274695
_symmetry_Int_Tables_number   1
_chemical_formula_structural   La18Ni12O41
_chemical_formula_sum   'La18 Ni12 O41'
_cell_volume   924.55939319
_cell_formula_units_Z   1
loop_
 _symmetry_equiv_pos_site_id
 _symmetry_equiv_pos_as_xyz
  1  'x, y, z'
loop_
 _atom_site_type_symbol
 _atom_site_label
 _atom_site_symmetry_multiplicity
 _atom_site_fract_x
 _atom_site_fract_y
 _atom_site_fract_z
 _atom_site_occupancy
  La  La0  1  0.82582300  0.18312900  0.24001100  1
  La  La1  1  0.81568800  0.17565600  0.75911700  1
  La  La2  1  0.84851000  0.49068600  0.90953600  1
  La  La3  1  0.84089700  0.48256800  0.42377900  1
  La  La4  1  0.51034600  0.15202200  0.08950600  1
  La  La5  1  0.51819100  0.15777600  0.57545100  1
  La  La6  1  0.00228800  0.00228800  0.75256800  1
  La  La7  1  0.32633600  0.32633600  0.06621300  1
  La  La8  1  0.67768200  0.67768200  0.89324000  1
  La  La9  1  0.67571700  0.67571700  0.42458100  1
  La  La10  1  0.33191100  0.33191100  0.59230700  1
  La  La11  1  0.99827900  0.99827900  0.25530700  1
  La  La12  1  0.49068600  0.84851000  0.90953600  1
  La  La13  1  0.15777600  0.51819100  0.57545100  1
  La  La14  1  0.48256800  0.84089700  0.42377900  1
  La  La15  1  0.15202200  0.51034600  0.08950600  1
  La  La16  1  0.18312900  0.82582300  0.24001100  1
  La  La17  1  0.17565600  0.81568800  0.75911700  1
  Ni  Ni0  1  0.93437400  0.73632800  0.58215400  1
  Ni  Ni1  1  0.26535100  0.06706100  0.91505200  1
  Ni  Ni2  1  0.59628200  0.40212100  0.25081900  1
  Ni  Ni3  1  0.59530500  0.40193900  0.75121800  1
  Ni  Ni4  1  0.92755200  0.73495300  0.08529200  1
  Ni  Ni5  1  0.26429000  0.07040700  0.41772300  1
  Ni  Ni6  1  0.73495300  0.92755200  0.08529200  1
  Ni  Ni7  1  0.73632800  0.93437400  0.58215400  1
  Ni  Ni8  1  0.06706100  0.26535100  0.91505200  1
  Ni  Ni9  1  0.40212100  0.59628200  0.25081900  1
  Ni  Ni10  1  0.07040700  0.26429000  0.41772300  1
  Ni  Ni11  1  0.40193900  0.59530500  0.75121800  1
  O  O0  1  0.90871800  0.08683500  0.00141800  1
  O  O1  1  0.89431800  0.11610700  0.49737200  1
  O  O2  1  0.94252500  0.35354200  0.94715400  1
  O  O3  1  0.61148600  0.02099000  0.61990200  1
  O  O4  1  0.63861300  0.04835300  0.04870400  1
  O  O5  1  0.98390500  0.39478100  0.38077800  1
  O  O6  1  0.69209100  0.27789100  0.28489800  1
  O  O7  1  0.72308900  0.31346000  0.71754500  1
  O  O8  1  0.76173000  0.56380000  0.16719000  1
  O  O9  1  0.94075000  0.72300200  0.32874000  1
  O  O10  1  0.44266900  0.22110900  0.83376200  1
  O  O11  1  0.60301400  0.39724800  0.00980800  1
  O  O12  1  0.27801100  0.06013700  0.65290100  1
  O  O13  1  0.58468300  0.41945900  0.48912900  1
  O  O14  1  0.91911400  0.74795200  0.83830100  1
  O  O15  1  0.75440100  0.58029700  0.66794200  1
  O  O16  1  0.25294900  0.07741700  0.17952800  1
  O  O17  1  0.41797100  0.25252900  0.33027700  1
  O  O18  1  0.85267800  0.85267800  0.54221700  1
  O  O19  1  0.18807300  0.18807300  0.87980000  1
  O  O20  1  0.81839100  0.81839100  0.12567400  1
  O  O21  1  0.47261800  0.47261800  0.79368000  1
  O  O22  1  0.13805400  0.13805400  0.46593800  1
  O  O23  1  0.41945900  0.58468300  0.48912900  1
  O  O24  1  0.07741700  0.25294900  0.17952800  1
  O  O25  1  0.58029700  0.75440100  0.66794200  1
  O  O26  1  0.25252900  0.41797100  0.33027700  1
  O  O27  1  0.74795200  0.91911400  0.83830100  1
  O  O28  1  0.56380000  0.76173000  0.16719000  1
  O  O29  1  0.22110900  0.44266900  0.83376200  1
  O  O30  1  0.72300200  0.94075000  0.32874000  1
  O  O31  1  0.39724800  0.60301400  0.00980800  1
  O  O32  1  0.06013700  0.27801100  0.65290100  1
  O  O33  1  0.27789100  0.69209100  0.28489800  1
  O  O34  1  0.31346000  0.72308900  0.71754500  1
  O  O35  1  0.35354200  0.94252500  0.94715400  1
  O  O36  1  0.02099100  0.61148600  0.61990200  1
  O  O37  1  0.39478100  0.98390500  0.38077800  1
  O  O38  1  0.04835300  0.63861300  0.04870400  1
  O  O39  1  0.11610700  0.89431800  0.49737200  1
  O  O40  1  0.08683500  0.90871800  0.00141800  1
loop_
_geom_bond_atom_site_label_1
_geom_bond_atom_site_label_2
_geom_bond_distance
_geom_bond_site_symmetry_2
La0 O6 2.335758 1_555
La0 O1 2.429665 1_555
La0 O30 2.470610 1_545
La0 O2 2.491425 1_554
La0 O0 2.613112 1_555
La0 O24 2.636735 1_655
La0 O5 2.859548 1_555
La0 O4 2.864416 1_555
La0 O3 3.209067 1_555
La1 O7 2.354552 1_555
La1 O1 2.444360 1_555
La1 O32 2.499450 1_655
La1 O4 2.514085 1_556
La1 O0 2.639290 1_556
La1 O27 2.695826 1_545
La1 O2 2.753361 1_555
La1 O3 2.783507 1_555
La2 O2 2.358165 1_555
La2 O36 2.486457 1_655
La2 O11 2.519730 1_556
La2 O8 2.557719 1_556
La2 O15 2.648928 1_555
La2 O14 2.696002 1_555
La2 O38 2.725690 1_656
La2 O7 2.766850 1_555
La2 O6 3.171569 1_556
La3 O5 2.365080 1_555
La3 O9 2.454904 1_555
La3 O7 2.490696 1_555
La3 O8 2.569880 1_555
La3 O15 2.676402 1_555
La3 O13 2.707581 1_555
La3 O6 2.764044 1_555
La3 O36 2.822354 1_655
La3 O38 3.145960 1_655
La4 O4 2.362835 1_555
La4 O10 2.422043 1_554
La4 O37 2.471026 1_545
La4 O11 2.513188 1_555
La4 O16 2.687376 1_555
La4 O17 2.715055 1_555
La4 O6 2.820035 1_555
La4 O35 2.846346 1_544
La4 O7 3.157843 1_554
La5 O3 2.352976 1_555
La5 O10 2.435271 1_555
La5 O12 2.452184 1_555
La5 O6 2.497984 1_555
La5 O17 2.750445 1_555
La5 O37 2.752372 1_545
La5 O13 2.758532 1_555
La5 O7 2.806652 1_555
La5 O35 3.171475 1_545
La6 O22 2.354482 1_555
La6 O14 2.631264 1_445
La6 O27 2.631264 1_445
La6 O40 2.632949 1_546
La6 O0 2.632949 1_456
La6 O19 2.752927 1_555
La6 O18 2.809037 1_445
La6 O12 2.951273 1_555
La6 O32 2.951273 1_555
La6 O39 2.987982 1_545
La6 O1 2.987982 1_455
La6 O20 3.103490 1_446
La7 O21 2.336790 1_554
La7 O19 2.547782 1_554
La7 O24 2.610088 1_555
La7 O16 2.610088 1_555
La7 O17 2.677790 1_555
La7 O26 2.677790 1_555
La7 O29 2.866491 1_554
La7 O10 2.866491 1_554
La7 O31 2.920868 1_555
La7 O11 2.920868 1_555
La8 O25 2.514403 1_555
La8 O15 2.514403 1_555
La8 O27 2.522856 1_555
La8 O14 2.522856 1_555
La8 O21 2.855843 1_555
La8 O20 2.857080 1_556
La8 O28 2.889450 1_556
La8 O8 2.889450 1_556
La8 O18 2.930860 1_555
La8 O11 2.955776 1_556
La8 O31 2.955776 1_556
La9 O20 2.461096 1_555
La9 O15 2.565012 1_555
La9 O25 2.565012 1_555
La9 O18 2.605409 1_555
La9 O23 2.639725 1_555
La9 O13 2.639725 1_555
La9 O8 2.869408 1_555
La9 O28 2.869408 1_555
La9 O9 2.869422 1_555
La9 O30 2.869422 1_555
La10 O19 2.403309 1_555
La10 O23 2.610430 1_555
La10 O13 2.610430 1_555
La10 O17 2.628608 1_555
La10 O26 2.628608 1_555
La10 O21 2.663436 1_555
La10 O22 2.842487 1_555
La10 O12 2.919095 1_555
La10 O32 2.919095 1_555
La10 O29 2.923170 1_555
La10 O10 2.923170 1_555
La11 O18 2.410131 1_555
La11 O24 2.644044 1_665
La11 O16 2.644044 1_665
La11 O0 2.674880 1_565
La11 O40 2.674880 1_655
La11 O20 2.696394 1_555
La11 O22 2.710957 1_665
La11 O9 2.943258 1_555
La11 O30 2.943258 1_555
La11 O1 2.945725 1_565
La11 O39 2.945725 1_655
La11 O19 3.149972 1_664
La12 O35 2.358165 1_555
La12 O3 2.486452 1_565
La12 O31 2.519730 1_556
La12 O28 2.557719 1_556
La12 O25 2.648928 1_555
La12 O27 2.696002 1_555
La12 O4 2.725690 1_566
La12 O34 2.766850 1_555
La12 O33 3.171569 1_556
La13 O36 2.352966 1_555
La13 O29 2.435271 1_555
La13 O32 2.452184 1_555
La13 O33 2.497984 1_555
La13 O26 2.750445 1_555
La13 O5 2.752372 1_455
La13 O23 2.758532 1_555
La13 O34 2.806652 1_555
La13 O2 3.171475 1_455
La14 O37 2.365080 1_555
La14 O30 2.454904 1_555
La14 O34 2.490696 1_555
La14 O28 2.569880 1_555
La14 O25 2.676402 1_555
La14 O23 2.707581 1_555
La14 O33 2.764044 1_555
La14 O3 2.822347 1_565
La14 O4 3.145960 1_565
La15 O38 2.362835 1_555
La15 O29 2.422043 1_554
La15 O5 2.471026 1_455
La15 O31 2.513188 1_555
La15 O24 2.687376 1_555
La15 O26 2.715055 1_555
La15 O33 2.820035 1_555
La15 O2 2.846346 1_454
La15 O34 3.157843 1_554
La16 O33 2.335758 1_555
La16 O39 2.429665 1_555
La16 O9 2.470610 1_455
La16 O35 2.491425 1_554
La16 O40 2.613112 1_555
La16 O16 2.636735 1_565
La16 O37 2.859548 1_555
La16 O38 2.864416 1_555
La16 O36 3.209066 1_555
La17 O34 2.354552 1_555
La17 O39 2.444360 1_555
La17 O12 2.499450 1_565
La17 O38 2.514085 1_556
La17 O40 2.639290 1_556
La17 O14 2.695826 1_455
La17 O35 2.753361 1_555
La17 O36 2.783504 1_555
Ni0 O15 1.989623 1_555
Ni0 O9 1.997131 1_555
Ni0 O14 2.007089 1_555
Ni0 O39 2.010771 1_655
Ni0 O18 2.025791 1_555
Ni0 O36 2.159174 1_655
Ni1 O10 1.961290 1_555
Ni1 O40 1.990425 1_546
Ni1 O19 2.028493 1_555
Ni1 O12 2.041299 1_555
Ni1 O16 2.069177 1_556
Ni1 O35 2.166932 1_545
Ni2 O11 1.877595 1_555
Ni2 O13 1.889927 1_555
Ni2 O8 1.923096 1_555
Ni2 O17 1.948450 1_555
Ni2 O6 2.238880 1_555
Ni3 O10 1.980152 1_555
Ni3 O21 1.990708 1_555
Ni3 O15 1.992497 1_555
Ni3 O11 2.023790 1_556
Ni3 O13 2.049002 1_555
Ni3 O7 2.204677 1_555
Ni4 O9 1.915548 1_555
Ni4 O14 1.927879 1_554
Ni4 O40 1.962758 1_655
Ni4 O20 1.969364 1_555
Ni4 O8 1.980790 1_555
Ni4 O38 2.210942 1_655
Ni5 O12 1.854280 1_555
Ni5 O16 1.872760 1_555
Ni5 O39 1.926213 1_545
Ni5 O17 1.994852 1_555
Ni5 O22 2.006210 1_555
Ni5 O37 2.216531 1_545
Ni6 O30 1.915548 1_555
Ni6 O27 1.927879 1_554
Ni6 O0 1.962758 1_565
Ni6 O20 1.969364 1_555
Ni6 O28 1.980790 1_555
Ni6 O4 2.210942 1_565
Ni7 O25 1.989623 1_555
Ni7 O30 1.997131 1_555
Ni7 O27 2.007089 1_555
Ni7 O1 2.010771 1_565
Ni7 O18 2.025791 1_555
Ni7 O3 2.159164 1_565
Ni8 O29 1.961290 1_555
Ni8 O0 1.990425 1_456
Ni8 O19 2.028493 1_555
Ni8 O32 2.041299 1_555
Ni8 O24 2.069177 1_556
Ni8 O2 2.166932 1_455
Ni9 O31 1.877595 1_555
Ni9 O23 1.889927 1_555
Ni9 O28 1.923096 1_555
Ni9 O26 1.948450 1_555
Ni9 O33 2.238880 1_555
Ni10 O32 1.854280 1_555
Ni10 O24 1.872760 1_555
Ni10 O1 1.926213 1_455
Ni10 O26 1.994852 1_555
Ni10 O22 2.006210 1_555
Ni10 O5 2.216531 1_455
Ni11 O29 1.980152 1_555
Ni11 O21 1.990708 1_555
Ni11 O25 1.992497 1_555
Ni11 O31 2.023790 1_556
Ni11 O23 2.049002 1_555
Ni11 O34 2.204677 1_555
