# generated using pymatgen
data_Cs2MgP4(HO2)8
_symmetry_space_group_name_H-M   'P 1'
_cell_length_a   7.08131200
_cell_length_b   7.52918596
_cell_length_c   8.03264940
_cell_angle_alpha   96.49163330
_cell_angle_beta   111.07312752
_cell_angle_gamma   87.69121671
_symmetry_Int_Tables_number   1
_chemical_formula_structural   Cs2MgP4(HO2)8
_chemical_formula_sum   'Cs2 Mg1 P4 H8 O16'
_cell_volume   397.06864157
_cell_formula_units_Z   1
loop_
 _symmetry_equiv_pos_site_id
 _symmetry_equiv_pos_as_xyz
  1  'x, y, z'
loop_
 _atom_site_type_symbol
 _atom_site_label
 _atom_site_symmetry_multiplicity
 _atom_site_fract_x
 _atom_site_fract_y
 _atom_site_fract_z
 _atom_site_occupancy
  Cs  Cs0  1  0.90992100  0.29911200  0.27928300  1
  Cs  Cs1  1  0.09007900  0.70088800  0.72071700  1
  Mg  Mg0  1  0.50000000  0.50000000  0.50000000  1
  P  P0  1  0.62649900  0.74876500  0.23739800  1
  P  P1  1  0.22110900  0.80521400  0.24881100  1
  P  P2  1  0.77889100  0.19478600  0.75118900  1
  P  P3  1  0.37350100  0.25123500  0.76260200  1
  H  H0  1  0.89280700  0.75130200  0.08908300  1
  H  H1  1  0.38901200  0.30204700  0.15640800  1
  H  H2  1  0.37036900  0.17686800  0.29825100  1
  H  H3  1  0.72843500  0.97266500  0.45190600  1
  H  H4  1  0.27156500  0.02733500  0.54809400  1
  H  H5  1  0.62963100  0.82313200  0.70174900  1
  H  H6  1  0.61098800  0.69795300  0.84359200  1
  H  H7  1  0.10719300  0.24869800  0.91091700  1
  O  O0  1  0.02211200  0.80172100  0.07847100  1
  O  O1  1  0.69520700  0.68399500  0.08246200  1
  O  O2  1  0.38442100  0.78225000  0.14581500  1
  O  O3  1  0.42543700  0.29123600  0.28613000  1
  O  O4  1  0.72603900  0.93722700  0.32258400  1
  O  O5  1  0.25711400  0.98975600  0.35416200  1
  O  O6  1  0.23671900  0.64780600  0.35461200  1
  O  O7  1  0.66450500  0.62562500  0.38212700  1
  O  O8  1  0.33549500  0.37437500  0.61787300  1
  O  O9  1  0.76328100  0.35219400  0.64538800  1
  O  O10  1  0.74288600  0.01024400  0.64583800  1
  O  O11  1  0.27396100  0.06277300  0.67741600  1
  O  O12  1  0.57456300  0.70876400  0.71387000  1
  O  O13  1  0.61557900  0.21775000  0.85418500  1
  O  O14  1  0.30479300  0.31600500  0.91753800  1
  O  O15  1  0.97788800  0.19827900  0.92152900  1
loop_
_geom_bond_atom_site_label_1
_geom_bond_atom_site_label_2
_geom_bond_distance
_geom_bond_site_symmetry_2
Cs0 O15 3.088381 1_554
Cs0 O7 3.158360 1_555
Cs0 O4 3.172750 1_545
Cs0 O5 3.259378 1_645
Cs0 O8 3.270343 1_655
Cs0 O13 3.300202 1_554
Cs0 H2 3.306715 1_655
Cs0 O6 3.425993 1_655
Cs0 O9 3.432648 1_555
Cs0 O3 3.453930 1_555
Cs0 O1 3.487293 1_555
Cs1 O0 3.088381 1_556
Cs1 O8 3.158360 1_555
Cs1 O11 3.172750 1_565
Cs1 O10 3.259378 1_465
Cs1 O7 3.270343 1_455
Cs1 O2 3.300202 1_556
Cs1 H5 3.306715 1_455
Cs1 O9 3.425993 1_455
Cs1 O6 3.432648 1_555
Cs1 O12 3.453930 1_555
Cs1 O14 3.487293 1_555
Mg0 O7 2.057328 1_555
Mg0 O8 2.057328 1_555
Mg0 O3 2.122435 1_555
Mg0 O12 2.122435 1_555
Mg0 O9 2.153877 1_555
Mg0 O6 2.153877 1_555
H0 O0 1.039826 1_655
H0 O1 1.488325 1_555
H1 O3 0.991540 1_555
H2 O3 0.988103 1_555
H3 O4 1.037111 1_555
H3 O10 1.518309 1_565
H4 O11 1.037111 1_555
H4 O5 1.518309 1_545
H5 O12 0.988103 1_555
H6 O12 0.991540 1_555
H7 O15 1.039826 1_455
H7 O14 1.488325 1_555
O0 P1 1.570641 1_555
O1 P0 1.517409 1_555
O2 P0 1.625910 1_555
O2 P1 1.640536 1_555
O4 P0 1.578836 1_555
O5 P1 1.522901 1_555
O6 P1 1.512849 1_555
O7 P0 1.510690 1_555
O8 P3 1.510690 1_555
O9 P2 1.512849 1_555
O10 P2 1.522901 1_555
O11 P3 1.578836 1_555
O13 P3 1.625910 1_555
O13 P2 1.640536 1_555
O14 P3 1.517409 1_555
O15 P2 1.570641 1_555
