# generated using pymatgen
data_Sc2Ni
_symmetry_space_group_name_H-M   'P 1'
_cell_length_a   8.54097719
_cell_length_b   8.54084465
_cell_length_c   8.54082036
_cell_angle_alpha   60.00476555
_cell_angle_beta   60.00304915
_cell_angle_gamma   60.00326843
_symmetry_Int_Tables_number   1
_chemical_formula_structural   Sc2Ni
_chemical_formula_sum   'Sc16 Ni8'
_cell_volume   440.58463623
_cell_formula_units_Z   8
loop_
 _symmetry_equiv_pos_site_id
 _symmetry_equiv_pos_as_xyz
  1  'x, y, z'
loop_
 _atom_site_type_symbol
 _atom_site_label
 _atom_site_symmetry_multiplicity
 _atom_site_fract_x
 _atom_site_fract_y
 _atom_site_fract_z
 _atom_site_occupancy
  Sc  Sc0  1  0.00000007  0.00000224  0.00000159  1
  Sc  Sc1  1  0.00000326  0.99999806  0.49999708  1
  Sc  Sc2  1  0.49999812  0.00000243  0.99999986  1
  Sc  Sc3  1  0.99999973  0.49999729  0.00000214  1
  Sc  Sc4  1  0.81100928  0.43898650  0.43899260  1
  Sc  Sc5  1  0.43899042  0.81100748  0.81100658  1
  Sc  Sc6  1  0.43901115  0.81098885  0.43900759  1
  Sc  Sc7  1  0.43900566  0.43900950  0.81099110  1
  Sc  Sc8  1  0.81098569  0.43901085  0.81098896  1
  Sc  Sc9  1  0.81098889  0.81098659  0.43901020  1
  Sc  Sc10  1  0.56099290  0.18901176  0.56098851  1
  Sc  Sc11  1  0.18901247  0.56099051  0.18901367  1
  Sc  Sc12  1  0.18899338  0.56100622  0.56101131  1
  Sc  Sc13  1  0.56099000  0.56099417  0.18901075  1
  Sc  Sc14  1  0.56100734  0.18899707  0.18899429  1
  Sc  Sc15  1  0.18901306  0.18901193  0.56098959  1
  Ni  Ni0  1  0.21050039  0.21050642  0.21050374  1
  Ni  Ni1  1  0.21051855  0.21051381  0.86846849  1
  Ni  Ni2  1  0.86846272  0.21052125  0.21051920  1
  Ni  Ni3  1  0.21052076  0.86846303  0.21051400  1
  Ni  Ni4  1  0.78951133  0.78950512  0.78950777  1
  Ni  Ni5  1  0.78949538  0.78949807  0.13149707  1
  Ni  Ni6  1  0.78949308  0.13150161  0.78949755  1
  Ni  Ni7  1  0.13150135  0.78949225  0.78949437  1
loop_
_geom_bond_atom_site_label_1
_geom_bond_atom_site_label_2
_geom_bond_distance
_geom_bond_site_symmetry_2
Sc0 Sc5 3.125878 1_544
Sc0 Sc14 3.125889 1_455
Sc0 Sc9 3.126061 1_445
Sc0 Sc15 3.126074 1_554
Sc0 Sc8 3.126077 1_454
Sc0 Sc11 3.126091 1_545
Sc1 Sc4 3.125823 1_465
Sc1 Sc12 3.125833 1_555
Sc1 Sc9 3.125846 1_455
Sc1 Sc15 3.125863 1_565
Sc1 Sc6 3.126015 1_555
Sc1 Sc10 3.126030 1_465
Sc2 Sc5 3.125660 1_545
Sc2 Sc7 3.126005 1_555
Sc2 Sc6 3.126006 1_546
Sc3 Sc4 3.125812 1_555
Sc3 Sc8 3.125853 1_554
Sc3 Sc7 3.125998 1_654
Sc4 Sc8 3.177157 1_555
Sc4 Sc9 3.177183 1_555
Sc4 Sc7 3.177370 1_555
Sc4 Sc6 3.177378 1_555
Sc5 Sc6 3.177168 1_555
Sc5 Sc7 3.177178 1_555
Sc5 Sc9 3.177339 1_555
Sc5 Sc8 3.177341 1_555
Sc6 Sc9 3.177055 1_555
Sc6 Sc7 3.177260 1_555
Sc7 Sc8 3.177070 1_555
Sc8 Sc9 3.177224 1_555
Sc10 Sc2 3.126021 1_555
Sc10 Sc15 3.177066 1_555
Sc10 Sc14 3.177137 1_555
Sc10 Sc13 3.177248 1_555
Sc10 Sc12 3.177350 1_555
Sc10 Sc4 3.211437 1_555
Sc10 Sc7 3.211441 1_555
Sc10 Sc9 3.211597 1_545
Sc10 Sc5 3.211632 1_545
Sc11 Sc3 3.125871 1_455
Sc11 Sc13 3.177055 1_555
Sc11 Sc12 3.177151 1_555
Sc11 Sc15 3.177224 1_555
Sc11 Sc14 3.177326 1_555
Sc11 Sc7 3.211579 1_554
Sc11 Sc9 3.211603 1_455
Sc11 Sc4 3.211627 1_455
Sc11 Sc5 3.211644 1_554
Sc12 Sc3 3.125817 1_456
Sc12 Sc15 3.177154 1_555
Sc12 Sc13 3.177349 1_555
Sc12 Sc7 3.211443 1_555
Sc12 Sc6 3.211481 1_555
Sc12 Sc8 3.211623 1_455
Sc12 Sc9 3.211633 1_455
Sc13 Sc3 3.126012 1_555
Sc13 Sc2 3.126015 1_564
Sc13 Sc14 3.177166 1_555
Sc13 Sc6 3.211403 1_555
Sc13 Sc4 3.211476 1_555
Sc13 Sc8 3.211583 1_554
Sc13 Sc5 3.211617 1_554
Sc14 Sc2 3.125675 1_554
Sc14 Sc15 3.177316 1_555
Sc14 Sc7 3.211619 1_554
Sc14 Sc8 3.211627 1_554
Sc14 Sc6 3.211634 1_545
Sc14 Sc9 3.211677 1_545
Sc15 Sc6 3.211598 1_545
Sc15 Sc4 3.211611 1_455
Sc15 Sc8 3.211638 1_455
Sc15 Sc5 3.211646 1_545
Ni0 Sc2 2.630658 1_554
Ni0 Sc3 2.630697 1_455
Ni0 Sc1 2.630710 1_545
Ni0 Sc15 2.821872 1_555
Ni0 Sc11 2.821881 1_555
Ni0 Sc14 2.821966 1_555
Ni0 Ni1 2.921153 1_554
Ni0 Ni2 2.921207 1_455
Ni0 Ni3 2.921209 1_545
Ni0 Sc4 3.122557 1_455
Ni0 Sc7 3.122835 1_554
Ni0 Sc6 3.122889 1_545
Ni1 Sc3 2.630632 1_456
Ni1 Sc2 2.630672 1_555
Ni1 Sc0 2.630735 1_556
Ni1 Sc15 2.821742 1_555
Ni1 Sc10 2.821864 1_555
Ni1 Sc12 2.821917 1_555
Ni1 Ni2 2.921577 1_456
Ni1 Ni3 2.921586 1_546
Ni1 Sc7 3.122525 1_555
Ni1 Sc5 3.122557 1_545
Ni1 Sc8 3.122878 1_455
Ni2 Sc3 2.630670 1_555
Ni2 Sc0 2.630694 1_655
Ni2 Sc1 2.630699 1_645
Ni2 Sc14 2.821792 1_555
Ni2 Sc10 2.821800 1_555
Ni2 Sc13 2.821843 1_555
Ni2 Ni3 2.921632 1_645
Ni2 Sc4 3.122227 1_555
Ni2 Sc8 3.122842 1_554
Ni2 Sc9 3.122869 1_545
Ni3 Sc1 2.630628 1_555
Ni3 Sc2 2.630688 1_564
Ni3 Sc0 2.630744 1_565
Ni3 Sc11 2.821700 1_555
Ni3 Sc13 2.821810 1_555
Ni3 Sc12 2.821936 1_555
Ni3 Sc5 3.122530 1_554
Ni3 Sc6 3.122546 1_555
Ni3 Sc9 3.122852 1_455
Ni4 Sc2 2.630604 1_565
Ni4 Sc3 2.630642 1_556
Ni4 Sc1 2.630650 1_655
Ni4 Sc8 2.822050 1_555
Ni4 Sc9 2.822056 1_555
Ni4 Sc5 2.822150 1_555
Ni4 Ni5 2.920771 1_556
Ni4 Ni7 2.920817 1_655
Ni4 Ni6 2.920817 1_565
Ni4 Sc12 3.122609 1_655
Ni4 Sc13 3.122876 1_556
Ni4 Sc10 3.122923 1_565
Ni5 Sc3 2.630568 1_555
Ni5 Sc2 2.630633 1_564
Ni5 Sc0 2.630670 1_665
Ni5 Sc9 2.821911 1_555
Ni5 Sc6 2.822024 1_555
Ni5 Sc4 2.822151 1_555
Ni5 Ni7 2.921159 1_654
Ni5 Ni6 2.921188 1_564
Ni5 Sc13 3.122574 1_555
Ni5 Sc14 3.122621 1_565
Ni5 Sc11 3.122886 1_655
Ni6 Sc1 2.630600 1_645
Ni6 Sc2 2.630619 1_555
Ni6 Sc0 2.630678 1_656
Ni6 Sc8 2.821894 1_555
Ni6 Sc7 2.822042 1_555
Ni6 Sc4 2.822077 1_555
Ni6 Ni7 2.921211 1_645
Ni6 Sc14 3.122585 1_556
Ni6 Sc10 3.122587 1_555
Ni6 Sc15 3.122878 1_655
Ni7 Sc1 2.630633 1_555
Ni7 Sc3 2.630633 1_456
Ni7 Sc0 2.630638 1_566
Ni7 Sc5 2.821974 1_555
Ni7 Sc7 2.822007 1_555
Ni7 Sc6 2.822032 1_555
Ni7 Sc12 3.122296 1_555
Ni7 Sc11 3.122875 1_556
Ni7 Sc15 3.122886 1_565
