# generated using pymatgen
data_Mn2CrCo
_symmetry_space_group_name_H-M   'P 1'
_cell_length_a   4.16160605
_cell_length_b   4.16160605
_cell_length_c   4.16160605
_cell_angle_alpha   60.00000000
_cell_angle_beta   60.00000000
_cell_angle_gamma   60.00000000
_symmetry_Int_Tables_number   1
_chemical_formula_structural   Mn2CrCo
_chemical_formula_sum   'Mn2 Cr1 Co1'
_cell_volume   50.96451568
_cell_formula_units_Z   1
loop_
 _symmetry_equiv_pos_site_id
 _symmetry_equiv_pos_as_xyz
  1  'x, y, z'
loop_
 _atom_site_type_symbol
 _atom_site_label
 _atom_site_symmetry_multiplicity
 _atom_site_fract_x
 _atom_site_fract_y
 _atom_site_fract_z
 _atom_site_occupancy
  Mn  Mn0  1  0.00000000  0.00000000  0.00000000  1
  Mn  Mn1  1  0.50000000  0.50000000  0.50000000  1
  Cr  Cr0  1  0.75000000  0.75000000  0.75000000  1
  Co  Co0  1  0.25000100  0.25000100  0.25000100  1
loop_
_geom_bond_atom_site_label_1
_geom_bond_atom_site_label_2
_geom_bond_distance
_geom_bond_site_symmetry_2
Cr0 Mn0 2.548453 1_665
Cr0 Mn0 2.548453 1_656
Cr0 Mn1 2.548453 1_555
Cr0 Mn0 2.548453 1_666
Cr0 Mn1 2.548453 1_565
Cr0 Mn1 2.548453 1_556
Cr0 Mn0 2.548453 1_566
Cr0 Mn1 2.548453 1_655
Co0 Mn1 2.548443 1_555
Co0 Mn0 2.548449 1_565
Co0 Mn0 2.548449 1_556
Co0 Mn0 2.548449 1_655
Co0 Mn1 2.548456 1_554
Co0 Mn1 2.548456 1_545
Co0 Mn1 2.548456 1_455
Co0 Mn0 2.548463 1_555
