# generated using pymatgen
data_Gd(AlSi)2
_symmetry_space_group_name_H-M   'P 1'
_cell_length_a   4.18578565
_cell_length_b   4.18578588
_cell_length_c   6.67370775
_cell_angle_alpha   90.00000000
_cell_angle_beta   90.00000000
_cell_angle_gamma   119.99999826
_symmetry_Int_Tables_number   1
_chemical_formula_structural   Gd(AlSi)2
_chemical_formula_sum   'Gd1 Al2 Si2'
_cell_volume   101.26323959
_cell_formula_units_Z   1
loop_
 _symmetry_equiv_pos_site_id
 _symmetry_equiv_pos_as_xyz
  1  'x, y, z'
loop_
 _atom_site_type_symbol
 _atom_site_label
 _atom_site_symmetry_multiplicity
 _atom_site_fract_x
 _atom_site_fract_y
 _atom_site_fract_z
 _atom_site_occupancy
  Gd  Gd0  1  0.00000000  0.00000000  0.00000000  1
  Al  Al0  1  0.66666700  0.33333300  0.35851592  1
  Al  Al1  1  0.33333300  0.66666700  0.64148408  1
  Si  Si0  1  0.66666700  0.33333300  0.73684533  1
  Si  Si1  1  0.33333300  0.66666700  0.26315467  1
loop_
_geom_bond_atom_site_label_1
_geom_bond_atom_site_label_2
_geom_bond_distance
_geom_bond_site_symmetry_2
Gd0 Si1 2.987399 1_545
Gd0 Si0 2.987399 1_454
Gd0 Si0 2.987402 1_554
Gd0 Si1 2.987402 1_445
Gd0 Si1 2.987402 1_555
Gd0 Si0 2.987402 1_444
Al0 Si1 2.499055 1_655
Al0 Si1 2.499055 1_545
Al0 Si1 2.499062 1_555
Al0 Si0 2.524860 1_555
Al1 Si0 2.499055 1_455
Al1 Si0 2.499055 1_565
Al1 Si0 2.499062 1_555
Al1 Si1 2.524860 1_555
