# generated using pymatgen
data_LiVP3HO10
_symmetry_space_group_name_H-M   'P 1'
_cell_length_a   5.03852500
_cell_length_b   11.97653200
_cell_length_c   15.49976500
_cell_angle_alpha   90.00000000
_cell_angle_beta   90.00000000
_cell_angle_gamma   90.00000000
_symmetry_Int_Tables_number   1
_chemical_formula_structural   LiVP3HO10
_chemical_formula_sum   'Li4 V4 P12 H4 O40'
_cell_volume   935.31868552
_cell_formula_units_Z   4
loop_
 _symmetry_equiv_pos_site_id
 _symmetry_equiv_pos_as_xyz
  1  'x, y, z'
loop_
 _atom_site_type_symbol
 _atom_site_label
 _atom_site_symmetry_multiplicity
 _atom_site_fract_x
 _atom_site_fract_y
 _atom_site_fract_z
 _atom_site_occupancy
  Li  Li0  1  0.05794200  0.19438400  0.94556400  1
  Li  Li1  1  0.05794200  0.30561600  0.44556400  1
  Li  Li2  1  0.94205800  0.69438400  0.94556400  1
  Li  Li3  1  0.94205800  0.80561600  0.44556400  1
  V  V0  1  0.99476500  0.16658900  0.73720700  1
  V  V1  1  0.99476500  0.33341100  0.23720700  1
  V  V2  1  0.00523500  0.66658900  0.73720700  1
  V  V3  1  0.00523500  0.83341100  0.23720700  1
  P  P0  1  0.25636200  0.08385200  0.23908000  1
  P  P1  1  0.48677900  0.08063100  0.62307300  1
  P  P2  1  0.49872500  0.25189800  0.35763200  1
  P  P3  1  0.49872500  0.24810200  0.85763200  1
  P  P4  1  0.48677900  0.41936900  0.12307300  1
  P  P5  1  0.25636200  0.41614800  0.73908000  1
  P  P6  1  0.74363800  0.58385200  0.23908000  1
  P  P7  1  0.51322100  0.58063100  0.62307300  1
  P  P8  1  0.50127500  0.75189800  0.35763200  1
  P  P9  1  0.50127500  0.74810200  0.85763200  1
  P  P10  1  0.51322100  0.91936900  0.12307300  1
  P  P11  1  0.74363800  0.91614800  0.73908000  1
  H  H0  1  0.49254600  0.12420400  0.48982100  1
  H  H1  1  0.49254600  0.37579600  0.98982100  1
  H  H2  1  0.50745400  0.62420400  0.48982100  1
  H  H3  1  0.50745400  0.87579600  0.98982100  1
  O  O0  1  0.45127000  0.04096200  0.16525000  1
  O  O1  1  0.89291300  0.01262000  0.77891500  1
  O  O2  1  0.54551700  0.05496100  0.52595400  1
  O  O3  1  0.45862200  0.13136100  0.30918800  1
  O  O4  1  0.19246000  0.10397700  0.63505600  1
  O  O5  1  0.08870200  0.17647700  0.20152700  1
  O  O6  1  0.32217100  0.16115900  0.81473400  1
  O  O7  1  0.66696600  0.16881900  0.66123800  1
  O  O8  1  0.40905300  0.23451800  0.45055900  1
  O  O9  1  0.79860100  0.22427100  0.85063900  1
  O  O10  1  0.79860100  0.27572900  0.35063900  1
  O  O11  1  0.40905300  0.26548200  0.95055900  1
  O  O12  1  0.66696600  0.33118100  0.16123800  1
  O  O13  1  0.32217100  0.33884100  0.31473400  1
  O  O14  1  0.08870200  0.32352300  0.70152700  1
  O  O15  1  0.19246000  0.39602300  0.13505600  1
  O  O16  1  0.45862200  0.36863900  0.80918800  1
  O  O17  1  0.54551700  0.44503900  0.02595400  1
  O  O18  1  0.89291300  0.48738000  0.27891500  1
  O  O19  1  0.45127000  0.45903800  0.66525000  1
  O  O20  1  0.54873000  0.54096200  0.16525000  1
  O  O21  1  0.10708700  0.51262000  0.77891500  1
  O  O22  1  0.45448300  0.55496100  0.52595400  1
  O  O23  1  0.54137800  0.63136100  0.30918800  1
  O  O24  1  0.80754000  0.60397700  0.63505600  1
  O  O25  1  0.91129800  0.67647700  0.20152700  1
  O  O26  1  0.67782900  0.66115900  0.81473400  1
  O  O27  1  0.33303400  0.66881900  0.66123800  1
  O  O28  1  0.59094700  0.73451800  0.45055900  1
  O  O29  1  0.20139900  0.72427100  0.85063900  1
  O  O30  1  0.20139900  0.77572900  0.35063900  1
  O  O31  1  0.59094700  0.76548200  0.95055900  1
  O  O32  1  0.33303400  0.83118100  0.16123800  1
  O  O33  1  0.67782900  0.83884100  0.31473400  1
  O  O34  1  0.91129800  0.82352300  0.70152700  1
  O  O35  1  0.80754000  0.89602300  0.13505600  1
  O  O36  1  0.54137800  0.86863900  0.80918800  1
  O  O37  1  0.45448300  0.94503900  0.02595400  1
  O  O38  1  0.10708700  0.98738000  0.27891500  1
  O  O39  1  0.54873000  0.95903800  0.66525000  1
loop_
_geom_bond_atom_site_label_1
_geom_bond_atom_site_label_2
_geom_bond_distance
_geom_bond_site_symmetry_2
Li0 O11 1.964869 1_555
Li0 O9 2.000087 1_455
Li0 O6 2.458226 1_555
Li1 O8 1.964869 1_555
Li1 O10 2.000087 1_455
Li1 O13 2.458226 1_555
Li2 O31 1.964869 1_555
Li2 O29 2.000087 1_655
Li2 O26 2.458226 1_555
Li3 O28 1.964869 1_555
Li3 O30 2.000087 1_655
Li3 O33 2.458226 1_555
H0 O2 1.035672 1_555
H0 O8 1.514207 1_555
H1 O17 1.035672 1_556
H1 O11 1.514207 1_555
H2 O22 1.035672 1_555
H2 O28 1.514207 1_555
H3 O37 1.035672 1_556
H3 O31 1.514207 1_555
O0 P0 1.593051 1_555
O0 P10 1.626499 1_545
O1 P11 1.510585 1_545
O1 V0 2.020313 1_555
O2 P1 1.564640 1_555
O3 P0 1.594718 1_555
O3 P2 1.639713 1_555
O4 P1 1.520450 1_555
O4 V0 2.015292 1_455
O5 P0 1.510966 1_555
O5 V1 2.015558 1_455
O6 P3 1.522398 1_555
O6 V0 2.041939 1_455
O7 P1 1.513175 1_555
O7 V0 2.028567 1_555
O8 P2 1.523831 1_555
O9 P3 1.541469 1_555
O9 V0 2.131970 1_555
O10 P2 1.541469 1_555
O10 V1 2.131970 1_555
O11 P3 1.523831 1_555
O12 P4 1.513175 1_555
O12 V1 2.028567 1_555
O13 P2 1.522398 1_555
O13 V1 2.041939 1_455
O14 P5 1.510966 1_555
O14 V0 2.015558 1_455
O15 P4 1.520450 1_555
O15 V1 2.015292 1_455
O16 P5 1.594718 1_555
O16 P3 1.639713 1_555
O17 P4 1.564640 1_555
O18 P6 1.510585 1_555
O18 V1 2.020313 1_555
O19 P5 1.593051 1_555
O19 P7 1.626499 1_555
O20 P6 1.593051 1_555
O20 P4 1.626499 1_555
O21 P5 1.510585 1_555
O21 V2 2.020313 1_555
O22 P7 1.564640 1_555
O23 P6 1.594718 1_555
O23 P8 1.639713 1_555
O24 P7 1.520450 1_555
O24 V2 2.015292 1_655
O25 P6 1.510966 1_555
O25 V3 2.015558 1_655
O26 P9 1.522398 1_555
O26 V2 2.041939 1_655
O27 P7 1.513175 1_555
O27 V2 2.028567 1_555
O28 P8 1.523831 1_555
O29 P9 1.541469 1_555
O29 V2 2.131970 1_555
O30 P8 1.541469 1_555
O30 V3 2.131970 1_555
O31 P9 1.523831 1_555
O32 P10 1.513175 1_555
O32 V3 2.028567 1_555
O33 P8 1.522398 1_555
O33 V3 2.041939 1_655
O34 P11 1.510966 1_555
O34 V2 2.015558 1_655
O35 P10 1.520450 1_555
O35 V3 2.015292 1_655
O36 P11 1.594718 1_555
O36 P9 1.639713 1_555
O37 P10 1.564640 1_555
O38 P0 1.510585 1_565
O38 V3 2.020313 1_555
O39 P11 1.593051 1_555
O39 P1 1.626499 1_565
