# generated using pymatgen
data_KLaSiSe4
_symmetry_space_group_name_H-M   'P 1'
_cell_length_a   7.07046100
_cell_length_b   6.89223000
_cell_length_c   9.18392289
_cell_angle_alpha   72.07586866
_cell_angle_beta   90.00000000
_cell_angle_gamma   90.00000000
_symmetry_Int_Tables_number   1
_chemical_formula_structural   KLaSiSe4
_chemical_formula_sum   'K2 La2 Si2 Se8'
_cell_volume   425.82237661
_cell_formula_units_Z   2
loop_
 _symmetry_equiv_pos_site_id
 _symmetry_equiv_pos_as_xyz
  1  'x, y, z'
loop_
 _atom_site_type_symbol
 _atom_site_label
 _atom_site_symmetry_multiplicity
 _atom_site_fract_x
 _atom_site_fract_y
 _atom_site_fract_z
 _atom_site_occupancy
  K  K0  1  0.98729200  0.73454000  0.06402400  1
  K  K1  1  0.48729200  0.26546000  0.93597600  1
  La  La0  1  0.50042900  0.23134600  0.44811800  1
  La  La1  1  0.00042900  0.76865400  0.55188200  1
  Si  Si0  1  0.46958100  0.78690300  0.31655000  1
  Si  Si1  1  0.96958100  0.21309700  0.68345000  1
  Se  Se0  1  0.46856100  0.59204300  0.15822100  1
  Se  Se1  1  0.23095200  0.02395700  0.26723200  1
  Se  Se2  1  0.73682900  0.98537200  0.28100400  1
  Se  Se3  1  0.92835600  0.40513600  0.43235600  1
  Se  Se4  1  0.42835600  0.59486400  0.56764400  1
  Se  Se5  1  0.23682900  0.01462800  0.71899600  1
  Se  Se6  1  0.73095200  0.97604300  0.73276800  1
  Se  Se7  1  0.96856100  0.40795700  0.84177900  1
loop_
_geom_bond_atom_site_label_1
_geom_bond_atom_site_label_2
_geom_bond_distance
_geom_bond_site_symmetry_2
K0 Se3 3.470420 1_555
K0 Se7 3.475321 1_554
K0 Se6 3.491965 1_554
K0 Se2 3.495166 1_555
K0 Se1 3.566675 1_665
K0 Se0 3.573374 1_655
K0 Se5 3.621478 1_664
K0 Se0 3.826458 1_555
K1 Se4 3.470420 1_555
K1 Se0 3.475321 1_556
K1 Se1 3.491965 1_556
K1 Se5 3.495166 1_555
K1 Se6 3.566675 1_545
K1 Se7 3.573374 1_555
K1 Se2 3.621478 1_546
K1 Se7 3.826458 1_455
La0 Se0 3.040626 1_555
La0 Se4 3.071608 1_555
La0 Se5 3.099405 1_555
La0 Se2 3.102393 1_545
La0 Se6 3.123382 1_545
La0 Se1 3.145579 1_555
La0 Se3 3.240904 1_555
La1 Se7 3.040626 1_455
La1 Se3 3.071608 1_455
La1 Se2 3.099405 1_455
La1 Se5 3.102393 1_565
La1 Se1 3.123382 1_565
La1 Se6 3.145579 1_455
La1 Se4 3.240904 1_555
Se0 Si0 2.262769 1_555
Se1 Si0 2.294725 1_545
Se2 Si0 2.296368 1_555
Se3 Si1 2.296934 1_555
Se4 Si0 2.296934 1_555
Se5 Si1 2.296368 1_455
Se6 Si1 2.294725 1_565
Se7 Si1 2.262769 1_555
