# generated using pymatgen
data_Li2SnP2O7
_symmetry_space_group_name_H-M   'P 1'
_cell_length_a   8.34480437
_cell_length_b   8.34480437
_cell_length_c   9.46399021
_cell_angle_alpha   65.07433450
_cell_angle_beta   65.07433450
_cell_angle_gamma   36.56661075
_symmetry_Int_Tables_number   1
_chemical_formula_structural   Li2SnP2O7
_chemical_formula_sum   'Li4 Sn2 P4 O14'
_cell_volume   351.83008159
_cell_formula_units_Z   2
loop_
 _symmetry_equiv_pos_site_id
 _symmetry_equiv_pos_as_xyz
  1  'x, y, z'
loop_
 _atom_site_type_symbol
 _atom_site_label
 _atom_site_symmetry_multiplicity
 _atom_site_fract_x
 _atom_site_fract_y
 _atom_site_fract_z
 _atom_site_occupancy
  Li  Li0  1  0.83893400  0.55269700  0.44780700  1
  Li  Li1  1  0.55269700  0.83893400  0.94780700  1
  Li  Li2  1  0.44730300  0.16106600  0.05219300  1
  Li  Li3  1  0.16106600  0.44730300  0.55219300  1
  Sn  Sn0  1  0.50000000  0.50000000  0.50000000  1
  Sn  Sn1  1  0.50000000  0.50000000  0.00000000  1
  P  P0  1  0.98557000  0.23080800  0.18183600  1
  P  P1  1  0.23080800  0.98557000  0.68183600  1
  P  P2  1  0.76919200  0.01443000  0.31816400  1
  P  P3  1  0.01443000  0.76919200  0.81816400  1
  O  O0  1  0.27605800  0.06796800  0.10812900  1
  O  O1  1  0.06796800  0.27605800  0.60812900  1
  O  O2  1  0.77962000  0.45073200  0.06430000  1
  O  O3  1  0.88710200  0.35189600  0.32366600  1
  O  O4  1  0.45073200  0.77962000  0.56430000  1
  O  O5  1  0.35189600  0.88710200  0.82366600  1
  O  O6  1  0.99795600  0.00204400  0.25000000  1
  O  O7  1  0.00204400  0.99795600  0.75000000  1
  O  O8  1  0.64810400  0.11289800  0.17633400  1
  O  O9  1  0.54926800  0.22038000  0.43570000  1
  O  O10  1  0.11289800  0.64810400  0.67633400  1
  O  O11  1  0.22038000  0.54926800  0.93570000  1
  O  O12  1  0.93203200  0.72394200  0.39187100  1
  O  O13  1  0.72394200  0.93203200  0.89187100  1
loop_
_geom_bond_atom_site_label_1
_geom_bond_atom_site_label_2
_geom_bond_distance
_geom_bond_site_symmetry_2
Li0 O1 1.920634 1_655
Li0 O12 1.929993 1_555
Li0 O4 2.047201 1_555
Li0 O3 2.128161 1_555
Li1 O0 1.920634 1_566
Li1 O13 1.929993 1_555
Li1 O2 2.047201 1_556
Li1 O5 2.128161 1_555
Li2 O13 1.920634 1_544
Li2 O0 1.929993 1_555
Li2 O11 2.047201 1_554
Li2 O8 2.128161 1_555
Li3 O12 1.920634 1_455
Li3 O1 1.929993 1_555
Li3 O9 2.047201 1_555
Li3 O10 2.128161 1_555
O0 P0 1.513831 1_455
O1 P1 1.513831 1_545
O2 P0 1.543781 1_555
O2 Sn1 2.330011 1_555
O3 P0 1.541998 1_555
O3 Sn0 2.351354 1_555
O4 P1 1.543781 1_555
O4 Sn0 2.330011 1_555
O5 P1 1.541998 1_555
O5 Sn1 2.351354 1_556
O6 P0 1.665033 1_555
O6 P2 1.665033 1_555
O7 P1 1.665033 1_555
O7 P3 1.665033 1_555
O8 P2 1.541998 1_555
O8 Sn1 2.351354 1_555
O9 P2 1.543781 1_555
O9 Sn0 2.330011 1_555
O10 P3 1.541998 1_555
O10 Sn0 2.351354 1_555
O11 P3 1.543781 1_555
O11 Sn1 2.330011 1_556
O12 P2 1.513831 1_565
O13 P3 1.513831 1_655
