# generated using pymatgen
data_SmScSi
_symmetry_space_group_name_H-M   'P 1'
_cell_length_a   4.26178200
_cell_length_b   4.26178200
_cell_length_c   8.42317297
_cell_angle_alpha   104.65390039
_cell_angle_beta   104.65390039
_cell_angle_gamma   90.00000000
_symmetry_Int_Tables_number   1
_chemical_formula_structural   SmScSi
_chemical_formula_sum   'Sm2 Sc2 Si2'
_cell_volume   142.86211625
_cell_formula_units_Z   2
loop_
 _symmetry_equiv_pos_site_id
 _symmetry_equiv_pos_as_xyz
  1  'x, y, z'
loop_
 _atom_site_type_symbol
 _atom_site_label
 _atom_site_symmetry_multiplicity
 _atom_site_fract_x
 _atom_site_fract_y
 _atom_site_fract_z
 _atom_site_occupancy
  Sm  Sm0  1  0.32293500  0.32293500  0.64587000  1
  Sm  Sm1  1  0.67706500  0.67706500  0.35413000  1
  Sc  Sc0  1  0.00000000  0.50000000  0.00000000  1
  Sc  Sc1  1  0.50000000  0.00000000  0.00000000  1
  Si  Si0  1  0.87597800  0.87597800  0.75195600  1
  Si  Si1  1  0.12402200  0.12402200  0.24804400  1
loop_
_geom_bond_atom_site_label_1
_geom_bond_atom_site_label_2
_geom_bond_distance
_geom_bond_site_symmetry_2
Sc0 Si1 2.889153 1_555
Sc0 Si0 2.889153 1_444
Sc0 Si1 2.889153 1_565
Sc0 Si0 2.889153 1_454
Sc1 Si1 2.889153 1_555
Sc1 Si0 2.889153 1_444
Sc1 Si1 2.889153 1_655
Sc1 Si0 2.889153 1_544
Si0 Sm0 3.126927 1_565
Si0 Sm0 3.126927 1_665
Si0 Sm0 3.126927 1_655
Si0 Sm0 3.126927 1_555
Si0 Sm1 3.129160 1_555
Si1 Sm1 3.126927 1_455
Si1 Sm1 3.126927 1_445
Si1 Sm1 3.126927 1_545
Si1 Sm1 3.126927 1_555
Si1 Sm0 3.129160 1_555
