# generated using pymatgen
data_TcOs3
_symmetry_space_group_name_H-M   'P 1'
_cell_length_a   5.49494077
_cell_length_b   5.49493913
_cell_length_c   4.32279600
_cell_angle_alpha   90.00000000
_cell_angle_beta   90.00000000
_cell_angle_gamma   119.99999780
_symmetry_Int_Tables_number   1
_chemical_formula_structural   TcOs3
_chemical_formula_sum   'Tc2 Os6'
_cell_volume   113.03717190
_cell_formula_units_Z   2
loop_
 _symmetry_equiv_pos_site_id
 _symmetry_equiv_pos_as_xyz
  1  'x, y, z'
loop_
 _atom_site_type_symbol
 _atom_site_label
 _atom_site_symmetry_multiplicity
 _atom_site_fract_x
 _atom_site_fract_y
 _atom_site_fract_z
 _atom_site_occupancy
  Tc  Tc0  1  0.33333300  0.66666600  0.75000100  1
  Tc  Tc1  1  0.66666800  0.33333400  0.25000100  1
  Os  Os0  1  0.16731348  0.33462696  0.25000100  1
  Os  Os1  1  0.66537304  0.83268852  0.25000100  1
  Os  Os2  1  0.16731348  0.83268852  0.25000100  1
  Os  Os3  1  0.83268752  0.66537204  0.75000100  1
  Os  Os4  1  0.33462796  0.16731348  0.75000100  1
  Os  Os5  1  0.83268752  0.16731348  0.75000100  1
loop_
_geom_bond_atom_site_label_1
_geom_bond_atom_site_label_2
_geom_bond_distance
_geom_bond_site_symmetry_2
Os0 Tc0 2.677375 1_555
Os0 Tc0 2.677375 1_554
Os0 Os5 2.684659 1_454
Os0 Os5 2.684659 1_455
Os0 Os4 2.684664 1_554
Os0 Os4 2.684664 1_555
Os0 Os1 2.736813 1_555
Os0 Os2 2.736818 1_555
Os0 Tc1 2.747472 1_455
Os0 Tc1 2.747483 1_555
Os0 Os2 2.758121 1_545
Os0 Os1 2.758127 1_445
Os1 Tc0 2.677378 1_554
Os1 Tc0 2.677378 1_555
Os1 Os5 2.684656 1_564
Os1 Os5 2.684656 1_565
Os1 Os3 2.684673 1_554
Os1 Os3 2.684673 1_555
Os1 Os2 2.736808 1_555
Os1 Tc1 2.747465 1_565
Os1 Tc1 2.747487 1_555
Os1 Os2 2.758133 1_655
Os2 Tc0 2.677383 1_554
Os2 Tc0 2.677383 1_555
Os2 Os4 2.684656 1_564
Os2 Os4 2.684656 1_565
Os2 Os3 2.684659 1_454
Os2 Os3 2.684659 1_455
Os2 Tc1 2.747477 1_565
Os2 Tc1 2.747477 1_455
Os3 Tc1 2.677372 1_556
Os3 Tc1 2.677372 1_555
Os3 Os5 2.736801 1_555
Os3 Os4 2.736805 1_555
Os3 Tc0 2.747469 1_655
Os3 Tc0 2.747486 1_555
Os3 Os4 2.758135 1_665
Os3 Os5 2.758138 1_565
Os4 Tc1 2.677378 1_556
Os4 Tc1 2.677378 1_555
Os4 Os5 2.736808 1_555
Os4 Tc0 2.747476 1_545
Os4 Tc0 2.747476 1_555
Os4 Os5 2.758133 1_455
Os5 Tc1 2.677378 1_556
Os5 Tc1 2.677378 1_555
Os5 Tc0 2.747471 1_655
Os5 Tc0 2.747482 1_545
