# generated using pymatgen
data_LiTiV2O6
_symmetry_space_group_name_H-M   'P 1'
_cell_length_a   3.02463457
_cell_length_b   12.54719310
_cell_length_c   6.02511660
_cell_angle_alpha   102.82076524
_cell_angle_beta   89.97221962
_cell_angle_gamma   90.01686328
_symmetry_Int_Tables_number   1
_chemical_formula_structural   LiTiV2O6
_chemical_formula_sum   'Li2 Ti2 V4 O12'
_cell_volume   222.95655124
_cell_formula_units_Z   2
loop_
 _symmetry_equiv_pos_site_id
 _symmetry_equiv_pos_as_xyz
  1  'x, y, z'
loop_
 _atom_site_type_symbol
 _atom_site_label
 _atom_site_symmetry_multiplicity
 _atom_site_fract_x
 _atom_site_fract_y
 _atom_site_fract_z
 _atom_site_occupancy
  Li  Li0  1  0.49810400  0.16709100  0.83421500  1
  Li  Li1  1  0.99810600  0.66707100  0.83411100  1
  Ti  Ti0  1  0.00032400  0.34945100  0.63122700  1
  Ti  Ti1  1  0.50028100  0.84955200  0.63130500  1
  V  V0  1  0.00054500  0.98691800  0.02638100  1
  V  V1  1  0.49987000  0.16242500  0.33808700  1
  V  V2  1  0.50052300  0.48686300  0.02638100  1
  V  V3  1  0.99985600  0.66266400  0.33790700  1
  O  O0  1  0.00076900  0.49676000  0.79595700  1
  O  O1  1  0.50078200  0.99677400  0.79594100  1
  O  O2  1  0.50029400  0.33384100  0.43381400  1
  O  O3  1  0.00043800  0.83394200  0.43385400  1
  O  O4  1  0.99993000  0.14663200  0.09749000  1
  O  O5  1  0.49993200  0.64666600  0.09749300  1
  O  O6  1  0.50017200  0.34060300  0.87362300  1
  O  O7  1  0.00011000  0.84060400  0.87369700  1
  O  O8  1  0.99975400  0.18457900  0.57358800  1
  O  O9  1  0.49980400  0.68456300  0.57335900  1
  O  O10  1  0.50019400  0.99758200  0.23379800  1
  O  O11  1  0.00020900  0.49755400  0.23373100  1
loop_
_geom_bond_atom_site_label_1
_geom_bond_atom_site_label_2
_geom_bond_distance
_geom_bond_site_symmetry_2
Li0 O1 2.097931 1_545
Li0 O6 2.136987 1_555
Li0 O8 2.222939 1_455
Li0 O8 2.228598 1_555
Li0 O4 2.242928 1_456
Li0 O4 2.251498 1_556
Li1 O0 2.097940 1_655
Li1 O7 2.137125 1_655
Li1 O9 2.223402 1_555
Li1 O9 2.229257 1_655
Li1 O5 2.243216 1_556
Li1 O5 2.251786 1_656
O0 Ti0 1.893993 1_555
O0 V2 2.075186 1_556
O0 V2 2.075236 1_456
O1 Ti1 1.892880 1_555
O1 V0 2.075164 1_656
O1 V0 2.075175 1_556
O2 Ti0 1.906565 1_555
O2 Ti0 1.907532 1_655
O2 V1 2.099528 1_555
O3 Ti1 1.907151 1_455
O3 Ti1 1.907221 1_555
O3 V3 2.097923 1_455
O4 V0 1.954070 1_645
O4 V1 2.073378 1_555
O4 V1 2.074054 1_655
O5 V2 1.955161 1_555
O5 V3 2.072516 1_455
O5 V3 2.073119 1_555
O6 V2 1.861529 1_556
O6 Ti0 2.122143 1_655
O6 Ti0 2.122543 1_555
O7 V0 1.862000 1_556
O7 Ti1 2.122424 1_555
O7 Ti1 2.122743 1_455
O8 Ti0 2.020201 1_655
O8 V1 2.049851 1_655
O8 V1 2.050228 1_555
O9 Ti1 2.021546 1_555
O9 V3 2.049573 1_555
O9 V3 2.050236 1_455
O10 V0 1.947069 1_555
O10 V0 1.947838 1_655
O10 V1 2.023853 1_565
O11 V2 1.946878 1_455
O11 V2 1.947473 1_555
O11 V3 2.026990 1_455
