# generated using pymatgen
data_LiAg3
_symmetry_space_group_name_H-M   'P 1'
_cell_length_a   4.95795191
_cell_length_b   4.95795191
_cell_length_c   4.95795191
_cell_angle_alpha   131.86493592
_cell_angle_beta   131.86493592
_cell_angle_gamma   70.44242974
_symmetry_Int_Tables_number   1
_chemical_formula_structural   LiAg3
_chemical_formula_sum   'Li1 Ag3'
_cell_volume   66.23307127
_cell_formula_units_Z   1
loop_
 _symmetry_equiv_pos_site_id
 _symmetry_equiv_pos_as_xyz
  1  'x, y, z'
loop_
 _atom_site_type_symbol
 _atom_site_label
 _atom_site_symmetry_multiplicity
 _atom_site_fract_x
 _atom_site_fract_y
 _atom_site_fract_z
 _atom_site_occupancy
  Li  Li0  1  -0.00000000  -0.00000000  -0.00000000  1
  Ag  Ag0  1  0.74999900  0.25000000  0.49999900  1
  Ag  Ag1  1  0.25000000  0.74999900  0.49999900  1
  Ag  Ag2  1  0.50000000  0.50000000  -0.00000000  1
loop_
_geom_bond_atom_site_label_1
_geom_bond_atom_site_label_2
_geom_bond_distance
_geom_bond_site_symmetry_2
Ag0 Li0 2.861710 1_555
Ag0 Li0 2.861712 1_655
Ag0 Li0 2.861712 1_666
Ag0 Li0 2.861715 1_656
Ag1 Li0 2.861710 1_555
Ag1 Li0 2.861712 1_565
Ag1 Li0 2.861712 1_666
Ag1 Li0 2.861715 1_566
Ag2 Li0 2.859424 1_554
Ag2 Li0 2.859424 1_666
Ag2 Li0 2.859424 1_655
Ag2 Li0 2.859424 1_565
