# generated using pymatgen
data_Cs2CoH12(SO7)2
_symmetry_space_group_name_H-M   'P 1'
_cell_length_a   12.97873900
_cell_length_b   6.43157300
_cell_length_c   9.36622600
_cell_angle_alpha   73.06266179
_cell_angle_beta   90.00000000
_cell_angle_gamma   90.00000000
_symmetry_Int_Tables_number   1
_chemical_formula_structural   Cs2CoH12(SO7)2
_chemical_formula_sum   'Cs4 Co2 H24 S4 O28'
_cell_volume   747.92074480
_cell_formula_units_Z   2
loop_
 _symmetry_equiv_pos_site_id
 _symmetry_equiv_pos_as_xyz
  1  'x, y, z'
loop_
 _atom_site_type_symbol
 _atom_site_label
 _atom_site_symmetry_multiplicity
 _atom_site_fract_x
 _atom_site_fract_y
 _atom_site_fract_z
 _atom_site_occupancy
  Cs  Cs0  1  0.14358800  0.14857800  0.63061000  1
  Cs  Cs1  1  0.64358800  0.85142200  0.86939000  1
  Cs  Cs2  1  0.85641200  0.85142200  0.36939000  1
  Cs  Cs3  1  0.35641200  0.14857800  0.13061000  1
  Co  Co0  1  0.50000000  0.50000000  0.50000000  1
  Co  Co1  1  0.00000000  0.50000000  0.00000000  1
  H  H0  1  0.40050500  0.18022300  0.71665100  1
  H  H1  1  0.90050500  0.81977700  0.78334900  1
  H  H2  1  0.59949500  0.81977700  0.28334900  1
  H  H3  1  0.09949500  0.18022300  0.21665100  1
  H  H4  1  0.37024500  0.41538200  0.73783500  1
  H  H5  1  0.87024500  0.58461800  0.76216500  1
  H  H6  1  0.62975500  0.58461800  0.26216500  1
  H  H7  1  0.12975500  0.41538200  0.23783500  1
  H  H8  1  0.40254600  0.56938900  0.22736300  1
  H  H9  1  0.90254600  0.43061100  0.27263700  1
  H  H10  1  0.59745400  0.43061100  0.77263700  1
  H  H11  1  0.09745400  0.56938900  0.72736300  1
  H  H12  1  0.31512500  0.51611500  0.35051700  1
  H  H13  1  0.81512500  0.48388500  0.14948300  1
  H  H14  1  0.68487500  0.48388500  0.64948300  1
  H  H15  1  0.18487500  0.51611500  0.85051700  1
  H  H16  1  0.55814500  0.16871800  0.39782400  1
  H  H17  1  0.05814500  0.83128200  0.10217600  1
  H  H18  1  0.44185500  0.83128200  0.60217600  1
  H  H19  1  0.94185500  0.16871800  0.89782400  1
  H  H20  1  0.63836500  0.18727300  0.51966900  1
  H  H21  1  0.13836500  0.81272700  0.98033100  1
  H  H22  1  0.36163500  0.81272700  0.48033100  1
  H  H23  1  0.86163500  0.18727300  0.01966900  1
  S  S0  1  0.35261400  0.75998000  0.89826900  1
  S  S1  1  0.85261400  0.24002000  0.60173100  1
  S  S2  1  0.64738600  0.24002000  0.10173100  1
  S  S3  1  0.14738600  0.75998000  0.39826900  1
  O  O0  1  0.26238100  0.89224200  0.91831500  1
  O  O1  1  0.76238100  0.10775800  0.58168500  1
  O  O2  1  0.73761900  0.10775800  0.08168500  1
  O  O3  1  0.23761900  0.89224200  0.41831500  1
  O  O4  1  0.41687800  0.69599200  0.03544700  1
  O  O5  1  0.91687800  0.30400800  0.46455300  1
  O  O6  1  0.58312200  0.30400800  0.96455300  1
  O  O7  1  0.08312200  0.69599200  0.53544700  1
  O  O8  1  0.41754400  0.89595900  0.77219400  1
  O  O9  1  0.91754400  0.10404100  0.72780600  1
  O  O10  1  0.58245600  0.10404100  0.22780600  1
  O  O11  1  0.08245600  0.89595900  0.27219400  1
  O  O12  1  0.31518600  0.56168800  0.85985400  1
  O  O13  1  0.81518600  0.43831200  0.64014600  1
  O  O14  1  0.68481400  0.43831200  0.14014600  1
  O  O15  1  0.18481400  0.56168800  0.35985400  1
  O  O16  1  0.38997900  0.33769000  0.66488000  1
  O  O17  1  0.88997900  0.66231000  0.83512000  1
  O  O18  1  0.61002100  0.66231000  0.33512000  1
  O  O19  1  0.11002100  0.33769000  0.16488000  1
  O  O20  1  0.38869200  0.48530500  0.33276000  1
  O  O21  1  0.88869200  0.51469500  0.16724000  1
  O  O22  1  0.61130800  0.51469500  0.66724000  1
  O  O23  1  0.11130800  0.48530500  0.83276000  1
  O  O24  1  0.56394300  0.20560900  0.49306100  1
  O  O25  1  0.06394300  0.79439100  0.00693900  1
  O  O26  1  0.43605700  0.79439100  0.50693900  1
  O  O27  1  0.93605700  0.20560900  0.99306100  1
loop_
_geom_bond_atom_site_label_1
_geom_bond_atom_site_label_2
_geom_bond_distance
_geom_bond_site_symmetry_2
Cs0 O9 3.060368 1_455
Cs0 O0 3.125394 1_545
Cs0 O15 3.138615 1_555
Cs0 H11 3.151790 1_555
Cs0 O3 3.173513 1_545
Cs0 O23 3.292378 1_555
Cs0 O5 3.342190 1_455
Cs0 H21 3.358163 1_545
Cs0 O7 3.375646 1_545
Cs0 H0 3.450369 1_555
Cs0 O7 3.460847 1_555
Cs0 O16 3.469303 1_555
Cs1 O8 3.060368 1_555
Cs1 O1 3.125394 1_565
Cs1 O14 3.138615 1_556
Cs1 H10 3.151790 1_555
Cs1 O2 3.173513 1_566
Cs1 O22 3.292378 1_555
Cs1 O4 3.342190 1_556
Cs1 H20 3.358163 1_565
Cs1 O6 3.375646 1_565
Cs1 H1 3.450369 1_555
Cs1 O6 3.460847 1_555
Cs1 O17 3.469303 1_555
Cs2 O11 3.060368 1_655
Cs2 O2 3.125394 1_565
Cs2 O13 3.138615 1_555
Cs2 H9 3.151790 1_555
Cs2 O1 3.173513 1_565
Cs2 O21 3.292378 1_555
Cs2 O7 3.342190 1_655
Cs2 H23 3.358163 1_565
Cs2 O5 3.375646 1_565
Cs2 H2 3.450369 1_555
Cs2 O5 3.460847 1_555
Cs2 O18 3.469303 1_555
Cs3 O10 3.060368 1_555
Cs3 O3 3.125394 1_545
Cs3 O12 3.138615 1_554
Cs3 H8 3.151790 1_555
Cs3 O0 3.173513 1_544
Cs3 O20 3.292378 1_555
Cs3 O6 3.342190 1_554
Cs3 H22 3.358163 1_545
Cs3 O4 3.375646 1_545
Cs3 H3 3.450369 1_555
Cs3 O4 3.460847 1_555
Cs3 O19 3.469303 1_555
Co0 O26 2.085572 1_555
Co0 O24 2.085572 1_555
Co0 O16 2.138765 1_555
Co0 O18 2.138765 1_555
Co0 O20 2.153091 1_555
Co0 O22 2.153091 1_555
Co1 O25 2.085572 1_555
Co1 O27 2.085572 1_454
Co1 O19 2.138765 1_555
Co1 O17 2.138765 1_454
Co1 O21 2.153091 1_455
Co1 O23 2.153091 1_554
H0 O16 0.996665 1_555
H1 O17 0.996665 1_555
H2 O18 0.996665 1_555
H3 O19 0.996665 1_555
H4 O16 0.990524 1_555
H5 O17 0.990524 1_555
H6 O18 0.990524 1_555
H7 O19 0.990524 1_555
H8 O20 0.994105 1_555
H9 O21 0.994105 1_555
H10 O22 0.994105 1_555
H11 O23 0.994105 1_555
H12 O20 0.998892 1_555
H13 O21 0.998892 1_555
H14 O22 0.998892 1_555
H15 O23 0.998892 1_555
H16 O24 0.990433 1_555
H17 O25 0.990433 1_555
H18 O26 0.990433 1_555
H19 O27 0.990433 1_555
H20 O24 0.995923 1_555
H21 O25 0.995923 1_556
H22 O26 0.995923 1_555
H23 O27 0.995923 1_554
O0 S0 1.491114 1_555
O1 S1 1.491114 1_555
O2 S2 1.491114 1_555
O3 S3 1.491114 1_555
O4 S0 1.485854 1_554
O5 S1 1.485854 1_555
O6 S2 1.485854 1_556
O7 S3 1.485854 1_555
O8 S0 1.505887 1_555
O9 S1 1.505887 1_555
O10 S2 1.505887 1_555
O11 S3 1.505887 1_555
O12 S0 1.503082 1_555
O13 S1 1.503082 1_555
O14 S2 1.503082 1_555
O15 S3 1.503082 1_555
