# generated using pymatgen
data_YAgHg2
_symmetry_space_group_name_H-M   'P 1'
_cell_length_a   4.98299299
_cell_length_b   4.98299153
_cell_length_c   4.98299079
_cell_angle_alpha   59.99994630
_cell_angle_beta   59.99992691
_cell_angle_gamma   59.99995123
_symmetry_Int_Tables_number   1
_chemical_formula_structural   YAgHg2
_chemical_formula_sum   'Y1 Ag1 Hg2'
_cell_volume   87.48929879
_cell_formula_units_Z   1
loop_
 _symmetry_equiv_pos_site_id
 _symmetry_equiv_pos_as_xyz
  1  'x, y, z'
loop_
 _atom_site_type_symbol
 _atom_site_label
 _atom_site_symmetry_multiplicity
 _atom_site_fract_x
 _atom_site_fract_y
 _atom_site_fract_z
 _atom_site_occupancy
  Y  Y0  1  0.75000000  0.75000000  0.75000000  1
  Ag  Ag0  1  0.25000000  0.25000000  0.25000000  1
  Hg  Hg0  1  0.00000000  0.00000000  0.00000000  1
  Hg  Hg1  1  0.50000000  0.50000000  0.50000000  1
loop_
_geom_bond_atom_site_label_1
_geom_bond_atom_site_label_2
_geom_bond_distance
_geom_bond_site_symmetry_2
Ag0 Hg0 3.051444 1_556
Ag0 Hg1 3.051444 1_554
Ag0 Hg1 3.051445 1_545
Ag0 Hg0 3.051445 1_565
Ag0 Hg1 3.051445 1_455
Ag0 Hg0 3.051445 1_655
Ag0 Hg0 3.051448 1_555
Ag0 Hg1 3.051448 1_555
Ag0 Y0 3.523505 1_455
Ag0 Y0 3.523505 1_544
Ag0 Y0 3.523506 1_445
Ag0 Y0 3.523506 1_554
Ag0 Y0 3.523507 1_454
Ag0 Y0 3.523507 1_545
Hg0 Y0 3.051444 1_445
Hg0 Y0 3.051445 1_454
Hg0 Y0 3.051445 1_544
Hg0 Y0 3.051448 1_444
Hg1 Y0 3.051444 1_554
Hg1 Y0 3.051445 1_545
Hg1 Y0 3.051445 1_455
Hg1 Y0 3.051448 1_555
