# generated using pymatgen
data_ReRh3
_symmetry_space_group_name_H-M   'P 1'
_cell_length_a   5.45045720
_cell_length_b   5.45055906
_cell_length_c   4.33351894
_cell_angle_alpha   89.99956930
_cell_angle_beta   90.00042614
_cell_angle_gamma   120.00342167
_symmetry_Int_Tables_number   1
_chemical_formula_structural   ReRh3
_chemical_formula_sum   'Re2 Rh6'
_cell_volume   111.48856846
_cell_formula_units_Z   2
loop_
 _symmetry_equiv_pos_site_id
 _symmetry_equiv_pos_as_xyz
  1  'x, y, z'
loop_
 _atom_site_type_symbol
 _atom_site_label
 _atom_site_symmetry_multiplicity
 _atom_site_fract_x
 _atom_site_fract_y
 _atom_site_fract_z
 _atom_site_occupancy
  Re  Re0  1  0.33339398  0.66664624  0.74999822  1
  Re  Re1  1  0.66661002  0.33335876  0.25000178  1
  Rh  Rh0  1  0.16855668  0.33704453  0.25000353  1
  Rh  Rh1  1  0.66302662  0.83149092  0.25000289  1
  Rh  Rh2  1  0.16863466  0.83137512  0.24999067  1
  Rh  Rh3  1  0.83144532  0.66295547  0.74999647  1
  Rh  Rh4  1  0.33697238  0.16850608  0.74999811  1
  Rh  Rh5  1  0.83136334  0.16862388  0.75000933  1
loop_
_geom_bond_atom_site_label_1
_geom_bond_atom_site_label_2
_geom_bond_distance
_geom_bond_site_symmetry_2
Re0 Rh2 2.667158 1_556
Re0 Rh2 2.667189 1_555
Re0 Rh0 2.667434 1_555
Re0 Rh0 2.667461 1_556
Re0 Rh1 2.667504 1_555
Re0 Rh1 2.667527 1_556
Re0 Rh3 2.724723 1_555
Re0 Rh4 2.724948 1_555
Re0 Rh5 2.725035 1_565
Re0 Rh5 2.725323 1_455
Re0 Rh4 2.725716 1_565
Re0 Rh3 2.725846 1_455
Re1 Rh5 2.667158 1_554
Re1 Rh5 2.667189 1_555
Re1 Rh3 2.667420 1_555
Re1 Rh3 2.667447 1_554
Re1 Rh4 2.667522 1_555
Re1 Rh4 2.667537 1_554
Re1 Rh0 2.724720 1_555
Re1 Rh1 2.724918 1_555
Re1 Rh2 2.725067 1_545
Re1 Rh2 2.725290 1_655
Re1 Rh1 2.725746 1_545
Re1 Rh0 2.725849 1_655
Rh0 Rh4 2.687846 1_555
Rh0 Rh4 2.687906 1_554
Rh0 Rh5 2.688462 1_454
Rh0 Rh5 2.688513 1_455
Rh0 Rh2 2.694166 1_555
Rh0 Rh1 2.694909 1_555
Rh0 Rh1 2.755317 1_445
Rh0 Rh2 2.756394 1_545
Rh1 Rh3 2.687843 1_555
Rh1 Rh3 2.687910 1_554
Rh1 Rh5 2.688308 1_564
Rh1 Rh5 2.688364 1_565
Rh1 Rh2 2.694347 1_555
Rh1 Rh2 2.756111 1_655
Rh2 Rh4 2.688299 1_564
Rh2 Rh4 2.688362 1_565
Rh2 Rh3 2.688450 1_454
Rh2 Rh3 2.688502 1_455
Rh3 Rh5 2.694160 1_555
Rh3 Rh4 2.694925 1_555
Rh3 Rh4 2.755301 1_665
Rh3 Rh5 2.756399 1_565
Rh4 Rh5 2.694336 1_555
Rh4 Rh5 2.756122 1_455
