# generated using pymatgen
data_TaNi3
_symmetry_space_group_name_H-M   'P 1'
_cell_length_a   4.20694764
_cell_length_b   4.50834174
_cell_length_c   5.06736105
_cell_angle_alpha   90.00000000
_cell_angle_beta   90.00000000
_cell_angle_gamma   90.00000000
_symmetry_Int_Tables_number   1
_chemical_formula_structural   TaNi3
_chemical_formula_sum   'Ta2 Ni6'
_cell_volume   96.10938198
_cell_formula_units_Z   2
loop_
 _symmetry_equiv_pos_site_id
 _symmetry_equiv_pos_as_xyz
  1  'x, y, z'
loop_
 _atom_site_type_symbol
 _atom_site_label
 _atom_site_symmetry_multiplicity
 _atom_site_fract_x
 _atom_site_fract_y
 _atom_site_fract_z
 _atom_site_occupancy
  Ta  Ta0  1  0.25000000  0.65027802  0.25000000  1
  Ta  Ta1  1  0.75000000  0.34972198  0.75000000  1
  Ni  Ni0  1  0.75000000  0.31845555  0.25000000  1
  Ni  Ni1  1  0.25000000  0.68154445  0.75000000  1
  Ni  Ni2  1  0.25000000  0.15786750  0.49935446  1
  Ni  Ni3  1  0.75000000  0.84213250  0.50064554  1
  Ni  Ni4  1  0.25000000  0.15786750  0.00064454  1
  Ni  Ni5  1  0.75000000  0.84213250  0.99935446  1
loop_
_geom_bond_atom_site_label_1
_geom_bond_atom_site_label_2
_geom_bond_distance
_geom_bond_site_symmetry_2
Ni0 Ni5 2.494920 1_544
Ni0 Ni3 2.494920 1_545
Ni0 Ta1 2.537599 1_555
Ni0 Ta1 2.537599 1_554
Ni0 Ni2 2.558391 1_655
Ni0 Ni2 2.558391 1_555
Ni0 Ni4 2.558393 1_655
Ni0 Ni4 2.558393 1_555
Ni0 Ta0 2.581187 1_555
Ni0 Ta0 2.581187 1_655
Ni0 Ni5 2.680877 1_554
Ni0 Ni3 2.680877 1_555
Ni1 Ni4 2.494917 1_566
Ni1 Ni2 2.494920 1_565
Ni1 Ta0 2.537599 1_555
Ni1 Ta0 2.537599 1_556
Ni1 Ni3 2.558391 1_455
Ni1 Ni3 2.558391 1_555
Ni1 Ni5 2.558391 1_455
Ni1 Ni5 2.558391 1_555
Ni1 Ta1 2.581187 1_455
Ni1 Ta1 2.581187 1_555
Ni1 Ni4 2.680875 1_556
Ni1 Ni2 2.680877 1_555
Ni2 Ni4 2.527143 1_555
Ni2 Ni3 2.539848 1_445
Ni2 Ni3 2.539848 1_545
Ni2 Ni4 2.540218 1_556
Ni2 Ta0 2.554370 1_555
Ni2 Ta1 2.604979 1_555
Ni2 Ta1 2.604979 1_455
Ni2 Ta0 2.614062 1_545
Ni3 Ni5 2.527138 1_555
Ni3 Ni5 2.540223 1_554
Ni3 Ta1 2.554370 1_555
Ni3 Ta0 2.604979 1_655
Ni3 Ta0 2.604979 1_555
Ni3 Ta1 2.614062 1_565
Ni4 Ni5 2.539848 1_544
Ni4 Ni5 2.539848 1_444
Ni4 Ta0 2.554373 1_555
Ni4 Ta1 2.604977 1_554
Ni4 Ta1 2.604977 1_454
Ni4 Ta0 2.614065 1_545
Ni5 Ta1 2.554370 1_555
Ni5 Ta0 2.604979 1_556
Ni5 Ta0 2.604979 1_656
Ni5 Ta1 2.614062 1_565
