# generated using pymatgen
data_Mn12O5F19
_symmetry_space_group_name_H-M   'P 1'
_cell_length_a   4.90827800
_cell_length_b   5.88737689
_cell_length_c   15.82534963
_cell_angle_alpha   91.79028746
_cell_angle_beta   90.21903393
_cell_angle_gamma   92.31040228
_symmetry_Int_Tables_number   1
_chemical_formula_structural   Mn12O5F19
_chemical_formula_sum   'Mn12 O5 F19'
_cell_volume   456.70256790
_cell_formula_units_Z   1
loop_
 _symmetry_equiv_pos_site_id
 _symmetry_equiv_pos_as_xyz
  1  'x, y, z'
loop_
 _atom_site_type_symbol
 _atom_site_label
 _atom_site_symmetry_multiplicity
 _atom_site_fract_x
 _atom_site_fract_y
 _atom_site_fract_z
 _atom_site_occupancy
  Mn  Mn0  1  0.99487600  0.14279700  0.57687700  1
  Mn  Mn1  1  0.00667000  0.85339600  0.75550200  1
  Mn  Mn2  1  0.03095700  0.16915000  0.91844300  1
  Mn  Mn3  1  0.95417600  0.19980700  0.24379500  1
  Mn  Mn4  1  0.98165600  0.82547600  0.41272600  1
  Mn  Mn5  1  0.00826600  0.83607200  0.08589500  1
  Mn  Mn6  1  0.51000700  0.34682100  0.41493800  1
  Mn  Mn7  1  0.49762000  0.34799400  0.08215700  1
  Mn  Mn8  1  0.48185200  0.32051900  0.75033500  1
  Mn  Mn9  1  0.48989200  0.64480600  0.91699200  1
  Mn  Mn10  1  0.52269400  0.68041400  0.58186900  1
  Mn  Mn11  1  0.51451200  0.64608900  0.25400600  1
  O  O0  1  0.79341800  0.88663700  0.52041900  1
  O  O1  1  0.71748900  0.60695900  0.35794200  1
  O  O2  1  0.69738100  0.40818700  0.18829900  1
  O  O3  1  0.29284500  0.37425500  0.97704400  1
  O  O4  1  0.21541200  0.11682700  0.81358500  1
  F  F0  1  0.76385200  0.10259000  0.68951300  1
  F  F1  1  0.76370700  0.10974000  0.35739100  1
  F  F2  1  0.79621600  0.12584600  0.02493900  1
  F  F3  1  0.77014500  0.89624300  0.86986100  1
  F  F4  1  0.76011900  0.90137400  0.19161300  1
  F  F5  1  0.74035100  0.39194100  0.85888300  1
  F  F6  1  0.72954000  0.61322300  0.69877700  1
  F  F7  1  0.73404900  0.38401800  0.52976700  1
  F  F8  1  0.72816900  0.60598400  0.02984200  1
  F  F9  1  0.26758000  0.61136600  0.80229600  1
  F  F10  1  0.26323900  0.38126100  0.63308000  1
  F  F11  1  0.26915700  0.60673000  0.47435100  1
  F  F12  1  0.27466000  0.62561100  0.14873500  1
  F  F13  1  0.25367400  0.37608700  0.30945100  1
  F  F14  1  0.23581200  0.10485600  0.46538000  1
  F  F15  1  0.23710800  0.89798400  0.64157800  1
  F  F16  1  0.23724700  0.87670900  0.97657100  1
  F  F17  1  0.23649300  0.12781200  0.13938500  1
  F  F18  1  0.22915600  0.85441700  0.30775800  1
loop_
_geom_bond_atom_site_label_1
_geom_bond_atom_site_label_2
_geom_bond_distance
_geom_bond_site_symmetry_2
Mn0 O0 1.959401 1_545
Mn1 O4 2.018808 1_565
Mn2 O4 1.915790 1_555
Mn2 O3 1.940679 1_555
Mn3 O2 2.012106 1_555
Mn4 O1 1.968532 1_555
Mn4 O0 1.971897 1_555
Mn6 O1 2.040549 1_555
Mn7 O3 1.953713 1_554
Mn7 O2 1.957201 1_555
Mn8 O4 2.027023 1_555
Mn9 O3 2.086404 1_555
Mn10 O0 2.034458 1_555
Mn11 O1 1.944407 1_555
Mn11 O2 1.966246 1_555
F0 Mn0 2.130570 1_555
F0 Mn8 2.136507 1_555
F0 Mn1 2.211461 1_645
F1 Mn6 2.097039 1_555
F1 Mn3 2.102218 1_555
F1 Mn4 2.222792 1_545
F2 Mn2 2.061764 1_654
F2 Mn7 2.183826 1_555
F2 Mn5 2.272134 1_645
F3 Mn9 2.133644 1_555
F3 Mn2 2.135606 1_665
F3 Mn1 2.167444 1_655
F4 Mn5 2.107943 1_655
F4 Mn3 2.108217 1_565
F4 Mn11 2.154720 1_555
F5 Mn8 2.152367 1_555
F5 Mn9 2.154950 1_555
F5 Mn2 2.204816 1_655
F6 Mn1 2.100411 1_655
F6 Mn10 2.161917 1_555
F6 Mn8 2.244962 1_555
F7 Mn0 2.101679 1_555
F7 Mn6 2.121297 1_555
F7 Mn10 2.205364 1_555
F8 Mn7 2.054289 1_555
F8 Mn5 2.068177 1_655
F8 Mn9 2.154189 1_554
F9 Mn1 2.103469 1_555
F9 Mn9 2.114053 1_555
F9 Mn8 2.185899 1_555
F10 Mn0 2.064229 1_455
F10 Mn8 2.186247 1_555
F10 Mn10 2.301457 1_555
F11 Mn10 2.127462 1_555
F11 Mn6 2.165050 1_555
F11 Mn4 2.194402 1_455
F12 Mn11 2.033932 1_555
F12 Mn5 2.105128 1_555
F12 Mn7 2.241545 1_555
F13 Mn3 2.028685 1_455
F13 Mn6 2.102099 1_555
F13 Mn11 2.206234 1_555
F14 Mn6 2.098207 1_555
F14 Mn0 2.138786 1_455
F14 Mn4 2.167236 1_445
F15 Mn10 2.139566 1_555
F15 Mn1 2.149376 1_555
F15 Mn0 2.181838 1_465
F16 Mn5 2.081504 1_556
F16 Mn9 2.087047 1_555
F16 Mn2 2.251245 1_565
F17 Mn7 2.022764 1_555
F17 Mn5 2.160620 1_545
F17 Mn3 2.202515 1_455
F18 Mn11 2.066890 1_555
F18 Mn4 2.068968 1_455
