# generated using pymatgen
data_NaNd(SO4)2
_symmetry_space_group_name_H-M   'P 1'
_cell_length_a   6.41585200
_cell_length_b   6.73367656
_cell_length_c   7.06954389
_cell_angle_alpha   86.57659561
_cell_angle_beta   88.81022501
_cell_angle_gamma   78.80426151
_symmetry_Int_Tables_number   1
_chemical_formula_structural   NaNd(SO4)2
_chemical_formula_sum   'Na2 Nd2 S4 O16'
_cell_volume   299.06032962
_cell_formula_units_Z   2
loop_
 _symmetry_equiv_pos_site_id
 _symmetry_equiv_pos_as_xyz
  1  'x, y, z'
loop_
 _atom_site_type_symbol
 _atom_site_label
 _atom_site_symmetry_multiplicity
 _atom_site_fract_x
 _atom_site_fract_y
 _atom_site_fract_z
 _atom_site_occupancy
  Na  Na0  1  0.08839900  0.72312400  0.65498300  1
  Na  Na1  1  0.91160100  0.27687600  0.34501700  1
  Nd  Nd0  1  0.62173400  0.22868300  0.82472700  1
  Nd  Nd1  1  0.37826600  0.77131700  0.17527300  1
  S  S0  1  0.12355300  0.20469500  0.83899000  1
  S  S1  1  0.87644700  0.79530500  0.16101000  1
  S  S2  1  0.60451500  0.70536400  0.67906700  1
  S  S3  1  0.39548500  0.29463600  0.32093300  1
  O  O0  1  0.77083900  0.52623000  0.63828700  1
  O  O1  1  0.22916100  0.47377000  0.36171300  1
  O  O2  1  0.44224400  0.75466400  0.52755000  1
  O  O3  1  0.55775600  0.24533600  0.47245000  1
  O  O4  1  0.22982500  0.37563900  0.77882300  1
  O  O5  1  0.77017500  0.62436100  0.22117700  1
  O  O6  1  0.01432900  0.13118400  0.68138600  1
  O  O7  1  0.98567100  0.86881600  0.31861400  1
  O  O8  1  0.49556100  0.64209200  0.85780300  1
  O  O9  1  0.50443900  0.35790800  0.14219700  1
  O  O10  1  0.70560000  0.88104000  0.70532500  1
  O  O11  1  0.29440000  0.11896000  0.29467500  1
  O  O12  1  0.30376400  0.04140400  0.91119000  1
  O  O13  1  0.69623600  0.95859600  0.08881000  1
  O  O14  1  0.95876400  0.26057400  0.98824400  1
  O  O15  1  0.04123600  0.73942600  0.01175600  1
loop_
_geom_bond_atom_site_label_1
_geom_bond_atom_site_label_2
_geom_bond_distance
_geom_bond_site_symmetry_2
Na0 O4 2.455320 1_555
Na0 O2 2.467802 1_555
Na0 O10 2.506790 1_455
Na0 O15 2.540411 1_556
Na0 O7 2.566514 1_455
Na0 O0 2.645834 1_455
Na0 O6 2.713167 1_565
Na0 O1 2.771739 1_555
Na0 O8 2.947254 1_555
Na1 O5 2.455320 1_555
Na1 O3 2.467802 1_555
Na1 O11 2.506790 1_655
Na1 O14 2.540411 1_554
Na1 O6 2.566514 1_655
Na1 O1 2.645834 1_655
Na1 O7 2.713167 1_545
Na1 O0 2.771739 1_555
Na1 O9 2.947254 1_555
Nd0 O10 2.491977 1_545
Nd0 O9 2.503898 1_556
Nd0 O13 2.513073 1_546
Nd0 O14 2.524260 1_555
Nd0 O3 2.524791 1_555
Nd0 O4 2.536969 1_555
Nd0 O12 2.642143 1_555
Nd0 O0 2.653921 1_555
Nd0 O6 2.670903 1_655
Nd0 O8 2.766607 1_555
Nd1 O11 2.491977 1_565
Nd1 O8 2.503898 1_554
Nd1 O12 2.513073 1_564
Nd1 O15 2.524260 1_555
Nd1 O2 2.524791 1_555
Nd1 O5 2.536969 1_555
Nd1 O13 2.642143 1_555
Nd1 O1 2.653921 1_555
Nd1 O7 2.670903 1_455
Nd1 O9 2.766607 1_555
O0 S2 1.485175 1_555
O1 S3 1.485175 1_555
O2 S2 1.486982 1_555
O3 S3 1.486982 1_555
O4 S0 1.484942 1_555
O5 S1 1.484942 1_555
O6 S0 1.486776 1_555
O7 S1 1.486776 1_555
O8 S2 1.510458 1_555
O9 S3 1.510458 1_555
O10 S2 1.477693 1_555
O11 S3 1.477693 1_555
O12 S0 1.506704 1_555
O13 S1 1.506704 1_555
O14 S0 1.489747 1_655
O15 S1 1.489747 1_455
