# generated using pymatgen
data_Ta2FeOs
_symmetry_space_group_name_H-M   'P 1'
_cell_length_a   4.43539138
_cell_length_b   4.43539138
_cell_length_c   4.43539138
_cell_angle_alpha   60.00000000
_cell_angle_beta   60.00000000
_cell_angle_gamma   60.00000000
_symmetry_Int_Tables_number   1
_chemical_formula_structural   Ta2FeOs
_chemical_formula_sum   'Ta2 Fe1 Os1'
_cell_volume   61.69938649
_cell_formula_units_Z   1
loop_
 _symmetry_equiv_pos_site_id
 _symmetry_equiv_pos_as_xyz
  1  'x, y, z'
loop_
 _atom_site_type_symbol
 _atom_site_label
 _atom_site_symmetry_multiplicity
 _atom_site_fract_x
 _atom_site_fract_y
 _atom_site_fract_z
 _atom_site_occupancy
  Ta  Ta0  1  0.00000000  0.00000000  -0.00000000  1
  Ta  Ta1  1  0.50000100  0.50000100  0.50000100  1
  Fe  Fe0  1  0.25000100  0.25000100  0.25000100  1
  Os  Os0  1  0.75000000  0.75000000  0.75000000  1
loop_
_geom_bond_atom_site_label_1
_geom_bond_atom_site_label_2
_geom_bond_distance
_geom_bond_site_symmetry_2
Fe0 Ta0 2.716108 1_655
Fe0 Ta0 2.716108 1_565
Fe0 Ta0 2.716108 1_556
Fe0 Ta1 2.716111 1_554
Fe0 Ta1 2.716111 1_455
Fe0 Ta1 2.716111 1_545
Fe0 Ta1 2.716111 1_555
Fe0 Ta0 2.716122 1_555
Os0 Ta1 2.716101 1_555
Os0 Ta0 2.716111 1_566
Os0 Ta0 2.716111 1_656
Os0 Ta0 2.716111 1_665
Os0 Ta0 2.716111 1_666
Os0 Ta1 2.716115 1_655
Os0 Ta1 2.716115 1_556
Os0 Ta1 2.716115 1_565
