# generated using pymatgen
data_Yb2Ni12As7
_symmetry_space_group_name_H-M   'P 1'
_cell_length_a   9.36054546
_cell_length_b   9.36054546
_cell_length_c   3.79663400
_cell_angle_alpha   90.00000000
_cell_angle_beta   90.00000000
_cell_angle_gamma   119.99999615
_symmetry_Int_Tables_number   1
_chemical_formula_structural   Yb2Ni12As7
_chemical_formula_sum   'Yb2 Ni12 As7'
_cell_volume   288.09232887
_cell_formula_units_Z   1
loop_
 _symmetry_equiv_pos_site_id
 _symmetry_equiv_pos_as_xyz
  1  'x, y, z'
loop_
 _atom_site_type_symbol
 _atom_site_label
 _atom_site_symmetry_multiplicity
 _atom_site_fract_x
 _atom_site_fract_y
 _atom_site_fract_z
 _atom_site_occupancy
  Yb  Yb0  1  0.66666700  0.33333300  0.00000000  1
  Yb  Yb1  1  0.00000000  0.00000000  0.50000000  1
  Ni  Ni0  1  0.70800600  0.09090300  0.50000000  1
  Ni  Ni1  1  0.90909700  0.61710300  0.50000000  1
  Ni  Ni2  1  0.38289700  0.29199400  0.50000000  1
  Ni  Ni3  1  0.77340700  0.72153100  0.00000000  1
  Ni  Ni4  1  0.27846900  0.05187500  0.00000000  1
  Ni  Ni5  1  0.94812500  0.22659300  0.00000000  1
  Ni  Ni6  1  0.54625900  0.76261900  0.50000000  1
  Ni  Ni7  1  0.23738100  0.78364000  0.50000000  1
  Ni  Ni8  1  0.21636000  0.45374100  0.50000000  1
  Ni  Ni9  1  0.48544600  0.94756000  0.00000000  1
  Ni  Ni10  1  0.05244000  0.53788600  0.00000000  1
  Ni  Ni11  1  0.46211400  0.51455400  0.00000000  1
  As  As0  1  0.33333300  0.66666700  0.00000000  1
  As  As1  1  0.44288500  0.07630200  0.50000000  1
  As  As2  1  0.92369800  0.36658300  0.50000000  1
  As  As3  1  0.63341700  0.55711500  0.50000000  1
  As  As4  1  0.73730200  0.95083500  0.00000000  1
  As  As5  1  0.04916500  0.78646700  0.00000000  1
  As  As6  1  0.21353300  0.26269800  0.00000000  1
loop_
_geom_bond_atom_site_label_1
_geom_bond_atom_site_label_2
_geom_bond_distance
_geom_bond_site_symmetry_2
Ni0 Yb0 3.127470 1_555
Ni0 Yb0 3.127470 1_556
Ni0 Yb1 3.243493 1_655
Ni1 Yb0 3.127475 1_555
Ni1 Yb0 3.127475 1_556
Ni1 Yb1 3.243493 1_665
Ni2 Yb0 3.127478 1_555
Ni2 Yb0 3.127478 1_556
Ni2 Yb1 3.243493 1_555
Ni3 Yb1 3.060741 1_664
Ni3 Yb1 3.060741 1_665
Ni3 Yb0 3.251424 1_555
Ni4 Yb1 3.060744 1_555
Ni4 Yb1 3.060744 1_554
Ni4 Yb0 3.251424 1_555
Ni5 Yb1 3.060736 1_654
Ni5 Yb1 3.060736 1_655
Ni5 Yb0 3.251424 1_555
Ni9 Yb0 3.129163 1_565
Ni10 Yb0 3.129164 1_455
Ni11 Yb0 3.129171 1_555
As0 Ni10 2.279668 1_555
As0 Ni9 2.279668 1_555
As0 Ni11 2.279676 1_555
As0 Ni7 2.567607 1_555
As0 Ni7 2.567607 1_554
As0 Ni8 2.567612 1_555
As0 Ni8 2.567612 1_554
As0 Ni6 2.567613 1_555
As0 Ni6 2.567613 1_554
As1 Ni2 2.350607 1_555
As1 Ni4 2.381719 1_556
As1 Ni4 2.381719 1_555
As1 Ni9 2.386354 1_546
As1 Ni9 2.386354 1_545
As1 Ni0 2.416241 1_555
As1 Ni7 2.436256 1_545
As1 Yb0 2.956394 1_555
As1 Yb0 2.956394 1_556
As2 Ni0 2.350607 1_555
As2 Ni5 2.381724 1_556
As2 Ni5 2.381724 1_555
As2 Ni10 2.386354 1_656
As2 Ni10 2.386354 1_655
As2 Ni1 2.416241 1_555
As2 Ni8 2.436256 1_655
As2 Yb0 2.956391 1_555
As2 Yb0 2.956391 1_556
As3 Ni1 2.350607 1_555
As3 Ni3 2.381721 1_555
As3 Ni3 2.381721 1_556
As3 Ni11 2.386354 1_556
As3 Ni11 2.386354 1_555
As3 Ni2 2.416241 1_555
As3 Ni6 2.436256 1_555
As3 Yb0 2.956399 1_555
As3 Yb0 2.956399 1_556
As4 Ni3 2.333817 1_555
As4 Ni5 2.337377 1_565
As4 Ni9 2.342332 1_555
As4 Ni0 2.399451 1_565
As4 Ni0 2.399451 1_564
As4 Ni6 2.599016 1_555
As4 Ni6 2.599016 1_554
As4 Yb1 2.954726 1_665
As4 Yb1 2.954726 1_664
As5 Ni4 2.333812 1_565
As5 Ni3 2.337374 1_455
As5 Ni10 2.342332 1_555
As5 Ni1 2.399451 1_455
As5 Ni1 2.399451 1_454
As5 Ni7 2.599016 1_555
As5 Ni7 2.599016 1_554
As5 Yb1 2.954726 1_565
As5 Yb1 2.954726 1_564
As6 Ni5 2.333808 1_455
As6 Ni4 2.337383 1_555
As6 Ni11 2.342332 1_555
As6 Ni2 2.399451 1_555
As6 Ni2 2.399451 1_554
As6 Ni8 2.599016 1_555
As6 Ni8 2.599016 1_554
As6 Yb1 2.954727 1_554
As6 Yb1 2.954727 1_555
