# generated using pymatgen
data_PaPd3
_symmetry_space_group_name_H-M   'P 1'
_cell_length_a   5.68684487
_cell_length_b   5.68684598
_cell_length_c   5.05410793
_cell_angle_alpha   89.99999980
_cell_angle_beta   90.00000000
_cell_angle_gamma   119.99999577
_symmetry_Int_Tables_number   1
_chemical_formula_structural   PaPd3
_chemical_formula_sum   'Pa2 Pd6'
_cell_volume   141.55265180
_cell_formula_units_Z   2
loop_
 _symmetry_equiv_pos_site_id
 _symmetry_equiv_pos_as_xyz
  1  'x, y, z'
loop_
 _atom_site_type_symbol
 _atom_site_label
 _atom_site_symmetry_multiplicity
 _atom_site_fract_x
 _atom_site_fract_y
 _atom_site_fract_z
 _atom_site_occupancy
  Pa  Pa0  1  0.66666586  0.33333206  0.25000106  1
  Pa  Pa1  1  0.33333404  0.66666807  0.75000178  1
  Pd  Pd0  1  0.83536102  0.16464085  0.75000200  1
  Pd  Pd1  1  0.32927968  0.16464072  0.75000200  1
  Pd  Pd2  1  0.83536027  0.67072142  0.75000200  1
  Pd  Pd3  1  0.16463965  0.83535943  0.25000106  1
  Pd  Pd4  1  0.67072280  0.83535934  0.25000106  1
  Pd  Pd5  1  0.16463967  0.32927612  0.25000105  1
loop_
_geom_bond_atom_site_label_1
_geom_bond_atom_site_label_2
_geom_bond_distance
_geom_bond_site_symmetry_2
Pa0 Pd5 2.843482 1_555
Pa0 Pd4 2.843486 1_555
Pa0 Pd3 2.843490 1_545
Pa0 Pd3 2.843496 1_655
Pa0 Pd4 2.843500 1_545
Pa0 Pd5 2.843503 1_655
Pa0 Pd1 3.024389 1_554
Pa0 Pd0 3.024389 1_554
Pa0 Pd1 3.024397 1_555
Pa0 Pd0 3.024397 1_555
Pa0 Pd2 3.024398 1_554
Pa0 Pd2 3.024406 1_555
Pa1 Pd2 2.843490 1_555
Pa1 Pd1 2.843492 1_565
Pa1 Pd0 2.843492 1_565
Pa1 Pd0 2.843494 1_455
Pa1 Pd1 2.843494 1_555
Pa1 Pd2 2.843495 1_455
Pa1 Pd3 3.024389 1_556
Pa1 Pd3 3.024395 1_555
Pa1 Pd4 3.024397 1_556
Pa1 Pd4 3.024403 1_555
Pa1 Pd5 3.024406 1_556
Pa1 Pd5 3.024412 1_555
Pd0 Pd1 2.808839 1_655
Pd0 Pd2 2.808842 1_545
Pd0 Pd2 2.878004 1_555
Pd0 Pd1 2.878006 1_555
Pd0 Pd5 3.002637 1_656
Pd0 Pd4 3.002645 1_546
Pd0 Pd5 3.002645 1_655
Pd0 Pd4 3.002653 1_545
Pd1 Pd2 2.808843 1_445
Pd1 Pd2 2.878003 1_555
Pd1 Pd5 3.002628 1_556
Pd1 Pd5 3.002636 1_555
Pd1 Pd3 3.002644 1_546
Pd1 Pd3 3.002652 1_545
Pd2 Pd4 3.002628 1_556
Pd2 Pd4 3.002636 1_555
Pd2 Pd3 3.002639 1_656
Pd2 Pd3 3.002647 1_655
Pd3 Pd5 2.808828 1_565
Pd3 Pd4 2.808828 1_455
Pd3 Pd4 2.878017 1_555
Pd3 Pd5 2.878018 1_555
Pd4 Pd5 2.808829 1_665
Pd4 Pd5 2.878017 1_555
