# generated using pymatgen
data_Ga2O3
_symmetry_space_group_name_H-M   'P 1'
_cell_length_a   3.04756735
_cell_length_b   5.81741012
_cell_length_c   6.32648587
_cell_angle_alpha   103.35150868
_cell_angle_beta   103.93717565
_cell_angle_gamma   89.99999801
_symmetry_Int_Tables_number   1
_chemical_formula_structural   Ga2O3
_chemical_formula_sum   'Ga4 O6'
_cell_volume   105.73376294
_cell_formula_units_Z   2
loop_
 _symmetry_equiv_pos_site_id
 _symmetry_equiv_pos_as_xyz
  1  'x, y, z'
loop_
 _atom_site_type_symbol
 _atom_site_label
 _atom_site_symmetry_multiplicity
 _atom_site_fract_x
 _atom_site_fract_y
 _atom_site_fract_z
 _atom_site_occupancy
  Ga  Ga0  1  0.65883830  0.31473034  0.31767659  1
  Ga  Ga1  1  0.34116170  0.68526966  0.68232341  1
  Ga  Ga2  1  0.09047340  0.79478600  0.18094879  1
  Ga  Ga3  1  0.90952660  0.20521400  0.81905121  1
  O  O0  1  0.49646913  0.25666409  0.99293825  1
  O  O1  1  0.50353087  0.74333591  0.00706175  1
  O  O2  1  0.17337106  0.56323016  0.34674212  1
  O  O3  1  0.82662894  0.43676984  0.65325788  1
  O  O4  1  0.83549552  0.89084592  0.67099003  1
  O  O5  1  0.16450448  0.10915408  0.32900997  1
loop_
_geom_bond_atom_site_label_1
_geom_bond_atom_site_label_2
_geom_bond_distance
_geom_bond_site_symmetry_2
Ga0 O0 1.941522 1_554
Ga0 O5 1.948483 1_655
Ga0 O5 1.948485 1_555
Ga0 O3 2.013396 1_555
Ga0 O2 2.078660 1_555
Ga0 O2 2.078661 1_655
Ga1 O1 1.941522 1_556
Ga1 O4 1.948483 1_455
Ga1 O4 1.948485 1_555
Ga1 O2 2.013396 1_555
Ga1 O3 2.078660 1_555
Ga1 O3 2.078661 1_455
Ga2 O5 1.838446 1_565
Ga2 O1 1.843752 1_455
Ga2 O1 1.843757 1_555
Ga2 O2 1.871752 1_555
Ga3 O4 1.838446 1_545
Ga3 O0 1.843752 1_655
Ga3 O0 1.843757 1_555
Ga3 O3 1.871752 1_555
