# generated using pymatgen
data_PmCl3
_symmetry_space_group_name_H-M   'P 1'
_cell_length_a   9.28576824
_cell_length_b   9.28576979
_cell_length_c   3.74324050
_cell_angle_alpha   90.00000000
_cell_angle_beta   90.00000000
_cell_angle_gamma   120.00000172
_symmetry_Int_Tables_number   1
_chemical_formula_structural   PmCl3
_chemical_formula_sum   'Pm2 Cl6'
_cell_volume   279.52078545
_cell_formula_units_Z   2
loop_
 _symmetry_equiv_pos_site_id
 _symmetry_equiv_pos_as_xyz
  1  'x, y, z'
loop_
 _atom_site_type_symbol
 _atom_site_label
 _atom_site_symmetry_multiplicity
 _atom_site_fract_x
 _atom_site_fract_y
 _atom_site_fract_z
 _atom_site_occupancy
  Pm  Pm0  1  0.66666700  0.33333400  0.25000100  1
  Pm  Pm1  1  0.33333400  0.66666800  0.75000100  1
  Cl  Cl0  1  0.79099760  0.20900140  0.75000100  1
  Cl  Cl1  1  0.41800080  0.20900140  0.75000100  1
  Cl  Cl2  1  0.79099760  0.58199720  0.75000100  1
  Cl  Cl3  1  0.20900240  0.79099960  0.25000100  1
  Cl  Cl4  1  0.58199920  0.79099960  0.25000100  1
  Cl  Cl5  1  0.20900140  0.41800080  0.25000100  1
loop_
_geom_bond_atom_site_label_1
_geom_bond_atom_site_label_2
_geom_bond_distance
_geom_bond_site_symmetry_2
Cl0 Pm0 2.738918 1_556
Cl0 Pm0 2.738918 1_555
Cl1 Pm0 2.738936 1_556
Cl1 Pm0 2.738936 1_555
Cl2 Pm0 2.738918 1_556
Cl2 Pm0 2.738918 1_555
Cl3 Pm1 2.738918 1_554
Cl3 Pm1 2.738918 1_555
Cl4 Pm1 2.738930 1_554
Cl4 Pm1 2.738930 1_555
Cl5 Pm1 2.738942 1_554
Cl5 Pm1 2.738942 1_555
