# generated using pymatgen
data_Li3CuNi3O8
_symmetry_space_group_name_H-M   'P 1'
_cell_length_a   5.72036300
_cell_length_b   5.76699130
_cell_length_c   5.83804977
_cell_angle_alpha   91.96484896
_cell_angle_beta   118.70171548
_cell_angle_gamma   118.40318876
_symmetry_Int_Tables_number   1
_chemical_formula_structural   Li3CuNi3O8
_chemical_formula_sum   'Li3 Cu1 Ni3 O8'
_cell_volume   139.71360549
_cell_formula_units_Z   1
loop_
 _symmetry_equiv_pos_site_id
 _symmetry_equiv_pos_as_xyz
  1  'x, y, z'
loop_
 _atom_site_type_symbol
 _atom_site_label
 _atom_site_symmetry_multiplicity
 _atom_site_fract_x
 _atom_site_fract_y
 _atom_site_fract_z
 _atom_site_occupancy
  Li  Li0  1  0.50000000  0.50000000  0.50000000  1
  Li  Li1  1  0.50000000  0.00000000  0.50000000  1
  Li  Li2  1  0.00000000  0.00000000  0.50000000  1
  Cu  Cu0  1  0.00000000  0.00000000  0.00000000  1
  Ni  Ni0  1  0.50000000  0.00000000  0.00000000  1
  Ni  Ni1  1  0.50000000  0.50000000  0.00000000  1
  Ni  Ni2  1  0.00000000  0.50000000  0.00000000  1
  O  O0  1  0.53990300  0.28839300  0.77955300  1
  O  O1  1  0.99217000  0.23486700  0.78324400  1
  O  O2  1  0.04075800  0.79063900  0.78266000  1
  O  O3  1  0.46009700  0.71160700  0.22044700  1
  O  O4  1  0.50860100  0.74888400  0.78756100  1
  O  O5  1  0.00783000  0.76513300  0.21675600  1
  O  O6  1  0.95924200  0.20936100  0.21734000  1
  O  O7  1  0.49139900  0.25111600  0.21243900  1
loop_
_geom_bond_atom_site_label_1
_geom_bond_atom_site_label_2
_geom_bond_distance
_geom_bond_site_symmetry_2
Li0 O3 2.061225 1_555
Li0 O0 2.061225 1_555
Li0 O4 2.137556 1_555
Li0 O7 2.137556 1_555
Li0 O6 2.253009 1_455
Li0 O2 2.253009 1_655
Li1 O5 2.059698 1_545
Li1 O1 2.059698 1_555
Li1 O3 2.139314 1_545
Li1 O0 2.139314 1_555
Li1 O4 2.252371 1_545
Li1 O7 2.252371 1_555
Li2 O6 2.066428 1_455
Li2 O2 2.066428 1_545
Li2 O5 2.132194 1_545
Li2 O1 2.132194 1_455
Li2 O3 2.248105 1_445
Li2 O0 2.248105 1_555
Cu0 O1 1.886462 1_454
Cu0 O5 1.886462 1_545
Cu0 O6 1.889178 1_455
Cu0 O2 1.889178 1_544
Cu0 O7 2.047571 1_555
Cu0 O4 2.047571 1_444
Ni0 O7 1.908156 1_555
Ni0 O4 1.908156 1_544
Ni0 O2 1.909147 1_544
Ni0 O6 1.909147 1_555
Ni0 O0 2.131267 1_554
Ni0 O3 2.131267 1_545
Ni1 O0 1.907120 1_554
Ni1 O3 1.907120 1_555
Ni1 O7 1.927227 1_555
Ni1 O4 1.927227 1_554
Ni1 O5 2.118705 1_655
Ni1 O1 2.118705 1_454
Ni2 O3 1.912030 1_555
Ni2 O0 1.912030 1_454
Ni2 O1 1.920665 1_454
Ni2 O5 1.920665 1_555
Ni2 O2 2.128821 1_554
Ni2 O6 2.128821 1_455
