# generated using pymatgen
data_LiFe(SiO3)2
_symmetry_space_group_name_H-M   'P 1'
_cell_length_a   7.76939837
_cell_length_b   7.76939837
_cell_length_c   9.97611700
_cell_angle_alpha   90.00000000
_cell_angle_beta   90.00000000
_cell_angle_gamma   93.25210943
_symmetry_Int_Tables_number   1
_chemical_formula_structural   LiFe(SiO3)2
_chemical_formula_sum   'Li4 Fe4 Si8 O24'
_cell_volume   601.22406370
_cell_formula_units_Z   4
loop_
 _symmetry_equiv_pos_site_id
 _symmetry_equiv_pos_as_xyz
  1  'x, y, z'
loop_
 _atom_site_type_symbol
 _atom_site_label
 _atom_site_symmetry_multiplicity
 _atom_site_fract_x
 _atom_site_fract_y
 _atom_site_fract_z
 _atom_site_occupancy
  Li  Li0  1  0.89971500  0.10028500  0.25000000  1
  Li  Li1  1  0.39901900  0.39901900  0.00000000  1
  Li  Li2  1  0.60098100  0.60098100  0.50000000  1
  Li  Li3  1  0.10028500  0.89971500  0.75000000  1
  Fe  Fe0  1  0.66203400  0.15353600  0.54442100  1
  Fe  Fe1  1  0.84646400  0.33796600  0.95557900  1
  Fe  Fe2  1  0.15353600  0.66203400  0.45557900  1
  Fe  Fe3  1  0.33796600  0.84646400  0.04442100  1
  Si  Si0  1  0.07116000  0.07116000  0.50000000  1
  Si  Si1  1  0.36738900  0.14413900  0.29711400  1
  Si  Si2  1  0.14413900  0.36738900  0.70288600  1
  Si  Si3  1  0.54694200  0.45305800  0.75000000  1
  Si  Si4  1  0.45305800  0.54694200  0.25000000  1
  Si  Si5  1  0.85586100  0.63261100  0.20288600  1
  Si  Si6  1  0.63261100  0.85586100  0.79711400  1
  Si  Si7  1  0.92884000  0.92884000  0.00000000  1
  O  O0  1  0.62982600  0.99613700  0.67951800  1
  O  O1  1  0.87320400  0.10619200  0.45611900  1
  O  O2  1  0.50072500  0.10467100  0.41402700  1
  O  O3  1  0.16904200  0.13760500  0.36028900  1
  O  O4  1  0.13760500  0.16904200  0.63971100  1
  O  O5  1  0.89380800  0.12679600  0.04388100  1
  O  O6  1  0.41190700  0.33658900  0.22802500  1
  O  O7  1  0.62008000  0.38080300  0.60853800  1
  O  O8  1  0.61919700  0.37992000  0.89146200  1
  O  O9  1  0.00386300  0.37017400  0.82048200  1
  O  O10  1  0.33658900  0.41190700  0.77197500  1
  O  O11  1  0.10467100  0.50072500  0.58597300  1
  O  O12  1  0.89532900  0.49927500  0.08597300  1
  O  O13  1  0.66341100  0.58809300  0.27197500  1
  O  O14  1  0.99613700  0.62982600  0.32048200  1
  O  O15  1  0.38080300  0.62008000  0.39146200  1
  O  O16  1  0.37992000  0.61919700  0.10853800  1
  O  O17  1  0.58809300  0.66341100  0.72802500  1
  O  O18  1  0.10619200  0.87320400  0.54388100  1
  O  O19  1  0.86239500  0.83095800  0.13971100  1
  O  O20  1  0.83095800  0.86239500  0.86028900  1
  O  O21  1  0.49927500  0.89532900  0.91402700  1
  O  O22  1  0.12679600  0.89380800  0.95611900  1
  O  O23  1  0.37017400  0.00386300  0.17951800  1
loop_
_geom_bond_atom_site_label_1
_geom_bond_atom_site_label_2
_geom_bond_distance
_geom_bond_site_symmetry_2
Li0 O1 2.067327 1_555
Li0 O5 2.067327 1_555
Li0 O19 2.367359 1_545
Li0 O3 2.367359 1_655
Li1 O8 2.037050 1_554
Li1 O16 2.037050 1_555
Li1 O6 2.329278 1_555
Li1 O10 2.329278 1_554
Li2 O15 2.037050 1_555
Li2 O7 2.037050 1_555
Li2 O17 2.329278 1_555
Li2 O13 2.329278 1_555
Li3 O22 2.067327 1_555
Li3 O18 2.067327 1_555
Li3 O20 2.367359 1_455
Li3 O4 2.367359 1_565
Fe0 O0 1.827508 1_545
Fe0 O2 1.831118 1_555
Fe0 O1 1.916130 1_555
Fe0 O7 1.923144 1_555
Fe1 O9 1.827508 1_655
Fe1 O12 1.831118 1_556
Fe1 O5 1.916130 1_556
Fe1 O8 1.923144 1_555
Fe2 O14 1.827508 1_455
Fe2 O11 1.831118 1_555
Fe2 O18 1.916130 1_555
Fe2 O15 1.923144 1_555
Fe3 O23 1.827508 1_565
Fe3 O21 1.831118 1_554
Fe3 O22 1.916130 1_554
Fe3 O16 1.923144 1_555
O0 Si6 1.602256 1_555
O1 Si0 1.636659 1_655
O2 Si1 1.601121 1_555
O3 Si0 1.656170 1_555
O3 Si1 1.663039 1_555
O4 Si0 1.656170 1_555
O4 Si2 1.663039 1_555
O5 Si7 1.636659 1_545
O6 Si4 1.661922 1_555
O6 Si1 1.664840 1_555
O7 Si3 1.632739 1_555
O8 Si3 1.632739 1_555
O9 Si2 1.602256 1_555
O10 Si3 1.661922 1_555
O10 Si2 1.664840 1_555
O11 Si2 1.601121 1_555
O12 Si5 1.601121 1_555
O13 Si4 1.661922 1_555
O13 Si5 1.664840 1_555
O14 Si5 1.602256 1_555
O15 Si4 1.632739 1_555
O16 Si4 1.632739 1_555
O17 Si3 1.661922 1_555
O17 Si6 1.664840 1_555
O18 Si0 1.636659 1_565
O19 Si7 1.656170 1_555
O19 Si5 1.663039 1_555
O20 Si7 1.656170 1_556
O20 Si6 1.663039 1_555
O21 Si6 1.601121 1_555
O22 Si7 1.636659 1_456
O23 Si1 1.602256 1_555
