# generated using pymatgen
data_Lu2NiOs
_symmetry_space_group_name_H-M   'P 1'
_cell_length_a   4.66067290
_cell_length_b   4.66065298
_cell_length_c   4.66066233
_cell_angle_alpha   59.99901074
_cell_angle_beta   59.99946098
_cell_angle_gamma   59.99876653
_symmetry_Int_Tables_number   1
_chemical_formula_structural   Lu2NiOs
_chemical_formula_sum   'Lu2 Ni1 Os1'
_cell_volume   71.58449547
_cell_formula_units_Z   1
loop_
 _symmetry_equiv_pos_site_id
 _symmetry_equiv_pos_as_xyz
  1  'x, y, z'
loop_
 _atom_site_type_symbol
 _atom_site_label
 _atom_site_symmetry_multiplicity
 _atom_site_fract_x
 _atom_site_fract_y
 _atom_site_fract_z
 _atom_site_occupancy
  Lu  Lu0  1  0.99996473  0.00004537  0.00004475  1
  Lu  Lu1  1  0.50003627  0.49995663  0.49995625  1
  Ni  Ni0  1  0.25000100  0.25000000  0.25000100  1
  Os  Os0  1  0.75000000  0.75000000  0.75000000  1
loop_
_geom_bond_atom_site_label_1
_geom_bond_atom_site_label_2
_geom_bond_distance
_geom_bond_site_symmetry_2
Lu0 Os0 2.853839 1_554
Lu0 Os0 2.853867 1_545
Lu0 Ni0 2.853880 1_655
Lu0 Ni0 2.853898 1_555
Lu0 Os0 2.854171 1_644
Lu0 Ni0 2.854184 1_645
Lu0 Ni0 2.854204 1_654
Lu0 Os0 2.854290 1_544
Lu1 Os0 2.853846 1_545
Lu1 Os0 2.853871 1_554
Lu1 Ni0 2.853880 1_555
Lu1 Ni0 2.853902 1_655
Lu1 Os0 2.854175 1_455
Lu1 Ni0 2.854176 1_565
Lu1 Ni0 2.854207 1_556
Lu1 Os0 2.854275 1_555
