# generated using pymatgen
data_Li2VO2F
_symmetry_space_group_name_H-M   'P 1'
_cell_length_a   7.89527305
_cell_length_b   7.89527305
_cell_length_c   10.34370892
_cell_angle_alpha   72.52358598
_cell_angle_beta   72.52358598
_cell_angle_gamma   22.16057697
_symmetry_Int_Tables_number   1
_chemical_formula_structural   Li2VO2F
_chemical_formula_sum   'Li8 V4 O8 F4'
_cell_volume   231.54489192
_cell_formula_units_Z   4
loop_
 _symmetry_equiv_pos_site_id
 _symmetry_equiv_pos_as_xyz
  1  'x, y, z'
loop_
 _atom_site_type_symbol
 _atom_site_label
 _atom_site_symmetry_multiplicity
 _atom_site_fract_x
 _atom_site_fract_y
 _atom_site_fract_z
 _atom_site_occupancy
  Li  Li0  1  0.42228000  0.42228000  0.11992900  1
  Li  Li1  1  0.08242400  0.08242400  0.12863400  1
  Li  Li2  1  0.06348400  0.06348400  0.64704000  1
  Li  Li3  1  0.43282800  0.43282800  0.62797300  1
  Li  Li4  1  0.92841700  0.92841700  0.36506900  1
  Li  Li5  1  0.56264000  0.56264000  0.88457900  1
  Li  Li6  1  0.58169000  0.58169000  0.38270400  1
  Li  Li7  1  0.93636700  0.93636700  0.85013000  1
  V  V0  1  0.25303800  0.25303800  0.37226200  1
  V  V1  1  0.25560800  0.25560800  0.88202900  1
  V  V2  1  0.75136600  0.75136600  0.12762700  1
  V  V3  1  0.76103600  0.76103600  0.61051700  1
  O  O0  1  0.32594200  0.32594200  0.01190000  1
  O  O1  1  0.33162800  0.33162800  0.50320100  1
  O  O2  1  0.17525700  0.17525700  0.24619400  1
  O  O3  1  0.82930600  0.82930600  0.25499400  1
  O  O4  1  0.81878000  0.81878000  0.75773500  1
  O  O5  1  0.68196800  0.68196800  0.49152100  1
  O  O6  1  0.67597200  0.67597200  0.99513000  1
  O  O7  1  0.50253400  0.50253400  0.75074800  1
  F  F0  1  0.17756300  0.17756300  0.73995200  1
  F  F1  1  0.00274900  0.00274900  0.00987000  1
  F  F2  1  0.00303000  0.00303000  0.49072600  1
  F  F3  1  0.50285300  0.50285300  0.24953600  1
loop_
_geom_bond_atom_site_label_1
_geom_bond_atom_site_label_2
_geom_bond_distance
_geom_bond_site_symmetry_2
Li0 O0 2.120913 1_555
Li0 O3 2.257871 1_545
Li0 O3 2.257871 1_455
Li1 O2 2.149128 1_555
Li1 O6 2.255117 1_454
Li1 O6 2.255117 1_544
Li2 O7 1.930038 1_545
Li2 O7 1.930038 1_455
Li2 O5 2.540371 1_545
Li2 O5 2.540371 1_455
Li3 O7 1.902400 1_555
Li3 O1 2.315963 1_555
Li3 O4 2.403219 1_455
Li3 O4 2.403219 1_545
Li4 O3 2.173809 1_555
Li4 O1 2.298217 1_565
Li4 O1 2.298217 1_655
Li5 O7 1.890233 1_555
Li5 O6 2.370868 1_555
Li6 O5 2.179928 1_555
Li6 O2 2.268349 1_655
Li6 O2 2.268349 1_565
Li7 O7 1.940438 1_655
Li7 O7 1.940438 1_565
Li7 O4 2.302050 1_555
Li7 O0 2.505581 1_656
Li7 O0 2.505581 1_566
O0 V1 1.971949 1_554
O0 V2 2.055265 1_545
O0 V2 2.055265 1_455
O1 V3 1.996996 1_545
O1 V3 1.996996 1_455
O1 V0 2.080157 1_555
O2 V0 2.028589 1_555
O2 V2 2.076576 1_545
O2 V2 2.076576 1_455
O3 V2 2.041627 1_555
O3 V0 2.071974 1_655
O3 V0 2.071974 1_565
O4 V3 1.988343 1_555
O4 V1 2.035504 1_565
O4 V1 2.035504 1_655
O5 V3 1.984762 1_555
O5 V0 2.050725 1_655
O5 V0 2.050725 1_565
O6 V2 2.055057 1_556
O6 V1 2.076119 1_655
O6 V1 2.076119 1_565
F0 V3 2.169812 1_455
F0 V3 2.169812 1_545
F0 V1 2.170294 1_555
F0 Li2 2.255775 1_555
F0 Li5 2.466018 1_545
F0 Li5 2.466018 1_455
F1 Li1 1.990425 1_555
F1 Li5 2.026596 1_454
F1 Li5 2.026596 1_544
F1 Li0 2.069887 1_455
F1 Li0 2.069887 1_545
F1 Li7 2.197391 1_444
F2 Li4 1.986450 1_445
F2 Li6 2.050129 1_455
F2 Li6 2.050129 1_545
F2 Li2 2.102120 1_555
F2 Li3 2.134471 1_545
F2 Li3 2.134471 1_455
F3 Li4 2.053609 1_455
F3 Li4 2.053609 1_545
F3 Li0 2.093001 1_555
F3 Li6 2.102329 1_555
F3 Li1 2.107823 1_655
F3 Li1 2.107823 1_565
