# generated using pymatgen
data_Li2VFeO4
_symmetry_space_group_name_H-M   'P 1'
_cell_length_a   5.99019971
_cell_length_b   5.99019971
_cell_length_c   5.99019971
_cell_angle_alpha   120.38173006
_cell_angle_beta   120.32885447
_cell_angle_gamma   89.38571566
_symmetry_Int_Tables_number   1
_chemical_formula_structural   Li2VFeO4
_chemical_formula_sum   'Li4 V2 Fe2 O8'
_cell_volume   151.16219331
_cell_formula_units_Z   2
loop_
 _symmetry_equiv_pos_site_id
 _symmetry_equiv_pos_as_xyz
  1  'x, y, z'
loop_
 _atom_site_type_symbol
 _atom_site_label
 _atom_site_symmetry_multiplicity
 _atom_site_fract_x
 _atom_site_fract_y
 _atom_site_fract_z
 _atom_site_occupancy
  Li  Li0  1  0.00000000  0.50000000  0.50000000  1
  Li  Li1  1  0.00000000  0.00000000  0.50000000  1
  Li  Li2  1  0.50000000  0.50000000  0.00000000  1
  Li  Li3  1  0.00000000  0.50000000  0.00000000  1
  V  V0  1  0.50000000  0.00000000  0.00000000  1
  V  V1  1  0.50000000  0.50000000  0.50000000  1
  Fe  Fe0  1  0.00000000  0.00000000  0.00000000  1
  Fe  Fe1  1  0.50000000  0.00000000  0.50000000  1
  O  O0  1  0.74734800  0.75895200  0.98839600  1
  O  O1  1  0.73923000  0.22842800  0.98919800  1
  O  O2  1  0.27055600  0.75895200  0.51160400  1
  O  O3  1  0.26077000  0.24996800  0.48919800  1
  O  O4  1  0.73923000  0.75003200  0.51080200  1
  O  O5  1  0.72944400  0.24104800  0.48839600  1
  O  O6  1  0.26077000  0.77157200  0.01080200  1
  O  O7  1  0.25265200  0.24104800  0.01160400  1
loop_
_geom_bond_atom_site_label_1
_geom_bond_atom_site_label_2
_geom_bond_distance
_geom_bond_site_symmetry_2
Li0 O4 2.154378 1_455
Li0 O6 2.154378 1_556
Li0 O3 2.154378 1_555
Li0 O1 2.154378 1_454
Li0 O2 2.206504 1_555
Li0 O5 2.206504 1_455
Li1 O2 2.157300 1_545
Li1 O5 2.157300 1_455
Li1 O7 2.157300 1_556
Li1 O0 2.157300 1_444
Li1 O4 2.221835 1_445
Li1 O3 2.221835 1_555
Li2 O6 2.154378 1_555
Li2 O4 2.154378 1_555
Li2 O1 2.154378 1_554
Li2 O3 2.154378 1_554
Li2 O0 2.206504 1_554
Li2 O7 2.206504 1_555
Li3 O2 2.157300 1_555
Li3 O0 2.157300 1_454
Li3 O5 2.157300 1_454
Li3 O7 2.157300 1_555
Li3 O1 2.221835 1_454
Li3 O6 2.221835 1_555
Fe0 O7 2.054101 1_555
Fe0 O0 2.054101 1_444
Fe0 O3 2.063542 1_555
Fe0 O1 2.063542 1_454
Fe0 O4 2.063542 1_444
Fe0 O6 2.063542 1_545
Fe1 O5 2.054101 1_555
Fe1 O2 2.054101 1_545
Fe1 O1 2.063542 1_555
Fe1 O3 2.063542 1_555
Fe1 O6 2.063542 1_545
Fe1 O4 2.063542 1_545
O0 V1 2.059538 1_555
O0 V0 2.059538 1_566
O1 V0 2.038468 1_556
O2 V0 2.059538 1_566
O2 V1 2.059538 1_555
O3 V1 2.038468 1_555
O4 V1 2.038468 1_555
O5 V0 2.059538 1_555
O5 V1 2.059538 1_555
O6 V0 2.038468 1_565
O7 V0 2.059538 1_555
O7 V1 2.059538 1_555
