# generated using pymatgen
data_Mn2VSi
_symmetry_space_group_name_H-M   'P 1'
_cell_length_a   3.98400778
_cell_length_b   3.98400778
_cell_length_c   3.98400778
_cell_angle_alpha   60.00000000
_cell_angle_beta   60.00000000
_cell_angle_gamma   60.00000000
_symmetry_Int_Tables_number   1
_chemical_formula_structural   Mn2VSi
_chemical_formula_sum   'Mn2 V1 Si1'
_cell_volume   44.71420740
_cell_formula_units_Z   1
loop_
 _symmetry_equiv_pos_site_id
 _symmetry_equiv_pos_as_xyz
  1  'x, y, z'
loop_
 _atom_site_type_symbol
 _atom_site_label
 _atom_site_symmetry_multiplicity
 _atom_site_fract_x
 _atom_site_fract_y
 _atom_site_fract_z
 _atom_site_occupancy
  Mn  Mn0  1  -0.00000000  -0.00000000  -0.00000000  1
  Mn  Mn1  1  0.49999900  0.49999900  0.49999900  1
  V  V0  1  0.75000000  0.75000000  0.75000000  1
  Si  Si0  1  0.25000000  0.25000000  0.25000000  1
loop_
_geom_bond_atom_site_label_1
_geom_bond_atom_site_label_2
_geom_bond_distance
_geom_bond_site_symmetry_2
Mn0 V0 2.439697 1_444
Mn0 Si0 2.439697 1_554
Mn0 V0 2.439697 1_445
Mn0 V0 2.439697 1_454
Mn0 Si0 2.439697 1_555
Mn0 Si0 2.439697 1_455
Mn0 Si0 2.439697 1_545
Mn0 V0 2.439697 1_544
Mn1 Si0 2.439687 1_555
Mn1 V0 2.439693 1_545
Mn1 V0 2.439693 1_554
Mn1 V0 2.439693 1_455
Mn1 Si0 2.439700 1_556
Mn1 Si0 2.439700 1_565
Mn1 Si0 2.439700 1_655
Mn1 V0 2.439706 1_555
Si0 V0 2.817119 1_455
Si0 V0 2.817119 1_554
Si0 V0 2.817119 1_445
Si0 V0 2.817119 1_454
Si0 V0 2.817119 1_544
Si0 V0 2.817119 1_545
