# generated using pymatgen
data_Li12Mn5V3(PO4)12
_symmetry_space_group_name_H-M   'P 1'
_cell_length_a   8.67749400
_cell_length_b   8.69191917
_cell_length_c   12.31973856
_cell_angle_alpha   89.77469341
_cell_angle_beta   88.20355649
_cell_angle_gamma   89.97028396
_symmetry_Int_Tables_number   1
_chemical_formula_structural   Li12Mn5V3(PO4)12
_chemical_formula_sum   'Li12 Mn5 V3 P12 O48'
_cell_volume   928.74095305
_cell_formula_units_Z   1
loop_
 _symmetry_equiv_pos_site_id
 _symmetry_equiv_pos_as_xyz
  1  'x, y, z'
loop_
 _atom_site_type_symbol
 _atom_site_label
 _atom_site_symmetry_multiplicity
 _atom_site_fract_x
 _atom_site_fract_y
 _atom_site_fract_z
 _atom_site_occupancy
  Li  Li0  1  0.92306300  0.08046100  0.69717800  1
  Li  Li1  1  0.91822200  0.69745900  0.76150400  1
  Li  Li2  1  0.79183700  0.78323000  0.17520500  1
  Li  Li3  1  0.70878200  0.28049900  0.32580800  1
  Li  Li4  1  0.58450500  0.19405600  0.73903400  1
  Li  Li5  1  0.57498800  0.58238600  0.80279300  1
  Li  Li6  1  0.42287900  0.41900800  0.19768800  1
  Li  Li7  1  0.41711800  0.80383400  0.26317100  1
  Li  Li8  1  0.29179100  0.71695300  0.67494700  1
  Li  Li9  1  0.20729000  0.21655600  0.82707700  1
  Li  Li10  1  0.08722800  0.30502700  0.23818000  1
  Li  Li11  1  0.07722000  0.92009400  0.30142200  1
  Mn  Mn0  1  0.74768600  0.03457500  0.89670400  1
  Mn  Mn1  1  0.74763500  0.95941800  0.39078700  1
  Mn  Mn2  1  0.24721900  0.54095600  0.89075900  1
  Mn  Mn3  1  0.25352100  0.96484500  0.10418000  1
  Mn  Mn4  1  0.24854000  0.46596300  0.39650600  1
  V  V0  1  0.75246000  0.53094400  0.60843300  1
  V  V1  1  0.75251000  0.45982400  0.11113700  1
  V  V2  1  0.25279600  0.03773600  0.61004600  1
  P  P0  1  0.96372000  0.25076000  0.49385200  1
  P  P1  1  0.89480400  0.38293000  0.85227800  1
  P  P2  1  0.89837500  0.10322600  0.15237100  1
  P  P3  1  0.60308200  0.60059200  0.35124500  1
  P  P4  1  0.60375200  0.88360500  0.64287300  1
  P  P5  1  0.53954900  0.74808200  0.00713200  1
  P  P6  1  0.46288000  0.24820100  0.99473000  1
  P  P7  1  0.39606100  0.11718000  0.35551900  1
  P  P8  1  0.39577800  0.39610300  0.65341200  1
  P  P9  1  0.10047700  0.89856100  0.84731100  1
  P  P10  1  0.10402400  0.61671800  0.14198500  1
  P  P11  1  0.03907400  0.75212100  0.50702000  1
  O  O0  1  0.95559100  0.86821000  0.43394100  1
  O  O1  1  0.91960600  0.88840600  0.85148200  1
  O  O2  1  0.93190400  0.68184500  0.59654100  1
  O  O3  1  0.92855000  0.59434300  0.16529500  1
  O  O4  1  0.89428800  0.36951800  0.57297400  1
  O  O5  1  0.85586000  0.21231900  0.82027000  1
  O  O6  1  0.85116100  0.41079800  0.97128500  1
  O  O7  1  0.85746300  0.98202300  0.24417000  1
  O  O8  1  0.84317700  0.26684300  0.18754600  1
  O  O9  1  0.83136800  0.17594400  0.43316300  1
  O  O10  1  0.82939900  0.04657100  0.04911600  1
  O  O11  1  0.80407100  0.50020600  0.78131700  1
  O  O12  1  0.69710400  0.00296600  0.70681000  1
  O  O13  1  0.67165300  0.54967000  0.45677600  1
  O  O14  1  0.67093100  0.66790600  0.06814200  1
  O  O15  1  0.65490800  0.76144500  0.30944600  1
  O  O16  1  0.63571900  0.90167300  0.51964600  1
  O  O17  1  0.64171100  0.71428900  0.67810900  1
  O  O18  1  0.64330300  0.47797500  0.26151000  1
  O  O19  1  0.60863100  0.86690800  0.92694600  1
  O  O20  1  0.57087900  0.17796100  0.90373200  1
  O  O21  1  0.57527000  0.38753700  0.65061600  1
  O  O22  1  0.57082800  0.09885400  0.33146300  1
  O  O23  1  0.54927600  0.36496400  0.06578600  1
  O  O24  1  0.45475700  0.63317200  0.93478800  1
  O  O25  1  0.42862300  0.90491700  0.66723700  1
  O  O26  1  0.42178100  0.61050900  0.35405000  1
  O  O27  1  0.43243200  0.81779900  0.09860900  1
  O  O28  1  0.39829700  0.12920400  0.07771900  1
  O  O29  1  0.35685100  0.51821600  0.74540200  1
  O  O30  1  0.35687800  0.28762600  0.32171100  1
  O  O31  1  0.35598800  0.09390700  0.47651200  1
  O  O32  1  0.34207200  0.23261200  0.68924000  1
  O  O33  1  0.33079800  0.32390700  0.93395100  1
  O  O34  1  0.32636400  0.45431300  0.55025900  1
  O  O35  1  0.30308800  0.99740300  0.29123700  1
  O  O36  1  0.19770600  0.49824300  0.20696000  1
  O  O37  1  0.17128000  0.95352700  0.95085400  1
  O  O38  1  0.17223200  0.83269500  0.56721000  1
  O  O39  1  0.15283800  0.73727400  0.80744300  1
  O  O40  1  0.13948000  0.02034400  0.75601800  1
  O  O41  1  0.13633900  0.59904900  0.01919400  1
  O  O42  1  0.14125200  0.78634600  0.17778200  1
  O  O43  1  0.10916800  0.63310600  0.42686600  1
  O  O44  1  0.07020500  0.40179600  0.82991900  1
  O  O45  1  0.07218100  0.32313500  0.40321200  1
  O  O46  1  0.07886200  0.11450800  0.15009000  1
  O  O47  1  0.04900900  0.13531800  0.56536800  1
loop_
_geom_bond_atom_site_label_1
_geom_bond_atom_site_label_2
_geom_bond_distance
_geom_bond_site_symmetry_2
Li0 O5 1.977573 1_555
Li0 O47 1.985419 1_655
Li0 O12 2.073286 1_555
Li0 O40 2.099187 1_655
Li0 O1 2.524443 1_545
Li1 O11 1.990880 1_555
Li1 O1 1.999711 1_555
Li1 O2 2.037102 1_555
Li1 O39 2.158561 1_655
Li2 O14 1.985825 1_555
Li2 O15 2.014285 1_555
Li2 O7 2.018584 1_555
Li2 O3 2.026876 1_555
Li3 O9 1.945357 1_555
Li3 O18 1.978136 1_555
Li3 O22 1.981541 1_555
Li3 O8 2.037755 1_555
Li4 O12 1.962188 1_555
Li4 O21 2.003018 1_555
Li4 O20 2.033048 1_555
Li4 O32 2.234456 1_555
Li5 O24 1.956140 1_555
Li5 O17 1.985011 1_555
Li5 O29 2.117101 1_555
Li5 O11 2.121056 1_555
Li5 O21 2.531365 1_555
Li6 O30 1.974526 1_555
Li6 O23 1.989471 1_555
Li6 O36 2.071343 1_555
Li6 O18 2.153583 1_555
Li7 O35 1.977577 1_555
Li7 O26 2.016620 1_555
Li7 O27 2.030708 1_555
Li7 O15 2.188557 1_555
Li8 O38 1.981131 1_555
Li8 O39 2.007029 1_555
Li8 O29 2.018410 1_555
Li8 O25 2.020337 1_555
Li9 O33 1.962662 1_555
Li9 O44 2.001126 1_555
Li9 O40 2.016503 1_555
Li9 O32 2.035866 1_555
Li10 O36 1.964918 1_555
Li10 O46 1.986072 1_555
Li10 O45 2.039945 1_555
Li10 O8 2.251517 1_455
Li11 O0 1.967071 1_455
Li11 O42 1.985087 1_555
Li11 O35 2.072206 1_555
Li11 O7 2.122248 1_455
Li11 O46 2.511014 1_565
Mn0 O19 1.920428 1_545
Mn0 O20 1.976156 1_555
Mn0 O5 2.022199 1_555
Mn0 O1 2.025238 1_545
Mn0 O10 2.030862 1_556
Mn0 O12 2.410539 1_555
Mn1 O16 1.900741 1_555
Mn1 O7 2.024600 1_555
Mn1 O0 2.054955 1_555
Mn1 O9 2.091755 1_565
Mn1 O22 2.101980 1_565
Mn1 O15 2.162922 1_555
Mn2 O41 1.895962 1_556
Mn2 O29 2.011640 1_555
Mn2 O24 2.060612 1_555
Mn2 O33 2.093604 1_555
Mn2 O44 2.113175 1_555
Mn2 O39 2.161833 1_555
Mn3 O28 1.923005 1_565
Mn3 O27 2.010096 1_555
Mn3 O42 2.028193 1_555
Mn3 O37 2.042817 1_554
Mn3 O46 2.063779 1_565
Mn3 O35 2.375537 1_555
Mn4 O43 1.920219 1_555
Mn4 O45 1.970595 1_555
Mn4 O26 2.014813 1_555
Mn4 O30 2.022637 1_555
Mn4 O34 2.032956 1_555
Mn4 O36 2.405320 1_555
O0 P11 1.544829 1_655
O1 P9 1.571253 1_655
O2 P11 1.544434 1_655
O2 V0 2.037830 1_555
O3 P10 1.552830 1_655
O3 V1 2.053698 1_555
O4 P0 1.532683 1_555
O4 V0 1.908796 1_555
O5 P1 1.575523 1_555
O6 P1 1.523002 1_555
O6 V1 1.948292 1_556
O7 P2 1.575036 1_565
O8 P2 1.559114 1_555
O8 V1 2.085989 1_555
O9 P0 1.536017 1_555
O10 P2 1.507279 1_555
O11 P1 1.567978 1_555
O11 V0 2.205351 1_555
O12 P4 1.549294 1_545
O13 P3 1.511277 1_555
O13 V0 2.022036 1_555
O14 P5 1.548910 1_555
O14 V1 2.016802 1_555
O15 P3 1.550044 1_555
O16 P4 1.542102 1_555
O17 P4 1.570421 1_555
O17 V0 2.038988 1_555
O18 P3 1.569885 1_555
O18 V1 2.060814 1_555
O19 P5 1.535401 1_556
O20 P6 1.564201 1_555
O21 P8 1.558589 1_555
O21 V0 2.033394 1_555
O22 P7 1.544357 1_555
O23 P6 1.551546 1_554
O23 V1 2.041824 1_555
O24 P5 1.543430 1_556
O25 P4 1.550931 1_555
O25 V2 2.053349 1_565
O26 P3 1.574858 1_555
O27 P5 1.562167 1_555
O28 P6 1.544519 1_554
O29 P8 1.584330 1_555
O30 P7 1.577161 1_555
O31 P7 1.532624 1_555
O31 V2 1.910064 1_555
O32 P8 1.553787 1_555
O32 V2 2.117286 1_555
O33 P6 1.535079 1_555
O34 P8 1.508775 1_555
O35 P7 1.552203 1_565
O36 P10 1.547738 1_555
O37 P9 1.512343 1_555
O38 P11 1.560164 1_555
O38 V2 1.993812 1_565
O39 P9 1.550405 1_555
O40 P9 1.570711 1_545
O40 V2 2.027534 1_555
O41 P10 1.538124 1_555
O42 P10 1.577093 1_555
O43 P11 1.544317 1_555
O44 P1 1.546930 1_455
O45 P0 1.567695 1_455
O46 P2 1.568658 1_455
O47 P0 1.537531 1_455
O47 V2 2.050673 1_555
