# generated using pymatgen
data_Ba2GdC2(O2F)3
_symmetry_space_group_name_H-M   'P 1'
_cell_length_a   7.10297700
_cell_length_b   9.65597400
_cell_length_c   11.95948200
_cell_angle_alpha   90.00000000
_cell_angle_beta   90.00000000
_cell_angle_gamma   90.00000000
_symmetry_Int_Tables_number   1
_chemical_formula_structural   Ba2GdC2(O2F)3
_chemical_formula_sum   'Ba8 Gd4 C8 O24 F12'
_cell_volume   820.25496073
_cell_formula_units_Z   4
loop_
 _symmetry_equiv_pos_site_id
 _symmetry_equiv_pos_as_xyz
  1  'x, y, z'
loop_
 _atom_site_type_symbol
 _atom_site_label
 _atom_site_symmetry_multiplicity
 _atom_site_fract_x
 _atom_site_fract_y
 _atom_site_fract_z
 _atom_site_occupancy
  Ba  Ba0  1  0.76172100  0.37997000  0.42869300  1
  Ba  Ba1  1  0.76172100  0.62003000  0.07130700  1
  Ba  Ba2  1  0.73827900  0.87997000  0.57130700  1
  Ba  Ba3  1  0.73827900  0.12003000  0.92869300  1
  Ba  Ba4  1  0.26172100  0.87997000  0.07130700  1
  Ba  Ba5  1  0.26172100  0.12003000  0.42869300  1
  Ba  Ba6  1  0.23827900  0.37997000  0.92869300  1
  Ba  Ba7  1  0.23827900  0.62003000  0.57130700  1
  Gd  Gd0  1  0.72744400  0.00000000  0.25000000  1
  Gd  Gd1  1  0.77255600  0.50000000  0.75000000  1
  Gd  Gd2  1  0.27255600  0.00000000  0.75000000  1
  Gd  Gd3  1  0.22744400  0.50000000  0.25000000  1
  C  C0  1  0.52064100  0.30585900  0.17865900  1
  C  C1  1  0.52064100  0.69414100  0.32134100  1
  C  C2  1  0.97935900  0.80585900  0.82134100  1
  C  C3  1  0.97935900  0.19414100  0.67865900  1
  C  C4  1  0.47935900  0.69414100  0.82134100  1
  C  C5  1  0.47935900  0.30585900  0.67865900  1
  C  C6  1  0.02064100  0.19414100  0.17865900  1
  C  C7  1  0.02064100  0.80585900  0.32134100  1
  O  O0  1  0.61854700  0.20310800  0.14384900  1
  O  O1  1  0.61854700  0.79689200  0.35615100  1
  O  O2  1  0.88145300  0.70310800  0.85615100  1
  O  O3  1  0.88145300  0.29689200  0.64384900  1
  O  O4  1  0.38145300  0.79689200  0.85615100  1
  O  O5  1  0.38145300  0.20310800  0.64384900  1
  O  O6  1  0.11854700  0.29689200  0.14384900  1
  O  O7  1  0.11854700  0.70310800  0.35615100  1
  O  O8  1  0.47851000  0.40911200  0.11274800  1
  O  O9  1  0.47851000  0.59088800  0.38725200  1
  O  O10  1  0.02149000  0.90911200  0.88725200  1
  O  O11  1  0.02149000  0.09088800  0.61274800  1
  O  O12  1  0.52149000  0.59088800  0.88725200  1
  O  O13  1  0.52149000  0.40911200  0.61274800  1
  O  O14  1  0.97851000  0.09088800  0.11274800  1
  O  O15  1  0.97851000  0.90911200  0.38725200  1
  O  O16  1  0.95924300  0.81329000  0.21815000  1
  O  O17  1  0.95924300  0.18671000  0.28185000  1
  O  O18  1  0.54075700  0.31329000  0.78185000  1
  O  O19  1  0.54075700  0.68671000  0.71815000  1
  O  O20  1  0.04075700  0.18671000  0.78185000  1
  O  O21  1  0.04075700  0.81329000  0.71815000  1
  O  O22  1  0.45924300  0.68671000  0.21815000  1
  O  O23  1  0.45924300  0.31329000  0.28185000  1
  F  F0  1  0.89722500  0.50000000  0.25000000  1
  F  F1  1  0.60277500  0.00000000  0.75000000  1
  F  F2  1  0.10277500  0.50000000  0.75000000  1
  F  F3  1  0.39722500  0.00000000  0.25000000  1
  F  F4  1  0.64918500  0.90476300  0.07572400  1
  F  F5  1  0.64918500  0.09523700  0.42427600  1
  F  F6  1  0.85081500  0.40476300  0.92427600  1
  F  F7  1  0.85081500  0.59523700  0.57572400  1
  F  F8  1  0.35081500  0.09523700  0.92427600  1
  F  F9  1  0.35081500  0.90476300  0.57572400  1
  F  F10  1  0.14918500  0.59523700  0.07572400  1
  F  F11  1  0.14918500  0.40476300  0.42427600  1
loop_
_geom_bond_atom_site_label_1
_geom_bond_atom_site_label_2
_geom_bond_distance
_geom_bond_site_symmetry_2
Ba0 F0 2.614720 1_555
Ba0 F11 2.763046 1_655
Ba0 F7 2.795198 1_555
Ba0 O13 2.799308 1_555
Ba0 O3 2.826290 1_555
Ba0 O23 2.848632 1_555
Ba0 F5 2.863703 1_555
Ba0 O9 2.905193 1_555
Ba0 O17 2.921454 1_555
Ba1 F0 2.614720 1_555
Ba1 F10 2.763046 1_655
Ba1 F6 2.795198 1_554
Ba1 O12 2.799308 1_554
Ba1 O2 2.826290 1_554
Ba1 O22 2.848632 1_555
Ba1 F4 2.863703 1_555
Ba1 O8 2.905193 1_555
Ba1 O16 2.921454 1_555
Ba2 F1 2.614720 1_565
Ba2 F9 2.763046 1_555
Ba2 F5 2.795198 1_565
Ba2 O15 2.799308 1_555
Ba2 O1 2.826290 1_555
Ba2 O21 2.848632 1_655
Ba2 F7 2.863703 1_555
Ba2 O11 2.905193 1_665
Ba2 O19 2.921454 1_555
Ba3 F1 2.614720 1_555
Ba3 F8 2.763046 1_555
Ba3 F4 2.795198 1_546
Ba3 O14 2.799308 1_556
Ba3 O0 2.826290 1_556
Ba3 O20 2.848632 1_655
Ba3 F6 2.863703 1_555
Ba3 O10 2.905193 1_645
Ba3 O18 2.921454 1_555
Ba4 F3 2.614720 1_565
Ba4 F4 2.763046 1_555
Ba4 F8 2.795198 1_564
Ba4 O10 2.799308 1_554
Ba4 O4 2.826290 1_554
Ba4 O16 2.848632 1_455
Ba4 F10 2.863703 1_555
Ba4 O14 2.905193 1_465
Ba4 O22 2.921454 1_555
Ba5 F3 2.614720 1_555
Ba5 F5 2.763046 1_555
Ba5 F9 2.795198 1_545
Ba5 O11 2.799308 1_555
Ba5 O5 2.826290 1_555
Ba5 O17 2.848632 1_455
Ba5 F11 2.863703 1_555
Ba5 O15 2.905193 1_445
Ba5 O23 2.921454 1_555
Ba6 F2 2.614720 1_555
Ba6 F6 2.763046 1_455
Ba6 F10 2.795198 1_556
Ba6 O8 2.799308 1_556
Ba6 O6 2.826290 1_556
Ba6 O18 2.848632 1_555
Ba6 F8 2.863703 1_555
Ba6 O12 2.905193 1_555
Ba6 O20 2.921454 1_555
Ba7 F2 2.614720 1_555
Ba7 F7 2.763046 1_455
Ba7 F11 2.795198 1_555
Ba7 O9 2.799308 1_555
Ba7 O7 2.826290 1_555
Ba7 O19 2.848632 1_555
Ba7 F9 2.863703 1_555
Ba7 O13 2.905193 1_555
Ba7 O21 2.921454 1_555
Gd0 O0 2.460950 1_555
Gd0 O1 2.460950 1_545
Gd0 O16 2.471085 1_545
Gd0 O17 2.471085 1_555
Gd0 O14 2.577755 1_555
Gd0 O15 2.577755 1_545
Gd1 O2 2.460950 1_555
Gd1 O3 2.460950 1_555
Gd1 O18 2.471085 1_555
Gd1 O19 2.471085 1_555
Gd1 O12 2.577755 1_555
Gd1 O13 2.577755 1_555
Gd2 O5 2.460950 1_555
Gd2 O4 2.460950 1_545
Gd2 O21 2.471085 1_545
Gd2 O20 2.471085 1_555
Gd2 O10 2.577755 1_545
Gd2 O11 2.577755 1_555
Gd3 O7 2.460950 1_555
Gd3 O6 2.460950 1_555
Gd3 O23 2.471085 1_555
Gd3 O22 2.471085 1_555
Gd3 O9 2.577755 1_555
Gd3 O8 2.577755 1_555
C0 O0 1.281137 1_555
C0 O8 1.305732 1_555
C0 O23 1.310866 1_555
C1 O1 1.281137 1_555
C1 O9 1.305732 1_555
C1 O22 1.310866 1_555
C2 O2 1.281137 1_555
C2 O10 1.305732 1_655
C2 O21 1.310866 1_655
C3 O3 1.281137 1_555
C3 O11 1.305732 1_655
C3 O20 1.310866 1_655
C4 O4 1.281137 1_555
C4 O12 1.305732 1_555
C4 O19 1.310866 1_555
C5 O5 1.281137 1_555
C5 O13 1.305732 1_555
C5 O18 1.310866 1_555
C6 O6 1.281137 1_555
C6 O14 1.305732 1_455
C6 O17 1.310866 1_455
C7 O7 1.281137 1_555
C7 O15 1.305732 1_455
C7 O16 1.310866 1_455
F0 Gd3 2.345538 1_655
F1 Gd2 2.345538 1_555
F2 Gd1 2.345538 1_455
F3 Gd0 2.345538 1_555
F4 Gd0 2.344946 1_565
F5 Gd0 2.344946 1_555
F6 Gd1 2.344946 1_555
F7 Gd1 2.344946 1_555
F8 Gd2 2.344946 1_555
F9 Gd2 2.344946 1_565
F10 Gd3 2.344946 1_555
F11 Gd3 2.344946 1_555
