# generated using pymatgen
data_Li21(CoO4)4
_symmetry_space_group_name_H-M   'P 1'
_cell_length_a   9.37424600
_cell_length_b   9.08905300
_cell_length_c   9.43184988
_cell_angle_alpha   89.80633171
_cell_angle_beta   90.00000000
_cell_angle_gamma   90.00000000
_symmetry_Int_Tables_number   1
_chemical_formula_structural   Li21(CoO4)4
_chemical_formula_sum   'Li42 Co8 O32'
_cell_volume   803.61749124
_cell_formula_units_Z   2
loop_
 _symmetry_equiv_pos_site_id
 _symmetry_equiv_pos_as_xyz
  1  'x, y, z'
loop_
 _atom_site_type_symbol
 _atom_site_label
 _atom_site_symmetry_multiplicity
 _atom_site_fract_x
 _atom_site_fract_y
 _atom_site_fract_z
 _atom_site_occupancy
  Li  Li0  1  0.11406500  0.88814000  0.36405800  1
  Li  Li1  1  0.89121600  0.88273700  0.13505700  1
  Li  Li2  1  0.88593500  0.88814000  0.86405800  1
  Li  Li3  1  0.10878400  0.88273700  0.63505700  1
  Li  Li4  1  0.35818800  0.87927900  0.15985400  1
  Li  Li5  1  0.64181200  0.87927900  0.65985400  1
  Li  Li6  1  0.62787100  0.84742000  0.10181600  1
  Li  Li7  1  0.37212900  0.84742000  0.60181600  1
  Li  Li8  1  0.13689100  0.67259800  0.11488100  1
  Li  Li9  1  0.86310900  0.67259800  0.61488100  1
  Li  Li10  1  0.38188700  0.65566400  0.39256700  1
  Li  Li11  1  0.40861300  0.63308900  0.11976500  1
  Li  Li12  1  0.61811300  0.65566400  0.89256700  1
  Li  Li13  1  0.59138700  0.63308900  0.61976500  1
  Li  Li14  1  0.86696800  0.61249600  0.13903200  1
  Li  Li15  1  0.13303200  0.61249600  0.63903200  1
  Li  Li16  1  0.85444000  0.64844900  0.37772900  1
  Li  Li17  1  0.14556000  0.64844900  0.87772900  1
  Li  Li18  1  0.61939400  0.60429900  0.35261200  1
  Li  Li19  1  0.38060600  0.60429900  0.85261200  1
  Li  Li20  1  0.11404000  0.39398400  0.14897600  1
  Li  Li21  1  0.88596000  0.39398400  0.64897600  1
  Li  Li22  1  0.35494600  0.38635800  0.11496000  1
  Li  Li23  1  0.64505400  0.38635800  0.61496000  1
  Li  Li24  1  0.89692200  0.37113500  0.37956300  1
  Li  Li25  1  0.36702900  0.38042700  0.36157000  1
  Li  Li26  1  0.10307800  0.37113500  0.87956300  1
  Li  Li27  1  0.63297100  0.38042700  0.86157000  1
  Li  Li28  1  0.87068100  0.33743300  0.11324900  1
  Li  Li29  1  0.12931900  0.33743300  0.61324900  1
  Li  Li30  1  0.63124700  0.33162600  0.37470600  1
  Li  Li31  1  0.36875300  0.33162600  0.87470600  1
  Li  Li32  1  0.13510700  0.16126100  0.39508900  1
  Li  Li33  1  0.37136400  0.13493600  0.10745700  1
  Li  Li34  1  0.86489300  0.16126100  0.89508900  1
  Li  Li35  1  0.62863600  0.13493600  0.60745700  1
  Li  Li36  1  0.62799400  0.11973300  0.13726300  1
  Li  Li37  1  0.39504500  0.11609900  0.37413100  1
  Li  Li38  1  0.37200600  0.11973300  0.63726300  1
  Li  Li39  1  0.60495500  0.11609900  0.87413100  1
  Li  Li40  1  0.86502100  0.10117300  0.34785900  1
  Li  Li41  1  0.13497900  0.10117300  0.84785900  1
  Co  Co0  1  0.61951900  0.88863800  0.37852700  1
  Co  Co1  1  0.38048100  0.88863800  0.87852700  1
  Co  Co2  1  0.11880900  0.60648400  0.37544200  1
  Co  Co3  1  0.88119100  0.60648400  0.87544200  1
  Co  Co4  1  0.61847500  0.39758800  0.12105200  1
  Co  Co5  1  0.38152500  0.39758800  0.62105200  1
  Co  Co6  1  0.10334000  0.11084900  0.12428500  1
  Co  Co7  1  0.89666000  0.11084900  0.62428500  1
  O  O0  1  0.48922900  0.99009600  0.01161700  1
  O  O1  1  0.51077100  0.99009600  0.51161700  1
  O  O2  1  0.73347100  0.97400700  0.24389600  1
  O  O3  1  0.26652900  0.97400700  0.74389600  1
  O  O4  1  0.71492200  0.74458700  0.49557300  1
  O  O5  1  0.50431100  0.75808600  0.25776800  1
  O  O6  1  0.28507800  0.74458700  0.99557300  1
  O  O7  1  0.49568900  0.75808600  0.75776800  1
  O  O8  1  0.78150500  0.74134600  0.99432100  1
  O  O9  1  0.21849500  0.74134600  0.49432100  1
  O  O10  1  0.00258900  0.72975500  0.25738000  1
  O  O11  1  0.99741100  0.72975500  0.75738000  1
  O  O12  1  0.25199100  0.52762400  0.24629500  1
  O  O13  1  0.74800900  0.52762400  0.74629500  1
  O  O14  1  0.00507100  0.51702400  0.00506000  1
  O  O15  1  0.99492900  0.51702400  0.50506000  1
  O  O16  1  0.51024100  0.49106000  0.48484400  1
  O  O17  1  0.48975900  0.49106000  0.98484400  1
  O  O18  1  0.75978300  0.47889300  0.25733300  1
  O  O19  1  0.24021700  0.47889300  0.75733300  1
  O  O20  1  0.48642000  0.26139200  0.23352100  1
  O  O21  1  0.22293200  0.25346300  0.01337000  1
  O  O22  1  0.27956100  0.25403600  0.50090600  1
  O  O23  1  0.51358000  0.26139200  0.73352100  1
  O  O24  1  0.00045100  0.24489500  0.24668900  1
  O  O25  1  0.77706800  0.25346300  0.51337000  1
  O  O26  1  0.72043900  0.25403600  0.00090600  1
  O  O27  1  0.99954900  0.24489500  0.74668900  1
  O  O28  1  0.23671100  0.02925800  0.24669000  1
  O  O29  1  0.76328900  0.02925800  0.74669000  1
  O  O30  1  0.00772100  0.02019300  0.49552300  1
  O  O31  1  0.99227900  0.02019300  0.99552300  1
loop_
_geom_bond_atom_site_label_1
_geom_bond_atom_site_label_2
_geom_bond_distance
_geom_bond_site_symmetry_2
Li0 O30 1.995476 1_565
Li0 O28 2.045195 1_565
Li0 O10 2.046110 1_555
Li0 O9 2.058377 1_555
Li1 O2 1.983534 1_555
Li1 O31 2.044338 1_564
Li1 O10 2.084143 1_655
Li1 O8 2.117253 1_554
Li2 O31 1.995476 1_565
Li2 O29 2.045195 1_565
Li2 O11 2.046110 1_555
Li2 O8 2.058377 1_555
Li3 O3 1.983534 1_555
Li3 O30 2.044338 1_565
Li3 O11 2.084143 1_455
Li3 O9 2.117253 1_555
Li4 O28 1.957891 1_565
Li4 O5 1.983858 1_555
Li4 O6 2.093351 1_554
Li4 O0 2.113951 1_555
Li5 O29 1.957891 1_565
Li5 O7 1.983858 1_555
Li5 O4 2.093351 1_555
Li5 O1 2.113951 1_555
Li6 O8 2.009540 1_554
Li6 O0 2.021657 1_555
Li6 O2 2.027302 1_555
Li6 O5 2.038729 1_555
Li7 O9 2.009540 1_555
Li7 O1 2.021657 1_555
Li7 O3 2.027302 1_555
Li7 O7 2.038729 1_555
Li8 O6 1.902406 1_554
Li8 O10 1.914693 1_555
Li8 O12 2.103740 1_555
Li8 O14 2.146918 1_555
Li9 O4 1.902406 1_555
Li9 O11 1.914693 1_555
Li9 O13 2.103740 1_555
Li9 O15 2.146918 1_555
Li10 O5 1.947341 1_555
Li10 O9 1.969428 1_555
Li10 O16 2.105881 1_555
Li10 O12 2.179742 1_555
Li11 O6 1.931874 1_554
Li11 O5 1.949291 1_555
Li11 O17 1.968651 1_554
Li11 O12 2.119202 1_555
Li12 O7 1.947341 1_555
Li12 O8 1.969428 1_555
Li12 O17 2.105881 1_555
Li12 O13 2.179742 1_555
Li13 O4 1.931874 1_555
Li13 O7 1.949291 1_555
Li13 O16 1.968651 1_555
Li13 O13 2.119202 1_555
Li14 O18 1.928732 1_555
Li14 O8 1.966088 1_554
Li14 O10 2.001556 1_655
Li14 O14 2.008262 1_655
Li15 O19 1.928732 1_555
Li15 O9 1.966088 1_555
Li15 O11 2.001556 1_455
Li15 O15 2.008262 1_455
Li16 O4 1.927704 1_555
Li16 O10 1.938466 1_655
Li16 O18 2.112744 1_555
Li16 O15 2.143351 1_555
Li17 O6 1.927704 1_555
Li17 O11 1.938466 1_455
Li17 O19 2.112744 1_555
Li17 O14 2.143351 1_556
Li18 O16 1.911316 1_555
Li18 O18 1.961037 1_555
Li18 O5 1.977221 1_555
Li18 O4 2.063380 1_555
Li19 O17 1.911316 1_555
Li19 O19 1.961037 1_555
Li19 O7 1.977221 1_555
Li19 O6 2.063380 1_555
Li20 O24 1.952176 1_555
Li20 O12 1.999452 1_555
Li20 O14 2.031344 1_555
Li20 O21 2.078500 1_555
Li21 O27 1.952176 1_555
Li21 O13 1.999452 1_555
Li21 O15 2.031344 1_555
Li21 O25 2.078500 1_555
Li22 O21 1.978994 1_555
Li22 O17 2.000237 1_554
Li22 O20 2.012702 1_555
Li22 O12 2.031075 1_555
Li23 O25 1.978994 1_555
Li23 O16 2.000237 1_555
Li23 O23 2.012702 1_555
Li23 O13 2.031075 1_555
Li24 O24 1.959277 1_655
Li24 O18 1.983281 1_555
Li24 O25 1.997466 1_555
Li24 O15 2.003503 1_555
Li25 O22 1.925851 1_555
Li25 O20 1.972465 1_555
Li25 O12 2.031048 1_555
Li25 O16 2.042848 1_555
Li26 O27 1.959277 1_455
Li26 O19 1.983281 1_555
Li26 O21 1.997466 1_556
Li26 O14 2.003503 1_556
Li27 O26 1.925851 1_556
Li27 O23 1.972465 1_555
Li27 O13 2.031048 1_555
Li27 O17 2.042848 1_555
Li28 O26 1.919989 1_555
Li28 O24 1.940146 1_655
Li28 O18 2.143010 1_555
Li28 O14 2.298163 1_655
Li29 O22 1.919989 1_555
Li29 O27 1.940146 1_455
Li29 O19 2.143010 1_555
Li29 O15 2.298163 1_455
Li30 O20 2.007412 1_555
Li30 O25 2.019283 1_555
Li30 O18 2.111637 1_555
Li30 O16 2.115638 1_555
Li31 O23 2.007412 1_555
Li31 O21 2.019283 1_556
Li31 O19 2.111637 1_555
Li31 O17 2.115638 1_555
Li32 O22 1.883230 1_555
Li32 O30 1.989745 1_555
Li32 O24 2.030557 1_555
Li32 O28 2.077765 1_555
Li33 O0 1.943971 1_545
Li33 O21 1.969191 1_555
Li33 O20 1.976699 1_555
Li33 O28 2.057169 1_555
Li34 O26 1.883230 1_556
Li34 O31 1.989745 1_555
Li34 O27 2.030557 1_555
Li34 O29 2.077765 1_555
Li35 O1 1.943971 1_545
Li35 O25 1.969191 1_555
Li35 O23 1.976699 1_555
Li35 O29 2.057169 1_555
Li36 O2 1.932488 1_545
Li36 O26 1.970917 1_555
Li36 O20 2.061861 1_555
Li36 O0 2.119977 1_545
Li37 O1 2.039606 1_545
Li37 O22 2.045400 1_555
Li37 O20 2.055392 1_555
Li37 O28 2.068154 1_555
Li38 O3 1.932488 1_545
Li38 O22 1.970917 1_555
Li38 O23 2.061861 1_555
Li38 O1 2.119977 1_545
Li39 O0 2.039606 1_546
Li39 O26 2.045400 1_556
Li39 O23 2.055392 1_555
Li39 O29 2.068154 1_555
Li40 O2 1.955971 1_545
Li40 O24 2.054334 1_655
Li40 O30 2.064947 1_655
Li40 O25 2.246616 1_555
Li41 O3 1.955971 1_545
Li41 O27 2.054334 1_455
Li41 O31 2.064947 1_455
Li41 O21 2.246616 1_556
Co0 O2 1.830005 1_555
Co0 O1 1.863646 1_555
Co0 O4 1.929512 1_555
Co0 O5 1.969973 1_555
Co1 O3 1.830005 1_555
Co1 O0 1.863646 1_556
Co1 O6 1.929512 1_555
Co1 O7 1.969973 1_555
Co2 O15 1.870186 1_455
Co2 O12 1.887356 1_555
Co2 O9 1.908469 1_555
Co2 O10 1.916724 1_555
Co3 O14 1.870186 1_656
Co3 O13 1.887356 1_555
Co3 O8 1.908469 1_555
Co3 O11 1.916724 1_555
Co4 O17 1.954674 1_554
Co4 O26 1.977406 1_555
Co4 O18 1.989834 1_555
Co4 O20 2.044802 1_555
Co5 O16 1.954674 1_555
Co5 O22 1.977406 1_555
Co5 O19 1.989834 1_555
Co5 O23 2.044802 1_555
Co6 O31 1.801261 1_454
Co6 O28 1.854771 1_555
Co6 O24 1.938304 1_555
Co6 O21 2.005558 1_555
Co7 O30 1.801261 1_655
Co7 O29 1.854771 1_555
Co7 O27 1.938304 1_555
Co7 O25 2.005558 1_555
