# generated using pymatgen
data_Ba4PtO6
_symmetry_space_group_name_H-M   'P 1'
_cell_length_a   7.31973219
_cell_length_b   7.31973219
_cell_length_c   7.31973186
_cell_angle_alpha   89.43398305
_cell_angle_beta   89.43398305
_cell_angle_gamma   89.43398627
_symmetry_Int_Tables_number   1
_chemical_formula_structural   Ba4PtO6
_chemical_formula_sum   'Ba8 Pt2 O12'
_cell_volume   392.12306787
_cell_formula_units_Z   2
loop_
 _symmetry_equiv_pos_site_id
 _symmetry_equiv_pos_as_xyz
  1  'x, y, z'
loop_
 _atom_site_type_symbol
 _atom_site_label
 _atom_site_symmetry_multiplicity
 _atom_site_fract_x
 _atom_site_fract_y
 _atom_site_fract_z
 _atom_site_occupancy
  Ba  Ba0  1  0.25000000  0.25000000  0.25000000  1
  Ba  Ba1  1  0.75000000  0.75000000  0.75000000  1
  Ba  Ba2  1  0.75000000  0.11905965  0.38094035  1
  Ba  Ba3  1  0.38094035  0.75000000  0.11905965  1
  Ba  Ba4  1  0.11905965  0.38094035  0.75000000  1
  Ba  Ba5  1  0.25000000  0.88094035  0.61905965  1
  Ba  Ba6  1  0.61905965  0.25000000  0.88094035  1
  Ba  Ba7  1  0.88094035  0.61905965  0.25000000  1
  Pt  Pt0  1  -0.00000000  0.00000000  0.00000000  1
  Pt  Pt1  1  0.50000000  0.50000000  0.50000000  1
  O  O0  1  0.57270068  0.77082295  0.43888914  1
  O  O1  1  0.43888914  0.57270068  0.77082295  1
  O  O2  1  0.77082295  0.43888914  0.57270068  1
  O  O3  1  0.92729932  0.06111086  0.72917705  1
  O  O4  1  0.72917705  0.92729932  0.06111086  1
  O  O5  1  0.06111086  0.72917705  0.92729932  1
  O  O6  1  0.42729932  0.22917705  0.56111086  1
  O  O7  1  0.56111086  0.42729932  0.22917705  1
  O  O8  1  0.22917705  0.56111086  0.42729932  1
  O  O9  1  0.07270068  0.93888914  0.27082295  1
  O  O10  1  0.93888914  0.27082295  0.07270068  1
  O  O11  1  0.27082295  0.07270068  0.93888914  1
loop_
_geom_bond_atom_site_label_1
_geom_bond_atom_site_label_2
_geom_bond_distance
_geom_bond_site_symmetry_2
Ba0 O6 2.634570 1_555
Ba0 O11 2.634570 1_554
Ba0 O7 2.634570 1_555
Ba0 O9 2.634570 1_545
Ba0 O10 2.634570 1_455
Ba0 O8 2.634570 1_555
Ba1 O0 2.634570 1_555
Ba1 O4 2.634570 1_556
Ba1 O1 2.634570 1_555
Ba1 O3 2.634570 1_565
Ba1 O2 2.634570 1_555
Ba1 O5 2.634570 1_655
Ba2 O4 2.747765 1_545
Ba2 O2 2.747765 1_555
Ba2 O6 2.808948 1_555
Ba2 O9 2.808948 1_645
Ba2 O10 2.855772 1_555
Ba2 O7 2.855772 1_555
Ba2 O3 2.897357 1_555
Ba2 O0 2.897357 1_545
Ba3 O0 2.747765 1_555
Ba3 O5 2.747765 1_554
Ba3 O11 2.808948 1_564
Ba3 O7 2.808948 1_555
Ba3 O8 2.855772 1_555
Ba3 O9 2.855772 1_555
Ba3 O1 2.897357 1_554
Ba3 O4 2.897357 1_555
Ba4 O1 2.747765 1_555
Ba4 O3 2.747765 1_455
Ba4 O8 2.808948 1_555
Ba4 O10 2.808948 1_456
Ba4 O11 2.855772 1_555
Ba4 O6 2.855772 1_555
Ba4 O2 2.897357 1_455
Ba4 O5 2.897357 1_555
Ba5 O11 2.747765 1_565
Ba5 O8 2.747765 1_555
Ba5 O0 2.808948 1_555
Ba5 O3 2.808948 1_465
Ba5 O5 2.855772 1_555
Ba5 O1 2.855772 1_555
Ba5 O9 2.897357 1_555
Ba5 O6 2.897357 1_565
Ba6 O6 2.747765 1_555
Ba6 O10 2.747765 1_556
Ba6 O4 2.808948 1_546
Ba6 O1 2.808948 1_555
Ba6 O2 2.855772 1_555
Ba6 O3 2.855772 1_555
Ba6 O7 2.897357 1_556
Ba6 O11 2.897357 1_555
Ba7 O7 2.747765 1_555
Ba7 O9 2.747765 1_655
Ba7 O2 2.808948 1_555
Ba7 O5 2.808948 1_654
Ba7 O0 2.855772 1_555
Ba7 O4 2.855772 1_555
Ba7 O10 2.897357 1_555
Ba7 O8 2.897357 1_655
O0 Pt1 2.100383 1_555
O1 Pt1 2.100383 1_555
O2 Pt1 2.100384 1_555
O3 Pt0 2.100383 1_656
O4 Pt0 2.100383 1_665
O5 Pt0 2.100384 1_566
O6 Pt1 2.100383 1_555
O7 Pt1 2.100383 1_555
O8 Pt1 2.100384 1_555
O9 Pt0 2.100383 1_565
O10 Pt0 2.100384 1_655
O11 Pt0 2.100383 1_556
