# generated using pymatgen
data_KTm2Cu3Se5
_symmetry_space_group_name_H-M   'P 1'
_cell_length_a   7.42606476
_cell_length_b   7.42606476
_cell_length_c   16.75390545
_cell_angle_alpha   90.00000000
_cell_angle_beta   90.00000000
_cell_angle_gamma   148.25140571
_symmetry_Int_Tables_number   1
_chemical_formula_structural   KTm2Cu3Se5
_chemical_formula_sum   'K2 Tm4 Cu6 Se10'
_cell_volume   486.15934875
_cell_formula_units_Z   2
loop_
 _symmetry_equiv_pos_site_id
 _symmetry_equiv_pos_as_xyz
  1  'x, y, z'
loop_
 _atom_site_type_symbol
 _atom_site_label
 _atom_site_symmetry_multiplicity
 _atom_site_fract_x
 _atom_site_fract_y
 _atom_site_fract_z
 _atom_site_occupancy
  K  K0  1  0.93866531  0.06133469  0.75000000  1
  K  K1  1  0.06133469  0.93866531  0.25000000  1
  Tm  Tm0  1  0.80701226  0.19298774  0.40644865  1
  Tm  Tm1  1  0.19298774  0.80701226  0.90644865  1
  Tm  Tm2  1  0.19298774  0.80701226  0.59355135  1
  Tm  Tm3  1  0.80701226  0.19298774  0.09355135  1
  Cu  Cu0  1  0.58246176  0.41753824  0.47064357  1
  Cu  Cu1  1  0.41753824  0.58246176  0.97064357  1
  Cu  Cu2  1  0.41753824  0.58246176  0.52935643  1
  Cu  Cu3  1  0.58246176  0.41753824  0.02935643  1
  Cu  Cu4  1  0.34040688  0.65959312  0.25000000  1
  Cu  Cu5  1  0.65959312  0.34040688  0.75000000  1
  Se  Se0  1  0.74913648  0.25086352  0.25000000  1
  Se  Se1  1  0.25086352  0.74913648  0.75000000  1
  Se  Se2  1  0.43931599  0.56068401  0.38062833  1
  Se  Se3  1  0.56068401  0.43931599  0.88062833  1
  Se  Se4  1  0.56068401  0.43931599  0.61937167  1
  Se  Se5  1  0.43931599  0.56068401  0.11937167  1
  Se  Se6  1  0.83461340  0.16538660  0.57099667  1
  Se  Se7  1  0.16538660  0.83461340  0.07099667  1
  Se  Se8  1  0.16538660  0.83461340  0.42900333  1
  Se  Se9  1  0.83461340  0.16538660  0.92900333  1
loop_
_geom_bond_atom_site_label_1
_geom_bond_atom_site_label_2
_geom_bond_distance
_geom_bond_site_symmetry_2
K0 Se9 3.347176 1_555
K0 Se6 3.347176 1_555
K0 Se1 3.365084 1_545
K0 Se1 3.365084 1_655
K0 Se3 3.457468 1_655
K0 Se4 3.457468 1_545
K0 Se4 3.457468 1_655
K0 Se3 3.457468 1_545
K1 Se7 3.347176 1_555
K1 Se8 3.347176 1_555
K1 Se0 3.365084 1_565
K1 Se0 3.365084 1_455
K1 Se5 3.457468 1_455
K1 Se2 3.457468 1_455
K1 Se5 3.457468 1_565
K1 Se2 3.457468 1_565
Cu0 Se8 2.452751 1_655
Cu0 Se8 2.452751 1_545
Cu0 Se4 2.511123 1_555
Cu0 Se2 2.540900 1_555
Cu1 Se9 2.452751 1_565
Cu1 Se9 2.452751 1_455
Cu1 Se5 2.511123 1_556
Cu1 Se3 2.540900 1_555
Cu2 Se6 2.452751 1_565
Cu2 Se6 2.452751 1_455
Cu2 Se2 2.511123 1_555
Cu2 Se4 2.540900 1_555
Cu3 Se7 2.452751 1_655
Cu3 Se7 2.452751 1_545
Cu3 Se3 2.511123 1_554
Cu3 Se5 2.540900 1_555
Cu4 Se0 2.413706 1_455
Cu4 Se0 2.413706 1_565
Cu4 Se2 2.605038 1_555
Cu4 Se5 2.605038 1_555
Cu5 Se1 2.413706 1_545
Cu5 Se1 2.413706 1_655
Cu5 Se4 2.605038 1_555
Cu5 Se3 2.605038 1_555
Se0 Tm3 2.748435 1_555
Se0 Tm0 2.748435 1_555
Se1 Tm1 2.748435 1_555
Se1 Tm2 2.748435 1_555
Se2 Tm0 2.808088 1_455
Se2 Tm0 2.808088 1_565
Se3 Tm1 2.808088 1_655
Se3 Tm1 2.808088 1_545
Se4 Tm2 2.808088 1_655
Se4 Tm2 2.808088 1_545
Se5 Tm3 2.808088 1_455
Se5 Tm3 2.808088 1_565
Se6 Tm0 2.784877 1_555
Se6 Tm2 2.891738 1_545
Se6 Tm2 2.891738 1_655
Se7 Tm1 2.784877 1_554
Se7 Tm3 2.891738 1_455
Se7 Tm3 2.891738 1_565
Se8 Tm2 2.784877 1_555
Se8 Tm0 2.891738 1_565
Se8 Tm0 2.891738 1_455
Se9 Tm3 2.784877 1_556
Se9 Tm1 2.891738 1_545
Se9 Tm1 2.891738 1_655
