# generated using pymatgen
data_Eu(PRh)2
_symmetry_space_group_name_H-M   'P 1'
_cell_length_a   5.71396959
_cell_length_b   5.71396959
_cell_length_c   5.71396959
_cell_angle_alpha   138.78867756
_cell_angle_beta   138.78867756
_cell_angle_gamma   59.69722394
_symmetry_Int_Tables_number   1
_chemical_formula_structural   Eu(PRh)2
_chemical_formula_sum   'Eu1 P2 Rh2'
_cell_volume   80.16553120
_cell_formula_units_Z   1
loop_
 _symmetry_equiv_pos_site_id
 _symmetry_equiv_pos_as_xyz
  1  'x, y, z'
loop_
 _atom_site_type_symbol
 _atom_site_label
 _atom_site_symmetry_multiplicity
 _atom_site_fract_x
 _atom_site_fract_y
 _atom_site_fract_z
 _atom_site_occupancy
  Eu  Eu0  1  0.00000000  -0.00000000  0.00000000  1
  P  P0  1  0.61562179  0.61562179  -0.00000000  1
  P  P1  1  0.38437821  0.38437821  0.00000000  1
  Rh  Rh0  1  0.75000000  0.25000000  0.50000000  1
  Rh  Rh1  1  0.25000000  0.75000000  0.50000000  1
loop_
_geom_bond_atom_site_label_1
_geom_bond_atom_site_label_2
_geom_bond_distance
_geom_bond_site_symmetry_2
Eu0 P1 3.066132 1_455
Eu0 P1 3.066132 1_545
Eu0 P0 3.066132 1_556
Eu0 P1 3.066132 1_556
Eu0 P0 3.066132 1_444
Eu0 P0 3.066132 1_455
Eu0 P1 3.066132 1_444
Eu0 P0 3.066132 1_545
Eu0 Rh1 3.191286 1_444
Eu0 Rh1 3.191286 1_544
Eu0 Rh1 3.191286 1_555
Eu0 Rh1 3.191286 1_545
Eu0 Rh0 3.191286 1_455
Eu0 Rh0 3.191286 1_454
Eu0 Rh0 3.191286 1_555
Eu0 Rh0 3.191286 1_444
P0 P1 2.292074 1_555
P0 Rh1 2.412048 1_554
P0 Rh1 2.412048 1_655
P0 Rh0 2.412048 1_565
P0 Rh0 2.412048 1_554
P1 Rh1 2.412048 1_544
P1 Rh0 2.412048 1_555
P1 Rh0 2.412048 1_454
P1 Rh1 2.412048 1_555
Rh0 Rh1 2.843900 1_645
Rh0 Rh1 2.843900 1_656
Rh0 Rh1 2.843900 1_544
Rh0 Rh1 2.843900 1_555
