# generated using pymatgen
data_TmCdAg2
_symmetry_space_group_name_H-M   'P 1'
_cell_length_a   4.84998338
_cell_length_b   4.84998338
_cell_length_c   4.84998338
_cell_angle_alpha   60.17016001
_cell_angle_beta   60.17016001
_cell_angle_gamma   60.17016001
_symmetry_Int_Tables_number   1
_chemical_formula_structural   TmCdAg2
_chemical_formula_sum   'Tm1 Cd1 Ag2'
_cell_volume   80.97970990
_cell_formula_units_Z   1
loop_
 _symmetry_equiv_pos_site_id
 _symmetry_equiv_pos_as_xyz
  1  'x, y, z'
loop_
 _atom_site_type_symbol
 _atom_site_label
 _atom_site_symmetry_multiplicity
 _atom_site_fract_x
 _atom_site_fract_y
 _atom_site_fract_z
 _atom_site_occupancy
  Tm  Tm0  1  0.75000000  0.75000000  0.75000000  1
  Cd  Cd0  1  0.25000200  0.25000200  0.25000200  1
  Ag  Ag0  1  0.49968566  0.49968566  0.49968566  1
  Ag  Ag1  1  0.00031134  0.00031134  0.00031134  1
loop_
_geom_bond_atom_site_label_1
_geom_bond_atom_site_label_2
_geom_bond_distance
_geom_bond_site_symmetry_2
Ag0 Cd0 2.962418 1_555
Ag0 Tm0 2.969901 1_555
Ag0 Tm0 2.975124 1_545
Ag0 Tm0 2.975124 1_455
Ag0 Tm0 2.975124 1_554
Ag0 Cd0 2.977609 1_655
Ag0 Cd0 2.977609 1_556
Ag0 Cd0 2.977609 1_565
Ag1 Cd0 2.962501 1_555
Ag1 Tm0 2.969865 1_444
Ag1 Tm0 2.975135 1_454
Ag1 Tm0 2.975135 1_445
Ag1 Tm0 2.975135 1_544
Ag1 Cd0 2.977582 1_545
Ag1 Cd0 2.977582 1_455
Ag1 Cd0 2.977582 1_554
