# generated using pymatgen
data_LiVP3HO10
_symmetry_space_group_name_H-M   'P 1'
_cell_length_a   6.51199300
_cell_length_b   7.90841865
_cell_length_c   8.55310090
_cell_angle_alpha   96.17797114
_cell_angle_beta   97.31490256
_cell_angle_gamma   110.47871871
_symmetry_Int_Tables_number   1
_chemical_formula_structural   LiVP3HO10
_chemical_formula_sum   'Li2 V2 P6 H2 O20'
_cell_volume   403.75994336
_cell_formula_units_Z   2
loop_
 _symmetry_equiv_pos_site_id
 _symmetry_equiv_pos_as_xyz
  1  'x, y, z'
loop_
 _atom_site_type_symbol
 _atom_site_label
 _atom_site_symmetry_multiplicity
 _atom_site_fract_x
 _atom_site_fract_y
 _atom_site_fract_z
 _atom_site_occupancy
  Li  Li0  1  0.70669900  0.96863500  0.69969500  1
  Li  Li1  1  0.29330100  0.03136500  0.30030500  1
  V  V0  1  0.12951100  0.33755800  0.66428500  1
  V  V1  1  0.87048900  0.66244200  0.33571500  1
  P  P0  1  0.73400200  0.90267100  0.07847100  1
  P  P1  1  0.37156400  0.66983600  0.22856400  1
  P  P2  1  0.80842700  0.21406100  0.32965900  1
  P  P3  1  0.19157300  0.78593900  0.67034100  1
  P  P4  1  0.62843600  0.33016400  0.77143600  1
  P  P5  1  0.26599800  0.09732900  0.92152900  1
  H  H0  1  0.11918600  0.39913900  0.12892000  1
  H  H1  1  0.88081400  0.60086100  0.87108000  1
  O  O0  1  0.73015000  0.88450100  0.90419300  1
  O  O1  1  0.55207300  0.64544600  0.34423600  1
  O  O2  1  0.48366200  0.81200300  0.11310700  1
  O  O3  1  0.24444100  0.49241600  0.09748300  1
  O  O4  1  0.11908900  0.17625800  0.82272200  1
  O  O5  1  0.02692500  0.22527200  0.43954000  1
  O  O6  1  0.81912200  0.11571900  0.15343500  1
  O  O7  1  0.40088200  0.89590800  0.61986600  1
  O  O8  1  0.20878200  0.73670200  0.30150000  1
  O  O9  1  0.83845000  0.40795800  0.29648900  1
  O  O10  1  0.16155000  0.59204200  0.70351100  1
  O  O11  1  0.79121800  0.26329800  0.69850000  1
  O  O12  1  0.59911800  0.10409200  0.38013400  1
  O  O13  1  0.18087800  0.88428100  0.84656500  1
  O  O14  1  0.97307500  0.77472800  0.56046000  1
  O  O15  1  0.88091100  0.82374200  0.17727800  1
  O  O16  1  0.75555900  0.50758400  0.90251700  1
  O  O17  1  0.51633800  0.18799700  0.88689300  1
  O  O18  1  0.44792700  0.35455400  0.65576400  1
  O  O19  1  0.26985000  0.11549900  0.09580700  1
loop_
_geom_bond_atom_site_label_1
_geom_bond_atom_site_label_2
_geom_bond_distance
_geom_bond_site_symmetry_2
Li0 O7 1.879027 1_555
Li0 O0 1.943946 1_555
Li0 O11 2.200575 1_565
Li1 O12 1.879027 1_555
Li1 O19 1.943946 1_555
Li1 O8 2.200575 1_545
H0 O3 0.979432 1_555
H1 O16 0.979432 1_555
O0 P0 1.478199 1_556
O1 P1 1.517019 1_555
O1 V1 2.041678 1_555
O2 P0 1.615636 1_555
O2 P1 1.618765 1_555
O3 P1 1.588497 1_555
O4 P5 1.531195 1_555
O4 V0 1.950156 1_555
O5 P2 1.571282 1_455
O5 V0 1.954596 1_555
O6 P0 1.606439 1_545
O6 P2 1.641303 1_555
O7 P3 1.483832 1_555
O8 P1 1.510659 1_555
O8 V1 2.139970 1_455
O9 P2 1.538854 1_555
O9 V1 1.936375 1_555
O10 P3 1.538854 1_555
O10 V0 1.936375 1_555
O11 P4 1.510659 1_555
O11 V0 2.139970 1_655
O12 P2 1.483832 1_555
O13 P5 1.606439 1_565
O13 P3 1.641303 1_555
O14 P3 1.571282 1_655
O14 V1 1.954596 1_555
O15 P0 1.531195 1_555
O15 V1 1.950156 1_555
O16 P4 1.588497 1_555
O17 P5 1.615636 1_555
O17 P4 1.618765 1_555
O18 P4 1.517019 1_555
O18 V0 2.041678 1_555
O19 P5 1.478199 1_554
