# generated using pymatgen
data_LiVPO4
_symmetry_space_group_name_H-M   'P 1'
_cell_length_a   4.93734031
_cell_length_b   4.93725104
_cell_length_c   16.18252832
_cell_angle_alpha   90.00001764
_cell_angle_beta   81.22608238
_cell_angle_gamma   119.99986164
_symmetry_Int_Tables_number   1
_chemical_formula_structural   LiVPO4
_chemical_formula_sum   'Li4 V4 P4 O16'
_cell_volume   336.28900051
_cell_formula_units_Z   4
loop_
 _symmetry_equiv_pos_site_id
 _symmetry_equiv_pos_as_xyz
  1  'x, y, z'
loop_
 _atom_site_type_symbol
 _atom_site_label
 _atom_site_symmetry_multiplicity
 _atom_site_fract_x
 _atom_site_fract_y
 _atom_site_fract_z
 _atom_site_occupancy
  Li  Li0  1  0.99509500  0.99754900  0.00737600  1
  Li  Li1  1  0.99509300  0.49754700  0.50737800  1
  Li  Li2  1  0.42943100  0.21471800  0.35586300  1
  Li  Li3  1  0.42942800  0.71471600  0.85586500  1
  V  V0  1  0.87434600  0.43717500  0.68846900  1
  V  V1  1  0.55014000  0.27506900  0.17479300  1
  V  V2  1  0.87434600  0.93717500  0.18847100  1
  V  V3  1  0.55014300  0.77506800  0.67478800  1
  P  P0  1  0.28945600  0.64472500  0.06580800  1
  P  P1  1  0.28946100  0.14472800  0.56580200  1
  P  P2  1  0.13500600  0.56750400  0.29747700  1
  P  P3  1  0.13500900  0.06750400  0.79747100  1
  O  O0  1  0.35217500  0.17608800  0.47176700  1
  O  O1  1  0.35217300  0.67608500  0.97177200  1
  O  O2  1  0.07233500  0.53616400  0.39148200  1
  O  O3  1  0.07234100  0.03616700  0.89147700  1
  O  O4  1  0.18145300  0.89054600  0.26320600  1
  O  O5  1  0.18145600  0.39054700  0.76319900  1
  O  O6  1  0.57823000  0.92135400  0.10005800  1
  O  O7  1  0.57823200  0.42135700  0.60005200  1
  O  O8  1  0.24306700  0.32170900  0.10005800  1
  O  O9  1  0.24307300  0.82171300  0.60005200  1
  O  O10  1  0.44587300  0.55534300  0.26320300  1
  O  O11  1  0.44587700  0.05534400  0.76319600  1
  O  O12  1  0.84625000  0.29091100  0.26320200  1
  O  O13  1  0.84625200  0.79091100  0.76319600  1
  O  O14  1  0.97859400  0.65687500  0.10005700  1
  O  O15  1  0.97859800  0.15687400  0.60005100  1
loop_
_geom_bond_atom_site_label_1
_geom_bond_atom_site_label_2
_geom_bond_distance
_geom_bond_site_symmetry_2
Li0 O3 1.846217 1_664
Li0 O8 2.215998 1_665
Li0 O14 2.216048 1_555
Li0 O6 2.216121 1_555
Li1 O2 1.846170 1_655
Li1 O9 2.215924 1_655
Li1 O15 2.215971 1_555
Li1 O7 2.216044 1_555
Li2 O0 1.846297 1_555
Li2 O4 2.215725 1_545
Li2 O10 2.215771 1_555
Li2 O12 2.215774 1_555
Li3 O1 1.846345 1_555
Li3 O5 2.215821 1_555
Li3 O13 2.215858 1_555
Li3 O11 2.215864 1_565
O0 P1 1.497934 1_555
O1 P0 1.497950 1_556
O2 P2 1.497456 1_555
O3 P3 1.497472 1_555
O4 P2 1.580961 1_555
O4 V1 2.171289 1_565
O4 V2 2.173319 1_455
O5 P3 1.580971 1_555
O5 V3 2.171267 1_555
O5 V0 2.173275 1_455
O6 P0 1.580881 1_555
O6 V2 2.171312 1_555
O6 V1 2.173191 1_565
O7 P1 1.580874 1_555
O7 V0 2.171359 1_555
O7 V3 2.173182 1_555
O8 P0 1.580847 1_555
O8 V2 2.171364 1_445
O8 V1 2.173203 1_555
O9 P1 1.580845 1_565
O9 V0 2.171417 1_455
O9 V3 2.173213 1_555
O10 P2 1.580969 1_555
O10 V1 2.171278 1_555
O10 V2 2.173309 1_555
O11 P3 1.580975 1_555
O11 V3 2.171263 1_545
O11 V0 2.173265 1_555
O12 P2 1.580959 1_655
O12 V1 2.171210 1_555
O12 V2 2.173254 1_545
O13 P3 1.580962 1_665
O13 V3 2.171192 1_555
O13 V0 2.173215 1_555
O14 P0 1.580836 1_655
O14 V2 2.171373 1_555
O14 V1 2.173244 1_555
O15 P1 1.580830 1_655
O15 V0 2.171426 1_555
O15 V3 2.173253 1_545
