# generated using pymatgen
data_InC6(NCl3)2
_symmetry_space_group_name_H-M   'P 1'
_cell_length_a   17.12381983
_cell_length_b   17.12381983
_cell_length_c   17.12381983
_cell_angle_alpha   101.10584130
_cell_angle_beta   101.10584130
_cell_angle_gamma   127.93419176
_symmetry_Int_Tables_number   1
_chemical_formula_structural   InC6(NCl3)2
_chemical_formula_sum   'In8 C48 N16 Cl48'
_cell_volume   3558.45767729
_cell_formula_units_Z   8
loop_
 _symmetry_equiv_pos_site_id
 _symmetry_equiv_pos_as_xyz
  1  'x, y, z'
loop_
 _atom_site_type_symbol
 _atom_site_label
 _atom_site_symmetry_multiplicity
 _atom_site_fract_x
 _atom_site_fract_y
 _atom_site_fract_z
 _atom_site_occupancy
  In  In0  1  0.62500000  0.87500000  0.75000000  1
  In  In1  1  0.62500000  0.37500000  0.25000000  1
  In  In2  1  0.62500000  0.87500000  0.25000000  1
  In  In3  1  0.12500000  0.37500000  0.25000000  1
  In  In4  1  0.12500000  0.37500000  0.75000000  1
  In  In5  1  0.12500000  0.87500000  0.25000000  1
  In  In6  1  0.12500000  0.87500000  0.75000000  1
  In  In7  1  0.62500000  0.37500000  0.75000000  1
  C  C0  1  0.84187900  0.27110900  0.31945200  1
  C  C1  1  0.45165700  0.77110900  0.42923000  1
  C  C2  1  0.02110900  0.09187900  0.81945200  1
  C  C3  1  0.77242700  0.59187900  0.07077000  1
  C  C4  1  0.40812100  0.47889100  0.18054800  1
  C  C5  1  0.79834300  0.97889100  0.07077000  1
  C  C6  1  0.22889100  0.65812100  0.68054800  1
  C  C7  1  0.47757300  0.15812100  0.42923000  1
  C  C8  1  0.34187900  0.02242700  0.57077000  1
  C  C9  1  0.95165700  0.52242700  0.68054800  1
  C  C10  1  0.52110900  0.70165700  0.92923000  1
  C  C11  1  0.27242700  0.20165700  0.18054800  1
  C  C12  1  0.90812100  0.72757300  0.92923000  1
  C  C13  1  0.29834300  0.22757300  0.81945200  1
  C  C14  1  0.72889100  0.04834300  0.57077000  1
  C  C15  1  0.97757300  0.54834300  0.31945200  1
  C  C16  1  0.64130300  0.13197200  0.24011900  1
  C  C17  1  0.39185300  0.63197200  0.49066900  1
  C  C18  1  0.88197200  0.89130300  0.74011900  1
  C  C19  1  0.65118500  0.39130300  0.00933100  1
  C  C20  1  0.60869700  0.61802800  0.25988100  1
  C  C21  1  0.85814700  0.11802800  0.00933100  1
  C  C22  1  0.36802800  0.85869700  0.75988100  1
  C  C23  1  0.59881500  0.35869700  0.49066900  1
  C  C24  1  0.14130300  0.90118500  0.50933100  1
  C  C25  1  0.89185300  0.40118500  0.75988100  1
  C  C26  1  0.38197200  0.64185300  0.99066900  1
  C  C27  1  0.15118500  0.14185300  0.25988100  1
  C  C28  1  0.10869700  0.84881500  0.99066900  1
  C  C29  1  0.35814700  0.34881500  0.74011900  1
  C  C30  1  0.86802800  0.10814700  0.50933100  1
  C  C31  1  0.09881500  0.60814700  0.24011900  1
  C  C32  1  0.93997600  0.34068500  0.35538500  1
  C  C33  1  0.48530000  0.84068500  0.40070900  1
  C  C34  1  0.09068500  0.18997600  0.85538500  1
  C  C35  1  0.83459100  0.68997600  0.09929100  1
  C  C36  1  0.31002400  0.40931500  0.14461500  1
  C  C37  1  0.76470000  0.90931500  0.09929100  1
  C  C38  1  0.15931500  0.56002400  0.64461500  1
  C  C39  1  0.41540900  0.06002400  0.40070900  1
  C  C40  1  0.43997600  0.08459100  0.59929100  1
  C  C41  1  0.98530000  0.58459100  0.64461500  1
  C  C42  1  0.59068500  0.73530000  0.90070900  1
  C  C43  1  0.33459100  0.23530000  0.14461500  1
  C  C44  1  0.81002400  0.66540900  0.90070900  1
  C  C45  1  0.26470000  0.16540900  0.85538500  1
  C  C46  1  0.65931500  0.01470000  0.59929100  1
  C  C47  1  0.91540900  0.51470000  0.35538500  1
  N  N0  1  0.73731300  0.19897800  0.27977200  1
  N  N1  1  0.41920600  0.69897800  0.46166500  1
  N  N2  1  0.94897800  0.98731300  0.77977200  1
  N  N3  1  0.70754100  0.48731300  0.03833500  1
  N  N4  1  0.51268700  0.55102200  0.22022800  1
  N  N5  1  0.83079400  0.05102200  0.03833500  1
  N  N6  1  0.30102200  0.76268700  0.72022800  1
  N  N7  1  0.54245900  0.26268700  0.46166500  1
  N  N8  1  0.23731300  0.95754100  0.53833500  1
  N  N9  1  0.91920600  0.45754100  0.72022800  1
  N  N10  1  0.44897800  0.66920600  0.96166500  1
  N  N11  1  0.20754100  0.16920600  0.22022800  1
  N  N12  1  0.01268700  0.79245900  0.96166500  1
  N  N13  1  0.33079400  0.29245900  0.77977200  1
  N  N14  1  0.80102200  0.08079400  0.53833500  1
  N  N15  1  0.04245900  0.58079400  0.27977200  1
  Cl  Cl0  1  0.57522800  0.93222000  0.85900200  1
  Cl  Cl1  1  0.57321800  0.43222000  0.35699200  1
  Cl  Cl2  1  0.68222000  0.82522800  0.35900200  1
  Cl  Cl3  1  0.96622600  0.32522800  0.14300800  1
  Cl  Cl4  1  0.67477200  0.81778000  0.64099800  1
  Cl  Cl5  1  0.67678200  0.31778000  0.14300800  1
  Cl  Cl6  1  0.56778000  0.92477200  0.14099800  1
  Cl  Cl7  1  0.28377400  0.42477200  0.35699200  1
  Cl  Cl8  1  0.07522800  0.21622600  0.64300800  1
  Cl  Cl9  1  0.07321800  0.71622600  0.14099800  1
  Cl  Cl10  1  0.18222000  0.82321800  0.85699200  1
  Cl  Cl11  1  0.46622600  0.32321800  0.64099800  1
  Cl  Cl12  1  0.17477200  0.53377400  0.85699200  1
  Cl  Cl13  1  0.17678200  0.03377400  0.35900200  1
  Cl  Cl14  1  0.06778000  0.92678200  0.64300800  1
  Cl  Cl15  1  0.78377400  0.42678200  0.85900200  1
  Cl  Cl16  1  0.68540800  0.78534600  0.86441900  1
  Cl  Cl17  1  0.42092800  0.28534600  0.09993800  1
  Cl  Cl18  1  0.53534600  0.93540800  0.36441900  1
  Cl  Cl19  1  0.07099000  0.43540800  0.40006200  1
  Cl  Cl20  1  0.56459200  0.96465400  0.63558100  1
  Cl  Cl21  1  0.82907200  0.46465400  0.40006200  1
  Cl  Cl22  1  0.71465400  0.81459200  0.13558100  1
  Cl  Cl23  1  0.17901000  0.31459200  0.09993800  1
  Cl  Cl24  1  0.18540800  0.32099000  0.90006200  1
  Cl  Cl25  1  0.92092800  0.82099000  0.13558100  1
  Cl  Cl26  1  0.03534600  0.67092800  0.59993800  1
  Cl  Cl27  1  0.57099000  0.17092800  0.63558100  1
  Cl  Cl28  1  0.06459200  0.42901000  0.59993800  1
  Cl  Cl29  1  0.32907200  0.92901000  0.36441900  1
  Cl  Cl30  1  0.21465400  0.07907200  0.90006200  1
  Cl  Cl31  1  0.67901000  0.57907200  0.86441900  1
  Cl  Cl32  1  0.44719400  0.69364200  0.68069300  1
  Cl  Cl33  1  0.51294800  0.19364200  0.24644800  1
  Cl  Cl34  1  0.44364200  0.69719400  0.18069300  1
  Cl  Cl35  1  0.01650000  0.19719400  0.25355200  1
  Cl  Cl36  1  0.80280600  0.05635800  0.81930700  1
  Cl  Cl37  1  0.73705200  0.55635800  0.25355200  1
  Cl  Cl38  1  0.80635800  0.05280600  0.31930700  1
  Cl  Cl39  1  0.23350000  0.55280600  0.24644800  1
  Cl  Cl40  1  0.94719400  0.26650000  0.75355200  1
  Cl  Cl41  1  0.01294800  0.76650000  0.31930700  1
  Cl  Cl42  1  0.94364200  0.76294800  0.74644800  1
  Cl  Cl43  1  0.51650000  0.26294800  0.81930700  1
  Cl  Cl44  1  0.30280600  0.48350000  0.74644800  1
  Cl  Cl45  1  0.23705200  0.98350000  0.18069300  1
  Cl  Cl46  1  0.30635800  0.98705200  0.75355200  1
  Cl  Cl47  1  0.73350000  0.48705200  0.68069300  1
loop_
_geom_bond_atom_site_label_1
_geom_bond_atom_site_label_2
_geom_bond_distance
_geom_bond_site_symmetry_2
C0 C32 1.215944 1_555
C0 N0 1.296989 1_555
C1 C33 1.215944 1_555
C1 N1 1.296989 1_555
C2 C34 1.215944 1_555
C2 N2 1.296989 1_445
C3 C35 1.215944 1_555
C3 N3 1.296989 1_555
C4 N4 1.296989 1_555
C5 N5 1.296989 1_565
C6 N6 1.296989 1_555
C7 N7 1.296989 1_555
C8 N8 1.296989 1_545
C9 N9 1.296989 1_555
C10 C42 1.215944 1_555
C10 N10 1.296989 1_555
C11 C43 1.215944 1_555
C11 N11 1.296989 1_555
C12 C44 1.215944 1_555
C12 N12 1.296989 1_655
C13 C45 1.215944 1_555
C13 N13 1.296989 1_555
C14 C46 1.215944 1_555
C14 N14 1.296989 1_555
C15 C47 1.215944 1_555
C15 N15 1.296989 1_655
C16 N0 1.196229 1_555
C17 N1 1.196229 1_555
C18 N2 1.196229 1_555
C19 N3 1.196231 1_555
C20 N4 1.196229 1_555
C21 N5 1.196229 1_555
C22 N6 1.196229 1_555
C23 N7 1.196231 1_555
C24 N8 1.196231 1_555
C25 N9 1.196218 1_555
C26 N10 1.196229 1_555
C27 N11 1.196218 1_555
C28 N12 1.196231 1_555
C29 N13 1.196218 1_555
C30 N14 1.196229 1_555
C31 N15 1.196218 1_555
C32 Cl19 1.623567 1_655
C33 Cl18 1.623555 1_555
C34 Cl24 1.623567 1_555
C35 Cl25 1.623568 1_555
C36 C4 1.215944 1_555
C36 Cl23 1.623567 1_555
C37 C5 1.215944 1_555
C37 Cl22 1.623555 1_555
C38 C6 1.215944 1_555
C38 Cl28 1.623567 1_555
C39 C7 1.215944 1_555
C39 Cl29 1.623568 1_545
C40 C8 1.215944 1_555
C40 Cl27 1.623568 1_555
C41 C9 1.215944 1_555
C41 Cl26 1.623567 1_655
C42 Cl16 1.623555 1_555
C43 Cl17 1.623567 1_555
C44 Cl31 1.623568 1_555
C45 Cl30 1.623567 1_555
C46 Cl20 1.623555 1_545
C47 Cl21 1.623567 1_555
Cl0 In0 2.470917 1_555
Cl1 In1 2.470917 1_555
Cl2 In2 2.470917 1_555
Cl3 In3 2.470917 1_655
Cl4 In0 2.470917 1_555
Cl5 In1 2.470917 1_555
Cl6 In2 2.470917 1_555
Cl7 In3 2.470917 1_555
Cl8 In4 2.470917 1_555
Cl9 In5 2.470917 1_555
Cl10 In6 2.470917 1_555
Cl11 In7 2.470917 1_555
Cl12 In4 2.470917 1_555
Cl13 In5 2.470917 1_545
Cl14 In6 2.470917 1_555
Cl15 In7 2.470917 1_555
Cl16 In0 3.097785 1_555
Cl17 In1 3.097774 1_555
Cl18 In2 3.097785 1_555
Cl19 In3 3.097774 1_555
Cl20 In0 3.097785 1_555
Cl21 In1 3.097774 1_555
Cl22 In2 3.097785 1_555
Cl23 In3 3.097774 1_555
Cl24 In4 3.097774 1_555
Cl25 In5 3.097780 1_655
Cl26 In6 3.097774 1_555
Cl27 In7 3.097780 1_555
Cl28 In4 3.097774 1_555
Cl29 In5 3.097780 1_555
Cl30 In6 3.097774 1_545
Cl31 In7 3.097780 1_555
Cl32 In0 2.426025 1_555
Cl33 In1 2.426025 1_555
Cl34 In2 2.426025 1_555
Cl35 In3 2.426025 1_555
Cl36 In0 2.426025 1_545
Cl37 In1 2.426025 1_555
Cl38 In2 2.426025 1_545
Cl39 In3 2.426025 1_555
Cl40 In4 2.426025 1_655
Cl41 In5 2.426038 1_555
Cl42 In6 2.426025 1_655
Cl43 In7 2.426038 1_555
Cl44 In4 2.426025 1_555
Cl45 In5 2.426038 1_555
Cl46 In6 2.426025 1_555
Cl47 In7 2.426038 1_555
