# generated using pymatgen
data_CrH18C5(NO)4
_symmetry_space_group_name_H-M   'P 1'
_cell_length_a   10.90888200
_cell_length_b   10.90888200
_cell_length_c   10.90888200
_cell_angle_alpha   90.00000000
_cell_angle_beta   90.00000000
_cell_angle_gamma   90.00000000
_symmetry_Int_Tables_number   1
_chemical_formula_structural   CrH18C5(NO)4
_chemical_formula_sum   'Cr4 H72 C20 N16 O16'
_cell_volume   1298.19739166
_cell_formula_units_Z   4
loop_
 _symmetry_equiv_pos_site_id
 _symmetry_equiv_pos_as_xyz
  1  'x, y, z'
loop_
 _atom_site_type_symbol
 _atom_site_label
 _atom_site_symmetry_multiplicity
 _atom_site_fract_x
 _atom_site_fract_y
 _atom_site_fract_z
 _atom_site_occupancy
  Cr  Cr0  1  0.50283400  0.50283400  0.50283400  1
  Cr  Cr1  1  0.49716600  0.00283400  0.99716600  1
  Cr  Cr2  1  0.00283400  0.99716600  0.49716600  1
  Cr  Cr3  1  0.99716600  0.49716600  0.00283400  1
  H  H0  1  0.33780000  0.73536900  0.50104000  1
  H  H1  1  0.49896000  0.83780000  0.76463100  1
  H  H2  1  0.23536900  0.99896000  0.66220000  1
  H  H3  1  0.83780000  0.76463100  0.49896000  1
  H  H4  1  0.99896000  0.66220000  0.23536900  1
  H  H5  1  0.73536900  0.50104000  0.33780000  1
  H  H6  1  0.66220000  0.23536900  0.99896000  1
  H  H7  1  0.50104000  0.33780000  0.73536900  1
  H  H8  1  0.76463100  0.49896000  0.83780000  1
  H  H9  1  0.16220000  0.26463100  0.00104000  1
  H  H10  1  0.00104000  0.16220000  0.26463100  1
  H  H11  1  0.26463100  0.00104000  0.16220000  1
  H  H12  1  0.22965800  0.85631400  0.50041300  1
  H  H13  1  0.49958700  0.72965800  0.64368600  1
  H  H14  1  0.35631400  0.99958700  0.77034200  1
  H  H15  1  0.72965800  0.64368600  0.49958700  1
  H  H16  1  0.99958700  0.77034200  0.35631400  1
  H  H17  1  0.85631400  0.50041300  0.22965800  1
  H  H18  1  0.77034200  0.35631400  0.99958700  1
  H  H19  1  0.50041300  0.22965800  0.85631400  1
  H  H20  1  0.64368600  0.49958700  0.72965800  1
  H  H21  1  0.27034200  0.14368600  0.00041300  1
  H  H22  1  0.00041300  0.27034200  0.14368600  1
  H  H23  1  0.14368600  0.00041300  0.27034200  1
  H  H24  1  0.11302300  0.29110600  0.43973700  1
  H  H25  1  0.56026300  0.61302300  0.20889400  1
  H  H26  1  0.79110600  0.06026300  0.88697700  1
  H  H27  1  0.61302300  0.20889400  0.56026300  1
  H  H28  1  0.06026300  0.88697700  0.79110600  1
  H  H29  1  0.29110600  0.43973700  0.11302300  1
  H  H30  1  0.88697700  0.79110600  0.06026300  1
  H  H31  1  0.43973700  0.11302300  0.29110600  1
  H  H32  1  0.20889400  0.56026300  0.61302300  1
  H  H33  1  0.38697700  0.70889400  0.93973700  1
  H  H34  1  0.93973700  0.38697700  0.70889400  1
  H  H35  1  0.70889400  0.93973700  0.38697700  1
  H  H36  1  0.22147800  0.41848800  0.44904100  1
  H  H37  1  0.55095900  0.72147800  0.08151200  1
  H  H38  1  0.91848800  0.05095900  0.77852200  1
  H  H39  1  0.72147800  0.08151200  0.55095900  1
  H  H40  1  0.05095900  0.77852200  0.91848800  1
  H  H41  1  0.41848800  0.44904100  0.22147800  1
  H  H42  1  0.77852200  0.91848800  0.05095900  1
  H  H43  1  0.44904100  0.22147800  0.41848800  1
  H  H44  1  0.08151200  0.55095900  0.72147800  1
  H  H45  1  0.27852200  0.58151200  0.94904100  1
  H  H46  1  0.94904100  0.27852200  0.58151200  1
  H  H47  1  0.58151200  0.94904100  0.27852200  1
  H  H48  1  0.06481000  0.44415600  0.40414500  1
  H  H49  1  0.59585500  0.56481000  0.05584400  1
  H  H50  1  0.94415600  0.09585500  0.93519000  1
  H  H51  1  0.56481000  0.05584400  0.59585500  1
  H  H52  1  0.09585500  0.93519000  0.94415600  1
  H  H53  1  0.44415600  0.40414500  0.06481000  1
  H  H54  1  0.93519000  0.94415600  0.09585500  1
  H  H55  1  0.40414500  0.06481000  0.44415600  1
  H  H56  1  0.05584400  0.59585500  0.56481000  1
  H  H57  1  0.43519000  0.55584400  0.90414500  1
  H  H58  1  0.90414500  0.43519000  0.55584400  1
  H  H59  1  0.55584400  0.90414500  0.43519000  1
  H  H60  1  0.26771400  0.35407300  0.65520300  1
  H  H61  1  0.34479700  0.76771400  0.14592700  1
  H  H62  1  0.85407300  0.84479700  0.73228600  1
  H  H63  1  0.76771400  0.14592700  0.34479700  1
  H  H64  1  0.84479700  0.73228600  0.85407300  1
  H  H65  1  0.35407300  0.65520300  0.26771400  1
  H  H66  1  0.73228600  0.85407300  0.84479700  1
  H  H67  1  0.65520300  0.26771400  0.35407300  1
  H  H68  1  0.14592700  0.34479700  0.76771400  1
  H  H69  1  0.23228600  0.64592700  0.15520300  1
  H  H70  1  0.15520300  0.23228600  0.64592700  1
  H  H71  1  0.64592700  0.15520300  0.23228600  1
  C  C0  1  0.12625200  0.38843600  0.46077500  1
  C  C1  1  0.53922500  0.62625200  0.11156400  1
  C  C2  1  0.88843600  0.03922500  0.87374800  1
  C  C3  1  0.62625200  0.11156400  0.53922500  1
  C  C4  1  0.03922500  0.87374800  0.88843600  1
  C  C5  1  0.38843600  0.46077500  0.12625200  1
  C  C6  1  0.87374800  0.88843600  0.03922500  1
  C  C7  1  0.46077500  0.12625200  0.38843600  1
  C  C8  1  0.11156400  0.53922500  0.62625200  1
  C  C9  1  0.37374800  0.61156400  0.96077500  1
  C  C10  1  0.96077500  0.37374800  0.61156400  1
  C  C11  1  0.61156400  0.96077500  0.37374800  1
  C  C12  1  0.17191200  0.32808800  0.67191200  1
  C  C13  1  0.32808800  0.67191200  0.17191200  1
  C  C14  1  0.82808800  0.82808800  0.82808800  1
  C  C15  1  0.67191200  0.17191200  0.32808800  1
  C  C16  1  0.36298600  0.86298600  0.63701400  1
  C  C17  1  0.86298600  0.63701400  0.36298600  1
  C  C18  1  0.63701400  0.36298600  0.86298600  1
  C  C19  1  0.13701400  0.13701400  0.13701400  1
  N  N0  1  0.09242600  0.40757400  0.59242600  1
  N  N1  1  0.40757400  0.59242600  0.09242600  1
  N  N2  1  0.90757400  0.90757400  0.90757400  1
  N  N3  1  0.59242600  0.09242600  0.40757400  1
  N  N4  1  0.30904300  0.81877600  0.53575500  1
  N  N5  1  0.46424500  0.80904300  0.68122400  1
  N  N6  1  0.31877600  0.96424500  0.69095700  1
  N  N7  1  0.80904300  0.68122400  0.46424500  1
  N  N8  1  0.96424500  0.69095700  0.31877600  1
  N  N9  1  0.81877600  0.53575500  0.30904300  1
  N  N10  1  0.69095700  0.31877600  0.96424500  1
  N  N11  1  0.53575500  0.30904300  0.81877600  1
  N  N12  1  0.68122400  0.46424500  0.80904300  1
  N  N13  1  0.19095700  0.18122400  0.03575500  1
  N  N14  1  0.03575500  0.19095700  0.18122400  1
  N  N15  1  0.18122400  0.03575500  0.19095700  1
  O  O0  1  0.59187500  0.59187500  0.59187500  1
  O  O1  1  0.40812500  0.09187500  0.90812500  1
  O  O2  1  0.09187500  0.90812500  0.40812500  1
  O  O3  1  0.90812500  0.40812500  0.09187500  1
  O  O4  1  0.37887000  0.58157700  0.46110500  1
  O  O5  1  0.53889500  0.87887000  0.91842300  1
  O  O6  1  0.08157700  0.03889500  0.62113000  1
  O  O7  1  0.87887000  0.91842300  0.53889500  1
  O  O8  1  0.03889500  0.62113000  0.08157700  1
  O  O9  1  0.58157700  0.46110500  0.37887000  1
  O  O10  1  0.62113000  0.08157700  0.03889500  1
  O  O11  1  0.46110500  0.37887000  0.58157700  1
  O  O12  1  0.91842300  0.53889500  0.87887000  1
  O  O13  1  0.12113000  0.41842300  0.96110500  1
  O  O14  1  0.96110500  0.12113000  0.41842300  1
  O  O15  1  0.41842300  0.96110500  0.12113000  1
loop_
_geom_bond_atom_site_label_1
_geom_bond_atom_site_label_2
_geom_bond_distance
_geom_bond_site_symmetry_2
Cr0 O9 1.665485 1_555
Cr0 O11 1.665485 1_555
Cr0 O4 1.665485 1_555
Cr0 O0 1.682406 1_555
Cr1 O5 1.665485 1_545
Cr1 O15 1.665485 1_546
Cr1 O10 1.665485 1_556
Cr1 O1 1.682406 1_555
Cr2 O7 1.665485 1_455
Cr2 O14 1.665485 1_465
Cr2 O6 1.665485 1_565
Cr2 O2 1.682406 1_555
Cr3 O12 1.665485 1_554
Cr3 O13 1.665485 1_654
Cr3 O8 1.665485 1_655
Cr3 O3 1.682406 1_555
H0 N4 1.034265 1_555
H1 N5 1.034265 1_555
H2 N6 1.034265 1_555
H3 N7 1.034265 1_555
H4 N8 1.034265 1_555
H5 N9 1.034265 1_555
H6 N10 1.034265 1_555
H7 N11 1.034265 1_555
H8 N12 1.034265 1_555
H9 N13 1.034265 1_555
H10 N14 1.034265 1_555
H11 N15 1.034265 1_555
H12 N4 1.032613 1_555
H13 N5 1.032613 1_555
H14 N6 1.032613 1_555
H15 N7 1.032613 1_555
H16 N8 1.032613 1_555
H17 N9 1.032613 1_555
H18 N10 1.032613 1_555
H19 N11 1.032613 1_555
H20 N12 1.032613 1_555
H21 N13 1.032613 1_555
H22 N14 1.032613 1_555
H23 N15 1.032613 1_555
C0 H48 1.095612 1_555
C0 H24 1.095826 1_555
C0 H36 1.096807 1_555
C0 N0 1.497438 1_555
C1 H49 1.095612 1_555
C1 H25 1.095826 1_555
C1 H37 1.096807 1_555
C1 N1 1.497438 1_555
C2 H50 1.095612 1_555
C2 H26 1.095826 1_555
C2 H38 1.096807 1_555
C2 N2 1.497438 1_545
C3 H51 1.095612 1_555
C3 H27 1.095826 1_555
C3 H39 1.096807 1_555
C3 N3 1.497438 1_555
C4 H52 1.095612 1_555
C4 H28 1.095826 1_555
C4 H40 1.096807 1_555
C4 N2 1.497438 1_455
C5 H53 1.095612 1_555
C5 H29 1.095826 1_555
C5 H41 1.096807 1_555
C5 N1 1.497438 1_555
C6 H54 1.095612 1_555
C6 H30 1.095826 1_555
C6 H42 1.096807 1_555
C6 N2 1.497438 1_554
C7 H55 1.095612 1_555
C7 H31 1.095826 1_555
C7 H43 1.096807 1_555
C7 N3 1.497438 1_555
C8 H56 1.095612 1_555
C8 H32 1.095826 1_555
C8 H44 1.096807 1_555
C8 N0 1.497438 1_555
C9 H57 1.095612 1_555
C9 H33 1.095826 1_555
C9 H45 1.096807 1_555
C9 N1 1.497438 1_556
C10 H58 1.095612 1_555
C10 H34 1.095826 1_555
C10 H46 1.096807 1_555
C10 N0 1.497438 1_655
C11 H59 1.095612 1_555
C11 H35 1.095826 1_555
C11 H47 1.096807 1_555
C11 N3 1.497438 1_565
C12 H68 1.098088 1_555
C12 H70 1.098088 1_555
C12 H60 1.098088 1_555
C12 N0 1.501867 1_555
C13 H61 1.098088 1_555
C13 H69 1.098088 1_555
C13 H65 1.098088 1_555
C13 N1 1.501867 1_555
C14 H66 1.098088 1_555
C14 H64 1.098088 1_555
C14 H62 1.098088 1_555
C14 N2 1.501867 1_555
C15 H63 1.098088 1_555
C15 H71 1.098088 1_555
C15 H67 1.098088 1_555
C15 N3 1.501867 1_555
C16 N5 1.341294 1_555
C16 N6 1.341294 1_555
C16 N4 1.341294 1_555
C17 N7 1.341294 1_555
C17 N8 1.341294 1_555
C17 N9 1.341294 1_555
C18 N12 1.341294 1_555
C18 N10 1.341294 1_555
C18 N11 1.341294 1_555
C19 N14 1.341294 1_555
C19 N13 1.341294 1_555
C19 N15 1.341294 1_555
