# generated using pymatgen
data_NbO2
_symmetry_space_group_name_H-M   'P 1'
_cell_length_a   6.04002472
_cell_length_b   10.24859248
_cell_length_c   10.24806614
_cell_angle_alpha   85.01908899
_cell_angle_beta   72.86043391
_cell_angle_gamma   72.86540149
_symmetry_Int_Tables_number   1
_chemical_formula_structural   NbO2
_chemical_formula_sum   'Nb16 O32'
_cell_volume   579.29452257
_cell_formula_units_Z   16
loop_
 _symmetry_equiv_pos_site_id
 _symmetry_equiv_pos_as_xyz
  1  'x, y, z'
loop_
 _atom_site_type_symbol
 _atom_site_label
 _atom_site_symmetry_multiplicity
 _atom_site_fract_x
 _atom_site_fract_y
 _atom_site_fract_z
 _atom_site_occupancy
  Nb  Nb0  1  0.13980276  0.51065354  0.26180430  1
  Nb  Nb1  1  0.40166064  0.23826688  0.51058531  1
  Nb  Nb2  1  0.15080827  0.26176287  0.98940010  1
  Nb  Nb3  1  0.91220544  0.98937665  0.23820892  1
  Nb  Nb4  1  0.86019871  0.48934659  0.73819553  1
  Nb  Nb5  1  0.59833944  0.76173221  0.48941645  1
  Nb  Nb6  1  0.84919308  0.73823835  0.01060007  1
  Nb  Nb7  1  0.08779735  0.01062175  0.76179076  1
  Nb  Nb8  1  0.60535617  0.49008261  0.24027823  1
  Nb  Nb9  1  0.84569613  0.25964934  0.49006958  1
  Nb  Nb10  1  0.59581919  0.24026234  0.00986843  1
  Nb  Nb11  1  0.33571615  0.00985333  0.25973839  1
  Nb  Nb12  1  0.39464549  0.50991622  0.75972144  1
  Nb  Nb13  1  0.15430327  0.74035013  0.50992958  1
  Nb  Nb14  1  0.40418021  0.75973604  0.99013200  1
  Nb  Nb15  1  0.66428167  0.99014772  0.74026179  1
  O  O0  1  0.77539628  0.35035681  0.10048382  1
  O  O1  1  0.87575490  0.39949683  0.35038069  1
  O  O2  1  0.62572458  0.10038169  0.14949055  1
  O  O3  1  0.22622433  0.14961039  0.39944905  1
  O  O4  1  0.22460396  0.64964446  0.89951858  1
  O  O5  1  0.12424642  0.60050092  0.64962042  1
  O  O6  1  0.37427380  0.89962057  0.85050874  1
  O  O7  1  0.77377607  0.85038912  0.60054843  1
  O  O8  1  0.25671156  0.36191806  0.11221795  1
  O  O9  1  0.36844303  0.38782650  0.36198869  1
  O  O10  1  0.11836375  0.11215720  0.13797089  1
  O  O11  1  0.73044184  0.13808265  0.38767927  1
  O  O12  1  0.74329069  0.63808199  0.88778149  1
  O  O13  1  0.63156033  0.61217634  0.63801230  1
  O  O14  1  0.88163485  0.88784137  0.86202851  1
  O  O15  1  0.26955336  0.86191758  0.61232130  1
  O  O16  1  0.97650623  0.15057536  0.90214791  1
  O  O17  1  0.87857640  0.59770056  0.15043417  1
  O  O18  1  0.62676737  0.90217620  0.34950312  1
  O  O19  1  0.02899070  0.34947981  0.59772009  1
  O  O20  1  0.02349367  0.84942365  0.09785145  1
  O  O21  1  0.12142553  0.40229977  0.84956472  1
  O  O22  1  0.37322818  0.09782226  0.65049799  1
  O  O23  1  0.97100644  0.65052139  0.40227974  1
  O  O24  1  0.47801350  0.13872665  0.88684350  1
  O  O25  1  0.36472164  0.61306782  0.13871195  1
  O  O26  1  0.11622440  0.88698016  0.36143221  1
  O  O27  1  0.50346223  0.36137787  0.61303846  1
  O  O28  1  0.52198842  0.86127429  0.11315735  1
  O  O29  1  0.63527880  0.38693189  0.86128850  1
  O  O30  1  0.88377551  0.11302060  0.63856675  1
  O  O31  1  0.49654027  0.63862170  0.38696055  1
loop_
_geom_bond_atom_site_label_1
_geom_bond_atom_site_label_2
_geom_bond_distance
_geom_bond_site_symmetry_2
Nb0 O23 1.949052 1_455
Nb0 O9 2.032922 1_555
Nb0 O25 2.034385 1_555
Nb0 O8 2.075023 1_555
Nb0 O17 2.154803 1_455
Nb0 O1 2.168648 1_455
Nb1 O22 1.949172 1_555
Nb1 O11 2.033015 1_555
Nb1 O27 2.034718 1_555
Nb1 O9 2.074178 1_555
Nb1 O19 2.154879 1_555
Nb1 O3 2.168846 1_555
Nb2 O21 1.949476 1_555
Nb2 O8 2.032904 1_556
Nb2 O24 2.034193 1_555
Nb2 O10 2.074430 1_556
Nb2 O16 2.155239 1_455
Nb2 O0 2.169522 1_456
Nb3 O20 1.948941 1_655
Nb3 O10 2.033231 1_665
Nb3 O26 2.034585 1_655
Nb3 O11 2.074274 1_565
Nb3 O18 2.154941 1_555
Nb3 O2 2.168572 1_565
Nb4 O19 1.949042 1_655
Nb4 O13 2.032918 1_555
Nb4 O29 2.034394 1_555
Nb4 O12 2.075020 1_555
Nb4 O21 2.154798 1_655
Nb4 O5 2.168628 1_655
Nb5 O18 1.949170 1_555
Nb5 O15 2.033033 1_555
Nb5 O31 2.034724 1_555
Nb5 O13 2.074150 1_555
Nb5 O23 2.154863 1_555
Nb5 O7 2.168819 1_555
Nb6 O17 1.949473 1_555
Nb6 O12 2.032914 1_554
Nb6 O28 2.034192 1_555
Nb6 O14 2.074414 1_554
Nb6 O20 2.155211 1_655
Nb6 O4 2.169511 1_654
Nb7 O16 1.948941 1_455
Nb7 O14 2.033245 1_445
Nb7 O30 2.034608 1_455
Nb7 O15 2.074252 1_545
Nb7 O22 2.154904 1_555
Nb7 O6 2.168539 1_545
Nb8 O0 1.944286 1_555
Nb8 O31 2.057805 1_555
Nb8 O9 2.075169 1_555
Nb8 O25 2.090200 1_555
Nb8 O17 2.188180 1_555
Nb8 O1 2.193914 1_555
Nb9 O1 1.944301 1_555
Nb9 O30 2.057318 1_555
Nb9 O11 2.075205 1_555
Nb9 O27 2.090665 1_555
Nb9 O19 2.187952 1_655
Nb9 O3 2.193946 1_655
Nb10 O2 1.943885 1_555
Nb10 O29 2.057796 1_554
Nb10 O8 2.075085 1_555
Nb10 O24 2.090823 1_554
Nb10 O16 2.187542 1_554
Nb10 O0 2.192863 1_555
Nb11 O3 1.943889 1_555
Nb11 O28 2.057336 1_545
Nb11 O10 2.075406 1_555
Nb11 O26 2.090680 1_545
Nb11 O18 2.188203 1_545
Nb11 O2 2.194247 1_555
Nb12 O4 1.944320 1_555
Nb12 O27 2.057804 1_555
Nb12 O13 2.075198 1_555
Nb12 O29 2.090198 1_555
Nb12 O21 2.188167 1_555
Nb12 O5 2.193903 1_555
Nb13 O5 1.944325 1_555
Nb13 O26 2.057327 1_555
Nb13 O15 2.075204 1_555
Nb13 O31 2.090678 1_555
Nb13 O23 2.187947 1_455
Nb13 O7 2.193939 1_455
Nb14 O6 1.943919 1_555
Nb14 O25 2.057786 1_556
Nb14 O12 2.075094 1_555
Nb14 O28 2.090853 1_556
Nb14 O20 2.187538 1_556
Nb14 O4 2.192827 1_555
Nb15 O7 1.943918 1_555
Nb15 O24 2.057337 1_565
Nb15 O14 2.075410 1_555
Nb15 O30 2.090689 1_565
Nb15 O22 2.188202 1_565
Nb15 O6 2.194235 1_555
