# generated using pymatgen
data_V16CrO41
_symmetry_space_group_name_H-M   'P 1'
_cell_length_a   11.64982100
_cell_length_b   14.67853700
_cell_length_c   4.60868300
_cell_angle_alpha   90.00000000
_cell_angle_beta   90.00000000
_cell_angle_gamma   90.00000000
_symmetry_Int_Tables_number   1
_chemical_formula_structural   V16CrO41
_chemical_formula_sum   'V16 Cr1 O41'
_cell_volume   788.09552474
_cell_formula_units_Z   1
loop_
 _symmetry_equiv_pos_site_id
 _symmetry_equiv_pos_as_xyz
  1  'x, y, z'
loop_
 _atom_site_type_symbol
 _atom_site_label
 _atom_site_symmetry_multiplicity
 _atom_site_fract_x
 _atom_site_fract_y
 _atom_site_fract_z
 _atom_site_occupancy
  V  V0  1  0.10097500  0.31250000  0.11103400  1
  V  V1  1  0.10063400  0.06425800  0.10830800  1
  V  V2  1  0.10063400  0.56074200  0.10830800  1
  V  V3  1  0.10104800  0.81250000  0.11701900  1
  V  V4  1  0.39936600  0.06425800  0.10830800  1
  V  V5  1  0.39902500  0.31250000  0.11103400  1
  V  V6  1  0.39936600  0.56074200  0.10830800  1
  V  V7  1  0.39895200  0.81250000  0.11701900  1
  V  V8  1  0.60037500  0.18953300  0.88976300  1
  V  V9  1  0.60037500  0.43546700  0.88976300  1
  V  V10  1  0.59052600  0.94486700  0.87419800  1
  V  V11  1  0.59052600  0.68013300  0.87419800  1
  V  V12  1  0.90947400  0.94486700  0.87419800  1
  V  V13  1  0.89962500  0.18953300  0.88976300  1
  V  V14  1  0.89962500  0.43546700  0.88976300  1
  V  V15  1  0.90947400  0.68013300  0.87419800  1
  Cr  Cr0  1  0.75000000  0.81250000  0.13483000  1
  O  O0  1  0.06807100  0.68626600  0.00292100  1
  O  O1  1  0.06933200  0.18855300  0.00782500  1
  O  O2  1  0.06933200  0.43644700  0.00782500  1
  O  O3  1  0.06807100  0.93873400  0.00292100  1
  O  O4  1  0.10533400  0.06388900  0.45784900  1
  O  O5  1  0.10440400  0.31250000  0.46079600  1
  O  O6  1  0.10533400  0.56111100  0.45784900  1
  O  O7  1  0.10138000  0.81250000  0.46848100  1
  O  O8  1  0.25000000  0.56138500  0.00066300  1
  O  O9  1  0.25000000  0.06361500  0.00066300  1
  O  O10  1  0.25000000  0.31250000  0.00287000  1
  O  O11  1  0.25000000  0.81250000  0.02122700  1
  O  O12  1  0.39466600  0.06388900  0.45784900  1
  O  O13  1  0.39559600  0.31250000  0.46079600  1
  O  O14  1  0.39466600  0.56111100  0.45784900  1
  O  O15  1  0.39862000  0.81250000  0.46848100  1
  O  O16  1  0.43066800  0.43644700  0.00782500  1
  O  O17  1  0.43066800  0.18855300  0.00782500  1
  O  O18  1  0.43192900  0.68626600  0.00292100  1
  O  O19  1  0.43192900  0.93873400  0.00292100  1
  O  O20  1  0.59106700  0.81250000  0.99813100  1
  O  O21  1  0.56915400  0.06673700  0.99520600  1
  O  O22  1  0.56750000  0.31250000  0.99401200  1
  O  O23  1  0.56915400  0.55826300  0.99520600  1
  O  O24  1  0.59426900  0.94821000  0.52395500  1
  O  O25  1  0.60380100  0.18890500  0.53983800  1
  O  O26  1  0.60380100  0.43609500  0.53983800  1
  O  O27  1  0.59426900  0.67679000  0.52395500  1
  O  O28  1  0.75000000  0.81250000  0.47987700  1
  O  O29  1  0.75000000  0.93398800  0.99044000  1
  O  O30  1  0.75000000  0.18889500  0.99609100  1
  O  O31  1  0.75000000  0.43610500  0.99609100  1
  O  O32  1  0.75000000  0.69101200  0.99044000  1
  O  O33  1  0.90573100  0.94821000  0.52395500  1
  O  O34  1  0.89619900  0.18890500  0.53983800  1
  O  O35  1  0.89619900  0.43609500  0.53983800  1
  O  O36  1  0.90573100  0.67679000  0.52395500  1
  O  O37  1  0.90893300  0.81250000  0.99813100  1
  O  O38  1  0.93084600  0.06673700  0.99520600  1
  O  O39  1  0.93250000  0.31250000  0.99401200  1
  O  O40  1  0.93084600  0.55826300  0.99520600  1
loop_
_geom_bond_atom_site_label_1
_geom_bond_atom_site_label_2
_geom_bond_distance
_geom_bond_site_symmetry_2
Cr0 O28 1.590212 1_555
Cr0 O32 1.903381 1_554
Cr0 O29 1.903381 1_554
Cr0 O20 1.955788 1_554
Cr0 O37 1.955788 1_554
O0 V15 1.942618 1_454
O0 V2 1.942845 1_555
O0 V3 1.964040 1_555
O1 V0 1.916302 1_555
O1 V1 1.917321 1_555
O1 V13 2.050613 1_454
O2 V0 1.916302 1_555
O2 V2 1.917321 1_555
O2 V14 2.050613 1_454
O3 V12 1.942618 1_454
O3 V1 1.942845 1_565
O3 V3 1.964040 1_555
O4 V1 1.611863 1_555
O5 V0 1.612437 1_555
O6 V2 1.611863 1_555
O7 V3 1.619782 1_555
O8 V6 1.809450 1_555
O8 V2 1.809450 1_555
O9 V4 1.809450 1_555
O9 V1 1.809450 1_555
O10 V5 1.806264 1_555
O10 V0 1.806264 1_555
O11 V7 1.790542 1_555
O11 V3 1.790542 1_555
O12 V4 1.611863 1_555
O13 V5 1.612437 1_555
O14 V6 1.611863 1_555
O15 V7 1.619782 1_555
O16 V5 1.916302 1_555
O16 V6 1.917321 1_555
O16 V9 2.050613 1_554
O17 V5 1.916302 1_555
O17 V4 1.917321 1_555
O17 V8 2.050613 1_554
O18 V11 1.942618 1_554
O18 V6 1.942845 1_555
O18 V7 1.964040 1_555
O19 V10 1.942618 1_554
O19 V4 1.942845 1_565
O19 V7 1.964040 1_555
O20 V10 2.025177 1_555
O20 V11 2.025177 1_555
O20 V7 2.304198 1_556
O21 V10 1.890258 1_545
O21 V8 1.901927 1_555
O21 V4 2.045852 1_556
O22 V8 1.906686 1_555
O22 V9 1.906686 1_555
O22 V5 2.035453 1_556
O23 V11 1.890258 1_555
O23 V9 1.901927 1_555
O23 V6 2.045852 1_556
O24 V10 1.615493 1_555
O25 V8 1.613214 1_555
O26 V9 1.613214 1_555
O27 V11 1.615493 1_555
O29 V12 1.940124 1_555
O29 V10 1.940124 1_555
O30 V13 1.810699 1_555
O30 V8 1.810699 1_555
O31 V14 1.810699 1_555
O31 V9 1.810699 1_555
O32 V15 1.940124 1_555
O32 V11 1.940124 1_555
O33 V12 1.615493 1_555
O34 V13 1.613214 1_555
O35 V14 1.613214 1_555
O36 V15 1.615493 1_555
O37 V15 2.025177 1_555
O37 V12 2.025177 1_555
O37 V3 2.304198 1_656
O38 V12 1.890258 1_545
O38 V13 1.901927 1_555
O38 V1 2.045852 1_656
O39 V14 1.906686 1_555
O39 V13 1.906686 1_555
O39 V0 2.035453 1_656
O40 V15 1.890258 1_555
O40 V14 1.901927 1_555
O40 V2 2.045852 1_656
