# generated using pymatgen
data_CaSnS3
_symmetry_space_group_name_H-M   'P 1'
_cell_length_a   7.34034054
_cell_length_b   7.34034054
_cell_length_c   7.34034040
_cell_angle_alpha   54.81415603
_cell_angle_beta   54.81415603
_cell_angle_gamma   54.81415303
_symmetry_Int_Tables_number   1
_chemical_formula_structural   CaSnS3
_chemical_formula_sum   'Ca2 Sn2 S6'
_cell_volume   245.89291981
_cell_formula_units_Z   2
loop_
 _symmetry_equiv_pos_site_id
 _symmetry_equiv_pos_as_xyz
  1  'x, y, z'
loop_
 _atom_site_type_symbol
 _atom_site_label
 _atom_site_symmetry_multiplicity
 _atom_site_fract_x
 _atom_site_fract_y
 _atom_site_fract_z
 _atom_site_occupancy
  Ca  Ca0  1  0.63973500  0.63973500  0.63973500  1
  Ca  Ca1  1  0.36026500  0.36026500  0.36026500  1
  Sn  Sn0  1  0.84433700  0.84433700  0.84433700  1
  Sn  Sn1  1  0.15566300  0.15566300  0.15566300  1
  S  S0  1  0.44133800  0.78611100  0.03371100  1
  S  S1  1  0.78611100  0.03371100  0.44133800  1
  S  S2  1  0.03371100  0.44133800  0.78611100  1
  S  S3  1  0.55866200  0.21388900  0.96628900  1
  S  S4  1  0.21388900  0.96628900  0.55866200  1
  S  S5  1  0.96628900  0.55866200  0.21388900  1
loop_
_geom_bond_atom_site_label_1
_geom_bond_atom_site_label_2
_geom_bond_distance
_geom_bond_site_symmetry_2
Ca0 S4 2.781293 1_555
Ca0 S5 2.781293 1_555
Ca0 S3 2.781294 1_555
Ca0 S2 2.926178 1_655
Ca0 S0 2.926178 1_556
Ca0 S1 2.926178 1_565
Ca1 S1 2.781293 1_555
Ca1 S2 2.781293 1_555
Ca1 S0 2.781294 1_555
Ca1 S5 2.926178 1_455
Ca1 S3 2.926178 1_554
Ca1 S4 2.926178 1_545
S0 Sn1 2.576160 1_565
S0 Sn0 2.626600 1_554
S1 Sn1 2.576160 1_655
S1 Sn0 2.626600 1_545
S2 Sn1 2.576160 1_556
S2 Sn0 2.626600 1_455
S3 Sn0 2.576160 1_545
S3 Sn1 2.626600 1_556
S4 Sn0 2.576160 1_455
S4 Sn1 2.626600 1_565
S5 Sn0 2.576160 1_554
S5 Sn1 2.626600 1_655
