# generated using pymatgen
data_Dy2Ni7
_symmetry_space_group_name_H-M   'P 1'
_cell_length_a   4.84886107
_cell_length_b   4.84884972
_cell_length_c   12.19259730
_cell_angle_alpha   101.44727160
_cell_angle_beta   78.55371450
_cell_angle_gamma   119.98055822
_symmetry_Int_Tables_number   1
_chemical_formula_structural   Dy2Ni7
_chemical_formula_sum   'Dy4 Ni14'
_cell_volume   241.69877087
_cell_formula_units_Z   2
loop_
 _symmetry_equiv_pos_site_id
 _symmetry_equiv_pos_as_xyz
  1  'x, y, z'
loop_
 _atom_site_type_symbol
 _atom_site_label
 _atom_site_symmetry_multiplicity
 _atom_site_fract_x
 _atom_site_fract_y
 _atom_site_fract_z
 _atom_site_occupancy
  Dy  Dy0  1  0.94831723  0.05168323  0.15164908  1
  Dy  Dy1  1  0.85298313  0.14701000  0.44095640  1
  Dy  Dy2  1  0.14702040  0.85299036  0.55905622  1
  Dy  Dy3  1  0.05168658  0.94831773  0.84837075  1
  Ni  Ni0  1  0.50002551  -0.00000474  -0.00000015  1
  Ni  Ni1  1  -0.00000732  0.49999724  0.00000038  1
  Ni  Ni2  1  0.50000795  0.49998687  -0.00000205  1
  Ni  Ni3  1  0.60988898  0.39012673  0.16443880  1
  Ni  Ni4  1  0.27705293  0.72293275  0.16501955  1
  Ni  Ni5  1  0.39000352  0.10848509  0.32776671  1
  Ni  Ni6  1  0.38994632  0.61004611  0.32773883  1
  Ni  Ni7  1  0.89150743  0.60999306  0.32776959  1
  Ni  Ni8  1  0.50000343  0.49999680  0.49995746  1
  Ni  Ni9  1  0.10848724  0.39000550  0.67223507  1
  Ni  Ni10  1  0.61004528  0.38995801  0.67224807  1
  Ni  Ni11  1  0.61000321  0.89151539  0.67223917  1
  Ni  Ni12  1  0.72293590  0.27709038  0.83498138  1
  Ni  Ni13  1  0.39010129  0.60987048  0.83557076  1
loop_
_geom_bond_atom_site_label_1
_geom_bond_atom_site_label_2
_geom_bond_distance
_geom_bond_site_symmetry_2
Dy0 Ni3 2.800572 1_545
Dy0 Ni3 2.800638 1_655
Dy0 Ni4 2.802524 1_645
Dy0 Ni4 2.805084 1_655
Dy0 Ni4 2.805158 1_545
Dy0 Ni3 2.810426 1_555
Dy0 Ni0 3.012207 1_555
Dy0 Ni1 3.012334 1_655
Dy0 Ni2 3.020038 1_545
Dy0 Ni2 3.020067 1_655
Dy0 Ni1 3.026571 1_645
Dy0 Ni0 3.026714 1_655
Dy0 Ni7 3.196689 1_555
Dy0 Ni5 3.196704 1_555
Dy0 Ni6 3.201327 1_655
Dy0 Ni6 3.201412 1_545
Dy0 Ni5 3.205414 1_655
Dy0 Ni7 3.205464 1_545
Dy1 Ni7 2.770777 1_545
Dy1 Ni5 2.770829 1_655
Dy1 Ni6 2.772489 1_545
Dy1 Ni6 2.772527 1_655
Dy1 Ni5 2.772617 1_555
Dy1 Ni7 2.772626 1_555
Dy1 Ni8 2.885608 1_555
Dy1 Ni8 2.886187 1_545
Dy1 Ni8 2.886202 1_655
Dy1 Ni10 3.078597 1_555
Dy1 Ni9 3.079580 1_655
Dy1 Ni11 3.079644 1_545
Dy2 Ni9 2.770759 1_565
Dy2 Ni11 2.770791 1_455
Dy2 Ni10 2.772324 1_565
Dy2 Ni10 2.772396 1_455
Dy2 Ni9 2.772553 1_555
Dy2 Ni11 2.772578 1_555
Dy2 Ni8 2.885665 1_555
Dy2 Ni8 2.886573 1_565
Dy2 Ni8 2.886602 1_455
Dy2 Ni6 3.078806 1_555
Dy2 Ni7 3.079686 1_455
Dy2 Ni5 3.079720 1_565
Dy3 Ni13 2.800577 1_565
Dy3 Ni13 2.800716 1_455
Dy3 Ni12 2.802745 1_465
Dy3 Ni12 2.804978 1_455
Dy3 Ni12 2.805081 1_565
Dy3 Ni13 2.810363 1_555
Dy3 Ni1 3.012151 1_556
Dy3 Ni0 3.012229 1_566
Dy3 Ni2 3.019839 1_566
Dy3 Ni2 3.019927 1_456
Dy3 Ni0 3.026407 1_466
Dy3 Ni1 3.026484 1_566
Dy3 Ni9 3.196771 1_555
Dy3 Ni11 3.196798 1_555
Dy3 Ni10 3.201599 1_455
Dy3 Ni10 3.201650 1_565
Dy3 Ni11 3.205536 1_455
Dy3 Ni9 3.205618 1_565
Ni0 Ni4 2.404135 1_545
Ni0 Ni12 2.404200 1_554
Ni0 Ni13 2.406837 1_544
Ni0 Ni3 2.406942 1_555
Ni0 Ni2 2.424418 1_545
Ni0 Ni2 2.424431 1_555
Ni0 Ni1 2.425065 1_655
Ni0 Ni1 2.425215 1_545
Ni1 Ni12 2.404079 1_454
Ni1 Ni4 2.404090 1_555
Ni1 Ni13 2.406839 1_554
Ni1 Ni3 2.406905 1_455
Ni1 Ni2 2.424337 1_455
Ni1 Ni2 2.424524 1_555
Ni2 Ni3 2.391459 1_555
Ni2 Ni4 2.413914 1_555
Ni3 Ni6 2.385331 1_555
Ni3 Ni7 2.397640 1_555
Ni3 Ni5 2.397700 1_555
Ni4 Ni5 2.380756 1_565
Ni4 Ni7 2.380801 1_455
Ni4 Ni6 2.386831 1_555
Ni5 Ni6 2.416650 1_545
Ni5 Ni7 2.417836 1_445
Ni5 Ni6 2.432200 1_555
Ni5 Ni7 2.432444 1_555
Ni5 Ni8 2.479221 1_555
Ni6 Ni7 2.416658 1_455
Ni6 Ni7 2.432203 1_555
Ni6 Ni8 2.480474 1_555
Ni7 Ni8 2.479213 1_555
Ni8 Ni9 2.480049 1_555
Ni10 Ni13 2.385499 1_555
Ni10 Ni12 2.386935 1_555
Ni10 Ni9 2.416729 1_655
Ni10 Ni11 2.416750 1_545
Ni10 Ni11 2.432100 1_555
Ni10 Ni9 2.432132 1_555
Ni10 Ni8 2.481230 1_555
Ni11 Ni12 2.380768 1_565
Ni11 Ni13 2.397746 1_555
Ni11 Ni9 2.417802 1_665
Ni11 Ni9 2.432478 1_555
Ni11 Ni8 2.480055 1_555
Ni12 Ni9 2.380782 1_655
Ni12 Ni2 2.413686 1_556
Ni13 Ni2 2.391424 1_556
Ni13 Ni9 2.397680 1_555
