# generated using pymatgen
data_LiZr2Os
_symmetry_space_group_name_H-M   'P 1'
_cell_length_a   4.65764877
_cell_length_b   4.65764877
_cell_length_c   4.65764877
_cell_angle_alpha   60.00000000
_cell_angle_beta   60.00000000
_cell_angle_gamma   60.00000000
_symmetry_Int_Tables_number   1
_chemical_formula_structural   LiZr2Os
_chemical_formula_sum   'Li1 Zr2 Os1'
_cell_volume   71.44719926
_cell_formula_units_Z   1
loop_
 _symmetry_equiv_pos_site_id
 _symmetry_equiv_pos_as_xyz
  1  'x, y, z'
loop_
 _atom_site_type_symbol
 _atom_site_label
 _atom_site_symmetry_multiplicity
 _atom_site_fract_x
 _atom_site_fract_y
 _atom_site_fract_z
 _atom_site_occupancy
  Li  Li0  1  0.25000000  0.25000000  0.25000000  1
  Zr  Zr0  1  -0.00000000  0.00000000  -0.00000000  1
  Zr  Zr1  1  0.49999900  0.49999900  0.49999900  1
  Os  Os0  1  0.74999900  0.74999900  0.74999900  1
loop_
_geom_bond_atom_site_label_1
_geom_bond_atom_site_label_2
_geom_bond_distance
_geom_bond_site_symmetry_2
Li0 Zr1 2.852204 1_555
Li0 Zr0 2.852216 1_565
Li0 Zr0 2.852216 1_655
Li0 Zr0 2.852216 1_555
Li0 Zr0 2.852216 1_556
Li0 Zr1 2.852220 1_545
Li0 Zr1 2.852220 1_554
Li0 Zr1 2.852220 1_455
Li0 Os0 3.293448 1_455
Li0 Os0 3.293448 1_554
Li0 Os0 3.293448 1_545
Li0 Os0 3.293462 1_454
Li0 Os0 3.293462 1_544
Li0 Os0 3.293462 1_445
Os0 Zr0 2.852212 1_566
Os0 Zr0 2.852212 1_665
Os0 Zr0 2.852212 1_656
Os0 Zr1 2.852216 1_556
Os0 Zr1 2.852216 1_565
Os0 Zr1 2.852216 1_655
Os0 Zr1 2.852216 1_555
Os0 Zr0 2.852227 1_666
