# generated using pymatgen
data_FeS
_symmetry_space_group_name_H-M   'P 1'
_cell_length_a   3.34600360
_cell_length_b   3.34600360
_cell_length_c   5.29910400
_cell_angle_alpha   90.00000000
_cell_angle_beta   90.00000000
_cell_angle_gamma   119.99999203
_symmetry_Int_Tables_number   1
_chemical_formula_structural   FeS
_chemical_formula_sum   'Fe2 S2'
_cell_volume   51.37903187
_cell_formula_units_Z   2
loop_
 _symmetry_equiv_pos_site_id
 _symmetry_equiv_pos_as_xyz
  1  'x, y, z'
loop_
 _atom_site_type_symbol
 _atom_site_label
 _atom_site_symmetry_multiplicity
 _atom_site_fract_x
 _atom_site_fract_y
 _atom_site_fract_z
 _atom_site_occupancy
  Fe  Fe0  1  0.00000000  0.00000000  0.00000000  1
  Fe  Fe1  1  0.00000000  0.00000000  0.50000000  1
  S  S0  1  0.33333300  0.66666700  0.26473300  1
  S  S1  1  0.66666700  0.33333300  0.73526700  1
loop_
_geom_bond_atom_site_label_1
_geom_bond_atom_site_label_2
_geom_bond_distance
_geom_bond_site_symmetry_2
Fe0 S1 2.387444 1_454
Fe0 S0 2.387444 1_545
Fe0 S0 2.387446 1_445
Fe0 S1 2.387446 1_554
Fe0 S0 2.387446 1_555
Fe0 S1 2.387446 1_444
Fe1 S0 2.299169 1_545
Fe1 S1 2.299169 1_455
Fe1 S0 2.299171 1_445
Fe1 S0 2.299171 1_555
Fe1 S1 2.299171 1_555
Fe1 S1 2.299171 1_445
