# generated using pymatgen
data_Na9Cr2(H9O7)3
_symmetry_space_group_name_H-M   'P 1'
_cell_length_a   8.80562200
_cell_length_b   11.50770180
_cell_length_c   11.73026524
_cell_angle_alpha   105.29762812
_cell_angle_beta   87.69260177
_cell_angle_gamma   109.93074434
_symmetry_Int_Tables_number   1
_chemical_formula_structural   Na9Cr2(H9O7)3
_chemical_formula_sum   'Na18 Cr4 H54 O42'
_cell_volume   1076.25047000
_cell_formula_units_Z   2
loop_
 _symmetry_equiv_pos_site_id
 _symmetry_equiv_pos_as_xyz
  1  'x, y, z'
loop_
 _atom_site_type_symbol
 _atom_site_label
 _atom_site_symmetry_multiplicity
 _atom_site_fract_x
 _atom_site_fract_y
 _atom_site_fract_z
 _atom_site_occupancy
  Na  Na0  1  0.99443100  0.39883200  0.37716500  1
  Na  Na1  1  0.79839900  0.32890200  0.63686300  1
  Na  Na2  1  0.79780800  0.32440100  0.13368400  1
  Na  Na3  1  0.57878400  0.02932100  0.63471400  1
  Na  Na4  1  0.59705600  0.03376200  0.13245200  1
  Na  Na5  1  0.58025100  0.51155100  0.62695800  1
  Na  Na6  1  0.59587500  0.51487200  0.11841700  1
  Na  Na7  1  0.39217200  0.22349400  0.62109400  1
  Na  Na8  1  0.40275600  0.22095200  0.12036500  1
  Na  Na9  1  0.59724400  0.77904800  0.87963500  1
  Na  Na10  1  0.60782800  0.77650600  0.37890600  1
  Na  Na11  1  0.40412500  0.48512800  0.88158300  1
  Na  Na12  1  0.41974900  0.48844900  0.37304200  1
  Na  Na13  1  0.40294400  0.96623800  0.86754800  1
  Na  Na14  1  0.42121600  0.97067900  0.36528600  1
  Na  Na15  1  0.20219200  0.67559900  0.86631600  1
  Na  Na16  1  0.20160100  0.67109800  0.36313700  1
  Na  Na17  1  0.00556900  0.60116800  0.62283500  1
  Cr  Cr0  1  0.59052000  0.27372500  0.87466100  1
  Cr  Cr1  1  0.59787000  0.27719200  0.37776900  1
  Cr  Cr2  1  0.40213000  0.72280800  0.62223100  1
  Cr  Cr3  1  0.40948000  0.72627500  0.12533900  1
  H  H0  1  0.99411100  0.09206400  0.81051300  1
  H  H1  1  0.99078800  0.06133800  0.30169200  1
  H  H2  1  0.88843600  0.02896900  0.96446300  1
  H  H3  1  0.87513300  0.05616800  0.50808700  1
  H  H4  1  0.96885900  0.46184200  0.81055700  1
  H  H5  1  0.83964300  0.20931500  0.81911600  1
  H  H6  1  0.80150500  0.15859600  0.30466600  1
  H  H7  1  0.86618300  0.40676300  0.97157700  1
  H  H8  1  0.87593200  0.58878400  0.97135500  1
  H  H9  1  0.67549200  0.12052800  0.94638700  1
  H  H10  1  0.71094900  0.15520100  0.47139700  1
  H  H11  1  0.92683400  0.72522900  0.41355900  1
  H  H12  1  0.95353200  0.79413200  0.55478200  1
  H  H13  1  0.87088100  0.68757300  0.82980300  1
  H  H14  1  0.88124200  0.61077900  0.25964200  1
  H  H15  1  0.94781700  0.74513300  0.02941700  1
  H  H16  1  0.78302200  0.50794900  0.46144300  1
  H  H17  1  0.85522100  0.76371900  0.73321200  1
  H  H18  1  0.85080800  0.73376800  0.22177600  1
  H  H19  1  0.67897500  0.46549600  0.80665800  1
  H  H20  1  0.69664200  0.46132200  0.28650000  1
  H  H21  1  0.84825500  0.94570600  0.57222200  1
  H  H22  1  0.85895200  0.94159400  0.05488000  1
  H  H23  1  0.67996700  0.72055500  0.56168000  1
  H  H24  1  0.68201100  0.72146200  0.05193300  1
  H  H25  1  0.68108800  0.88220800  0.71396700  1
  H  H26  1  0.69476700  0.87300200  0.20507000  1
  H  H27  1  0.30523300  0.12699800  0.79493000  1
  H  H28  1  0.31891200  0.11779200  0.28603300  1
  H  H29  1  0.31798900  0.27853800  0.94806700  1
  H  H30  1  0.32003300  0.27944500  0.43832000  1
  H  H31  1  0.14104800  0.05840600  0.94512000  1
  H  H32  1  0.15174500  0.05429400  0.42777800  1
  H  H33  1  0.30335800  0.53867800  0.71350000  1
  H  H34  1  0.32102500  0.53450400  0.19334200  1
  H  H35  1  0.14919200  0.26623200  0.77822400  1
  H  H36  1  0.14477900  0.23628100  0.26678800  1
  H  H37  1  0.21697800  0.49205100  0.53855700  1
  H  H38  1  0.05218300  0.25486700  0.97058300  1
  H  H39  1  0.11875800  0.38922100  0.74035800  1
  H  H40  1  0.12911900  0.31242700  0.17019700  1
  H  H41  1  0.04646800  0.20586800  0.44521800  1
  H  H42  1  0.07316600  0.27477100  0.58644100  1
  H  H43  1  0.28905100  0.84479900  0.52860300  1
  H  H44  1  0.32450800  0.87947200  0.05361300  1
  H  H45  1  0.12406800  0.41121600  0.02864500  1
  H  H46  1  0.13381700  0.59323700  0.02842300  1
  H  H47  1  0.19849500  0.84140400  0.69533400  1
  H  H48  1  0.16035700  0.79068500  0.18088400  1
  H  H49  1  0.03114100  0.53815800  0.18944300  1
  H  H50  1  0.12486700  0.94383200  0.49191300  1
  H  H51  1  0.11156400  0.97103100  0.03553700  1
  H  H52  1  0.00921200  0.93866200  0.69830800  1
  H  H53  1  0.00588900  0.90793600  0.18948700  1
  O  O0  1  0.96330700  0.52721400  0.25611500  1
  O  O1  1  0.95619400  0.67116900  0.96081100  1
  O  O2  1  0.75026100  0.20930200  0.77335700  1
  O  O3  1  0.99633400  0.74051000  0.48443400  1
  O  O4  1  0.77101900  0.22145900  0.27883000  1
  O  O5  1  0.76987000  0.43139600  0.97679300  1
  O  O6  1  0.77267100  0.43389700  0.49064500  1
  O  O7  1  0.60205700  0.16321700  0.98644200  1
  O  O8  1  0.92242500  0.86036300  0.12647100  1
  O  O9  1  0.90419900  0.87863000  0.66352500  1
  O  O10  1  0.60806900  0.16857200  0.48906600  1
  O  O11  1  0.81246200  0.67932000  0.75555000  1
  O  O12  1  0.80615200  0.67330100  0.27081400  1
  O  O13  1  0.59194400  0.38858900  0.76511200  1
  O  O14  1  0.59717600  0.38746100  0.26567800  1
  O  O15  1  0.79795200  0.97297300  0.51183500  1
  O  O16  1  0.41161300  0.12507900  0.76838400  1
  O  O17  1  0.43113600  0.12729700  0.26605100  1
  O  O18  1  0.80289700  0.97716700  0.00505700  1
  O  O19  1  0.42711400  0.33409200  0.97901000  1
  O  O20  1  0.57342800  0.66640900  0.52513200  1
  O  O21  1  0.42657200  0.33359100  0.47486800  1
  O  O22  1  0.57288600  0.66590800  0.02099000  1
  O  O23  1  0.19710300  0.02283300  0.99494300  1
  O  O24  1  0.56886400  0.87270300  0.73394900  1
  O  O25  1  0.58838700  0.87492100  0.23161600  1
  O  O26  1  0.20204800  0.02702700  0.48816500  1
  O  O27  1  0.40282400  0.61253900  0.73432200  1
  O  O28  1  0.40805600  0.61141100  0.23488800  1
  O  O29  1  0.19384800  0.32669900  0.72918600  1
  O  O30  1  0.18753800  0.32068000  0.24445000  1
  O  O31  1  0.39193100  0.83142800  0.51093400  1
  O  O32  1  0.09580100  0.12137000  0.33647500  1
  O  O33  1  0.07757500  0.13963700  0.87352900  1
  O  O34  1  0.39794300  0.83678300  0.01355800  1
  O  O35  1  0.22732900  0.56610300  0.50935500  1
  O  O36  1  0.23013000  0.56860400  0.02320700  1
  O  O37  1  0.22898100  0.77854100  0.72117000  1
  O  O38  1  0.00366600  0.25949000  0.51556600  1
  O  O39  1  0.24973900  0.79069800  0.22664300  1
  O  O40  1  0.04380600  0.32883100  0.03918900  1
  O  O41  1  0.03669300  0.47278600  0.74388500  1
loop_
_geom_bond_atom_site_label_1
_geom_bond_atom_site_label_2
_geom_bond_distance
_geom_bond_site_symmetry_2
Na0 O4 2.360034 1_555
Na0 O0 2.385026 1_555
Na0 O6 2.406747 1_555
Na0 O30 2.492896 1_655
Na0 O35 2.511024 1_655
Na0 O38 2.585869 1_655
Na1 O2 2.312550 1_555
Na1 O41 2.338195 1_655
Na1 O10 2.378374 1_555
Na1 O6 2.400927 1_555
Na1 O38 2.471261 1_655
Na1 O13 2.475041 1_555
Na2 O4 2.280187 1_555
Na2 O40 2.384266 1_655
Na2 O0 2.390492 1_555
Na2 O7 2.400901 1_554
Na2 O14 2.471038 1_555
Na2 O5 2.530250 1_554
Na3 O2 2.345813 1_555
Na3 O24 2.366960 1_545
Na3 O16 2.418290 1_555
Na3 O31 2.427866 1_545
Na3 O15 2.521640 1_545
Na3 O10 2.584713 1_555
Na4 O25 2.391605 1_545
Na4 O17 2.397259 1_555
Na4 O4 2.441164 1_555
Na4 O34 2.444709 1_545
Na4 O18 2.452723 1_545
Na4 O7 2.539733 1_554
Na5 O21 2.363299 1_555
Na5 O27 2.384275 1_555
Na5 O20 2.409979 1_555
Na5 O13 2.441705 1_555
Na5 O11 2.490784 1_555
Na5 O6 2.507267 1_555
Na6 O19 2.345902 1_554
Na6 O22 2.382146 1_555
Na6 O5 2.446729 1_554
Na6 O28 2.471004 1_555
Na6 O12 2.488649 1_555
Na6 O14 2.546239 1_555
Na7 O21 2.341438 1_555
Na7 O16 2.342125 1_555
Na7 O13 2.413531 1_555
Na7 O26 2.472899 1_555
Na7 O10 2.545155 1_555
Na7 O29 2.551302 1_555
Na8 O17 2.309619 1_555
Na8 O19 2.326089 1_554
Na8 O14 2.404800 1_555
Na8 O7 2.451822 1_554
Na8 O23 2.504321 1_554
Na9 O24 2.309619 1_555
Na9 O22 2.326089 1_556
Na9 O27 2.404800 1_555
Na9 O34 2.451822 1_556
Na9 O18 2.504321 1_556
Na10 O20 2.341438 1_555
Na10 O25 2.342125 1_555
Na10 O28 2.413531 1_555
Na10 O15 2.472899 1_555
Na10 O31 2.545155 1_555
Na10 O12 2.551302 1_555
Na11 O22 2.345902 1_556
Na11 O19 2.382146 1_555
Na11 O36 2.446729 1_556
Na11 O13 2.471004 1_555
Na11 O29 2.488649 1_555
Na11 O27 2.546239 1_555
Na12 O20 2.363299 1_555
Na12 O14 2.384275 1_555
Na12 O21 2.409979 1_555
Na12 O28 2.441705 1_555
Na12 O30 2.490784 1_555
Na12 O35 2.507267 1_555
Na13 O16 2.391605 1_565
Na13 O24 2.397259 1_555
Na13 O37 2.441164 1_555
Na13 O7 2.444709 1_565
Na13 O23 2.452723 1_565
Na13 O34 2.539733 1_556
Na14 O39 2.345813 1_555
Na14 O17 2.366960 1_565
Na14 O25 2.418290 1_555
Na14 O10 2.427866 1_565
Na14 O26 2.521640 1_565
Na14 O31 2.584713 1_555
Na15 O37 2.280187 1_555
Na15 O1 2.384266 1_455
Na15 O41 2.390492 1_555
Na15 O34 2.400901 1_556
Na15 O27 2.471038 1_555
Na15 O36 2.530250 1_556
Na16 O39 2.312550 1_555
Na16 O0 2.338195 1_455
Na16 O31 2.378374 1_555
Na16 O35 2.400927 1_555
Na16 O3 2.471261 1_455
Na16 O28 2.475041 1_555
Na17 O37 2.360034 1_555
Na17 O41 2.385026 1_555
Na17 O35 2.406747 1_555
Na17 O11 2.492896 1_455
Na17 O6 2.511024 1_455
Na17 O3 2.585869 1_455
Cr0 O2 2.012910 1_555
Cr0 O19 2.035251 1_555
Cr0 O16 2.039048 1_555
Cr0 O5 2.067201 1_555
Cr0 O13 2.069392 1_555
Cr0 O7 2.079783 1_555
Cr1 O17 2.020871 1_555
Cr1 O21 2.032928 1_555
Cr1 O4 2.052896 1_555
Cr1 O10 2.054748 1_555
Cr1 O14 2.055587 1_555
Cr1 O6 2.094308 1_555
Cr2 O24 2.020871 1_555
Cr2 O20 2.032928 1_555
Cr2 O37 2.052896 1_555
Cr2 O31 2.054748 1_555
Cr2 O27 2.055587 1_555
Cr2 O35 2.094308 1_555
Cr3 O39 2.012910 1_555
Cr3 O22 2.035251 1_555
Cr3 O25 2.039048 1_555
Cr3 O36 2.067201 1_555
Cr3 O28 2.069392 1_555
Cr3 O34 2.079783 1_555
H0 O33 0.970655 1_655
H1 O32 0.972073 1_655
H2 O18 0.981954 1_546
H3 O15 0.978065 1_545
H4 O41 0.973330 1_655
H4 Na1 2.404310 1_555
H5 O2 0.970300 1_555
H6 O4 0.970497 1_555
H6 Na4 2.526654 1_555
H7 O5 0.976698 1_555
H7 Na2 2.312253 1_556
H8 O1 1.005804 1_555
H9 O7 0.974962 1_555
H9 Na13 2.484889 1_545
H9 Na4 2.606929 1_556
H10 O10 0.974893 1_555
H10 Na1 2.319398 1_555
H11 O3 0.993533 1_555
H12 O3 1.033734 1_555
H12 O9 1.533042 1_555
H13 O11 0.995700 1_555
H14 O12 1.113394 1_555
H14 O0 1.378054 1_555
H15 O1 1.026713 1_554
H15 O8 1.577821 1_555
H16 O6 0.974884 1_555
H16 Na17 2.523696 1_655
H17 O11 1.015263 1_555
H17 O9 1.660133 1_555
H18 O12 0.988003 1_555
H19 O13 0.973734 1_555
H19 Na11 2.603402 1_555
H20 O14 0.974357 1_555
H20 Na2 2.414032 1_555
H20 Na6 2.491846 1_555
H21 O15 1.016728 1_555
H21 O9 1.650303 1_555
H22 O18 1.019812 1_555
H22 O8 1.643065 1_555
H23 O20 0.972141 1_555
H24 O22 0.975002 1_555
H24 Na6 2.556706 1_555
H25 O24 0.982157 1_555
H26 O25 0.980778 1_555
H26 Na4 2.619937 1_565
H27 O16 0.980778 1_555
H27 Na13 2.619937 1_545
H28 O17 0.982157 1_555
H29 O19 0.975002 1_555
H29 Na11 2.556706 1_555
H30 O21 0.972141 1_555
H31 O23 1.019812 1_555
H31 O33 1.643065 1_555
H32 O26 1.016728 1_555
H32 O32 1.650303 1_555
H33 O27 0.974357 1_555
H33 Na15 2.414032 1_555
H33 Na11 2.491846 1_555
H34 O28 0.973734 1_555
H34 Na6 2.603402 1_555
H35 O29 0.988003 1_555
H36 O30 1.015263 1_555
H36 O32 1.660133 1_555
H37 O35 0.974884 1_555
H37 Na0 2.523696 1_455
H38 O40 1.026713 1_556
H38 O33 1.577821 1_555
H39 O29 1.113394 1_555
H39 O41 1.378054 1_555
H40 O30 0.995700 1_555
H41 O38 1.033734 1_555
H41 O32 1.533042 1_555
H42 O38 0.993533 1_555
H43 O31 0.974893 1_555
H43 Na16 2.319398 1_555
H44 O34 0.974962 1_555
H44 Na4 2.484889 1_565
H44 Na13 2.606929 1_554
H45 O40 1.005804 1_555
H46 O36 0.976698 1_555
H46 Na15 2.312253 1_554
H47 O37 0.970497 1_555
H47 Na13 2.526654 1_555
H48 O39 0.970300 1_555
H49 O0 0.973330 1_455
H49 Na16 2.404310 1_555
H50 O26 0.978065 1_565
H51 O23 0.981954 1_564
H52 O9 0.972073 1_455
H53 O8 0.970655 1_455
