# generated using pymatgen
data_Sc3Hg
_symmetry_space_group_name_H-M   'P 1'
_cell_length_a   6.28818696
_cell_length_b   6.28818411
_cell_length_c   5.21294537
_cell_angle_alpha   90.00000077
_cell_angle_beta   89.99999910
_cell_angle_gamma   120.03655241
_symmetry_Int_Tables_number   1
_chemical_formula_structural   Sc3Hg
_chemical_formula_sum   'Sc6 Hg2'
_cell_volume   178.44501487
_cell_formula_units_Z   2
loop_
 _symmetry_equiv_pos_site_id
 _symmetry_equiv_pos_as_xyz
  1  'x, y, z'
loop_
 _atom_site_type_symbol
 _atom_site_label
 _atom_site_symmetry_multiplicity
 _atom_site_fract_x
 _atom_site_fract_y
 _atom_site_fract_z
 _atom_site_occupancy
  Sc  Sc0  1  0.17093582  0.34105231  0.25000000  1
  Sc  Sc1  1  0.65894684  0.82906374  0.25000000  1
  Sc  Sc2  1  0.17112459  0.82887802  0.24999999  1
  Sc  Sc3  1  0.82906855  0.65894656  0.75000000  1
  Sc  Sc4  1  0.34105427  0.17093627  0.75000000  1
  Sc  Sc5  1  0.82887852  0.17112076  0.75000001  1
  Hg  Hg0  1  0.33324054  0.66675566  0.75000000  1
  Hg  Hg1  1  0.66675487  0.33324269  0.25000000  1
loop_
_geom_bond_atom_site_label_1
_geom_bond_atom_site_label_2
_geom_bond_distance
_geom_bond_site_symmetry_2
Sc0 Sc2 3.066944 1_555
Sc0 Sc1 3.067010 1_555
Sc0 Sc4 3.198112 1_554
Sc0 Sc4 3.198112 1_555
Sc0 Sc5 3.203288 1_454
Sc0 Sc5 3.203288 1_455
Sc0 Sc1 3.217702 1_445
Sc0 Sc2 3.221241 1_545
Sc1 Sc2 3.066933 1_555
Sc1 Sc3 3.198126 1_554
Sc1 Sc3 3.198126 1_555
Sc1 Sc5 3.203286 1_564
Sc1 Sc5 3.203286 1_565
Sc1 Sc2 3.221254 1_655
Sc2 Sc3 3.203284 1_454
Sc2 Sc3 3.203284 1_455
Sc2 Sc4 3.203290 1_564
Sc2 Sc4 3.203290 1_565
Sc3 Sc5 3.066940 1_555
Sc3 Sc4 3.067016 1_555
Sc3 Sc4 3.217695 1_665
Sc3 Sc5 3.221244 1_565
Sc4 Sc5 3.066950 1_555
Sc4 Sc5 3.221238 1_455
Hg0 Sc4 3.142686 1_555
Hg0 Sc5 3.142705 1_455
Hg0 Sc5 3.142725 1_565
Hg0 Sc3 3.142726 1_555
Hg0 Sc3 3.146035 1_455
Hg0 Sc4 3.146074 1_565
Hg0 Sc2 3.148427 1_556
Hg0 Sc2 3.148427 1_555
Hg0 Sc0 3.152362 1_555
Hg0 Sc0 3.152362 1_556
Hg0 Sc1 3.152371 1_555
Hg0 Sc1 3.152371 1_556
Hg1 Sc0 3.142672 1_555
Hg1 Sc1 3.142678 1_555
Hg1 Sc2 3.142700 1_545
Hg1 Sc2 3.142732 1_655
Hg1 Sc1 3.146081 1_545
Hg1 Sc0 3.146090 1_655
Hg1 Sc5 3.148449 1_554
Hg1 Sc5 3.148449 1_555
Hg1 Sc4 3.152354 1_555
Hg1 Sc4 3.152354 1_554
Hg1 Sc3 3.152363 1_555
Hg1 Sc3 3.152363 1_554
