# generated using pymatgen
data_Li2Si3Ni3O10
_symmetry_space_group_name_H-M   'P 1'
_cell_length_a   8.18177174
_cell_length_b   8.18177174
_cell_length_c   10.22695143
_cell_angle_alpha   86.90636598
_cell_angle_beta   86.90636598
_cell_angle_gamma   33.92179227
_symmetry_Int_Tables_number   1
_chemical_formula_structural   Li2Si3Ni3O10
_chemical_formula_sum   'Li4 Si6 Ni6 O20'
_cell_volume   381.44332549
_cell_formula_units_Z   2
loop_
 _symmetry_equiv_pos_site_id
 _symmetry_equiv_pos_as_xyz
  1  'x, y, z'
loop_
 _atom_site_type_symbol
 _atom_site_label
 _atom_site_symmetry_multiplicity
 _atom_site_fract_x
 _atom_site_fract_y
 _atom_site_fract_z
 _atom_site_occupancy
  Li  Li0  1  0.26551000  0.84435800  0.02728100  1
  Li  Li1  1  0.84435800  0.26551000  0.52728100  1
  Li  Li2  1  0.15564200  0.73449000  0.47271900  1
  Li  Li3  1  0.73449000  0.15564200  0.97271900  1
  Si  Si0  1  0.84360800  0.46927300  0.09346700  1
  Si  Si1  1  0.46927300  0.84360800  0.59346700  1
  Si  Si2  1  0.53072700  0.15639200  0.40653300  1
  Si  Si3  1  0.15639200  0.53072700  0.90653300  1
  Si  Si4  1  0.81092500  0.18907500  0.25000000  1
  Si  Si5  1  0.18907500  0.81092500  0.75000000  1
  Ni  Ni0  1  0.38035500  0.93482500  0.28470400  1
  Ni  Ni1  1  0.93482500  0.38035500  0.78470400  1
  Ni  Ni2  1  0.50000000  0.00000000  0.00000000  1
  Ni  Ni3  1  0.00000000  0.50000000  0.50000000  1
  Ni  Ni4  1  0.06517500  0.61964500  0.21529600  1
  Ni  Ni5  1  0.61964500  0.06517500  0.71529600  1
  O  O0  1  0.04410700  0.05261400  0.35752600  1
  O  O1  1  0.64405000  0.48595500  0.16990500  1
  O  O2  1  0.05261400  0.04410700  0.85752600  1
  O  O3  1  0.48595500  0.64405000  0.66990500  1
  O  O4  1  0.18260800  0.12781000  0.10237600  1
  O  O5  1  0.61266500  0.70063400  0.44844000  1
  O  O6  1  0.12781000  0.18260800  0.60237600  1
  O  O7  1  0.70063400  0.61266500  0.94844000  1
  O  O8  1  0.75154200  0.71443100  0.16681800  1
  O  O9  1  0.71443100  0.75154200  0.66681800  1
  O  O10  1  0.28556900  0.24845800  0.33318200  1
  O  O11  1  0.24845800  0.28556900  0.83318200  1
  O  O12  1  0.29936600  0.38733500  0.05156000  1
  O  O13  1  0.87219000  0.81739200  0.39762400  1
  O  O14  1  0.38733500  0.29936600  0.55156000  1
  O  O15  1  0.81739200  0.87219000  0.89762400  1
  O  O16  1  0.51404500  0.35595000  0.33009500  1
  O  O17  1  0.94738600  0.95589300  0.14247400  1
  O  O18  1  0.35595000  0.51404500  0.83009500  1
  O  O19  1  0.95589300  0.94738600  0.64247400  1
loop_
_geom_bond_atom_site_label_1
_geom_bond_atom_site_label_2
_geom_bond_distance
_geom_bond_site_symmetry_2
Li0 O4 1.988390 1_565
Li0 O2 2.003675 1_564
Li0 O17 2.199646 1_455
Li0 O1 2.296108 1_555
Li0 O7 2.360687 1_554
Li1 O6 1.988390 1_655
Li1 O0 2.003675 1_655
Li1 O19 2.199646 1_545
Li1 O3 2.296108 1_555
Li1 O5 2.360687 1_555
Li2 O13 1.988390 1_455
Li2 O19 2.003675 1_455
Li2 O0 2.199646 1_565
Li2 O16 2.296108 1_555
Li2 O14 2.360687 1_555
Li3 O15 1.988390 1_545
Li3 O17 2.003675 1_546
Li3 O2 2.199646 1_655
Li3 O18 2.296108 1_555
Li3 O12 2.360687 1_556
Ni0 O5 2.010271 1_555
Ni0 O10 2.055509 1_565
Ni0 O4 2.087082 1_565
Ni0 O0 2.123254 1_565
Ni0 O8 2.163155 1_555
Ni0 O1 2.561822 1_555
Ni1 O7 2.010271 1_555
Ni1 O11 2.055509 1_655
Ni1 O6 2.087082 1_655
Ni1 O2 2.123254 1_655
Ni1 O9 2.163155 1_555
Ni1 O3 2.561822 1_555
Ni2 O4 2.061853 1_555
Ni2 O15 2.061853 1_544
Ni2 O7 2.114049 1_544
Ni2 O12 2.114049 1_555
Ni2 O8 2.138609 1_545
Ni2 O11 2.138609 1_554
Ni3 O6 2.061853 1_555
Ni3 O13 2.061853 1_455
Ni3 O5 2.114049 1_455
Ni3 O14 2.114049 1_555
Ni3 O10 2.138609 1_555
Ni3 O9 2.138609 1_455
Ni4 O12 2.010271 1_555
Ni4 O8 2.055509 1_455
Ni4 O13 2.087082 1_455
Ni4 O17 2.123254 1_455
Ni4 O10 2.163155 1_555
Ni4 O16 2.561822 1_555
Ni5 O14 2.010271 1_555
Ni5 O9 2.055509 1_545
Ni5 O15 2.087082 1_545
Ni5 O19 2.123254 1_545
Ni5 O11 2.163155 1_555
Ni5 O18 2.561822 1_555
O0 Si4 1.629265 1_455
O1 Si0 1.673162 1_555
O1 Si4 1.684407 1_555
O2 Si5 1.629265 1_545
O3 Si1 1.673162 1_555
O3 Si5 1.684407 1_555
O4 Si0 1.626721 1_455
O5 Si1 1.632930 1_555
O6 Si1 1.626721 1_545
O7 Si0 1.632930 1_556
O8 Si0 1.657524 1_555
O9 Si1 1.657524 1_555
O10 Si2 1.657524 1_555
O11 Si3 1.657524 1_555
O12 Si3 1.632930 1_554
O13 Si2 1.626721 1_565
O14 Si2 1.632930 1_555
O15 Si3 1.626721 1_655
O16 Si2 1.673162 1_555
O16 Si4 1.684407 1_555
O17 Si4 1.629265 1_565
O18 Si3 1.673162 1_555
O18 Si5 1.684407 1_555
O19 Si5 1.629265 1_655
