# generated using pymatgen
data_FeAs2PbO8
_symmetry_space_group_name_H-M   'P 1'
_cell_length_a   8.46952400
_cell_length_b   4.94721800
_cell_length_c   16.09674223
_cell_angle_alpha   75.39452113
_cell_angle_beta   90.00000000
_cell_angle_gamma   90.00000000
_symmetry_Int_Tables_number   1
_chemical_formula_structural   FeAs2PbO8
_chemical_formula_sum   'Fe4 As8 Pb4 O32'
_cell_volume   652.66763539
_cell_formula_units_Z   4
loop_
 _symmetry_equiv_pos_site_id
 _symmetry_equiv_pos_as_xyz
  1  'x, y, z'
loop_
 _atom_site_type_symbol
 _atom_site_label
 _atom_site_symmetry_multiplicity
 _atom_site_fract_x
 _atom_site_fract_y
 _atom_site_fract_z
 _atom_site_occupancy
  Fe  Fe0  1  0.95098300  0.69256400  0.64649700  1
  Fe  Fe1  1  0.54901700  0.69256400  0.14649700  1
  Fe  Fe2  1  0.04901700  0.30743600  0.35350300  1
  Fe  Fe3  1  0.45098300  0.30743600  0.85350300  1
  As  As0  1  0.81035300  0.29580600  0.51879400  1
  As  As1  1  0.68964700  0.29580600  0.01879400  1
  As  As2  1  0.18964700  0.70419400  0.48120600  1
  As  As3  1  0.31035300  0.70419400  0.98120600  1
  As  As4  1  0.76742800  0.07146500  0.76680700  1
  As  As5  1  0.73257200  0.07146500  0.26680700  1
  As  As6  1  0.23257200  0.92853500  0.23319300  1
  As  As7  1  0.26742800  0.92853500  0.73319300  1
  Pb  Pb0  1  0.52762300  0.75231300  0.61860000  1
  Pb  Pb1  1  0.97237700  0.75231300  0.11860000  1
  Pb  Pb2  1  0.47237700  0.24768700  0.38140000  1
  Pb  Pb3  1  0.02762300  0.24768700  0.88140000  1
  O  O0  1  0.95161600  0.07640400  0.57284900  1
  O  O1  1  0.54838400  0.07640400  0.07284900  1
  O  O2  1  0.04838400  0.92359600  0.42715100  1
  O  O3  1  0.45161600  0.92359600  0.92715100  1
  O  O4  1  0.86519900  0.42036300  0.41421700  1
  O  O5  1  0.63480100  0.42036300  0.91421700  1
  O  O6  1  0.13480100  0.57963700  0.58578300  1
  O  O7  1  0.36519900  0.57963700  0.08578300  1
  O  O8  1  0.78135400  0.55926500  0.57230400  1
  O  O9  1  0.71864600  0.55926500  0.07230400  1
  O  O10  1  0.21864600  0.44073500  0.42769600  1
  O  O11  1  0.28135400  0.44073500  0.92769600  1
  O  O12  1  0.61949800  0.15659400  0.51817400  1
  O  O13  1  0.88050200  0.15659400  0.01817400  1
  O  O14  1  0.38050200  0.84340600  0.48182600  1
  O  O15  1  0.11949800  0.84340600  0.98182600  1
  O  O16  1  0.58832600  0.23782700  0.75895100  1
  O  O17  1  0.91167400  0.23782700  0.25895100  1
  O  O18  1  0.41167400  0.76217300  0.24104900  1
  O  O19  1  0.08832600  0.76217300  0.74104900  1
  O  O20  1  0.75206700  0.84487900  0.70065300  1
  O  O21  1  0.74793300  0.84487900  0.20065300  1
  O  O22  1  0.24793300  0.15512100  0.29934700  1
  O  O23  1  0.25206700  0.15512100  0.79934700  1
  O  O24  1  0.91594800  0.32325100  0.73491100  1
  O  O25  1  0.58405200  0.32325100  0.23491100  1
  O  O26  1  0.08405200  0.67674900  0.26508900  1
  O  O27  1  0.41594800  0.67674900  0.76508900  1
  O  O28  1  0.83720000  0.91340800  0.86710200  1
  O  O29  1  0.66280000  0.91340800  0.36710200  1
  O  O30  1  0.16280000  0.08659200  0.13289800  1
  O  O31  1  0.33720000  0.08659200  0.63289800  1
loop_
_geom_bond_atom_site_label_1
_geom_bond_atom_site_label_2
_geom_bond_distance
_geom_bond_site_symmetry_2
Fe0 O0 1.968774 1_565
Fe0 O6 1.991575 1_655
Fe0 O19 2.013068 1_655
Fe0 O24 2.034775 1_555
Fe0 O8 2.079035 1_555
Fe0 O20 2.120687 1_555
Fe1 O1 1.968774 1_565
Fe1 O7 1.991575 1_555
Fe1 O18 2.013068 1_555
Fe1 O25 2.034775 1_555
Fe1 O9 2.079035 1_555
Fe1 O21 2.120687 1_555
Fe2 O2 1.968774 1_545
Fe2 O4 1.991575 1_455
Fe2 O17 2.013068 1_455
Fe2 O26 2.034775 1_555
Fe2 O10 2.079035 1_555
Fe2 O22 2.120687 1_555
Fe3 O3 1.968774 1_545
Fe3 O5 1.991575 1_555
Fe3 O16 2.013068 1_555
Fe3 O27 2.034775 1_555
Fe3 O11 2.079035 1_555
Fe3 O23 2.120687 1_555
As0 O0 1.700114 1_555
As0 O4 1.704706 1_555
As0 O8 1.751351 1_555
As0 O12 1.758068 1_555
As1 O1 1.700114 1_555
As1 O5 1.704706 1_554
As1 O9 1.751351 1_555
As1 O13 1.758068 1_555
As2 O2 1.700114 1_555
As2 O6 1.704706 1_555
As2 O10 1.751351 1_555
As2 O14 1.758068 1_555
As3 O3 1.700114 1_555
As3 O7 1.704706 1_556
As3 O11 1.751351 1_555
As3 O15 1.758068 1_555
As4 O28 1.711826 1_545
As4 O16 1.715194 1_555
As4 O20 1.734773 1_545
As4 O24 1.753563 1_555
As5 O29 1.711826 1_545
As5 O17 1.715194 1_555
As5 O21 1.734773 1_545
As5 O25 1.753563 1_555
As6 O30 1.711826 1_565
As6 O18 1.715194 1_555
As6 O22 1.734773 1_565
As6 O26 1.753563 1_555
As7 O31 1.711826 1_565
As7 O19 1.715194 1_555
As7 O23 1.734773 1_565
As7 O27 1.753563 1_555
O8 Pb0 2.538606 1_555
O9 Pb1 2.538606 1_555
O10 Pb2 2.538606 1_555
O11 Pb3 2.538606 1_555
O12 Pb0 2.363974 1_545
O12 Pb2 2.470315 1_555
O13 Pb1 2.363974 1_545
O13 Pb3 2.470315 1_654
O14 Pb2 2.363974 1_565
O14 Pb0 2.470315 1_555
O15 Pb3 2.363974 1_565
O15 Pb1 2.470315 1_456
O20 Pb0 2.423381 1_555
O21 Pb1 2.423381 1_555
O22 Pb2 2.423381 1_555
O23 Pb3 2.423381 1_555
O24 Pb3 2.479907 1_655
O25 Pb2 2.479907 1_555
O26 Pb1 2.479907 1_455
O27 Pb0 2.479907 1_555
O28 Pb3 2.362396 1_665
O29 Pb2 2.362396 1_565
O30 Pb1 2.362396 1_445
O31 Pb0 2.362396 1_545
