# generated using pymatgen
data_Li4(CoO2)9
_symmetry_space_group_name_H-M   'P 1'
_cell_length_a   8.69743219
_cell_length_b   23.94320030
_cell_length_c   2.82252593
_cell_angle_alpha   90.00008112
_cell_angle_beta   90.00001130
_cell_angle_gamma   89.72214839
_symmetry_Int_Tables_number   1
_chemical_formula_structural   Li4(CoO2)9
_chemical_formula_sum   'Li8 Co18 O36'
_cell_volume   587.76819740
_cell_formula_units_Z   2
loop_
 _symmetry_equiv_pos_site_id
 _symmetry_equiv_pos_as_xyz
  1  'x, y, z'
loop_
 _atom_site_type_symbol
 _atom_site_label
 _atom_site_symmetry_multiplicity
 _atom_site_fract_x
 _atom_site_fract_y
 _atom_site_fract_z
 _atom_site_occupancy
  Li  Li0  1  0.16925290  0.99321801  0.99999838  1
  Li  Li1  1  0.20629864  0.20330046  0.99999964  1
  Li  Li2  1  0.29453694  0.70383442  0.99999844  1
  Li  Li3  1  0.32636104  0.49336915  -0.00000061  1
  Li  Li4  1  0.67288269  0.50663028  0.99999935  1
  Li  Li5  1  0.70472309  0.29592206  0.00000070  1
  Li  Li6  1  0.79382364  0.79668771  0.00000000  1
  Li  Li7  1  0.83056938  0.00684968  0.00000097  1
  Co  Co0  1  0.00006057  0.49997341  -0.00000104  1
  Co  Co1  1  0.01592239  0.10579200  0.99999859  1
  Co  Co2  1  0.01939912  0.31019783  0.00000065  1
  Co  Co3  1  0.14048680  0.58722004  0.50000050  1
  Co  Co4  1  0.14543479  0.80912722  0.50000215  1
  Co  Co5  1  0.35474814  0.30942622  0.50000007  1
  Co  Co6  1  0.35963171  0.08739475  0.49999906  1
  Co  Co7  1  0.48097189  0.80981716  0.00000086  1
  Co  Co8  1  0.48406585  0.60576104  0.99999887  1
  Co  Co9  1  0.49997109  0.99998296  -0.00000022  1
  Co  Co10  1  0.51647749  0.39423392  -0.00000351  1
  Co  Co11  1  0.51914257  0.19008193  0.00000084  1
  Co  Co12  1  0.64036081  0.91259482  0.50000418  1
  Co  Co13  1  0.64516326  0.69058042  0.50000080  1
  Co  Co14  1  0.85456192  0.19094798  0.49999786  1
  Co  Co15  1  0.85933732  0.41289389  0.50000137  1
  Co  Co16  1  0.98068765  0.68982790  0.00000104  1
  Co  Co17  1  0.98411828  0.89426260  0.00000043  1
  O  O0  1  -0.00053787  0.42113386  0.00000364  1
  O  O1  1  0.00098354  0.57870222  0.00000094  1
  O  O2  1  0.03185093  0.94250122  0.50000058  1
  O  O3  1  0.05200410  0.15963179  0.50000514  1
  O  O4  1  0.11220300  0.66573615  0.50000207  1
  O  O5  1  0.10258954  0.76092927  0.00000396  1
  O  O6  1  0.14677231  0.50811848  0.49999605  1
  O  O7  1  0.14963558  0.28603520  0.49999928  1
  O  O8  1  0.17917159  0.85954948  0.00000489  1
  O  O9  1  0.21839069  0.08775199  0.99999750  1
  O  O10  1  0.28122673  0.58838790  -0.00000006  1
  O  O11  1  0.32015718  0.35978998  -0.00000051  1
  O  O12  1  0.35132875  0.78608922  0.50000396  1
  O  O13  1  0.35427551  0.00693171  0.49999855  1
  O  O14  1  0.39824751  0.26099151  0.00000126  1
  O  O15  1  0.38796827  0.16540130  0.49999928  1
  O  O16  1  0.44801972  0.65970369  0.49999889  1
  O  O17  1  0.46784253  0.44206234  0.49999841  1
  O  O18  1  0.50270837  0.07751373  0.00000146  1
  O  O19  1  0.49727555  0.92248160  0.00000523  1
  O  O20  1  0.53212065  0.55776804  0.49999973  1
  O  O21  1  0.55195106  0.34022766  0.49999388  1
  O  O22  1  0.61196967  0.83464372  0.49999901  1
  O  O23  1  0.60186008  0.73899966  0.99999942  1
  O  O24  1  0.64564938  0.99305328  0.49999773  1
  O  O25  1  0.64853381  0.21405774  0.50000076  1
  O  O26  1  0.67957377  0.64018689  0.00000441  1
  O  O27  1  0.71903981  0.41164673  0.00000002  1
  O  O28  1  0.78165926  0.91227055  0.00000465  1
  O  O29  1  0.82079372  0.14050554  0.99999838  1
  O  O30  1  0.85074478  0.71387792  0.50000026  1
  O  O31  1  0.85359417  0.49195233  0.49999769  1
  O  O32  1  0.89716472  0.23914458  0.99999575  1
  O  O33  1  0.88801985  0.33428278  0.50000237  1
  O  O34  1  0.94804577  0.84045144  0.49999394  1
  O  O35  1  0.96817597  0.05756066  0.49999212  1
loop_
_geom_bond_atom_site_label_1
_geom_bond_atom_site_label_2
_geom_bond_distance
_geom_bond_site_symmetry_2
Li0 O13 2.166609 1_566
Li0 O13 2.166609 1_565
Li0 O2 2.215496 1_555
Li0 O2 2.215507 1_556
Li0 O9 2.305475 1_565
Li1 O14 2.171977 1_556
Li1 O3 2.213438 1_555
Li1 O3 2.213460 1_556
Li1 O15 2.301688 1_556
Li1 O15 2.301688 1_555
Li1 O7 2.479750 1_556
Li1 O7 2.479754 1_555
Li2 O5 2.152605 1_556
Li2 O16 2.208262 1_555
Li2 O16 2.208265 1_556
Li2 O4 2.313577 1_555
Li2 O4 2.313591 1_556
Li2 O12 2.474621 1_555
Li2 O12 2.474635 1_556
Li3 O6 2.133242 1_555
Li3 O6 2.133254 1_554
Li3 O17 2.236130 1_555
Li3 O17 2.236132 1_554
Li3 O10 2.306795 1_555
Li4 O31 2.140122 1_556
Li4 O31 2.140128 1_555
Li4 O20 2.230497 1_556
Li4 O20 2.230497 1_555
Li4 O27 2.307453 1_556
Li5 O32 2.151145 1_554
Li5 O21 2.206531 1_555
Li5 O21 2.206557 1_554
Li5 O33 2.321846 1_554
Li5 O33 2.321850 1_555
Li5 O25 2.466119 1_554
Li5 O25 2.466122 1_555
Li6 O23 2.172029 1_554
Li6 O34 2.214137 1_555
Li6 O34 2.214161 1_554
Li6 O22 2.303316 1_555
Li6 O22 2.303321 1_554
Li6 O30 2.481622 1_554
Li6 O30 2.481626 1_555
Li7 O24 2.166249 1_545
Li7 O24 2.166259 1_544
Li7 O35 2.216373 1_555
Li7 O35 2.216407 1_554
Li7 O28 2.306162 1_545
Co0 O1 1.885076 1_555
Co0 O0 1.887704 1_555
Co0 O31 1.911461 1_455
Co0 O31 1.911466 1_454
Co0 O6 1.913191 1_555
Co0 O6 1.913204 1_554
Co1 O9 1.811119 1_555
Co1 O35 1.871446 1_456
Co1 O35 1.871471 1_455
Co1 O29 1.886093 1_455
Co1 O3 1.937987 1_555
Co1 O3 1.938011 1_556
Co2 O7 1.898172 1_555
Co2 O7 1.898177 1_554
Co2 O33 1.903546 1_454
Co2 O33 1.903552 1_455
Co2 O32 2.010473 1_454
Co3 O10 1.868458 1_556
Co3 O10 1.868460 1_555
Co3 O1 1.872911 1_555
Co3 O1 1.872914 1_556
Co3 O6 1.894468 1_555
Co3 O4 1.894770 1_555
Co4 O5 1.861834 1_555
Co4 O5 1.861844 1_556
Co4 O34 1.870118 1_455
Co4 O12 1.871221 1_555
Co4 O8 1.881138 1_555
Co4 O8 1.881147 1_556
Co5 O14 1.864240 1_555
Co5 O14 1.864248 1_556
Co5 O21 1.870273 1_555
Co5 O7 1.872389 1_555
Co5 O11 1.879566 1_556
Co5 O11 1.879571 1_555
Co6 O9 1.871009 1_555
Co6 O9 1.871015 1_554
Co6 O15 1.885101 1_555
Co6 O18 1.895598 1_555
Co6 O18 1.895608 1_556
Co6 O13 1.927332 1_555
Co7 O12 1.895260 1_554
Co7 O12 1.895274 1_555
Co7 O22 1.910409 1_555
Co7 O22 1.910418 1_554
Co7 O23 1.990788 1_554
Co8 O10 1.814518 1_556
Co8 O20 1.866045 1_555
Co8 O20 1.866051 1_556
Co8 O26 1.893258 1_556
Co8 O16 1.937562 1_556
Co8 O16 1.937564 1_555
Co9 O19 1.855892 1_555
Co9 O18 1.856603 1_565
Co9 O24 1.903285 1_555
Co9 O24 1.903294 1_554
Co9 O13 1.903425 1_565
Co9 O13 1.903430 1_564
Co10 O27 1.812398 1_555
Co10 O17 1.864748 1_554
Co10 O17 1.864754 1_555
Co10 O11 1.899811 1_555
Co10 O21 1.937790 1_555
Co10 O21 1.937798 1_554
Co11 O25 1.895766 1_555
Co11 O25 1.895768 1_554
Co11 O15 1.910236 1_555
Co11 O15 1.910241 1_554
Co11 O14 1.992692 1_555
Co12 O28 1.871338 1_555
Co12 O28 1.871340 1_556
Co12 O22 1.883849 1_555
Co12 O19 1.895666 1_555
Co12 O19 1.895671 1_556
Co12 O24 1.927205 1_555
Co13 O23 1.863669 1_555
Co13 O23 1.863678 1_554
Co13 O16 1.870519 1_555
Co13 O30 1.875604 1_555
Co13 O26 1.879771 1_555
Co13 O26 1.879789 1_556
Co14 O32 1.861386 1_555
Co14 O32 1.861397 1_554
Co14 O3 1.870465 1_655
Co14 O25 1.872835 1_555
Co14 O29 1.881494 1_554
Co14 O29 1.881499 1_555
Co15 O27 1.865973 1_556
Co15 O27 1.865978 1_555
Co15 O0 1.875685 1_655
Co15 O0 1.875694 1_656
Co15 O31 1.893329 1_555
Co15 O33 1.897462 1_555
Co16 O30 1.895841 1_555
Co16 O30 1.895845 1_554
Co16 O4 1.904304 1_654
Co16 O4 1.904309 1_655
Co16 O5 2.009912 1_655
Co17 O28 1.810861 1_555
Co17 O2 1.871538 1_655
Co17 O2 1.871540 1_654
Co17 O8 1.885500 1_655
Co17 O34 1.937517 1_555
Co17 O34 1.937541 1_554
