# generated using pymatgen
data_NaErTl2
_symmetry_space_group_name_H-M   'P 1'
_cell_length_a   5.26246929
_cell_length_b   5.26246929
_cell_length_c   5.26246929
_cell_angle_alpha   60.00000000
_cell_angle_beta   60.00000000
_cell_angle_gamma   60.00000000
_symmetry_Int_Tables_number   1
_chemical_formula_structural   NaErTl2
_chemical_formula_sum   'Na1 Er1 Tl2'
_cell_volume   103.05135943
_cell_formula_units_Z   1
loop_
 _symmetry_equiv_pos_site_id
 _symmetry_equiv_pos_as_xyz
  1  'x, y, z'
loop_
 _atom_site_type_symbol
 _atom_site_label
 _atom_site_symmetry_multiplicity
 _atom_site_fract_x
 _atom_site_fract_y
 _atom_site_fract_z
 _atom_site_occupancy
  Na  Na0  1  0.74999900  0.74999900  0.74999900  1
  Er  Er0  1  0.25000000  0.25000000  0.25000000  1
  Tl  Tl0  1  -0.00000000  0.00000000  -0.00000000  1
  Tl  Tl1  1  0.49999900  0.49999900  0.49999900  1
loop_
_geom_bond_atom_site_label_1
_geom_bond_atom_site_label_2
_geom_bond_distance
_geom_bond_site_symmetry_2
Na0 Tl0 3.222587 1_566
Na0 Tl0 3.222587 1_665
Na0 Tl0 3.222587 1_656
Na0 Tl1 3.222591 1_565
Na0 Tl1 3.222591 1_556
Na0 Tl1 3.222591 1_655
Na0 Tl1 3.222591 1_555
Na0 Tl0 3.222604 1_666
Er0 Tl1 3.222578 1_555
Er0 Tl0 3.222591 1_655
Er0 Tl0 3.222591 1_556
Er0 Tl0 3.222591 1_555
Er0 Tl0 3.222591 1_565
Er0 Tl1 3.222595 1_455
Er0 Tl1 3.222595 1_545
Er0 Tl1 3.222595 1_554
