# generated using pymatgen
data_Fe2C4Cl2O9
_symmetry_space_group_name_H-M   'P 1'
_cell_length_a   29.86263344
_cell_length_b   23.94732202
_cell_length_c   18.01792552
_cell_angle_alpha   89.57885734
_cell_angle_beta   53.31137598
_cell_angle_gamma   37.10976668
_symmetry_Int_Tables_number   1
_chemical_formula_structural   Fe2C4Cl2O9
_chemical_formula_sum   'Fe32 C64 Cl32 O144'
_cell_volume   1525.06362797
_cell_formula_units_Z   16
loop_
 _symmetry_equiv_pos_site_id
 _symmetry_equiv_pos_as_xyz
  1  'x, y, z'
loop_
 _atom_site_type_symbol
 _atom_site_label
 _atom_site_symmetry_multiplicity
 _atom_site_fract_x
 _atom_site_fract_y
 _atom_site_fract_z
 _atom_site_occupancy
  Fe  Fe0_0  1  0.09079850  0.47929400  0.40871150  1
  Fe  Fe0_1  1  0.09079850  0.47929400  0.90871150  1
  Fe  Fe0_2  1  0.09079850  0.97929400  0.40871150  1
  Fe  Fe0_3  1  0.09079850  0.97929400  0.90871150  1
  Fe  Fe0_4  1  0.59079850  0.47929400  0.40871150  1
  Fe  Fe0_5  1  0.59079850  0.47929400  0.90871150  1
  Fe  Fe0_6  1  0.59079850  0.97929400  0.40871150  1
  Fe  Fe0_7  1  0.59079850  0.97929400  0.90871150  1
  Fe  Fe1_0  1  0.02119600  0.40871150  0.47929400  1
  Fe  Fe1_1  1  0.02119600  0.40871150  0.97929400  1
  Fe  Fe1_2  1  0.02119600  0.90871150  0.47929400  1
  Fe  Fe1_3  1  0.02119600  0.90871150  0.97929400  1
  Fe  Fe1_4  1  0.52119600  0.40871150  0.47929400  1
  Fe  Fe1_5  1  0.52119600  0.40871150  0.97929400  1
  Fe  Fe1_6  1  0.52119600  0.90871150  0.47929400  1
  Fe  Fe1_7  1  0.52119600  0.90871150  0.97929400  1
  Fe  Fe2_0  1  0.21628850  0.10380400  0.03420150  1
  Fe  Fe2_1  1  0.21628850  0.10380400  0.53420150  1
  Fe  Fe2_2  1  0.21628850  0.60380400  0.03420150  1
  Fe  Fe2_3  1  0.21628850  0.60380400  0.53420150  1
  Fe  Fe2_4  1  0.71628850  0.10380400  0.03420150  1
  Fe  Fe2_5  1  0.71628850  0.10380400  0.53420150  1
  Fe  Fe2_6  1  0.71628850  0.60380400  0.03420150  1
  Fe  Fe2_7  1  0.71628850  0.60380400  0.53420150  1
  Fe  Fe3_0  1  0.14570600  0.03420150  0.10380400  1
  Fe  Fe3_1  1  0.14570600  0.03420150  0.60380400  1
  Fe  Fe3_2  1  0.14570600  0.53420150  0.10380400  1
  Fe  Fe3_3  1  0.14570600  0.53420150  0.60380400  1
  Fe  Fe3_4  1  0.64570600  0.03420150  0.10380400  1
  Fe  Fe3_5  1  0.64570600  0.03420150  0.60380400  1
  Fe  Fe3_6  1  0.64570600  0.53420150  0.10380400  1
  Fe  Fe3_7  1  0.64570600  0.53420150  0.60380400  1
  C  C0_0  1  0.49817400  0.07687950  0.35205500  1
  C  C0_1  1  0.49817400  0.07687950  0.85205500  1
  C  C0_2  1  0.49817400  0.57687950  0.35205500  1
  C  C0_3  1  0.49817400  0.57687950  0.85205500  1
  C  C0_4  1  0.99817400  0.07687950  0.35205500  1
  C  C0_5  1  0.99817400  0.07687950  0.85205500  1
  C  C0_6  1  0.99817400  0.57687950  0.35205500  1
  C  C0_7  1  0.99817400  0.57687950  0.85205500  1
  C  C1_0  1  0.07289150  0.35205500  0.07687950  1
  C  C1_1  1  0.07289150  0.35205500  0.57687950  1
  C  C1_2  1  0.07289150  0.85205500  0.07687950  1
  C  C1_3  1  0.07289150  0.85205500  0.57687950  1
  C  C1_4  1  0.57289150  0.35205500  0.07687950  1
  C  C1_5  1  0.57289150  0.35205500  0.57687950  1
  C  C1_6  1  0.57289150  0.85205500  0.07687950  1
  C  C1_7  1  0.57289150  0.85205500  0.57687950  1
  C  C2_0  1  0.27294500  0.05210850  0.12682600  1
  C  C2_1  1  0.27294500  0.05210850  0.62682600  1
  C  C2_2  1  0.27294500  0.55210850  0.12682600  1
  C  C2_3  1  0.27294500  0.55210850  0.62682600  1
  C  C2_4  1  0.77294500  0.05210850  0.12682600  1
  C  C2_5  1  0.77294500  0.05210850  0.62682600  1
  C  C2_6  1  0.77294500  0.55210850  0.12682600  1
  C  C2_7  1  0.77294500  0.55210850  0.62682600  1
  C  C3_0  1  0.04812050  0.12682600  0.05210850  1
  C  C3_1  1  0.04812050  0.12682600  0.55210850  1
  C  C3_2  1  0.04812050  0.62682600  0.05210850  1
  C  C3_3  1  0.04812050  0.62682600  0.55210850  1
  C  C3_4  1  0.54812050  0.12682600  0.05210850  1
  C  C3_5  1  0.54812050  0.12682600  0.55210850  1
  C  C3_6  1  0.54812050  0.62682600  0.05210850  1
  C  C3_7  1  0.54812050  0.62682600  0.55210850  1
  C  C4_0  1  0.01409050  0.11268950  0.37074850  1
  C  C4_1  1  0.01409050  0.11268950  0.87074850  1
  C  C4_2  1  0.01409050  0.61268950  0.37074850  1
  C  C4_3  1  0.01409050  0.61268950  0.87074850  1
  C  C4_4  1  0.51409050  0.11268950  0.37074850  1
  C  C4_5  1  0.51409050  0.11268950  0.87074850  1
  C  C4_6  1  0.51409050  0.61268950  0.37074850  1
  C  C4_7  1  0.51409050  0.61268950  0.87074850  1
  C  C5_0  1  0.00247150  0.37074850  0.11268950  1
  C  C5_1  1  0.00247150  0.37074850  0.61268950  1
  C  C5_2  1  0.00247150  0.87074850  0.11268950  1
  C  C5_3  1  0.00247150  0.87074850  0.61268950  1
  C  C5_4  1  0.50247150  0.37074850  0.11268950  1
  C  C5_5  1  0.50247150  0.37074850  0.61268950  1
  C  C5_6  1  0.50247150  0.87074850  0.11268950  1
  C  C5_7  1  0.50247150  0.87074850  0.61268950  1
  C  C6_0  1  0.25425150  0.12252850  0.11090950  1
  C  C6_1  1  0.25425150  0.12252850  0.61090950  1
  C  C6_2  1  0.25425150  0.62252850  0.11090950  1
  C  C6_3  1  0.25425150  0.62252850  0.61090950  1
  C  C6_4  1  0.75425150  0.12252850  0.11090950  1
  C  C6_5  1  0.75425150  0.12252850  0.61090950  1
  C  C6_6  1  0.75425150  0.62252850  0.11090950  1
  C  C6_7  1  0.75425150  0.62252850  0.61090950  1
  C  C7_0  1  0.01231050  0.11090950  0.12252850  1
  C  C7_1  1  0.01231050  0.11090950  0.62252850  1
  C  C7_2  1  0.01231050  0.61090950  0.12252850  1
  C  C7_3  1  0.01231050  0.61090950  0.62252850  1
  C  C7_4  1  0.51231050  0.11090950  0.12252850  1
  C  C7_5  1  0.51231050  0.11090950  0.62252850  1
  C  C7_6  1  0.51231050  0.61090950  0.12252850  1
  C  C7_7  1  0.51231050  0.61090950  0.62252850  1
  Cl  Cl0_0  1  0.02875500  0.44939700  0.28980300  1
  Cl  Cl0_1  1  0.02875500  0.44939700  0.78980300  1
  Cl  Cl0_2  1  0.02875500  0.94939700  0.28980300  1
  Cl  Cl0_3  1  0.02875500  0.94939700  0.78980300  1
  Cl  Cl0_4  1  0.52875500  0.44939700  0.28980300  1
  Cl  Cl0_5  1  0.52875500  0.44939700  0.78980300  1
  Cl  Cl0_6  1  0.52875500  0.94939700  0.28980300  1
  Cl  Cl0_7  1  0.52875500  0.94939700  0.78980300  1
  Cl  Cl1_0  1  0.23204550  0.28980300  0.44939700  1
  Cl  Cl1_1  1  0.23204550  0.28980300  0.94939700  1
  Cl  Cl1_2  1  0.23204550  0.78980300  0.44939700  1
  Cl  Cl1_3  1  0.23204550  0.78980300  0.94939700  1
  Cl  Cl1_4  1  0.73204550  0.28980300  0.44939700  1
  Cl  Cl1_5  1  0.73204550  0.28980300  0.94939700  1
  Cl  Cl1_6  1  0.73204550  0.78980300  0.44939700  1
  Cl  Cl1_7  1  0.73204550  0.78980300  0.94939700  1
  Cl  Cl2_0  1  0.33519700  0.39295450  0.09624500  1
  Cl  Cl2_1  1  0.33519700  0.39295450  0.59624500  1
  Cl  Cl2_2  1  0.33519700  0.89295450  0.09624500  1
  Cl  Cl2_3  1  0.33519700  0.89295450  0.59624500  1
  Cl  Cl2_4  1  0.83519700  0.39295450  0.09624500  1
  Cl  Cl2_5  1  0.83519700  0.39295450  0.59624500  1
  Cl  Cl2_6  1  0.83519700  0.89295450  0.09624500  1
  Cl  Cl2_7  1  0.83519700  0.89295450  0.59624500  1
  Cl  Cl3_0  1  0.17560300  0.09624500  0.39295450  1
  Cl  Cl3_1  1  0.17560300  0.09624500  0.89295450  1
  Cl  Cl3_2  1  0.17560300  0.59624500  0.39295450  1
  Cl  Cl3_3  1  0.17560300  0.59624500  0.89295450  1
  Cl  Cl3_4  1  0.67560300  0.09624500  0.39295450  1
  Cl  Cl3_5  1  0.67560300  0.09624500  0.89295450  1
  Cl  Cl3_6  1  0.67560300  0.59624500  0.39295450  1
  Cl  Cl3_7  1  0.67560300  0.59624500  0.89295450  1
  O  O0_0  1  0.09305750  0.04374850  0.37099050  1
  O  O0_1  1  0.09305750  0.04374850  0.87099050  1
  O  O0_2  1  0.09305750  0.54374850  0.37099050  1
  O  O0_3  1  0.09305750  0.54374850  0.87099050  1
  O  O0_4  1  0.59305750  0.04374850  0.37099050  1
  O  O0_5  1  0.59305750  0.04374850  0.87099050  1
  O  O0_6  1  0.59305750  0.54374850  0.37099050  1
  O  O0_7  1  0.59305750  0.54374850  0.87099050  1
  O  O1_0  1  0.49220350  0.37099050  0.04374850  1
  O  O1_1  1  0.49220350  0.37099050  0.54374850  1
  O  O1_2  1  0.49220350  0.87099050  0.04374850  1
  O  O1_3  1  0.49220350  0.87099050  0.54374850  1
  O  O1_4  1  0.99220350  0.37099050  0.04374850  1
  O  O1_5  1  0.99220350  0.37099050  0.54374850  1
  O  O1_6  1  0.99220350  0.87099050  0.04374850  1
  O  O1_7  1  0.99220350  0.87099050  0.54374850  1
  O  O2_0  1  0.25400950  0.13279650  0.03194250  1
  O  O2_1  1  0.25400950  0.13279650  0.53194250  1
  O  O2_2  1  0.25400950  0.63279650  0.03194250  1
  O  O2_3  1  0.25400950  0.63279650  0.53194250  1
  O  O2_4  1  0.75400950  0.13279650  0.03194250  1
  O  O2_5  1  0.75400950  0.13279650  0.53194250  1
  O  O2_6  1  0.75400950  0.63279650  0.03194250  1
  O  O2_7  1  0.75400950  0.63279650  0.53194250  1
  O  O3_0  1  0.08125150  0.03194250  0.13279650  1
  O  O3_1  1  0.08125150  0.03194250  0.63279650  1
  O  O3_2  1  0.08125150  0.53194250  0.13279650  1
  O  O3_3  1  0.08125150  0.53194250  0.63279650  1
  O  O3_4  1  0.58125150  0.03194250  0.13279650  1
  O  O3_5  1  0.58125150  0.03194250  0.63279650  1
  O  O3_6  1  0.58125150  0.53194250  0.13279650  1
  O  O3_7  1  0.58125150  0.53194250  0.63279650  1
  O  O4_0  1  0.21450650  0.35170950  0.08022700  1
  O  O4_1  1  0.21450650  0.35170950  0.58022700  1
  O  O4_2  1  0.21450650  0.85170950  0.08022700  1
  O  O4_3  1  0.21450650  0.85170950  0.58022700  1
  O  O4_4  1  0.71450650  0.35170950  0.08022700  1
  O  O4_5  1  0.71450650  0.35170950  0.58022700  1
  O  O4_6  1  0.71450650  0.85170950  0.08022700  1
  O  O4_7  1  0.71450650  0.85170950  0.58022700  1
  O  O5_0  1  0.35355700  0.08022700  0.35170950  1
  O  O5_1  1  0.35355700  0.08022700  0.85170950  1
  O  O5_2  1  0.35355700  0.58022700  0.35170950  1
  O  O5_3  1  0.35355700  0.58022700  0.85170950  1
  O  O5_4  1  0.85355700  0.08022700  0.35170950  1
  O  O5_5  1  0.85355700  0.08022700  0.85170950  1
  O  O5_6  1  0.85355700  0.58022700  0.35170950  1
  O  O5_7  1  0.85355700  0.58022700  0.85170950  1
  O  O6_0  1  0.04477300  0.27144300  0.41049350  1
  O  O6_1  1  0.04477300  0.27144300  0.91049350  1
  O  O6_2  1  0.04477300  0.77144300  0.41049350  1
  O  O6_3  1  0.04477300  0.77144300  0.91049350  1
  O  O6_4  1  0.54477300  0.27144300  0.41049350  1
  O  O6_5  1  0.54477300  0.27144300  0.91049350  1
  O  O6_6  1  0.54477300  0.77144300  0.41049350  1
  O  O6_7  1  0.54477300  0.77144300  0.91049350  1
  O  O7_0  1  0.27329050  0.41049350  0.27144300  1
  O  O7_1  1  0.27329050  0.41049350  0.77144300  1
  O  O7_2  1  0.27329050  0.91049350  0.27144300  1
  O  O7_3  1  0.27329050  0.91049350  0.77144300  1
  O  O7_4  1  0.77329050  0.41049350  0.27144300  1
  O  O7_5  1  0.77329050  0.41049350  0.77144300  1
  O  O7_6  1  0.77329050  0.91049350  0.27144300  1
  O  O7_7  1  0.77329050  0.91049350  0.77144300  1
  O  O8_0  1  0.46688450  0.20205800  0.37055700  1
  O  O8_1  1  0.46688450  0.20205800  0.87055700  1
  O  O8_2  1  0.46688450  0.70205800  0.37055700  1
  O  O8_3  1  0.46688450  0.70205800  0.87055700  1
  O  O8_4  1  0.96688450  0.20205800  0.37055700  1
  O  O8_5  1  0.96688450  0.20205800  0.87055700  1
  O  O8_6  1  0.96688450  0.70205800  0.37055700  1
  O  O8_7  1  0.96688450  0.70205800  0.87055700  1
  O  O9_0  1  0.46050050  0.37055700  0.20205800  1
  O  O9_1  1  0.46050050  0.37055700  0.70205800  1
  O  O9_2  1  0.46050050  0.87055700  0.20205800  1
  O  O9_3  1  0.46050050  0.87055700  0.70205800  1
  O  O9_4  1  0.96050050  0.37055700  0.20205800  1
  O  O9_5  1  0.96050050  0.37055700  0.70205800  1
  O  O9_6  1  0.96050050  0.87055700  0.20205800  1
  O  O9_7  1  0.96050050  0.87055700  0.70205800  1
  O  O10_0  1  0.25444300  0.16449950  0.15811550  1
  O  O10_1  1  0.25444300  0.16449950  0.65811550  1
  O  O10_2  1  0.25444300  0.66449950  0.15811550  1
  O  O10_3  1  0.25444300  0.66449950  0.65811550  1
  O  O10_4  1  0.75444300  0.16449950  0.15811550  1
  O  O10_5  1  0.75444300  0.16449950  0.65811550  1
  O  O10_6  1  0.75444300  0.66449950  0.15811550  1
  O  O10_7  1  0.75444300  0.66449950  0.65811550  1
  O  O11_0  1  0.42294200  0.15811550  0.16449950  1
  O  O11_1  1  0.42294200  0.15811550  0.66449950  1
  O  O11_2  1  0.42294200  0.65811550  0.16449950  1
  O  O11_3  1  0.42294200  0.65811550  0.66449950  1
  O  O11_4  1  0.92294200  0.15811550  0.16449950  1
  O  O11_5  1  0.92294200  0.15811550  0.66449950  1
  O  O11_6  1  0.92294200  0.65811550  0.16449950  1
  O  O11_7  1  0.92294200  0.65811550  0.66449950  1
  O  O12_0  1  0.03582200  0.00355600  0.37912750  1
  O  O12_1  1  0.03582200  0.00355600  0.87912750  1
  O  O12_2  1  0.03582200  0.50355600  0.37912750  1
  O  O12_3  1  0.03582200  0.50355600  0.87912750  1
  O  O12_4  1  0.53582200  0.00355600  0.37912750  1
  O  O12_5  1  0.53582200  0.00355600  0.87912750  1
  O  O12_6  1  0.53582200  0.50355600  0.37912750  1
  O  O12_7  1  0.53582200  0.50355600  0.87912750  1
  O  O13_0  1  0.08149450  0.37912750  0.00355600  1
  O  O13_1  1  0.08149450  0.37912750  0.50355600  1
  O  O13_2  1  0.08149450  0.87912750  0.00355600  1
  O  O13_3  1  0.08149450  0.87912750  0.50355600  1
  O  O13_4  1  0.58149450  0.37912750  0.00355600  1
  O  O13_5  1  0.58149450  0.37912750  0.50355600  1
  O  O13_6  1  0.58149450  0.87912750  0.00355600  1
  O  O13_7  1  0.58149450  0.87912750  0.50355600  1
  O  O14_0  1  0.24587250  0.04350550  0.08917800  1
  O  O14_1  1  0.24587250  0.04350550  0.58917800  1
  O  O14_2  1  0.24587250  0.54350550  0.08917800  1
  O  O14_3  1  0.24587250  0.54350550  0.58917800  1
  O  O14_4  1  0.74587250  0.04350550  0.08917800  1
  O  O14_5  1  0.74587250  0.04350550  0.58917800  1
  O  O14_6  1  0.74587250  0.54350550  0.08917800  1
  O  O14_7  1  0.74587250  0.54350550  0.58917800  1
  O  O15_0  1  0.12144400  0.08917800  0.04350550  1
  O  O15_1  1  0.12144400  0.08917800  0.54350550  1
  O  O15_2  1  0.12144400  0.58917800  0.04350550  1
  O  O15_3  1  0.12144400  0.58917800  0.54350550  1
  O  O15_4  1  0.62144400  0.08917800  0.04350550  1
  O  O15_5  1  0.62144400  0.08917800  0.54350550  1
  O  O15_6  1  0.62144400  0.58917800  0.04350550  1
  O  O15_7  1  0.62144400  0.58917800  0.54350550  1
  O  O16_0  1  0.07780200  0.42219800  0.42219800  1
  O  O16_1  1  0.07780200  0.42219800  0.92219800  1
  O  O16_2  1  0.07780200  0.92219800  0.42219800  1
  O  O16_3  1  0.07780200  0.92219800  0.92219800  1
  O  O16_4  1  0.57780200  0.42219800  0.42219800  1
  O  O16_5  1  0.57780200  0.42219800  0.92219800  1
  O  O16_6  1  0.57780200  0.92219800  0.42219800  1
  O  O16_7  1  0.57780200  0.92219800  0.92219800  1
  O  O17_0  1  0.20280200  0.04719800  0.04719800  1
  O  O17_1  1  0.20280200  0.04719800  0.54719800  1
  O  O17_2  1  0.20280200  0.54719800  0.04719800  1
  O  O17_3  1  0.20280200  0.54719800  0.54719800  1
  O  O17_4  1  0.70280200  0.04719800  0.04719800  1
  O  O17_5  1  0.70280200  0.04719800  0.54719800  1
  O  O17_6  1  0.70280200  0.54719800  0.04719800  1
  O  O17_7  1  0.70280200  0.54719800  0.54719800  1
loop_
_geom_bond_atom_site_label_1
_geom_bond_atom_site_label_2
_geom_bond_distance
_geom_bond_site_symmetry_2
Fe0_0 O16_0 1.675704 1_555
Fe0_0 O12_2 1.684279 1_555
Fe0_0 O0_2 1.716036 1_555
Fe0_0 O11_7 1.775736 1_455
Fe0_0 O11_0 1.888918 1_555
Fe0_1 O16_1 1.675704 1_555
Fe0_1 O12_3 1.684279 1_555
Fe0_1 O0_3 1.716036 1_555
Fe0_1 O11_6 1.775736 1_456
Fe0_1 O11_1 1.888918 1_555
Fe0_2 O16_2 1.675704 1_555
Fe0_2 O12_0 1.684279 1_565
Fe0_2 O0_0 1.716036 1_565
Fe0_2 O11_5 1.775736 1_465
Fe0_2 O11_2 1.888918 1_555
Fe0_3 O16_3 1.675704 1_555
Fe0_3 O12_1 1.684279 1_565
Fe0_3 O0_1 1.716036 1_565
Fe0_3 O11_4 1.775736 1_466
Fe0_3 O11_3 1.888918 1_555
Fe0_4 O16_4 1.675704 1_555
Fe0_4 O12_6 1.684279 1_555
Fe0_4 O0_6 1.716036 1_555
Fe0_4 O11_3 1.775736 1_555
Fe0_4 O11_4 1.888918 1_555
Fe0_5 O16_5 1.675704 1_555
Fe0_5 O12_7 1.684279 1_555
Fe0_5 O0_7 1.716036 1_555
Fe0_5 O11_2 1.775736 1_556
Fe0_5 O11_5 1.888918 1_555
Fe0_6 O16_6 1.675704 1_555
Fe0_6 O12_4 1.684279 1_565
Fe0_6 O0_4 1.716036 1_565
Fe0_6 O11_1 1.775736 1_565
Fe0_6 O11_6 1.888918 1_555
Fe0_7 O16_7 1.675704 1_555
Fe0_7 O12_5 1.684279 1_565
Fe0_7 O0_5 1.716036 1_565
Fe0_7 O11_0 1.775736 1_566
Fe0_7 O11_7 1.888918 1_555
Fe1_0 O16_0 1.675704 1_555
Fe1_0 O13_1 1.684279 1_555
Fe1_0 O1_5 1.716036 1_455
Fe1_0 O10_7 1.775736 1_455
Fe1_0 O10_0 1.888918 1_555
Fe1_1 O16_1 1.675704 1_555
Fe1_1 O13_0 1.684279 1_556
Fe1_1 O1_4 1.716036 1_456
Fe1_1 O10_6 1.775736 1_456
Fe1_1 O10_1 1.888918 1_555
Fe1_2 O16_2 1.675704 1_555
Fe1_2 O13_3 1.684279 1_555
Fe1_2 O1_7 1.716036 1_455
Fe1_2 O10_5 1.775736 1_465
Fe1_2 O10_2 1.888918 1_555
Fe1_3 O16_3 1.675704 1_555
Fe1_3 O13_2 1.684279 1_556
Fe1_3 O1_6 1.716036 1_456
Fe1_3 O10_4 1.775736 1_466
Fe1_3 O10_3 1.888918 1_555
Fe1_4 O16_4 1.675704 1_555
Fe1_4 O13_5 1.684279 1_555
Fe1_4 O1_1 1.716036 1_555
Fe1_4 O10_3 1.775736 1_555
Fe1_4 O10_4 1.888918 1_555
Fe1_5 O16_5 1.675704 1_555
Fe1_5 O13_4 1.684279 1_556
Fe1_5 O1_0 1.716036 1_556
Fe1_5 O10_2 1.775736 1_556
Fe1_5 O10_5 1.888918 1_555
Fe1_6 O16_6 1.675704 1_555
Fe1_6 O13_7 1.684279 1_555
Fe1_6 O1_3 1.716036 1_555
Fe1_6 O10_1 1.775736 1_565
Fe1_6 O10_6 1.888918 1_555
Fe1_7 O16_7 1.675704 1_555
Fe1_7 O13_6 1.684279 1_556
Fe1_7 O1_2 1.716036 1_556
Fe1_7 O10_0 1.775736 1_566
Fe1_7 O10_7 1.888918 1_555
Fe2_0 O17_0 1.675704 1_555
Fe2_0 O14_0 1.684279 1_555
Fe2_0 O2_0 1.716036 1_555
Fe2_0 O9_4 1.775736 1_455
Fe2_0 O9_3 1.888918 1_544
Fe2_1 O17_1 1.675704 1_555
Fe2_1 O14_1 1.684279 1_555
Fe2_1 O2_1 1.716036 1_555
Fe2_1 O9_5 1.775736 1_455
Fe2_1 O9_2 1.888918 1_545
Fe2_2 O17_2 1.675704 1_555
Fe2_2 O14_2 1.684279 1_555
Fe2_2 O2_2 1.716036 1_555
Fe2_2 O9_6 1.775736 1_455
Fe2_2 O9_1 1.888918 1_554
Fe2_3 O17_3 1.675704 1_555
Fe2_3 O14_3 1.684279 1_555
Fe2_3 O2_3 1.716036 1_555
Fe2_3 O9_7 1.775736 1_455
Fe2_3 O9_0 1.888918 1_555
Fe2_4 O17_4 1.675704 1_555
Fe2_4 O14_4 1.684279 1_555
Fe2_4 O2_4 1.716036 1_555
Fe2_4 O9_0 1.775736 1_555
Fe2_4 O9_7 1.888918 1_544
Fe2_5 O17_5 1.675704 1_555
Fe2_5 O14_5 1.684279 1_555
Fe2_5 O2_5 1.716036 1_555
Fe2_5 O9_1 1.775736 1_555
Fe2_5 O9_6 1.888918 1_545
Fe2_6 O17_6 1.675704 1_555
Fe2_6 O14_6 1.684279 1_555
Fe2_6 O2_6 1.716036 1_555
Fe2_6 O9_2 1.775736 1_555
Fe2_6 O9_5 1.888918 1_554
Fe2_7 O17_7 1.675704 1_555
Fe2_7 O14_7 1.684279 1_555
Fe2_7 O2_7 1.716036 1_555
Fe2_7 O9_3 1.775736 1_555
Fe2_7 O9_4 1.888918 1_555
Fe3_0 O17_0 1.675704 1_555
Fe3_0 O15_0 1.684279 1_555
Fe3_0 O3_0 1.716036 1_555
Fe3_0 O8_4 1.775736 1_455
Fe3_0 O8_3 1.888918 1_544
Fe3_1 O17_1 1.675704 1_555
Fe3_1 O15_1 1.684279 1_555
Fe3_1 O3_1 1.716036 1_555
Fe3_1 O8_5 1.775736 1_455
Fe3_1 O8_2 1.888918 1_545
Fe3_2 O17_2 1.675704 1_555
Fe3_2 O15_2 1.684279 1_555
Fe3_2 O3_2 1.716036 1_555
Fe3_2 O8_6 1.775736 1_455
Fe3_2 O8_1 1.888918 1_554
Fe3_3 O17_3 1.675704 1_555
Fe3_3 O15_3 1.684279 1_555
Fe3_3 O3_3 1.716036 1_555
Fe3_3 O8_7 1.775736 1_455
Fe3_3 O8_0 1.888918 1_555
Fe3_4 O17_4 1.675704 1_555
Fe3_4 O15_4 1.684279 1_555
Fe3_4 O3_4 1.716036 1_555
Fe3_4 O8_0 1.775736 1_555
Fe3_4 O8_7 1.888918 1_544
Fe3_5 O17_5 1.675704 1_555
Fe3_5 O15_5 1.684279 1_555
Fe3_5 O3_5 1.716036 1_555
Fe3_5 O8_1 1.775736 1_555
Fe3_5 O8_6 1.888918 1_545
Fe3_6 O17_6 1.675704 1_555
Fe3_6 O15_6 1.684279 1_555
Fe3_6 O3_6 1.716036 1_555
Fe3_6 O8_2 1.775736 1_555
Fe3_6 O8_5 1.888918 1_554
Fe3_7 O17_7 1.675704 1_555
Fe3_7 O15_7 1.684279 1_555
Fe3_7 O3_7 1.716036 1_555
Fe3_7 O8_3 1.775736 1_555
Fe3_7 O8_4 1.888918 1_555
C0_0 O4_6 1.348326 1_545
C0_0 O4_1 1.355369 1_555
C0_0 O12_4 1.441945 1_555
C0_1 O4_7 1.348326 1_545
C0_1 O4_0 1.355369 1_556
C0_1 O12_5 1.441945 1_555
C0_2 O4_4 1.348326 1_555
C0_2 O4_3 1.355369 1_555
C0_2 O12_6 1.441945 1_555
C0_3 O4_5 1.348326 1_555
C0_3 O4_2 1.355369 1_556
C0_3 O12_7 1.441945 1_555
C0_4 O4_2 1.348326 1_645
C0_4 O4_5 1.355369 1_555
C0_4 O12_0 1.441945 1_655
C0_5 O4_3 1.348326 1_645
C0_5 O4_4 1.355369 1_556
C0_5 O12_1 1.441945 1_655
C0_6 O4_0 1.348326 1_655
C0_6 O4_7 1.355369 1_555
C0_6 O12_2 1.441945 1_655
C0_7 O4_1 1.348326 1_655
C0_7 O4_6 1.355369 1_556
C0_7 O12_3 1.441945 1_655
C1_0 O5_1 1.348326 1_554
C1_0 O5_6 1.355369 1_455
C1_0 O13_0 1.441945 1_555
C1_1 O5_0 1.348326 1_555
C1_1 O5_7 1.355369 1_455
C1_1 O13_1 1.441945 1_555
C1_2 O5_3 1.348326 1_554
C1_2 O5_4 1.355369 1_465
C1_2 O13_2 1.441945 1_555
C1_3 O5_2 1.348326 1_555
C1_3 O5_5 1.355369 1_465
C1_3 O13_3 1.441945 1_555
C1_4 O5_5 1.348326 1_554
C1_4 O5_2 1.355369 1_555
C1_4 O13_4 1.441945 1_555
C1_5 O5_4 1.348326 1_555
C1_5 O5_3 1.355369 1_555
C1_5 O13_5 1.441945 1_555
C1_6 O5_7 1.348326 1_554
C1_6 O5_0 1.355369 1_565
C1_6 O13_6 1.441945 1_555
C1_7 O5_6 1.348326 1_555
C1_7 O5_1 1.355369 1_565
C1_7 O13_7 1.441945 1_555
C2_0 O6_7 1.348326 1_544
C2_0 O6_0 1.355369 1_555
C2_0 O14_0 1.441945 1_555
C2_1 O6_6 1.348326 1_545
C2_1 O6_1 1.355369 1_555
C2_1 O14_1 1.441945 1_555
C2_2 O6_5 1.348326 1_554
C2_2 O6_2 1.355369 1_555
C2_2 O14_2 1.441945 1_555
C2_3 O6_4 1.348326 1_555
C2_3 O6_3 1.355369 1_555
C2_3 O14_3 1.441945 1_555
C2_4 O6_3 1.348326 1_644
C2_4 O6_4 1.355369 1_555
C2_4 O14_4 1.441945 1_555
C2_5 O6_2 1.348326 1_645
C2_5 O6_5 1.355369 1_555
C2_5 O14_5 1.441945 1_555
C2_6 O6_1 1.348326 1_654
C2_6 O6_6 1.355369 1_555
C2_6 O14_6 1.441945 1_555
C2_7 O6_0 1.348326 1_655
C2_7 O6_7 1.355369 1_555
C2_7 O14_7 1.441945 1_555
C3_0 O7_3 1.348326 1_544
C3_0 O7_4 1.355369 1_455
C3_0 O15_0 1.441945 1_555
C3_1 O7_2 1.348326 1_545
C3_1 O7_5 1.355369 1_455
C3_1 O15_1 1.441945 1_555
C3_2 O7_1 1.348326 1_554
C3_2 O7_6 1.355369 1_455
C3_2 O15_2 1.441945 1_555
C3_3 O7_0 1.348326 1_555
C3_3 O7_7 1.355369 1_455
C3_3 O15_3 1.441945 1_555
C3_4 O7_7 1.348326 1_544
C3_4 O7_0 1.355369 1_555
C3_4 O15_4 1.441945 1_555
C3_5 O7_6 1.348326 1_545
C3_5 O7_1 1.355369 1_555
C3_5 O15_5 1.441945 1_555
C3_6 O7_5 1.348326 1_554
C3_6 O7_2 1.355369 1_555
C3_6 O15_6 1.441945 1_555
C3_7 O7_4 1.348326 1_555
C3_7 O7_3 1.355369 1_555
C3_7 O15_7 1.441945 1_555
C4_0 O8_4 1.327115 1_455
C4_0 O0_0 1.445422 1_555
C4_1 O8_5 1.327115 1_455
C4_1 O0_1 1.445422 1_555
C4_2 O8_6 1.327115 1_455
C4_2 O0_2 1.445422 1_555
C4_3 O8_7 1.327115 1_455
C4_3 O0_3 1.445422 1_555
C4_4 O8_0 1.327115 1_555
C4_4 O0_4 1.445422 1_555
C4_5 O8_1 1.327115 1_555
C4_5 O0_5 1.445422 1_555
C4_6 O8_2 1.327115 1_555
C4_6 O0_6 1.445422 1_555
C4_7 O8_3 1.327115 1_555
C4_7 O0_7 1.445422 1_555
C5_0 O9_4 1.327115 1_455
C5_0 O1_4 1.445422 1_455
C5_1 O9_5 1.327115 1_455
C5_1 O1_5 1.445422 1_455
C5_2 O9_6 1.327115 1_455
C5_2 O1_6 1.445422 1_455
C5_3 O9_7 1.327115 1_455
C5_3 O1_7 1.445422 1_455
C5_4 O9_0 1.327115 1_555
C5_4 O1_0 1.445422 1_555
C5_5 O9_1 1.327115 1_555
C5_5 O1_1 1.445422 1_555
C5_6 O9_2 1.327115 1_555
C5_6 O1_2 1.445422 1_555
C5_7 O9_3 1.327115 1_555
C5_7 O1_3 1.445422 1_555
C6_0 O10_0 1.327115 1_555
C6_0 O2_0 1.445422 1_555
C6_1 O10_1 1.327115 1_555
C6_1 O2_1 1.445422 1_555
C6_2 O10_2 1.327115 1_555
C6_2 O2_2 1.445422 1_555
C6_3 O10_3 1.327115 1_555
C6_3 O2_3 1.445422 1_555
C6_4 O10_4 1.327115 1_555
C6_4 O2_4 1.445422 1_555
C6_5 O10_5 1.327115 1_555
C6_5 O2_5 1.445422 1_555
C6_6 O10_6 1.327115 1_555
C6_6 O2_6 1.445422 1_555
C6_7 O10_7 1.327115 1_555
C6_7 O2_7 1.445422 1_555
C7_0 O11_4 1.327115 1_455
C7_0 O3_0 1.445422 1_555
C7_1 O11_5 1.327115 1_455
C7_1 O3_1 1.445422 1_555
C7_2 O11_6 1.327115 1_455
C7_2 O3_2 1.445422 1_555
C7_3 O11_7 1.327115 1_455
C7_3 O3_3 1.445422 1_555
C7_4 O11_0 1.327115 1_555
C7_4 O3_4 1.445422 1_555
C7_5 O11_1 1.327115 1_555
C7_5 O3_5 1.445422 1_555
C7_6 O11_2 1.327115 1_555
C7_6 O3_6 1.445422 1_555
C7_7 O11_3 1.327115 1_555
C7_7 O3_7 1.445422 1_555
Cl0_0 Cl0_7 1.780870 1_455
Cl0_0 Cl0_7 1.780870 1_544
Cl0_0 O4_0 2.214666 1_555
Cl0_0 O12_2 2.278171 1_555
Cl0_0 O5_6 2.316587 1_455
Cl0_0 O10_0 2.321705 1_555
Cl0_1 Cl0_6 1.780870 1_456
Cl0_1 Cl0_6 1.780870 1_545
Cl0_1 O4_1 2.214666 1_555
Cl0_1 O12_3 2.278171 1_555
Cl0_1 O5_7 2.316587 1_455
Cl0_1 O10_1 2.321705 1_555
Cl0_2 Cl0_5 1.780870 1_465
Cl0_2 Cl0_5 1.780870 1_554
Cl0_2 O4_2 2.214666 1_555
Cl0_2 O12_0 2.278171 1_565
Cl0_2 O5_4 2.316587 1_465
Cl0_2 O10_2 2.321705 1_555
Cl0_3 Cl0_4 1.780870 1_555
Cl0_3 Cl0_4 1.780870 1_466
Cl0_3 O4_3 2.214666 1_555
Cl0_3 O12_1 2.278171 1_565
Cl0_3 O5_5 2.316587 1_465
Cl0_3 O10_3 2.321705 1_555
Cl0_4 O4_4 2.214666 1_555
Cl0_4 O12_6 2.278171 1_555
Cl0_4 O5_2 2.316587 1_555
Cl0_4 O10_4 2.321705 1_555
Cl0_5 O4_5 2.214666 1_555
Cl0_5 O12_7 2.278171 1_555
Cl0_5 O5_3 2.316587 1_555
Cl0_5 O10_5 2.321705 1_555
Cl0_6 O4_6 2.214666 1_555
Cl0_6 O12_4 2.278171 1_565
Cl0_6 O5_0 2.316587 1_565
Cl0_6 O10_6 2.321705 1_555
Cl0_7 O4_7 2.214666 1_555
Cl0_7 O12_5 2.278171 1_565
Cl0_7 O5_1 2.316587 1_565
Cl0_7 O10_7 2.321705 1_555
Cl1_0 Cl1_7 1.780870 1_455
Cl1_0 Cl1_7 1.780870 1_544
Cl1_0 O5_0 2.214676 1_555
Cl1_0 O13_1 2.278185 1_555
Cl1_0 O4_1 2.316573 1_555
Cl1_0 O11_0 2.321704 1_555
Cl1_1 Cl1_6 1.780870 1_545
Cl1_1 Cl1_6 1.780870 1_456
Cl1_1 O5_1 2.214676 1_555
Cl1_1 O13_0 2.278185 1_556
Cl1_1 O4_0 2.316573 1_556
Cl1_1 O11_1 2.321704 1_555
Cl1_2 Cl1_5 1.780870 1_554
Cl1_2 Cl1_5 1.780870 1_465
Cl1_2 O5_2 2.214676 1_555
Cl1_2 O13_3 2.278185 1_555
Cl1_2 O4_3 2.316573 1_555
Cl1_2 O11_2 2.321704 1_555
Cl1_3 Cl1_4 1.780870 1_555
Cl1_3 Cl1_4 1.780870 1_466
Cl1_3 O5_3 2.214676 1_555
Cl1_3 O13_2 2.278185 1_556
Cl1_3 O4_2 2.316573 1_556
Cl1_3 O11_3 2.321704 1_555
Cl1_4 O5_4 2.214676 1_555
Cl1_4 O13_5 2.278185 1_555
Cl1_4 O4_5 2.316573 1_555
Cl1_4 O11_4 2.321704 1_555
Cl1_5 O5_5 2.214676 1_555
Cl1_5 O13_4 2.278185 1_556
Cl1_5 O4_4 2.316573 1_556
Cl1_5 O11_5 2.321704 1_555
Cl1_6 O5_6 2.214676 1_555
Cl1_6 O13_7 2.278185 1_555
Cl1_6 O4_7 2.316573 1_555
Cl1_6 O11_6 2.321704 1_555
Cl1_7 O5_7 2.214676 1_555
Cl1_7 O13_6 2.278185 1_556
Cl1_7 O4_6 2.316573 1_556
Cl1_7 O11_7 2.321704 1_555
Cl2_0 Cl2_7 1.780870 1_544
Cl2_0 Cl2_7 1.780870 1_455
Cl2_0 O6_5 2.214677 1_554
Cl2_0 O14_2 2.278179 1_555
Cl2_0 O7_0 2.316581 1_555
Cl2_0 O8_1 2.321698 1_554
Cl2_1 Cl2_6 1.780870 1_456
Cl2_1 Cl2_6 1.780870 1_545
Cl2_1 O6_4 2.214677 1_555
Cl2_1 O14_3 2.278179 1_555
Cl2_1 O7_1 2.316581 1_555
Cl2_1 O8_0 2.321698 1_555
Cl2_2 Cl2_5 1.780870 1_554
Cl2_2 Cl2_5 1.780870 1_465
Cl2_2 O6_7 2.214677 1_554
Cl2_2 O14_0 2.278179 1_565
Cl2_2 O7_2 2.316581 1_555
Cl2_2 O8_3 2.321698 1_554
Cl2_3 Cl2_4 1.780870 1_466
Cl2_3 Cl2_4 1.780870 1_555
Cl2_3 O6_6 2.214677 1_555
Cl2_3 O14_1 2.278179 1_565
Cl2_3 O7_3 2.316581 1_555
Cl2_3 O8_2 2.321698 1_555
Cl2_4 O6_1 2.214677 1_654
Cl2_4 O14_6 2.278179 1_555
Cl2_4 O7_4 2.316581 1_555
Cl2_4 O8_5 2.321698 1_554
Cl2_5 O6_0 2.214677 1_655
Cl2_5 O14_7 2.278179 1_555
Cl2_5 O7_5 2.316581 1_555
Cl2_5 O8_4 2.321698 1_555
Cl2_6 O6_3 2.214677 1_654
Cl2_6 O14_4 2.278179 1_565
Cl2_6 O7_6 2.316581 1_555
Cl2_6 O8_7 2.321698 1_554
Cl2_7 O6_2 2.214677 1_655
Cl2_7 O14_5 2.278179 1_565
Cl2_7 O7_7 2.316581 1_555
Cl2_7 O8_6 2.321698 1_555
Cl3_0 Cl3_7 1.780870 1_544
Cl3_0 Cl3_7 1.780870 1_455
Cl3_0 O7_2 2.214664 1_545
Cl3_0 O15_1 2.278178 1_555
Cl3_0 O6_0 2.316579 1_555
Cl3_0 O9_2 2.321711 1_545
Cl3_1 Cl3_6 1.780870 1_456
Cl3_1 Cl3_6 1.780870 1_545
Cl3_1 O7_3 2.214664 1_545
Cl3_1 O15_0 2.278178 1_556
Cl3_1 O6_1 2.316579 1_555
Cl3_1 O9_3 2.321711 1_545
Cl3_2 Cl3_5 1.780870 1_465
Cl3_2 Cl3_5 1.780870 1_554
Cl3_2 O7_0 2.214664 1_555
Cl3_2 O15_3 2.278178 1_555
Cl3_2 O6_2 2.316579 1_555
Cl3_2 O9_0 2.321711 1_555
Cl3_3 Cl3_4 1.780870 1_555
Cl3_3 Cl3_4 1.780870 1_466
Cl3_3 O7_1 2.214664 1_555
Cl3_3 O15_2 2.278178 1_556
Cl3_3 O6_3 2.316579 1_555
Cl3_3 O9_1 2.321711 1_555
Cl3_4 O7_6 2.214664 1_545
Cl3_4 O15_5 2.278178 1_555
Cl3_4 O6_4 2.316579 1_555
Cl3_4 O9_6 2.321711 1_545
Cl3_5 O7_7 2.214664 1_545
Cl3_5 O15_4 2.278178 1_556
Cl3_5 O6_5 2.316579 1_555
Cl3_5 O9_7 2.321711 1_545
Cl3_6 O7_4 2.214664 1_555
Cl3_6 O15_7 2.278178 1_555
Cl3_6 O6_6 2.316579 1_555
Cl3_6 O9_4 2.321711 1_555
Cl3_7 O7_5 2.214664 1_555
Cl3_7 O15_6 2.278178 1_556
Cl3_7 O6_7 2.316579 1_555
Cl3_7 O9_5 2.321711 1_555
