# generated using pymatgen
data_Li4Mn3OF11
_symmetry_space_group_name_H-M   'P 1'
_cell_length_a   6.03948300
_cell_length_b   6.10469107
_cell_length_c   6.10919283
_cell_angle_alpha   100.76291845
_cell_angle_beta   100.60633298
_cell_angle_gamma   99.96849925
_symmetry_Int_Tables_number   1
_chemical_formula_structural   Li4Mn3OF11
_chemical_formula_sum   'Li4 Mn3 O1 F11'
_cell_volume   212.41805707
_cell_formula_units_Z   1
loop_
 _symmetry_equiv_pos_site_id
 _symmetry_equiv_pos_as_xyz
  1  'x, y, z'
loop_
 _atom_site_type_symbol
 _atom_site_label
 _atom_site_symmetry_multiplicity
 _atom_site_fract_x
 _atom_site_fract_y
 _atom_site_fract_z
 _atom_site_occupancy
  Li  Li0  1  0.86971000  0.67564500  0.40201900  1
  Li  Li1  1  0.66943900  0.38400000  0.85161300  1
  Li  Li2  1  0.39696100  0.87603900  0.68372400  1
  Li  Li3  1  0.14223600  0.31993600  0.59643300  1
  Mn  Mn0  1  0.57885600  0.14497900  0.33438500  1
  Mn  Mn1  1  0.28757600  0.62630100  0.11210900  1
  Mn  Mn2  1  0.00339100  0.99032800  0.00164500  1
  O  O0  1  0.31598600  0.94942500  0.12283000  1
  F  F0  1  0.90107000  0.65744200  0.04001800  1
  F  F1  1  0.96629400  0.10415900  0.29686000  1
  F  F2  1  0.56024300  0.39996100  0.18956500  1
  F  F3  1  0.81612300  0.37355000  0.56658400  1
  F  F4  1  0.61767400  0.85230500  0.40899000  1
  F  F5  1  0.40576100  0.18317100  0.59824500  1
  F  F6  1  0.70288400  0.04638600  0.89685700  1
  F  F7  1  0.19810700  0.60966000  0.39307500  1
  F  F8  1  0.39584600  0.60795400  0.83764500  1
  F  F9  1  0.04530100  0.88110900  0.70577900  1
  F  F10  1  0.12654400  0.31765200  0.96162300  1
loop_
_geom_bond_atom_site_label_1
_geom_bond_atom_site_label_2
_geom_bond_distance
_geom_bond_site_symmetry_2
Mn0 O0 1.904794 1_545
Mn1 O0 1.937834 1_555
Mn2 O0 1.972917 1_555
F0 Li1 1.987331 1_554
F0 Mn2 2.088784 1_655
F0 Li0 2.238033 1_555
F0 Mn1 2.342115 1_655
F1 Mn2 1.876261 1_645
F1 Li3 2.028011 1_655
F1 Mn0 2.442930 1_555
F2 Mn0 1.938215 1_555
F2 Li1 2.270548 1_554
F2 Li0 2.283060 1_555
F2 Mn1 2.364333 1_555
F3 Mn0 1.957772 1_555
F3 Li3 2.032923 1_655
F3 Li1 2.089722 1_555
F3 Li0 2.263221 1_555
F4 Mn0 1.965900 1_565
F4 Li0 2.014180 1_555
F4 Li2 2.326915 1_555
F4 Mn1 2.439186 1_555
F5 Li3 1.920223 1_555
F5 Li2 2.032819 1_545
F5 Li1 2.035403 1_555
F5 Mn0 2.076063 1_555
F6 Mn2 1.920930 1_646
F6 Li2 2.033219 1_545
F6 Li1 2.168269 1_555
F7 Mn1 1.906865 1_555
F7 Li0 2.099331 1_455
F7 Li2 2.167950 1_555
F7 Li3 2.356669 1_555
F8 Mn1 1.900119 1_556
F8 Li2 2.033702 1_555
F8 Li3 2.208633 1_555
F8 Li1 2.319593 1_555
F9 Mn2 1.884786 1_556
F9 Li0 2.021704 1_455
F9 Li2 2.157863 1_555
F10 Mn1 1.931513 1_556
F10 Mn2 2.083437 1_546
F10 Li3 2.252910 1_555
