# generated using pymatgen
data_TaGaFe2
_symmetry_space_group_name_H-M   'P 1'
_cell_length_a   4.14558241
_cell_length_b   4.14559159
_cell_length_c   4.14563503
_cell_angle_alpha   60.00075319
_cell_angle_beta   60.00069891
_cell_angle_gamma   60.00125802
_symmetry_Int_Tables_number   1
_chemical_formula_structural   TaGaFe2
_chemical_formula_sum   'Ta1 Ga1 Fe2'
_cell_volume   50.37986853
_cell_formula_units_Z   1
loop_
 _symmetry_equiv_pos_site_id
 _symmetry_equiv_pos_as_xyz
  1  'x, y, z'
loop_
 _atom_site_type_symbol
 _atom_site_label
 _atom_site_symmetry_multiplicity
 _atom_site_fract_x
 _atom_site_fract_y
 _atom_site_fract_z
 _atom_site_occupancy
  Ta  Ta0  1  0.74996855  0.75001037  0.75001949  1
  Ga  Ga0  1  0.25001300  0.24999134  0.24998953  1
  Fe  Fe0  1  0.00000692  -0.00000291  -0.00000453  1
  Fe  Fe1  1  0.50001154  0.50000120  0.49999552  1
loop_
_geom_bond_atom_site_label_1
_geom_bond_atom_site_label_2
_geom_bond_distance
_geom_bond_site_symmetry_2
Ga0 Ta0 2.931274 1_544
Ga0 Ta0 2.931302 1_554
Ga0 Ta0 2.931375 1_545
Ga0 Ta0 2.931452 1_445
Ga0 Ta0 2.931460 1_454
Ga0 Ta0 2.931562 1_455
Fe0 Ta0 2.538543 1_544
Fe0 Ga0 2.538617 1_555
Fe0 Ta0 2.538639 1_444
Fe0 Ga0 2.538653 1_455
Fe0 Ga0 2.538700 1_545
Fe0 Ga0 2.538713 1_554
Fe0 Ta0 2.538725 1_454
Fe0 Ta0 2.538774 1_445
Fe1 Ta0 2.538602 1_555
Fe1 Ta0 2.538611 1_554
Fe1 Ga0 2.538647 1_565
Fe1 Ta0 2.538649 1_545
Fe1 Ga0 2.538672 1_556
Fe1 Ga0 2.538678 1_655
Fe1 Ga0 2.538684 1_555
Fe1 Ta0 2.538819 1_455
