# generated using pymatgen
data_LiNbRh2
_symmetry_space_group_name_H-M   'P 1'
_cell_length_a   4.32771765
_cell_length_b   4.32771765
_cell_length_c   4.32771765
_cell_angle_alpha   60.00000000
_cell_angle_beta   60.00000000
_cell_angle_gamma   60.00000000
_symmetry_Int_Tables_number   1
_chemical_formula_structural   LiNbRh2
_chemical_formula_sum   'Li1 Nb1 Rh2'
_cell_volume   57.31413724
_cell_formula_units_Z   1
loop_
 _symmetry_equiv_pos_site_id
 _symmetry_equiv_pos_as_xyz
  1  'x, y, z'
loop_
 _atom_site_type_symbol
 _atom_site_label
 _atom_site_symmetry_multiplicity
 _atom_site_fract_x
 _atom_site_fract_y
 _atom_site_fract_z
 _atom_site_occupancy
  Li  Li0  1  0.24999900  0.24999900  0.24999900  1
  Nb  Nb0  1  0.74999900  0.74999900  0.74999900  1
  Rh  Rh0  1  -0.00000000  -0.00000000  -0.00000000  1
  Rh  Rh1  1  0.50000000  0.50000000  0.50000000  1
loop_
_geom_bond_atom_site_label_1
_geom_bond_atom_site_label_2
_geom_bond_distance
_geom_bond_site_symmetry_2
Li0 Rh0 2.650164 1_555
Li0 Rh1 2.650171 1_545
Li0 Rh1 2.650171 1_554
Li0 Rh1 2.650171 1_455
Li0 Rh0 2.650179 1_556
Li0 Rh0 2.650179 1_565
Li0 Rh0 2.650179 1_655
Li0 Rh1 2.650186 1_555
Nb0 Rh1 2.650164 1_555
Nb0 Rh0 2.650171 1_566
Nb0 Rh0 2.650171 1_665
Nb0 Rh0 2.650171 1_656
Nb0 Rh1 2.650179 1_556
Nb0 Rh1 2.650179 1_655
Nb0 Rh1 2.650179 1_565
Nb0 Rh0 2.650186 1_666
