# generated using pymatgen
data_TiZnH12(OF)6
_symmetry_space_group_name_H-M   'P 1'
_cell_length_a   6.28941457
_cell_length_b   6.28941457
_cell_length_c   6.28941522
_cell_angle_alpha   96.57231601
_cell_angle_beta   96.57231601
_cell_angle_gamma   96.57231215
_symmetry_Int_Tables_number   1
_chemical_formula_structural   TiZnH12(OF)6
_chemical_formula_sum   'Ti1 Zn1 H12 O6 F6'
_cell_volume   243.46997635
_cell_formula_units_Z   1
loop_
 _symmetry_equiv_pos_site_id
 _symmetry_equiv_pos_as_xyz
  1  'x, y, z'
loop_
 _atom_site_type_symbol
 _atom_site_label
 _atom_site_symmetry_multiplicity
 _atom_site_fract_x
 _atom_site_fract_y
 _atom_site_fract_z
 _atom_site_occupancy
  Ti  Ti0  1  0.50000000  0.50000000  0.50000000  1
  Zn  Zn0  1  0.00000000  0.00000000  0.00000000  1
  H  H0  1  0.81461600  0.94050400  0.58153000  1
  H  H1  1  0.24324800  0.83739900  0.30708300  1
  H  H2  1  0.58153000  0.81461600  0.94050400  1
  H  H3  1  0.69291700  0.75675200  0.16260100  1
  H  H4  1  0.16260100  0.69291700  0.75675200  1
  H  H5  1  0.94050400  0.58153000  0.81461600  1
  H  H6  1  0.05949600  0.41847000  0.18538400  1
  H  H7  1  0.83739900  0.30708300  0.24324800  1
  H  H8  1  0.30708300  0.24324800  0.83739900  1
  H  H9  1  0.41847000  0.18538400  0.05949600  1
  H  H10  1  0.75675200  0.16260100  0.69291700  1
  H  H11  1  0.18538400  0.05949600  0.41847000  1
  O  O0  1  0.13394200  0.93618300  0.30681600  1
  O  O1  1  0.69318400  0.86605800  0.06381700  1
  O  O2  1  0.06381700  0.69318400  0.86605800  1
  O  O3  1  0.93618300  0.30681600  0.13394200  1
  O  O4  1  0.30681600  0.13394200  0.93618300  1
  O  O5  1  0.86605800  0.06381700  0.69318400  1
  F  F0  1  0.43094000  0.75520600  0.65288300  1
  F  F1  1  0.75520600  0.65288300  0.43094000  1
  F  F2  1  0.34711700  0.56906000  0.24479400  1
  F  F3  1  0.65288300  0.43094000  0.75520600  1
  F  F4  1  0.24479400  0.34711700  0.56906000  1
  F  F5  1  0.56906000  0.24479400  0.34711700  1
loop_
_geom_bond_atom_site_label_1
_geom_bond_atom_site_label_2
_geom_bond_distance
_geom_bond_site_symmetry_2
H0 O5 0.982444 1_565
H1 O0 0.977943 1_555
H2 O1 0.982444 1_556
H3 O1 0.977943 1_555
H4 O2 0.977943 1_555
H5 O2 0.982444 1_655
H6 O3 0.982444 1_455
H7 O3 0.977943 1_555
H8 O4 0.977943 1_555
H9 O4 0.982444 1_554
H10 O5 0.977943 1_555
H11 O0 0.982444 1_545
O0 Zn0 2.115906 1_565
O1 Zn0 2.115906 1_665
O2 Zn0 2.115906 1_566
O3 Zn0 2.115906 1_655
O4 Zn0 2.115906 1_556
O5 Zn0 2.115906 1_656
F0 Ti0 1.895114 1_555
F1 Ti0 1.895114 1_555
F2 Ti0 1.895114 1_555
F3 Ti0 1.895114 1_555
F4 Ti0 1.895114 1_555
F5 Ti0 1.895114 1_555
